data_functionalizedCrystal
_audit_creation_method	'MofGen! by Chris Wilmer'
_symmetry_space_group_name_H-M	'P1'
_symmetry_Int_Tables_number	1
_symmetry_cell_setting	triclinic
loop_
_symmetry_equiv_pos_as_xyz
  x,y,z
_cell_length_a	21.395356
_cell_length_b	12.759401
_cell_length_c	12.759399
_cell_angle_alpha	89.983359
_cell_angle_beta	89.976567
_cell_angle_gamma	90.021779
loop_
_atom_site_label
_atom_site_type_symbol
_atom_site_fract_x
_atom_site_fract_y
_atom_site_fract_z
Zn1	Zn	-0.354250	-1.606272	-0.418250
Zn2	Zn	0.145750	-1.106272	0.081750
Zn3	Zn	-0.249480	-1.606159	-0.593943
Zn4	Zn	0.250520	-1.106159	-0.093943
Zn5	Zn	-0.249490	-1.430568	-0.418283
Zn6	Zn	0.250510	-0.930568	0.081717
Zn7	Zn	-0.354223	-1.430561	-0.593892
Zn8	Zn	0.145777	-0.930561	-0.093892
O9	O	-0.301861	-1.518390	-0.506092
O10	O	0.198139	-1.018390	-0.006092
O11	O	-0.340359	-1.753278	-0.441564
O12	O	0.159641	-1.253278	0.058436
O13	O	-0.161803	-1.582822	-0.570676
O14	O	0.338197	-1.082822	-0.070676
O15	O	-0.263401	-1.453926	-0.271258
O16	O	0.236599	-0.953926	0.228742
O17	O	-0.263385	-1.753195	-0.570644
O18	O	0.236615	-1.253195	-0.070644
O19	O	-0.340368	-1.583015	-0.271234
O20	O	0.159632	-1.083015	0.228766
O21	O	-0.161810	-1.453816	-0.441620
O22	O	0.338190	-0.953816	0.058380
O23	O	-0.263376	-1.283546	-0.441571
O24	O	0.236624	-0.783546	0.058429
O25	O	-0.441905	-1.453914	-0.570558
O26	O	0.058095	-0.953914	-0.070558
O27	O	-0.340323	-1.283541	-0.570590
O28	O	0.159677	-0.783541	-0.070590
O29	O	-0.441924	-1.583008	-0.441515
O30	O	0.058076	-1.083008	0.058485
O31	O	-0.263359	-1.582816	-0.740957
O32	O	0.236641	-1.082816	-0.240957
O33	O	-0.340314	-1.453805	-0.740920
O34	O	0.159686	-0.953805	-0.240920
C35	C	-0.301848	-1.245423	-0.506079
C36	C	0.198152	-0.745423	-0.006079
C37	C	-0.301858	-1.128646	-0.506099
C38	C	0.198142	-0.628646	-0.006099
C39	C	-0.301846	-1.518326	-0.779060
C40	C	0.198154	-1.018326	-0.279060
C41	C	-0.301861	-1.518394	-0.895836
C42	C	0.198139	-1.018394	-0.395836
C43	C	-0.465284	-1.518473	-0.506027
C44	C	0.034716	-1.018473	-0.006027
C45	C	-0.534925	-1.518508	-0.505999
C46	C	-0.034925	-1.018508	-0.005999
C47	C	-0.567632	-1.451353	-0.438792
C48	C	-0.067632	-0.951353	0.061208
C49	C	-0.633068	-1.451349	-0.438773
C50	C	-0.133068	-0.951349	0.061227
C51	C	-0.665794	-1.518520	-0.505949
C52	C	-0.165794	-1.018520	-0.005949
C53	C	-0.633079	-1.585680	-0.573170
C54	C	-0.133079	-1.085680	-0.073170
C55	C	-0.567645	-1.585674	-0.573195
C56	C	-0.067645	-1.085674	-0.073195
C57	C	-0.769479	-1.613182	-0.514207
C58	C	-0.269479	-1.113182	-0.014207
C59	C	-0.834912	-1.613190	-0.514174
C60	C	-0.334912	-1.113190	-0.014174
C61	C	-0.867615	-1.518537	-0.505878
C62	C	-0.367615	-1.018537	-0.005878
C63	C	-0.834876	-1.423874	-0.497593
C64	C	-0.334876	-0.923874	0.002407
C65	C	-0.769442	-1.423868	-0.497618
C66	C	-0.269442	-0.923868	0.002382
C67	C	-0.736746	-1.518533	-0.505930
C68	C	-0.236746	-1.018533	-0.005930
C69	C	-0.971274	-1.451372	-0.438646
C70	C	-0.471274	-0.951372	0.061354
C71	C	-1.036711	-1.451367	-0.438634
C72	C	-0.536711	-0.951367	0.061366
C73	C	-1.036721	-1.585707	-0.573026
C74	C	-0.536721	-1.085707	-0.073026
C75	C	-0.971285	-1.585703	-0.573043
C76	C	-0.471285	-1.085703	-0.073043
C77	C	-0.938566	-1.518537	-0.505848
C78	C	-0.438566	-1.018537	-0.005848
C79	C	-0.139073	-1.518368	-0.506081
C80	C	0.360927	-1.018368	-0.006081
C81	C	-0.069432	-1.518537	-0.505813
C82	C	0.430568	-1.018537	-0.005813
C83	C	-0.301874	-1.792423	-0.506106
C84	C	0.198126	-1.292423	-0.006106
C85	C	-0.301879	-1.909200	-0.506112
C86	C	0.198121	-1.409200	-0.006112
C87	C	-0.341861	-1.073809	-0.573382
C88	C	0.158139	-0.573809	-0.073382
C89	C	-0.341874	-0.964085	-0.573386
C90	C	0.158126	-0.464085	-0.073386
C91	C	-0.261874	-0.964045	-0.438822
C92	C	0.238126	-0.464045	0.061178
C93	C	-0.261865	-1.073767	-0.438813
C94	C	0.238135	-0.573767	0.061187
C95	C	-0.261837	-1.585647	-0.950682
C96	C	0.238163	-1.085647	-0.450682
C97	C	-0.261858	-1.585715	-1.060407
C98	C	0.238142	-1.085715	-0.560407
C99	C	-0.341930	-1.451268	-1.060428
C100	C	0.158070	-0.951268	-0.560428
C101	C	-0.341911	-1.451206	-0.950706
C102	C	0.158089	-0.951206	-0.450706
C103	C	-0.301889	-1.518483	-0.232059
C104	C	0.198111	-1.018483	0.267941
C105	C	-0.301901	-1.518523	-0.115282
C106	C	0.198099	-1.018523	0.384718
H107	H	-0.540996	-1.396657	-0.384080
H108	H	-0.040996	-0.896657	0.115920
Cl109	Cl	-0.392274	-1.366804	-1.129415
Cl110	Cl	0.107726	-0.866804	-0.629415
H111	H	-0.374428	-1.118489	-0.628168
H112	H	0.125572	-0.618489	-0.128168
H113	H	-0.944633	-1.396681	-0.383933
H114	H	-0.444633	-0.896681	0.116067
Cl115	Cl	-0.674219	-1.670118	-0.657625
Cl116	Cl	-0.174219	-1.170118	-0.157625
Cl117	Cl	-0.930166	-1.670139	-0.657530
Cl118	Cl	-0.430166	-1.170139	-0.157530
Cl119	Cl	-0.392167	-0.895152	-0.657972
Cl120	Cl	0.107833	-0.395152	-0.157972
Cl121	Cl	-0.211598	-0.895046	-0.354241
Cl122	Cl	0.288402	-0.395046	0.145759
Cl123	Cl	-0.211575	-1.142710	-0.354215
Cl124	Cl	0.288425	-0.642710	0.145785
Cl125	Cl	-0.392236	-1.366659	-0.881751
Cl126	Cl	0.107764	-0.866659	-0.381751
H127	H	-0.659703	-1.396665	-0.384039
H128	H	-0.159703	-0.896665	0.115961
Cl129	Cl	-0.728288	-1.304868	-0.487209
Cl130	Cl	-0.228288	-0.804868	0.012791
Cl131	Cl	-0.875981	-1.304873	-0.487157
Cl132	Cl	-0.375981	-0.804873	0.012843
H133	H	-1.063340	-1.396673	-0.383909
H134	H	-0.563340	-0.896673	0.116091
H135	H	-0.229226	-1.640357	-0.906010
H136	H	0.270774	-1.140357	-0.406010
Cl137	Cl	-0.211540	-1.670268	-1.129352
Cl138	Cl	0.288460	-1.170268	-0.629352
Cl139	Cl	-1.077856	-1.670144	-0.657485
Cl140	Cl	-0.577856	-1.170144	-0.157485
H141	H	-0.742857	-1.690267	-0.520953
H142	H	-0.242857	-1.190267	-0.020953
Cl143	Cl	-0.526525	-1.670107	-0.657689
Cl144	Cl	-0.026525	-1.170107	-0.157689
Cl145	Cl	-0.876061	-1.732192	-0.524602
Cl146	Cl	-0.376061	-1.232192	-0.024602
