data_functionalizedCrystal
_audit_creation_method	'MofGen! by Chris Wilmer'
_symmetry_space_group_name_H-M	'P1'
_symmetry_Int_Tables_number	1
_symmetry_cell_setting	triclinic
loop_
_symmetry_equiv_pos_as_xyz
  x,y,z
_cell_length_a	12.759399
_cell_length_b	12.759401
_cell_length_c	12.759393
_cell_angle_alpha	90.020459
_cell_angle_beta	89.969730
_cell_angle_gamma	89.983359
loop_
_atom_site_label
_atom_site_type_symbol
_atom_site_fract_x
_atom_site_fract_y
_atom_site_fract_z
Zn1	Zn	-0.418179	-1.606258	-0.594017
Zn2	Zn	-0.593893	-1.606150	-0.418336
Zn3	Zn	-0.418233	-1.430559	-0.418352
Zn4	Zn	-0.593821	-1.430548	-0.593973
O5	O	-0.506032	-1.518379	-0.506170
O6	O	-0.441495	-1.753265	-0.570724
O7	O	-0.570644	-1.582816	-0.271317
O8	O	-0.271205	-1.453916	-0.441680
O9	O	-0.570591	-1.753185	-0.441652
O10	O	-0.271165	-1.583001	-0.570740
O11	O	-0.441587	-1.453810	-0.271329
O12	O	-0.441518	-1.283536	-0.441637
O13	O	-0.570470	-1.453897	-0.741000
O14	O	-0.570522	-1.283528	-0.570665
O15	O	-0.441426	-1.582991	-0.741032
O16	O	-0.740904	-1.582806	-0.441609
O17	O	-0.740852	-1.453792	-0.570649
C18	C	-0.778999	-1.518314	-0.506146
C19	C	-0.895776	-1.518383	-0.506171
C20	C	-0.506019	-1.245411	-0.506149
C21	C	-0.506039	-1.128635	-0.506165
C22	C	-0.505934	-1.518455	-0.780203
C23	C	-0.505892	-1.518487	-0.896980
C24	C	-0.950630	-1.585637	-0.439056
C25	C	-1.060354	-1.585704	-0.439091
C26	C	-1.060360	-1.451254	-0.573359
C27	C	-0.950638	-1.451193	-0.573328
C28	C	-0.231998	-1.518472	-0.506217
C29	C	-0.115222	-1.518512	-0.506237
C30	C	-0.506045	-1.792412	-0.506191
C31	C	-0.506051	-1.909188	-0.506200
C32	C	-0.573313	-1.073796	-0.573244
C33	C	-0.573317	-0.964072	-0.573265
C34	C	-0.438769	-0.964035	-0.439118
C35	C	-0.438761	-1.073757	-0.439104
C36	C	-0.573014	-1.585689	-1.061571
C37	C	-0.573064	-1.585663	-0.951847
C38	C	-0.438674	-1.451325	-0.951843
C39	C	-0.438631	-1.451346	-1.061565
C40	C	-0.506053	-1.518363	-0.233202
C41	C	-0.505799	-1.518534	-0.116426
H42	H	-0.905964	-1.640348	-0.384374
H43	H	-1.105012	-1.640471	-0.384441
C44	C	-1.120718	-1.377338	-0.647216
N45	N	-1.166179	-1.321658	-0.702843
H46	H	-0.628097	-0.919427	-0.627889
H47	H	-0.383971	-1.118408	-0.384480
H48	H	-0.905972	-1.396426	-0.627986
H49	H	-0.628093	-1.118474	-0.627852
H50	H	-0.627708	-1.640396	-1.106236
C51	C	-0.646983	-1.659561	-0.891511
N52	N	-0.702655	-1.715231	-0.846067
C53	C	-0.364773	-0.903659	-0.365349
N54	N	-0.309040	-0.858185	-0.309782
H55	H	-0.383987	-1.396625	-0.907161
C56	C	-0.364682	-1.377471	-1.121909
N57	N	-0.308986	-1.321830	-1.167360
