data_functionalizedCrystal
_audit_creation_method	'MofGen! by Chris Wilmer'
_symmetry_space_group_name_H-M	'P1'
_symmetry_Int_Tables_number	1
_symmetry_cell_setting	triclinic
loop_
_symmetry_equiv_pos_as_xyz
  x,y,z
_cell_length_a	12.759400
_cell_length_b	12.759401
_cell_length_c	12.759393
_cell_angle_alpha	89.981425
_cell_angle_beta	89.969615
_cell_angle_gamma	90.014455
loop_
_atom_site_label
_atom_site_type_symbol
_atom_site_fract_x
_atom_site_fract_y
_atom_site_fract_z
Zn1	Zn	-0.418192	1.606260	-0.593994
Zn2	Zn	0.081808	2.106260	-0.093994
Zn3	Zn	-0.593911	1.606156	-0.418318
Zn4	Zn	-0.093911	2.106156	0.081682
Zn5	Zn	-0.418248	1.430562	-0.418333
Zn6	Zn	0.081752	1.930562	0.081667
Zn7	Zn	-0.593831	1.430553	-0.593959
Zn8	Zn	-0.093831	1.930553	-0.093959
O9	O	-0.506045	1.518383	-0.506151
O10	O	-0.006045	2.018383	-0.006151
O11	O	-0.441512	1.753267	-0.570698
O12	O	0.058488	2.253267	-0.070698
O13	O	-0.570666	1.582824	-0.271299
O14	O	-0.070666	2.082824	0.228701
O15	O	-0.271219	1.453916	-0.441656
O16	O	0.228781	1.953916	0.058344
O17	O	-0.570612	1.753191	-0.441630
O18	O	-0.070612	2.253191	0.058370
O19	O	-0.271178	1.583000	-0.570713
O20	O	0.228822	2.083000	-0.070713
O21	O	-0.441607	1.453816	-0.271310
O22	O	0.058393	1.953816	0.228690
O23	O	-0.441529	1.283540	-0.441622
O24	O	0.058471	1.783540	0.058378
O25	O	-0.570475	1.453900	-0.740985
O26	O	-0.070475	1.953900	-0.240985
O27	O	-0.570529	1.283533	-0.570653
O28	O	-0.070529	1.783533	-0.070653
O29	O	-0.441434	1.582991	-0.741010
O30	O	0.058566	2.082991	-0.241010
O31	O	-0.740921	1.582815	-0.441596
O32	O	-0.240921	2.082815	0.058404
O33	O	-0.740862	1.453799	-0.570639
O34	O	-0.240862	1.953799	-0.070639
C35	C	-0.506027	1.245415	-0.506136
C36	C	-0.006027	1.745415	-0.006136
C37	C	-0.506045	1.128639	-0.506154
C38	C	-0.006045	1.628639	-0.006154
C39	C	-0.438944	1.073817	-0.573464
C40	C	0.061056	1.573817	-0.073464
C41	C	-0.438955	0.964093	-0.573471
C42	C	0.061045	1.464093	-0.073471
C43	C	-0.573176	0.964022	-0.438856
C44	C	-0.073176	1.464022	0.061144
C45	C	-0.573159	1.073744	-0.438844
C46	C	-0.073159	1.573744	0.061156
C47	C	-0.779013	1.518323	-0.506135
C48	C	-0.279013	2.018323	-0.006135
C49	C	-0.895789	1.518394	-0.506163
C50	C	-0.395789	2.018394	-0.006163
C51	C	-1.060277	1.585631	-0.573443
C52	C	-0.560277	2.085631	-0.073443
C53	C	-0.950553	1.585577	-0.573419
C54	C	-0.450553	2.085577	-0.073419
C55	C	-0.950756	1.451268	-0.438919
C56	C	-0.450756	1.951268	0.061081
C57	C	-1.060478	1.451329	-0.438938
C58	C	-0.560478	1.951329	0.061062
C59	C	-0.232012	1.518471	-0.506190
C60	C	0.267988	2.018471	-0.006190
C61	C	-0.115235	1.518508	-0.506207
C62	C	0.384765	2.018508	-0.006207
C63	C	-0.505939	1.518456	-0.780184
C64	C	-0.005939	2.018456	-0.280184
C65	C	-0.505894	1.518487	-0.896961
C66	C	-0.005894	2.018487	-0.396961
C67	C	-0.506064	1.792416	-0.506166
C68	C	-0.006064	2.292416	-0.006166
C69	C	-0.506072	1.909193	-0.506173
C70	C	-0.006072	2.409193	-0.006173
C71	C	-0.438681	1.451337	-0.951828
C72	C	0.061319	1.951337	-0.451828
C73	C	-0.438648	1.451361	-1.061552
C74	C	0.061352	1.951361	-0.561552
C75	C	-0.573045	1.585696	-1.061532
C76	C	-0.073045	2.085696	-0.561532
C77	C	-0.573082	1.585665	-0.951810
C78	C	-0.073082	2.085665	-0.451810
C79	C	-0.506075	1.518370	-0.233183
C80	C	-0.006075	2.018370	0.266817
C81	C	-0.505825	1.518542	-0.116407
C82	C	-0.005825	2.018542	0.383593
H83	H	-0.384291	1.118509	-0.628269
H84	H	0.115709	1.618509	-0.128269
H85	H	-0.906161	1.396571	-0.384152
H86	H	-0.406161	1.896571	0.115848
H87	H	-0.627747	1.640391	-1.106204
H88	H	-0.127747	2.140391	-0.606204
H89	H	-0.905808	1.640236	-0.628168
H90	H	-0.405808	2.140236	-0.128168
H91	H	-0.384313	0.919462	-0.628280
H92	H	0.115687	1.419462	-0.128280
H93	H	-1.105226	1.396668	-0.384180
H94	H	-0.605226	1.896668	0.115820
H95	H	-0.627819	1.640350	-0.907136
H96	H	-0.127819	2.140350	-0.407136
H97	H	-0.383917	1.396679	-1.106220
H98	H	0.116083	1.896679	-0.606220
C99	C	-0.647005	0.903628	-0.364825
C100	C	-0.147005	1.403628	0.135175
N101	N	-0.702617	0.858140	-0.309067
N102	N	-0.202617	1.358140	0.190933
C103	C	-0.646979	1.134051	-0.364794
C104	C	-0.146979	1.634051	0.135206
N105	N	-0.702576	1.179475	-0.309020
N106	N	-0.202576	1.679475	0.190980
H107	H	-1.104857	1.640329	-0.628222
H108	H	-0.604857	2.140329	-0.128222
H109	H	-0.383972	1.396636	-0.907173
H110	H	0.116028	1.896636	-0.407173
