data_functionalizedCrystal
_audit_creation_method	'MofGen! by Chris Wilmer'
_symmetry_space_group_name_H-M	'P1'
_symmetry_Int_Tables_number	1
_symmetry_cell_setting	triclinic
loop_
_symmetry_equiv_pos_as_xyz
  x,y,z
_cell_length_a	21.395364
_cell_length_b	12.759400
_cell_length_c	21.395355
_cell_angle_alpha	90.011210
_cell_angle_beta	90.024552
_cell_angle_gamma	90.029235
loop_
_atom_site_label
_atom_site_type_symbol
_atom_site_fract_x
_atom_site_fract_y
_atom_site_fract_z
Zn1	Zn	0.957931	-0.417969	0.354293
Zn2	Zn	1.457931	0.082031	0.854293
Zn3	Zn	0.957863	-0.593633	0.249529
Zn4	Zn	1.457863	-0.093633	0.749529
Zn5	Zn	0.853146	-0.418015	0.249530
Zn6	Zn	1.353146	0.081985	0.749530
Zn7	Zn	0.853145	-0.593652	0.354269
Zn8	Zn	1.353145	-0.093652	0.854269
O9	O	0.905521	-0.505817	0.301905
O10	O	1.405521	-0.005817	0.801905
O11	O	1.045600	-0.441244	0.340406
O12	O	1.545600	0.058756	0.840406
O13	O	0.943944	-0.570349	0.161851
O14	O	1.443944	-0.070349	0.661851
O15	O	0.867074	-0.270988	0.263437
O16	O	1.367074	0.229012	0.763437
O17	O	1.045550	-0.570304	0.263436
O18	O	1.545550	-0.070304	0.763436
O19	O	0.944059	-0.270954	0.340407
O20	O	1.444059	0.229046	0.840407
O21	O	0.867009	-0.441322	0.161852
O22	O	1.367009	0.058678	0.661852
O23	O	0.765468	-0.441341	0.263414
O24	O	1.265468	0.058659	0.763414
O25	O	0.867073	-0.570336	0.441950
O26	O	1.367073	-0.070336	0.941950
O27	O	0.765467	-0.570381	0.340366
O28	O	1.265467	-0.070381	0.840366
O29	O	0.944059	-0.441262	0.441968
O30	O	1.444059	0.058738	0.941968
O31	O	0.943944	-0.740657	0.263413
O32	O	1.443944	-0.240657	0.763413
O33	O	0.867007	-0.740671	0.340365
O34	O	1.367007	-0.240671	0.840365
C35	C	0.742733	-0.505868	0.301888
C36	C	1.242733	-0.005868	0.801888
C37	C	0.673092	-0.505916	0.301895
C38	C	1.173092	-0.005916	0.801895
C39	C	0.640427	-0.438824	0.342035
C40	C	1.140427	0.061176	0.842035
C41	C	0.574992	-0.438796	0.342038
C42	C	1.074992	0.061204	0.842038
C43	C	0.542224	-0.505878	0.301907
C44	C	1.042224	-0.005878	0.801907
C45	C	0.574897	-0.572975	0.261759
C46	C	1.074897	-0.072975	0.761759
C47	C	0.640331	-0.572993	0.261753
C48	C	1.140331	-0.072993	0.761753
C49	C	0.438516	-0.600493	0.296876
C50	C	0.938516	-0.100493	0.796876
C51	C	0.373083	-0.600476	0.296886
C52	C	0.873083	-0.100476	0.796886
C53	C	0.340403	-0.505821	0.301921
C54	C	0.840403	-0.005821	0.801921
C55	C	0.373165	-0.411179	0.306958
C56	C	0.873165	0.088821	0.806958
C57	C	0.438599	-0.411197	0.306952
C58	C	0.938599	0.088803	0.806952
C59	C	0.471272	-0.505865	0.301908
C60	C	0.971272	-0.005865	0.801908
C61	C	0.236786	-0.438693	0.342065
C62	C	0.736786	0.061307	0.842065
C63	C	0.171349	-0.438663	0.342063
C64	C	0.671349	0.061337	0.842063
C65	C	0.171255	-0.572851	0.261788
C66	C	0.671255	-0.072851	0.761788
C67	C	0.236691	-0.572872	0.261786
C68	C	0.736691	-0.072872	0.761786
C69	C	0.269452	-0.505794	0.301929
C70	C	0.769452	-0.005794	0.801929
C71	C	0.905485	-0.778785	0.301900
C72	C	1.405485	-0.278785	0.801900
C73	C	0.905527	-0.895561	0.301918
C74	C	1.405527	-0.395561	0.801918
C75	C	0.865458	-0.950469	0.341956
C76	C	1.365458	-0.450469	0.841956
C77	C	0.865491	-1.060193	0.341962
C78	C	1.365491	-0.560193	0.841962
C79	C	0.945668	-1.060092	0.261891
C80	C	1.445668	-0.560092	0.761891
C81	C	0.945631	-0.950370	0.261883
C82	C	1.445631	-0.450370	0.761883
C83	C	0.819170	-0.950528	0.388186
C84	C	1.319170	-0.450528	0.888186
C85	C	0.819203	-1.060252	0.388192
C86	C	1.319203	-0.560252	0.888192
C87	C	1.068944	-0.505767	0.301923
C88	C	1.568944	-0.005767	0.801923
C89	C	1.138586	-0.505745	0.301931
C90	C	1.638586	-0.005745	0.801931
C91	C	0.905573	-0.505796	0.465329
C92	C	1.405573	-0.005796	0.965329
C93	C	0.905595	-0.505787	0.534970
C94	C	1.405595	-0.005787	1.034970
C95	C	0.905574	-0.231784	0.301925
C96	C	1.405574	0.268216	0.801925
C97	C	0.905597	-0.115007	0.301933
C98	C	1.405597	0.384993	0.801933
C99	C	0.905505	-0.505763	0.139118
C100	C	1.405505	-0.005763	0.639118
C101	C	0.905605	-0.505476	0.069477
C102	C	1.405605	-0.005476	0.569477
C103	C	0.945680	-0.438575	0.567693
C104	C	1.445680	0.061425	1.067693
C105	C	0.945679	-0.438530	0.633129
C106	C	1.445679	0.061470	1.133129
C107	C	0.905600	-0.505715	0.665838
C108	C	1.405600	-0.005715	1.165838
C109	C	0.865508	-0.572932	0.633107
C110	C	1.365508	-0.072932	1.133107
C111	C	0.865505	-0.572967	0.567673
C112	C	1.365505	-0.072967	1.067673
C113	C	0.900640	-0.600316	0.769511
C114	C	1.400640	-0.100316	1.269511
C115	C	0.900647	-0.600282	0.834944
C116	C	1.400647	-0.100282	1.334944
C117	C	0.905604	-0.505604	0.867659
C118	C	1.405604	-0.005604	1.367659
C119	C	0.910567	-0.410957	0.834933
C120	C	1.410567	0.089043	1.334933
C121	C	0.910565	-0.410993	0.769499
C122	C	1.410565	0.089007	1.269499
C123	C	0.905598	-0.505684	0.736791
C124	C	1.405598	-0.005684	1.236791
C125	C	0.945690	-0.438338	0.971335
C126	C	1.445690	0.061662	1.471335
C127	C	0.945685	-0.438291	1.036772
C128	C	1.445685	0.061709	1.536772
C129	C	0.865516	-0.572702	1.036749
C130	C	1.365516	-0.072702	1.536749
C131	C	0.865518	-0.572740	0.971314
C132	C	1.365518	-0.072740	1.471314
C133	C	0.905609	-0.505559	0.938611
C134	C	1.405609	-0.005559	1.438611
H135	H	0.548391	-0.384157	0.374724
H136	H	1.048391	0.115843	0.874724
H137	H	0.667098	-0.384203	0.374722
H138	H	1.167098	0.115797	0.874722
H139	H	0.836519	-0.916439	0.434293
H140	H	1.336519	-0.416439	0.934293
H141	H	0.770640	-0.920846	0.375145
H142	H	1.270640	-0.420846	0.875145
H143	H	0.773125	-1.094373	0.370771
H144	H	1.273125	-0.594373	0.870771
Br145	Br	1.000007	-0.875855	0.207539
Br146	Br	1.500007	-0.375855	0.707539
Br147	Br	0.893932	-0.728823	0.725119
Br148	Br	1.393932	-0.228823	1.225119
Br149	Br	0.482860	-0.728964	0.290032
Br150	Br	0.982860	-0.228964	0.790032
H151	H	0.978319	-1.104731	0.229295
H152	H	1.478319	-0.604731	0.729295
Br153	Br	0.840864	-1.109813	0.469086
Br154	Br	1.340864	-0.609813	0.969086
Br155	Br	0.811110	-0.664105	0.677497
Br156	Br	1.311110	-0.164105	1.177497
Br157	Br	0.684665	-0.664048	0.207270
Br158	Br	1.184665	-0.164048	0.707270
H159	H	0.978324	-0.383870	0.541071
H160	H	1.478324	0.116130	1.041071
Br161	Br	0.530428	-0.664008	0.207290
Br162	Br	1.030428	-0.164008	0.707290
Br163	Br	0.917300	-0.282456	0.879324
Br164	Br	1.417300	0.217544	1.379324
Br165	Br	1.000094	-0.347164	0.926949
Br166	Br	1.500094	0.152836	1.426949
H167	H	0.978320	-0.383793	0.659777
H168	H	1.478320	0.116207	1.159777
H169	H	0.978326	-0.383553	1.063414
H170	H	1.478326	0.116447	1.563414
H171	H	0.914604	-0.333928	0.742856
H172	H	1.414604	0.166072	1.242856
Br173	Br	0.811116	-0.663962	0.926900
Br174	Br	1.311116	-0.163962	1.426900
Br175	Br	0.811114	-0.663870	1.081134
Br176	Br	1.311114	-0.163870	1.581134
H177	H	0.144576	-0.627471	0.229112
H178	H	0.644576	-0.127471	0.729112
Br179	Br	0.893920	-0.728730	0.879351
Br180	Br	1.393920	-0.228730	1.379351
H181	H	0.832861	-0.627698	0.541030
H182	H	1.332861	-0.127698	1.041030
H183	H	0.346558	-0.334101	0.311057
H184	H	0.846558	0.165899	0.811057
Br185	Br	0.281251	-0.347656	0.396539
Br186	Br	0.781251	0.152344	0.896539
Br187	Br	0.127016	-0.347595	0.396540
Br188	Br	0.627016	0.152405	0.896540
Br189	Br	0.483059	-0.282762	0.313786
Br190	Br	0.983059	0.217238	0.813786
H191	H	0.346413	-0.677539	0.292788
H192	H	0.846413	-0.177539	0.792788
Br193	Br	0.281025	-0.663922	0.207303
Br194	Br	0.781025	-0.163922	0.707303
