data_functionalizedCrystal
_audit_creation_method	'MofGen! by Chris Wilmer'
_symmetry_space_group_name_H-M	'P1'
_symmetry_Int_Tables_number	1
_symmetry_cell_setting	triclinic
loop_
_symmetry_equiv_pos_as_xyz
  x,y,z
_cell_length_a	21.395362
_cell_length_b	12.759400
_cell_length_c	21.395356
_cell_angle_alpha	89.979052
_cell_angle_beta	89.964230
_cell_angle_gamma	90.030564
loop_
_atom_site_label
_atom_site_type_symbol
_atom_site_fract_x
_atom_site_fract_y
_atom_site_fract_z
Zn1	Zn	0.957879	-0.417869	-0.354606
Zn2	Zn	1.457879	0.082131	0.145394
Zn3	Zn	0.957825	-0.593555	-0.249837
Zn4	Zn	1.457825	-0.093555	0.250163
Zn5	Zn	0.853109	-0.417940	-0.249807
Zn6	Zn	1.353109	0.082060	0.250193
Zn7	Zn	0.853092	-0.593555	-0.354542
Zn8	Zn	1.353092	-0.093555	0.145458
O9	O	0.905476	-0.505730	-0.302198
O10	O	1.405476	-0.005730	0.197802
O11	O	1.045550	-0.441145	-0.340747
O12	O	1.545550	0.058855	0.159253
O13	O	0.943919	-0.570289	-0.162155
O14	O	1.443919	-0.070289	0.337845
O15	O	0.867036	-0.270909	-0.263723
O16	O	1.367036	0.229091	0.236277
O17	O	1.045510	-0.570221	-0.263774
O18	O	1.545510	-0.070221	0.236226
O19	O	0.944010	-0.270857	-0.340719
O20	O	1.444010	0.229143	0.159281
O21	O	0.866984	-0.441265	-0.162133
O22	O	1.366984	0.058735	0.337867
O23	O	0.765428	-0.441265	-0.263661
O24	O	1.265428	0.058735	0.236339
O25	O	0.867008	-0.570220	-0.442228
O26	O	1.367008	-0.070220	0.057772
O27	O	0.765416	-0.570289	-0.340609
O28	O	1.265416	-0.070289	0.159391
O29	O	0.943994	-0.441145	-0.442275
O30	O	1.443994	0.058855	0.057725
O31	O	0.943903	-0.740576	-0.263712
O32	O	1.443903	-0.240576	0.236288
O33	O	0.866956	-0.740576	-0.340638
O34	O	1.366956	-0.240576	0.159362
C35	C	0.742689	-0.505785	-0.302125
C36	C	1.242689	-0.005785	0.197875
C37	C	0.673047	-0.505834	-0.302109
C38	C	1.173047	-0.005834	0.197891
C39	C	0.640344	-0.573106	-0.342116
C40	C	1.140344	-0.073106	0.157884
C41	C	0.574909	-0.573081	-0.342144
C42	C	1.074909	-0.073081	0.157856
C43	C	0.542179	-0.505794	-0.302154
C44	C	1.042179	-0.005794	0.197846
C45	C	0.574890	-0.438509	-0.262144
C46	C	1.074890	0.061491	0.237856
C47	C	0.640324	-0.438529	-0.262122
C48	C	1.140324	0.061471	0.237878
C49	C	0.438461	-0.497342	-0.245748
C50	C	0.938461	0.002658	0.254252
C51	C	0.373028	-0.497329	-0.245769
C52	C	0.873028	0.002671	0.254231
C53	C	0.340358	-0.505725	-0.302223
C54	C	0.840358	-0.005725	0.197777
C55	C	0.373130	-0.514157	-0.358657
C56	C	0.873130	-0.014157	0.141343
C57	C	0.438564	-0.514177	-0.358635
C58	C	0.938564	-0.014177	0.141365
C59	C	0.471227	-0.505764	-0.302174
C60	C	0.971227	-0.005764	0.197826
C61	C	0.236703	-0.572973	-0.342263
C62	C	0.736703	-0.072973	0.157737
C63	C	0.171266	-0.572940	-0.342292
C64	C	0.671266	-0.072940	0.157708
C65	C	0.171248	-0.438374	-0.262287
C66	C	0.671248	0.061626	0.237713
C67	C	0.236684	-0.438402	-0.262264
C68	C	0.736684	0.061598	0.237736
C69	C	0.269407	-0.505707	-0.302251
C70	C	0.769407	-0.005707	0.197749
C71	C	0.905439	-0.778697	-0.302185
C72	C	1.405439	-0.278697	0.197815
C73	C	0.905480	-0.895474	-0.302200
C74	C	1.405480	-0.395474	0.197800
C75	C	0.945591	-0.950301	-0.262189
C76	C	1.445591	-0.450301	0.237811
C77	C	0.945630	-1.060025	-0.262208
C78	C	1.445630	-0.560025	0.237792
C79	C	0.865441	-1.060085	-0.342252
C80	C	1.365441	-0.560085	0.157748
C81	C	0.865406	-0.950363	-0.342235
C82	C	1.365406	-0.450363	0.157765
C83	C	0.991886	-0.950267	-0.215975
C84	C	1.491886	-0.450267	0.284025
C85	C	0.991924	-1.059991	-0.215994
C86	C	1.491924	-0.559991	0.284006
C87	C	1.068899	-0.505675	-0.302271
C88	C	1.568899	-0.005675	0.197729
C89	C	1.138541	-0.505651	-0.302303
C90	C	1.638541	-0.005651	0.197697
C91	C	0.905505	-0.505675	-0.465621
C92	C	1.405505	-0.005675	0.034379
C93	C	0.905517	-0.505651	-0.535263
C94	C	1.405517	-0.005651	-0.035263
C95	C	0.905531	-0.231697	-0.302225
C96	C	1.405531	0.268303	0.197775
C97	C	0.905554	-0.114920	-0.302236
C98	C	1.405554	0.385080	0.197764
C99	C	0.945647	-0.572614	-1.037071
C100	C	1.445647	-0.072614	-0.537071
C101	C	0.945636	-0.572647	-0.971635
C102	C	1.445636	-0.072647	-0.471635
C103	C	0.905577	-0.505484	-0.938901
C104	C	1.405577	-0.005484	-0.438901
C105	C	0.865514	-0.438303	-0.971608
C106	C	1.365514	0.061697	-0.471608
C107	C	0.865522	-0.438279	-1.037042
C108	C	1.365522	0.061721	-0.537042
C109	C	0.900636	-0.410868	-0.835240
C110	C	1.400636	0.089132	-0.335240
C111	C	0.900632	-0.410890	-0.769807
C112	C	1.400632	0.089110	-0.269807
C113	C	0.905549	-0.505559	-0.737080
C114	C	1.405549	-0.005559	-0.237080
C115	C	0.910482	-0.600208	-0.769795
C116	C	1.410482	-0.100208	-0.269795
C117	C	0.910490	-0.600184	-0.835229
C118	C	1.410490	-0.100184	-0.335229
C119	C	0.905563	-0.505503	-0.867949
C120	C	1.405563	-0.005503	-0.367949
C121	C	0.945593	-0.572778	-0.633429
C122	C	1.445593	-0.072778	-0.133429
C123	C	0.945578	-0.572813	-0.567992
C124	C	1.445578	-0.072813	-0.067992
C125	C	0.865459	-0.438459	-0.567966
C126	C	1.365459	0.061541	-0.067966
C127	C	0.865471	-0.438434	-0.633401
C128	C	1.365471	0.061566	-0.133401
C129	C	0.905542	-0.505591	-0.666129
C130	C	1.405542	-0.005591	-0.166129
C131	C	0.905484	-0.505709	-0.139410
C132	C	1.405484	-0.005709	0.360590
C133	C	0.905593	-0.505437	-0.069770
C134	C	1.405593	-0.005437	0.430230
H135	H	0.144600	-0.383583	-0.229729
H136	H	0.644600	0.116417	0.270271
H137	H	0.832815	-1.104789	-0.374847
H138	H	1.332815	-0.604789	0.125153
N139	N	0.337919	-0.523279	-0.419557
N140	N	0.837919	-0.023279	0.080443
H141	H	0.349359	-0.462624	-0.447677
H142	H	0.849359	0.037376	0.052323
H143	H	0.349337	-0.591379	-0.440716
H144	H	0.849337	-0.091379	0.059284
H145	H	0.548237	-0.383722	-0.229585
H146	H	1.048237	0.116278	0.270415
N147	N	0.675601	-0.365961	-0.218975
N148	N	1.175601	0.134039	0.281025
H149	H	0.644941	-0.323324	-0.193647
H150	H	1.144941	0.176676	0.306353
H151	H	0.702705	-0.408664	-0.189924
H152	H	1.202705	0.091336	0.310076
N153	N	1.056137	-0.910680	-0.233260
N154	N	1.556137	-0.410680	0.266740
H155	H	1.084835	-0.972155	-0.240990
H156	H	1.584835	-0.472155	0.259010
H157	H	1.053263	-0.866639	-0.272385
H158	H	1.553263	-0.366639	0.227615
H159	H	0.832751	-0.905724	-0.374821
H160	H	1.332751	-0.405724	0.125179
H161	H	0.974521	-0.916314	-0.169854
H162	H	1.474521	-0.416314	0.330146
N163	N	0.272001	-0.645560	-0.385392
N164	N	0.772001	-0.145560	0.114608
H165	H	0.260668	-0.629339	-0.430181
H166	H	0.760668	-0.129339	0.069819
H167	H	0.318405	-0.635337	-0.379250
H168	H	0.818405	-0.135337	0.120750
N169	N	1.052998	-1.104928	-0.239070
N170	N	1.552998	-0.604928	0.260930
H171	H	1.060956	-1.080444	-0.283262
H172	H	1.560956	-0.580444	0.216738
H173	H	1.088109	-1.080434	-0.211122
H174	H	1.588109	-0.580434	0.288878
N175	N	0.974761	-1.099548	-0.151705
N176	N	1.474761	-0.599548	0.348295
H177	H	0.967070	-1.038059	-0.123003
H178	H	1.467070	-0.538059	0.376997
H179	H	0.935640	-1.143624	-0.154503
H180	H	1.435640	-0.643624	0.345497
H181	H	0.978274	-0.627302	-1.063714
H182	H	1.478274	-0.127302	-0.563714
H183	H	0.978263	-0.627339	-0.945007
H184	H	1.478263	-0.127339	-0.445007
N185	N	0.135990	-0.645505	-0.385442
N186	N	0.635990	-0.145505	0.114558
H187	H	0.166652	-0.688146	-0.410766
H188	H	0.666652	-0.188146	0.089234
H189	H	0.108796	-0.694049	-0.359890
H190	H	0.608796	-0.194049	0.140110
H191	H	0.914505	-0.677251	-0.861863
H192	H	1.414505	-0.177251	-0.361863
N193	N	0.915789	-0.702325	-0.734508
N194	N	1.415789	-0.202325	-0.234508
H195	H	0.915033	-0.687983	-0.688092
H196	H	1.415033	-0.187983	-0.188092
H197	H	0.879551	-0.749306	-0.745927
H198	H	1.379551	-0.249306	-0.245927
H199	H	0.978220	-0.627464	-0.660077
H200	H	1.478220	-0.127464	-0.160077
H201	H	0.832840	-0.383777	-0.541314
H202	H	1.332840	0.116223	-0.041314
H203	H	0.465243	-0.521039	-0.404585
H204	H	0.965243	-0.021039	0.095415
H205	H	0.548277	-0.627861	-0.374724
H206	H	1.048277	-0.127861	0.125276
N207	N	0.988777	-0.645279	-0.532721
N208	N	1.488777	-0.145279	-0.032721
H209	H	1.014161	-0.687816	-0.563385
H210	H	1.514161	-0.187816	-0.063385
H211	H	1.017773	-0.602510	-0.505587
H212	H	1.517773	-0.102510	-0.005587
N213	N	0.271961	-0.365837	-0.219117
N214	N	0.771961	0.134163	0.280883
H215	H	0.241300	-0.323203	-0.193789
H216	H	0.741300	0.176797	0.306211
H217	H	0.299068	-0.408535	-0.190066
H218	H	0.799068	0.091465	0.309934
H219	H	0.666983	-0.627910	-0.374678
H220	H	1.166983	-0.127910	0.125322
N221	N	0.822271	-0.365975	-0.668674
N222	N	1.322271	0.134025	-0.168674
H223	H	0.796891	-0.323431	-0.638010
H224	H	1.296891	0.176569	-0.138010
H225	H	0.847787	-0.317334	-0.695841
H226	H	1.347787	0.182666	-0.195841
N227	N	0.895321	-0.308801	-0.734532
N228	N	1.395321	0.191199	-0.234532
H229	H	0.854779	-0.273065	-0.745901
H230	H	1.354779	0.226935	-0.245901
H231	H	0.896096	-0.323252	-0.688125
H232	H	1.396096	0.176748	-0.188125
H233	H	0.346351	-0.490470	-0.199817
H234	H	0.846351	0.009530	0.300183
N235	N	0.895328	-0.308755	-0.870535
N236	N	1.395328	0.191245	-0.370535
H237	H	0.892208	-0.248802	-0.839883
H238	H	1.392208	0.251198	-0.339883
H239	H	0.933509	-0.298975	-0.897704
H240	H	1.433509	0.201025	-0.397704
N241	N	0.473695	-0.488281	-0.184855
N242	N	0.973695	0.011719	0.315145
H243	H	0.443007	-0.482946	-0.149109
H244	H	0.943007	0.017054	0.350891
H245	H	0.500810	-0.552290	-0.178964
H246	H	1.000810	-0.052290	0.321036
N247	N	0.822304	-0.365866	-0.936306
N248	N	1.322304	0.134134	-0.436306
H249	H	0.828378	-0.376072	-0.889891
H250	H	1.328378	0.123928	-0.389891
H251	H	0.832069	-0.290824	-0.947756
H252	H	1.332069	0.209176	-0.447756
H253	H	0.832904	-0.383573	-1.063665
H254	H	1.332904	0.116427	-0.563665
