data_functionalizedCrystal
_audit_creation_method	'MofGen! by Chris Wilmer'
_symmetry_space_group_name_H-M	'P1'
_symmetry_Int_Tables_number	1
_symmetry_cell_setting	triclinic
loop_
_symmetry_equiv_pos_as_xyz
  x,y,z
_cell_length_a	12.759399
_cell_length_b	12.759401
_cell_length_c	12.759393
_cell_angle_alpha	90.019837
_cell_angle_beta	89.967969
_cell_angle_gamma	89.983359
loop_
_atom_site_label
_atom_site_type_symbol
_atom_site_fract_x
_atom_site_fract_y
_atom_site_fract_z
Zn1	Zn	-0.418161	-1.606252	-0.594017
Zn2	Zn	-0.593880	-1.606145	-0.418336
Zn3	Zn	-0.418220	-1.430554	-0.418352
Zn4	Zn	-0.593803	-1.430541	-0.593973
O5	O	-0.506016	-1.518373	-0.506170
O6	O	-0.441478	-1.753259	-0.570724
O7	O	-0.570635	-1.582813	-0.271317
O8	O	-0.271191	-1.453911	-0.441680
O9	O	-0.570578	-1.753180	-0.441652
O10	O	-0.271148	-1.582995	-0.570740
O11	O	-0.441579	-1.453807	-0.271329
O12	O	-0.441505	-1.283531	-0.441637
O13	O	-0.570447	-1.453889	-0.741000
O14	O	-0.570504	-1.283522	-0.570665
O15	O	-0.441403	-1.582983	-0.741032
O16	O	-0.740891	-1.582801	-0.441609
O17	O	-0.740834	-1.453785	-0.570649
C18	C	-0.778984	-1.518309	-0.506146
C19	C	-0.895760	-1.518377	-0.506171
C20	C	-0.506003	-1.245406	-0.506149
C21	C	-0.506023	-1.128629	-0.506165
C22	C	-0.950617	-1.585632	-0.439056
C23	C	-1.060341	-1.585700	-0.439091
C24	C	-1.060342	-1.451248	-0.573359
C25	C	-0.950620	-1.451187	-0.573328
C26	C	-0.505910	-1.518446	-0.780203
C27	C	-0.505865	-1.518478	-0.896980
C28	C	-0.231983	-1.518466	-0.506217
C29	C	-0.115206	-1.518506	-0.506237
C30	C	-0.506030	-1.792406	-0.506191
C31	C	-0.506036	-1.909183	-0.506200
C32	C	-0.573296	-1.073790	-0.573244
C33	C	-0.573300	-0.964066	-0.573265
C34	C	-0.438756	-0.964030	-0.439118
C35	C	-0.438747	-1.073752	-0.439104
C36	C	-0.438653	-1.451328	-0.951848
C37	C	-0.438620	-1.451353	-1.061572
C38	C	-0.573015	-1.585685	-1.061551
C39	C	-0.573052	-1.585654	-0.951829
C40	C	-0.506046	-1.518360	-0.233202
C41	C	-0.505796	-1.518533	-0.116426
H42	H	-1.105000	-1.640467	-0.384441
H43	H	-1.105022	-1.396543	-0.628034
H44	H	-0.905953	-1.396420	-0.627986
H45	H	-0.628073	-1.118467	-0.627852
O46	O	-0.638749	-0.910958	-0.638457
C47	C	-0.698102	-0.982927	-0.697659
H48	H	-0.701683	-1.061117	-0.654605
H49	H	-0.659725	-0.994647	-0.777518
C50	C	-0.805543	-0.844053	-0.765491
C51	C	-0.809948	-0.940085	-0.712607
H52	H	-0.874533	-0.817625	-0.774717
H53	H	-0.765554	-0.795565	-0.725609
H54	H	-0.773557	-0.853833	-0.832035
H55	H	-0.841921	-0.930301	-0.646060
H56	H	-0.849945	-0.988570	-0.752479
O57	O	-0.373508	-0.910558	-0.374010
C58	C	-0.387920	-0.801954	-0.388424
H59	H	-0.469044	-0.786966	-0.422688
H60	H	-0.325675	-0.770859	-0.444491
C61	C	-0.278524	-0.763980	-0.240065
C62	C	-0.378165	-0.745571	-0.282140
H63	H	-0.272502	-0.729198	-0.174506
H64	H	-0.268810	-0.837148	-0.230356
H65	H	-0.226664	-0.738067	-0.286798
H66	H	-0.430023	-0.771495	-0.235415
H67	H	-0.387887	-0.672405	-0.291839
O68	O	-0.373432	-1.386167	-0.898404
C69	C	-0.387891	-1.400517	-0.789794
H70	H	-0.422306	-1.481582	-0.774803
H71	H	-0.443849	-1.338173	-0.758641
C72	C	-0.239338	-1.291340	-0.751898
C73	C	-0.281599	-1.390909	-0.733485
H74	H	-0.173773	-1.285409	-0.717162
H75	H	-0.229598	-1.281669	-0.825070
H76	H	-0.285979	-1.239398	-0.725937
H77	H	-0.234964	-1.442849	-0.759458
H78	H	-0.291329	-1.400589	-0.660316
O79	O	-0.373362	-1.126867	-0.373839
C80	C	-0.313973	-1.054906	-0.314664
H81	H	-0.357005	-0.976680	-0.310956
H82	H	-0.234227	-1.043273	-0.353279
C83	C	-0.245840	-1.193763	-0.207424
C84	C	-0.298698	-1.097687	-0.202862
H85	H	-0.236413	-1.220153	-0.138461
H86	H	-0.285849	-1.242246	-0.247293
H87	H	-0.179391	-1.184056	-0.239608
H88	H	-0.365150	-1.107398	-0.170691
H89	H	-0.258700	-1.049207	-0.162985
O90	O	-0.638120	-1.651054	-1.114881
C91	C	-0.578289	-1.718934	-1.178385
H92	H	-0.495554	-1.725445	-1.145336
H93	H	-0.574637	-1.686474	-1.261540
C94	C	-0.731241	-1.820137	-1.220659
C95	C	-0.629627	-1.828141	-1.180063
H96	H	-0.762910	-1.887500	-1.221699
H97	H	-0.771552	-1.774403	-1.177879
H98	H	-0.728184	-1.793083	-1.289951
H99	H	-0.632686	-1.855182	-1.110768
H100	H	-0.589318	-1.873882	-1.222832
H101	H	-0.627788	-1.640338	-0.907154
H102	H	-0.905952	-1.640344	-0.384374
H103	H	-0.383891	-1.396672	-1.106240
