data_functionalizedCrystal
_audit_creation_method	'MofGen! by Chris Wilmer'
_symmetry_space_group_name_H-M	'P1'
_symmetry_Int_Tables_number	1
_symmetry_cell_setting	triclinic
loop_
_symmetry_equiv_pos_as_xyz
  x,y,z
_cell_length_a	21.395362
_cell_length_b	21.395361
_cell_length_c	21.395356
_cell_angle_alpha	89.971386
_cell_angle_beta	89.964230
_cell_angle_gamma	90.046585
loop_
_atom_site_label
_atom_site_type_symbol
_atom_site_fract_x
_atom_site_fract_y
_atom_site_fract_z
Zn1	Zn	0.957809	-0.249202	-0.354573
Zn2	Zn	1.457809	0.250798	0.145427
Zn3	Zn	0.957726	-0.353974	-0.249790
Zn4	Zn	1.457726	0.146026	0.250210
Zn5	Zn	0.853039	-0.249244	-0.249774
Zn6	Zn	1.353039	0.250756	0.250226
Zn7	Zn	0.852993	-0.353974	-0.354494
Zn8	Zn	1.352993	0.146026	0.145506
O9	O	0.905392	-0.301599	-0.302158
O10	O	1.405392	0.198401	0.197842
O11	O	1.045476	-0.263082	-0.340712
O12	O	1.545476	0.236918	0.159288
O13	O	0.943824	-0.340099	-0.162110
O14	O	1.443824	0.159901	0.337890
O15	O	0.866991	-0.161560	-0.263702
O16	O	1.366991	0.338440	0.236298
O17	O	1.045415	-0.340059	-0.263729
O18	O	1.545415	0.159941	0.236271
O19	O	0.943965	-0.161529	-0.340697
O20	O	1.443965	0.338471	0.159303
O21	O	0.866910	-0.263154	-0.162098
O22	O	1.366910	0.236846	0.337902
O23	O	0.765355	-0.263154	-0.263626
O24	O	1.265355	0.236846	0.236374
O25	O	0.866913	-0.340058	-0.442183
O26	O	1.366913	0.159942	0.057817
O27	O	0.765321	-0.340099	-0.340564
O28	O	1.265321	0.159901	0.159436
O29	O	0.943920	-0.263082	-0.442240
O30	O	1.443920	0.236918	0.057760
O31	O	0.943780	-0.441652	-0.263653
O32	O	1.443780	0.058348	0.236347
O33	O	0.866832	-0.441652	-0.340579
O34	O	1.366832	0.058348	0.159421
C35	C	0.742604	-0.301632	-0.302085
C36	C	1.242604	0.198368	0.197915
C37	C	0.672963	-0.301661	-0.302069
C38	C	1.172963	0.198339	0.197931
C39	C	0.640249	-0.341779	-0.342070
C40	C	1.140249	0.158221	0.157930
C41	C	0.574813	-0.341764	-0.342098
C42	C	1.074813	0.158236	0.157902
C43	C	0.542095	-0.301637	-0.302113
C44	C	1.042095	0.198363	0.197887
C45	C	0.574817	-0.261511	-0.262109
C46	C	1.074817	0.238489	0.237891
C47	C	0.640251	-0.261523	-0.262087
C48	C	1.140251	0.238477	0.237913
C49	C	0.438378	-0.296596	-0.245708
C50	C	0.938378	0.203404	0.254292
C51	C	0.372945	-0.296589	-0.245730
C52	C	0.872945	0.203411	0.254270
C53	C	0.340274	-0.301596	-0.302182
C54	C	0.840274	0.198404	0.197818
C55	C	0.373044	-0.306624	-0.358616
C56	C	0.873044	0.193376	0.141384
C57	C	0.438478	-0.306636	-0.358593
C58	C	0.938478	0.193364	0.141407
C59	C	0.471142	-0.301619	-0.302133
C60	C	0.971142	0.198381	0.197867
C61	C	0.236607	-0.341700	-0.342218
C62	C	0.736607	0.158300	0.157782
C63	C	0.171171	-0.341680	-0.342247
C64	C	0.671171	0.158320	0.157753
C65	C	0.171175	-0.261430	-0.262252
C66	C	0.671175	0.238570	0.237748
C67	C	0.236611	-0.261446	-0.262229
C68	C	0.736611	0.238554	0.237771
C69	C	0.269323	-0.301585	-0.302211
C70	C	0.769323	0.198415	0.197789
C71	C	0.905309	-0.464386	-0.302123
C72	C	1.405309	0.035614	0.197877
C73	C	0.905331	-0.534027	-0.302129
C74	C	1.405331	-0.034027	0.197871
C75	C	0.945433	-0.566720	-0.262114
C76	C	1.445433	-0.066720	0.237886
C77	C	0.945462	-0.632155	-0.262128
C78	C	1.445462	-0.132155	0.237872
C79	C	0.905378	-0.664896	-0.302150
C80	C	1.405378	-0.164896	0.197850
C81	C	0.865273	-0.632196	-0.342172
C82	C	1.365273	-0.132196	0.157828
C83	C	0.865250	-0.566761	-0.342162
C84	C	1.365250	-0.066761	0.157838
C85	C	0.848963	-0.768626	-0.307041
C86	C	1.348963	-0.268626	0.192959
C87	C	0.848985	-0.834059	-0.307047
C88	C	1.348985	-0.334059	0.192953
C89	C	0.905451	-0.866716	-0.302187
C90	C	1.405451	-0.366716	0.197813
C91	C	0.961896	-0.833933	-0.297307
C92	C	1.461896	-0.333933	0.202693
C93	C	0.961873	-0.768499	-0.297296
C94	C	1.461873	-0.268499	0.202704
C95	C	0.905399	-0.735848	-0.302167
C96	C	1.405399	-0.235848	0.197833
C97	C	0.945588	-0.970361	-0.262186
C98	C	1.445588	-0.470361	0.237814
C99	C	0.945618	-1.035798	-0.262204
C100	C	1.445618	-0.535798	0.237796
C101	C	0.865424	-1.035837	-0.342245
C102	C	1.365424	-0.535837	0.157755
C103	C	0.865399	-0.970402	-0.342230
C104	C	1.365399	-0.470402	0.157770
C105	C	0.905481	-0.937668	-0.302197
C106	C	1.405481	-0.437668	0.197803
C107	C	1.068815	-0.301566	-0.302231
C108	C	1.568815	0.198434	0.197769
C109	C	1.138456	-0.301552	-0.302262
C110	C	1.638456	0.198448	0.197738
C111	C	0.905421	-0.301566	-0.465581
C112	C	1.405421	0.198434	0.034419
C113	C	0.905433	-0.301552	-0.535222
C114	C	1.405433	0.198448	-0.035222
C115	C	0.905492	-0.138175	-0.302206
C116	C	1.405492	0.361825	0.197794
C117	C	0.905535	-0.068534	-0.302227
C118	C	1.405535	0.431466	0.197773
C119	C	0.945552	-0.341486	-1.037025
C120	C	1.445552	0.158514	-0.537025
C121	C	0.945541	-0.341505	-0.971590
C122	C	1.445541	0.158495	-0.471590
C123	C	0.905493	-0.301452	-0.938861
C124	C	1.405493	0.198548	-0.438861
C125	C	0.865441	-0.261388	-0.971573
C126	C	1.365441	0.238612	-0.471573
C127	C	0.865449	-0.261373	-1.037007
C128	C	1.365449	0.238627	-0.537007
C129	C	0.900567	-0.245027	-0.835207
C130	C	1.400567	0.254973	-0.335207
C131	C	0.900563	-0.245040	-0.769774
C132	C	1.400563	0.254960	-0.269774
C133	C	0.905464	-0.301497	-0.737040
C134	C	1.405464	0.198503	-0.237040
C135	C	0.910382	-0.357942	-0.769747
C136	C	1.410382	0.142058	-0.269747
C137	C	0.910390	-0.357928	-0.835181
C138	C	1.410390	0.142072	-0.335181
C139	C	0.905479	-0.301464	-0.867908
C140	C	1.405479	0.198536	-0.367908
C141	C	0.945498	-0.341584	-0.633383
C142	C	1.445498	0.158416	-0.133383
C143	C	0.945482	-0.341604	-0.567947
C144	C	1.445482	0.158396	-0.067947
C145	C	0.865386	-0.261481	-0.567931
C146	C	1.365386	0.238519	-0.067931
C147	C	0.865398	-0.261466	-0.633366
C148	C	1.365398	0.238534	-0.133366
C149	C	0.905458	-0.301516	-0.666089
C150	C	1.405458	0.198484	-0.166089
C151	C	0.905399	-0.301586	-0.139370
C152	C	1.405399	0.198414	0.360630
C153	C	0.905508	-0.301424	-0.069729
C154	C	1.405508	0.198576	0.430271
H155	H	0.346445	-0.310700	-0.404585
H156	H	0.846445	0.189300	0.095415
C157	C	0.989613	-0.385548	-1.073016
C158	C	1.489613	0.114452	-0.573016
N159	N	1.022797	-0.418739	-1.100125
N160	N	1.522797	0.081261	-0.600125
C161	C	0.538820	-0.385901	-0.386102
C162	C	1.038820	0.114099	0.113898
N163	N	0.511712	-0.419146	-0.419246
N164	N	1.011712	0.080854	0.080754
H165	H	0.465157	-0.310728	-0.404543
H166	H	0.965157	0.189272	0.095457
H167	H	1.007832	-0.741808	-0.293325
H168	H	1.507832	-0.241808	0.206675
H169	H	0.978120	-0.658778	-0.229544
H170	H	1.478120	-0.158778	0.270456
H171	H	0.144536	-0.374348	-0.374824
H172	H	0.644536	0.125652	0.125176
C173	C	0.989517	-0.530716	-0.218070
C174	C	1.489517	-0.030716	0.281930
N175	N	1.022718	-0.503597	-0.184893
N176	N	1.522718	-0.003597	0.315107
H177	H	0.802978	-0.742043	-0.311001
H178	H	1.302978	-0.242043	0.188999
H179	H	0.978226	-0.943708	-0.229590
H180	H	1.478226	-0.443708	0.270410
C181	C	0.821141	-0.530799	-0.386190
C182	C	1.321141	-0.030799	0.113810
N183	N	0.787919	-0.503711	-0.419356
N184	N	1.287919	-0.003711	0.080644
C185	C	0.676238	-0.217391	-0.218077
C186	C	1.176238	0.282609	0.281923
N187	N	0.703344	-0.184151	-0.184926
N188	N	1.203344	0.315849	0.315074
H189	H	0.144536	-0.228755	-0.229699
H190	H	0.644536	0.271245	0.270301
H191	H	0.978158	-0.374122	-0.944957
H192	H	1.478158	0.125878	-0.444957
H193	H	1.007876	-0.860521	-0.293349
H194	H	1.507876	-0.360521	0.206651
C195	C	0.821332	-1.071848	-0.386271
C196	C	1.321332	-0.571848	0.113729
N197	N	0.788122	-1.098974	-0.419433
N198	N	1.288122	-0.598974	0.080567
H199	H	0.978278	-1.062415	-0.229621
H200	H	1.478278	-0.562415	0.270379
H201	H	0.832840	-0.228749	-1.063634
H202	H	1.332840	0.271251	-0.563634
C203	C	0.786895	-0.870114	-0.312414
C204	C	1.286895	-0.370114	0.187586
N205	N	0.740126	-0.897270	-0.316456
N206	N	1.240126	-0.397270	0.183544
C207	C	0.676228	-0.385931	-0.386054
C208	C	1.176228	0.114069	0.113946
N209	N	0.703329	-0.419185	-0.419183
N210	N	1.203329	0.080815	0.080817
C211	C	0.272598	-0.217318	-0.218217
C212	C	0.772598	0.282682	0.281783
N213	N	0.299703	-0.184078	-0.185067
N214	N	0.799703	0.315922	0.314933
C215	C	0.821296	-0.934439	-0.386262
C216	C	1.321296	-0.434439	0.113738
N217	N	0.788083	-0.907352	-0.419437
N218	N	1.288083	-0.407352	0.080563
C219	C	0.821179	-0.668211	-0.386194
C220	C	1.321179	-0.168211	0.113806
N221	N	0.787966	-0.695339	-0.419354
N222	N	1.287966	-0.195339	0.080646
H223	H	0.914392	-0.403888	-0.861809
H224	H	1.414392	0.096112	-0.361809
C225	C	0.915771	-0.420050	-0.733745
C226	C	1.415771	0.079950	-0.233745
N227	N	0.919831	-0.466828	-0.706625
N228	N	1.419831	0.033172	-0.206625
H229	H	0.263243	-0.374380	-0.374776
H230	H	0.763243	0.125620	0.125224
C231	C	0.989557	-0.385646	-0.669380
C232	C	1.489557	0.114354	-0.169380
N233	N	1.022742	-0.418835	-0.696491
N234	N	1.522742	0.081165	-0.196491
H235	H	0.346269	-0.292498	-0.199778
H236	H	0.846269	0.207502	0.300222
H237	H	0.896563	-0.199078	-0.743149
H238	H	1.396563	0.300922	-0.243149
H239	H	0.978087	-0.374234	-0.541320
H240	H	1.478087	0.125766	-0.041320
H241	H	0.464973	-0.292516	-0.199734
H242	H	0.964973	0.207484	0.300266
H243	H	0.832776	-0.228870	-0.541284
H244	H	1.332776	0.271130	-0.041284
H245	H	0.548173	-0.228838	-0.229554
H246	H	1.048173	0.271162	0.270446
H247	H	0.832793	-0.228840	-0.659994
H248	H	1.332793	0.271160	-0.159994
C249	C	0.895188	-0.182914	-0.871208
C250	C	1.395188	0.317086	-0.371208
N251	N	0.891141	-0.136132	-0.898323
N252	N	1.391141	0.363868	-0.398323
H253	H	0.832833	-0.228777	-0.944920
H254	H	1.332833	0.271223	-0.444920
