data_functionalizedCrystal
_audit_creation_method	'MofGen! by Chris Wilmer'
_symmetry_space_group_name_H-M	'P1'
_symmetry_Int_Tables_number	1
_symmetry_cell_setting	triclinic
loop_
_symmetry_equiv_pos_as_xyz
  x,y,z
_cell_length_a	12.759401
_cell_length_b	12.759400
_cell_length_c	17.077396
_cell_angle_alpha	89.974414
_cell_angle_beta	89.980900
_cell_angle_gamma	90.014632
loop_
_atom_site_label
_atom_site_type_symbol
_atom_site_fract_x
_atom_site_fract_y
_atom_site_fract_z
Zn1	Zn	1.606234	-0.418268	-0.443850
Zn2	Zn	2.106234	0.081732	0.056150
Zn3	Zn	1.606135	-0.593968	-0.312591
Zn4	Zn	2.106135	-0.093968	0.187409
Zn5	Zn	1.430542	-0.418304	-0.312599
Zn6	Zn	1.930542	0.081696	0.187401
Zn7	Zn	1.430525	-0.593905	-0.443815
Zn8	Zn	1.930525	-0.093905	0.056185
O9	O	1.518359	-0.506111	-0.378214
O10	O	2.018359	-0.006111	0.121786
O11	O	1.753242	-0.441586	-0.426449
O12	O	2.253242	0.058414	0.073551
O13	O	1.582808	-0.570708	-0.202745
O14	O	2.082808	-0.070708	0.297255
O15	O	1.453897	-0.271278	-0.330028
O16	O	1.953897	0.228722	0.169972
O17	O	1.753169	-0.570673	-0.330014
O18	O	2.253169	-0.070673	0.169986
O19	O	1.582977	-0.271252	-0.426457
O20	O	2.082977	0.228748	0.073543
O21	O	1.453801	-0.441648	-0.202751
O22	O	1.953801	0.058352	0.297249
O23	O	1.283519	-0.441586	-0.329994
O24	O	1.783519	0.058414	0.170006
O25	O	1.453867	-0.570565	-0.553667
O26	O	1.953867	-0.070565	-0.053667
O27	O	1.283506	-0.570600	-0.426398
O28	O	1.783506	-0.070600	0.073602
O29	O	1.582960	-0.441525	-0.553692
O30	O	2.082960	0.058475	-0.053692
O31	O	1.582791	-0.740981	-0.329980
O32	O	2.082791	-0.240981	0.170020
O33	O	1.453771	-0.740935	-0.426390
O34	O	1.953771	-0.240935	0.073610
C35	C	1.245391	-0.506091	-0.378194
C36	C	1.745391	-0.006091	0.121806
C37	C	1.128615	-0.506107	-0.378203
C38	C	1.628615	-0.006107	0.121797
C39	C	0.963981	-0.573239	-0.327949
C40	C	1.463981	-0.073239	0.172051
C41	C	1.073705	-0.573219	-0.327927
C42	C	1.573705	-0.073219	0.172073
C43	C	1.073795	-0.439003	-0.428500
C44	C	1.573795	0.060997	0.071500
C45	C	0.964073	-0.439018	-0.428518
C46	C	1.464073	0.060982	0.071482
C47	C	0.963930	-0.650731	-0.269886
C48	C	1.463930	-0.150731	0.230114
C49	C	1.073654	-0.650711	-0.269864
C50	C	1.573654	-0.150711	0.230136
C51	C	1.518296	-0.779079	-0.378197
C52	C	2.018296	-0.279079	0.121803
C53	C	1.518366	-0.895855	-0.378217
C54	C	2.018366	-0.395855	0.121783
C55	C	1.585621	-0.950707	-0.328071
C56	C	2.085621	-0.450707	0.171929
C57	C	1.585686	-1.060431	-0.328096
C58	C	2.085686	-0.560431	0.171904
C59	C	1.451231	-1.060442	-0.428412
C60	C	1.951231	-0.560442	0.071588
C61	C	1.451172	-0.950720	-0.428392
C62	C	1.951172	-0.450720	0.071608
C63	C	1.663245	-0.950701	-0.270152
C64	C	2.163245	-0.450701	0.229848
C65	C	1.663309	-1.060425	-0.270176
C66	C	2.163309	-0.560425	0.229824
C67	C	1.792392	-0.506132	-0.378235
C68	C	2.292392	-0.006132	0.121765
C69	C	1.909169	-0.506141	-0.378243
C70	C	2.409169	-0.006141	0.121757
C71	C	1.518422	-0.506034	-0.582958
C72	C	2.018422	-0.006034	-0.082958
C73	C	1.518449	-0.506001	-0.670208
C74	C	2.018449	-0.006001	-0.170208
C75	C	1.518450	-0.232078	-0.378247
C76	C	2.018450	0.267922	0.121753
C77	C	1.518489	-0.115301	-0.378262
C78	C	2.018489	0.384699	0.121738
C79	C	1.585671	-0.438804	-0.711213
C80	C	2.085671	0.061196	-0.211213
C81	C	1.585683	-0.438769	-0.793193
C82	C	2.085683	0.061231	-0.293193
C83	C	1.518479	-0.505937	-0.834167
C84	C	2.018479	-0.005937	-0.334167
C85	C	1.451251	-0.573137	-0.793157
C86	C	1.951251	-0.073137	-0.293157
C87	C	1.451234	-0.573166	-0.711178
C88	C	1.951234	-0.073166	-0.211178
C89	C	1.451293	-0.573073	-0.964027
C90	C	1.951293	-0.073073	-0.464027
C91	C	1.451311	-0.573046	-1.046012
C92	C	1.951311	-0.073046	-0.546012
C93	C	1.585743	-0.438677	-1.046042
C94	C	2.085743	0.061323	-0.546042
C95	C	1.585725	-0.438706	-0.964063
C96	C	2.085725	0.061294	-0.464063
C97	C	1.518498	-0.505907	-0.923059
C98	C	2.018498	-0.005907	-0.423059
C99	C	1.518356	-0.506113	-0.174266
C100	C	2.018356	-0.006113	0.325734
C101	C	1.518532	-0.505850	-0.087017
C102	C	2.018532	-0.005850	0.412983
H103	H	0.919449	-0.384373	-0.469466
H104	H	1.419449	0.115627	0.030534
H105	H	1.107644	-0.621467	-0.212142
H106	H	1.607644	-0.121467	0.287858
H107	H	1.396533	-0.627780	-0.930644
H108	H	1.896533	-0.127780	-0.430644
H109	H	1.118511	-0.384352	-0.469431
H110	H	1.618511	0.115648	0.030569
H111	H	1.396528	-0.627822	-0.826525
H112	H	1.896528	-0.127822	-0.326525
H113	H	1.103435	-0.732104	-0.286041
H114	H	1.603435	-0.232104	0.213959
H115	H	1.396417	-0.906061	-0.469231
H116	H	1.896417	-0.406061	0.030769
H117	H	0.934112	-0.628842	-0.209123
H118	H	1.434112	-0.128842	0.290877
H119	H	0.929904	-0.728065	-0.291570
H120	H	1.429904	-0.228065	0.208430
H121	H	1.396525	-1.105127	-0.469264
H122	H	1.896525	-0.605127	0.030736
H123	H	1.740612	-1.094373	-0.292004
H124	H	2.240612	-0.594373	0.207996
H125	H	1.396586	-0.627738	-1.079371
H126	H	1.896586	-0.127738	-0.579371
H127	H	1.641575	-1.090278	-0.209372
H128	H	2.141575	-0.590278	0.290628
H129	H	1.640399	-0.384111	-0.677857
H130	H	2.140399	0.115889	-0.177857
H131	H	1.640455	-0.384018	-0.930704
H132	H	2.140455	0.115982	-0.430704
H133	H	1.744587	-0.920845	-0.286481
H134	H	2.244587	-0.420845	0.213519
H135	H	1.634122	-0.916745	-0.212377
H136	H	2.134122	-0.416745	0.287623
H137	H	1.396485	-0.627873	-0.677793
H138	H	1.896485	-0.127873	-0.177793
H139	H	1.640424	-0.384053	-0.826576
H140	H	2.140424	0.115947	-0.326576
H141	H	1.640480	-0.383958	-1.079432
H142	H	2.140480	0.116042	-0.579432
