data_functionalizedCrystal
_audit_creation_method	'MofGen! by Chris Wilmer'
_symmetry_space_group_name_H-M	'P1'
_symmetry_Int_Tables_number	1
_symmetry_cell_setting	triclinic
loop_
_symmetry_equiv_pos_as_xyz
  x,y,z
_cell_length_a	21.395364
_cell_length_b	17.077402
_cell_length_c	21.395355
_cell_angle_alpha	90.018045
_cell_angle_beta	90.024552
_cell_angle_gamma	90.037834
loop_
_atom_site_label
_atom_site_type_symbol
_atom_site_fract_x
_atom_site_fract_y
_atom_site_fract_z
Zn1	Zn	0.957893	-0.312286	0.354264
Zn2	Zn	1.457893	0.187714	0.854264
Zn3	Zn	0.957810	-0.443534	0.249487
Zn4	Zn	1.457810	0.056466	0.749487
Zn5	Zn	0.853108	-0.312320	0.249500
Zn6	Zn	1.353108	0.187680	0.749500
Zn7	Zn	0.853092	-0.443548	0.354227
Zn8	Zn	1.353092	0.056452	0.854227
O9	O	0.905476	-0.377922	0.301869
O10	O	1.405476	0.122078	0.801869
O11	O	1.045560	-0.329676	0.340374
O12	O	1.545560	0.170324	0.840374
O13	O	0.943893	-0.426137	0.161811
O14	O	1.443893	0.073863	0.661811
O15	O	0.867050	-0.202469	0.263418
O16	O	1.367050	0.297531	0.763418
O17	O	1.045499	-0.426103	0.263395
O18	O	1.545499	0.073897	0.763395
O19	O	0.944035	-0.202444	0.340387
O20	O	1.444035	0.297556	0.840387
O21	O	0.866969	-0.329735	0.161821
O22	O	1.366969	0.170265	0.661821
O23	O	0.765428	-0.329748	0.263383
O24	O	1.265428	0.170252	0.763383
O25	O	0.867022	-0.426127	0.441910
O26	O	1.367022	0.073873	0.941910
O27	O	0.765416	-0.426161	0.340325
O28	O	1.265416	0.073839	0.840325
O29	O	0.944019	-0.329690	0.441937
O30	O	1.444019	0.170310	0.941937
O31	O	0.943877	-0.553383	0.263360
O32	O	1.443877	-0.053383	0.763360
O33	O	0.866941	-0.553393	0.340312
O34	O	1.366941	-0.053393	0.840312
C35	C	0.905415	-0.581870	0.301844
C36	C	1.405415	-0.081870	0.801844
C37	C	0.905447	-0.669120	0.301855
C38	C	1.405447	-0.169120	0.801855
C39	C	0.742688	-0.377960	0.301852
C40	C	1.242688	0.122040	0.801852
C41	C	0.673047	-0.377995	0.301859
C42	C	1.173047	0.122005	0.801859
C43	C	0.945548	-0.710078	0.261829
C44	C	1.445548	-0.210078	0.761829
C45	C	0.945579	-0.792059	0.261845
C46	C	1.445579	-0.292059	0.761845
C47	C	0.905504	-0.833079	0.301884
C48	C	1.405504	-0.333079	0.801884
C49	C	0.865401	-0.792115	0.341914
C50	C	1.365401	-0.292115	0.841914
C51	C	0.865374	-0.710136	0.341901
C52	C	1.365374	-0.210136	0.841901
C53	C	0.865459	-0.962985	0.341938
C54	C	1.365459	-0.462985	0.841938
C55	C	0.865485	-1.044969	0.341951
C56	C	1.365485	-0.544969	0.841951
C57	C	0.945664	-1.044908	0.261882
C58	C	1.445664	-0.544908	0.761882
C59	C	0.945637	-0.962929	0.261869
C60	C	1.445637	-0.462929	0.761869
C61	C	0.905533	-0.921970	0.301898
C62	C	1.405533	-0.421970	0.801898
C63	C	0.640388	-0.327868	0.342004
C64	C	1.140388	0.172132	0.842004
C65	C	0.574953	-0.327847	0.342006
C66	C	1.074953	0.172153	0.842006
C67	C	0.542179	-0.377968	0.301871
C68	C	1.042179	0.122032	0.801871
C69	C	0.574845	-0.428099	0.261718
C70	C	1.074845	0.071901	0.761718
C71	C	0.640280	-0.428113	0.261712
C72	C	1.140280	0.071887	0.761712
C73	C	0.438462	-0.448659	0.296834
C74	C	0.938462	0.051341	0.796834
C75	C	0.373029	-0.448647	0.296844
C76	C	0.873029	0.051353	0.796844
C77	C	0.340358	-0.377924	0.301885
C78	C	0.840358	0.122076	0.801885
C79	C	0.373128	-0.307213	0.306929
C80	C	0.873128	0.192787	0.806929
C81	C	0.438562	-0.307227	0.306923
C82	C	0.938562	0.192773	0.806923
C83	C	0.471226	-0.377958	0.301872
C84	C	0.971226	0.122042	0.801872
C85	C	0.236746	-0.327770	0.342034
C86	C	0.736746	0.172230	0.842034
C87	C	0.171310	-0.327748	0.342032
C88	C	0.671310	0.172252	0.842032
C89	C	0.171204	-0.428007	0.261747
C90	C	0.671204	0.071993	0.761747
C91	C	0.236639	-0.428022	0.261746
C92	C	0.736639	0.071978	0.761746
C93	C	0.269407	-0.377905	0.301893
C94	C	0.769407	0.122095	0.801893
C95	C	1.068899	-0.377884	0.301887
C96	C	1.568899	0.122116	0.801887
C97	C	1.138540	-0.377868	0.301895
C98	C	1.638540	0.122132	0.801895
C99	C	0.905528	-0.377906	0.465293
C100	C	1.405528	0.122094	0.965293
C101	C	0.905550	-0.377899	0.534934
C102	C	1.405550	0.122101	1.034934
C103	C	0.905554	-0.173178	0.301908
C104	C	1.405554	0.326822	0.801908
C105	C	0.905587	-0.085928	0.301925
C106	C	1.405587	0.414072	0.801925
C107	C	0.905460	-0.377881	0.139082
C108	C	1.405460	0.122119	0.639082
C109	C	0.905559	-0.377667	0.069441
C110	C	1.405559	0.122333	0.569441
C111	C	0.945641	-0.327682	0.567662
C112	C	1.445641	0.172318	1.067662
C113	C	0.945640	-0.327648	0.633098
C114	C	1.445640	0.172352	1.133098
C115	C	0.905555	-0.377846	0.665802
C116	C	1.405555	0.122154	1.165802
C117	C	0.865456	-0.428067	0.633067
C118	C	1.365456	0.071933	1.133067
C119	C	0.865454	-0.428093	0.567632
C120	C	1.365454	0.071907	1.067632
C121	C	0.900587	-0.448527	0.769468
C122	C	1.400587	0.051473	1.269468
C123	C	0.900593	-0.448502	0.834901
C124	C	1.400593	0.051498	1.334901
C125	C	0.905559	-0.377763	0.867623
C126	C	1.405559	0.122237	1.367623
C127	C	0.910530	-0.307047	0.834904
C128	C	1.410530	0.192953	1.334904
C129	C	0.910528	-0.307074	0.769470
C130	C	1.410528	0.192926	1.269470
C131	C	0.905553	-0.377822	0.736755
C132	C	1.405553	0.122178	1.236755
C133	C	0.945651	-0.327505	0.971304
C134	C	1.445651	0.172495	1.471304
C135	C	0.945645	-0.327470	1.036741
C136	C	1.445645	0.172530	1.536741
C137	C	0.865465	-0.427895	1.036708
C138	C	1.365465	0.072105	1.536708
C139	C	0.865467	-0.427923	0.971273
C140	C	1.365467	0.072077	1.471273
C141	C	0.905563	-0.377729	0.938575
C142	C	1.405563	0.122271	1.438575
H143	H	0.978179	-0.676685	0.229221
H144	H	1.478179	-0.176685	0.729221
C145	C	0.915991	-0.229228	0.870893
C146	C	1.415991	0.270772	1.370893
N147	N	0.920105	-0.170616	0.898003
N148	N	1.420105	0.329384	1.398003
H149	H	0.978265	-0.929530	0.229263
H150	H	1.478265	-0.429530	0.729263
C151	C	0.821260	-0.665082	0.385933
C152	C	1.321260	-0.165082	0.885933
N153	N	0.788033	-0.631148	0.419101
N154	N	1.288033	-0.131148	0.919101
C155	C	0.336988	-0.526430	0.291288
C156	C	0.836988	-0.026430	0.791288
N157	N	0.309844	-0.585018	0.287100
N158	N	0.809844	-0.085018	0.787100
H159	H	0.978296	-0.286630	0.944680
H160	H	1.478296	0.213370	1.444680
H161	H	0.832804	-0.468985	0.540985
H162	H	1.332804	0.031015	1.040985
H163	H	0.978233	-0.825404	0.229251
H164	H	1.478233	-0.325404	0.729251
H165	H	0.978321	-1.078260	0.229290
H166	H	1.478321	-0.578260	0.729290
H167	H	0.832821	-0.468759	1.063336
H168	H	1.332821	0.031241	1.563336
C169	C	0.474394	-0.526465	0.291291
C170	C	0.974394	-0.026465	0.791291
N171	N	0.501456	-0.585066	0.287118
N172	N	1.001456	-0.085066	0.787118
C173	C	0.337195	-0.229411	0.312468
C174	C	0.837195	0.270589	0.812468
N175	N	0.310127	-0.170813	0.316639
N176	N	0.810127	0.329187	0.816639
H177	H	0.548357	-0.287023	0.374696
H178	H	1.048357	0.212977	0.874696
C179	C	0.135385	-0.272600	0.386196
C180	C	0.635385	0.227400	0.886196
N181	N	0.108326	-0.231062	0.419463
N182	N	0.608326	0.268938	0.919463
C183	C	0.135156	-0.483140	0.217596
C184	C	0.635156	0.016860	0.717596
N185	N	0.108002	-0.524666	0.184340
N186	N	0.608002	-0.024666	0.684340
H187	H	0.832865	-1.078366	0.374566
H188	H	1.332865	-0.578366	0.874566
H189	H	0.832804	-0.929639	0.374537
H190	H	1.332804	-0.429639	0.874537
C191	C	0.989750	-0.272222	1.072741
C192	C	1.489750	0.227778	1.572741
N193	N	1.022971	-0.230610	1.099858
N194	N	1.522971	0.269390	1.599858
H195	H	0.548157	-0.468907	0.229039
H196	H	1.048157	0.031093	0.729039
H197	H	0.263427	-0.286957	0.374720
H198	H	0.763427	0.213043	0.874720
C199	C	0.676428	-0.272727	0.386159
C200	C	1.176428	0.227273	0.886159
N201	N	0.703575	-0.231192	0.419415
N202	N	1.203575	0.268808	0.919415
C203	C	0.895124	-0.526290	0.870886
C204	C	1.395124	-0.026290	1.370886
N205	N	0.891003	-0.584882	0.897989
N206	N	1.391003	-0.084882	1.397989
C207	C	0.272566	-0.483173	0.217588
C208	C	0.772566	0.016827	0.717588
N209	N	0.299625	-0.524715	0.184325
N210	N	0.799625	-0.024715	0.684325
C211	C	0.989748	-0.272408	0.669106
C212	C	1.489748	0.227592	1.169106
N213	N	1.022973	-0.230803	0.696225
N214	N	1.522973	0.269197	1.196225
C215	C	0.676205	-0.483263	0.217551
C216	C	1.176205	0.016737	0.717551
N217	N	0.703266	-0.524805	0.184289
N218	N	1.203266	-0.024805	0.684289
H219	H	0.465240	-0.249651	0.311028
H220	H	0.965240	0.250349	0.811028
C221	C	0.989739	-0.272457	0.531698
C222	C	1.489739	0.227543	1.031698
N223	N	1.022952	-0.230857	0.504609
N224	N	1.522952	0.269143	1.004609
C225	C	0.821317	-0.837240	0.385956
C226	C	1.321317	-0.337240	0.885956
N227	N	0.788108	-0.871227	0.419126
N228	N	1.288108	-0.371227	0.919126
C229	C	0.821366	-0.483170	0.935271
C230	C	1.321366	0.016830	1.435271
N231	N	0.788146	-0.524783	0.908154
N232	N	1.288146	-0.024783	1.408154
C233	C	0.895136	-0.526352	0.733481
C234	C	1.395136	-0.026352	1.233481
N235	N	0.891035	-0.584968	0.706376
N236	N	1.391035	-0.084968	1.206376
C237	C	0.915988	-0.229288	0.733481
C238	C	1.415988	0.270712	1.233481
N239	N	0.920096	-0.170697	0.706375
N240	N	1.420096	0.329303	1.206375
C241	C	0.821360	-0.483280	0.669043
C242	C	1.321360	0.016720	1.169043
N243	N	0.788143	-0.524866	0.696141
N244	N	1.288143	-0.024866	1.196141
