data_functionalizedCrystal
_audit_creation_method	'MofGen! by Chris Wilmer'
_symmetry_space_group_name_H-M	'P1'
_symmetry_Int_Tables_number	1
_symmetry_cell_setting	triclinic
loop_
_symmetry_equiv_pos_as_xyz
  x,y,z
_cell_length_a	17.077404
_cell_length_b	21.395361
_cell_length_c	17.077396
_cell_angle_alpha	89.965914
_cell_angle_beta	89.982756
_cell_angle_gamma	90.030933
loop_
_atom_site_label
_atom_site_type_symbol
_atom_site_fract_x
_atom_site_fract_y
_atom_site_fract_z
Zn1	Zn	1.199994	-0.249430	-0.443817
Zn2	Zn	1.699994	0.250570	0.056183
Zn3	Zn	1.199889	-0.354212	-0.312540
Zn4	Zn	1.699889	0.145788	0.187460
Zn5	Zn	1.068731	-0.249453	-0.312565
Zn6	Zn	1.568731	0.250547	0.187435
Zn7	Zn	1.068676	-0.354174	-0.443763
Zn8	Zn	1.568676	0.145826	0.056237
O9	O	1.134323	-0.301817	-0.378171
O10	O	1.634323	0.198183	0.121829
O11	O	1.309827	-0.263336	-0.426414
O12	O	1.809827	0.236664	0.073586
O13	O	1.182469	-0.340342	-0.202696
O14	O	1.682469	0.159658	0.297304
O15	O	1.086211	-0.161772	-0.330008
O16	O	1.586211	0.338228	0.169992
O17	O	1.309750	-0.340319	-0.329966
O18	O	1.809750	0.159681	0.170034
O19	O	1.182649	-0.161755	-0.426439
O20	O	1.682649	0.338245	0.073561
O21	O	1.086109	-0.263376	-0.202714
O22	O	1.586109	0.236624	0.297286
O23	O	0.958877	-0.263338	-0.329957
O24	O	1.458877	0.236662	0.170043
O25	O	1.086117	-0.340253	-0.553617
O26	O	1.586117	0.159747	-0.053617
O27	O	0.958837	-0.340276	-0.426348
O28	O	1.458837	0.159724	0.073652
O29	O	1.182596	-0.263298	-0.553657
O30	O	1.682596	0.236702	-0.053657
O31	O	1.182416	-0.441885	-0.329914
O32	O	1.682416	0.058115	0.170086
O33	O	1.086015	-0.441857	-0.426324
O34	O	1.586015	0.058143	0.073676
C35	C	0.930375	-0.301806	-0.378149
C36	C	1.430375	0.198194	0.121851
C37	C	0.843125	-0.301816	-0.378159
C38	C	1.343125	0.198184	0.121841
C39	C	1.134219	-0.464605	-0.378127
C40	C	1.634219	0.035395	0.121873
C41	C	1.134247	-0.534246	-0.378135
C42	C	1.634247	-0.034246	0.121865
C43	C	0.802134	-0.341938	-0.428269
C44	C	1.302134	0.158062	0.071731
C45	C	0.720154	-0.341939	-0.428282
C46	C	1.220154	0.158061	0.071718
C47	C	0.679166	-0.301822	-0.378179
C48	C	1.179166	0.198178	0.121821
C49	C	0.720162	-0.261695	-0.328067
C50	C	1.220162	0.238305	0.171933
C51	C	0.802141	-0.261691	-0.328059
C52	C	1.302141	0.238309	0.171941
C53	C	0.549292	-0.261707	-0.328086
C54	C	1.049292	0.238293	0.171914
C55	C	0.467307	-0.261712	-0.328092
C56	C	0.967307	0.238288	0.171908
C57	C	0.467305	-0.341956	-0.428309
C58	C	0.967305	0.158044	0.071691
C59	C	0.549284	-0.341952	-0.428301
C60	C	1.049284	0.158048	0.071699
C61	C	0.590275	-0.301826	-0.378187
C62	C	1.090275	0.198174	0.121813
C63	C	1.184487	-0.566953	-0.327986
C64	C	1.684487	-0.066953	0.172014
C65	C	1.184524	-0.632389	-0.328004
C66	C	1.684524	-0.132389	0.171996
C67	C	1.134306	-0.665114	-0.378162
C68	C	1.634306	-0.165114	0.121838
C69	C	1.084062	-0.632399	-0.428321
C70	C	1.584062	-0.132399	0.071679
C71	C	1.084032	-0.566965	-0.428307
C72	C	1.584032	-0.066965	0.071693
C73	C	1.063626	-0.768829	-0.384313
C74	C	1.563626	-0.268829	0.115687
C75	C	1.063654	-0.834262	-0.384321
C76	C	1.563654	-0.334262	0.115679
C77	C	1.134397	-0.866935	-0.378208
C78	C	1.634397	-0.366935	0.121792
C79	C	1.205114	-0.834168	-0.372070
C80	C	1.705114	-0.334168	0.127930
C81	C	1.205084	-0.768733	-0.372057
C82	C	1.705084	-0.268733	0.127943
C83	C	1.134332	-0.736067	-0.378182
C84	C	1.634332	-0.236067	0.121818
C85	C	1.184681	-0.970595	-0.328075
C86	C	1.684681	-0.470595	0.171925
C87	C	1.184719	-1.036031	-0.328098
C88	C	1.684719	-0.536031	0.171902
C89	C	1.084250	-1.036041	-0.428411
C90	C	1.584250	-0.536041	0.071589
C91	C	1.084219	-0.970606	-0.428392
C92	C	1.584219	-0.470606	0.071608
C93	C	1.134434	-0.937886	-0.378220
C94	C	1.634434	-0.437886	0.121780
C95	C	1.339067	-0.301829	-0.378193
C96	C	1.839067	0.198171	0.121807
C97	C	1.426317	-0.301834	-0.378203
C98	C	1.926317	0.198166	0.121797
C99	C	1.134362	-0.301769	-0.582915
C100	C	1.634362	0.198231	-0.082915
C101	C	1.134379	-0.301748	-0.670165
C102	C	1.634379	0.198252	-0.170165
C103	C	1.134448	-0.138394	-0.378232
C104	C	1.634448	0.361606	0.121768
C105	C	1.134502	-0.068753	-0.378258
C106	C	1.634502	0.431247	0.121742
C107	C	1.084219	-0.261667	-0.711164
C108	C	1.584219	0.238333	-0.211164
C109	C	1.084232	-0.261653	-0.793145
C110	C	1.584232	0.238347	-0.293145
C111	C	1.134409	-0.301717	-0.834125
C112	C	1.634409	0.198283	-0.334125
C113	C	1.184571	-0.341802	-0.793120
C114	C	1.684571	0.158198	-0.293120
C115	C	1.184554	-0.341819	-0.711141
C116	C	1.684554	0.158181	-0.211141
C117	C	1.184605	-0.341763	-0.963990
C118	C	1.684605	0.158237	-0.463990
C119	C	1.184624	-0.341746	-1.045975
C120	C	1.684624	0.158254	-0.545975
C121	C	1.084283	-0.261597	-1.045994
C122	C	1.584283	0.238403	-0.545994
C123	C	1.084266	-0.261614	-0.964015
C124	C	1.584266	0.238386	-0.464015
C125	C	1.134429	-0.301698	-0.923016
C126	C	1.634429	0.198302	-0.423016
C127	C	1.134329	-0.301820	-0.174223
C128	C	1.634329	0.198180	0.325777
C129	C	1.134464	-0.301665	-0.086974
C130	C	1.634464	0.198335	0.413026
H131	H	0.835501	-0.374609	-0.469066
H132	H	1.335501	0.125391	0.030934
O133	O	1.238865	-0.935302	-0.273988
O134	O	1.738865	-0.435302	0.226012
H135	H	1.230403	-0.884306	-0.282401
H136	H	1.730403	-0.384306	0.217599
H137	H	1.043440	-0.228957	-1.079380
H138	H	1.543440	0.271043	-0.579380
O139	O	1.030129	-0.218426	-0.837369
O140	O	1.530129	0.281574	-0.337369
H141	H	1.065293	-0.186550	-0.874745
H142	H	1.565293	0.313450	-0.374745
O143	O	0.423093	-0.218437	-0.274064
O144	O	0.923093	0.281563	0.225936
H145	H	0.465368	-0.190526	-0.239225
H146	H	0.965368	0.309474	0.260775
O147	O	0.846359	-0.218417	-0.274012
O148	O	1.346359	0.281583	0.225988
H149	H	0.883682	-0.246419	-0.234012
H150	H	1.383682	0.253581	0.265988
O151	O	0.593509	-0.218436	-0.274029
O152	O	1.093509	0.281564	0.225971
H153	H	0.551236	-0.190547	-0.239182
H154	H	1.051236	0.309453	0.260818
O155	O	0.987383	-0.869598	-0.390941
O156	O	1.487383	-0.369598	0.109059
H157	H	0.979408	-0.899441	-0.338351
H158	H	1.479408	-0.399441	0.161649
O159	O	1.030103	-0.218448	-0.666970
O160	O	1.530103	0.281552	-0.166970
H161	H	0.990139	-0.246493	-0.629598
H162	H	1.490139	0.253507	-0.129598
H163	H	1.225422	-0.374427	-0.826492
H164	H	1.725422	0.125573	-0.326492
H165	H	1.225438	-0.659024	-0.287166
H166	H	1.725438	-0.159024	0.212834
H167	H	1.043411	-0.228987	-0.930651
H168	H	1.543411	0.271013	-0.430651
O169	O	1.030008	-0.935329	-0.482467
O170	O	1.530008	-0.435329	0.017533
H171	H	1.043425	-0.947843	-0.544092
H172	H	1.543425	-0.447843	-0.044092
H173	H	0.686783	-0.229028	-0.287276
H174	H	1.186783	0.270972	0.212724
O175	O	1.281350	-0.733388	-0.365448
O176	O	1.781350	-0.233388	0.134552
H177	H	1.330552	-0.767096	-0.361205
H178	H	1.830552	-0.267096	0.138795
O179	O	1.238736	-0.384964	-1.090175
O180	O	1.738736	0.115036	-0.590175
H181	H	1.278711	-0.356917	-1.127534
H182	H	1.778711	0.143083	-0.627534
H183	H	1.225405	-0.374453	-0.677761
H184	H	1.725405	0.125547	-0.177761
O185	O	1.030085	-1.071333	-0.482508
O186	O	1.530085	-0.571333	0.017492
H187	H	1.043507	-1.058731	-0.544127
H188	H	1.543507	-0.558731	-0.044127
O189	O	0.675939	-0.385333	-0.482178
O190	O	1.175939	0.114667	0.017822
H191	H	0.718214	-0.413278	-0.516953
H192	H	1.218214	0.086722	-0.016953
O193	O	0.593498	-0.385218	-0.482340
O194	O	1.093498	0.114782	0.017660
H195	H	0.551224	-0.413116	-0.517196
H196	H	1.051224	0.086884	-0.017196
O197	O	1.029828	-0.531682	-0.482384
O198	O	1.529828	-0.031682	0.017616
H199	H	0.994906	-0.565428	-0.517261
H200	H	1.494906	-0.065428	-0.017261
H201	H	1.225377	-0.540315	-0.287135
H202	H	1.725377	-0.040315	0.212865
H203	H	0.433926	-0.374626	-0.469115
H204	H	0.933926	0.125374	0.030885
O205	O	1.238714	-0.384991	-0.919765
O206	O	1.738714	0.115009	-0.419765
H207	H	1.273617	-0.412842	-0.962032
H208	H	1.773617	0.087158	-0.462032
H209	H	1.262720	-0.860769	-0.367092
H210	H	1.762720	-0.360769	0.132908
H211	H	1.006014	-0.742232	-0.389295
H212	H	1.506014	-0.242232	0.110705
H213	H	1.043175	-0.659049	-0.469161
H214	H	1.543175	-0.159049	0.030839
O215	O	1.238908	-1.071314	-0.274005
O216	O	1.738908	-0.571314	0.225995
H217	H	1.273812	-1.037566	-0.239112
H218	H	1.773812	-0.537566	0.260888
