data_functionalizedCrystal
_audit_creation_method	'MofGen! by Chris Wilmer'
_symmetry_space_group_name_H-M	'P1'
_symmetry_Int_Tables_number	1
_symmetry_cell_setting	triclinic
loop_
_symmetry_equiv_pos_as_xyz
  x,y,z
_cell_length_a	12.759401
_cell_length_b	12.759400
_cell_length_c	12.759393
_cell_angle_alpha	90.030930
_cell_angle_beta	90.018575
_cell_angle_gamma	90.015071
loop_
_atom_site_label
_atom_site_type_symbol
_atom_site_fract_x
_atom_site_fract_y
_atom_site_fract_z
Zn1	Zn	1.606255	-0.418192	0.593990
Zn2	Zn	1.939589	-0.084859	0.927323
Zn3	Zn	2.272922	0.248475	1.260656
Zn4	Zn	1.606150	-0.593911	0.418312
Zn5	Zn	1.939483	-0.260578	0.751645
Zn6	Zn	2.272817	0.072756	1.084979
Zn7	Zn	1.430557	-0.418248	0.418329
Zn8	Zn	1.763891	-0.084915	0.751662
Zn9	Zn	2.097224	0.248419	1.084995
Zn10	Zn	1.430546	-0.593831	0.593953
Zn11	Zn	1.763879	-0.260497	0.927286
Zn12	Zn	2.097213	0.072836	1.260620
O13	O	1.518377	-0.506045	0.506146
O14	O	1.851711	-0.172712	0.839479
O15	O	2.185044	0.160621	1.172813
O16	O	1.753262	-0.441512	0.570694
O17	O	2.086596	-0.108178	0.904027
O18	O	2.419929	0.225155	1.237361
O19	O	1.582818	-0.570666	0.271293
O20	O	1.916151	-0.237332	0.604626
O21	O	2.249485	0.096001	0.937960
O22	O	1.453913	-0.271219	0.441653
O23	O	1.787246	0.062114	0.774986
O24	O	2.120580	0.395447	1.108320
O25	O	1.753185	-0.570612	0.441624
O26	O	2.086518	-0.237278	0.774958
O27	O	2.419852	0.096055	1.108291
O28	O	1.582997	-0.271178	0.570710
O29	O	1.916331	0.062155	0.904044
O30	O	2.249664	0.395488	1.237377
O31	O	1.453811	-0.441607	0.271305
O32	O	1.787144	-0.108274	0.604639
O33	O	2.120477	0.225060	0.937972
O34	O	1.283535	-0.441529	0.441617
O35	O	1.616868	-0.108196	0.774951
O36	O	1.950202	0.225138	1.108284
O37	O	1.453894	-0.570475	0.740979
O38	O	1.787227	-0.237141	1.074312
O39	O	2.120560	0.096192	1.407646
O40	O	1.283527	-0.570529	0.570648
O41	O	1.616860	-0.237196	0.903981
O42	O	1.950193	0.096138	1.237314
O43	O	1.582986	-0.441434	0.741006
O44	O	1.916320	-0.108100	1.074339
O45	O	2.249653	0.225233	1.407673
O46	O	1.582807	-0.740921	0.441589
O47	O	1.916140	-0.407588	0.774922
O48	O	2.249474	-0.074255	1.108255
O49	O	1.453792	-0.740862	0.570632
O50	O	1.787125	-0.407529	0.903965
O51	O	2.120458	-0.074196	1.237298
C52	C	1.245410	-0.506027	0.506131
C53	C	1.578743	-0.172694	0.839464
C54	C	1.912077	0.160639	1.172798
C55	C	1.128633	-0.506045	0.506150
C56	C	1.461967	-0.172711	0.839483
C57	C	1.795300	0.160622	1.172816
C58	C	1.073812	-0.438944	0.573460
C59	C	1.407146	-0.105611	0.906793
C60	C	1.740479	0.227723	1.240127
C61	C	0.964088	-0.438955	0.573467
C62	C	1.297421	-0.105621	0.906800
C63	C	1.630755	0.227712	1.240133
C64	C	0.964016	-0.573176	0.438850
C65	C	1.297349	-0.239843	0.772184
C66	C	1.630682	0.093491	1.105517
C67	C	1.073738	-0.573159	0.438839
C68	C	1.407071	-0.239826	0.772172
C69	C	1.740405	0.093507	1.105506
C70	C	1.518315	-0.779013	0.506127
C71	C	1.851648	-0.445679	0.839461
C72	C	2.184982	-0.112346	1.172794
C73	C	1.518385	-0.895789	0.506154
C74	C	1.851718	-0.562456	0.839488
C75	C	2.185051	-0.229123	1.172821
C76	C	1.585570	-0.950540	0.573412
C77	C	1.918903	-0.617207	0.906745
C78	C	2.252236	-0.283873	1.240078
C79	C	1.585629	-1.060264	0.573440
C80	C	1.918962	-0.726931	0.906774
C81	C	2.252295	-0.393597	1.240107
C82	C	1.451315	-1.060477	0.438945
C83	C	1.784648	-0.727144	0.772278
C84	C	2.117981	-0.393810	1.105612
C85	C	1.451251	-0.950755	0.438923
C86	C	1.784584	-0.617422	0.772256
C87	C	2.117918	-0.284088	1.105589
C88	C	1.792410	-0.506064	0.506161
C89	C	2.125744	-0.172731	0.839495
C90	C	2.459077	0.160602	1.172828
C91	C	1.909187	-0.506072	0.506168
C92	C	2.242520	-0.172739	0.839501
C93	C	2.575854	0.160594	1.172835
C94	C	1.518451	-0.505939	0.780179
C95	C	1.851784	-0.172606	1.113513
C96	C	2.185117	0.160728	1.446846
C97	C	1.518482	-0.505894	0.896956
C98	C	1.851815	-0.172560	1.230289
C99	C	2.185149	0.160773	1.563623
C100	C	1.518468	-0.232012	0.506188
C101	C	1.851802	0.101321	0.839521
C102	C	2.185135	0.434655	1.172854
C103	C	1.518507	-0.115235	0.506205
C104	C	1.851840	0.218098	0.839539
C105	C	2.185174	0.551431	1.172872
C106	C	1.518365	-0.506075	0.233179
C107	C	1.851698	-0.172742	0.566512
C108	C	2.185031	0.160591	0.899845
C109	C	1.518537	-0.505825	0.116402
C110	C	1.851870	-0.172491	0.449736
C111	C	2.185204	0.160842	0.783069
C112	C	1.451332	-0.438681	0.951824
C113	C	1.784665	-0.105347	1.285157
C114	C	2.117999	0.227986	1.618491
C115	C	1.451356	-0.438648	1.061548
C116	C	1.784690	-0.105315	1.394882
C117	C	2.118023	0.228018	1.728215
C118	C	1.585690	-0.573045	1.061527
C119	C	1.919023	-0.239712	1.394860
C120	C	2.252356	0.093621	1.728193
C121	C	1.585659	-0.573082	0.951805
C122	C	1.918992	-0.239749	1.285138
C123	C	2.252326	0.093585	1.618471
H124	H	0.919307	-0.627819	0.384049
H125	H	1.252640	-0.294486	0.717383
H126	H	1.585973	0.038847	1.050716
F127	F	0.905748	-0.367535	0.645106
F128	F	1.239082	-0.034202	0.978440
F129	F	1.572415	0.299132	1.311773
F130	F	1.657182	-0.644546	1.119910
F131	F	1.990515	-0.311213	1.453243
F132	F	2.323849	0.022121	1.786576
F133	F	1.132086	-0.644572	0.367186
F134	F	1.465419	-0.311239	0.700519
F135	F	1.798753	0.022094	1.033852
F136	F	1.132232	-0.367512	0.645095
F137	F	1.465566	-0.034178	0.978428
F138	F	1.798899	0.299155	1.311761
F139	F	1.379869	-1.118985	0.367398
F140	F	1.713202	-0.785651	0.700731
F141	F	2.046536	-0.452318	1.034064
H142	H	1.640232	-0.905789	0.628157
H143	H	1.973566	-0.572456	0.961491
H144	H	2.306899	-0.239123	1.294824
F145	F	1.657132	-1.118529	0.645030
F146	F	1.990465	-0.785196	0.978363
F147	F	2.323798	-0.451862	1.311696
F148	F	1.379733	-0.892482	0.367341
F149	F	1.713066	-0.559148	0.700674
F150	F	2.046400	-0.225815	1.034008
H151	H	1.396632	-0.383972	0.907170
H152	H	1.729965	-0.050638	1.240503
H153	H	2.063298	0.282695	1.573836
F154	F	1.379875	-0.367122	1.119938
F155	F	1.713208	-0.033789	1.453271
F156	F	2.046542	0.299545	1.786605
F157	F	1.657129	-0.644627	0.893407
F158	F	1.990463	-0.311294	1.226740
F159	F	2.323796	0.022039	1.560073
