data_functionalizedCrystal
_audit_creation_method	'MofGen! by Chris Wilmer'
_symmetry_space_group_name_H-M	'P1'
_symmetry_Int_Tables_number	1
_symmetry_cell_setting	triclinic
loop_
_symmetry_equiv_pos_as_xyz
  x,y,z
_cell_length_a	12.759400
_cell_length_b	21.395364
_cell_length_c	21.395355
_cell_angle_alpha	90.025298
_cell_angle_beta	89.986153
_cell_angle_gamma	89.968614
loop_
_atom_site_label
_atom_site_type_symbol
_atom_site_fract_x
_atom_site_fract_y
_atom_site_fract_z
Zn1	Zn	-0.417920	-0.957929	-0.354294
Zn2	Zn	0.082080	-0.457929	0.145706
Zn3	Zn	-0.593584	-0.957861	-0.249525
Zn4	Zn	-0.093584	-0.457861	0.250475
Zn5	Zn	-0.417971	-0.853144	-0.249530
Zn6	Zn	0.082029	-0.353144	0.250470
Zn7	Zn	-0.593608	-0.853142	-0.354264
Zn8	Zn	-0.093608	-0.353142	0.145736
O9	O	-0.505771	-0.905519	-0.301903
O10	O	-0.005771	-0.405519	0.198097
O11	O	-0.441190	-1.045598	-0.340407
O12	O	0.058810	-0.545598	0.159593
O13	O	-0.570300	-0.943942	-0.161848
O14	O	-0.070300	-0.443942	0.338152
O15	O	-0.270943	-0.867073	-0.263441
O16	O	0.229057	-0.367073	0.236559
O17	O	-0.570250	-1.045548	-0.263434
O18	O	-0.070250	-0.545548	0.236566
O19	O	-0.270906	-0.944058	-0.340411
O20	O	0.229094	-0.444058	0.159589
O21	O	-0.441278	-0.867007	-0.161851
O22	O	0.058722	-0.367007	0.338149
O23	O	-0.441301	-0.765466	-0.263412
O24	O	0.058699	-0.265466	0.236588
O25	O	-0.570292	-0.867070	-0.441946
O26	O	-0.070292	-0.367070	0.058054
O27	O	-0.570341	-0.765465	-0.340360
O28	O	-0.070341	-0.265465	0.159640
O29	O	-0.441214	-0.944057	-0.441968
O30	O	0.058786	-0.444057	0.058032
O31	O	-0.740609	-0.943940	-0.263405
O32	O	-0.240609	-0.443940	0.236595
O33	O	-0.740626	-0.867004	-0.340356
O34	O	-0.240626	-0.367004	0.159644
C35	C	-0.505830	-0.742731	-0.301884
C36	C	-0.005830	-0.242731	0.198116
C37	C	-0.505881	-0.673090	-0.301890
C38	C	-0.005881	-0.173090	0.198110
C39	C	-0.438791	-0.640425	-0.342032
C40	C	0.061209	-0.140425	0.157968
C41	C	-0.438767	-0.574990	-0.342033
C42	C	0.061233	-0.074990	0.157967
C43	C	-0.505851	-0.542222	-0.301900
C44	C	-0.005851	-0.042222	0.198100
C45	C	-0.572945	-0.574894	-0.261750
C46	C	-0.072945	-0.074894	0.238250
C47	C	-0.572960	-0.640329	-0.261746
C48	C	-0.072960	-0.140329	0.238254
C49	C	-0.600471	-0.438513	-0.296865
C50	C	-0.100471	0.061487	0.203135
C51	C	-0.600457	-0.373080	-0.296875
C52	C	-0.100457	0.126920	0.203125
C53	C	-0.505803	-0.340401	-0.301911
C54	C	-0.005803	0.159599	0.198089
C55	C	-0.411160	-0.373163	-0.306951
C56	C	0.088840	0.126837	0.193049
C57	C	-0.411175	-0.438597	-0.306947
C58	C	0.088825	0.061403	0.193053
C59	C	-0.505841	-0.471269	-0.301900
C60	C	-0.005841	0.028731	0.198100
C61	C	-0.438681	-0.236784	-0.342056
C62	C	0.061319	0.263216	0.157944
C63	C	-0.438655	-0.171347	-0.342054
C64	C	0.061345	0.328653	0.157946
C65	C	-0.572843	-0.171253	-0.261774
C66	C	-0.072843	0.328747	0.238226
C67	C	-0.572860	-0.236688	-0.261774
C68	C	-0.072860	0.263312	0.238226
C69	C	-0.505780	-0.269450	-0.301918
C70	C	-0.005780	0.230550	0.198082
C71	C	-0.778738	-0.905482	-0.301890
C72	C	-0.278738	-0.405482	0.198110
C73	C	-0.895515	-0.905523	-0.301906
C74	C	-0.395515	-0.405523	0.198094
C75	C	-0.950333	-0.945628	-0.261881
C76	C	-0.450333	-0.445628	0.238119
C77	C	-1.060057	-0.945667	-0.261901
C78	C	-0.560057	-0.445667	0.238099
C79	C	-1.060135	-0.865490	-0.341970
C80	C	-0.560135	-0.365490	0.158030
C81	C	-0.950413	-0.865455	-0.341954
C82	C	-0.450413	-0.365455	0.158046
C83	C	-0.950288	-0.991916	-0.215652
C84	C	-0.450288	-0.491916	0.284348
C85	C	-1.060012	-0.991955	-0.215671
C86	C	-0.560012	-0.491955	0.284329
C87	C	-0.231738	-0.905573	-0.301930
C88	C	0.268262	-0.405573	0.198070
C89	C	-0.114961	-0.905597	-0.301942
C90	C	0.385039	-0.405597	0.198058
C91	C	-0.505750	-0.905571	-0.465327
C92	C	-0.005750	-0.405571	0.034673
C93	C	-0.505741	-0.905593	-0.534968
C94	C	-0.005741	-0.405593	-0.034968
C95	C	-0.505725	-0.068942	-0.301920
C96	C	-0.005725	0.431058	0.198080
C97	C	-0.505738	-0.138584	-0.301919
C98	C	-0.005738	0.361416	0.198081
C99	C	-0.438527	-0.945678	-0.567694
C100	C	0.061473	-0.445678	-0.067694
C101	C	-0.438482	-0.945677	-0.633129
C102	C	0.061518	-0.445677	-0.133129
C103	C	-0.505669	-0.905598	-0.665836
C104	C	-0.005669	-0.405598	-0.165836
C105	C	-0.572887	-0.865505	-0.633103
C106	C	-0.072887	-0.365505	-0.133103
C107	C	-0.572923	-0.865503	-0.567669
C108	C	-0.072923	-0.365503	-0.067669
C109	C	-0.600270	-0.900638	-0.769506
C110	C	-0.100270	-0.400638	-0.269506
C111	C	-0.600236	-0.900645	-0.834939
C112	C	-0.100236	-0.400645	-0.334939
C113	C	-0.505558	-0.905602	-0.867657
C114	C	-0.005558	-0.405602	-0.367657
C115	C	-0.410911	-0.910565	-0.834934
C116	C	0.089089	-0.410565	-0.334934
C117	C	-0.410947	-0.910563	-0.769500
C118	C	0.089053	-0.410563	-0.269500
C119	C	-0.505637	-0.905596	-0.736789
C120	C	-0.005637	-0.405596	-0.236789
C121	C	-0.438290	-0.945688	-0.971335
C122	C	0.061710	-0.445688	-0.471335
C123	C	-0.438243	-0.945683	-1.036772
C124	C	0.061757	-0.445683	-0.536772
C125	C	-0.572658	-0.865514	-1.036745
C126	C	-0.072658	-0.365514	-0.536745
C127	C	-0.572695	-0.865516	-0.971309
C128	C	-0.072695	-0.365516	-0.471309
C129	C	-0.505513	-0.905606	-0.938609
C130	C	-0.005513	-0.405606	-0.438609
C131	C	-0.505716	-0.905503	-0.139116
C132	C	-0.005716	-0.405503	0.360884
C133	C	-0.505429	-0.905602	-0.069475
C134	C	-0.005429	-0.405602	0.430525
H135	H	-0.677522	-0.346411	-0.292774
H136	H	-0.177522	0.153589	0.207226
C137	C	-1.105858	-1.054236	-0.239207
C138	C	-0.605858	-0.554236	0.260793
N139	N	-1.140390	-1.101145	-0.256934
N140	N	-0.640390	-0.601145	0.243066
H141	H	-1.089856	-0.978989	-0.167138
H142	H	-0.589856	-0.478989	0.332862
H143	H	-0.627655	-0.832858	-0.541024
H144	H	-0.127655	-0.332858	-0.041024
C145	C	-0.704605	-0.474454	-0.291328
C146	C	-0.204605	0.025546	0.208672
N147	N	-0.783037	-0.501523	-0.287159
N148	N	-0.283037	-0.001523	0.212841
H149	H	-0.905782	-0.832804	-0.374550
H150	H	-0.405782	-0.332804	0.125450
H151	H	-0.627565	-0.548210	-0.229073
H152	H	-0.127565	-0.048210	0.270927
H153	H	-0.920414	-1.040427	-0.228687
H154	H	-0.420414	-0.540427	0.271313
C155	C	-0.364966	-0.539052	-0.386197
C156	C	0.135034	-0.039052	0.113803
N157	N	-0.309382	-0.511985	-0.419464
N158	N	0.190618	-0.011985	0.080536
H159	H	-0.384169	-0.667096	-0.374720
H160	H	0.115831	-0.167096	0.125280
H161	H	-0.916326	-0.974545	-0.169537
H162	H	-0.416326	-0.474545	0.330463
C163	C	-0.646773	-0.676261	-0.217588
C164	C	-0.146773	-0.176261	0.282412
N165	N	-0.702372	-0.703326	-0.184329
N166	N	-0.202372	-0.203326	0.315671
C167	C	-0.364610	-0.989771	-0.531727
C168	C	0.135390	-0.489771	-0.031727
N169	N	-0.308930	-1.022979	-0.504635
N170	N	0.191070	-0.522979	-0.004635
H171	H	-0.384054	-0.263460	-0.374740
H172	H	0.115946	0.236540	0.125260
C173	C	-0.364545	-0.989779	-0.669135
C174	C	0.135455	-0.489779	-0.169135
N175	N	-0.308858	-1.022999	-0.696252
N176	N	0.191142	-0.522999	-0.196252
H177	H	-0.334113	-0.465269	-0.311049
H178	H	0.165887	0.034731	0.188951
C179	C	-1.120534	-0.821413	-0.386016
C180	C	-0.620534	-0.321413	0.113984
N181	N	-1.166025	-0.788211	-0.419191
N182	N	-0.666025	-0.288211	0.080809
C183	C	-0.306836	-0.916014	-0.733507
C184	C	0.193164	-0.416014	-0.233507
N185	N	-0.228417	-0.920116	-0.706397
N186	N	0.271583	-0.420116	-0.206397
H187	H	-0.334083	-0.346557	-0.311053
H188	H	0.165917	0.153443	0.188947
C189	C	-0.306755	-0.916017	-0.870919
C190	C	0.193245	-0.416017	-0.370919
N191	N	-0.228309	-0.920124	-0.898025
N192	N	0.271691	-0.420124	-0.398025
C193	C	-0.364379	-0.989782	-0.935363
C194	C	0.135621	-0.489782	-0.435363
N195	N	-0.308707	-1.022993	-0.908270
N196	N	0.191293	-0.522993	-0.408270
H197	H	-0.383503	-0.978324	-1.063416
H198	H	0.116497	-0.478324	-0.563416
H199	H	-0.627352	-0.832874	-1.063374
H200	H	-0.127352	-0.332874	-0.563374
H201	H	-0.627434	-0.832878	-0.944664
H202	H	-0.127434	-0.332878	-0.444664
C203	C	-0.704349	-0.895184	-0.870929
C204	C	-0.204349	-0.395184	-0.370929
N205	N	-0.782770	-0.891070	-0.898034
N206	N	-0.282770	-0.391070	-0.398034
C207	C	-0.704433	-0.895196	-0.733523
C208	C	-0.204433	-0.395196	-0.233523
N209	N	-0.782886	-0.891102	-0.706422
N210	N	-0.282886	-0.391102	-0.206422
H211	H	-0.627496	-0.263284	-0.229089
H212	H	-0.127496	0.236716	0.270911
H213	H	-0.627588	-0.832870	-0.659737
H214	H	-0.127588	-0.332870	-0.159737
H215	H	-0.384016	-0.144753	-0.374741
H216	H	0.115984	0.355247	0.125259
H217	H	-0.627464	-0.144574	-0.229097
H218	H	-0.127464	0.355426	0.270903
