data_functionalizedCrystal
_audit_creation_method	'MofGen! by Chris Wilmer'
_symmetry_space_group_name_H-M	'P1'
_symmetry_Int_Tables_number	1
_symmetry_cell_setting	triclinic
loop_
_symmetry_equiv_pos_as_xyz
  x,y,z
_cell_length_a	12.759401
_cell_length_b	21.395362
_cell_length_c	12.759393
_cell_angle_alpha	89.961682
_cell_angle_beta	89.981425
_cell_angle_gamma	90.030217
loop_
_atom_site_label
_atom_site_type_symbol
_atom_site_fract_x
_atom_site_fract_y
_atom_site_fract_z
Zn1	Zn	1.606145	-0.249394	-0.593936
Zn2	Zn	1.605993	-0.354186	-0.418235
Zn3	Zn	1.430447	-0.249428	-0.418275
Zn4	Zn	1.430389	-0.354139	-0.593876
O5	O	1.518243	-0.301787	-0.506081
O6	O	1.753146	-0.263301	-0.570637
O7	O	1.582667	-0.340324	-0.271219
O8	O	1.453841	-0.161745	-0.441618
O9	O	1.753034	-0.340292	-0.441551
O10	O	1.582926	-0.161721	-0.570675
O11	O	1.453694	-0.263358	-0.271248
O12	O	1.283418	-0.263312	-0.441560
O13	O	1.453743	-0.340210	-0.740905
O14	O	1.283376	-0.340242	-0.570574
O15	O	1.582870	-0.263255	-0.740949
O16	O	1.582611	-0.441858	-0.441493
O17	O	1.453596	-0.441823	-0.570536
C18	C	1.245276	-0.301776	-0.506066
C19	C	1.128499	-0.301786	-0.506084
C20	C	1.073696	-0.261770	-0.573403
C21	C	0.963972	-0.261776	-0.573410
C22	C	0.963864	-0.341821	-0.438776
C23	C	1.073586	-0.341811	-0.438765
C24	C	1.518109	-0.464574	-0.506027
C25	C	1.518148	-0.534216	-0.506039
C26	C	1.585324	-0.566859	-0.573287
C27	C	1.585360	-0.632294	-0.573313
C28	C	1.518233	-0.665084	-0.506071
C29	C	1.451044	-0.632433	-0.438819
C30	C	1.451001	-0.566998	-0.438802
C31	C	1.510059	-0.768802	-0.411434
C32	C	1.510109	-0.834235	-0.411448
C33	C	1.518357	-0.866905	-0.506122
C34	C	1.526578	-0.834134	-0.600785
C35	C	1.526535	-0.768699	-0.600768
C36	C	1.518271	-0.736036	-0.506082
C37	C	1.585577	-0.970501	-0.573404
C38	C	1.585606	-1.035937	-0.573431
C39	C	1.451295	-1.036074	-0.438928
C40	C	1.451260	-0.970639	-0.438910
C41	C	1.518407	-0.937856	-0.506146
C42	C	1.792277	-0.301798	-0.506096
C43	C	1.909053	-0.301803	-0.506103
C44	C	1.518317	-0.301723	-0.780114
C45	C	1.518348	-0.301696	-0.896891
C46	C	1.518407	-0.138363	-0.506158
C47	C	1.518477	-0.068722	-0.506191
C48	C	1.451216	-0.261613	-0.951767
C49	C	1.451240	-0.261594	-1.061492
C50	C	1.585538	-0.341743	-1.061453
C51	C	1.585508	-0.341765	-0.951731
C52	C	1.518231	-0.301805	-0.233113
C53	C	1.518403	-0.301655	-0.116337
H54	H	1.639995	-0.540169	-0.628037
C55	C	1.134097	-0.217736	-0.647447
N56	N	1.179587	-0.184566	-0.703216
C57	C	1.535648	-0.870065	-0.704935
N58	N	1.542479	-0.897132	-0.783379
C59	C	0.903450	-0.385850	-0.364736
N60	N	0.857946	-0.419015	-0.308970
C61	C	1.659179	-0.385953	-1.121787
N62	N	1.714565	-0.419302	-1.167229
H63	H	1.396530	-0.228986	-0.907120
C64	C	0.903693	-0.217757	-0.647469
N65	N	0.858292	-0.184599	-0.703254
H66	H	1.640054	-0.658878	-0.628086
H67	H	1.503422	-0.860912	-0.334368
C68	C	1.377396	-0.217495	-1.121851
N69	N	1.321774	-0.184277	-1.167313
C70	C	1.377354	-0.934729	-0.364937
N71	N	1.321678	-0.907683	-0.309223
H72	H	1.118208	-0.374398	-0.383940
C73	C	1.535569	-0.732654	-0.704895
N74	N	1.542368	-0.705504	-0.783326
C75	C	1.659424	-0.934437	-0.647379
N76	N	1.715043	-0.907276	-0.703101
C77	C	1.501006	-0.732871	-0.307276
N78	N	1.494194	-0.705809	-0.228826
H79	H	1.640309	-1.062514	-0.628197
H80	H	1.396386	-0.659134	-0.384073
H81	H	1.640177	-0.374408	-0.907049
C82	C	1.377439	-1.072139	-0.364976
N83	N	1.321802	-1.099306	-0.309279
C84	C	1.377095	-0.531090	-0.364825
N85	N	1.321428	-0.504042	-0.309105
