data_functionalizedCrystal
_audit_creation_method	'MofGen! by Chris Wilmer'
_symmetry_space_group_name_H-M	'P1'
_symmetry_Int_Tables_number	1
_symmetry_cell_setting	triclinic
loop_
_symmetry_equiv_pos_as_xyz
  x,y,z
_cell_length_a	17.077402
_cell_length_b	17.077404
_cell_length_c	17.077396
_cell_angle_alpha	90.014457
_cell_angle_beta	89.975636
_cell_angle_gamma	89.968171
loop_
_atom_site_label
_atom_site_type_symbol
_atom_site_fract_x
_atom_site_fract_y
_atom_site_fract_z
Zn1	Zn	0.312394	1.200036	0.443760
Zn2	Zn	0.443669	1.199935	0.312503
Zn3	Zn	0.312434	1.068767	0.312519
Zn4	Zn	0.443634	1.068727	0.443738
O5	O	0.378033	1.134366	0.378130
O6	O	0.329806	1.309869	0.426350
O7	O	0.426291	1.182510	0.202658
O8	O	0.202582	1.086239	0.329944
O9	O	0.426253	1.309795	0.329917
O10	O	0.202553	1.182682	0.426366
O11	O	0.329873	1.086141	0.202670
O12	O	0.329840	0.958915	0.329923
O13	O	0.426194	1.086171	0.553588
O14	O	0.426232	0.958886	0.426329
O15	O	0.329772	1.182643	0.553604
O16	O	0.553511	1.182471	0.329896
O17	O	0.553486	1.086073	0.426314
C18	C	0.378037	0.930418	0.378126
C19	C	0.378058	0.843169	0.378143
C20	C	0.581981	1.134278	0.378118
C21	C	0.669231	1.134312	0.378139
C22	C	0.377975	1.134414	0.582874
C23	C	0.377950	1.134434	0.670124
C24	C	1.045032	1.184699	0.328037
C25	C	0.963052	1.184662	0.328021
C26	C	0.922079	1.134417	0.378175
C27	C	0.963092	1.084200	0.428343
C28	C	1.045071	1.084235	0.428355
C29	C	0.792222	1.084134	0.428316
C30	C	0.710237	1.084101	0.428305
C31	C	0.710203	1.184562	0.327982
C32	C	0.792182	1.184596	0.327994
C33	C	0.833188	1.134380	0.378163
C34	C	1.173289	1.134467	0.378167
C35	C	1.086039	1.134488	0.378203
C36	C	0.378029	1.339110	0.378134
C37	C	0.378027	1.426360	0.378136
C38	C	0.327815	1.467390	0.428343
C39	C	0.327824	1.549371	0.428348
C40	C	0.378042	1.590320	0.378142
C41	C	0.428260	1.549284	0.327933
C42	C	0.428254	1.467305	0.327932
C43	C	0.428266	1.720154	0.327937
C44	C	0.428271	1.802139	0.327936
C45	C	0.327835	1.802220	0.428353
C46	C	0.327830	1.720241	0.428352
C47	C	0.378047	1.679211	0.378142
C48	C	0.378034	1.134364	0.174182
C49	C	0.377837	1.134496	0.086933
C50	C	0.327739	1.184669	0.711124
C51	C	0.327713	1.184678	0.793104
C52	C	0.377903	1.134456	0.834084
C53	C	0.428116	1.084216	0.793078
C54	C	0.428137	1.084203	0.711099
C55	C	0.428069	1.084248	0.963948
C56	C	0.428048	1.084261	1.045933
C57	C	0.327645	1.184722	1.045953
C58	C	0.327666	1.184710	0.963974
C59	C	0.377881	1.134470	0.922975
H60	H	0.929664	1.225546	0.287171
H61	H	0.929728	1.043286	0.469176
H62	H	0.286938	1.582774	0.469234
C63	C	0.482802	1.422896	0.273335
C64	C	0.526768	1.476302	0.229352
C65	C	0.577022	1.435423	0.179044
H66	H	0.517062	1.390901	0.303273
H67	H	0.452801	1.390942	0.239094
H68	H	0.556766	1.508243	0.263589
H69	H	0.492528	1.508299	0.199398
H70	H	0.547021	1.403468	0.144802
H71	H	0.611277	1.403429	0.208988
H72	H	0.606853	1.471652	0.149190
C73	C	1.089403	1.239387	0.273629
C74	C	1.069350	1.317030	0.290772
C75	C	1.110195	1.367432	0.240657
H76	H	1.144114	1.232333	0.280764
H77	H	1.075989	1.227969	0.220863
H78	H	1.082770	1.328445	0.343525
H79	H	1.014646	1.324109	0.283632
H80	H	1.096781	1.356014	0.187892
H81	H	1.164904	1.360372	0.247797
H82	H	1.096590	1.420118	0.252277
H83	H	0.825539	1.225513	0.287158
H84	H	0.676810	1.225448	0.287132
H85	H	0.286945	1.835630	0.469235
H86	H	0.676882	1.043186	0.469145
H87	H	0.469016	1.043289	0.677718
C88	C	0.482710	1.846741	0.273461
C89	C	0.471946	1.927316	0.284194
C90	C	0.522075	1.968428	0.234017
H91	H	0.535480	1.833375	0.284896
H92	H	0.471235	1.833346	0.220702
H93	H	0.483428	1.940706	0.336941
H94	H	0.419187	1.940705	0.272753
H95	H	0.510599	1.955033	0.181258
H96	H	0.574842	1.955056	0.245456
H97	H	0.514773	2.023102	0.241287
H98	H	0.825607	1.043248	0.469173
H99	H	0.469162	1.686750	0.287054
H100	H	0.469151	1.582631	0.287058
H101	H	0.286934	1.686902	0.469231
H102	H	1.078457	1.043352	0.469209
H103	H	0.286916	1.434056	0.469222
H104	H	0.286757	1.225628	1.079339
C105	C	0.273160	1.239227	0.666777
C106	C	0.229167	1.283206	0.720234
C107	C	0.178870	1.333464	0.679413
H108	H	0.303107	1.273478	0.634792
H109	H	0.238925	1.209229	0.634817
H110	H	0.263398	1.313201	0.752181
H111	H	0.199205	1.248974	0.752220
H112	H	0.144635	1.303467	0.647453
H113	H	0.208823	1.367711	0.647430
H114	H	0.149010	1.363305	0.715677
H115	H	0.286828	1.225586	0.826483
H116	H	0.286802	1.225609	0.930611
H117	H	0.468915	1.043365	1.079296
H118	H	0.468946	1.043325	0.930569
C119	C	0.482704	1.029819	0.837610
C120	C	0.533018	1.074246	0.884653
C121	C	0.583325	1.024163	0.925677
H122	H	0.452759	0.995623	0.869657
H123	H	0.512657	0.999911	0.801474
H124	H	0.503069	1.104141	0.920785
H125	H	0.562980	1.108439	0.852626
H126	H	0.613277	0.994255	0.889542
H127	H	0.553374	0.989970	0.957720
H128	H	0.617474	1.054300	0.957596
