data_functionalizedCrystal
_audit_creation_method	'MofGen! by Chris Wilmer'
_symmetry_space_group_name_H-M	'P1'
_symmetry_Int_Tables_number	1
_symmetry_cell_setting	triclinic
loop_
_symmetry_equiv_pos_as_xyz
  x,y,z
_cell_length_a	12.759401
_cell_length_b	12.759400
_cell_length_c	12.759393
_cell_angle_alpha	90.029373
_cell_angle_beta	90.020462
_cell_angle_gamma	90.013087
loop_
_atom_site_label
_atom_site_type_symbol
_atom_site_fract_x
_atom_site_fract_y
_atom_site_fract_z
Zn1	Zn	1.606278	-0.418218	0.594015
Zn2	Zn	1.606173	-0.593933	0.418339
Zn3	Zn	1.430576	-0.418269	0.418352
Zn4	Zn	1.430573	-0.593855	0.593977
O5	O	1.518400	-0.506069	0.506171
O6	O	1.753285	-0.441538	0.570721
O7	O	1.582838	-0.570685	0.271319
O8	O	1.453928	-0.271241	0.441675
O9	O	1.753208	-0.570636	0.441653
O10	O	1.583015	-0.271203	0.570734
O11	O	1.453827	-0.441625	0.271329
O12	O	1.283555	-0.441549	0.441638
O13	O	1.453923	-0.570502	0.741003
O14	O	1.283552	-0.570552	0.570670
O15	O	1.583012	-0.441462	0.741031
O16	O	1.582835	-0.740944	0.441616
O17	O	1.453822	-0.740886	0.570657
C18	C	1.245433	-0.506048	0.506152
C19	C	1.128656	-0.506065	0.506169
C20	C	0.964040	-0.438825	0.439114
C21	C	1.073764	-0.438804	0.439102
C22	C	1.073819	-0.573342	0.573261
C23	C	0.964097	-0.573356	0.573277
C24	C	0.964009	-0.361154	0.361655
C25	C	1.073733	-0.361133	0.361643
C26	C	1.518345	-0.779036	0.506154
C27	C	1.518417	-0.895813	0.506182
C28	C	1.585599	-0.950575	0.573438
C29	C	1.585648	-1.060299	0.573464
C30	C	1.451330	-1.060488	0.438968
C31	C	1.451277	-0.950766	0.438949
C32	C	1.663150	-0.950467	0.651085
C33	C	1.663199	-1.060191	0.651111
C34	C	1.792433	-0.506090	0.506190
C35	C	1.909210	-0.506099	0.506198
C36	C	1.518479	-0.505968	0.780204
C37	C	1.518512	-0.505925	0.896981
C38	C	1.518484	-0.232035	0.506210
C39	C	1.518520	-0.115259	0.506227
C40	C	1.518382	-0.506093	0.233203
C41	C	1.518552	-0.505840	0.116427
C42	C	1.585734	-0.438723	0.951859
C43	C	1.585752	-0.438678	1.061583
C44	C	1.451323	-0.573045	1.061541
C45	C	1.451301	-0.573084	0.951819
H46	H	1.396563	-0.906179	0.384193
C47	C	1.378423	-0.646136	1.120950
C48	C	1.401243	-0.750096	1.094225
C49	C	1.334101	-0.817459	1.148919
H50	H	1.387999	-0.636634	1.194172
H51	H	1.307815	-0.630823	1.102940
H52	H	1.471834	-0.765403	1.112242
H53	H	1.391661	-0.759631	1.021012
H54	H	1.263493	-0.802146	1.130908
H55	H	1.343682	-0.807947	1.222138
H56	H	1.349569	-0.888002	1.130786
H57	H	1.640489	-0.383953	1.106260
H58	H	1.744596	-1.089928	0.629397
C59	C	1.113187	-0.390146	0.253043
C60	C	1.027628	-0.407911	0.186626
C61	C	1.063932	-0.434658	0.086587
H62	H	1.154515	-0.334478	0.225950
H63	H	1.154514	-0.451925	0.257327
H64	H	0.986318	-0.346140	0.182338
H65	H	0.986291	-0.463584	0.213685
H66	H	1.105259	-0.496437	0.090872
H67	H	1.105260	-0.378986	0.059505
H68	H	1.005886	-0.446724	0.041514
C69	C	1.378484	-0.646113	0.892094
C70	C	1.437937	-0.713460	0.829079
C71	C	1.370895	-0.780731	0.774034
H72	H	1.338439	-0.686211	0.940345
H73	H	1.332730	-0.605959	0.849231
H74	H	1.483672	-0.753610	0.871938
H75	H	1.477979	-0.673391	0.780808
H76	H	1.325141	-0.740577	0.731171
H77	H	1.330853	-0.820822	0.822293
H78	H	1.411223	-0.826427	0.731265
H79	H	1.118521	-0.628099	0.627875
C80	C	0.904755	-0.646510	0.646155
C81	C	0.976311	-0.705427	0.704870
C82	C	0.921684	-0.772841	0.772006
H83	H	0.861974	-0.606497	0.692096
H84	H	0.861953	-0.692305	0.605918
H85	H	1.019095	-0.659638	0.745104
H86	H	1.019094	-0.745461	0.658956
H87	H	0.878882	-0.818636	0.731769
H88	H	0.878905	-0.732819	0.817941
H89	H	0.970226	-0.812831	0.811845
C90	C	0.924526	-0.252645	0.390975
C91	C	1.010069	-0.186255	0.408893
C92	C	0.973738	-0.086297	0.435919
H93	H	0.883164	-0.225413	0.335393
H94	H	0.883228	-0.257105	0.452755
H95	H	1.051350	-0.181791	0.347121
H96	H	1.051440	-0.213453	0.464480
H97	H	0.932440	-0.090757	0.497699
H98	H	0.932376	-0.059075	0.380333
H99	H	1.031773	-0.041242	0.448089
H100	H	0.929934	-0.390215	0.284318
C101	C	1.658821	-0.365973	0.892261
C102	C	1.726151	-0.425484	0.829289
C103	C	1.793499	-0.358498	0.774386
H104	H	1.618755	-0.320190	0.849375
H105	H	1.698918	-0.325959	0.940629
H106	H	1.686058	-0.465480	0.780927
H107	H	1.766240	-0.471264	0.872149
H108	H	1.833596	-0.318484	0.822753
H109	H	1.753424	-0.312718	0.731506
H110	H	1.839196	-0.398866	0.731660
C111	C	1.766304	-0.905232	0.612331
C112	C	1.834693	-0.987110	0.586666
C113	C	1.929731	-0.945479	0.550975
H114	H	1.753976	-0.863393	0.552020
H115	H	1.796723	-0.863302	0.665855
H116	H	1.804280	-1.029023	0.533147
H117	H	1.847051	-1.028957	0.646961
H118	H	1.960150	-0.903549	0.604499
H119	H	1.917392	-0.903640	0.490667
H120	H	1.976147	-1.001026	0.533566
H121	H	1.107785	-0.283865	0.390914
H122	H	1.634011	-1.094188	0.728382
H123	H	1.396666	-1.105245	0.384230
C124	C	1.633948	-0.910905	0.759602
C125	C	1.616139	-0.996399	0.826002
C126	C	1.589223	-0.959995	0.925968
H127	H	1.689551	-0.869511	0.786812
H128	H	1.572150	-0.869622	0.755161
H129	H	1.677930	-1.037665	0.830446
H130	H	1.560532	-1.037801	0.798825
H131	H	1.527425	-0.918712	0.921527
H132	H	1.644830	-0.918601	0.953168
H133	H	1.577127	-1.017996	0.971030
