data_functionalizedCrystal
_audit_creation_method	'MofGen! by Chris Wilmer'
_symmetry_space_group_name_H-M	'P1'
_symmetry_Int_Tables_number	1
_symmetry_cell_setting	triclinic
loop_
_symmetry_equiv_pos_as_xyz
  x,y,z
_cell_length_a	12.759401
_cell_length_b	12.759400
_cell_length_c	12.759393
_cell_angle_alpha	90.030490
_cell_angle_beta	90.020742
_cell_angle_gamma	90.013799
loop_
_atom_site_label
_atom_site_type_symbol
_atom_site_fract_x
_atom_site_fract_y
_atom_site_fract_z
Zn1	Zn	1.606266	-0.418240	0.594015
Zn2	Zn	1.606158	-0.593956	0.418335
Zn3	Zn	1.430565	-0.418289	0.418350
Zn4	Zn	1.430557	-0.593875	0.593973
O5	O	1.518387	-0.506090	0.506168
O6	O	1.753273	-0.441563	0.570721
O7	O	1.582823	-0.570707	0.271316
O8	O	1.453921	-0.271261	0.441677
O9	O	1.753193	-0.570660	0.441650
O10	O	1.583008	-0.271226	0.570737
O11	O	1.453816	-0.441646	0.271327
O12	O	1.283543	-0.441567	0.441636
O13	O	1.453908	-0.570523	0.740999
O14	O	1.283537	-0.570570	0.570665
O15	O	1.583000	-0.441485	0.741030
O16	O	1.582815	-0.740966	0.441609
O17	O	1.453802	-0.740907	0.570650
C18	C	1.245419	-0.506066	0.506148
C19	C	1.128643	-0.506081	0.506165
C20	C	1.073753	-0.438821	0.439103
C21	C	0.964029	-0.438845	0.439116
C22	C	0.964094	-0.573393	0.573262
C23	C	1.073816	-0.573373	0.573243
C24	C	1.073714	-0.361137	0.361658
C25	C	0.963990	-0.361162	0.361671
C26	C	1.518324	-0.779057	0.506146
C27	C	1.518394	-0.895834	0.506172
C28	C	1.585645	-0.950692	0.439055
C29	C	1.585710	-1.060416	0.439087
C30	C	1.451262	-1.060414	0.573357
C31	C	1.451204	-0.950692	0.573329
C32	C	1.663264	-0.950694	0.361532
C33	C	1.663329	-1.060418	0.361565
C34	C	1.792420	-0.506115	0.506189
C35	C	1.909196	-0.506126	0.506197
C36	C	1.518465	-0.505989	0.780202
C37	C	1.518499	-0.505946	0.896978
C38	C	1.518478	-0.232057	0.506213
C39	C	1.518517	-0.115280	0.506232
C40	C	1.518369	-0.506115	0.233201
C41	C	1.518539	-0.505862	0.116425
C42	C	1.585722	-0.438745	0.951858
C43	C	1.585740	-0.438700	1.061582
C44	C	1.451308	-0.573066	1.061537
C45	C	1.451285	-0.573105	0.951815
H46	H	1.107767	-0.283874	0.390935
H47	H	1.396587	-0.627746	1.106199
H48	H	1.640449	-0.384058	0.907213
H49	H	0.929918	-0.390218	0.284327
C50	C	1.600409	-0.297322	1.184980
C51	C	1.659633	-0.364825	1.121901
H52	H	1.646030	-0.251707	1.222211
H53	H	1.560401	-0.337311	1.233343
H54	H	1.554642	-0.257155	1.142159
H55	H	1.705395	-0.404998	1.164723
H56	H	1.699659	-0.324832	1.073532
H57	H	1.118503	-0.628153	0.627841
H58	H	1.396559	-1.105093	0.628034
C59	C	0.795926	-0.633168	0.632855
C60	C	0.903825	-0.647352	0.646999
H61	H	0.758722	-0.678824	0.678385
H62	H	0.777914	-0.648466	0.562250
H63	H	0.777965	-0.562597	0.648358
H64	H	0.921787	-0.717922	0.631489
H65	H	0.921844	-0.632061	0.717621
H66	H	1.396536	-0.627827	0.907131
H67	H	1.103445	-0.382824	0.280244
H68	H	1.634138	-0.916745	0.284206
C69	C	1.009170	-0.184752	0.409268
C70	C	0.923800	-0.251367	0.391303
H71	H	0.984356	-0.116976	0.427568
H72	H	1.050492	-0.180237	0.347530
H73	H	1.050550	-0.211861	0.464903
H74	H	0.882424	-0.224263	0.335663
H75	H	0.882461	-0.255880	0.453048
H76	H	1.744608	-0.920838	0.383385
C77	C	1.318316	-0.961717	0.706049
C78	C	1.377280	-0.890391	0.647107
H79	H	1.272672	-0.924487	0.751592
H80	H	1.364096	-1.004440	0.746285
H81	H	1.278176	-1.004584	0.660241
H82	H	1.417425	-0.847529	0.692915
H83	H	1.331494	-0.847650	0.606868
H84	H	1.740633	-1.094364	0.390778
H85	H	1.641590	-1.090278	0.280184
