data_functionalizedCrystal
_audit_creation_method	'MofGen! by Chris Wilmer'
_symmetry_space_group_name_H-M	'P1'
_symmetry_Int_Tables_number	1
_symmetry_cell_setting	triclinic
loop_
_symmetry_equiv_pos_as_xyz
  x,y,z
_cell_length_a	17.077404
_cell_length_b	21.395361
_cell_length_c	17.077396
_cell_angle_alpha	89.969211
_cell_angle_beta	90.019501
_cell_angle_gamma	89.969241
loop_
_atom_site_label
_atom_site_type_symbol
_atom_site_fract_x
_atom_site_fract_y
_atom_site_fract_z
Zn1	Zn	1.200013	0.249435	0.443830
Zn2	Zn	1.700013	0.749435	0.943830
Zn3	Zn	1.199902	0.354216	0.312559
Zn4	Zn	1.699902	0.854216	0.812559
Zn5	Zn	1.068745	0.249457	0.312578
Zn6	Zn	1.568745	0.749457	0.812578
Zn7	Zn	1.068695	0.354179	0.443782
Zn8	Zn	1.568695	0.854179	0.943782
O9	O	1.134339	0.301822	0.378187
O10	O	1.634339	0.801822	0.878187
O11	O	1.309845	0.263341	0.426429
O12	O	1.809845	0.763341	0.926429
O13	O	1.182479	0.340344	0.202714
O14	O	1.682479	0.840344	0.702714
O15	O	1.086225	0.161776	0.330017
O16	O	1.586225	0.661776	0.830017
O17	O	1.309764	0.340323	0.329984
O18	O	1.809764	0.840323	0.829984
O19	O	1.182667	0.161760	0.426447
O20	O	1.682667	0.661760	0.926447
O21	O	1.086118	0.263378	0.202729
O22	O	1.586118	0.763378	0.702729
O23	O	0.958891	0.263342	0.329971
O24	O	1.458891	0.763342	0.829971
O25	O	1.086140	0.340260	0.553636
O26	O	1.586140	0.840260	1.053636
O27	O	0.958855	0.340281	0.426366
O28	O	1.458855	0.840281	0.926366
O29	O	1.182619	0.263305	0.553671
O30	O	1.682619	0.763305	1.053671
O31	O	1.182431	0.441889	0.329938
O32	O	1.682431	0.941889	0.829938
O33	O	1.086033	0.441862	0.426347
O34	O	1.586033	0.941862	0.926347
C35	C	0.930391	0.301810	0.378166
C36	C	1.430391	0.801810	0.878166
C37	C	0.843141	0.301821	0.378175
C38	C	1.343141	0.801821	0.878175
C39	C	0.802153	0.341943	0.428288
C40	C	1.302153	0.841943	0.928288
C41	C	0.720172	0.341944	0.428300
C42	C	1.220172	0.841944	0.928300
C43	C	0.679182	0.301826	0.378196
C44	C	1.179182	0.801826	0.878196
C45	C	0.720176	0.261699	0.328081
C46	C	1.220176	0.761699	0.828081
C47	C	0.802155	0.261695	0.328073
C48	C	1.302155	0.761695	0.828073
C49	C	0.549306	0.261711	0.328100
C50	C	1.049306	0.761711	0.828100
C51	C	0.467321	0.261716	0.328107
C52	C	0.967321	0.761716	0.828107
C53	C	0.467323	0.341961	0.428327
C54	C	0.967323	0.841961	0.928327
C55	C	0.549302	0.341957	0.428319
C56	C	1.049302	0.841957	0.928319
C57	C	0.590291	0.301830	0.378203
C58	C	1.090291	0.801830	0.878203
C59	C	1.134236	0.464609	0.378152
C60	C	1.634236	0.964609	0.878152
C61	C	1.134264	0.534251	0.378164
C62	C	1.634264	1.034251	0.878164
C63	C	1.184502	0.566957	0.328017
C64	C	1.684502	1.066957	0.828017
C65	C	1.184539	0.632392	0.328038
C66	C	1.684539	1.132392	0.828038
C67	C	1.134323	0.665119	0.378198
C68	C	1.634323	1.165119	0.878198
C69	C	1.084081	0.632404	0.428355
C70	C	1.584081	1.132404	0.928355
C71	C	1.084051	0.566970	0.428338
C72	C	1.584051	1.066970	0.928338
C73	C	1.063644	0.768833	0.384355
C74	C	1.563644	1.268833	0.884355
C75	C	1.063672	0.834266	0.384366
C76	C	1.563672	1.334266	0.884366
C77	C	1.134415	0.866940	0.378255
C78	C	1.634415	1.366940	0.878255
C79	C	1.205132	0.834172	0.372115
C80	C	1.705132	1.334172	0.872115
C81	C	1.205102	0.768738	0.372098
C82	C	1.705102	1.268738	0.872098
C83	C	1.134350	0.736071	0.378222
C84	C	1.634350	1.236071	0.878222
C85	C	1.184698	0.970599	0.328128
C86	C	1.684698	1.470599	0.828128
C87	C	1.184736	1.036035	0.328154
C88	C	1.684736	1.536035	0.828154
C89	C	1.084271	1.036046	0.428467
C90	C	1.584271	1.536046	0.928467
C91	C	1.084240	0.970611	0.428445
C92	C	1.584240	1.470611	0.928445
C93	C	1.134452	0.937891	0.378271
C94	C	1.634452	1.437891	0.878271
C95	C	1.339083	0.301833	0.378210
C96	C	1.839083	0.801833	0.878210
C97	C	1.426333	0.301839	0.378219
C98	C	1.926333	0.801839	0.878219
C99	C	1.134386	0.301775	0.582932
C100	C	1.634386	0.801775	1.082932
C101	C	1.134407	0.301756	0.670182
C102	C	1.634407	0.801756	1.170182
C103	C	1.134465	1.138398	0.378253
C104	C	1.634465	1.638398	0.878253
C105	C	1.134521	1.068757	0.378316
C106	C	1.634521	1.568757	0.878316
C107	C	1.134337	0.301822	0.174240
C108	C	1.634337	0.801822	0.674240
C109	C	1.134469	0.301666	0.086990
C110	C	1.634469	0.801666	0.586990
C111	C	1.184645	0.261682	0.711191
C112	C	1.684645	0.761682	1.211191
C113	C	1.184654	0.261661	0.793172
C114	C	1.684654	0.761661	1.293172
C115	C	1.134429	0.301718	0.834141
C116	C	1.634429	0.801718	1.334141
C117	C	1.084185	0.341793	0.793126
C118	C	1.584185	0.841793	1.293126
C119	C	1.084172	0.341811	0.711147
C120	C	1.584172	0.841811	1.211147
C121	C	1.084217	0.341756	0.963996
C122	C	1.584217	0.841756	1.463996
C123	C	1.084230	0.341739	1.045980
C124	C	1.584230	0.841739	1.545980
C125	C	1.184699	0.261606	1.046021
C126	C	1.684699	0.761606	1.546021
C127	C	1.184686	0.261623	0.964042
C128	C	1.684686	0.761623	1.464042
C129	C	1.134443	0.301700	0.923032
C130	C	1.634443	0.801700	1.423032
H131	H	0.686795	0.229031	0.287288
H132	H	1.186795	0.729031	0.787288
Cl133	Cl	0.853684	0.211251	0.265074
Cl134	Cl	1.353684	0.711251	0.765074
H135	H	1.262738	0.860773	0.367139
H136	H	1.762738	1.360773	0.867139
H137	H	1.043196	0.659054	0.469197
H138	H	1.543196	1.159054	0.969197
H139	H	0.686803	0.374617	0.469106
H140	H	1.186803	0.874617	0.969106
H141	H	0.582674	0.374628	0.469114
H142	H	1.082674	0.874628	0.969114
H143	H	1.225607	0.228973	1.079415
H144	H	1.725607	0.728973	1.579415
Cl145	Cl	1.247832	0.211270	0.912538
Cl146	Cl	1.747832	0.711270	1.412538
H147	H	1.225452	0.659027	0.287202
H148	H	1.725452	1.159027	0.787202
H149	H	1.225547	0.229065	0.677840
H150	H	1.725547	0.729065	1.177840
Cl151	Cl	0.974701	0.727765	0.392039
Cl152	Cl	1.474701	1.227765	0.892039
Cl153	Cl	1.021010	0.392189	0.659591
Cl154	Cl	1.521010	0.892189	1.159591
H155	H	0.433946	0.374631	0.469136
H156	H	0.933946	0.874631	0.969136
Cl157	Cl	1.020888	0.525851	0.491385
Cl158	Cl	1.520888	1.025851	0.991385
Cl159	Cl	1.293999	0.727546	0.364388
Cl160	Cl	1.793999	1.227546	0.864388
H161	H	1.043331	0.374356	1.079336
H162	H	1.543331	0.874356	1.579336
H163	H	1.043291	0.374380	0.930608
H164	H	1.543291	0.874380	1.430608
Cl165	Cl	1.247849	0.211308	0.844723
Cl166	Cl	1.747849	0.711308	1.344723
H167	H	0.582676	0.229031	0.287297
H168	H	1.082676	0.729031	0.787297
Cl169	Cl	0.415791	0.211283	0.265114
Cl170	Cl	0.915791	0.711283	0.765114
Cl171	Cl	0.853675	0.392384	0.491276
Cl172	Cl	1.353675	0.892384	0.991276
H173	H	1.043288	0.374406	0.826489
H174	H	1.543288	0.874406	1.326489
Cl175	Cl	1.247820	0.929462	0.265053
Cl176	Cl	1.747820	1.429462	0.765053
Cl177	Cl	1.247638	0.525827	0.264952
Cl178	Cl	1.747638	1.025827	0.764952
H179	H	1.225651	1.062664	0.287320
H180	H	1.725651	1.562664	0.787320
H181	H	1.043388	1.062691	0.469312
H182	H	1.543388	1.562691	0.969312
Cl183	Cl	1.021075	0.929491	0.491487
Cl184	Cl	1.521075	1.429491	0.991487
H185	H	1.006090	0.860941	0.389358
H186	H	1.506090	1.360941	0.889358
