data_functionalizedCrystal
_audit_creation_method	'MofGen! by Chris Wilmer'
_symmetry_space_group_name_H-M	'P1'
_symmetry_Int_Tables_number	1
_symmetry_cell_setting	triclinic
loop_
_symmetry_equiv_pos_as_xyz
  x,y,z
_cell_length_a	17.077404
_cell_length_b	17.077402
_cell_length_c	17.077396
_cell_angle_alpha	90.028267
_cell_angle_beta	89.982756
_cell_angle_gamma	89.975442
loop_
_atom_site_label
_atom_site_type_symbol
_atom_site_fract_x
_atom_site_fract_y
_atom_site_fract_z
Zn1	Zn	1.200029	0.312497	-0.443848
Zn2	Zn	1.700029	0.812497	0.056152
Zn3	Zn	1.199938	0.443774	-0.312585
Zn4	Zn	1.699938	0.943774	0.187415
Zn5	Zn	1.068766	0.312526	-0.312596
Zn6	Zn	1.568766	0.812526	0.187404
Zn7	Zn	1.068726	0.443725	-0.443808
Zn8	Zn	1.568726	0.943725	0.056192
O9	O	1.134365	0.378131	-0.378210
O10	O	1.634365	0.878131	0.121790
O11	O	1.309864	0.329919	-0.426448
O12	O	1.809864	0.829919	0.073552
O13	O	1.182517	0.426396	-0.202739
O14	O	1.682517	0.926396	0.297261
O15	O	1.086234	0.202676	-0.330029
O16	O	1.586234	0.702676	0.169971
O17	O	1.309797	0.426368	-0.330009
O18	O	1.809797	0.926368	0.169991
O19	O	1.182672	0.202654	-0.426459
O20	O	1.682672	0.702654	0.073541
O21	O	1.086145	0.329969	-0.202748
O22	O	1.586145	0.829969	0.297252
O23	O	0.958914	0.329922	-0.329990
O24	O	1.458914	0.829922	0.170010
O25	O	1.086165	0.426285	-0.553661
O26	O	1.586165	0.926285	-0.053661
O27	O	0.958884	0.426313	-0.426391
O28	O	1.458884	0.926313	0.073609
O29	O	1.182633	0.329872	-0.553690
O30	O	1.682633	0.829872	-0.053690
O31	O	1.182478	0.553614	-0.329970
O32	O	1.682478	1.053614	0.170030
O33	O	1.086076	0.553579	-0.426380
O34	O	1.586076	1.053579	0.073620
C35	C	0.930417	0.378116	-0.378188
C36	C	1.430417	0.878116	0.121812
C37	C	0.843167	0.378129	-0.378197
C38	C	1.343167	0.878129	0.121803
C39	C	0.802182	0.428396	-0.428313
C40	C	1.302182	0.928396	0.071687
C41	C	0.720202	0.428398	-0.428325
C42	C	1.220202	0.928398	0.071675
C43	C	0.679208	0.378136	-0.378218
C44	C	1.179208	0.878136	0.121782
C45	C	0.720199	0.327864	-0.328100
C46	C	1.220199	0.827864	0.171900
C47	C	0.802178	0.327859	-0.328092
C48	C	1.302178	0.827859	0.171908
C49	C	0.549329	0.327879	-0.328119
C50	C	1.049329	0.827879	0.171881
C51	C	0.467344	0.327885	-0.328126
C52	C	0.967344	0.827885	0.171874
C53	C	0.467353	0.428418	-0.428352
C54	C	0.967353	0.928418	0.071648
C55	C	0.549332	0.428413	-0.428344
C56	C	1.049332	0.928413	0.071656
C57	C	0.590317	0.378142	-0.378225
C58	C	1.090317	0.878142	0.121775
C59	C	1.134284	0.582078	-0.378187
C60	C	1.634284	1.082078	0.121813
C61	C	1.134321	0.669328	-0.378203
C62	C	1.634321	1.169328	0.121797
C63	C	1.184567	0.710311	-0.328058
C64	C	1.684567	1.210311	0.171942
C65	C	1.184604	0.792291	-0.328082
C66	C	1.684604	1.292291	0.171918
C67	C	1.134389	0.833288	-0.378246
C68	C	1.634389	1.333288	0.121754
C69	C	1.084141	0.792299	-0.428397
C70	C	1.584141	1.292299	0.071603
C71	C	1.084109	0.710320	-0.428377
C72	C	1.584109	1.210320	0.071623
C73	C	1.084209	0.963169	-0.428434
C74	C	1.584209	1.463169	0.071566
C75	C	1.084240	1.045154	-0.428453
C76	C	1.584240	1.545154	0.071547
C77	C	1.184704	1.045140	-0.328138
C78	C	1.684704	1.545140	0.171862
C79	C	1.184672	0.963161	-0.328118
C80	C	1.684672	1.463161	0.171882
C81	C	1.134422	0.922179	-0.378268
C82	C	1.634422	1.422179	0.121732
C83	C	1.339109	0.378145	-0.378232
C84	C	1.839109	0.878145	0.121768
C85	C	1.426359	0.378152	-0.378241
C86	C	1.926359	0.878152	0.121759
C87	C	1.134404	0.378070	-0.582954
C88	C	1.634404	0.878070	-0.082954
C89	C	1.134421	0.378044	-0.670204
C90	C	1.634421	0.878044	-0.170204
C91	C	1.134461	1.173386	-0.378260
C92	C	1.634461	1.673386	0.121740
C93	C	1.134486	1.086136	-0.378308
C94	C	1.634486	1.586136	0.121692
C95	C	1.084256	0.327828	-0.711198
C96	C	1.584256	0.827828	-0.211198
C97	C	1.084269	0.327811	-0.793178
C98	C	1.584269	0.827811	-0.293178
C99	C	1.134451	0.378005	-0.834163
C100	C	1.634451	0.878005	-0.334163
C101	C	1.184619	0.428226	-0.793164
C102	C	1.684619	0.928226	-0.293164
C103	C	1.184601	0.428247	-0.711185
C104	C	1.684601	0.928247	-0.211185
C105	C	1.184653	0.428177	-0.964034
C106	C	1.684653	0.928177	-0.464034
C107	C	1.184671	0.428155	-1.046018
C108	C	1.684671	0.928155	-0.546018
C109	C	1.084320	0.327740	-1.046027
C110	C	1.584320	0.827740	-0.546027
C111	C	1.084303	0.327762	-0.964048
C112	C	1.584303	0.827762	-0.464048
C113	C	1.134471	0.377982	-0.923054
C114	C	1.634471	0.877982	-0.423054
C115	C	1.134371	0.378135	-0.174262
C116	C	1.634371	0.878135	0.325738
C117	C	1.134506	0.377939	-0.087012
C118	C	1.634506	0.877939	0.412988
H119	H	0.582707	0.469345	-0.469142
H120	H	1.082707	0.969345	0.030858
H121	H	1.225519	0.825656	-0.287248
H122	H	1.725519	1.325656	0.212752
H123	H	0.433979	0.469349	-0.469163
H124	H	0.933979	0.969349	0.030837
C125	C	0.341670	0.283220	-0.283684
C126	C	0.841670	0.783220	0.216316
C127	C	0.422280	0.272605	-0.273081
C128	C	0.922280	0.772605	0.226919
H129	H	0.313852	0.249085	-0.249706
H130	H	0.813852	0.749085	0.250294
H131	H	0.328282	0.271832	-0.336453
H132	H	0.828282	0.771832	0.163547
H133	H	0.328208	0.335940	-0.272070
H134	H	0.828208	0.835940	0.227930
H135	H	0.435744	0.219885	-0.284701
H136	H	0.935744	0.719885	0.215299
H137	H	0.435674	0.283986	-0.220301
H138	H	0.935674	0.783986	0.279699
C139	C	1.283987	0.971378	-0.228969
C140	C	1.783987	1.471378	0.271031
C141	C	1.239870	0.918096	-0.272979
C142	C	1.739870	1.418096	0.227021
H143	H	1.318068	0.943554	-0.194934
H144	H	1.818068	1.443554	0.305066
H145	H	1.249820	1.003399	-0.198917
H146	H	1.749820	1.503399	0.301083
H147	H	1.314002	1.003306	-0.263212
H148	H	1.814002	1.503306	0.236788
H149	H	1.209850	0.886171	-0.238736
H150	H	1.709850	1.386171	0.261264
H151	H	1.274042	0.886061	-0.303034
H152	H	1.774042	1.386061	0.196966
H153	H	1.225622	1.078512	-0.287307
H154	H	1.725622	1.578512	0.212693
H155	H	0.835547	0.286922	-0.287287
H156	H	1.335547	0.786922	0.212713
H157	H	1.043365	1.078531	-0.469316
H158	H	1.543365	1.578531	0.030684
H159	H	1.043443	0.286885	-0.930681
H160	H	1.543443	0.786885	-0.430681
H161	H	1.043472	0.286848	-1.079409
H162	H	1.543472	0.786848	-0.579409
C163	C	1.045785	0.685017	-0.561255
C164	C	1.545785	1.185017	-0.061255
C165	C	1.028878	0.665268	-0.483499
C166	C	1.528878	1.165268	0.016501
H167	H	1.011686	0.657206	-0.595287
H168	H	1.511686	1.157206	-0.095287
H169	H	1.098510	0.671530	-0.572778
H170	H	1.598510	1.171530	-0.072778
H171	H	1.038612	0.739708	-0.568435
H172	H	1.538612	1.239708	-0.068435
H173	H	1.036057	0.610577	-0.476317
H174	H	1.536057	1.110577	0.023683
H175	H	0.976141	0.678750	-0.471971
H176	H	1.476141	1.178750	0.028029
H177	H	1.225474	0.469099	-0.826540
H178	H	1.725474	0.969099	-0.326540
C179	C	1.290217	0.439120	-0.871849
C180	C	1.790217	0.939120	-0.371849
C181	C	1.239799	0.483379	-0.918972
C182	C	1.739799	0.983379	-0.418972
H183	H	1.324258	0.473200	-0.844027
H184	H	1.824258	0.973200	-0.344027
H185	H	1.320264	0.404920	-0.903841
H186	H	1.820264	0.904920	-0.403841
H187	H	1.260318	0.409235	-0.835710
H188	H	1.760318	0.909235	-0.335710
H189	H	1.269698	0.513261	-0.955114
H190	H	1.769698	1.013261	-0.455114
H191	H	1.209749	0.517593	-0.886977
H192	H	1.709749	1.017593	-0.386977
H193	H	0.582696	0.286936	-0.287314
H194	H	1.082696	0.786936	0.212686
C195	C	1.073379	0.222255	-0.619034
C196	C	1.573379	0.722255	-0.119034
C197	C	1.029092	0.272651	-0.666153
C198	C	1.529092	0.772651	-0.166153
H199	H	1.039319	0.188189	-0.591232
H200	H	1.539319	0.688189	-0.091232
H201	H	1.103245	0.252162	-0.582887
H202	H	1.603245	0.752162	-0.082887
H203	H	1.107599	0.192226	-0.651034
H204	H	1.607599	0.692226	-0.151034
H205	H	0.994876	0.302685	-0.634152
H206	H	1.494876	0.802685	-0.134152
H207	H	0.999212	0.242741	-0.702304
H208	H	1.499212	0.742741	-0.202304
C209	C	0.978685	0.316884	-0.885336
C210	C	1.478685	0.816884	-0.385336
C211	C	1.029112	0.272618	-0.838230
C212	C	1.529112	0.772618	-0.338230
H213	H	0.944625	0.282809	-0.913142
H214	H	1.444625	0.782809	-0.413142
H215	H	1.008571	0.346761	-0.921481
H216	H	1.508571	0.846761	-0.421481
H217	H	0.948651	0.351093	-0.853329
H218	H	1.448651	0.851093	-0.353329
H219	H	1.059150	0.238412	-0.870238
H220	H	1.559150	0.738412	-0.370238
H221	H	0.999223	0.242727	-0.802080
H222	H	1.499223	0.742727	-0.302080
H223	H	1.043293	0.929804	-0.469273
H224	H	1.543293	1.429804	0.030727
H225	H	1.043258	0.825685	-0.469245
H226	H	1.543258	1.325685	0.030755
C227	C	0.627967	0.533997	-0.439041
C228	C	1.127967	1.033997	0.060959
C229	C	0.675143	0.483653	-0.483407
C230	C	1.175143	0.983653	0.016593
H231	H	0.600146	0.568107	-0.473049
H232	H	1.100146	1.068107	0.026951
H233	H	0.659923	0.563976	-0.404791
H234	H	1.159923	1.063976	0.095209
H235	H	0.591828	0.504050	-0.409205
H236	H	1.091828	1.004050	0.090795
H237	H	0.711286	0.513601	-0.513239
H238	H	1.211286	1.013601	-0.013239
H239	H	0.643185	0.453672	-0.517671
H240	H	1.143185	0.953672	-0.017671
H241	H	1.225535	0.469027	-1.079386
H242	H	1.725535	0.969027	-0.579386
C243	C	0.627969	0.316826	-0.222540
C244	C	1.127969	0.816826	0.277460
C245	C	0.675139	0.272613	-0.273023
C246	C	1.175139	0.772613	0.226977
H247	H	0.600156	0.282714	-0.188534
H248	H	1.100156	0.782714	0.311466
H249	H	0.591830	0.346757	-0.252388
H250	H	1.091830	0.846757	0.247612
H251	H	0.659934	0.350981	-0.192451
H252	H	1.159934	0.850981	0.307549
H253	H	0.643173	0.238461	-0.303116
H254	H	1.143173	0.738461	0.196884
H255	H	0.711282	0.242668	-0.243171
H256	H	1.211282	0.742668	0.256829
C257	C	1.283878	0.718540	-0.228908
C258	C	1.783878	1.218540	0.271092
C259	C	1.239766	0.665252	-0.272914
C260	C	1.739766	1.165252	0.227086
H261	H	1.317959	0.690723	-0.194869
H262	H	1.817959	1.190723	0.305131
H263	H	1.249708	0.750564	-0.198861
H264	H	1.749708	1.250564	0.301139
H265	H	1.313893	0.750466	-0.263154
H266	H	1.813893	1.250466	0.236846
H267	H	1.209746	0.633329	-0.238668
H268	H	1.709746	1.133329	0.261332
H269	H	1.273940	0.633215	-0.302964
H270	H	1.773940	1.133215	0.197036
C271	C	1.283797	0.527498	-0.719405
C272	C	1.783797	1.027498	-0.219405
C273	C	1.239744	0.483446	-0.666121
C274	C	1.739744	0.983446	-0.166121
H275	H	1.317841	0.561575	-0.691583
H276	H	1.817841	1.061575	-0.191583
H277	H	1.249587	0.557508	-0.751370
H278	H	1.749587	1.057508	-0.251370
H279	H	1.313850	0.493284	-0.751389
H280	H	1.813850	0.993284	-0.251389
H281	H	1.209687	0.517660	-0.634140
H282	H	1.709687	1.017660	-0.134140
H283	H	1.273959	0.453434	-0.634142
H284	H	1.773959	0.953434	-0.134142
H285	H	0.835553	0.469327	-0.469113
H286	H	1.335553	0.969327	0.030887
