data_functionalizedCrystal
_audit_creation_method	'MofGen! by Chris Wilmer'
_symmetry_space_group_name_H-M	'P1'
_symmetry_Int_Tables_number	1
_symmetry_cell_setting	triclinic
loop_
_symmetry_equiv_pos_as_xyz
  x,y,z
_cell_length_a	12.759401
_cell_length_b	17.077402
_cell_length_c	12.759393
_cell_angle_alpha	90.035244
_cell_angle_beta	90.020473
_cell_angle_gamma	90.024408
loop_
_atom_site_label
_atom_site_type_symbol
_atom_site_fract_x
_atom_site_fract_y
_atom_site_fract_z
Zn1	Zn	1.606202	-0.312434	0.593990
Zn2	Zn	1.606069	-0.443721	0.418297
Zn3	Zn	1.430502	-0.312477	0.418325
Zn4	Zn	1.430467	-0.443665	0.593934
O5	O	1.518310	-0.378074	0.506136
O6	O	1.753205	-0.329855	0.570695
O7	O	1.582739	-0.426353	0.271279
O8	O	1.453879	-0.202624	0.441662
O9	O	1.753108	-0.426311	0.441614
O10	O	1.582965	-0.202593	0.570722
O11	O	1.453750	-0.329928	0.271300
O12	O	1.283476	-0.329874	0.441608
O13	O	1.453820	-0.426216	0.740962
O14	O	1.283451	-0.426257	0.570627
O15	O	1.582931	-0.329801	0.741003
O16	O	1.582705	-0.553561	0.441560
O17	O	1.453691	-0.553520	0.570600
C18	C	1.245343	-0.378065	0.506115
C19	C	1.128566	-0.378080	0.506131
C20	C	1.073718	-0.428343	0.573206
C21	C	0.963994	-0.428346	0.573227
C22	C	0.963975	-0.327820	0.439089
C23	C	1.073697	-0.327814	0.439075
C24	C	1.518209	-0.582022	0.506094
C25	C	1.518261	-0.669272	0.506111
C26	C	1.585508	-0.710258	0.438993
C27	C	1.585559	-0.792238	0.439019
C28	C	1.518358	-0.833231	0.506161
C29	C	1.451109	-0.792240	0.573287
C30	C	1.451064	-0.710261	0.573265
C31	C	1.451206	-0.963110	0.573327
C32	C	1.451250	-1.045095	0.573348
C33	C	1.585702	-1.045087	0.439082
C34	C	1.585656	-0.963108	0.439059
C35	C	1.518406	-0.922122	0.506184
C36	C	1.792343	-0.378085	0.506158
C37	C	1.909120	-0.378089	0.506167
C38	C	1.518386	-0.377997	0.780170
C39	C	1.518419	-0.377964	0.896946
C40	C	1.518441	-0.173330	0.506201
C41	C	1.518496	-0.086080	0.506229
C42	C	1.518294	-0.378095	0.233169
C43	C	1.518465	-0.377907	0.116393
C44	C	1.585674	-0.327723	1.061563
C45	C	1.585654	-0.327753	0.951838
C46	C	1.451208	-0.428153	0.951784
C47	C	1.451234	-0.428126	1.061506
H48	H	1.118356	-0.286879	0.384454
H49	H	1.640226	-0.676886	0.384314
H50	H	1.396549	-1.078469	0.628040
O51	O	1.651037	-0.279056	1.114996
C52	C	1.792962	-0.268473	1.238847
C53	C	1.718985	-0.323676	1.178422
H54	H	1.847932	-0.304527	1.290125
H55	H	1.744825	-0.227424	1.290296
H56	H	1.840947	-0.232594	1.180787
H57	H	1.670984	-0.359606	1.236407
H58	H	1.767183	-0.364674	1.126958
H59	H	1.118389	-0.469270	0.627811
H60	H	1.640383	-0.286890	0.907201
H61	H	1.396468	-0.469039	0.907083
O62	O	1.385994	-0.476988	1.114656
C63	C	1.334967	-0.610507	1.148216
C64	C	1.408891	-0.555259	1.087943
H65	H	1.353468	-0.673802	1.126657
H66	H	1.250236	-0.596791	1.126620
H67	H	1.346518	-0.601825	1.236060
H68	H	1.397433	-0.563910	1.000085
H69	H	1.493595	-0.568989	1.109626
O70	O	0.910878	-0.477247	0.638415
C71	C	0.922484	-0.576923	0.771500
C72	C	0.982767	-0.521594	0.697707
H73	H	0.980579	-0.612780	0.819473
H74	H	0.871097	-0.617979	0.723224
H75	H	0.871133	-0.540924	0.826489
H76	H	1.034174	-0.557530	0.642703
H77	H	1.034087	-0.480536	0.746048
O78	O	1.385786	-0.923417	0.638571
C79	C	1.252486	-0.932071	0.771800
C80	C	1.326500	-0.977121	0.697951
H81	H	1.204550	-0.975471	0.819843
H82	H	1.197483	-0.893773	0.723562
H83	H	1.300695	-0.893609	0.826720
H84	H	1.278375	-1.015626	0.643015
H85	H	1.381506	-1.015370	0.746254
O86	O	1.651093	-0.831906	0.373873
C87	C	1.829922	-0.856749	0.323164
C88	C	1.755773	-0.811802	0.396990
H89	H	1.914572	-0.840524	0.341843
H90	H	1.811617	-0.840653	0.238414
H91	H	1.818463	-0.922395	0.334628
H92	H	1.767190	-0.746146	0.385619
H93	H	1.774096	-0.827963	0.481714
O94	O	1.385837	-0.670324	0.638428
C95	C	1.326138	-0.544032	0.697857
C96	C	1.400075	-0.589161	0.624018
H97	H	1.337608	-0.478404	0.686216
H98	H	1.344555	-0.560029	0.782616
H99	H	1.241451	-0.560260	0.679349
H100	H	1.484786	-0.572957	0.642430
H101	H	1.381568	-0.573160	0.539280
O102	O	0.910724	-0.278886	0.374059
C103	C	0.877244	-0.145319	0.323342
C104	C	0.937592	-0.200647	0.397075
H105	H	0.898961	-0.082052	0.341909
H106	H	0.789387	-0.153888	0.334871
H107	H	0.898761	-0.159069	0.238597
H108	H	0.916162	-0.186932	0.481848
H109	H	1.025434	-0.192068	0.385455
H110	H	1.640463	-1.078461	0.384429
O111	O	1.650883	-0.923373	0.373693
C112	C	1.701922	-0.898323	0.195018
C113	C	1.628001	-0.943384	0.268925
H114	H	1.683434	-0.914473	0.110297
H115	H	1.786655	-0.914391	0.213461
H116	H	1.690354	-0.832694	0.206588
H117	H	1.639476	-1.009023	0.257396
H118	H	1.543295	-0.927251	0.250464
H119	H	1.396397	-0.825623	0.627959
