data_functionalizedCrystal
_audit_creation_method	'MofGen! by Chris Wilmer'
_symmetry_space_group_name_H-M	'P1'
_symmetry_Int_Tables_number	1
_symmetry_cell_setting	triclinic
loop_
_symmetry_equiv_pos_as_xyz
  x,y,z
_cell_length_a	17.077402
_cell_length_b	12.759401
_cell_length_c	17.077396
_cell_angle_alpha	90.015212
_cell_angle_beta	89.969381
_cell_angle_gamma	89.978967
loop_
_atom_site_label
_atom_site_type_symbol
_atom_site_fract_x
_atom_site_fract_y
_atom_site_fract_z
Zn1	Zn	-0.312540	-1.606151	-0.443793
Zn2	Zn	-0.443817	-1.606033	-0.312524
Zn3	Zn	-0.312565	-1.430466	-0.312546
Zn4	Zn	-0.443764	-1.430416	-0.443752
O5	O	-0.378172	-1.518266	-0.378154
O6	O	-0.329967	-1.753156	-0.426388
O7	O	-0.426439	-1.582715	-0.202680
O8	O	-0.202715	-1.453841	-0.329982
O9	O	-0.426415	-1.753070	-0.329945
O10	O	-0.202697	-1.582916	-0.426409
O11	O	-0.330009	-1.453727	-0.202696
O12	O	-0.329957	-1.283438	-0.329942
O13	O	-0.426324	-1.453756	-0.553605
O14	O	-0.426348	-1.283402	-0.426339
O15	O	-0.329915	-1.582867	-0.553635
O16	O	-0.553657	-1.582667	-0.329906
O17	O	-0.553618	-1.453642	-0.426318
C18	C	-0.378150	-1.245299	-0.378139
C19	C	-0.378160	-1.128522	-0.378152
C20	C	-0.582120	-1.518165	-0.378122
C21	C	-0.669369	-1.518218	-0.378135
C22	C	-0.428430	-1.073669	-0.428262
C23	C	-0.428437	-0.963945	-0.428269
C24	C	-0.327902	-0.963938	-0.328049
C25	C	-0.327891	-1.073660	-0.328046
C26	C	-0.486475	-1.073672	-0.486121
C27	C	-0.486482	-0.963948	-0.486128
C28	C	-0.710354	-1.585470	-0.327987
C29	C	-0.792334	-1.585521	-0.328007
C30	C	-0.833329	-1.518314	-0.378172
C31	C	-0.792339	-1.451059	-0.428326
C32	C	-0.710360	-1.451014	-0.428309
C33	C	-0.963209	-1.451157	-0.428356
C34	C	-1.045193	-1.451200	-0.428371
C35	C	-1.045183	-1.585664	-0.328053
C36	C	-0.963204	-1.585618	-0.328037
C37	C	-0.922220	-1.518362	-0.378190
C38	C	-0.173427	-1.518397	-0.378202
C39	C	-0.086178	-1.518452	-0.378223
C40	C	-0.378111	-1.518319	-0.582898
C41	C	-0.378085	-1.518342	-0.670148
C42	C	-0.378187	-0.792300	-0.378165
C43	C	-0.378177	-0.909076	-0.378161
C44	C	-0.327868	-1.451198	-0.711146
C45	C	-0.327850	-1.451215	-0.793126
C46	C	-0.378046	-1.518382	-0.834107
C47	C	-0.428269	-1.585529	-0.793104
C48	C	-0.428290	-1.585506	-0.711125
C49	C	-0.428220	-1.585574	-0.963974
C50	C	-0.428198	-1.585599	-1.045959
C51	C	-0.327780	-1.451284	-1.045975
C52	C	-0.327801	-1.451260	-0.963996
C53	C	-0.378023	-1.518409	-0.922999
C54	C	-0.378176	-1.518274	-0.174206
C55	C	-0.377980	-1.518455	-0.086957
H56	H	-0.286952	-1.118317	-0.287247
C57	C	-0.918851	-1.378027	-0.482842
C58	C	-0.972296	-1.319161	-0.526764
C59	C	-0.931463	-1.251775	-0.576955
H60	H	-0.886822	-1.418059	-0.517132
H61	H	-0.886934	-1.332200	-0.452798
H62	H	-1.004199	-1.364982	-0.556806
H63	H	-1.004327	-1.279108	-0.492495
H64	H	-0.899546	-1.205948	-0.546912
H65	H	-0.899435	-1.291815	-0.611241
H66	H	-0.967719	-1.211819	-0.606758
C67	C	-0.666001	-1.377886	-0.482789
C68	C	-0.719446	-1.319020	-0.526713
C69	C	-0.678612	-1.251639	-0.576907
H70	H	-0.633972	-1.417920	-0.517079
H71	H	-0.634083	-1.332057	-0.452747
H72	H	-0.751350	-1.364843	-0.556752
H73	H	-0.751476	-1.278965	-0.492444
H74	H	-0.646695	-1.205810	-0.546865
H75	H	-0.646585	-1.291681	-0.611191
H76	H	-0.714868	-1.211684	-0.606709
H77	H	-0.286961	-1.396536	-0.826503
H78	H	-0.929827	-1.640338	-0.287185
H79	H	-0.286923	-1.396572	-0.930632
H80	H	-0.286886	-1.396610	-1.079360
H81	H	-0.469072	-1.640293	-1.079323
C82	C	-0.273339	-1.378154	-0.666797
C83	C	-0.229374	-1.319335	-0.720252
C84	C	-0.179144	-1.252020	-0.679430
H85	H	-0.239077	-1.418235	-0.634824
H86	H	-0.303357	-1.332293	-0.634825
H87	H	-0.199359	-1.365189	-0.752211
H88	H	-0.263616	-1.279232	-0.752227
H89	H	-0.209161	-1.206160	-0.647458
H90	H	-0.144887	-1.292110	-0.647458
H91	H	-0.149313	-1.212097	-0.715693
C92	C	-0.482780	-1.658588	-0.919602
C93	C	-0.526721	-1.717436	-0.973036
C94	C	-0.576979	-1.784715	-0.932189
H95	H	-0.517056	-1.618481	-0.887609
H96	H	-0.452784	-1.704433	-0.887647
H97	H	-0.556715	-1.671597	-1.004977
H98	H	-0.492466	-1.757564	-1.005030
H99	H	-0.546983	-1.830560	-0.900234
H100	H	-0.611250	-1.744600	-0.900197
H101	H	-0.606794	-1.824658	-0.968437
H102	H	-0.464786	-0.929949	-0.543922
H103	H	-0.286975	-0.919255	-0.287256
C104	C	-0.482844	-1.658518	-0.666751
C105	C	-0.526787	-1.717364	-0.720185
C106	C	-0.577048	-1.784639	-0.679338
H107	H	-0.517119	-1.618408	-0.634760
H108	H	-0.452850	-1.704363	-0.634795
H109	H	-0.556778	-1.671524	-0.752127
H110	H	-0.492532	-1.757495	-0.752178
H111	H	-0.547054	-1.830485	-0.647382
H112	H	-0.611318	-1.744521	-0.647348
H113	H	-0.606864	-1.824581	-0.715586
H114	H	-0.470269	-1.103477	-0.546945
H115	H	-0.469143	-1.640212	-0.826477
C116	C	-0.563360	-1.119088	-0.456805
C117	C	-0.549304	-1.180750	-0.390476
C118	C	-0.620112	-1.222594	-0.363443
H119	H	-0.586185	-1.161071	-0.496657
H120	H	-0.598100	-1.063653	-0.443595
H121	H	-0.514578	-1.236177	-0.403689
H122	H	-0.526491	-1.138791	-0.350609
H123	H	-0.654852	-1.167160	-0.350233
H124	H	-0.642932	-1.264573	-0.403299
H125	H	-0.610586	-1.264429	-0.318432
C126	C	-0.567542	-0.924131	-0.464424
C127	C	-0.597219	-0.863256	-0.525824
C128	C	-0.671890	-0.826570	-0.505863
H129	H	-0.564273	-0.882682	-0.418330
H130	H	-0.601340	-0.981998	-0.455340
H131	H	-0.563431	-0.805398	-0.534899
H132	H	-0.600508	-0.904683	-0.571924
H133	H	-0.705687	-0.884436	-0.496779
H134	H	-0.668612	-0.785125	-0.459769
H135	H	-0.692038	-0.785270	-0.547522
H136	H	-0.676982	-1.640192	-0.287134
C137	C	-0.836803	-1.658834	-0.273758
C138	C	-0.883693	-1.726180	-0.318350
C139	C	-0.924628	-1.793819	-0.268434
H140	H	-0.868946	-1.618980	-0.239458
H141	H	-0.800614	-1.698905	-0.243955
H142	H	-0.919877	-1.686114	-0.348140
H143	H	-0.851569	-1.766057	-0.352648
H144	H	-0.888440	-1.833890	-0.238631
H145	H	-0.956767	-1.753957	-0.234137
H146	H	-0.956442	-1.839528	-0.298683
C147	C	-1.089818	-1.658781	-0.273786
C148	C	-1.170385	-1.644522	-0.284597
C149	C	-1.211530	-1.711921	-0.234671
H150	H	-1.076579	-1.643630	-0.220967
H151	H	-1.076323	-1.729332	-0.285418
H152	H	-1.183875	-1.573987	-0.272960
H153	H	-1.183648	-1.659681	-0.337406
H154	H	-1.198035	-1.782472	-0.246302
H155	H	-1.198285	-1.696764	-0.181854
H156	H	-1.266199	-1.702262	-0.242004
H157	H	-1.078569	-1.396494	-0.469235
H158	H	-0.825723	-1.396343	-0.469174
