data_functionalizedCrystal
_audit_creation_method	'MofGen! by Chris Wilmer'
_symmetry_space_group_name_H-M	'P1'
_symmetry_Int_Tables_number	1
_symmetry_cell_setting	triclinic
loop_
_symmetry_equiv_pos_as_xyz
  x,y,z
_cell_length_a	12.759401
_cell_length_b	21.395361
_cell_length_c	12.759393
_cell_angle_alpha	90.038155
_cell_angle_beta	90.020938
_cell_angle_gamma	90.032233
loop_
_atom_site_label
_atom_site_type_symbol
_atom_site_fract_x
_atom_site_fract_y
_atom_site_fract_z
Zn1	Zn	1.606150	-0.249383	0.593964
Zn2	Zn	2.106150	0.250617	1.093964
Zn3	Zn	1.605992	-0.354173	0.418261
Zn4	Zn	2.105992	0.145827	0.918261
Zn5	Zn	1.430448	-0.249416	0.418299
Zn6	Zn	1.930448	0.250584	0.918299
Zn7	Zn	1.430391	-0.354129	0.593898
Zn8	Zn	1.930391	0.145871	1.093898
O9	O	1.518245	-0.301775	0.506106
O10	O	2.018245	0.198225	1.006106
O11	O	1.753150	-0.263288	0.570668
O12	O	2.253150	0.236712	1.070668
O13	O	1.582663	-0.340309	0.271245
O14	O	2.082663	0.159691	0.771245
O15	O	1.453845	-0.161734	0.441645
O16	O	1.953845	0.338266	0.941645
O17	O	1.753033	-0.340277	0.441580
O18	O	2.253033	0.159723	0.941580
O19	O	1.582932	-0.161709	0.570706
O20	O	2.082932	0.338291	1.070706
O21	O	1.453692	-0.263345	0.271273
O22	O	1.953692	0.236655	0.771273
O23	O	1.283420	-0.263302	0.441581
O24	O	1.783420	0.236698	0.941581
O25	O	1.453748	-0.340202	0.740928
O26	O	1.953748	0.159798	1.240928
O27	O	1.283378	-0.340234	0.570593
O28	O	1.783378	0.159766	1.070593
O29	O	1.582877	-0.263245	0.740977
O30	O	2.082877	0.236755	1.240977
O31	O	1.582608	-0.441845	0.441516
O32	O	2.082608	0.058155	0.941516
O33	O	1.453595	-0.441813	0.570556
O34	O	1.953595	0.058187	1.070556
C35	C	1.245278	-0.301768	0.506085
C36	C	1.745278	0.198232	1.006085
C37	C	1.128501	-0.301779	0.506101
C38	C	1.628501	0.198221	1.006101
C39	C	1.073645	-0.341899	0.573171
C40	C	1.573645	0.158101	1.073171
C41	C	0.963921	-0.341901	0.573192
C42	C	1.463921	0.158099	1.073192
C43	C	0.963919	-0.261663	0.439063
C44	C	1.463919	0.238337	0.939063
C45	C	1.073641	-0.261658	0.439048
C46	C	1.573641	0.238342	0.939048
C47	C	1.518106	-0.464563	0.506047
C48	C	2.018106	0.035437	1.006047
C49	C	1.518143	-0.534204	0.506057
C50	C	2.018143	-0.034204	1.006057
C51	C	1.585380	-0.566913	0.438935
C52	C	2.085380	-0.066913	0.938935
C53	C	1.585429	-0.632349	0.438958
C54	C	2.085429	-0.132349	0.938958
C55	C	1.518222	-0.665072	0.506093
C56	C	2.018222	-0.165072	1.006093
C57	C	1.450981	-0.632355	0.573229
C58	C	1.950981	-0.132355	1.073229
C59	C	1.450941	-0.566921	0.573211
C60	C	1.950941	-0.066921	1.073211
C61	C	1.423624	-0.768788	0.514329
C62	C	1.923624	-0.268788	1.014329
C63	C	1.423662	-0.834221	0.514340
C64	C	1.923662	-0.334221	1.014340
C65	C	1.518345	-0.866893	0.506155
C66	C	2.018345	-0.366893	1.006155
C67	C	1.612993	-0.834125	0.497937
C68	C	2.112993	-0.334125	0.997937
C69	C	1.612953	-0.768691	0.497919
C70	C	2.112953	-0.268691	0.997919
C71	C	1.518258	-0.736025	0.506121
C72	C	2.018258	-0.236025	1.006121
C73	C	1.585640	-0.970555	0.439054
C74	C	2.085640	-0.470555	0.939054
C75	C	1.585690	-1.035991	0.439085
C76	C	2.085690	-0.535991	0.939085
C77	C	1.451233	-1.035997	0.573350
C78	C	1.951233	-0.535997	1.073350
C79	C	1.451192	-0.970562	0.573325
C80	C	1.951192	-0.470562	1.073325
C81	C	1.518394	-0.937844	0.506171
C82	C	2.018394	-0.437844	1.006171
C83	C	1.792278	-0.301783	0.506127
C84	C	2.292278	0.198217	1.006127
C85	C	1.909055	-0.301787	0.506136
C86	C	2.409055	0.198213	1.006136
C87	C	1.518324	-0.301715	0.780139
C88	C	2.018324	0.198285	1.280139
C89	C	1.518357	-0.301689	0.896916
C90	C	2.018357	0.198311	1.396916
C91	C	1.518413	-0.138352	0.506187
C92	C	2.018413	0.361648	1.006187
C93	C	1.518484	-0.068711	0.506222
C94	C	2.018484	0.431289	1.006222
C95	C	1.518227	-0.301790	0.233138
C96	C	2.018227	0.198210	0.733138
C97	C	1.518397	-0.301639	0.116362
C98	C	2.018397	0.198361	0.616362
C99	C	1.585600	-0.261612	0.951805
C100	C	2.085600	0.238388	1.451805
C101	C	1.585617	-0.261585	1.061529
C102	C	2.085617	0.238415	1.561529
C103	C	1.451147	-0.341719	1.061465
C104	C	1.951147	0.158281	1.561465
C105	C	1.451125	-0.341742	0.951743
C106	C	1.951125	0.158258	1.451743
H107	H	1.640102	-0.540277	0.384257
H108	H	2.140102	-0.040277	0.884257
N109	N	1.378639	-0.384925	1.120588
N110	N	1.878639	0.115075	1.620588
H111	H	1.303582	-0.375192	1.101480
H112	H	1.803582	0.124808	1.601480
H113	H	1.388937	-0.378817	1.198409
H114	H	1.888937	0.121183	1.698409
N115	N	1.658131	-0.218351	1.120732
N116	N	2.158131	0.281649	1.620732
H117	H	1.700712	-0.192981	1.069346
H118	H	2.200712	0.307019	1.569346
H119	H	1.706734	-0.243841	1.166260
H120	H	2.206734	0.256159	1.666260
N121	N	1.378409	-0.531636	0.645596
N122	N	1.878409	-0.031636	1.145596
H123	H	1.421060	-0.504436	0.694312
H124	H	1.921060	-0.004436	1.194312
H125	H	1.335853	-0.562330	0.688063
H126	H	1.835853	-0.062330	1.188063
N127	N	1.132810	-0.385169	0.645498
N128	N	1.632810	0.114831	1.145498
H129	H	1.178381	-0.359740	0.694258
H130	H	1.678381	0.140260	1.194258
H131	H	1.178225	-0.414165	0.602630
H132	H	1.678225	0.085835	1.102630
N133	N	1.657932	-0.667636	0.366538
N134	N	2.157932	-0.167636	0.866538
H135	H	1.647753	-0.714053	0.376736
H136	H	2.147753	-0.214053	0.876736
H137	H	1.732958	-0.656156	0.382933
H138	H	2.232958	-0.156156	0.882933
H139	H	1.396361	-0.374378	0.907052
H140	H	1.896361	0.125622	1.407052
H141	H	1.118306	-0.228984	0.384431
H142	H	1.618306	0.271016	0.884431
N143	N	0.904753	-0.385176	0.645528
N144	N	1.404753	0.114824	1.145528
H145	H	0.956159	-0.410591	0.687998
H146	H	1.456159	0.089409	1.187998
H147	H	0.859184	-0.414140	0.602670
H148	H	1.359184	0.085860	1.102670
H149	H	0.919239	-0.228998	0.384469
H150	H	1.419239	0.271002	0.884469
H151	H	1.690018	-0.742012	0.491231
H152	H	2.190018	-0.242012	0.991231
H153	H	1.690092	-0.860725	0.491272
H154	H	2.190092	-0.360725	0.991272
N155	N	1.658119	-0.935261	0.366632
N156	N	2.158119	-0.435261	0.866632
H157	H	1.700728	-0.965914	0.324118
H158	H	2.200728	-0.465914	0.824118
H159	H	1.706697	-0.908061	0.409432
H160	H	2.206697	-0.408061	0.909432
H161	H	1.640449	-1.062622	0.384428
H162	H	2.140449	-0.562622	0.884428
H163	H	1.346593	-0.860896	0.521021
H164	H	1.846593	-0.360896	1.021021
N165	N	1.378752	-1.071282	0.645770
N166	N	1.878752	-0.571282	1.145770
H167	H	1.388981	-1.117698	0.635600
H168	H	1.888981	-0.617698	1.135600
H169	H	1.303719	-1.059896	0.629350
H170	H	1.803719	-0.559896	1.129350
N171	N	1.378664	-0.935277	0.645714
N172	N	1.878664	-0.435277	1.145714
H173	H	1.336094	-0.965935	0.688247
H174	H	1.836094	-0.465935	1.188247
H175	H	1.330052	-0.908178	0.602892
H176	H	1.830052	-0.408178	1.102892
N177	N	1.321497	-0.733551	0.523169
N178	N	1.821497	-0.233551	1.023169
H179	H	1.261546	-0.764237	0.528369
H180	H	1.761546	-0.264237	1.028369
H181	H	1.311757	-0.706438	0.459140
H182	H	1.811757	-0.206438	0.959140
H183	H	1.396263	-0.659003	0.627892
H184	H	1.896263	-0.159003	1.127892
N185	N	1.658109	-0.218414	0.892667
N186	N	2.158109	0.281586	1.392667
H187	H	1.700708	-0.193020	0.944093
H188	H	2.200708	0.306980	1.444093
H189	H	1.615365	-0.189426	0.847149
H190	H	2.115365	0.310574	1.347149
