data_functionalizedCrystal
_audit_creation_method	'MofGen! by Chris Wilmer'
_symmetry_space_group_name_H-M	'P1'
_symmetry_Int_Tables_number	1
_symmetry_cell_setting	triclinic
loop_
_symmetry_equiv_pos_as_xyz
  x,y,z
_cell_length_a	17.077404
_cell_length_b	17.077402
_cell_length_c	17.077396
_cell_angle_alpha	90.029784
_cell_angle_beta	89.980499
_cell_angle_gamma	89.976892
loop_
_atom_site_label
_atom_site_type_symbol
_atom_site_fract_x
_atom_site_fract_y
_atom_site_fract_z
Zn1	Zn	1.200055	0.312503	-0.443836
Zn2	Zn	1.533388	0.645837	-0.110502
Zn3	Zn	1.866721	0.979170	0.222831
Zn4	Zn	1.199962	0.443778	-0.312567
Zn5	Zn	1.533295	0.777112	0.020767
Zn6	Zn	1.866628	1.110445	0.354100
Zn7	Zn	1.068786	0.312531	-0.312584
Zn8	Zn	1.402120	0.645864	0.020750
Zn9	Zn	1.735453	0.979198	0.354083
Zn10	Zn	1.068754	0.443732	-0.443790
Zn11	Zn	1.402088	0.777065	-0.110457
Zn12	Zn	1.735421	1.110398	0.222876
O13	O	1.134389	0.378136	-0.378194
O14	O	1.467723	0.711469	-0.044861
O15	O	1.801056	1.044803	0.288473
O16	O	1.309889	0.329925	-0.426434
O17	O	1.643223	0.663259	-0.093101
O18	O	1.976556	0.996592	0.240232
O19	O	1.182536	0.426399	-0.202722
O20	O	1.515869	0.759732	0.130611
O21	O	1.849202	1.093066	0.463945
O22	O	1.086252	0.202680	-0.330021
O23	O	1.419585	0.536014	0.003313
O24	O	1.752918	0.869347	0.336646
O25	O	1.309821	0.426372	-0.329992
O26	O	1.643154	0.759706	0.003342
O27	O	1.976488	1.093039	0.336675
O28	O	1.182694	0.202660	-0.426451
O29	O	1.516027	0.535993	-0.093118
O30	O	1.849361	0.869327	0.240216
O31	O	1.086162	0.329972	-0.202734
O32	O	1.419495	0.663306	0.130599
O33	O	1.752828	0.996639	0.463932
O34	O	0.958935	0.329927	-0.329976
O35	O	1.292269	0.663260	0.003357
O36	O	1.625602	0.996594	0.336690
O37	O	1.086197	0.426293	-0.553643
O38	O	1.419531	0.759626	-0.220310
O39	O	1.752864	1.092960	0.113023
O40	O	0.958912	0.426320	-0.426373
O41	O	1.292245	0.759653	-0.093040
O42	O	1.625578	1.092986	0.240293
O43	O	1.182663	0.329880	-0.553677
O44	O	1.515996	0.663213	-0.220343
O45	O	1.849330	0.996547	0.112990
O46	O	1.182505	0.553619	-0.329948
O47	O	1.515838	0.886952	0.003386
O48	O	1.849171	1.220286	0.336719
O49	O	1.086107	0.553585	-0.426357
O50	O	1.419440	0.886918	-0.093024
O51	O	1.752774	1.220251	0.240310
C52	C	0.930441	0.378122	-0.378172
C53	C	1.263775	0.711455	-0.044839
C54	C	1.597108	1.044789	0.288494
C55	C	0.843192	0.378135	-0.378182
C56	C	1.176525	0.711468	-0.044848
C57	C	1.509858	1.044801	0.288485
C58	C	1.134314	0.582084	-0.378163
C59	C	1.467647	0.915417	-0.044829
C60	C	1.800980	1.248751	0.288504
C61	C	1.134353	0.669334	-0.378176
C62	C	1.467686	1.002667	-0.044842
C63	C	1.801020	1.336000	0.288491
C64	C	1.134437	0.378078	-0.582938
C65	C	1.467770	0.711412	-0.249605
C66	C	1.801103	1.044745	0.083728
C67	C	1.134457	0.378054	-0.670188
C68	C	1.467790	0.711387	-0.336855
C69	C	1.801124	1.044720	-0.003522
C70	C	0.802210	0.428402	-0.428295
C71	C	1.135543	0.761735	-0.094962
C72	C	1.468876	1.095069	0.238372
C73	C	0.720229	0.428404	-0.428308
C74	C	1.053563	0.761737	-0.094974
C75	C	1.386896	1.095070	0.238359
C76	C	0.679232	0.378141	-0.378202
C77	C	1.012566	0.711475	-0.044869
C78	C	1.345899	1.044808	0.288464
C79	C	0.720220	0.327869	-0.328087
C80	C	1.053553	0.661202	0.005247
C81	C	1.386887	0.994535	0.338580
C82	C	0.802199	0.327863	-0.328079
C83	C	1.135532	0.661197	0.005255
C84	C	1.468865	0.994530	0.338588
C85	C	0.549350	0.327884	-0.328106
C86	C	0.882683	0.661217	0.005228
C87	C	1.216016	0.994551	0.338561
C88	C	0.467365	0.327890	-0.328112
C89	C	0.800699	0.661223	0.005221
C90	C	1.134032	0.994557	0.338554
C91	C	0.467380	0.428424	-0.428335
C92	C	0.800714	0.761758	-0.095001
C93	C	1.134047	1.095091	0.238332
C94	C	0.549359	0.428419	-0.428327
C95	C	0.882693	0.761753	-0.094993
C96	C	1.216026	1.095086	0.238340
C97	C	0.590341	0.378147	-0.378210
C98	C	0.923675	0.711480	-0.044876
C99	C	1.257008	1.044814	0.288457
C100	C	1.339134	0.378151	-0.378216
C101	C	1.672467	0.711484	-0.044883
C102	C	2.005800	1.044818	0.288450
C103	C	1.426383	0.378157	-0.378226
C104	C	1.759717	0.711491	-0.044892
C105	C	2.093050	1.044824	0.288441
C106	C	1.134487	0.173392	-0.378243
C107	C	1.467820	0.506725	-0.044909
C108	C	1.801153	0.840058	0.288424
C109	C	1.134528	0.086142	-0.378263
C110	C	1.467862	0.419475	-0.044930
C111	C	1.801195	0.752809	0.288403
C112	C	1.184598	0.710316	-0.328029
C113	C	1.517932	1.043649	0.005304
C114	C	1.851265	1.376982	0.338638
C115	C	1.184637	0.792296	-0.328049
C116	C	1.517970	1.125629	0.005284
C117	C	1.851303	1.458963	0.338618
C118	C	1.134425	0.833293	-0.378212
C119	C	1.467759	1.166626	-0.044879
C120	C	1.801092	1.499960	0.288454
C121	C	1.084178	0.792305	-0.428364
C122	C	1.417511	1.125639	-0.095031
C123	C	1.750844	1.458972	0.238302
C124	C	1.084144	0.710327	-0.428348
C125	C	1.417477	1.043660	-0.095014
C126	C	1.750810	1.376993	0.238319
C127	C	1.084250	0.963175	-0.428394
C128	C	1.417584	1.296509	-0.095061
C129	C	1.750917	1.629842	0.238273
C130	C	1.084283	1.045160	-0.428410
C131	C	1.417616	1.378493	-0.095076
C132	C	1.750950	1.711827	0.238257
C133	C	1.184743	1.045145	-0.328096
C134	C	1.518077	1.378478	0.005238
C135	C	1.851410	1.711812	0.338571
C136	C	1.184709	0.963166	-0.328079
C137	C	1.518043	1.296499	0.005254
C138	C	1.851376	1.629833	0.338588
C139	C	1.134461	0.922184	-0.378230
C140	C	1.467794	1.255517	-0.044897
C141	C	1.801127	1.588851	0.288437
C142	C	1.184689	0.327847	-0.711197
C143	C	1.518022	0.661181	-0.377864
C144	C	1.851355	0.994514	-0.044530
C145	C	1.184698	0.327821	-0.793178
C146	C	1.518031	0.661154	-0.459844
C147	C	1.851365	0.994488	-0.126511
C148	C	1.134479	0.378006	-0.834148
C149	C	1.467813	0.711339	-0.500814
C150	C	1.801146	1.044673	-0.167481
C151	C	1.084242	0.428214	-0.793133
C152	C	1.417576	0.761548	-0.459800
C153	C	1.750909	1.094881	-0.126467
C154	C	1.084229	0.428236	-0.711154
C155	C	1.417563	0.761569	-0.377821
C156	C	1.750896	1.094903	-0.044488
C157	C	1.084274	0.428167	-0.964003
C158	C	1.417607	0.761501	-0.630670
C159	C	1.750941	1.094834	-0.297337
C160	C	1.084288	0.428147	-1.045988
C161	C	1.417621	0.761480	-0.712655
C162	C	1.750954	1.094814	-0.379321
C163	C	1.184742	0.327752	-1.046027
C164	C	1.518076	0.661086	-0.712693
C165	C	1.851409	0.994419	-0.379360
C166	C	1.184730	0.327774	-0.964048
C167	C	1.518063	0.661107	-0.630714
C168	C	1.851396	0.994441	-0.297381
C169	C	1.134493	0.377984	-0.923039
C170	C	1.467827	0.711317	-0.589705
C171	C	1.801160	1.044650	-0.256372
C172	C	1.134387	0.378137	-0.174246
C173	C	1.467721	0.711470	0.159087
C174	C	1.801054	1.044804	0.492421
C175	C	1.134519	0.377941	-0.086997
C176	C	1.467852	0.711274	0.246337
C177	C	1.801186	1.044607	0.579670
H178	H	0.835584	0.469334	-0.469094
H179	H	1.168917	0.802667	-0.135761
H180	H	1.502250	1.136001	0.197572
Br181	Br	1.252853	0.907527	-0.259998
Br182	Br	1.586186	1.240860	0.073335
Br183	Br	1.919519	1.574194	0.406669
H184	H	1.225627	0.286913	-0.930692
H185	H	1.558960	0.620247	-0.597359
H186	H	1.892293	0.953580	-0.264025
Br187	Br	1.252928	1.100762	-0.260022
Br188	Br	1.586261	1.434095	0.073311
Br189	Br	1.919595	1.767429	0.406644
H190	H	0.434009	0.469355	-0.469144
H191	H	0.767342	0.802689	-0.135810
H192	H	1.100676	1.136022	0.197523
Br193	Br	1.252835	0.847912	-0.259995
Br194	Br	1.586168	1.181245	0.073339
Br195	Br	1.919501	1.514578	0.406672
Br196	Br	0.664582	0.259647	-0.260093
Br197	Br	0.997915	0.592980	0.073240
Br198	Br	1.331249	0.926314	0.406574
Br199	Br	1.015956	0.654707	-0.496411
Br200	Br	1.349289	0.988040	-0.163078
Br201	Br	1.682623	1.321374	0.170255
H202	H	1.043335	0.929811	-0.469235
H203	H	1.376668	1.263144	-0.135902
H204	H	1.710002	1.596477	0.197431
H205	H	0.835565	0.286927	-0.287275
H206	H	1.168899	0.620260	0.046058
H207	H	1.502232	0.953593	0.379391
Br208	Br	1.252739	0.654685	-0.259939
Br209	Br	1.586073	0.988018	0.073394
Br210	Br	1.919406	1.321351	0.406727
Br211	Br	1.016082	0.496319	-0.848735
Br212	Br	1.349416	0.829652	-0.515401
Br213	Br	1.682749	1.162985	-0.182068
H214	H	1.043411	1.078538	-0.469272
H215	H	1.376744	1.411871	-0.135938
H216	H	1.710078	1.745204	0.197395
H217	H	1.043298	0.825692	-0.469211
H218	H	1.376631	1.159025	-0.135878
H219	H	1.709964	1.492358	0.197455
Br220	Br	1.252852	0.259742	-0.655602
Br221	Br	1.586186	0.593075	-0.322269
Br222	Br	1.919519	0.926408	0.011064
H223	H	1.225603	0.286940	-0.826563
H224	H	1.558937	0.620273	-0.493230
H225	H	1.892270	0.953607	-0.159897
H226	H	1.043354	0.469041	-0.930616
H227	H	1.376687	0.802374	-0.597283
H228	H	1.710021	1.135708	-0.263950
Br229	Br	1.252924	0.259613	-1.101680
Br230	Br	1.586257	0.592947	-0.768347
Br231	Br	1.919590	0.926280	-0.435013
Br232	Br	0.604998	0.496641	-0.496320
Br233	Br	0.938332	0.829974	-0.162986
Br234	Br	1.271665	1.163307	0.170347
H235	H	0.582715	0.286940	-0.287302
H236	H	0.916048	0.620273	0.046031
H237	H	1.249381	0.953607	0.379365
H238	H	1.043393	0.469010	-1.079344
H239	H	1.376727	0.802343	-0.746010
H240	H	1.710060	1.135677	-0.412677
Br241	Br	1.016051	0.496371	-0.655498
Br242	Br	1.349384	0.829704	-0.322165
Br243	Br	1.682717	1.163038	0.011169
H244	H	0.686866	0.469337	-0.469114
H245	H	1.020199	0.802671	-0.135781
H246	H	1.353532	1.136004	0.197552
Br247	Br	0.411726	0.259682	-0.260106
Br248	Br	0.745059	0.593015	0.073228
Br249	Br	1.078393	0.926349	0.406561
