data_functionalizedCrystal
_audit_creation_method	'MofGen! by Chris Wilmer'
_symmetry_space_group_name_H-M	'P1'
_symmetry_Int_Tables_number	1
_symmetry_cell_setting	triclinic
loop_
_symmetry_equiv_pos_as_xyz
  x,y,z
_cell_length_a	12.759401
_cell_length_b	21.395362
_cell_length_c	12.759393
_cell_angle_alpha	89.962807
_cell_angle_beta	89.980324
_cell_angle_gamma	90.030217
loop_
_atom_site_label
_atom_site_type_symbol
_atom_site_fract_x
_atom_site_fract_y
_atom_site_fract_z
Zn1	Zn	1.606156	-0.249401	-0.593936
Zn2	Zn	1.606001	-0.354191	-0.418235
Zn3	Zn	1.430455	-0.249432	-0.418275
Zn4	Zn	1.430401	-0.354146	-0.593876
O5	O	1.518253	-0.301793	-0.506081
O6	O	1.753157	-0.263308	-0.570637
O7	O	1.582672	-0.340327	-0.271219
O8	O	1.453850	-0.161750	-0.441618
O9	O	1.753043	-0.340297	-0.441551
O10	O	1.582937	-0.161727	-0.570675
O11	O	1.453699	-0.263361	-0.271248
O12	O	1.283427	-0.263317	-0.441560
O13	O	1.453757	-0.340219	-0.740905
O14	O	1.283387	-0.340249	-0.570574
O15	O	1.582884	-0.263263	-0.740949
O16	O	1.582620	-0.441863	-0.441493
O17	O	1.453607	-0.441830	-0.570536
C18	C	1.245286	-0.301782	-0.506066
C19	C	1.128509	-0.301792	-0.506084
C20	C	1.073707	-0.261777	-0.573403
C21	C	0.963983	-0.261783	-0.573410
C22	C	0.963873	-0.341826	-0.438776
C23	C	1.073595	-0.341816	-0.438765
C24	C	1.518119	-0.464580	-0.506027
C25	C	1.518157	-0.534222	-0.506039
C26	C	1.585335	-0.566866	-0.573287
C27	C	1.585371	-0.632301	-0.573313
C28	C	1.518242	-0.665090	-0.506071
C29	C	1.451052	-0.632438	-0.438819
C30	C	1.451010	-0.567004	-0.438802
C31	C	1.510067	-0.768807	-0.411434
C32	C	1.510117	-0.834239	-0.411448
C33	C	1.518367	-0.866911	-0.506122
C34	C	1.526589	-0.834141	-0.600785
C35	C	1.526547	-0.768706	-0.600768
C36	C	1.518280	-0.736042	-0.506082
C37	C	1.585588	-0.970507	-0.573404
C38	C	1.585617	-1.035944	-0.573431
C39	C	1.451304	-1.036079	-0.438928
C40	C	1.451269	-0.970644	-0.438910
C41	C	1.518416	-0.937862	-0.506146
C42	C	1.792286	-0.301804	-0.506096
C43	C	1.909063	-0.301809	-0.506103
C44	C	1.518332	-0.301732	-0.780114
C45	C	1.518365	-0.301707	-0.896891
C46	C	1.518417	-0.138369	-0.506158
C47	C	1.518486	-0.068728	-0.506191
C48	C	1.585607	-0.261630	-0.951777
C49	C	1.585624	-0.261603	-1.061501
C50	C	1.451157	-0.341735	-1.061443
C51	C	1.451134	-0.341759	-0.951721
C52	C	1.518235	-0.301807	-0.233113
C53	C	1.518405	-0.301656	-0.116337
H54	H	1.640007	-0.540177	-0.628037
C55	C	1.377204	-0.385789	-1.121766
N56	N	1.321502	-0.418970	-1.167201
H57	H	1.396371	-0.374394	-0.907031
H58	H	1.396305	-0.540424	-0.384040
H59	H	1.640066	-0.658885	-0.628086
C60	C	0.903706	-0.217764	-0.647469
N61	N	0.858306	-0.184607	-0.703254
H62	H	1.118415	-0.229185	-0.628216
C63	C	1.535582	-0.732662	-0.704895
N64	N	1.542383	-0.705513	-0.783326
H65	H	1.640321	-1.062522	-0.628197
H66	H	1.640348	-0.229015	-0.907138
H67	H	1.396639	-1.062775	-0.384185
H68	H	0.919148	-0.374413	-0.383968
H69	H	1.118216	-0.374402	-0.383940
C70	C	1.535661	-0.870074	-0.704935
N71	N	1.542495	-0.897141	-0.783379
H72	H	1.640260	-0.943815	-0.628155
C73	C	1.659598	-0.217516	-1.121871
N74	N	1.715318	-0.184308	-1.167341
H75	H	1.503429	-0.860916	-0.334368
C76	C	1.377361	-0.934734	-0.364937
N77	N	1.321684	-0.907687	-0.309223
H78	H	1.503345	-0.742211	-0.334333
C79	C	1.377251	-0.668506	-0.364812
N80	N	1.321674	-0.695673	-0.309056
