data_functionalizedCrystal
_audit_creation_method	'MofGen! by Chris Wilmer'
_symmetry_space_group_name_H-M	'P1'
_symmetry_Int_Tables_number	1
_symmetry_cell_setting	triclinic
loop_
_symmetry_equiv_pos_as_xyz
  x,y,z
_cell_length_a	21.395362
_cell_length_b	12.759400
_cell_length_c	12.759393
_cell_angle_alpha	89.975651
_cell_angle_beta	89.954247
_cell_angle_gamma	90.021373
loop_
_atom_site_label
_atom_site_type_symbol
_atom_site_fract_x
_atom_site_fract_y
_atom_site_fract_z
Zn1	Zn	-0.957966	0.417710	0.594770
Zn2	Zn	-0.624632	0.751043	0.928103
Zn3	Zn	-0.291299	1.084376	1.261436
Zn4	Zn	-0.957923	0.593423	0.419107
Zn5	Zn	-0.624589	0.926757	0.752440
Zn6	Zn	-0.291256	1.260090	1.085773
Zn7	Zn	-0.853185	0.417815	0.419027
Zn8	Zn	-0.519851	0.751148	0.752361
Zn9	Zn	-0.186518	1.084482	1.085694
Zn10	Zn	-0.853200	0.593403	0.594666
Zn11	Zn	-0.519867	0.926736	0.928000
Zn12	Zn	-0.186533	1.260070	1.261333
O13	O	-0.905568	0.505588	0.506893
O14	O	-0.572235	0.838921	0.840226
O15	O	-0.238902	1.172254	1.173559
O16	O	-1.045638	0.440983	0.571544
O17	O	-0.712304	0.774316	0.904877
O18	O	-0.378971	1.107649	1.238211
O19	O	-0.944005	0.570181	0.272075
O20	O	-0.610671	0.903514	0.605408
O21	O	-0.277338	1.236848	0.938742
O22	O	-0.867096	0.270780	0.442350
O23	O	-0.533762	0.604113	0.775683
O24	O	-0.200429	0.937447	1.109017
O25	O	-1.045606	0.570079	0.442485
O26	O	-0.712273	0.903412	0.775819
O27	O	-0.378940	1.236745	1.109152
O28	O	-0.944078	0.270703	0.571467
O29	O	-0.610744	0.604036	0.904800
O30	O	-0.277411	0.937369	1.238134
O31	O	-0.867054	0.441162	0.272017
O32	O	-0.533721	0.774496	0.605350
O33	O	-0.200387	1.107829	0.938683
O34	O	-0.765509	0.441143	0.442250
O35	O	-0.432175	0.774476	0.775583
O36	O	-0.098842	1.107809	1.108916
O37	O	-0.867122	0.570044	0.741701
O38	O	-0.533789	0.903378	1.075035
O39	O	-0.200455	1.236711	1.408368
O40	O	-0.765520	0.570147	0.571291
O41	O	-0.432187	0.903480	0.904624
O42	O	-0.098853	1.236813	1.237958
O43	O	-0.944093	0.440963	0.741777
O44	O	-0.610759	0.774297	1.075110
O45	O	-0.277426	1.107630	1.408444
O46	O	-0.944020	0.740442	0.442385
O47	O	-0.610686	1.073775	0.775718
O48	O	-0.277353	1.407108	1.109052
O49	O	-0.867080	0.740427	0.571368
O50	O	-0.533747	1.073760	0.904701
O51	O	-0.200414	1.407093	1.238035
C52	C	-0.742781	0.505655	0.506751
C53	C	-0.409447	0.838988	0.840084
C54	C	-0.076114	1.172321	1.173418
C55	C	-0.673139	0.505709	0.506716
C56	C	-0.339806	0.839042	0.840049
C57	C	-0.006473	1.172375	1.173382
C58	C	-0.640449	0.572972	0.573803
C59	C	-0.307115	0.906306	0.907136
C60	C	0.026218	1.239639	1.240470
C61	C	-0.575013	0.572951	0.573842
C62	C	-0.241680	0.906284	0.907175
C63	C	0.091654	1.239618	1.240508
C64	C	-0.542271	0.505677	0.506775
C65	C	-0.208938	0.839011	0.840108
C66	C	0.124396	1.172344	1.173441
C67	C	-0.574970	0.438401	0.439683
C68	C	-0.241636	0.771734	0.773016
C69	C	0.091697	1.105067	1.106349
C70	C	-0.640404	0.438416	0.439653
C71	C	-0.307070	0.771750	0.772987
C72	C	0.026263	1.105083	1.106320
C73	C	-0.438546	0.497247	0.412179
C74	C	-0.105213	0.830581	0.745512
C75	C	0.228121	1.163914	1.078845
C76	C	-0.373113	0.497239	0.412206
C77	C	-0.039780	0.830572	0.745540
C78	C	0.293554	1.163906	1.078873
C79	C	-0.340450	0.505623	0.506866
C80	C	-0.007117	0.838956	0.840200
C81	C	0.326216	1.172289	1.173533
C82	C	-0.373228	0.514037	0.601502
C83	C	-0.039895	0.847370	0.934835
C84	C	0.293438	1.180704	1.268168
C85	C	-0.438663	0.514053	0.601472
C86	C	-0.105329	0.847386	0.934805
C87	C	0.228004	1.180719	1.268139
C88	C	-0.471319	0.505652	0.506800
C89	C	-0.137985	0.838986	0.840133
C90	C	0.195348	1.172319	1.173466
C91	C	-0.236807	0.572867	0.574002
C92	C	0.096526	0.906200	0.907335
C93	C	0.429860	1.239534	1.240668
C94	C	-0.171370	0.572838	0.574042
C95	C	0.161963	0.906172	0.907376
C96	C	0.495296	1.239505	1.240709
C97	C	-0.171328	0.438293	0.439874
C98	C	0.162005	0.771627	0.773207
C99	C	0.495338	1.104960	1.106541
C100	C	-0.236764	0.438317	0.439843
C101	C	0.096570	0.771650	0.773176
C102	C	0.429903	1.104983	1.106509
C103	C	-0.269499	0.505609	0.506905
C104	C	0.063834	0.838942	0.840238
C105	C	0.397168	1.172276	1.173572
C106	C	-0.905590	0.231554	0.506911
C107	C	-0.572256	0.564888	0.840245
C108	C	-0.238923	0.898221	1.173578
C109	C	-0.905599	0.114778	0.506919
C110	C	-0.572265	0.448111	0.840252
C111	C	-0.238932	0.781444	1.173586
C112	C	-0.865545	0.059910	0.574074
C113	C	-0.532211	0.393244	0.907407
C114	C	-0.198878	0.726577	1.240741
C115	C	-0.865556	-0.049814	0.574084
C116	C	-0.532223	0.283520	0.907418
C117	C	-0.198890	0.616853	1.240751
C118	C	-0.945678	-0.049793	0.439776
C119	C	-0.612345	0.283540	0.773110
C120	C	-0.279011	0.616873	1.106443
C121	C	-0.945669	0.059929	0.439772
C122	C	-0.612336	0.393262	0.773105
C123	C	-0.279002	0.726595	1.106439
C124	C	-0.068992	0.505539	0.507005
C125	C	0.264342	0.838872	0.840338
C126	C	0.597675	1.172205	1.173672
C127	C	-0.138633	0.505563	0.506976
C128	C	0.194701	0.838896	0.840309
C129	C	0.528034	1.172229	1.173643
C130	C	-0.905564	0.778555	0.506897
C131	C	-0.572231	1.111888	0.840230
C132	C	-0.238897	1.445222	1.173564
C133	C	-0.905619	0.895332	0.506934
C134	C	-0.572286	1.228665	0.840267
C135	C	-0.238953	1.561998	1.173601
C136	C	-0.905614	0.505490	0.780926
C137	C	-0.572280	0.838823	1.114259
C138	C	-0.238947	1.172157	1.447593
C139	C	-0.905633	0.505448	0.897703
C140	C	-0.572300	0.838781	1.231036
C141	C	-0.238966	1.172115	1.564369
C142	C	-0.905559	0.505609	0.233925
C143	C	-0.572226	0.838943	0.567258
C144	C	-0.238892	1.172276	0.900592
C145	C	-0.905661	0.505355	0.117149
C146	C	-0.572328	0.838688	0.450482
C147	C	-0.238994	1.172022	0.783816
C148	C	-0.945718	0.572550	1.062331
C149	C	-0.612384	0.905884	1.395664
C150	C	-0.279051	1.239217	1.728997
C151	C	-0.945703	0.572600	0.952607
C152	C	-0.612369	0.905933	1.285940
C153	C	-0.279036	1.239266	1.619273
C154	C	-0.865572	0.438250	0.952529
C155	C	-0.532238	0.771583	1.285862
C156	C	-0.198905	1.104917	1.619196
C157	C	-0.865584	0.438206	1.062251
C158	C	-0.532251	0.771540	1.395584
C159	C	-0.198918	1.104873	1.728918
H160	H	-0.465348	0.520901	0.678527
H161	H	-0.132015	0.854234	1.011861
H162	H	0.201319	1.187568	1.345194
H163	H	-0.832942	-0.094484	0.628769
H164	H	-0.499608	0.238850	0.962102
H165	H	-0.166275	0.572183	1.295436
H166	H	-0.832921	0.104565	0.628757
H167	H	-0.499588	0.437899	0.962090
H168	H	-0.166255	0.771232	1.295423
Cl169	Cl	-0.996098	0.656968	1.131342
Cl170	Cl	-0.662764	0.990302	1.464675
Cl171	Cl	-0.329431	1.323635	1.798008
H172	H	-0.144670	0.383513	0.385272
H173	H	0.188663	0.716846	0.718605
H174	H	0.521996	1.050180	1.051938
H175	H	-0.978301	-0.094462	0.385105
H176	H	-0.644968	0.238871	0.718438
H177	H	-0.311635	0.572204	1.051771
Cl178	Cl	-0.332174	0.524571	0.720512
Cl179	Cl	0.001159	0.857905	1.053845
Cl180	Cl	0.334492	1.191238	1.387179
Cl181	Cl	-0.815213	0.353741	1.131171
Cl182	Cl	-0.481880	0.687075	1.464504
Cl183	Cl	-0.148547	1.020408	1.797838
H184	H	-0.978289	0.104603	0.385086
H185	H	-0.644956	0.437936	0.718419
H186	H	-0.311623	0.771270	1.051752
H187	H	-0.978321	0.627317	0.907978
H188	H	-0.644988	0.960650	1.241312
H189	H	-0.311654	1.293983	1.574645
H190	H	-0.832944	0.383579	0.907817
H191	H	-0.499610	0.716912	1.241151
H192	H	-0.166277	1.050245	1.574484
Cl193	Cl	-0.331913	0.486660	0.293239
Cl194	Cl	0.001420	0.819993	0.626572
Cl195	Cl	0.334754	1.153327	0.959905
H196	H	-0.548391	0.627725	0.628476
H197	H	-0.215058	0.961058	0.961810
H198	H	0.118276	1.294391	1.295143
H199	H	-0.667098	0.627766	0.628412
H200	H	-0.333764	0.961099	0.961745
H201	H	-0.000431	1.294432	1.295079
H202	H	-0.263462	0.627655	0.628613
H203	H	0.069872	0.960988	0.961947
H204	H	0.403205	1.294322	1.295280
H205	H	-0.263381	0.383548	0.385208
H206	H	0.069953	0.716882	0.718541
H207	H	0.403286	1.050215	1.051874
Cl208	Cl	-0.130273	0.657401	0.658395
Cl209	Cl	0.203061	0.990734	0.991728
Cl210	Cl	0.536394	1.324067	1.325062
Cl211	Cl	-0.479601	0.486711	0.293165
Cl212	Cl	-0.146268	0.820044	0.626498
Cl213	Cl	0.187066	1.153377	0.959832
Cl214	Cl	-0.681503	0.353849	0.355307
Cl215	Cl	-0.348170	0.687183	0.688641
Cl216	Cl	-0.014836	1.020516	1.021974
Cl217	Cl	-0.533809	0.353822	0.355375
Cl218	Cl	-0.200476	0.687156	0.688708
Cl219	Cl	0.132858	1.020489	1.022042
