data_functionalizedCrystal
_audit_creation_method	'MofGen! by Chris Wilmer'
_symmetry_space_group_name_H-M	'P1'
_symmetry_Int_Tables_number	1
_symmetry_cell_setting	triclinic
loop_
_symmetry_equiv_pos_as_xyz
  x,y,z
_cell_length_a	12.759401
_cell_length_b	17.077402
_cell_length_c	12.759393
_cell_angle_alpha	90.034688
_cell_angle_beta	90.020938
_cell_angle_gamma	90.024408
loop_
_atom_site_label
_atom_site_type_symbol
_atom_site_fract_x
_atom_site_fract_y
_atom_site_fract_z
Zn1	Zn	1.606207	-0.312438	0.593990
Zn2	Zn	2.106207	0.187562	1.093990
Zn3	Zn	1.606073	-0.443724	0.418297
Zn4	Zn	2.106073	0.056276	0.918297
Zn5	Zn	1.430505	-0.312480	0.418325
Zn6	Zn	1.930505	0.187520	0.918325
Zn7	Zn	1.430472	-0.443669	0.593934
Zn8	Zn	1.930472	0.056331	1.093934
O9	O	1.518314	-0.378078	0.506136
O10	O	2.018314	0.121922	1.006136
O11	O	1.753210	-0.329859	0.570695
O12	O	2.253210	0.170141	1.070695
O13	O	1.582741	-0.426355	0.271279
O14	O	2.082741	0.073645	0.771279
O15	O	1.453882	-0.202628	0.441662
O16	O	1.953882	0.297372	0.941662
O17	O	1.753111	-0.426314	0.441614
O18	O	2.253111	0.073686	0.941614
O19	O	1.582969	-0.202597	0.570722
O20	O	2.082969	0.297403	1.070722
O21	O	1.453753	-0.329930	0.271300
O22	O	1.953753	0.170070	0.771300
O23	O	1.283480	-0.329877	0.441608
O24	O	1.783480	0.170123	0.941608
O25	O	1.453826	-0.426221	0.740962
O26	O	1.953826	0.073779	1.240962
O27	O	1.283456	-0.426261	0.570627
O28	O	1.783456	0.073739	1.070627
O29	O	1.582937	-0.329806	0.741003
O30	O	2.082937	0.170194	1.241003
O31	O	1.582709	-0.553564	0.441560
O32	O	2.082709	-0.053564	0.941560
O33	O	1.453696	-0.553524	0.570600
O34	O	1.953696	-0.053524	1.070600
C35	C	1.245347	-0.378068	0.506115
C36	C	1.745347	0.121932	1.006115
C37	C	1.128570	-0.378083	0.506131
C38	C	1.628570	0.121917	1.006131
C39	C	1.073723	-0.428347	0.573206
C40	C	1.573723	0.071653	1.073206
C41	C	0.963999	-0.428350	0.573227
C42	C	1.463999	0.071650	1.073227
C43	C	0.963979	-0.327823	0.439089
C44	C	1.463979	0.172177	0.939089
C45	C	1.073701	-0.327817	0.439075
C46	C	1.573701	0.172183	0.939075
C47	C	1.518213	-0.582026	0.506094
C48	C	2.018213	-0.082026	1.006094
C49	C	1.518266	-0.669276	0.506111
C50	C	2.018266	-0.169276	1.006111
C51	C	1.585511	-0.710261	0.438993
C52	C	2.085511	-0.210261	0.938993
C53	C	1.585563	-0.792241	0.439019
C54	C	2.085563	-0.292241	0.939019
C55	C	1.518362	-0.833235	0.506161
C56	C	2.018362	-0.333235	1.006161
C57	C	1.451114	-0.792244	0.573287
C58	C	1.951114	-0.292244	1.073287
C59	C	1.451068	-0.710265	0.573265
C60	C	1.951068	-0.210265	1.073265
C61	C	1.451211	-0.963114	0.573327
C62	C	1.951211	-0.463114	1.073327
C63	C	1.451255	-1.045099	0.573348
C64	C	1.951255	-0.545099	1.073348
C65	C	1.585705	-1.045090	0.439082
C66	C	2.085705	-0.545090	0.939082
C67	C	1.585660	-0.963111	0.439059
C68	C	2.085660	-0.463111	0.939059
C69	C	1.518410	-0.922126	0.506184
C70	C	2.018410	-0.422126	1.006184
C71	C	1.792347	-0.378088	0.506158
C72	C	2.292347	0.121912	1.006158
C73	C	1.909124	-0.378093	0.506167
C74	C	2.409124	0.121907	1.006167
C75	C	1.518393	-0.378003	0.780170
C76	C	2.018393	0.121997	1.280170
C77	C	1.518426	-0.377971	0.896946
C78	C	2.018426	0.122029	1.396946
C79	C	1.518445	-0.173334	0.506201
C80	C	2.018445	0.326666	1.006201
C81	C	1.518500	-0.086084	0.506229
C82	C	2.018500	0.413916	1.006229
C83	C	1.518296	-0.378096	0.233169
C84	C	2.018296	0.121904	0.733169
C85	C	1.518466	-0.377907	0.116393
C86	C	2.018466	0.122093	0.616393
C87	C	1.585660	-0.327759	0.951831
C88	C	2.085660	0.172241	1.451831
C89	C	1.585677	-0.327725	1.061555
C90	C	2.085677	0.172275	1.561555
C91	C	1.451226	-0.428121	1.061500
C92	C	1.951226	0.071879	1.561500
C93	C	1.451203	-0.428150	0.951778
C94	C	1.951203	0.071850	1.451778
H95	H	1.640229	-0.676889	0.384314
H96	H	2.140229	-0.176889	0.884314
C97	C	0.903613	-0.272538	0.365325
C98	C	1.403613	0.227462	0.865325
N99	N	0.858146	-0.230897	0.309762
N100	N	1.358146	0.269103	0.809762
C101	C	1.659532	-0.837321	0.365176
C102	C	2.159532	-0.337321	0.865176
N103	N	1.715247	-0.871275	0.309553
N104	N	2.215247	-0.371275	0.809553
C105	C	1.659690	-1.090175	0.365252
C106	C	2.159690	-0.590175	0.865252
N107	N	1.715413	-1.124137	0.309645
N108	N	2.215413	-0.624137	0.809645
C109	C	1.377342	-1.090191	0.647218
C110	C	1.877342	-0.590191	1.147218
N111	N	1.321673	-1.124154	0.702861
N112	N	1.821673	-0.624154	1.202861
C113	C	0.903672	-0.483651	0.647005
C114	C	1.403672	0.016349	1.147005
N115	N	0.858235	-0.525309	0.702575
N116	N	1.358235	-0.025309	1.202575
H117	H	1.640394	-0.286897	0.907191
H118	H	2.140394	0.213103	1.407191
H119	H	1.396452	-0.929747	0.627991
H120	H	1.896452	-0.429747	1.127991
C121	C	1.659642	-0.272491	1.121924
C122	C	2.159642	0.227509	1.621924
N123	N	1.715355	-0.230885	1.167393
N124	N	2.215355	0.269115	1.667393
H125	H	1.118394	-0.469275	0.627811
H126	H	1.618394	0.030725	1.127811
H127	H	1.396447	-0.469038	0.907090
H128	H	1.896447	0.030962	1.407090
H129	H	1.118359	-0.286881	0.384454
H130	H	1.618359	0.213119	0.884454
H131	H	1.396402	-0.825628	0.627959
H132	H	1.896402	-0.325628	1.127959
C133	C	1.377093	-0.665182	0.647101
C134	C	1.877093	-0.165182	1.147101
N135	N	1.321376	-0.631227	0.702720
N136	N	1.821376	-0.131227	1.202720
H137	H	1.640374	-0.929734	0.384383
H138	H	2.140374	-0.429734	0.884383
H139	H	1.396497	-0.468977	1.106157
H140	H	1.896497	0.031023	1.606157
