data_functionalizedCrystal
_audit_creation_method	'MofGen! by Chris Wilmer'
_symmetry_space_group_name_H-M	'P1'
_symmetry_Int_Tables_number	1
_symmetry_cell_setting	triclinic
loop_
_symmetry_equiv_pos_as_xyz
  x,y,z
_cell_length_a	12.759401
_cell_length_b	17.077402
_cell_length_c	12.759393
_cell_angle_alpha	89.965312
_cell_angle_beta	89.980324
_cell_angle_gamma	90.023310
loop_
_atom_site_label
_atom_site_type_symbol
_atom_site_fract_x
_atom_site_fract_y
_atom_site_fract_z
Zn1	Zn	1.606207	-0.312461	-0.593954
Zn2	Zn	1.606073	-0.443747	-0.418261
Zn3	Zn	1.430505	-0.312500	-0.418293
Zn4	Zn	1.430472	-0.443690	-0.593902
O5	O	1.518314	-0.378100	-0.506103
O6	O	1.753210	-0.329884	-0.570656
O7	O	1.582741	-0.426378	-0.271244
O8	O	1.453882	-0.202648	-0.441630
O9	O	1.753111	-0.426340	-0.441576
O10	O	1.582969	-0.202620	-0.570687
O11	O	1.453753	-0.329951	-0.271268
O12	O	1.283480	-0.329895	-0.441580
O13	O	1.453826	-0.426242	-0.740930
O14	O	1.283456	-0.426280	-0.570599
O15	O	1.582937	-0.329829	-0.740968
O16	O	1.582709	-0.553587	-0.441526
O17	O	1.453696	-0.553545	-0.570568
C18	C	1.245347	-0.378086	-0.506088
C19	C	1.128570	-0.378099	-0.506106
C20	C	1.073760	-0.327966	-0.573422
C21	C	0.964036	-0.327974	-0.573429
C22	C	0.963942	-0.428256	-0.438802
C23	C	1.073664	-0.428243	-0.438790
C24	C	1.518213	-0.582048	-0.506061
C25	C	1.518265	-0.669297	-0.506078
C26	C	1.585511	-0.710283	-0.438958
C27	C	1.585563	-0.792264	-0.438984
C28	C	1.518362	-0.833257	-0.506127
C29	C	1.451114	-0.792265	-0.573255
C30	C	1.451068	-0.710286	-0.573233
C31	C	1.451211	-0.963135	-0.573295
C32	C	1.451255	-1.045120	-0.573316
C33	C	1.585705	-1.045113	-0.439047
C34	C	1.585660	-0.963134	-0.439024
C35	C	1.518410	-0.922148	-0.506151
C36	C	1.792347	-0.378114	-0.506118
C37	C	1.909124	-0.378120	-0.506125
C38	C	1.518393	-0.378024	-0.780136
C39	C	1.518426	-0.377992	-0.896913
C40	C	1.518445	-0.173355	-0.506168
C41	C	1.518500	-0.086106	-0.506196
C42	C	1.585660	-0.327782	-0.951796
C43	C	1.585677	-0.327748	-1.061521
C44	C	1.451226	-0.428142	-1.061468
C45	C	1.451203	-0.428171	-0.951746
C46	C	1.518296	-0.378118	-0.233135
C47	C	1.518466	-0.377929	-0.116359
H48	H	0.919224	-0.469082	-0.383996
C49	C	1.377296	-0.483341	-1.121788
H50	H	1.386945	-0.476139	-1.194995
H51	H	1.306708	-0.471856	-1.103803
H52	H	1.392643	-0.536090	-1.103788
C53	C	1.377250	-0.483410	-0.891370
H54	H	1.337230	-0.513300	-0.939739
H55	H	1.331485	-0.453394	-0.848568
H56	H	1.417421	-0.517627	-0.848565
H57	H	1.640320	-0.825631	-0.384327
C58	C	0.903749	-0.272831	-0.647482
H59	H	0.952167	-0.242972	-0.687574
H60	H	0.860941	-0.238594	-0.607385
H61	H	0.860958	-0.302912	-0.693192
C62	C	1.133964	-0.483392	-0.364741
H63	H	1.207174	-0.476195	-0.374369
H64	H	1.115975	-0.536150	-0.379987
H65	H	1.115955	-0.471836	-0.294177
C66	C	1.134154	-0.272804	-0.647458
H67	H	1.085792	-0.242943	-0.687543
H68	H	1.176968	-0.302865	-0.693160
H69	H	1.176948	-0.238558	-0.607339
C70	C	1.659434	-0.665198	-0.365101
H71	H	1.699497	-0.701353	-0.325138
H72	H	1.619256	-0.633269	-0.319279
H73	H	1.705176	-0.633168	-0.405330
H74	H	1.640374	-0.929758	-0.384347
H75	H	1.396554	-1.078494	-0.628009
C76	C	1.659667	-1.090194	-0.365196
H77	H	1.650075	-1.144888	-0.374827
H78	H	1.644302	-1.076806	-0.294595
H79	H	1.730251	-1.076710	-0.380617
C80	C	1.377241	-0.918052	-0.647137
H81	H	1.337219	-0.954205	-0.687122
H82	H	1.417391	-0.886020	-0.692938
H83	H	1.331463	-0.886124	-0.606894
C84	C	1.659588	-0.272578	-0.891483
H85	H	1.699623	-0.242664	-0.939889
H86	H	1.705340	-0.302614	-0.848673
H87	H	1.619400	-0.238383	-0.848691
C88	C	1.377100	-0.665201	-0.647067
H89	H	1.337079	-0.701355	-0.687053
H90	H	1.417252	-0.633171	-0.692867
H91	H	1.331321	-0.633273	-0.606827
H92	H	1.640424	-0.286860	-1.106202
H93	H	1.396402	-0.825648	-0.627928
