data_functionalizedCrystal
_audit_creation_method	'MofGen! by Chris Wilmer'
_symmetry_space_group_name_H-M	'P1'
_symmetry_Int_Tables_number	1
_symmetry_cell_setting	triclinic
loop_
_symmetry_equiv_pos_as_xyz
  x,y,z
_cell_length_a	21.395361
_cell_length_b	12.759401
_cell_length_c	12.759393
_cell_angle_alpha	90.020566
_cell_angle_beta	89.961845
_cell_angle_gamma	89.971083
loop_
_atom_site_label
_atom_site_type_symbol
_atom_site_fract_x
_atom_site_fract_y
_atom_site_fract_z
Zn1	Zn	-0.249438	-1.606149	-0.593954
Zn2	Zn	-0.354228	-1.605991	-0.418250
Zn3	Zn	-0.249465	-1.430448	-0.418290
Zn4	Zn	-0.354179	-1.430391	-0.593889
O5	O	-0.301828	-1.518245	-0.506096
O6	O	-0.263348	-1.753150	-0.570657
O7	O	-0.340364	-1.582663	-0.271234
O8	O	-0.161784	-1.453845	-0.441636
O9	O	-0.340337	-1.753033	-0.441568
O10	O	-0.161764	-1.582932	-0.570695
O11	O	-0.263395	-1.453692	-0.271264
O12	O	-0.263346	-1.283420	-0.441573
O13	O	-0.340252	-1.453748	-0.740918
O14	O	-0.340279	-1.283378	-0.570585
O15	O	-0.263300	-1.582877	-0.740966
O16	O	-0.441900	-1.582608	-0.441505
O17	O	-0.441863	-1.453595	-0.570546
C18	C	-0.301811	-1.245278	-0.506077
C19	C	-0.301818	-1.128501	-0.506093
C20	C	-0.261801	-1.073700	-0.573413
C21	C	-0.261805	-0.963976	-0.573418
C22	C	-0.341848	-0.963863	-0.438782
C23	C	-0.341841	-1.073586	-0.438772
C24	C	-0.464615	-1.518106	-0.506037
C25	C	-0.534257	-1.518143	-0.506047
C26	C	-0.566968	-1.585380	-0.438925
C27	C	-0.632403	-1.585428	-0.438948
C28	C	-0.665125	-1.518222	-0.506083
C29	C	-0.632406	-1.450981	-0.573219
C30	C	-0.566971	-1.450941	-0.573201
C31	C	-0.768837	-1.423624	-0.514320
C32	C	-0.834270	-1.423662	-0.514331
C33	C	-0.866946	-1.518344	-0.506145
C34	C	-0.834180	-1.612992	-0.497927
C35	C	-0.768746	-1.612953	-0.497909
C36	C	-0.736077	-1.518258	-0.506111
C37	C	-0.970609	-1.585640	-0.439044
C38	C	-1.036046	-1.585690	-0.439075
C39	C	-1.036047	-1.451233	-0.573341
C40	C	-0.970612	-1.451192	-0.573315
C41	C	-0.937897	-1.518394	-0.506161
C42	C	-0.138404	-1.518413	-0.506177
C43	C	-0.068763	-1.518484	-0.506212
C44	C	-0.301768	-1.518324	-0.780129
C45	C	-0.301742	-1.518357	-0.896906
C46	C	-0.301839	-0.792278	-0.506112
C47	C	-0.301830	-0.909055	-0.506108
C48	C	-0.261666	-1.585600	-0.951794
C49	C	-0.261639	-1.585617	-1.061519
C50	C	-0.341769	-1.451147	-1.061456
C51	C	-0.341792	-1.451125	-0.951734
C52	C	-0.301842	-1.518227	-0.233128
C53	C	-0.301692	-1.518397	-0.116352
H54	H	-0.374434	-0.919138	-0.383972
H55	H	-0.659052	-1.396263	-0.627883
H56	H	-0.229210	-1.118409	-0.628227
F57	F	-0.935796	-1.379624	-0.644753
H58	H	-0.229053	-1.640341	-0.907157
F59	F	-0.384430	-1.131912	-0.367109
F60	F	-1.070860	-1.657264	-0.367637
F61	F	-0.218990	-1.657193	-1.119930
H62	H	-0.374426	-1.396361	-0.907042
F63	F	-0.219213	-0.905658	-0.645067
H64	H	-0.540333	-1.640102	-0.384247
H65	H	-0.374378	-1.396412	-1.106110
F66	F	-0.869135	-1.322930	-0.523074
F67	F	-0.667224	-1.656993	-0.367503
H68	H	-0.742070	-1.690017	-0.491220
F69	F	-1.070867	-1.379713	-0.644798
F70	F	-0.935790	-1.657160	-0.367574
F71	F	-0.868951	-1.713768	-0.489205
H72	H	-0.742239	-1.346516	-0.520990
H73	H	-0.540337	-1.396188	-0.627862
