data_functionalizedCrystal
_audit_creation_method	'MofGen! by Chris Wilmer'
_symmetry_space_group_name_H-M	'P1'
_symmetry_Int_Tables_number	1
_symmetry_cell_setting	triclinic
loop_
_symmetry_equiv_pos_as_xyz
  x,y,z
_cell_length_a	21.395362
_cell_length_b	12.759400
_cell_length_c	21.395356
_cell_angle_alpha	89.976983
_cell_angle_beta	89.957023
_cell_angle_gamma	90.030564
loop_
_atom_site_label
_atom_site_type_symbol
_atom_site_fract_x
_atom_site_fract_y
_atom_site_fract_z
Zn1	Zn	0.957923	-0.417848	-0.354606
Zn2	Zn	0.957857	-0.593540	-0.249837
Zn3	Zn	0.853140	-0.417925	-0.249807
Zn4	Zn	0.853137	-0.593534	-0.354542
O5	O	0.905514	-0.505711	-0.302198
O6	O	1.045592	-0.441124	-0.340747
O7	O	0.943939	-0.570279	-0.162155
O8	O	0.867069	-0.270893	-0.263723
O9	O	1.045544	-0.570205	-0.263774
O10	O	0.944053	-0.270837	-0.340719
O11	O	0.867004	-0.441255	-0.162133
O12	O	0.765462	-0.441249	-0.263661
O13	O	0.867063	-0.570194	-0.442228
O14	O	0.765459	-0.570268	-0.340609
O15	O	0.944050	-0.441118	-0.442275
O16	O	0.943936	-0.740560	-0.263712
O17	O	0.866999	-0.740556	-0.340638
C18	C	0.742727	-0.505767	-0.302125
C19	C	0.673085	-0.505816	-0.302109
C20	C	0.640387	-0.573086	-0.342116
C21	C	0.574952	-0.573060	-0.342144
C22	C	0.542217	-0.505776	-0.302154
C23	C	0.574923	-0.438493	-0.262144
C24	C	0.640357	-0.438513	-0.262122
C25	C	0.438492	-0.497327	-0.245748
C26	C	0.373059	-0.497314	-0.245769
C27	C	0.340396	-0.505707	-0.302223
C28	C	0.373175	-0.514135	-0.358657
C29	C	0.438609	-0.514155	-0.358635
C30	C	0.471265	-0.505746	-0.302174
C31	C	0.236746	-0.572952	-0.342263
C32	C	0.171309	-0.572919	-0.342292
C33	C	0.171281	-0.438358	-0.262287
C34	C	0.236717	-0.438386	-0.262264
C35	C	0.269445	-0.505688	-0.302251
C36	C	0.905477	-0.778679	-0.302185
C37	C	0.905518	-0.895455	-0.302200
C38	C	0.945624	-0.950285	-0.262189
C39	C	0.945663	-1.060009	-0.262209
C40	C	0.865484	-1.060064	-0.342252
C41	C	0.865449	-0.950342	-0.342235
C42	C	0.991913	-0.950254	-0.215975
C43	C	0.991951	-1.059978	-0.215994
C44	C	1.068938	-0.505656	-0.302271
C45	C	1.138579	-0.505633	-0.302303
C46	C	0.905563	-0.505646	-0.465621
C47	C	0.905584	-0.505619	-0.535263
C48	C	0.905569	-0.231678	-0.302225
C49	C	0.905592	-0.114902	-0.302236
C50	C	0.865535	-0.438428	-0.567955
C51	C	0.865533	-0.438409	-0.633390
C52	C	0.905591	-0.505569	-0.666131
C53	C	0.945644	-0.572772	-0.633431
C54	C	0.945640	-0.572797	-0.567997
C55	C	0.962045	-0.513802	-0.769837
C56	C	0.962049	-0.513770	-0.835270
C57	C	0.905602	-0.505498	-0.867952
C58	C	0.849148	-0.497236	-0.835193
C59	C	0.849144	-0.497261	-0.769759
C60	C	0.905599	-0.505549	-0.737083
C61	C	0.865547	-0.438283	-0.971596
C62	C	0.865543	-0.438270	-1.037033
C63	C	0.945660	-0.572628	-1.037073
C64	C	0.945657	-0.572646	-0.971638
C65	C	0.905602	-0.505467	-0.938903
C66	C	0.905501	-0.505701	-0.139410
C67	C	0.905602	-0.505432	-0.069770
H68	H	0.548324	-0.627838	-0.374725
Cl69	Cl	0.815038	-0.881417	-0.392547
H70	H	0.666979	-0.383731	-0.229543
H71	H	0.832862	-1.104766	-0.374847
Cl72	Cl	1.033014	-0.524210	-0.728758
Cl73	Cl	0.533771	-0.353902	-0.211874
H74	H	1.008017	-0.520492	-0.861937
H75	H	0.978277	-0.627309	-1.063730
Cl76	Cl	1.066806	-0.904118	-0.236124
Cl77	Cl	0.996012	-0.657112	-0.930537
H78	H	0.346376	-0.490458	-0.199817
H79	H	0.832931	-0.383583	-0.944943
H80	H	0.978259	-0.627454	-0.660093
H81	H	0.974542	-0.916303	-0.169854
Cl82	Cl	1.063122	-1.112369	-0.242929
H83	H	0.978986	-1.089834	-0.167457
H84	H	0.832916	-0.383730	-0.541306
Cl85	Cl	0.130135	-0.353765	-0.212017
H86	H	0.465080	-0.490488	-0.199774
H87	H	0.832921	-0.383689	-0.660013
Cl88	Cl	0.778177	-0.486882	-0.728578
H89	H	0.144688	-0.627696	-0.374875
H90	H	0.803183	-0.490492	-0.861801
Cl91	Cl	0.995993	-0.657270	-0.526897
H92	H	0.465294	-0.521014	-0.404585
Cl93	Cl	0.681528	-0.657690	-0.392388
Cl94	Cl	0.277893	-0.657553	-0.392536
Cl95	Cl	0.332121	-0.524680	-0.429633
Cl96	Cl	0.815173	-0.353824	-1.078132
H97	H	0.263340	-0.383613	-0.229683
