data_functionalizedCrystal
_audit_creation_method	'MofGen! by Chris Wilmer'
_symmetry_space_group_name_H-M	'P1'
_symmetry_Int_Tables_number	1
_symmetry_cell_setting	triclinic
loop_
_symmetry_equiv_pos_as_xyz
  x,y,z
_cell_length_a	12.759401
_cell_length_b	12.759400
_cell_length_c	12.759393
_cell_angle_alpha	89.968231
_cell_angle_beta	89.982620
_cell_angle_gamma	90.014845
loop_
_atom_site_label
_atom_site_type_symbol
_atom_site_fract_x
_atom_site_fract_y
_atom_site_fract_z
Zn1	Zn	1.606244	-0.418198	-0.593981
Zn2	Zn	1.606142	-0.593917	-0.418301
Zn3	Zn	1.430549	-0.418253	-0.418321
Zn4	Zn	1.430535	-0.593836	-0.593943
O5	O	1.518367	-0.506051	-0.506137
O6	O	1.753251	-0.441518	-0.570685
O7	O	1.582812	-0.570672	-0.271283
O8	O	1.453905	-0.271225	-0.441647
O9	O	1.753176	-0.570618	-0.441614
O10	O	1.582987	-0.271184	-0.570704
O11	O	1.453805	-0.441613	-0.271297
O12	O	1.283526	-0.441534	-0.441609
O13	O	1.453879	-0.570480	-0.740969
O14	O	1.283516	-0.570533	-0.570638
O15	O	1.582972	-0.441439	-0.740997
O16	O	1.582798	-0.740927	-0.441577
O17	O	1.453780	-0.740868	-0.570620
C18	C	1.245400	-0.506032	-0.506122
C19	C	1.128623	-0.506049	-0.506141
C20	C	1.073783	-0.573326	-0.573215
C21	C	0.964059	-0.573340	-0.573227
C22	C	0.964025	-0.438795	-0.439081
C23	C	1.073747	-0.438777	-0.439075
C24	C	1.073802	-0.651008	-0.650660
C25	C	0.964078	-0.651021	-0.650672
C26	C	1.518305	-0.779018	-0.506115
C27	C	1.518374	-0.895795	-0.506140
C28	C	1.585629	-0.950653	-0.439022
C29	C	1.585693	-1.060377	-0.439054
C30	C	1.451240	-1.060375	-0.573327
C31	C	1.451182	-0.950653	-0.573299
C32	C	1.663251	-0.950655	-0.361498
C33	C	1.663315	-1.060379	-0.361530
C34	C	1.792401	-0.506071	-0.506152
C35	C	1.909177	-0.506080	-0.506158
C36	C	1.518436	-0.505944	-0.780170
C37	C	1.518465	-0.505898	-0.896947
C38	C	1.518459	-0.232018	-0.506182
C39	C	1.518497	-0.115241	-0.506201
C40	C	1.451319	-0.438685	-0.951822
C41	C	1.451351	-0.438653	-1.061546
C42	C	1.585683	-0.573052	-1.061510
C43	C	1.585645	-0.573088	-0.951788
C44	C	1.373767	-0.361087	-0.951844
C45	C	1.373799	-0.361056	-1.061568
C46	C	1.518360	-0.506082	-0.233169
C47	C	1.518534	-0.505831	-0.116393
H48	H	0.934283	-0.732371	-0.628740
F49	F	1.402197	-0.254655	-1.100521
H50	H	1.296502	-0.390182	-1.095594
F51	F	1.764348	-1.104753	-0.399727
F52	F	0.905613	-0.367202	-0.367710
F53	F	1.132108	-0.367155	-0.367703
H54	H	1.103609	-0.629308	-0.732067
H55	H	1.396428	-0.905988	-0.627961
F56	F	1.625165	-0.906279	-0.260436
F57	F	1.118267	-0.752010	-0.612463
F58	F	1.267389	-0.389570	-0.912918
H59	H	1.641579	-1.090242	-0.280150
F60	F	1.657176	-0.644558	-1.119885
H61	H	1.402931	-0.283809	-0.917828
H62	H	1.396535	-1.105054	-0.628005
F63	F	1.657099	-0.644637	-0.893389
F64	F	1.769569	-0.911624	-0.390059
F65	F	0.919633	-0.613059	-0.751773
