data_functionalizedCrystal
_audit_creation_method	'MofGen! by Chris Wilmer'
_symmetry_space_group_name_H-M	'P1'
_symmetry_Int_Tables_number	1
_symmetry_cell_setting	triclinic
loop_
_symmetry_equiv_pos_as_xyz
  x,y,z
_cell_length_a	21.395362
_cell_length_b	12.759401
_cell_length_c	12.759393
_cell_angle_alpha	90.020938
_cell_angle_beta	89.966019
_cell_angle_gamma	89.970095
loop_
_atom_site_label
_atom_site_type_symbol
_atom_site_fract_x
_atom_site_fract_y
_atom_site_fract_z
Zn1	Zn	-0.249383	-1.606167	-0.593995
Zn2	Zn	-0.354173	-1.606016	-0.418304
Zn3	Zn	-0.249416	-1.430465	-0.418330
Zn4	Zn	-0.354129	-1.430415	-0.593941
O5	O	-0.301775	-1.518266	-0.506142
O6	O	-0.263288	-1.753168	-0.570700
O7	O	-0.340309	-1.582686	-0.271286
O8	O	-0.161734	-1.453856	-0.441665
O9	O	-0.340277	-1.753057	-0.441621
O10	O	-0.161709	-1.582943	-0.570725
O11	O	-0.263345	-1.453710	-0.271305
O12	O	-0.263302	-1.283438	-0.441613
O13	O	-0.340202	-1.453771	-0.740969
O14	O	-0.340234	-1.283401	-0.570634
O15	O	-0.263245	-1.582895	-0.741009
O16	O	-0.441845	-1.582638	-0.441570
O17	O	-0.441813	-1.453625	-0.570610
C18	C	-0.301768	-1.245298	-0.506122
C19	C	-0.301779	-1.128522	-0.506138
C20	C	-0.464563	-1.518138	-0.506104
C21	C	-0.534204	-1.518180	-0.506123
C22	C	-1.035934	-1.585612	-0.573479
C23	C	-0.970499	-1.585581	-0.573463
C24	C	-0.937842	-1.518409	-0.506208
C25	C	-0.970626	-1.451281	-0.438947
C26	C	-1.036061	-1.451321	-0.438958
C27	C	-0.834229	-1.423693	-0.497810
C28	C	-0.768796	-1.423652	-0.497806
C29	C	-0.736022	-1.518285	-0.506168
C30	C	-0.768688	-1.612964	-0.514556
C31	C	-0.834123	-1.613004	-0.514567
C32	C	-0.866890	-1.518358	-0.506188
C33	C	-0.632293	-1.585381	-0.573403
C34	C	-0.566856	-1.585351	-0.573379
C35	C	-0.566985	-1.451042	-0.438868
C36	C	-0.632420	-1.451080	-0.438887
C37	C	-0.665070	-1.518248	-0.506159
C38	C	-0.301715	-1.518344	-0.780176
C39	C	-0.301689	-1.518378	-0.896953
C40	C	-0.138352	-1.518422	-0.506204
C41	C	-0.068711	-1.518489	-0.506230
C42	C	-0.301783	-1.792299	-0.506164
C43	C	-0.301787	-1.909076	-0.506173
C44	C	-0.341899	-1.073668	-0.573213
C45	C	-0.341901	-0.963944	-0.573234
C46	C	-0.261663	-0.963937	-0.439095
C47	C	-0.261658	-1.073659	-0.439080
C48	C	-0.261612	-1.585618	-0.951837
C49	C	-0.261585	-1.585635	-1.061561
C50	C	-0.341719	-1.451171	-1.061507
C51	C	-0.341742	-1.451148	-0.951785
C52	C	-0.301790	-1.518248	-0.233175
C53	C	-0.301639	-1.518418	-0.116399
H54	H	-1.062514	-1.640314	-0.628250
H55	H	-0.374570	-0.919287	-0.627855
H56	H	-0.228948	-1.640387	-1.106243
F57	F	-0.218966	-0.905539	-0.367730
H58	H	-0.228997	-1.640357	-0.907195
H59	H	-0.374567	-1.118334	-0.627818
H60	H	-0.228984	-1.118322	-0.384459
F61	F	-0.868887	-1.713765	-0.523490
H62	H	-0.374329	-1.396437	-1.106165
H63	H	-0.374378	-1.396386	-0.907097
H64	H	-0.658878	-1.640065	-0.628188
H65	H	-0.943808	-1.640243	-0.628226
H66	H	-0.540169	-1.640017	-0.628137
F67	F	-0.532234	-1.379559	-0.367283
F68	F	-0.667305	-1.379632	-0.367316
F69	F	-0.733813	-1.713689	-0.523454
H70	H	-0.742201	-1.346560	-0.490983
H71	H	-0.944034	-1.396590	-0.384185
F72	F	-0.869103	-1.322965	-0.488900
F73	F	-1.070944	-1.379876	-0.367380
