data_functionalizedCrystal
_audit_creation_method	'MofGen! by Chris Wilmer'
_symmetry_space_group_name_H-M	'P1'
_symmetry_Int_Tables_number	1
_symmetry_cell_setting	triclinic
loop_
_symmetry_equiv_pos_as_xyz
  x,y,z
_cell_length_a	21.395361
_cell_length_b	21.395362
_cell_length_c	21.395355
_cell_angle_alpha	89.956060
_cell_angle_beta	90.021511
_cell_angle_gamma	89.953415
loop_
_atom_site_label
_atom_site_type_symbol
_atom_site_fract_x
_atom_site_fract_y
_atom_site_fract_z
Zn1	Zn	-0.249246	-0.957859	0.354573
Zn2	Zn	0.084088	-0.624526	0.687906
Zn3	Zn	0.417421	-0.291193	1.021239
Zn4	Zn	-0.354005	-0.957762	0.249790
Zn5	Zn	-0.020672	-0.624429	0.583123
Zn6	Zn	0.312661	-0.291095	0.916456
Zn7	Zn	-0.249275	-0.853074	0.249774
Zn8	Zn	0.084059	-0.519741	0.583107
Zn9	Zn	0.417392	-0.186408	0.916441
Zn10	Zn	-0.354018	-0.853044	0.354494
Zn11	Zn	-0.020685	-0.519710	0.687828
Zn12	Zn	0.312648	-0.186377	1.021161
O13	O	-0.301636	-0.905435	0.302158
O14	O	0.031697	-0.572102	0.635491
O15	O	0.365031	-0.238768	0.968824
O16	O	-0.263125	-1.045524	0.340712
O17	O	0.070209	-0.712191	0.674046
O18	O	0.403542	-0.378858	1.007379
O19	O	-0.340119	-0.943847	0.162110
O20	O	-0.006786	-0.610514	0.495443
O21	O	0.326547	-0.277180	0.828776
O22	O	-0.161593	-0.867028	0.263702
O23	O	0.171740	-0.533695	0.597035
O24	O	0.505074	-0.200361	0.930368
O25	O	-0.340091	-1.045453	0.263729
O26	O	-0.006758	-0.712119	0.597062
O27	O	0.326575	-0.378786	0.930395
O28	O	-0.161572	-0.944013	0.340697
O29	O	0.171762	-0.610680	0.674030
O30	O	0.505095	-0.277347	1.007364
O31	O	-0.263174	-0.866934	0.162098
O32	O	0.070159	-0.533600	0.495431
O33	O	0.403492	-0.200267	0.828765
O34	O	-0.263187	-0.765392	0.263626
O35	O	0.070147	-0.432059	0.596959
O36	O	0.403480	-0.098726	0.930293
O37	O	-0.340113	-0.866976	0.442183
O38	O	-0.006780	-0.533642	0.775516
O39	O	0.326553	-0.200309	1.108849
O40	O	-0.340141	-0.765370	0.340564
O41	O	-0.006808	-0.432036	0.673897
O42	O	0.326525	-0.098703	1.007230
O43	O	-0.263137	-0.943983	0.442240
O44	O	0.070196	-0.610650	0.775573
O45	O	0.403530	-0.277317	1.108907
O46	O	-0.441685	-0.943817	0.263653
O47	O	-0.108352	-0.610484	0.596986
O48	O	0.224982	-0.277150	0.930319
O49	O	-0.441695	-0.866881	0.340579
O50	O	-0.108361	-0.533548	0.673912
O51	O	0.224972	-0.200214	1.007246
C52	C	-0.301669	-0.742647	0.302085
C53	C	0.031664	-0.409314	0.635418
C54	C	0.364998	-0.075981	0.968752
C55	C	-0.301698	-0.673006	0.302069
C56	C	0.031635	-0.339673	0.635402
C57	C	0.364968	-0.006339	0.968735
C58	C	-0.464424	-0.905352	0.302123
C59	C	-0.131090	-0.572019	0.635456
C60	C	0.202243	-0.238685	0.968789
C61	C	-0.534065	-0.905374	0.302129
C62	C	-0.200732	-0.572041	0.635462
C63	C	0.132602	-0.238707	0.968795
C64	C	-0.301623	-0.905487	0.465581
C65	C	0.031710	-0.572154	0.798914
C66	C	0.365043	-0.238820	1.132248
C67	C	-0.301618	-0.905509	0.535222
C68	C	0.031715	-0.572176	0.868556
C69	C	0.365049	-0.238842	1.201889
C70	C	-0.566752	-0.945470	0.262114
C71	C	-0.233419	-0.612137	0.595448
C72	C	0.099914	-0.278804	0.928781
C73	C	-0.632188	-0.945499	0.262128
C74	C	-0.298854	-0.612166	0.595462
C75	C	0.034479	-0.278833	0.928795
C76	C	-0.664933	-0.905421	0.302150
C77	C	-0.331600	-0.572088	0.635484
C78	C	0.001733	-0.238755	0.968817
C79	C	-0.632238	-0.865322	0.342172
C80	C	-0.298905	-0.531989	0.675506
C81	C	0.034429	-0.198656	1.008839
C82	C	-0.566804	-0.865299	0.342162
C83	C	-0.233470	-0.531965	0.675495
C84	C	0.099863	-0.198632	1.008828
C85	C	-0.768664	-0.849006	0.307041
C86	C	-0.435331	-0.515673	0.640374
C87	C	-0.101997	-0.182340	0.973708
C88	C	-0.834097	-0.849029	0.307047
C89	C	-0.500764	-0.515696	0.640381
C90	C	-0.167430	-0.182362	0.973714
C91	C	-0.866754	-0.905494	0.302187
C92	C	-0.533421	-0.572161	0.635520
C93	C	-0.200087	-0.238828	0.968854
C94	C	-0.833970	-0.961939	0.297307
C95	C	-0.500637	-0.628605	0.630640
C96	C	-0.167303	-0.295272	0.963974
C97	C	-0.768536	-0.961915	0.297296
C98	C	-0.435202	-0.628582	0.630630
C99	C	-0.101869	-0.295248	0.963963
C100	C	-0.735886	-0.905443	0.302167
C101	C	-0.402552	-0.572109	0.635500
C102	C	-0.069219	-0.238776	0.968833
C103	C	-0.970394	-0.945625	0.262186
C104	C	-0.637060	-0.612292	0.595519
C105	C	-0.303727	-0.278959	0.928852
C106	C	-1.035830	-0.945655	0.262204
C107	C	-0.702497	-0.612322	0.595537
C108	C	-0.369164	-0.278989	0.928871
C109	C	-1.035879	-0.865473	0.342245
C110	C	-0.702546	-0.532139	0.675578
C111	C	-0.369213	-0.198806	1.008912
C112	C	-0.970444	-0.865448	0.342230
C113	C	-0.637111	-0.532115	0.675563
C114	C	-0.303777	-0.198782	1.008896
C115	C	-0.937705	-0.905524	0.302197
C116	C	-0.604372	-0.572190	0.635530
C117	C	-0.271039	-0.238857	0.968863
C118	C	-0.138213	-0.905535	0.302206
C119	C	0.195121	-0.572202	0.635540
C120	C	0.528454	-0.238868	0.968873
C121	C	-0.068571	-0.905578	0.302227
C122	C	0.264762	-0.572244	0.635560
C123	C	0.598095	-0.238911	0.968894
C124	C	-0.301603	-1.068858	0.302231
C125	C	0.031730	-0.735525	0.635564
C126	C	0.365063	-0.402192	0.968898
C127	C	-0.301589	-1.138499	0.302262
C128	C	0.031744	-0.805166	0.635595
C129	C	0.365077	-0.471833	0.968929
C130	C	-0.341822	-0.640297	0.342070
C131	C	-0.008488	-0.306964	0.675403
C132	C	0.324845	0.026369	1.008737
C133	C	-0.341806	-0.574862	0.342098
C134	C	-0.008473	-0.241529	0.675431
C135	C	0.324860	0.091805	1.008765
C136	C	-0.301674	-0.542138	0.302113
C137	C	0.031659	-0.208804	0.635447
C138	C	0.364992	0.124529	0.968780
C139	C	-0.261543	-0.574854	0.262109
C140	C	0.071790	-0.241521	0.595442
C141	C	0.405124	0.091813	0.928776
C142	C	-0.261555	-0.640288	0.262087
C143	C	0.071778	-0.306955	0.595420
C144	C	0.405111	0.026378	0.928753
C145	C	-0.296627	-0.438413	0.245708
C146	C	0.036707	-0.105080	0.579042
C147	C	0.370040	0.228254	0.912375
C148	C	-0.296619	-0.372980	0.245730
C149	C	0.036714	-0.039647	0.579063
C150	C	0.370048	0.293687	0.912396
C151	C	-0.301633	-0.340317	0.302182
C152	C	0.031700	-0.006984	0.635516
C153	C	0.365033	0.326350	0.968849
C154	C	-0.306668	-0.373095	0.358616
C155	C	0.026665	-0.039762	0.691949
C156	C	0.359998	0.293572	1.025283
C157	C	-0.306681	-0.438529	0.358594
C158	C	0.026653	-0.105196	0.691927
C159	C	0.359986	0.228138	1.025260
C160	C	-0.301656	-0.471185	0.302133
C161	C	0.031677	-0.137852	0.635467
C162	C	0.365010	0.195481	0.968800
C163	C	-0.341742	-0.236656	0.342218
C164	C	-0.008409	0.096677	0.675551
C165	C	0.324924	0.430011	1.008884
C166	C	-0.341723	-0.171219	0.342247
C167	C	-0.008389	0.162114	0.675580
C168	C	0.324944	0.495447	1.008913
C169	C	-0.261462	-0.171213	0.262252
C170	C	0.071871	0.162121	0.595585
C171	C	0.405204	0.495454	0.928919
C172	C	-0.261479	-0.236648	0.262229
C173	C	0.071854	0.096685	0.595562
C174	C	0.405188	0.430019	0.928895
C175	C	-0.301622	-0.269366	0.302211
C176	C	0.031711	0.063968	0.635544
C177	C	0.365044	0.397301	0.968877
C178	C	-0.301603	-0.905419	0.139370
C179	C	0.031730	-0.572086	0.472703
C180	C	0.365063	-0.238752	0.806037
C181	C	-0.301432	-0.905518	0.069729
C182	C	0.031901	-0.572185	0.403062
C183	C	0.365234	-0.238852	0.736396
C184	C	-0.261535	-0.945605	0.567966
C185	C	0.071799	-0.612272	0.901300
C186	C	0.405132	-0.278939	1.234633
C187	C	-0.261508	-0.945604	0.633402
C188	C	0.071826	-0.612271	0.966735
C189	C	0.405159	-0.278938	1.300068
C190	C	-0.301575	-0.905514	0.666091
C191	C	0.031758	-0.572181	0.999424
C192	C	0.365091	-0.238847	1.332757
C193	C	-0.341661	-0.865410	0.633339
C194	C	-0.008328	-0.532077	0.966672
C195	C	0.325006	-0.198743	1.300005
C196	C	-0.341682	-0.865407	0.567904
C197	C	-0.008349	-0.532074	0.901238
C198	C	0.324984	-0.198741	1.234571
C199	C	-0.357992	-0.900538	0.769752
C200	C	-0.024659	-0.567205	1.103085
C201	C	0.308675	-0.233871	1.436418
C202	C	-0.357972	-0.900545	0.835185
C203	C	-0.024638	-0.567211	1.168518
C204	C	0.308695	-0.233878	1.501851
C205	C	-0.301509	-0.905518	0.867911
C206	C	0.031824	-0.572184	1.201245
C207	C	0.365158	-0.238851	1.534578
C208	C	-0.245065	-0.910497	0.835197
C209	C	0.088268	-0.577164	1.168531
C210	C	0.421602	-0.243830	1.501864
C211	C	-0.245086	-0.910495	0.769763
C212	C	0.088247	-0.577161	1.103097
C213	C	0.421580	-0.243828	1.436430
C214	C	-0.301556	-0.905512	0.737043
C215	C	0.031777	-0.572179	1.070376
C216	C	0.365110	-0.238845	1.403710
C217	C	-0.261393	-0.945615	0.971608
C218	C	0.071940	-0.612282	1.304941
C219	C	0.405273	-0.278949	1.638275
C220	C	-0.261365	-0.945610	1.037045
C221	C	0.071968	-0.612277	1.370378
C222	C	0.405301	-0.278943	1.703711
C223	C	-0.341524	-0.865419	1.036980
C224	C	-0.008191	-0.532085	1.370314
C225	C	0.325142	-0.198752	1.703647
C226	C	-0.341547	-0.865421	0.971545
C227	C	-0.008213	-0.532087	1.304878
C228	C	0.325120	-0.198754	1.638212
C229	C	-0.301482	-0.905522	0.938863
C230	C	0.031851	-0.572189	1.272196
C231	C	0.365185	-0.238856	1.605529
H232	H	-0.540098	-0.978103	0.229519
H233	H	-0.206765	-0.644770	0.562852
H234	H	0.126568	-0.311437	0.896185
Cl235	Cl	-0.673289	-0.995909	0.211820
Cl236	Cl	-0.339956	-0.662575	0.545153
Cl237	Cl	-0.006622	-0.329242	0.878486
H238	H	-0.658904	-0.832691	0.374760
H239	H	-0.325570	-0.499358	0.708093
H240	H	0.007763	-0.166025	1.041426
Cl241	Cl	-0.392078	-0.814997	0.526738
Cl242	Cl	-0.058744	-0.481664	0.860072
Cl243	Cl	0.274589	-0.148330	1.193405
H244	H	-0.403932	-0.896494	0.861815
H245	H	-0.070598	-0.563161	1.195149
H246	H	0.262735	-0.229828	1.528482
H247	H	-0.199128	-0.914547	0.743130
H248	H	0.134206	-0.581214	1.076463
H249	H	0.467539	-0.247881	1.409797
H250	H	-0.292523	-0.346297	0.199778
H251	H	0.040810	-0.012964	0.533111
H252	H	0.374144	0.320369	0.866445
H253	H	-0.741844	-1.007873	0.293325
H254	H	-0.408511	-0.674540	0.626658
H255	H	-0.075178	-0.341207	0.959991
H256	H	-0.860558	-1.007918	0.293349
H257	H	-0.527224	-0.674585	0.626683
H258	H	-0.193891	-0.341251	0.960016
H259	H	-1.062443	-0.978310	0.229621
H260	H	-0.729110	-0.644977	0.562954
H261	H	-0.395777	-0.311644	0.896287
Cl262	Cl	-0.727616	-0.778015	0.313152
Cl263	Cl	-0.394283	-0.444681	0.646485
Cl264	Cl	-0.060950	-0.111348	0.979819
H265	H	-0.374509	-0.666932	0.374627
H266	H	-0.041175	-0.333599	0.707961
H267	H	0.292158	-0.000265	1.041294
H268	H	-0.310751	-0.346502	0.404585
H269	H	0.022583	-0.013169	0.737919
H270	H	0.355916	0.320164	1.071252
Cl271	Cl	-0.929349	-0.815036	0.392534
Cl272	Cl	-0.596016	-0.481702	0.725867
Cl273	Cl	-0.262682	-0.148369	1.059200
H274	H	-0.374282	-0.832766	0.659958
H275	H	-0.040949	-0.499433	0.993291
H276	H	0.292384	-0.166099	1.326625
Cl277	Cl	-0.525709	-0.814887	0.392469
Cl278	Cl	-0.192376	-0.481554	0.725803
Cl279	Cl	0.140958	-0.148221	1.059136
H280	H	-0.374479	-0.548226	0.374674
H281	H	-0.041146	-0.214892	0.708008
H282	H	0.292187	0.118441	1.041341
H283	H	-0.228866	-0.548206	0.229554
H284	H	0.104467	-0.214872	0.562888
H285	H	0.437801	0.118461	0.896221
H286	H	-0.860785	-0.803068	0.311015
H287	H	-0.527451	-0.469735	0.644348
H288	H	-0.194118	-0.136402	0.977681
Cl289	Cl	-0.313006	-0.479734	0.429535
Cl290	Cl	0.020327	-0.146400	0.762868
Cl291	Cl	0.353661	0.186933	1.096201
Cl292	Cl	-0.290325	-0.479468	0.174732
Cl293	Cl	0.043008	-0.146135	0.508065
Cl294	Cl	0.376342	0.187199	0.841398
H295	H	-0.374426	-0.263296	0.374776
H296	H	-0.041093	0.070037	0.708110
H297	H	0.292241	0.403371	1.041443
Cl298	Cl	-0.174078	-0.916752	0.876332
Cl299	Cl	0.159255	-0.583419	1.209666
Cl300	Cl	0.492588	-0.250085	1.542999
H301	H	-0.228880	-0.666919	0.229513
H302	H	0.104453	-0.333586	0.562846
H303	H	0.437787	-0.000252	0.896179
Cl304	Cl	-1.077039	-0.815092	0.392563
Cl305	Cl	-0.743706	-0.481759	0.725896
Cl306	Cl	-0.410372	-0.148426	1.059230
H307	H	-0.228809	-0.263280	0.229652
H308	H	0.104524	0.070054	0.562985
H309	H	0.437857	0.403387	0.896319
H310	H	-0.374190	-0.832774	0.944885
H311	H	-0.040857	-0.499440	1.278218
H312	H	0.292476	-0.166107	1.611551
H313	H	-0.374395	-0.144589	0.374824
H314	H	-0.041061	0.188744	0.708158
H315	H	0.292272	0.522078	1.041491
H316	H	-0.943737	-0.978259	0.229590
H317	H	-0.610403	-0.644926	0.562924
H318	H	-0.277070	-0.311593	0.896257
H319	H	-0.228783	-0.144569	0.229699
H320	H	0.104550	0.188764	0.563032
H321	H	0.437884	0.522098	0.896365
Cl322	Cl	-0.211164	-0.996015	0.526883
Cl323	Cl	0.122169	-0.662682	0.860217
Cl324	Cl	0.455502	-0.329348	1.193550
H325	H	-0.228767	-0.978265	0.944997
H326	H	0.104567	-0.644932	1.278330
H327	H	0.437900	-0.311598	1.611664
Cl328	Cl	-0.210980	-0.996031	1.078209
Cl329	Cl	0.122353	-0.662698	1.411543
Cl330	Cl	0.455687	-0.329365	1.744876
H331	H	-0.228864	-0.978254	0.660067
H332	H	0.104469	-0.644921	0.993400
H333	H	0.437803	-0.311588	1.326734
H334	H	-0.374141	-0.832770	1.063595
H335	H	-0.040808	-0.499437	1.396928
H336	H	0.292525	-0.166103	1.730262
H337	H	-0.403959	-0.896321	0.743111
H338	H	-0.070626	-0.562987	1.076444
H339	H	0.262708	-0.229654	1.409777
