data_functionalizedCrystal
_audit_creation_method	'MofGen! by Chris Wilmer'
_symmetry_space_group_name_H-M	'P1'
_symmetry_Int_Tables_number	1
_symmetry_cell_setting	triclinic
loop_
_symmetry_equiv_pos_as_xyz
  x,y,z
_cell_length_a	21.395362
_cell_length_b	21.395364
_cell_length_c	21.395356
_cell_angle_alpha	90.023767
_cell_angle_beta	90.026508
_cell_angle_gamma	90.026713
loop_
_atom_site_label
_atom_site_type_symbol
_atom_site_fract_x
_atom_site_fract_y
_atom_site_fract_z
Zn1	Zn	-0.249482	0.957863	0.354269
Zn2	Zn	-0.354259	0.957772	0.249494
Zn3	Zn	-0.249496	0.853080	0.249506
Zn4	Zn	-0.354223	0.853052	0.354234
O5	O	-0.301865	0.905442	0.301876
O6	O	-0.263390	1.045529	0.340381
O7	O	-0.340383	0.943858	0.161818
O8	O	-0.161816	0.867030	0.263423
O9	O	-0.340369	1.045462	0.263403
O10	O	-0.161806	0.944014	0.340392
O11	O	-0.263414	0.866941	0.161826
O12	O	-0.263379	0.765398	0.263388
O13	O	-0.340308	0.866982	0.441917
O14	O	-0.340321	0.765378	0.340332
O15	O	-0.263355	0.943986	0.441943
O16	O	-0.441932	0.943830	0.263368
O17	O	-0.441906	0.866893	0.340320
C18	C	-0.301848	0.742654	0.301858
C19	C	-0.301856	0.673013	0.301865
C20	C	-0.342002	0.171222	0.341901
C21	C	-0.342002	0.236658	0.341895
C22	C	-0.301879	0.269374	0.301896
C23	C	-0.261763	0.236651	0.261889
C24	C	-0.261769	0.171216	0.261892
C25	C	-0.245414	0.373061	0.297043
C26	C	-0.245408	0.438494	0.297044
C27	C	-0.301862	0.471195	0.301882
C28	C	-0.358325	0.438455	0.306732
C29	C	-0.358330	0.373021	0.306735
C30	C	-0.301869	0.340327	0.301887
C31	C	-0.341978	0.574864	0.341876
C32	C	-0.341980	0.640300	0.341865
C33	C	-0.261735	0.640292	0.261862
C34	C	-0.261739	0.574857	0.261870
C35	C	-0.301860	0.542147	0.301880
C36	C	-0.464653	0.905366	0.301853
C37	C	-0.534294	0.905390	0.301864
C38	C	-1.036032	0.945605	0.342034
C39	C	-0.970596	0.945587	0.342024
C40	C	-0.937932	0.905527	0.301915
C41	C	-0.970709	0.865494	0.261801
C42	C	-1.036143	0.865518	0.261808
C43	C	-0.834315	0.849042	0.296905
C44	C	-0.768882	0.849017	0.296903
C45	C	-0.736111	0.905453	0.301891
C46	C	-0.768782	0.961916	0.306895
C47	C	-0.834216	0.961940	0.306902
C48	C	-0.866980	0.905497	0.301903
C49	C	-0.632390	0.945467	0.341989
C50	C	-0.566954	0.945450	0.341974
C51	C	-0.567067	0.865351	0.261755
C52	C	-0.632503	0.865374	0.261766
C53	C	-0.665160	0.905431	0.301886
C54	C	-0.138442	0.905535	0.301913
C55	C	-0.068800	0.905575	0.301928
C56	C	-0.301826	0.905491	0.465299
C57	C	-0.301810	0.905512	0.534940
C58	C	-0.301882	1.068865	0.301894
C59	C	-0.301890	1.138506	0.301902
C60	C	-0.301859	0.905429	0.139088
C61	C	-0.301699	0.905529	0.069447
C62	C	-0.261728	0.865472	0.567648
C63	C	-0.261716	0.865470	0.633084
C64	C	-0.301780	0.905519	0.665809
C65	C	-0.341870	0.945561	0.633093
C66	C	-0.341885	0.945558	0.567659
C67	C	-0.306707	0.961971	0.769495
C68	C	-0.306688	0.961976	0.834928
C69	C	-0.301738	0.905529	0.867630
C70	C	-0.296793	0.849077	0.834890
C71	C	-0.296808	0.849073	0.769456
C72	C	-0.301768	0.905527	0.736761
C73	C	-0.261641	0.865484	0.971290
C74	C	-0.261633	0.865481	1.036727
C75	C	-0.341784	0.945578	1.036735
C76	C	-0.341795	0.945575	0.971300
C77	C	-0.301720	0.905529	0.938581
H78	H	-0.229102	0.144579	0.229319
N79	N	-0.385266	0.271955	0.385041
H80	H	-0.414268	0.299080	0.359528
H81	H	-0.410641	0.241264	0.410377
N82	N	-0.733446	1.022792	0.312270
H83	H	-0.764071	1.058562	0.315441
H84	H	-0.706273	1.021861	0.350870
H85	H	-0.374404	0.978187	1.063379
N86	N	-0.385088	0.988752	0.668385
H87	H	-0.378996	0.982680	0.714801
H88	H	-0.375348	1.033506	0.656966
H89	H	-0.404304	0.346367	0.310682
H90	H	-0.374432	0.978181	0.944669
H91	H	-0.374648	0.666937	0.374436
N92	N	-0.385284	0.135942	0.385043
H93	H	-0.410699	0.166601	0.410378
H94	H	-0.414248	0.108776	0.359482
N95	N	-0.218480	0.271936	0.218754
H96	H	-0.193068	0.241278	0.193415
H97	H	-0.243942	0.299065	0.189713
H98	H	-0.742284	0.803043	0.292832
N99	N	-1.071255	0.988784	0.385328
H100	H	-1.040563	1.014133	0.410742
H101	H	-1.098408	1.017815	0.359882
H102	H	-0.404295	0.465079	0.310675
H103	H	-0.860991	0.803082	0.292845
H104	H	-0.310733	1.007940	0.742875
H105	H	-0.943911	0.978185	0.374685
N106	N	-0.218498	0.822281	0.532369
H107	H	-0.228216	0.777509	0.543739
H108	H	-0.224601	0.828403	0.485962
H109	H	-0.229010	0.832875	0.944649
H110	H	-0.229067	0.666930	0.229292
N111	N	-0.312023	1.022859	0.870239
H112	H	-0.275804	1.050924	0.858869
H113	H	-0.352601	1.044096	0.858836
N114	N	-0.667617	0.988679	0.385250
H115	H	-0.714042	0.982618	0.379171
H116	H	-0.656161	0.978901	0.429987
N117	N	-0.935486	0.822282	0.218542
H118	H	-0.946889	0.832044	0.173786
H119	H	-0.889071	0.828357	0.224676
H120	H	-0.229073	0.832866	0.659720
H121	H	-0.199432	0.465146	0.293103
N122	N	-0.531607	0.988630	0.385231
H123	H	-0.562227	1.014006	0.410648
H124	H	-0.504461	0.963097	0.414195
H125	H	-0.374524	0.978166	0.541029
H126	H	-0.229073	0.548219	0.229300
H127	H	-0.659183	0.832775	0.229109
H128	H	-0.199440	0.346441	0.293093
H129	H	-0.374648	0.548230	0.374454
H130	H	-0.292783	0.803108	0.742802
H131	H	-0.292758	0.803113	0.861514
H132	H	-0.860814	1.007914	0.310975
H133	H	-0.540473	0.832737	0.229094
N134	N	-1.071491	0.822342	0.218548
H135	H	-1.040872	0.796962	0.193134
H136	H	-1.098649	0.793341	0.244027
H137	H	-0.228996	0.832871	1.063356
