data_functionalizedCrystal
_audit_creation_method	'MofGen! by Chris Wilmer'
_symmetry_space_group_name_H-M	'P1'
_symmetry_Int_Tables_number	1
_symmetry_cell_setting	triclinic
loop_
_symmetry_equiv_pos_as_xyz
  x,y,z
_cell_length_a	12.759401
_cell_length_b	12.759400
_cell_length_c	12.759393
_cell_angle_alpha	89.968436
_cell_angle_beta	89.980316
_cell_angle_gamma	90.013799
loop_
_atom_site_label
_atom_site_type_symbol
_atom_site_fract_x
_atom_site_fract_y
_atom_site_fract_z
Zn1	Zn	1.606256	-0.418229	-0.594015
Zn2	Zn	1.606150	-0.593948	-0.418335
Zn3	Zn	1.430557	-0.418281	-0.418350
Zn4	Zn	1.430546	-0.593864	-0.593973
O5	O	1.518377	-0.506081	-0.506168
O6	O	1.753263	-0.441552	-0.570721
O7	O	1.582818	-0.570702	-0.271316
O8	O	1.453913	-0.271253	-0.441677
O9	O	1.753185	-0.570652	-0.441650
O10	O	1.582998	-0.271215	-0.570737
O11	O	1.453811	-0.441640	-0.271327
O12	O	1.283535	-0.441559	-0.441636
O13	O	1.453894	-0.570509	-0.740999
O14	O	1.283527	-0.570559	-0.570665
O15	O	1.582987	-0.441471	-0.741030
O16	O	1.582807	-0.740958	-0.441609
O17	O	1.453791	-0.740896	-0.570650
C18	C	1.245410	-0.506056	-0.506148
C19	C	1.128633	-0.506071	-0.506165
C20	C	1.518315	-0.779048	-0.506146
C21	C	1.518384	-0.895825	-0.506172
C22	C	1.073745	-0.438812	-0.439103
C23	C	0.964021	-0.438837	-0.439116
C24	C	0.964083	-0.573383	-0.573262
C25	C	1.073805	-0.573362	-0.573243
C26	C	1.073708	-0.361130	-0.361658
C27	C	0.963984	-0.361155	-0.361671
C28	C	1.585637	-0.950684	-0.439055
C29	C	1.585702	-1.060408	-0.439087
C30	C	1.451252	-1.060404	-0.573357
C31	C	1.451193	-0.950682	-0.573329
C32	C	1.663258	-0.950687	-0.361532
C33	C	1.663322	-1.060411	-0.361565
C34	C	1.792411	-0.506106	-0.506189
C35	C	1.909187	-0.506116	-0.506197
C36	C	1.518451	-0.505975	-0.780202
C37	C	1.518482	-0.505929	-0.896978
C38	C	1.518468	-0.232047	-0.506213
C39	C	1.518507	-0.115271	-0.506232
C40	C	1.585710	-0.438733	-0.951858
C41	C	1.585735	-0.438695	-1.061582
C42	C	1.451301	-0.573059	-1.061537
C43	C	1.451272	-0.573091	-0.951815
C44	C	1.663328	-0.361162	-0.951885
C45	C	1.663353	-0.361124	-1.061609
C46	C	1.518364	-0.506110	-0.233201
C47	C	1.518537	-0.505859	-0.116425
H48	H	1.118492	-0.628141	-0.627841
H49	H	1.634239	-0.283814	-1.095657
C50	C	1.773264	-0.390589	-1.101848
H51	H	1.818447	-0.402742	-1.043938
H52	H	1.800342	-0.334899	-1.143226
H53	H	1.768806	-0.452327	-1.143191
H54	H	0.934220	-0.279815	-0.383608
H55	H	0.919429	-0.628169	-0.627875
H56	H	1.740599	-0.390332	-0.917851
C57	C	1.623923	-0.904818	-0.257072
H58	H	1.606452	-0.960318	-0.210571
H59	H	1.563639	-0.862948	-0.269491
H60	H	1.677427	-0.862901	-0.226699
C61	C	1.113882	-0.390448	-0.251687
H62	H	1.055946	-0.402529	-0.206474
H63	H	1.155234	-0.334727	-0.224733
H64	H	1.155238	-0.452199	-0.256012
C65	C	1.633906	-0.251255	-0.911679
H66	H	1.621816	-0.206035	-0.969601
H67	H	1.689589	-0.224235	-0.870327
H68	H	1.572141	-0.255695	-0.870314
H69	H	1.107760	-0.283867	-0.390935
H70	H	1.396440	-0.906016	-0.627990
C71	C	1.377344	-1.120745	-0.647223
H72	H	1.337287	-1.072355	-0.687197
H73	H	1.331611	-1.163621	-0.607011
H74	H	1.417544	-1.163472	-0.693050
C75	C	1.773136	-0.910345	-0.391065
H76	H	1.818363	-0.968212	-0.403240
H77	H	1.800181	-0.869008	-0.335392
H78	H	1.768648	-0.868940	-0.452803
C79	C	1.767746	-1.106278	-0.401029
H80	H	1.814207	-1.050778	-0.418575
H81	H	1.755258	-1.148143	-0.461287
H82	H	1.798204	-1.148200	-0.347558
C83	C	1.633947	-1.100760	-0.251636
H84	H	1.621812	-1.042896	-0.206407
H85	H	1.689668	-1.142098	-0.224654
H86	H	1.572217	-1.142167	-0.256032
C87	C	0.917948	-0.400399	-0.257190
H88	H	0.973373	-0.417852	-0.210649
H89	H	0.876046	-0.460680	-0.269569
H90	H	0.876033	-0.346861	-0.226885
C91	C	1.377314	-0.646996	-0.891445
H92	H	1.386914	-0.637391	-0.818245
H93	H	1.392659	-0.717585	-0.909409
H94	H	1.306733	-0.631589	-0.909428
C95	C	1.377384	-0.646939	-1.121861
H96	H	1.387033	-0.637301	-1.195068
H97	H	1.306794	-0.631565	-1.103876
H98	H	1.392741	-0.717540	-1.103863
