data_functionalizedCrystal
_audit_creation_method	'MofGen! by Chris Wilmer'
_symmetry_space_group_name_H-M	'P1'
_symmetry_Int_Tables_number	1
_symmetry_cell_setting	triclinic
loop_
_symmetry_equiv_pos_as_xyz
  x,y,z
_cell_length_a	17.077402
_cell_length_b	12.759401
_cell_length_c	12.759393
_cell_angle_alpha	89.980324
_cell_angle_beta	89.965312
_cell_angle_gamma	90.023310
loop_
_atom_site_label
_atom_site_type_symbol
_atom_site_fract_x
_atom_site_fract_y
_atom_site_fract_z
Zn1	Zn	-0.312461	1.606207	-0.593954
Zn2	Zn	0.020872	1.939540	-0.260621
Zn3	Zn	0.354205	2.272873	0.072713
Zn4	Zn	-0.443747	1.606073	-0.418261
Zn5	Zn	-0.110414	1.939406	-0.084928
Zn6	Zn	0.222919	2.272739	0.248405
Zn7	Zn	-0.312500	1.430505	-0.418293
Zn8	Zn	0.020833	1.763839	-0.084960
Zn9	Zn	0.354166	2.097172	0.248374
Zn10	Zn	-0.443690	1.430472	-0.593902
Zn11	Zn	-0.110357	1.763805	-0.260569
Zn12	Zn	0.222977	2.097139	0.072764
O13	O	-0.378100	1.518314	-0.506103
O14	O	-0.044766	1.851647	-0.172769
O15	O	0.288567	2.184981	0.160564
O16	O	-0.329884	1.753210	-0.570656
O17	O	0.003449	2.086543	-0.237323
O18	O	0.336782	2.419877	0.096010
O19	O	-0.426378	1.582741	-0.271244
O20	O	-0.093044	1.916074	0.062089
O21	O	0.240289	2.249408	0.395422
O22	O	-0.202648	1.453882	-0.441630
O23	O	0.130685	1.787216	-0.108297
O24	O	0.464018	2.120549	0.225037
O25	O	-0.426340	1.753111	-0.441576
O26	O	-0.093006	2.086445	-0.108242
O27	O	0.240327	2.419778	0.225091
O28	O	-0.202620	1.582969	-0.570687
O29	O	0.130714	1.916303	-0.237354
O30	O	0.464047	2.249636	0.095979
O31	O	-0.329951	1.453753	-0.271268
O32	O	0.003382	1.787086	0.062066
O33	O	0.336716	2.120419	0.395399
O34	O	-0.329895	1.283480	-0.441580
O35	O	0.003438	1.616813	-0.108246
O36	O	0.336771	1.950147	0.225087
O37	O	-0.426242	1.453826	-0.740930
O38	O	-0.092908	1.787159	-0.407597
O39	O	0.240425	2.120493	-0.074264
O40	O	-0.426280	1.283456	-0.570599
O41	O	-0.092946	1.616789	-0.237266
O42	O	0.240387	1.950122	0.096067
O43	O	-0.329829	1.582937	-0.740968
O44	O	0.003505	1.916271	-0.407635
O45	O	0.336838	2.249604	-0.074302
O46	O	-0.553587	1.582709	-0.441526
O47	O	-0.220253	1.916042	-0.108192
O48	O	0.113080	2.249376	0.225141
O49	O	-0.553545	1.453696	-0.570568
O50	O	-0.220211	1.787029	-0.237235
O51	O	0.113122	2.120363	0.096098
C52	C	-0.378086	1.245347	-0.506088
C53	C	-0.044753	1.578680	-0.172755
C54	C	0.288580	1.912013	0.160579
C55	C	-0.378099	1.128570	-0.506106
C56	C	-0.044766	1.461903	-0.172773
C57	C	0.288567	1.795237	0.160560
C58	C	-0.327966	1.073760	-0.573422
C59	C	0.005367	1.407093	-0.240089
C60	C	0.338701	1.740427	0.093244
C61	C	-0.327974	0.964036	-0.573429
C62	C	0.005360	1.297369	-0.240096
C63	C	0.338693	1.630703	0.093237
C64	C	-0.428256	0.963942	-0.438802
C65	C	-0.094922	1.297275	-0.105468
C66	C	0.238411	1.630608	0.227865
C67	C	-0.428243	1.073664	-0.438790
C68	C	-0.094910	1.406997	-0.105457
C69	C	0.238424	1.740331	0.227877
C70	C	-0.582048	1.518213	-0.506061
C71	C	-0.248714	1.851546	-0.172728
C72	C	0.084619	2.184879	0.160606
C73	C	-0.669297	1.518265	-0.506078
C74	C	-0.335964	1.851599	-0.172745
C75	C	-0.002631	2.184932	0.160589
C76	C	-0.710283	1.585511	-0.438958
C77	C	-0.376950	1.918844	-0.105624
C78	C	-0.043617	2.252178	0.227709
C79	C	-0.792264	1.585563	-0.438984
C80	C	-0.458931	1.918896	-0.105651
C81	C	-0.125597	2.252229	0.227682
C82	C	-0.833257	1.518362	-0.506127
C83	C	-0.499923	1.851695	-0.172794
C84	C	-0.166590	2.185029	0.160540
C85	C	-0.792265	1.451114	-0.573255
C86	C	-0.458932	1.784447	-0.239922
C87	C	-0.125598	2.117780	0.093412
C88	C	-0.710286	1.451068	-0.573233
C89	C	-0.376953	1.784402	-0.239899
C90	C	-0.043619	2.117735	0.093434
C91	C	-0.963135	1.451211	-0.573295
C92	C	-0.629802	1.784544	-0.239961
C93	C	-0.296468	2.117878	0.093372
C94	C	-1.045120	1.451255	-0.573316
C95	C	-0.711786	1.784588	-0.239983
C96	C	-0.378453	2.117921	0.093351
C97	C	-1.045113	1.585705	-0.439047
C98	C	-0.711779	1.919038	-0.105713
C99	C	-0.378446	2.252372	0.227620
C100	C	-0.963134	1.585660	-0.439024
C101	C	-0.629801	1.918993	-0.105691
C102	C	-0.296467	2.252327	0.227642
C103	C	-0.922148	1.518410	-0.506151
C104	C	-0.588814	1.851743	-0.172818
C105	C	-0.255481	2.185076	0.160516
C106	C	-0.173355	1.518445	-0.506168
C107	C	0.159978	1.851778	-0.172835
C108	C	0.493311	2.185111	0.160499
C109	C	-0.086106	1.518500	-0.506196
C110	C	0.247228	1.851834	-0.172862
C111	C	0.580561	2.185167	0.160471
C112	C	-0.378024	1.518393	-0.780136
C113	C	-0.044691	1.851726	-0.446803
C114	C	0.288642	2.185059	-0.113470
C115	C	-0.377992	1.518426	-0.896913
C116	C	-0.044659	1.851760	-0.563580
C117	C	0.288674	2.185093	-0.230246
C118	C	-0.378114	1.792347	-0.506118
C119	C	-0.044781	2.125681	-0.172785
C120	C	0.288553	2.459014	0.160548
C121	C	-0.378120	1.909124	-0.506125
C122	C	-0.044787	2.242457	-0.172792
C123	C	0.288547	2.575791	0.160542
C124	C	-0.327782	1.585660	-0.951796
C125	C	0.005551	1.918993	-0.618463
C126	C	0.338885	2.252326	-0.285130
C127	C	-0.327748	1.585677	-1.061521
C128	C	0.005585	1.919011	-0.728187
C129	C	0.338919	2.252344	-0.394854
C130	C	-0.428142	1.451226	-1.061468
C131	C	-0.094808	1.784559	-0.728135
C132	C	0.238525	2.117892	-0.394802
C133	C	-0.428171	1.451203	-0.951746
C134	C	-0.094838	1.784537	-0.618413
C135	C	0.238496	2.117870	-0.285079
C136	C	-0.378118	1.518296	-0.233135
C137	C	-0.044785	1.851630	0.100198
C138	C	0.288548	2.184963	0.433531
C139	C	-0.377929	1.518466	-0.116359
C140	C	-0.044596	1.851800	0.216974
C141	C	0.288737	2.185133	0.550307
H142	H	-0.469082	0.919224	-0.383996
H143	H	-0.135748	1.252557	-0.050663
H144	H	0.197585	1.585890	0.282671
F145	F	-0.835881	1.657138	-0.367549
F146	F	-0.502547	1.990471	-0.034215
F147	F	-0.169214	2.323804	0.299118
H148	H	-0.929767	1.396452	-0.627960
H149	H	-0.596434	1.729785	-0.294627
H150	H	-0.263100	2.063119	0.038706
H151	H	-0.286860	1.640424	-1.106202
H152	H	0.046473	1.973757	-0.772868
H153	H	0.379806	2.307090	-0.439535
F154	F	-0.835895	1.379600	-0.644720
F155	F	-0.502562	1.712933	-0.311386
F156	F	-0.169228	2.046266	0.021947
F157	F	-0.481611	1.379636	-0.893332
F158	F	-0.148278	1.712969	-0.559998
F159	F	0.185056	2.046302	-0.226665
H160	H	-1.078488	1.640466	-0.384393
H161	H	-0.745154	1.973800	-0.051060
H162	H	-0.411821	2.307133	0.282274
H163	H	-0.676916	1.396311	-0.627890
H164	H	-0.343583	1.729645	-0.294557
H165	H	-0.010249	2.062978	0.038776
H166	H	-0.469069	1.118291	-0.383968
H167	H	-0.135735	1.451625	-0.050634
H168	H	0.197598	1.784958	0.282699
H169	H	-0.676912	1.640229	-0.384278
H170	H	-0.343579	1.973562	-0.050944
H171	H	-0.010246	2.306895	0.282389
H172	H	-0.286921	1.640394	-0.907155
H173	H	0.046412	1.973727	-0.573821
H174	H	0.379746	2.307061	-0.240488
F175	F	-0.919508	1.657181	-0.367562
F176	F	-0.586174	1.990514	-0.034229
F177	F	-0.252841	2.323847	0.299104
H178	H	-0.287133	1.118462	-0.628233
H179	H	0.046200	1.451795	-0.294899
H180	H	0.379534	1.785128	0.038434
F181	F	-0.274614	0.905708	-0.645075
F182	F	0.058720	1.239041	-0.311742
F183	F	0.392053	1.572375	0.021592
H184	H	-1.078494	1.396554	-0.628009
H185	H	-0.745161	1.729887	-0.294676
H186	H	-0.411827	2.063220	0.038657
F187	F	-0.481545	1.379690	-1.119835
F188	F	-0.148212	1.713024	-0.786501
F189	F	0.185121	2.046357	-0.453168
