data_functionalizedCrystal
_audit_creation_method	'MofGen! by Chris Wilmer'
_symmetry_space_group_name_H-M	'P1'
_symmetry_Int_Tables_number	1
_symmetry_cell_setting	triclinic
loop_
_symmetry_equiv_pos_as_xyz
  x,y,z
_cell_length_a	21.395362
_cell_length_b	21.395361
_cell_length_c	21.395356
_cell_angle_alpha	90.028721
_cell_angle_beta	89.964122
_cell_angle_gamma	89.953589
loop_
_atom_site_label
_atom_site_type_symbol
_atom_site_fract_x
_atom_site_fract_y
_atom_site_fract_z
Zn1	Zn	0.957810	0.249186	-0.354583
Zn2	Zn	1.291144	0.582519	-0.021250
Zn3	Zn	1.624477	0.915852	0.312083
Zn4	Zn	0.957728	0.353963	-0.249805
Zn5	Zn	1.291061	0.687297	0.083529
Zn6	Zn	1.624395	1.020630	0.416862
Zn7	Zn	0.853040	0.249233	-0.249785
Zn8	Zn	1.186373	0.582566	0.083549
Zn9	Zn	1.519707	0.915899	0.416882
Zn10	Zn	0.852995	0.353959	-0.354510
Zn11	Zn	1.186328	0.687292	-0.021176
Zn12	Zn	1.519662	1.020625	0.312157
O13	O	0.905393	0.301585	-0.302171
O14	O	1.238727	0.634918	0.031163
O15	O	1.572060	0.968252	0.364496
O16	O	1.045477	0.263067	-0.340724
O17	O	1.378811	0.596400	-0.007390
O18	O	1.712144	0.929734	0.325943
O19	O	0.943825	0.340092	-0.162124
O20	O	1.277159	0.673425	0.171209
O21	O	1.610492	1.006759	0.504542
O22	O	0.866992	0.161548	-0.263709
O23	O	1.200325	0.494882	0.069625
O24	O	1.533658	0.828215	0.402958
O25	O	1.045417	0.340047	-0.263743
O26	O	1.378750	0.673380	0.069590
O27	O	1.712083	1.006713	0.402923
O28	O	0.943966	0.161514	-0.340704
O29	O	1.277299	0.494847	-0.007371
O30	O	1.610633	0.828181	0.325963
O31	O	0.866912	0.263147	-0.162109
O32	O	1.200245	0.596480	0.171224
O33	O	1.533578	0.929814	0.504557
O34	O	0.765356	0.263142	-0.263637
O35	O	1.098690	0.596476	0.069696
O36	O	1.432023	0.929809	0.403029
O37	O	0.866914	0.340039	-0.442197
O38	O	1.200248	0.673372	-0.108864
O39	O	1.533581	1.006705	0.224469
O40	O	0.765323	0.340084	-0.340578
O41	O	1.098656	0.673417	-0.007245
O42	O	1.431990	1.006751	0.326088
O43	O	0.943922	0.263062	-0.442251
O44	O	1.277255	0.596396	-0.108918
O45	O	1.610589	0.929729	0.224415
O46	O	0.943781	0.441641	-0.263672
O47	O	1.277115	0.774974	0.069662
O48	O	1.610448	1.108307	0.402995
O49	O	0.866834	0.441637	-0.340598
O50	O	1.200168	0.774970	-0.007264
O51	O	1.533501	1.108304	0.326069
C52	C	0.742606	0.301618	-0.302098
C53	C	1.075939	0.634952	0.031235
C54	C	1.409272	0.968285	0.364569
C55	C	0.672964	0.301647	-0.302082
C56	C	1.006298	0.634981	0.031252
C57	C	1.339631	0.968314	0.364585
C58	C	0.640250	0.341764	-0.342085
C59	C	0.973584	0.675097	-0.008751
C60	C	1.306917	1.008431	0.324582
C61	C	0.574815	0.341749	-0.342113
C62	C	0.908148	0.675082	-0.008779
C63	C	1.241482	1.008415	0.324554
C64	C	0.542096	0.301623	-0.302126
C65	C	0.875429	0.634957	0.031207
C66	C	1.208763	0.968290	0.364540
C67	C	0.574818	0.261499	-0.262120
C68	C	0.908151	0.594832	0.071213
C69	C	1.241485	0.928166	0.404546
C70	C	0.640252	0.261511	-0.262098
C71	C	0.973585	0.594844	0.071235
C72	C	1.306919	0.928178	0.404569
C73	C	0.438379	0.296585	-0.245721
C74	C	0.771713	0.629919	0.087612
C75	C	1.105046	0.963252	0.420946
C76	C	0.372946	0.296578	-0.245742
C77	C	0.706280	0.629911	0.087591
C78	C	1.039613	0.963244	0.420924
C79	C	0.340275	0.301582	-0.302195
C80	C	0.673609	0.634916	0.031138
C81	C	1.006942	0.968249	0.364471
C82	C	0.373045	0.306608	-0.358629
C83	C	0.706379	0.639941	-0.025296
C84	C	1.039712	0.973275	0.308038
C85	C	0.438480	0.306620	-0.358607
C86	C	0.771813	0.639953	-0.025273
C87	C	1.105146	0.973287	0.308060
C88	C	0.471144	0.301605	-0.302146
C89	C	0.804477	0.634939	0.031187
C90	C	1.137810	0.968272	0.364520
C91	C	0.236609	0.341685	-0.342232
C92	C	0.569942	0.675018	-0.008899
C93	C	0.903276	1.008351	0.324434
C94	C	0.171172	0.341665	-0.342261
C95	C	0.504506	0.674998	-0.008928
C96	C	0.837839	1.008331	0.324405
C97	C	0.171177	0.261418	-0.262263
C98	C	0.504510	0.594752	0.071070
C99	C	0.837843	0.928085	0.404403
C100	C	0.236612	0.261435	-0.262240
C101	C	0.569945	0.594768	0.071094
C102	C	0.903279	0.928101	0.404427
C103	C	0.269324	0.301571	-0.302223
C104	C	0.602657	0.634905	0.031110
C105	C	0.935991	0.968238	0.364443
C106	C	0.905311	0.464373	-0.302143
C107	C	1.238644	0.797706	0.031191
C108	C	1.571978	1.131039	0.364524
C109	C	0.905333	0.534014	-0.302152
C110	C	1.238667	0.867347	0.031182
C111	C	1.572000	1.200681	0.364515
C112	C	0.945435	0.566708	-0.262139
C113	C	1.278768	0.900041	0.071195
C114	C	1.612102	1.233375	0.404528
C115	C	0.945464	0.632143	-0.262156
C116	C	1.278798	0.965477	0.071178
C117	C	1.612131	1.298810	0.404511
C118	C	0.905381	0.664882	-0.302179
C119	C	1.238714	0.998216	0.031155
C120	C	1.572047	1.331549	0.364488
C121	C	0.865276	0.632180	-0.342200
C122	C	1.198609	0.965514	-0.008866
C123	C	1.531943	1.298847	0.324467
C124	C	0.865252	0.566746	-0.342186
C125	C	1.198586	0.900079	-0.008853
C126	C	1.531919	1.233413	0.324481
C127	C	0.848966	0.768612	-0.307074
C128	C	1.182299	1.101946	0.026259
C129	C	1.515632	1.435279	0.359593
C130	C	0.848988	0.834045	-0.307083
C131	C	1.182322	1.167378	0.026250
C132	C	1.515655	1.500712	0.359583
C133	C	0.905454	0.866703	-0.302224
C134	C	1.238788	1.200036	0.031109
C135	C	1.572121	1.533370	0.364442
C136	C	0.961899	0.833920	-0.297343
C137	C	1.295233	1.167253	0.035990
C138	C	1.628566	1.500586	0.369324
C139	C	0.961876	0.768486	-0.297329
C140	C	1.295209	1.101819	0.036004
C141	C	1.628542	1.435152	0.369337
C142	C	0.905402	0.735835	-0.302198
C143	C	1.238736	1.069168	0.031135
C144	C	1.572069	1.402501	0.364468
C145	C	0.945591	0.970350	-0.262227
C146	C	1.278925	1.303683	0.071106
C147	C	1.612258	1.637016	0.404439
C148	C	0.945622	1.035786	-0.262249
C149	C	1.278955	1.369119	0.071085
C150	C	1.612288	1.702453	0.404418
C151	C	0.865428	1.035822	-0.342289
C152	C	1.198761	1.369155	-0.008956
C153	C	1.532094	1.702488	0.324377
C154	C	0.865403	0.970386	-0.342271
C155	C	1.198736	1.303720	-0.008938
C156	C	1.532070	1.637053	0.324395
C157	C	0.905484	0.937654	-0.302237
C158	C	1.238817	1.270988	0.031096
C159	C	1.572151	1.604321	0.364430
C160	C	1.068817	0.301552	-0.302244
C161	C	1.402150	0.634886	0.031089
C162	C	1.735483	0.968219	0.364423
C163	C	1.138458	0.301538	-0.302275
C164	C	1.471791	0.634872	0.031058
C165	C	1.805125	0.968205	0.364392
C166	C	0.905422	0.301545	-0.465594
C167	C	1.238756	0.634878	-0.132261
C168	C	1.572089	0.968211	0.201073
C169	C	0.905435	0.301528	-0.535235
C170	C	1.238768	0.634861	-0.201902
C171	C	1.572101	0.968194	0.131432
C172	C	0.905494	1.138162	-0.302223
C173	C	1.238827	1.471495	0.031110
C174	C	1.572160	1.804828	0.364444
C175	C	0.905538	1.068520	-0.302273
C176	C	1.238872	1.401854	0.031060
C177	C	1.572205	1.735187	0.364394
C178	C	0.945591	0.261346	-1.037061
C179	C	1.278925	0.594680	-0.703727
C180	C	1.612258	0.928013	-0.370394
C181	C	0.945587	0.261361	-0.971625
C182	C	1.278920	0.594695	-0.638292
C183	C	1.612253	0.928028	-0.304959
C184	C	0.905488	0.301444	-0.938874
C185	C	1.238822	0.634777	-0.605540
C186	C	1.572155	0.968111	-0.272207
C187	C	0.865404	0.341526	-0.971563
C188	C	1.198737	0.674859	-0.638230
C189	C	1.532070	1.008193	-0.304896
C190	C	0.865414	0.341514	-1.036997
C191	C	1.198748	0.674848	-0.703664
C192	C	1.532081	1.008181	-0.370330
C193	C	0.849019	0.306422	-0.835179
C194	C	1.182353	0.639755	-0.501845
C195	C	1.515686	0.973088	-0.168512
C196	C	0.849008	0.306429	-0.769746
C197	C	1.182341	0.639762	-0.436412
C198	C	1.515675	0.973096	-0.103079
C199	C	0.905456	0.301484	-0.737053
C200	C	1.238790	0.634818	-0.403720
C201	C	1.572123	0.968151	-0.070386
C202	C	0.961918	0.296519	-0.769801
C203	C	1.295252	0.629852	-0.436468
C204	C	1.628585	0.963185	-0.103135
C205	C	0.961929	0.296507	-0.835235
C206	C	1.295262	0.629840	-0.501902
C207	C	1.628595	0.963174	-0.168569
C208	C	0.905473	0.301462	-0.867921
C209	C	1.238806	0.634795	-0.534588
C210	C	1.572140	0.968128	-0.201255
C211	C	0.945536	0.261424	-0.633419
C212	C	1.278870	0.594758	-0.300086
C213	C	1.612203	0.928091	0.033248
C214	C	0.945532	0.261444	-0.567982
C215	C	1.278866	0.594777	-0.234649
C216	C	1.612199	0.928110	0.098684
C217	C	0.865344	0.341605	-0.567921
C218	C	1.198677	0.674939	-0.234588
C219	C	1.532011	1.008272	0.098746
C220	C	0.865354	0.341589	-0.633356
C221	C	1.198687	0.674922	-0.300023
C222	C	1.532020	1.008256	0.033310
C223	C	0.905449	0.301495	-0.666101
C224	C	1.238782	0.634828	-0.332768
C225	C	1.572115	0.968162	0.000565
C226	C	0.905400	0.301580	-0.139383
C227	C	1.238734	0.634913	0.193950
C228	C	1.572067	0.968247	0.527284
C229	C	0.905510	0.301421	-0.069742
C230	C	1.238843	0.634754	0.263591
C231	C	1.572176	0.968087	0.596925
H232	H	0.465158	0.310710	-0.404557
H233	H	0.798492	0.644044	-0.071223
H234	H	1.131825	0.977377	0.262110
F235	F	0.822771	1.070660	-0.384889
F236	F	1.156104	1.403994	-0.051556
F237	F	1.489438	1.737327	0.281778
F238	F	0.136356	0.384361	-0.384844
F239	F	0.469689	0.717695	-0.051511
F240	F	0.803022	1.051028	0.281823
F241	F	0.988199	0.218792	-0.533201
F242	F	1.321532	0.552126	-0.199867
F243	F	1.654866	0.885459	0.133466
H244	H	0.978230	0.943698	-0.229631
H245	H	1.311563	1.277031	0.103702
H246	H	1.644896	1.610365	0.437036
H247	H	0.832641	0.658840	-0.374788
H248	H	1.165974	0.992174	-0.041455
H249	H	1.499307	1.325507	0.291879
H250	H	0.346446	0.310682	-0.404599
H251	H	0.679780	0.644016	-0.071265
H252	H	1.013113	0.977349	0.262068
H253	H	0.978281	1.062405	-0.229666
H254	H	1.311615	1.395738	0.103667
H255	H	1.644948	1.729071	0.437000
H256	H	0.548174	0.374416	-0.374690
H257	H	0.881507	0.707750	-0.041357
H258	H	1.214841	1.041083	0.291976
H259	H	0.832596	0.540126	-0.374770
H260	H	1.165929	0.873459	-0.041437
H261	H	1.499263	1.206793	0.291897
H262	H	0.832774	0.374149	-1.063606
H263	H	1.166107	0.707482	-0.730273
H264	H	1.499440	1.040815	-0.396939
H265	H	0.832746	0.943765	-0.374851
H266	H	1.166079	1.277098	-0.041518
H267	H	1.499412	1.610432	0.291816
F268	F	0.988284	0.218694	-1.071907
F269	F	1.321617	0.552027	-0.738573
F270	F	1.654951	0.885361	-0.405240
F271	F	0.788915	0.868929	-0.312276
F272	F	1.122249	1.202263	0.021057
F273	F	1.455582	1.535596	0.354390
F274	F	0.988249	0.218707	-0.936836
F275	F	1.321582	0.552041	-0.603503
F276	F	1.654916	0.885374	-0.270170
H277	H	0.832712	0.374219	-0.659966
H278	H	1.166045	0.707553	-0.326633
H279	H	1.499378	1.040886	0.006701
H280	H	0.802981	0.742029	-0.311033
H281	H	1.136314	1.075362	0.022300
H282	H	1.469647	1.408695	0.355633
F283	F	1.022018	0.291229	-0.870086
F284	F	1.355351	0.624563	-0.536753
F285	F	1.688685	0.957896	-0.203420
F286	F	0.822674	0.384270	-0.533069
F287	F	1.156007	0.717604	-0.199735
F288	F	1.489340	1.050937	0.133598
H289	H	0.263245	0.374363	-0.374793
H290	H	0.596578	0.707696	-0.041459
H291	H	0.929911	1.041030	0.291874
F292	F	0.136359	0.218710	-0.219709
F293	F	0.469692	0.552043	0.113624
F294	F	0.803026	0.885377	0.446957
F295	F	0.271430	0.218738	-0.219661
F296	F	0.604763	0.552071	0.113673
F297	F	0.938097	0.885405	0.447006
F298	F	0.338076	0.291229	-0.185682
F299	F	0.671409	0.624563	0.147652
F300	F	1.004743	0.957896	0.480985
H301	H	0.803033	0.310472	-0.743087
H302	H	1.136367	0.643805	-0.409754
H303	H	1.469700	0.977138	-0.076420
F304	F	1.022001	0.291265	-0.735013
F305	F	1.355334	0.624598	-0.401679
F306	F	1.688667	0.957931	-0.068346
H307	H	0.978184	0.228777	-0.660081
H308	H	1.311517	0.562110	-0.326748
H309	H	1.644851	0.895444	0.006585
H310	H	0.464975	0.292507	-0.199747
H311	H	0.798308	0.625841	0.133586
H312	H	1.131641	0.959174	0.466920
F313	F	0.788934	0.311678	-0.869966
F314	F	1.122268	0.645012	-0.536633
F315	F	1.455601	0.978345	-0.203300
H316	H	0.666881	0.374445	-0.374644
H317	H	1.000214	0.707779	-0.041310
H318	H	1.333547	1.041112	0.292023
F319	F	0.539996	0.218792	-0.219566
F320	F	0.873329	0.552125	0.113767
F321	F	1.206662	0.885459	0.447100
H322	H	0.666888	0.228841	-0.229522
H323	H	1.000221	0.562175	0.103811
H324	H	1.333554	0.895508	0.437144
F325	F	0.988100	0.531876	-0.219537
F326	F	1.321433	0.865209	0.113796
F327	F	1.654767	1.198543	0.447129
H328	H	0.978122	0.658768	-0.229572
H329	H	1.311456	0.992102	0.103761
H330	H	1.644789	1.325435	0.437094
H331	H	1.007834	0.741795	-0.293357
H332	H	1.341168	1.075128	0.039977
H333	H	1.674501	1.408462	0.373310
H334	H	1.007879	0.860508	-0.293386
H335	H	1.341213	1.193842	0.039947
H336	H	1.674546	1.527175	0.373280
H337	H	0.832757	0.374163	-0.944892
H338	H	1.166090	0.707496	-0.611559
H339	H	1.499423	1.040829	-0.278226
