data_functionalizedCrystal
_audit_creation_method	'MofGen! by Chris Wilmer'
_symmetry_space_group_name_H-M	'P1'
_symmetry_Int_Tables_number	1
_symmetry_cell_setting	triclinic
loop_
_symmetry_equiv_pos_as_xyz
  x,y,z
_cell_length_a	21.395364
_cell_length_b	12.759400
_cell_length_c	21.395355
_cell_angle_alpha	90.012729
_cell_angle_beta	90.024552
_cell_angle_gamma	90.028117
loop_
_atom_site_label
_atom_site_type_symbol
_atom_site_fract_x
_atom_site_fract_y
_atom_site_fract_z
Zn1	Zn	0.957936	-0.417969	0.354287
Zn2	Zn	1.457936	0.082031	0.854287
Zn3	Zn	0.957870	-0.593633	0.249520
Zn4	Zn	1.457870	-0.093633	0.749520
Zn5	Zn	0.853151	-0.418015	0.249523
Zn6	Zn	1.353151	0.081985	0.749523
Zn7	Zn	0.853152	-0.593652	0.354260
Zn8	Zn	1.353152	-0.093652	0.854260
O9	O	0.905527	-0.505817	0.301897
O10	O	1.405527	-0.005817	0.801897
O11	O	1.045605	-0.441244	0.340399
O12	O	1.545605	0.058756	0.840399
O13	O	0.943951	-0.570349	0.161842
O14	O	1.443951	-0.070349	0.661842
O15	O	0.867077	-0.270988	0.263433
O16	O	1.367077	0.229012	0.763433
O17	O	1.045557	-0.570304	0.263427
O18	O	1.545557	-0.070304	0.763427
O19	O	0.944062	-0.270954	0.340402
O20	O	1.444062	0.229046	0.840402
O21	O	0.867014	-0.441322	0.161845
O22	O	1.367014	0.058678	0.661845
O23	O	0.765473	-0.441341	0.263407
O24	O	1.265473	0.058659	0.763407
O25	O	0.867079	-0.570336	0.441941
O26	O	1.367079	-0.070336	0.941941
O27	O	0.765474	-0.570381	0.340357
O28	O	1.265474	-0.070381	0.840357
O29	O	0.944064	-0.441262	0.441961
O30	O	1.444064	0.058738	0.941961
O31	O	0.943952	-0.740657	0.263401
O32	O	1.443952	-0.240657	0.763401
O33	O	0.867016	-0.740671	0.340353
O34	O	1.367016	-0.240671	0.840353
C35	C	0.742739	-0.505868	0.301880
C36	C	1.242739	-0.005868	0.801880
C37	C	0.673098	-0.505916	0.301887
C38	C	1.173098	-0.005916	0.801887
C39	C	0.640432	-0.438824	0.342028
C40	C	1.140432	0.061176	0.842028
C41	C	0.574997	-0.438796	0.342031
C42	C	1.074997	0.061204	0.842031
C43	C	0.542230	-0.505878	0.301899
C44	C	1.042230	-0.005878	0.801899
C45	C	0.574903	-0.572975	0.261750
C46	C	1.074903	-0.072975	0.761750
C47	C	0.640338	-0.572993	0.261744
C48	C	1.140338	-0.072993	0.761744
C49	C	0.438523	-0.600493	0.296867
C50	C	0.938523	-0.100493	0.796867
C51	C	0.373090	-0.600476	0.296877
C52	C	0.873090	-0.100476	0.796877
C53	C	0.340409	-0.505821	0.301913
C54	C	0.840409	-0.005821	0.801913
C55	C	0.373169	-0.411179	0.306951
C56	C	0.873169	0.088821	0.806951
C57	C	0.438604	-0.411197	0.306946
C58	C	0.938604	0.088803	0.806946
C59	C	0.471277	-0.505865	0.301900
C60	C	0.971277	-0.005865	0.801900
C61	C	0.236791	-0.438693	0.342058
C62	C	0.736791	0.061307	0.842058
C63	C	0.171354	-0.438663	0.342056
C64	C	0.671354	0.061337	0.842056
C65	C	0.171262	-0.572851	0.261779
C66	C	0.671262	-0.072851	0.761779
C67	C	0.236697	-0.572872	0.261777
C68	C	0.736697	-0.072872	0.761777
C69	C	0.269458	-0.505794	0.301921
C70	C	0.769458	-0.005794	0.801921
C71	C	0.905494	-0.778785	0.301888
C72	C	1.405494	-0.278785	0.801888
C73	C	0.905537	-0.895561	0.301904
C74	C	1.405537	-0.395561	0.801904
C75	C	0.945603	-0.950326	0.342015
C76	C	1.445603	-0.450326	0.842015
C77	C	0.945633	-1.060050	0.342030
C78	C	1.445633	-0.560050	0.842030
C79	C	0.865528	-1.060235	0.261819
C80	C	1.365528	-0.560235	0.761819
C81	C	0.865496	-0.950513	0.261807
C82	C	1.365496	-0.450513	0.761807
C83	C	0.991853	-0.950220	0.388323
C84	C	1.491853	-0.450220	0.888323
C85	C	0.991882	-1.059944	0.388338
C86	C	1.491882	-0.559944	0.888338
C87	C	1.068950	-0.505767	0.301915
C88	C	1.568950	-0.005767	0.801915
C89	C	1.138592	-0.505745	0.301923
C90	C	1.638592	-0.005745	0.801923
C91	C	0.905579	-0.505796	0.465321
C92	C	1.405579	-0.005796	0.965321
C93	C	0.905601	-0.505787	0.534962
C94	C	1.405601	-0.005787	1.034962
C95	C	0.905577	-0.231784	0.301921
C96	C	1.405577	0.268216	0.801921
C97	C	0.905598	-0.115007	0.301931
C98	C	1.405598	0.384993	0.801931
C99	C	0.905511	-0.505763	0.139110
C100	C	1.405511	-0.005763	0.639110
C101	C	0.905610	-0.505476	0.069469
C102	C	1.405610	-0.005476	0.569469
C103	C	0.945685	-0.438575	0.567686
C104	C	1.445685	0.061425	1.067686
C105	C	0.945684	-0.438530	0.633122
C106	C	1.445684	0.061470	1.133122
C107	C	0.905606	-0.505715	0.665830
C108	C	1.405606	-0.005715	1.165830
C109	C	0.865514	-0.572932	0.633098
C110	C	1.365514	-0.072932	1.133098
C111	C	0.865512	-0.572967	0.567664
C112	C	1.365512	-0.072967	1.067664
C113	C	0.900647	-0.600316	0.769502
C114	C	1.400647	-0.100316	1.269502
C115	C	0.900654	-0.600282	0.834935
C116	C	1.400654	-0.100282	1.334935
C117	C	0.905610	-0.505604	0.867651
C118	C	1.405610	-0.005604	1.367651
C119	C	0.910572	-0.410957	0.834927
C120	C	1.410572	0.089043	1.334927
C121	C	0.910569	-0.410993	0.769493
C122	C	1.410569	0.089007	1.269493
C123	C	0.905604	-0.505684	0.736783
C124	C	1.405604	-0.005684	1.236783
C125	C	0.945695	-0.438338	0.971328
C126	C	1.445695	0.061662	1.471328
C127	C	0.945690	-0.438291	1.036765
C128	C	1.445690	0.061709	1.536765
C129	C	0.865523	-0.572702	1.036740
C130	C	1.365523	-0.072702	1.536740
C131	C	0.865525	-0.572739	0.971305
C132	C	1.365525	-0.072739	1.471305
C133	C	0.905614	-0.505559	0.938603
C134	C	1.405614	-0.005559	1.438603
H135	H	0.346562	-0.334101	0.311052
H136	H	0.846562	0.165899	0.811052
H137	H	0.978827	-0.920433	0.436834
H138	H	1.478827	-0.420433	0.936834
H139	H	0.832868	-0.627698	0.541020
H140	H	1.332868	-0.127698	1.041020
H141	H	0.832884	-0.627395	1.063371
H142	H	1.332884	-0.127395	1.563371
H143	H	0.667102	-0.384203	0.374716
H144	H	1.167102	0.115797	0.874716
F145	F	0.271659	-0.367298	0.384778
F146	F	0.771659	0.132702	0.884778
H147	H	1.040424	-1.089653	0.375391
H148	H	1.540424	-0.589653	0.875391
F149	F	0.988349	-0.367071	0.532886
F150	F	1.488349	0.132929	1.032886
H151	H	0.978324	-0.383793	0.659771
H152	H	1.478324	0.116207	1.159771
H153	H	1.037946	-0.916124	0.370978
H154	H	1.537946	-0.416124	0.870978
H155	H	0.832927	-1.104990	0.229174
H156	H	1.332927	-0.604990	0.729174
F157	F	0.473298	-0.701245	0.291500
F158	F	0.973298	-0.201245	0.791500
H159	H	0.914608	-0.333928	0.742851
H160	H	1.414608	0.166072	1.242851
F161	F	0.822841	-0.892232	0.219128
F162	F	1.322841	-0.392232	0.719128
H163	H	0.548220	-0.627593	0.229073
H164	H	1.048220	-0.127593	0.729073
H165	H	0.666934	-0.627629	0.229055
H166	H	1.166934	-0.127629	0.729055
F167	F	0.969165	-1.104426	0.448579
F168	F	1.469165	-0.604426	0.948579
H169	H	0.832888	-0.627477	0.944660
H170	H	1.332888	-0.127477	1.444660
H171	H	0.263294	-0.627509	0.229093
H172	H	0.763294	-0.127509	0.729093
H173	H	0.978335	-0.383630	0.944701
H174	H	1.478335	0.116370	1.444701
H175	H	0.914608	-0.333861	0.861563
H176	H	1.414608	0.166139	1.361563
H177	H	0.896618	-0.677350	0.861574
H178	H	1.396618	-0.177350	1.361574
F179	F	0.895387	-0.701095	0.734689
F180	F	1.395387	-0.201095	1.234689
H181	H	0.465274	-0.334137	0.311046
H182	H	0.965274	0.165863	0.811046
F183	F	0.988362	-0.366763	1.071592
F184	F	1.488362	0.133237	1.571592
H185	H	0.144759	-0.384023	0.374743
H186	H	0.644759	0.115977	0.874743
F187	F	0.338230	-0.701202	0.291523
F188	F	0.838230	-0.201202	0.791523
H189	H	0.832880	-0.627631	0.659734
H190	H	1.332880	-0.127631	1.159734
H191	H	0.548395	-0.384157	0.374718
H192	H	1.048395	0.115843	0.874718
H193	H	0.144583	-0.627471	0.229102
H194	H	0.644583	-0.127471	0.729102
