data_functionalizedCrystal
_audit_creation_method	'MofGen! by Chris Wilmer'
_symmetry_space_group_name_H-M	'P1'
_symmetry_Int_Tables_number	1
_symmetry_cell_setting	triclinic
loop_
_symmetry_equiv_pos_as_xyz
  x,y,z
_cell_length_a	21.395364
_cell_length_b	21.395362
_cell_length_c	21.395356
_cell_angle_alpha	90.027652
_cell_angle_beta	90.016383
_cell_angle_gamma	90.044742
loop_
_atom_site_label
_atom_site_type_symbol
_atom_site_fract_x
_atom_site_fract_y
_atom_site_fract_z
Zn1	Zn	0.957813	-0.249217	0.354253
Zn2	Zn	1.457813	0.250783	0.854253
Zn3	Zn	0.957732	-0.353990	0.249471
Zn4	Zn	1.457732	0.146010	0.749471
Zn5	Zn	0.853043	-0.249258	0.249489
Zn6	Zn	1.353043	0.250742	0.749489
Zn7	Zn	0.852999	-0.353988	0.354212
Zn8	Zn	1.352999	0.146012	0.854212
O9	O	0.905396	-0.301613	0.301856
O10	O	1.405396	0.198387	0.801856
O11	O	1.045480	-0.263099	0.340363
O12	O	1.545480	0.236901	0.840363
O13	O	0.943829	-0.340115	0.161796
O14	O	1.443829	0.159885	0.661796
O15	O	0.866993	-0.161574	0.263411
O16	O	1.366993	0.338426	0.763411
O17	O	1.045420	-0.340076	0.263381
O18	O	1.545420	0.159924	0.763381
O19	O	0.943967	-0.161545	0.340380
O20	O	1.443967	0.338455	0.840380
O21	O	0.866914	-0.263168	0.161809
O22	O	1.366914	0.236832	0.661809
O23	O	0.765359	-0.263167	0.263371
O24	O	1.265359	0.236833	0.763371
O25	O	0.866918	-0.340073	0.441895
O26	O	1.366918	0.159927	0.941895
O27	O	0.765327	-0.340112	0.340310
O28	O	1.265327	0.159888	0.840310
O29	O	0.943924	-0.263098	0.441925
O30	O	1.443924	0.236902	0.941925
O31	O	0.943786	-0.441668	0.263341
O32	O	1.443786	0.058332	0.763341
O33	O	0.866839	-0.441666	0.340293
O34	O	1.366839	0.058334	0.840293
C35	C	0.742609	-0.301644	0.301839
C36	C	1.242609	0.198356	0.801839
C37	C	0.672968	-0.301672	0.301846
C38	C	1.172968	0.198328	0.801846
C39	C	0.640308	-0.261656	0.341993
C40	C	1.140308	0.238344	0.841993
C41	C	0.574872	-0.261639	0.341995
C42	C	1.074872	0.238361	0.841995
C43	C	0.542099	-0.301650	0.301857
C44	C	1.042099	0.198350	0.801857
C45	C	0.574767	-0.341669	0.261703
C46	C	1.074767	0.158331	0.761703
C47	C	0.640201	-0.341680	0.261697
C48	C	1.140201	0.158320	0.761697
C49	C	0.438376	-0.358075	0.296818
C50	C	0.938376	0.141925	0.796818
C51	C	0.372944	-0.358065	0.296828
C52	C	0.872944	0.141935	0.796828
C53	C	0.340279	-0.301615	0.301871
C54	C	0.840279	0.198385	0.801871
C55	C	0.373054	-0.245174	0.306918
C56	C	0.873054	0.254826	0.806918
C57	C	0.438489	-0.245185	0.306912
C58	C	0.938489	0.254815	0.806912
C59	C	0.471147	-0.301642	0.301859
C60	C	0.971147	0.198358	0.801859
C61	C	0.236666	-0.261578	0.342023
C62	C	0.736666	0.238422	0.842023
C63	C	0.171230	-0.261560	0.342021
C64	C	0.671230	0.238440	0.842021
C65	C	0.171125	-0.341595	0.261732
C66	C	0.671125	0.158405	0.761732
C67	C	0.236561	-0.341607	0.261731
C68	C	0.736561	0.158393	0.761731
C69	C	0.269327	-0.301599	0.301879
C70	C	0.769327	0.198401	0.801879
C71	C	0.905316	-0.464401	0.301824
C72	C	1.405316	0.035599	0.801824
C73	C	0.905339	-0.534042	0.301831
C74	C	1.405339	-0.034042	0.801831
C75	C	0.945397	-0.566683	0.341938
C76	C	1.445397	-0.066683	0.841938
C77	C	0.945419	-0.632118	0.341953
C78	C	1.445419	-0.132118	0.841953
C79	C	0.905390	-0.664911	0.301851
C80	C	1.405390	-0.164911	0.801851
C81	C	0.865325	-0.632262	0.261742
C82	C	1.365325	-0.132262	0.761742
C83	C	0.865299	-0.566828	0.261732
C84	C	1.365299	-0.066828	0.761732
C85	C	0.900521	-0.768619	0.245412
C86	C	1.400521	-0.268619	0.745412
C87	C	0.900551	-0.834052	0.245421
C88	C	1.400551	-0.334052	0.745421
C89	C	0.905464	-0.866731	0.301881
C90	C	1.405464	-0.366731	0.801881
C91	C	0.910362	-0.833969	0.358334
C92	C	1.410362	-0.333969	0.858334
C93	C	0.910336	-0.768535	0.358325
C94	C	1.410336	-0.268535	0.858325
C95	C	0.905413	-0.735863	0.301857
C96	C	1.405413	-0.235863	0.801857
C97	C	0.945548	-0.970325	0.342007
C98	C	1.445548	-0.470325	0.842007
C99	C	0.945565	-1.035761	0.342024
C100	C	1.445565	-0.535761	0.842024
C101	C	0.865475	-1.035903	0.261807
C102	C	1.365475	-0.535903	0.761807
C103	C	0.865454	-0.970468	0.261796
C104	C	1.365454	-0.470468	0.761796
C105	C	0.905494	-0.937682	0.301895
C106	C	1.405494	-0.437682	0.801895
C107	C	1.068820	-0.301583	0.301874
C108	C	1.568820	0.198417	0.801874
C109	C	1.138461	-0.301570	0.301882
C110	C	1.638461	0.198430	0.801882
C111	C	0.905425	-0.301580	0.465280
C112	C	1.405425	0.198420	0.965280
C113	C	0.905437	-0.301566	0.534921
C114	C	1.405437	0.198434	1.034921
C115	C	0.905494	-0.138190	0.301902
C116	C	1.405494	0.361810	0.801902
C117	C	0.905535	-0.068549	0.301922
C118	C	1.405535	0.431451	0.801922
C119	C	0.905404	-0.301601	0.139069
C120	C	1.405404	0.198399	0.639069
C121	C	0.905513	-0.301438	0.069428
C122	C	1.405513	0.198562	0.569428
C123	C	0.945557	-0.341501	1.036711
C124	C	1.445557	0.158499	1.536711
C125	C	0.945546	-0.341521	0.971276
C126	C	1.445546	0.158479	1.471276
C127	C	0.905497	-0.301467	0.938559
C128	C	1.405497	0.198533	1.438559
C129	C	0.865445	-0.261402	0.971284
C130	C	1.365445	0.238598	1.471284
C131	C	0.865453	-0.261387	1.036718
C132	C	1.365453	0.238613	1.536718
C133	C	0.900571	-0.245041	0.834906
C134	C	1.400571	0.254959	1.334906
C135	C	0.900567	-0.245054	0.769473
C136	C	1.400567	0.254946	1.269473
C137	C	0.905469	-0.301511	0.736739
C138	C	1.405469	0.198489	1.236739
C139	C	0.910387	-0.357957	0.769445
C140	C	1.410387	0.142043	1.269445
C141	C	0.910395	-0.357943	0.834879
C142	C	1.410395	0.142057	1.334879
C143	C	0.905484	-0.301478	0.867607
C144	C	1.405484	0.198522	1.367607
C145	C	0.945503	-0.341599	0.633069
C146	C	1.445503	0.158401	1.133069
C147	C	0.945487	-0.341620	0.567632
C148	C	1.445487	0.158380	1.067632
C149	C	0.865390	-0.261495	0.567642
C150	C	1.365390	0.238505	1.067642
C151	C	0.865402	-0.261480	0.633078
C152	C	1.365402	0.238520	1.133078
C153	C	0.905462	-0.301531	0.665787
C154	C	1.405462	0.198469	1.165787
H155	H	0.465172	-0.199228	0.311019
H156	H	0.965172	0.300772	0.811019
C157	C	0.821317	-0.668334	0.217605
C158	C	1.321317	-0.168334	0.717605
N159	N	0.788177	-0.695504	0.184352
N160	N	1.288177	-0.195504	0.684352
H161	H	0.832844	-0.228762	1.063356
H162	H	1.332844	0.271238	1.563356
H163	H	0.896620	-0.199060	0.861553
H164	H	1.396620	0.300940	1.361553
C165	C	0.676347	-0.217638	0.386150
C166	C	1.176347	0.282362	0.886150
N167	N	0.703493	-0.184481	0.419406
N168	N	1.203493	0.315519	0.919406
C169	C	0.272488	-0.385633	0.217571
C170	C	0.772488	0.114367	0.717571
N171	N	0.299548	-0.418795	0.184306
N172	N	0.799548	0.081205	0.684306
C173	C	0.821396	-0.217338	0.935295
C174	C	1.321396	0.282662	1.435295
N175	N	0.788216	-0.184148	0.908188
N176	N	1.288216	0.315852	1.408188
C177	C	0.989558	-0.385678	0.531644
C178	C	1.489558	0.114322	1.031644
N179	N	1.022760	-0.418857	0.504537
N180	N	1.522760	0.081143	1.004537
C181	C	0.989637	-1.071666	0.386143
C182	C	1.489637	-0.571666	0.886143
N183	N	1.022835	-1.098710	0.419373
N184	N	1.522835	-0.598710	0.919373
H185	H	0.263346	-0.228997	0.374710
H186	H	0.763346	0.271003	0.874710
H187	H	0.832796	-0.228854	0.659716
H188	H	1.332796	0.271146	1.159716
H189	H	0.144639	-0.228971	0.374712
H190	H	0.644639	0.271029	0.874712
H191	H	0.978175	-0.374116	1.063339
H192	H	1.478175	0.125884	1.563339
H193	H	0.346262	-0.404023	0.292722
H194	H	0.846262	0.095977	0.792722
H195	H	0.978164	-0.374137	0.944632
H196	H	1.478164	0.125863	1.444632
C197	C	0.538939	-0.217621	0.386165
C198	C	1.038939	0.282379	0.886165
N199	N	0.511876	-0.184467	0.419435
N200	N	1.011876	0.315533	0.919435
C201	C	0.915797	-0.420032	0.870854
C202	C	1.415797	0.079968	1.370854
N203	N	0.919862	-0.466799	0.897950
N204	N	1.419862	0.033201	1.397950
H205	H	0.978121	-0.374213	0.659703
H206	H	1.478121	0.125787	1.159703
H207	H	0.464967	-0.404047	0.292710
H208	H	0.964967	0.095953	0.792710
C209	C	0.915778	-0.420065	0.733442
C210	C	1.415778	0.079935	1.233442
N211	N	0.919838	-0.466843	0.706321
N212	N	1.419838	0.033157	1.206321
C213	C	0.135079	-0.385607	0.217579
C214	C	0.635079	0.114393	0.717579
N215	N	0.107925	-0.418757	0.184322
N216	N	0.607925	0.081243	0.684322
C217	C	0.337128	-0.183073	0.312460
C218	C	0.837128	0.316927	0.812460
N219	N	0.310065	-0.136301	0.316633
N220	N	0.810065	0.363699	0.816633
H221	H	0.548079	-0.374245	0.229022
H222	H	1.048079	0.125755	0.729022
H223	H	0.666792	-0.374266	0.229004
H224	H	1.166792	0.125734	0.729004
C225	C	0.821334	-0.217437	0.531658
C226	C	1.321334	0.282563	1.031658
N227	N	0.788148	-0.184252	0.504552
N228	N	1.288148	0.315748	1.004552
H229	H	0.977998	-0.539991	0.374591
H230	H	1.477998	-0.039991	0.874591
C231	C	0.989490	-0.668030	0.386072
C232	C	1.489490	-0.168030	0.886072
N233	N	1.022685	-0.695078	0.419302
N234	N	1.522685	-0.195078	0.919302
H235	H	0.914322	-0.741862	0.404290
H236	H	1.414322	-0.241862	0.904290
C237	C	0.895156	-0.182964	0.733503
C238	C	1.395156	0.317036	1.233503
N239	N	0.891079	-0.136195	0.706411
N240	N	1.391079	0.363805	1.206411
C241	C	0.915765	-0.869912	0.420446
C242	C	1.415765	-0.369912	0.920446
N243	N	0.919835	-0.896986	0.467227
N244	N	1.419835	-0.396986	0.967227
C245	C	0.821229	-0.530922	0.217612
C246	C	1.321229	-0.030922	0.717612
N247	N	0.788034	-0.503877	0.184381
N248	N	1.288034	-0.003877	0.684381
C249	C	0.989584	-0.934258	0.386126
C250	C	1.489584	-0.434258	0.886126
N251	N	1.022750	-0.907095	0.419358
N252	N	1.522750	-0.407095	0.919358
H253	H	0.832838	-0.943890	0.229135
H254	H	1.332838	-0.443890	0.729135
C255	C	0.895163	-0.870084	0.183321
C256	C	1.395163	-0.370084	0.683321
N257	N	0.891104	-0.897221	0.136546
N258	N	1.391104	-0.397221	0.636546
C259	C	0.821434	-1.071971	0.217702
C260	C	1.321434	-0.571971	0.717702
N261	N	0.788257	-1.099140	0.184485
N262	N	1.288257	-0.599140	0.684485
H263	H	0.896517	-0.742017	0.199432
H264	H	1.396517	-0.242017	0.699432
