data_functionalizedCrystal
_audit_creation_method	'MofGen! by Chris Wilmer'
_symmetry_space_group_name_H-M	'P1'
_symmetry_Int_Tables_number	1
_symmetry_cell_setting	triclinic
loop_
_symmetry_equiv_pos_as_xyz
  x,y,z
_cell_length_a	12.759400
_cell_length_b	11.169417
_cell_length_c	11.169409
_cell_angle_alpha	90.021649
_cell_angle_beta	89.966244
_cell_angle_gamma	89.987206
loop_
_atom_site_label
_atom_site_type_symbol
_atom_site_fract_x
_atom_site_fract_y
_atom_site_fract_z
Zn1	Zn	-0.418231	-1.834927	-0.678589
Zn2	Zn	-0.084898	-1.501594	-0.345256
Zn3	Zn	0.248436	-1.168260	-0.011923
Zn4	Zn	-0.593957	-1.834802	-0.477901
Zn5	Zn	-0.260623	-1.501468	-0.144568
Zn6	Zn	0.072710	-1.168135	0.188765
Zn7	Zn	-0.418287	-1.634213	-0.477917
Zn8	Zn	-0.084954	-1.300880	-0.144584
Zn9	Zn	0.248380	-0.967546	0.188749
Zn10	Zn	-0.593863	-1.634206	-0.678540
Zn11	Zn	-0.260530	-1.300872	-0.345206
Zn12	Zn	0.072804	-0.967539	-0.011873
O13	O	-0.506084	-1.734537	-0.578237
O14	O	-0.172751	-1.401203	-0.244904
O15	O	0.160582	-1.067870	0.088430
O16	O	-0.441557	-2.002860	-0.651982
O17	O	-0.108224	-1.669527	-0.318648
O18	O	0.225109	-1.336193	0.014685
O19	O	-0.570716	-1.808144	-0.309954
O20	O	-0.237383	-1.474810	0.023380
O21	O	0.095950	-1.141477	0.356713
O22	O	-0.271258	-1.660894	-0.504564
O23	O	0.062075	-1.327560	-0.171231
O24	O	0.395408	-0.994227	0.162102
O25	O	-0.570662	-2.002768	-0.504537
O26	O	-0.237329	-1.669435	-0.171204
O27	O	0.096005	-1.336101	0.162130
O28	O	-0.271217	-1.808357	-0.651997
O29	O	0.062116	-1.475024	-0.318664
O30	O	0.395449	-1.141691	0.014669
O31	O	-0.441653	-1.660772	-0.309965
O32	O	-0.108319	-1.327439	0.023368
O33	O	0.225014	-0.994105	0.356701
O34	O	-0.441562	-1.466262	-0.504516
O35	O	-0.108228	-1.132929	-0.171183
O36	O	0.225105	-0.799596	0.162150
O37	O	-0.570503	-1.660881	-0.846496
O38	O	-0.237169	-1.327548	-0.513163
O39	O	0.096164	-0.994214	-0.179829
O40	O	-0.570557	-1.466257	-0.651913
O41	O	-0.237223	-1.132924	-0.318579
O42	O	0.096110	-0.799590	0.014754
O43	O	-0.441466	-1.808350	-0.846533
O44	O	-0.108133	-1.475017	-0.513199
O45	O	0.225200	-1.141684	-0.179866
O46	O	-0.740965	-1.808137	-0.504489
O47	O	-0.407632	-1.474803	-0.171156
O48	O	-0.074299	-1.141470	0.162178
O49	O	-0.740897	-1.660759	-0.651897
O50	O	-0.407563	-1.327426	-0.318564
O51	O	-0.074230	-0.994093	0.014770
C52	C	-0.506056	-1.422712	-0.578212
C53	C	-0.172723	-1.089379	-0.244878
C54	C	0.160611	-0.756045	0.088455
C55	C	-0.506069	-1.289312	-0.578229
C56	C	-0.172736	-0.955979	-0.244896
C57	C	0.160598	-0.622645	0.088438
C58	C	-0.779052	-1.734466	-0.578212
C59	C	-0.445719	-1.401133	-0.244879
C60	C	-0.112385	-1.067800	0.088455
C61	C	-0.895828	-1.734546	-0.578242
C62	C	-0.562495	-1.401212	-0.244908
C63	C	-0.229162	-1.067879	0.088425
C64	C	-1.060422	-1.811443	-0.501609
C65	C	-0.727089	-1.478110	-0.168276
C66	C	-0.393756	-1.144777	0.165057
C67	C	-0.950698	-1.811371	-0.501572
C68	C	-0.617365	-1.478038	-0.168238
C69	C	-0.284032	-1.144705	0.165095
C70	C	-0.950688	-1.657778	-0.654946
C71	C	-0.617355	-1.324445	-0.321612
C72	C	-0.284022	-0.991112	0.011721
C73	C	-1.060410	-1.657845	-0.654976
C74	C	-0.727077	-1.324512	-0.321643
C75	C	-0.393744	-0.991179	0.011690
C76	C	-0.232051	-1.734640	-0.578288
C77	C	0.101282	-1.401307	-0.244955
C78	C	0.434616	-1.067974	0.088379
C79	C	-0.115274	-1.734684	-0.578310
C80	C	0.218059	-1.401351	-0.244977
C81	C	0.551392	-1.068018	0.088357
C82	C	-0.505968	-1.734629	-0.891279
C83	C	-0.172634	-1.401296	-0.557946
C84	C	0.160699	-1.067962	-0.224613
C85	C	-0.505918	-1.734668	-1.024680
C86	C	-0.172585	-1.401335	-0.691346
C87	C	0.160749	-1.068002	-0.358013
C88	C	-0.506104	-1.047579	-0.578255
C89	C	-0.172770	-0.714246	-0.244922
C90	C	0.160563	-0.380912	0.088412
C91	C	-0.506086	-1.180979	-0.578242
C92	C	-0.172753	-0.847646	-0.244909
C93	C	0.160581	-0.514312	0.088424
C94	C	-0.506125	-1.734514	-0.266412
C95	C	-0.172792	-1.401181	0.066921
C96	C	0.160542	-1.067847	0.400255
C97	C	-0.505879	-1.734707	-0.133013
C98	C	-0.172545	-1.401374	0.200321
C99	C	0.160788	-1.068041	0.533654
H100	H	-1.105090	-1.874010	-0.439182
H101	H	-0.771756	-1.540677	-0.105849
H102	H	-0.438423	-1.207344	0.227485
H103	H	-0.906041	-1.873874	-0.439114
H104	H	-0.572707	-1.540540	-0.105780
H105	H	-0.239374	-1.207207	0.227553
F106	F	-1.118791	-1.576141	-0.736614
F107	F	-0.785458	-1.242808	-0.403280
F108	F	-0.452125	-0.909474	-0.069947
H109	H	-0.906007	-1.595219	-0.717367
H110	H	-0.572673	-1.261886	-0.384034
H111	H	-0.239340	-0.928553	-0.050701
