data_functionalizedCrystal
_audit_creation_method	'MofGen! by Chris Wilmer'
_symmetry_space_group_name_H-M	'P1'
_symmetry_Int_Tables_number	1
_symmetry_cell_setting	triclinic
loop_
_symmetry_equiv_pos_as_xyz
  x,y,z
_cell_length_a	12.759401
_cell_length_b	12.759393
_cell_length_c	12.759399
_cell_angle_alpha	89.968481
_cell_angle_beta	90.015631
_cell_angle_gamma	89.979927
loop_
_atom_site_label
_atom_site_type_symbol
_atom_site_fract_x
_atom_site_fract_y
_atom_site_fract_z
Zn1	Zn	1.606237	-0.594059	-0.418204
Zn2	Zn	1.606131	-0.418380	-0.593923
Zn3	Zn	1.430542	-0.418390	-0.418259
Zn4	Zn	1.430524	-0.594013	-0.593841
O5	O	1.518359	-0.506210	-0.506057
O6	O	1.753244	-0.570769	-0.441525
O7	O	1.582803	-0.271360	-0.570678
O8	O	1.453900	-0.441716	-0.271230
O9	O	1.753166	-0.441699	-0.570625
O10	O	1.582982	-0.570779	-0.271190
O11	O	1.453798	-0.271367	-0.441618
O12	O	1.283519	-0.441672	-0.441539
O13	O	1.453869	-0.741040	-0.570485
O14	O	1.283506	-0.570701	-0.570538
O15	O	1.582965	-0.741074	-0.441445
O16	O	1.582785	-0.441654	-0.740933
O17	O	1.453767	-0.570691	-0.740873
C18	C	1.245391	-0.506183	-0.506036
C19	C	1.128615	-0.506196	-0.506053
C20	C	1.518427	-0.780244	-0.505950
C21	C	1.518456	-0.897020	-0.505904
C22	C	0.963978	-0.438935	-0.573191
C23	C	1.073702	-0.438906	-0.573172
C24	C	1.073797	-0.573514	-0.438941
C25	C	0.964075	-0.573538	-0.438956
C26	C	0.963925	-0.361223	-0.650692
C27	C	1.073649	-0.361193	-0.650672
C28	C	1.451312	-0.951892	-0.438690
C29	C	1.451343	-1.061617	-0.438659
C30	C	1.585673	-1.061587	-0.573058
C31	C	1.585635	-0.951865	-0.573094
C32	C	1.373761	-0.951910	-0.361092
C33	C	1.373792	-1.061634	-0.361061
C34	C	1.792392	-0.506238	-0.506078
C35	C	1.909168	-0.506250	-0.506087
C36	C	1.518291	-0.506189	-0.779024
C37	C	1.518359	-0.506216	-0.895801
C38	C	1.518351	-0.233243	-0.506087
C39	C	1.518526	-0.116467	-0.505837
C40	C	1.451313	-0.439006	-1.060503
C41	C	1.451242	-0.438980	-0.950779
C42	C	1.585544	-0.573490	-0.950551
C43	C	1.585610	-0.573521	-1.060273
C44	C	1.373778	-0.361344	-1.060634
C45	C	1.373706	-0.361318	-0.950910
C46	C	1.518455	-0.506254	-0.232023
C47	C	1.518495	-0.506273	-0.115247
H48	H	0.919453	-0.628343	-0.384305
H49	H	0.929898	-0.390246	-0.728023
F50	F	1.118081	-0.260219	-0.612451
H51	H	1.103429	-0.382846	-0.732063
H52	H	1.640295	-0.907192	-0.627841
H53	H	1.640368	-1.106255	-0.627761
H54	H	1.292371	-0.922129	-0.382881
H55	H	1.118515	-0.628296	-0.384284
F56	F	1.411882	-0.907445	-0.260086
F57	F	1.272768	-1.106110	-0.399145
H58	H	0.934106	-0.279896	-0.628812
F59	F	1.402193	-1.100588	-0.254661
F60	F	1.657094	-0.645134	-1.118532
F61	F	1.656965	-0.645058	-0.892036
H62	H	1.292413	-0.383070	-1.090463
F63	F	1.411961	-0.260367	-1.105173
F64	F	1.272627	-0.399308	-0.906482
H65	H	1.395533	-0.279961	-0.921179
