data_functionalizedCrystal
_audit_creation_method	'MofGen! by Chris Wilmer'
_symmetry_space_group_name_H-M	'P1'
_symmetry_Int_Tables_number	1
_symmetry_cell_setting	triclinic
loop_
_symmetry_equiv_pos_as_xyz
  x,y,z
_cell_length_a	12.759401
_cell_length_b	17.077402
_cell_length_c	12.759393
_cell_angle_alpha	90.032432
_cell_angle_beta	90.020938
_cell_angle_gamma	90.025017
loop_
_atom_site_label
_atom_site_type_symbol
_atom_site_fract_x
_atom_site_fract_y
_atom_site_fract_z
Zn1	Zn	1.606202	-0.312438	0.594006
Zn2	Zn	2.106202	0.187562	1.094006
Zn3	Zn	1.606066	-0.443724	0.418320
Zn4	Zn	2.106066	0.056276	0.918320
Zn5	Zn	1.430501	-0.312480	0.418341
Zn6	Zn	1.930501	0.187520	0.918341
Zn7	Zn	1.430466	-0.443669	0.593957
Zn8	Zn	1.930466	0.056331	1.093957
O9	O	1.518309	-0.378078	0.506156
O10	O	2.018309	0.121922	1.006156
O11	O	1.753205	-0.329859	0.570712
O12	O	2.253205	0.170141	1.070712
O13	O	1.582735	-0.426355	0.271302
O14	O	2.082735	0.073645	0.771302
O15	O	1.453880	-0.202628	0.441673
O16	O	1.953880	0.297372	0.941673
O17	O	1.753105	-0.426314	0.441637
O18	O	2.253105	0.073686	0.941637
O19	O	1.582967	-0.202597	0.570733
O20	O	2.082967	0.297403	1.070733
O21	O	1.453748	-0.329930	0.271317
O22	O	1.953748	0.170070	0.771317
O23	O	1.283475	-0.329877	0.441625
O24	O	1.783475	0.170123	0.941625
O25	O	1.453820	-0.426221	0.740985
O26	O	1.953820	0.073779	1.240985
O27	O	1.283449	-0.426261	0.570650
O28	O	1.783449	0.073739	1.070650
O29	O	1.582933	-0.329806	0.741021
O30	O	2.082933	0.170194	1.241021
O31	O	1.582701	-0.553564	0.441590
O32	O	2.082701	-0.053564	0.941590
O33	O	1.453688	-0.553524	0.570630
O34	O	1.953688	-0.053524	1.070630
C35	C	1.245341	-0.378068	0.506135
C36	C	1.745341	0.121932	1.006135
C37	C	1.128565	-0.378083	0.506151
C38	C	1.628565	0.121917	1.006151
C39	C	1.073717	-0.428347	0.573229
C40	C	1.573717	0.071653	1.073229
C41	C	0.963993	-0.428350	0.573249
C42	C	1.463993	0.071650	1.073249
C43	C	0.963974	-0.327823	0.439107
C44	C	1.463974	0.172177	0.939107
C45	C	1.073696	-0.327817	0.439092
C46	C	1.573696	0.172183	0.939092
C47	C	1.518205	-0.582026	0.506125
C48	C	2.018205	-0.082026	1.006125
C49	C	1.518256	-0.669276	0.506147
C50	C	2.018256	-0.169276	1.006147
C51	C	1.585435	-0.710182	0.573402
C52	C	2.085435	-0.210182	1.073402
C53	C	1.585479	-0.792163	0.573425
C54	C	2.085479	-0.292163	1.073425
C55	C	1.518349	-0.833235	0.506185
C56	C	2.018349	-0.333235	1.006185
C57	C	1.451162	-0.792323	0.438927
C58	C	1.951162	-0.292323	0.938927
C59	C	1.451114	-0.710344	0.438910
C60	C	1.951114	-0.210344	0.938910
C61	C	1.451270	-0.963193	0.438963
C62	C	1.951270	-0.463193	0.938963
C63	C	1.451320	-1.045177	0.438978
C64	C	1.951320	-0.545177	0.938978
C65	C	1.585636	-1.045012	0.573478
C66	C	2.085636	-0.545012	1.073478
C67	C	1.585587	-0.963033	0.573462
C68	C	2.085587	-0.463033	1.073462
C69	C	1.518402	-0.922126	0.506201
C70	C	2.018402	-0.422126	1.006201
C71	C	1.792342	-0.378088	0.506178
C72	C	2.292342	0.121912	1.006178
C73	C	1.909119	-0.378093	0.506187
C74	C	2.409119	0.121907	1.006187
C75	C	1.518387	-0.378003	0.780190
C76	C	2.018387	0.121997	1.280190
C77	C	1.518421	-0.377971	0.896966
C78	C	2.018421	0.122029	1.396966
C79	C	1.518442	-0.173334	0.506210
C80	C	2.018442	0.326666	1.006210
C81	C	1.518499	-0.086084	0.506234
C82	C	2.018499	0.413916	1.006234
C83	C	1.518291	-0.378096	0.233189
C84	C	2.018291	0.121904	0.733189
C85	C	1.518461	-0.377907	0.116413
C86	C	2.018461	0.122093	0.616413
C87	C	1.585655	-0.327759	0.951849
C88	C	2.085655	0.172241	1.451849
C89	C	1.585673	-0.327725	1.061573
C90	C	2.085673	0.172275	1.561573
C91	C	1.451220	-0.428121	1.061523
C92	C	1.951220	0.071879	1.561523
C93	C	1.451197	-0.428150	0.951801
C94	C	1.951197	0.071850	1.451801
H95	H	1.118355	-0.286881	0.384469
H96	H	1.618355	0.213119	0.884469
O97	O	1.658178	-0.273563	1.120774
O98	O	2.158178	0.226437	1.620774
H99	H	1.711609	-0.308680	1.170778
H100	H	2.211609	0.191320	1.670778
H101	H	1.640339	-1.078322	0.628244
H102	H	2.140339	-0.578322	1.128244
H103	H	1.396409	-0.677038	0.384145
H104	H	1.896409	-0.177038	0.884145
H105	H	1.396491	-0.468977	1.106182
H106	H	1.896491	0.031023	1.606182
H107	H	1.396652	-1.078616	0.384230
H108	H	1.896652	-0.578616	0.884230
O109	O	0.904806	-0.273613	0.366767
O110	O	1.404806	0.226387	0.866767
H111	H	0.925839	-0.287003	0.284281
H112	H	1.425839	0.212997	0.784281
H113	H	1.396499	-0.825770	0.384183
H114	H	1.896499	-0.325770	0.884183
H115	H	0.919341	-0.469279	0.627872
H116	H	1.419341	0.030721	1.127872
O117	O	1.378644	-0.482294	0.892610
O118	O	1.878644	0.017706	1.392610
H119	H	1.396604	-0.543904	0.913638
H120	H	1.896604	-0.043904	1.413638
O121	O	1.132902	-0.482550	0.645565
O122	O	1.632902	0.017450	1.145565
H123	H	1.076324	-0.517495	0.692220
H124	H	1.576324	-0.017495	1.192220
H125	H	1.640105	-0.676747	0.628152
H126	H	2.140105	-0.176747	1.128152
O127	O	1.657937	-0.836287	0.645963
O128	O	2.157937	-0.336287	1.145963
H129	H	1.704617	-0.793954	0.692706
H130	H	2.204617	-0.293954	1.192706
O131	O	1.658013	-0.918728	0.645958
O132	O	2.158013	-0.418728	1.145958
H133	H	1.704740	-0.960944	0.692730
H134	H	2.204740	-0.460944	1.192730
O135	O	1.378816	-0.919067	0.366413
O136	O	1.878816	-0.419067	0.866413
H137	H	1.332154	-0.961398	0.319649
H138	H	1.832154	-0.461398	0.819649
O139	O	1.658148	-0.273634	0.892701
O140	O	2.158148	0.226366	1.392701
H141	H	1.704895	-0.238708	0.949302
H142	H	2.204895	0.261292	1.449302
