data_functionalizedCrystal
_audit_creation_method	'MofGen! by Chris Wilmer'
_symmetry_space_group_name_H-M	'P1'
_symmetry_Int_Tables_number	1
_symmetry_cell_setting	triclinic
loop_
_symmetry_equiv_pos_as_xyz
  x,y,z
_cell_length_a	11.169416
_cell_length_b	12.759401
_cell_length_c	12.759393
_cell_angle_alpha	89.979062
_cell_angle_beta	90.027570
_cell_angle_gamma	89.988135
loop_
_atom_site_label
_atom_site_type_symbol
_atom_site_fract_x
_atom_site_fract_y
_atom_site_fract_z
Zn1	Zn	-0.477700	-1.606298	0.594041
Zn2	Zn	-0.678429	-1.606203	0.418371
Zn3	Zn	-0.477764	-1.430597	0.418377
Zn4	Zn	-0.678345	-1.430602	0.594008
O5	O	-0.578060	-1.518425	0.506199
O6	O	-0.504336	-1.753307	0.570750
O7	O	-0.651872	-1.582866	0.271350
O8	O	-0.309806	-1.453942	0.441696
O9	O	-0.651810	-1.753236	0.441685
O10	O	-0.309759	-1.583029	0.570756
O11	O	-0.504445	-1.453849	0.271355
O12	O	-0.504363	-1.283577	0.441663
O13	O	-0.651667	-1.453951	0.741033
O14	O	-0.651729	-1.283580	0.570698
O15	O	-0.504254	-1.583034	0.741058
O16	O	-0.846368	-1.582871	0.441653
O17	O	-0.846306	-1.453858	0.570692
C18	C	-0.889884	-1.518383	0.506191
C19	C	-1.023284	-1.518462	0.506223
C20	C	-0.578045	-1.245458	0.506178
C21	C	-0.578068	-1.128681	0.506194
C22	C	-0.577944	-1.518504	0.780233
C23	C	-0.577895	-1.518537	0.897009
C24	C	-0.265017	-1.518495	0.506230
C25	C	-0.131617	-1.518525	0.506243
C26	C	-0.578075	-1.792458	0.506221
C27	C	-0.578082	-1.909235	0.506230
C28	C	-0.654918	-1.073849	0.573277
C29	C	-0.654923	-0.964125	0.573298
C30	C	-0.501223	-0.964075	0.439144
C31	C	-0.501213	-1.073797	0.439129
C32	C	-0.578088	-1.518407	0.233232
C33	C	-0.577799	-1.518577	0.116456
C34	C	-0.501125	-1.585756	0.951886
C35	C	-0.501073	-1.585773	1.061610
C36	C	-0.654573	-1.451351	1.061571
C37	C	-0.654617	-1.451329	0.951849
H38	H	-0.717495	-1.118532	0.627889
H39	H	-0.717500	-0.919485	0.627925
C40	C	-0.416720	-1.659668	0.891565
H41	H	-0.370982	-1.699694	0.939967
H42	H	-0.462642	-1.705428	0.848761
H43	H	-0.364439	-1.619470	0.848766
H44	H	-0.438625	-1.118443	0.384502
H45	H	-0.438557	-1.640508	1.106286
H46	H	-0.717039	-1.396635	1.106235
H47	H	-0.438653	-0.919375	0.384540
H48	H	-0.717132	-1.396584	0.907168
