data_functionalizedCrystal
_audit_creation_method	'MofGen! by Chris Wilmer'
_symmetry_space_group_name_H-M	'P1'
_symmetry_Int_Tables_number	1
_symmetry_cell_setting	triclinic
loop_
_symmetry_equiv_pos_as_xyz
  x,y,z
_cell_length_a	21.395362
_cell_length_b	21.395361
_cell_length_c	21.395356
_cell_angle_alpha	90.031183
_cell_angle_beta	90.035878
_cell_angle_gamma	90.046585
loop_
_atom_site_label
_atom_site_type_symbol
_atom_site_fract_x
_atom_site_fract_y
_atom_site_fract_z
Zn1	Zn	0.957810	-0.249186	0.354573
Zn2	Zn	1.291143	0.084148	0.687906
Zn3	Zn	1.624476	0.417481	1.021239
Zn4	Zn	0.957727	-0.353963	0.249790
Zn5	Zn	1.291060	-0.020630	0.583123
Zn6	Zn	1.624394	0.312703	0.916456
Zn7	Zn	0.853039	-0.249233	0.249774
Zn8	Zn	1.186373	0.084101	0.583107
Zn9	Zn	1.519706	0.417434	0.916440
Zn10	Zn	0.852994	-0.353959	0.354494
Zn11	Zn	1.186327	-0.020625	0.687828
Zn12	Zn	1.519660	0.312708	1.021161
O13	O	0.905392	-0.301585	0.302158
O14	O	1.238726	0.031748	0.635491
O15	O	1.572059	0.365082	0.968824
O16	O	1.045477	-0.263067	0.340712
O17	O	1.378810	0.070266	0.674046
O18	O	1.712143	0.403600	1.007379
O19	O	0.943824	-0.340092	0.162110
O20	O	1.277158	-0.006759	0.495443
O21	O	1.610491	0.326575	0.828776
O22	O	0.866991	-0.161548	0.263702
O23	O	1.200324	0.171785	0.597035
O24	O	1.533658	0.505118	0.930368
O25	O	1.045416	-0.340047	0.263729
O26	O	1.378749	-0.006713	0.597062
O27	O	1.712082	0.326620	0.930395
O28	O	0.943965	-0.161514	0.340697
O29	O	1.277299	0.171819	0.674030
O30	O	1.610632	0.505153	1.007364
O31	O	0.866911	-0.263147	0.162098
O32	O	1.200244	0.070186	0.495431
O33	O	1.533577	0.403520	0.828765
O34	O	0.765355	-0.263142	0.263626
O35	O	1.098689	0.070191	0.596959
O36	O	1.432022	0.403524	0.930293
O37	O	0.866913	-0.340039	0.442183
O38	O	1.200247	-0.006705	0.775516
O39	O	1.533580	0.326628	1.108849
O40	O	0.765322	-0.340084	0.340564
O41	O	1.098655	-0.006751	0.673897
O42	O	1.431989	0.326583	1.007230
O43	O	0.943921	-0.263062	0.442240
O44	O	1.277255	0.070271	0.775573
O45	O	1.610588	0.403604	1.108907
O46	O	0.943780	-0.441641	0.263653
O47	O	1.277113	-0.108307	0.596986
O48	O	1.610447	0.225026	0.930319
O49	O	0.866833	-0.441637	0.340579
O50	O	1.200166	-0.108304	0.673912
O51	O	1.533500	0.225030	1.007246
C52	C	0.742605	-0.301618	0.302085
C53	C	1.075938	0.031715	0.635418
C54	C	1.409271	0.365048	0.968752
C55	C	0.672963	-0.301647	0.302069
C56	C	1.006297	0.031686	0.635402
C57	C	1.339630	0.365019	0.968735
C58	C	0.640249	-0.341764	0.342070
C59	C	0.973583	-0.008431	0.675403
C60	C	1.306916	0.324903	1.008737
C61	C	0.574814	-0.341749	0.342098
C62	C	0.908147	-0.008415	0.675431
C63	C	1.241481	0.324918	1.008765
C64	C	0.542095	-0.301623	0.302113
C65	C	0.875429	0.031710	0.635447
C66	C	1.208762	0.365043	0.968780
C67	C	0.574817	-0.261499	0.262109
C68	C	0.908151	0.071834	0.595442
C69	C	1.241484	0.405168	0.928776
C70	C	0.640251	-0.261511	0.262087
C71	C	0.973585	0.071822	0.595420
C72	C	1.306918	0.405156	0.928753
C73	C	0.438378	-0.296585	0.245708
C74	C	0.771712	0.036748	0.579042
C75	C	1.105045	0.370081	0.912375
C76	C	0.372945	-0.296578	0.245730
C77	C	0.706279	0.036756	0.579063
C78	C	1.039612	0.370089	0.912396
C79	C	0.340274	-0.301582	0.302182
C80	C	0.673608	0.031751	0.635516
C81	C	1.006941	0.365084	0.968849
C82	C	0.373045	-0.306608	0.358616
C83	C	0.706378	0.026725	0.691949
C84	C	1.039711	0.360059	1.025282
C85	C	0.438479	-0.306620	0.358594
C86	C	0.771812	0.026713	0.691927
C87	C	1.105145	0.360047	1.025260
C88	C	0.471143	-0.301605	0.302133
C89	C	0.804476	0.031728	0.635467
C90	C	1.137809	0.365061	0.968800
C91	C	0.236608	-0.341685	0.342218
C92	C	0.569941	-0.008351	0.675551
C93	C	0.903274	0.324982	1.008884
C94	C	0.171171	-0.341665	0.342247
C95	C	0.504505	-0.008331	0.675580
C96	C	0.837838	0.325002	1.008913
C97	C	0.171176	-0.261418	0.262252
C98	C	0.504509	0.071915	0.595585
C99	C	0.837842	0.405248	0.928919
C100	C	0.236611	-0.261435	0.262229
C101	C	0.569944	0.071899	0.595562
C102	C	0.903278	0.405232	0.928895
C103	C	0.269323	-0.301571	0.302211
C104	C	0.602657	0.031762	0.635544
C105	C	0.935990	0.365095	0.968877
C106	C	0.905310	-0.464373	0.302123
C107	C	1.238643	-0.131039	0.635456
C108	C	1.571976	0.202294	0.968789
C109	C	0.905332	-0.534014	0.302129
C110	C	1.238665	-0.200681	0.635462
C111	C	1.571998	0.132653	0.968795
C112	C	0.945433	-0.566708	0.262114
C113	C	1.278767	-0.233375	0.595448
C114	C	1.612100	0.099959	0.928781
C115	C	0.945463	-0.632143	0.262128
C116	C	1.278796	-0.298810	0.595462
C117	C	1.612129	0.034523	0.928795
C118	C	0.905379	-0.664882	0.302150
C119	C	1.238712	-0.331549	0.635484
C120	C	1.572045	0.001784	0.968817
C121	C	0.865274	-0.632180	0.342172
C122	C	1.198607	-0.298847	0.675506
C123	C	1.531941	0.034486	1.008839
C124	C	0.865251	-0.566746	0.342162
C125	C	1.198584	-0.233413	0.675495
C126	C	1.531917	0.099921	1.008828
C127	C	0.848963	-0.768612	0.307041
C128	C	1.182297	-0.435279	0.640374
C129	C	1.515630	-0.101946	0.973708
C130	C	0.848986	-0.834045	0.307047
C131	C	1.182319	-0.500712	0.640381
C132	C	1.515653	-0.167378	0.973714
C133	C	0.905452	-0.866703	0.302187
C134	C	1.238785	-0.533370	0.635520
C135	C	1.572118	-0.200036	0.968854
C136	C	0.961897	-0.833920	0.297307
C137	C	1.295230	-0.500586	0.630640
C138	C	1.628563	-0.167253	0.963974
C139	C	0.961873	-0.768486	0.297296
C140	C	1.295207	-0.435152	0.630630
C141	C	1.628540	-0.101819	0.963963
C142	C	0.905400	-0.735835	0.302167
C143	C	1.238733	-0.402501	0.635500
C144	C	1.572067	-0.069168	0.968833
C145	C	0.945588	-0.970350	0.262186
C146	C	1.278922	-0.637016	0.595519
C147	C	1.612255	-0.303683	0.928852
C148	C	0.945619	-1.035786	0.262204
C149	C	1.278952	-0.702453	0.595537
C150	C	1.612285	-0.369119	0.928871
C151	C	0.865425	-1.035822	0.342245
C152	C	1.198758	-0.702488	0.675578
C153	C	1.532091	-0.369155	1.008911
C154	C	0.865400	-0.970386	0.342230
C155	C	1.198733	-0.637053	0.675563
C156	C	1.532067	-0.303720	1.008896
C157	C	0.905481	-0.937654	0.302197
C158	C	1.238814	-0.604321	0.635530
C159	C	1.572148	-0.270988	0.968863
C160	C	1.068816	-0.301552	0.302231
C161	C	1.402149	0.031781	0.635564
C162	C	1.735482	0.365114	0.968898
C163	C	1.138457	-0.301538	0.302262
C164	C	1.471790	0.031795	0.635595
C165	C	1.805124	0.365128	0.968929
C166	C	0.905421	-0.301545	0.465581
C167	C	1.238755	0.031789	0.798914
C168	C	1.572088	0.365122	1.132248
C169	C	0.905434	-0.301528	0.535222
C170	C	1.238767	0.031806	0.868556
C171	C	1.572100	0.365139	1.201889
C172	C	0.905493	-0.138162	0.302206
C173	C	1.238826	0.195172	0.635540
C174	C	1.572159	0.528505	0.968873
C175	C	0.905535	-0.068520	0.302227
C176	C	1.238868	0.264813	0.635560
C177	C	1.572202	0.598146	0.968894
C178	C	0.905400	-0.301580	0.139370
C179	C	1.238733	0.031753	0.472703
C180	C	1.572066	0.365087	0.806037
C181	C	0.905509	-0.301421	0.069729
C182	C	1.238842	0.031913	0.403062
C183	C	1.572175	0.365246	0.736396
C184	C	0.945591	-0.261346	1.037050
C185	C	1.278924	0.071987	1.370383
C186	C	1.612257	0.405320	1.703716
C187	C	0.945586	-0.261361	0.971614
C188	C	1.278919	0.071972	1.304947
C189	C	1.612252	0.405305	1.638281
C190	C	0.905488	-0.301444	0.938861
C191	C	1.238821	0.031889	1.272194
C192	C	1.572154	0.365223	1.605527
C193	C	0.865403	-0.341526	0.971548
C194	C	1.198736	-0.008193	1.304882
C195	C	1.532069	0.325141	1.638215
C196	C	0.865413	-0.341514	1.036982
C197	C	1.198746	-0.008181	1.370316
C198	C	1.532080	0.325152	1.703649
C199	C	0.849019	-0.306422	0.835165
C200	C	1.182352	0.026912	1.168499
C201	C	1.515685	0.360245	1.501832
C202	C	0.849007	-0.306429	0.769732
C203	C	1.182340	0.026904	1.103066
C204	C	1.515674	0.360238	1.436399
C205	C	0.905455	-0.301484	0.737040
C206	C	1.238789	0.031849	1.070373
C207	C	1.572122	0.365182	1.403707
C208	C	0.961917	-0.296519	0.769788
C209	C	1.295251	0.036815	1.103122
C210	C	1.628584	0.370148	1.436455
C211	C	0.961928	-0.296507	0.835223
C212	C	1.295261	0.036826	1.168556
C213	C	1.628594	0.370160	1.501889
C214	C	0.905472	-0.301462	0.867908
C215	C	1.238805	0.031872	1.201242
C216	C	1.572139	0.365205	1.534575
C217	C	0.945536	-0.261424	0.633408
C218	C	1.278869	0.071909	0.966741
C219	C	1.612202	0.405242	1.300074
C220	C	0.945532	-0.261444	0.567971
C221	C	1.278865	0.071890	0.901304
C222	C	1.612198	0.405223	1.234638
C223	C	0.865343	-0.341605	0.567906
C224	C	1.198676	-0.008272	0.901240
C225	C	1.532010	0.325061	1.234573
C226	C	0.865352	-0.341589	0.633342
C227	C	1.198686	-0.008256	0.966675
C228	C	1.532019	0.325078	1.300008
C229	C	0.905448	-0.301495	0.666089
C230	C	1.238781	0.031838	0.999422
C231	C	1.572115	0.365172	1.332755
H232	H	0.144536	-0.374331	0.374824
H233	H	0.477870	-0.040998	0.708158
H234	H	0.811203	0.292335	1.041491
H235	H	0.832697	-0.374244	0.541239
H236	H	1.166030	-0.040910	0.874573
H237	H	1.499363	0.292423	1.207906
Br238	Br	0.772383	-0.878530	0.313666
Br239	Br	1.105716	-0.545197	0.647000
Br240	Br	1.439050	-0.211863	0.980333
Br241	Br	0.281012	-0.206988	0.207938
Br242	Br	0.614346	0.126346	0.541271
Br243	Br	0.947679	0.459679	0.874604
H244	H	1.007877	-0.860508	0.293349
H245	H	1.341210	-0.527175	0.626683
H246	H	1.674543	-0.193842	0.960016
Br247	Br	0.530415	-0.207037	0.207849
Br248	Br	0.863748	0.126296	0.541182
Br249	Br	1.197082	0.459629	0.874515
H250	H	0.978183	-0.228777	0.660072
H251	H	1.311517	0.104556	0.993405
H252	H	1.644850	0.437890	1.326738
Br253	Br	1.038551	-0.289777	0.879666
Br254	Br	1.371884	0.043557	1.212999
Br255	Br	1.705217	0.376890	1.546332
Br256	Br	1.038473	-0.723995	0.290678
Br257	Br	1.371806	-0.390662	0.624012
Br258	Br	1.705140	-0.057329	0.957345
H259	H	0.978071	-0.540059	0.229519
H260	H	1.311405	-0.206726	0.562852
H261	H	1.644738	0.126607	0.896185
Br262	Br	0.482711	-0.289793	0.169087
Br263	Br	0.816044	0.043540	0.502420
Br264	Br	1.149377	0.376873	0.835753
Br265	Br	0.126779	-0.206955	0.207992
Br266	Br	0.460112	0.126378	0.541325
Br267	Br	0.793446	0.459711	0.874658
H268	H	0.978227	-0.943698	0.229590
H269	H	1.311560	-0.610365	0.562924
H270	H	1.644894	-0.277031	0.896257
Br271	Br	0.810987	-0.395929	0.927099
Br272	Br	1.144320	-0.062595	1.260433
Br273	Br	1.477654	0.270738	1.593766
H274	H	0.978278	-1.062405	0.229621
H275	H	1.311612	-0.729071	0.562954
H276	H	1.644945	-0.395738	0.896287
H277	H	0.346269	-0.292489	0.199778
H278	H	0.679602	0.040844	0.533111
H279	H	1.012936	0.374177	0.866445
Br280	Br	0.530406	-0.396195	0.396391
Br281	Br	0.863739	-0.062862	0.729724
Br282	Br	1.197073	0.270471	1.063057
H283	H	0.465157	-0.310710	0.404543
H284	H	0.798491	0.022623	0.737877
H285	H	1.131824	0.355956	1.071210
H286	H	0.666887	-0.228841	0.229513
H287	H	1.000220	0.104492	0.562846
H288	H	1.333554	0.437825	0.896179
Br289	Br	0.999890	-0.676524	0.207819
Br290	Br	1.333224	-0.343191	0.541153
Br291	Br	1.666557	-0.009857	0.874486
H292	H	0.832790	-1.062477	0.374834
H293	H	1.166124	-0.729144	0.708168
H294	H	1.499457	-0.395810	1.041501
Br295	Br	0.810972	-0.926012	0.396537
Br296	Br	1.144305	-0.592679	0.729870
Br297	Br	1.477638	-0.259346	1.063203
Br298	Br	0.810952	-0.395979	0.677696
Br299	Br	1.144286	-0.062645	1.011029
Br300	Br	1.477619	0.270688	1.344363
Br301	Br	0.772381	-0.313159	0.725294
Br302	Br	1.105714	0.020175	1.058628
Br303	Br	1.439048	0.353508	1.391961
Br304	Br	0.772324	-0.724298	0.313640
Br305	Br	1.105658	-0.390964	0.646974
Br306	Br	1.438991	-0.057631	0.980307
H307	H	0.978225	-0.228726	0.945001
H308	H	1.311558	0.104607	1.278335
H309	H	1.644892	0.437941	1.611668
H310	H	1.007883	-0.292490	0.743172
H311	H	1.341216	0.040843	1.076505
H312	H	1.674550	0.374177	1.409838
Br313	Br	0.810879	-0.676609	0.396493
Br314	Br	1.144212	-0.343276	0.729826
Br315	Br	1.477546	-0.009943	1.063160
H316	H	0.803048	-0.310449	0.861778
H317	H	1.136381	0.022884	1.195111
H318	H	1.469715	0.356218	1.528445
Br319	Br	0.328714	-0.313399	0.435237
Br320	Br	0.662048	0.019935	0.768570
Br321	Br	0.995381	0.353268	1.101903
Br322	Br	0.999939	-0.207058	0.523619
Br323	Br	1.333273	0.126275	0.856952
Br324	Br	1.666606	0.459609	1.190285
Br325	Br	0.281007	-0.396151	0.396480
Br326	Br	0.614340	-0.062818	0.729813
Br327	Br	0.947673	0.270515	1.063146
H328	H	0.832594	-0.540126	0.374747
H329	H	1.165928	-0.206793	0.708080
H330	H	1.499261	0.126541	1.041414
Br331	Br	1.000032	-0.206960	1.081489
Br332	Br	1.333365	0.126373	1.414822
Br333	Br	1.666698	0.459707	1.748156
H334	H	0.666879	-0.374445	0.374627
H335	H	1.000213	-0.041112	0.707961
H336	H	1.333546	0.292221	1.041294
Br337	Br	0.811013	-0.395907	1.081337
Br338	Br	1.144346	-0.062573	1.414670
Br339	Br	1.477680	0.270760	1.748003
