data_functionalizedCrystal
_audit_creation_method	'MofGen! by Chris Wilmer'
_symmetry_space_group_name_H-M	'P1'
_symmetry_Int_Tables_number	1
_symmetry_cell_setting	triclinic
loop_
_symmetry_equiv_pos_as_xyz
  x,y,z
_cell_length_a	17.077404
_cell_length_b	17.077402
_cell_length_c	17.077396
_cell_angle_alpha	90.026173
_cell_angle_beta	90.019777
_cell_angle_gamma	90.019781
loop_
_atom_site_label
_atom_site_type_symbol
_atom_site_fract_x
_atom_site_fract_y
_atom_site_fract_z
Zn1	Zn	1.200046	-0.312605	0.443861
Zn2	Zn	1.199950	-0.443880	0.312600
Zn3	Zn	1.068778	-0.312621	0.312608
Zn4	Zn	1.068743	-0.443822	0.443823
O5	O	1.134379	-0.378232	0.378223
O6	O	1.309880	-0.330036	0.426461
O7	O	1.182524	-0.426499	0.202754
O8	O	1.086246	-0.202772	0.330038
O9	O	1.309810	-0.426483	0.330025
O10	O	1.182689	-0.202760	0.426469
O11	O	1.086153	-0.330064	0.202760
O12	O	0.958927	-0.330008	0.330002
O13	O	1.086186	-0.426385	0.553675
O14	O	0.958901	-0.426401	0.426405
O15	O	1.182654	-0.329980	0.553703
O16	O	1.182490	-0.553719	0.329988
O17	O	1.086092	-0.553677	0.426397
C18	C	0.930431	-0.378200	0.378201
C19	C	0.843182	-0.378206	0.378210
C20	C	1.134298	-0.582180	0.378205
C21	C	1.134335	-0.669430	0.378223
C22	C	0.467374	-0.428536	0.428364
C23	C	0.549355	-0.428526	0.428352
C24	C	0.590333	-0.378253	0.378236
C25	C	0.549326	-0.327992	0.328123
C26	C	0.467347	-0.328007	0.328131
C27	C	0.720196	-0.327964	0.328110
C28	C	0.802181	-0.327948	0.328102
C29	C	0.802204	-0.428482	0.428330
C30	C	0.720225	-0.428497	0.428339
C31	C	0.679224	-0.378235	0.378227
C32	C	1.184735	-1.045240	0.328114
C33	C	1.184695	-0.963259	0.328100
C34	C	1.134449	-0.922278	0.378251
C35	C	1.084234	-0.963282	0.428413
C36	C	1.084271	-1.045261	0.428422
C37	C	1.084162	-0.792412	0.428391
C38	C	1.084126	-0.710427	0.428383
C39	C	1.184586	-0.710410	0.328069
C40	C	1.184623	-0.792389	0.328079
C41	C	1.134409	-0.833387	0.378242
C42	C	1.339124	-0.378264	0.378246
C43	C	1.426373	-0.378278	0.378256
C44	C	1.134427	-0.378174	0.582968
C45	C	1.134447	-0.378149	0.670217
C46	C	1.134482	-0.173488	0.378259
C47	C	1.134526	-0.086238	0.378274
C48	C	1.134377	-0.378233	0.174275
C49	C	1.134509	-0.378036	0.087026
C50	C	1.184680	-0.327947	0.711223
C51	C	1.184689	-0.327921	0.793204
C52	C	1.134469	-0.378102	0.834177
C53	C	1.084231	-0.428306	0.793165
C54	C	1.084218	-0.428328	0.711186
C55	C	1.084263	-0.428259	0.964035
C56	C	1.084276	-0.428238	1.046020
C57	C	1.184734	-0.327852	1.046053
C58	C	1.184721	-0.327874	0.964074
C59	C	1.134483	-0.378080	0.923068
H60	H	0.434016	-0.469470	0.469179
H61	H	1.225596	-0.287043	0.826587
O62	O	0.589219	-0.279268	0.279400
C63	C	0.636595	-0.323887	0.228607
H64	H	0.648876	-0.383408	0.256187
H65	H	0.604977	-0.332441	0.170421
C66	C	0.699386	-0.207561	0.180592
C67	C	0.714475	-0.280664	0.214469
H68	H	0.747424	-0.180898	0.171867
H69	H	0.667465	-0.177499	0.214810
H70	H	0.673035	-0.214699	0.132107
H71	H	0.740816	-0.273524	0.262956
H72	H	0.746402	-0.310723	0.180258
O73	O	0.427395	-0.279261	0.279481
C74	C	0.346252	-0.290042	0.290246
H75	H	0.335058	-0.350655	0.315853
H76	H	0.323011	-0.243538	0.332128
C77	C	0.317879	-0.208313	0.179387
C78	C	0.304130	-0.282762	0.210831
H79	H	0.291895	-0.203820	0.130401
H80	H	0.372546	-0.201047	0.172136
H81	H	0.298511	-0.169568	0.214296
H82	H	0.323507	-0.321505	0.175926
H83	H	0.249465	-0.290035	0.218074
H84	H	1.043318	-0.929911	0.469244
O85	O	1.035274	-0.670537	0.476989
C86	C	0.984568	-0.623194	0.432247
H87	H	1.012284	-0.610920	0.372785
H88	H	0.926415	-0.654839	0.423567
C89	C	0.936252	-0.560387	0.548451
C90	C	0.970296	-0.545307	0.475422
H91	H	0.927445	-0.512344	0.575085
H92	H	0.970411	-0.592285	0.578596
H93	H	0.887795	-0.586760	0.541208
H94	H	1.018756	-0.518944	0.482666
H95	H	0.936144	-0.513403	0.445279
O96	O	1.035416	-0.477004	1.085702
C97	C	0.991081	-0.521331	1.031932
H98	H	0.988368	-0.489196	0.973499
H99	H	1.019788	-0.580958	1.023207
C100	C	0.910869	-0.572082	1.135685
C101	C	0.907532	-0.532610	1.063918
H102	H	0.859333	-0.579043	1.155416
H103	H	0.940740	-0.542221	1.171911
H104	H	0.934795	-0.621768	1.128404
H105	H	0.883615	-0.482922	1.071202
H106	H	0.877655	-0.562463	1.027694
H107	H	1.225542	-0.825754	0.287245
H108	H	0.835543	-0.287004	0.287301
O109	O	1.035362	-0.832117	0.477196
C110	C	0.990994	-0.778370	0.521448
H111	H	1.023116	-0.719904	0.524183
H112	H	0.931385	-0.769717	0.492654
C113	C	0.940204	-0.882132	0.601628
C114	C	0.979661	-0.810326	0.604994
H115	H	0.933210	-0.901845	0.653162
H116	H	0.970093	-0.918344	0.571813
H117	H	0.890534	-0.874913	0.577630
H118	H	1.029333	-0.817548	0.628983
H119	H	0.949780	-0.774116	0.634815
O120	O	1.233508	-0.923345	0.279487
C121	C	1.284170	-0.875871	0.324220
H122	H	1.256444	-0.863579	0.383681
H123	H	1.342353	-0.907410	0.332903
C124	C	1.332423	-0.813109	0.208004
C125	C	1.298366	-0.798006	0.281032
H126	H	1.341183	-0.765080	0.181363
H127	H	1.298293	-0.845096	0.177865
H128	H	1.380905	-0.839394	0.215250
H129	H	1.249880	-0.771731	0.273785
H130	H	1.332488	-0.766014	0.311169
H131	H	1.225656	-1.078601	0.287280
H132	H	1.225619	-0.287017	0.930716
H133	H	1.043305	-0.469199	0.677800
H134	H	1.043389	-1.078641	0.469272
O135	O	0.680282	-0.279097	0.279543
C136	C	0.632910	-0.228454	0.324336
H137	H	0.620649	-0.256225	0.383773
H138	H	0.664521	-0.170291	0.333067
C139	C	0.570080	-0.180079	0.208181
C140	C	0.555016	-0.214191	0.281180
H141	H	0.522033	-0.171277	0.181559
H142	H	0.601998	-0.214196	0.178002
H143	H	0.596425	-0.131613	0.215466
H144	H	0.528680	-0.262660	0.273892
H145	H	0.523092	-0.180082	0.311356
O146	O	1.233490	-0.279127	0.671547
C147	C	1.277841	-0.234825	0.725324
H148	H	1.245698	-0.232089	0.783755
H149	H	1.337445	-0.263577	0.734049
C150	C	1.328669	-0.154652	0.621582
C151	C	1.289188	-0.151285	0.693347
H152	H	1.335672	-0.103121	0.601857
H153	H	1.298792	-0.184500	0.585351
H154	H	1.378336	-0.178615	0.628863
H155	H	1.239519	-0.127331	0.686064
H156	H	1.319057	-0.121430	0.729577
H157	H	0.582734	-0.469453	0.469153
O158	O	1.035578	-0.477068	0.924108
C159	C	1.080250	-0.527792	0.876705
H160	H	1.139749	-0.500111	0.864451
H161	H	1.088852	-0.585958	0.908287
C162	C	0.963978	-0.576016	0.813865
C163	C	1.037052	-0.542015	0.798809
H164	H	0.937331	-0.584793	0.765817
H165	H	0.933880	-0.541845	0.845803
H166	H	0.971157	-0.624484	0.840185
H167	H	1.029872	-0.493544	0.772499
H168	H	1.067148	-0.576179	0.766865
H169	H	0.686863	-0.469430	0.469152
H170	H	1.043338	-0.469161	0.826532
H171	H	0.835591	-0.469405	0.469136
H172	H	1.225638	-0.286972	1.079444
O173	O	1.233250	-0.670556	0.279251
C174	C	1.188568	-0.623190	0.228513
H175	H	1.126757	-0.647947	0.223612
H176	H	1.185823	-0.561046	0.252769
C177	C	1.302881	-0.591548	0.152965
C178	C	1.226966	-0.621958	0.146940
H179	H	1.326568	-0.590784	0.102648
H180	H	1.332985	-0.623456	0.187149
H181	H	1.300583	-0.539763	0.173181
H182	H	1.229266	-0.673744	0.126734
H183	H	1.196863	-0.590058	0.112751
