data_functionalizedCrystal
_audit_creation_method	'MofGen! by Chris Wilmer'
_symmetry_space_group_name_H-M	'P1'
_symmetry_Int_Tables_number	1
_symmetry_cell_setting	triclinic
loop_
_symmetry_equiv_pos_as_xyz
  x,y,z
_cell_length_a	16.109302
_cell_length_b	10.654550
_cell_length_c	15.186229
_cell_angle_alpha	89.996404
_cell_angle_beta	89.994701
_cell_angle_gamma	83.973356
loop_
_atom_site_label
_atom_site_type_symbol
_atom_site_fract_x
_atom_site_fract_y
_atom_site_fract_z
O1	O	1.104090	0.161423	-0.073268
O2	O	0.862148	0.181511	-0.073261
O3	O	0.988681	-0.011348	-0.073259
O4	O	0.977556	0.354282	-0.073270
O5	O	0.988673	-0.011350	0.073198
O6	O	0.862139	0.181508	0.073196
O7	O	1.104081	0.161421	0.073189
Zn8	Zn	0.983109	0.171464	0.096446
Zn9	Zn	0.983120	0.171467	-0.096518
O10	O	0.977548	0.354279	0.073187
C11	C	0.831164	0.180695	-0.000031
C12	C	0.738854	0.178255	-0.000029
C13	C	0.526475	0.172612	0.079797
C14	C	0.439741	0.170306	0.079794
C15	C	0.439761	0.170315	-0.079882
C16	C	0.526494	0.172612	-0.079878
C17	C	0.569848	0.173767	-0.000036
C18	C	0.396381	0.169164	-0.000043
C19	C	0.302341	0.166664	-0.000047
C20	C	0.663895	0.176265	-0.000032
C21	C	0.987860	-0.058136	-0.000031
C22	C	0.985416	-0.197546	-0.000032
C23	C	1.059917	-0.278042	-0.000035
C24	C	1.057616	-0.409032	-0.000045
C25	C	0.906306	-0.379016	-0.000047
C26	C	0.908608	-0.248029	-0.000043
C27	C	1.145364	-0.606066	-0.051363
C28	C	1.219869	-0.686567	-0.051351
C29	C	1.287407	-0.657312	-0.000028
C30	C	1.280443	-0.547558	0.051303
C31	C	1.205936	-0.467063	0.051298
C32	C	1.138401	-0.496317	-0.000045
C33	C	0.820866	-0.050994	0.051282
C34	C	0.746359	0.029503	0.051284
C35	C	0.678813	0.000252	-0.000033
C36	C	0.685769	-0.109504	-0.051351
C37	C	0.760277	-0.190001	-0.051353
C38	C	0.827822	-0.160741	-0.000037
C39	C	1.135065	0.162236	-0.000042
C40	C	1.227375	0.164676	-0.000051
C41	C	0.978369	0.401067	-0.000043
C42	C	0.980813	0.540477	-0.000047
N43	N	0.983107	0.171461	0.228139
N44	N	0.983128	0.171461	-0.228210
C45	C	1.039156	0.086092	0.453862
C46	C	1.039159	0.086089	0.546052
C47	C	0.927074	0.256834	0.546059
C48	C	0.927068	0.256830	0.453872
C49	C	0.983113	0.171460	0.407775
C50	C	0.983122	0.171461	0.592153
C51	C	0.983124	0.171459	0.692109
C52	C	0.983110	0.171461	0.307813
H53	H	0.404451	0.169377	-0.144887
H54	H	0.843771	-0.420136	-0.000054
H55	H	0.881427	0.326347	0.416345
C56	C	0.767928	-0.310732	-0.107812
N57	N	0.773692	-0.401663	-0.150338
C58	C	0.574208	0.173876	-0.167705
N59	N	0.610146	0.174822	-0.233854
H60	H	0.618142	0.065796	-0.000016
C61	C	0.865425	0.350733	0.596774
N62	N	0.818990	0.421459	0.634971
C63	C	0.574162	0.173867	0.167625
N64	N	0.610079	0.174807	0.233780
H65	H	1.084792	0.016573	0.583574
H66	H	0.404430	0.169366	0.144802
C67	C	0.611467	-0.141683	-0.107805
N68	N	0.555499	-0.165917	-0.150324
C69	C	1.144408	-0.222516	-0.000032
N70	N	1.208050	-0.180697	-0.000035
H71	H	1.335438	-0.523757	0.093101
C72	C	1.198275	-0.346337	0.107754
N73	N	1.192509	-0.255399	0.150274
H74	H	1.225534	-0.775927	-0.093151
C75	C	1.071073	-0.638254	-0.107829
N76	N	1.015115	-0.662506	-0.150356
C77	C	0.738712	0.150245	0.107731
N78	N	0.732955	0.241191	0.150242
C79	C	0.895168	-0.018806	0.107736
N80	N	0.951130	0.005438	0.150261
C81	C	1.100801	-0.007827	0.403160
N82	N	1.147232	-0.078574	0.364973
H83	H	1.348070	-0.722865	-0.000019
