data_functionalizedCrystal
_audit_creation_method	'MofGen! by Chris Wilmer'
_symmetry_space_group_name_H-M	'P1'
_symmetry_Int_Tables_number	1
_symmetry_cell_setting	triclinic
loop_
_symmetry_equiv_pos_as_xyz
  x,y,z
_cell_length_a	14.971486
_cell_length_b	18.366186
_cell_length_c	14.971486
_cell_angle_alpha	89.994669
_cell_angle_beta	96.385871
_cell_angle_gamma	90.004127
loop_
_atom_site_label
_atom_site_type_symbol
_atom_site_fract_x
_atom_site_fract_y
_atom_site_fract_z
O1	O	1.186951	0.060466	-0.116562
O2	O	1.686951	0.560466	0.383438
O3	O	0.926550	0.060486	-0.130521
O4	O	1.426550	0.560486	0.369479
O5	O	1.063730	0.060470	0.006658
O6	O	1.563730	0.560470	0.506658
O7	O	1.049771	0.060482	-0.253742
O8	O	1.549771	0.560482	0.246258
O9	O	1.063706	-0.060629	0.006662
O10	O	1.563706	0.439371	0.506662
O11	O	0.926527	-0.060613	-0.130517
O12	O	1.426527	0.439387	0.369483
O13	O	1.186927	-0.060633	-0.116559
O14	O	1.686927	0.439367	0.383441
Zn15	Zn	1.056723	-0.079850	-0.123537
Zn16	Zn	1.556723	0.420150	0.376463
Zn17	Zn	1.056754	0.079703	-0.123543
Zn18	Zn	1.556754	0.579703	0.376457
O19	O	1.049747	-0.060617	-0.253738
O20	O	1.549747	0.439383	0.246262
C21	C	0.893214	-0.000061	-0.129895
C22	C	1.393214	0.499939	0.370105
C23	C	0.793917	-0.000054	-0.128024
C24	C	1.293917	0.499946	0.371976
N25	N	1.056708	-0.188741	-0.123533
N26	N	1.556708	0.311259	0.376467
C27	C	0.736691	-0.000051	-0.208614
C28	C	1.236691	0.499949	0.291386
C29	C	0.643392	-0.000062	-0.206850
C30	C	1.143392	0.499938	0.293150
C31	C	0.607320	-0.000070	-0.124497
C32	C	1.107320	0.499930	0.375503
C33	C	0.664552	-0.000075	-0.043902
C34	C	1.164552	0.499925	0.456098
C35	C	0.757850	-0.000069	-0.045666
C36	C	1.257850	0.499931	0.454334
C37	C	0.470090	-0.000085	-0.040231
C38	C	0.970090	0.499915	0.459769
C39	C	0.376786	-0.000090	-0.038466
C40	C	0.876786	0.499910	0.461534
C41	C	0.355632	-0.000078	-0.201415
C42	C	0.855632	0.499922	0.298585
C43	C	0.448930	-0.000072	-0.203179
C44	C	0.948930	0.499928	0.296821
C45	C	0.506156	-0.000076	-0.122584
C46	C	1.006156	0.499924	0.377416
C47	C	1.111005	-0.226838	-0.177877
C48	C	1.611005	0.273162	0.322123
C49	C	1.111020	-0.303065	-0.177875
C50	C	1.611020	0.196935	0.322125
C51	C	1.056721	-0.341194	-0.123539
C52	C	1.556721	0.158806	0.376461
C53	C	1.002420	-0.303089	-0.069184
C54	C	1.502420	0.196911	0.430816
C55	C	1.002414	-0.226862	-0.069181
C56	C	1.502414	0.273138	0.430819
C57	C	0.976082	-0.461969	-0.120938
C58	C	1.476082	0.038031	0.379062
C59	C	0.976087	-0.538194	-0.120947
C60	C	1.476087	-0.038194	0.379053
C61	C	1.056741	-0.576302	-0.123542
C62	C	1.556741	-0.076302	0.376458
C63	C	1.137392	-0.538175	-0.126146
C64	C	1.637392	-0.038175	0.373854
C65	C	1.137386	-0.461949	-0.126144
C66	C	1.637386	0.038051	0.373856
C67	C	1.056722	-0.423849	-0.123535
C68	C	1.556722	0.076151	0.376465
C69	C	1.111059	-0.697053	-0.177886
C70	C	1.611059	-0.197053	0.322114
C71	C	1.111075	-0.773282	-0.177877
C72	C	1.611075	-0.273282	0.322123
C73	C	1.002467	-0.773304	-0.069192
C74	C	1.502467	-0.273304	0.430808
C75	C	1.002459	-0.697076	-0.069195
C76	C	1.502459	-0.197076	0.430805
C77	C	1.056753	-0.658955	-0.123547
C78	C	1.556753	-0.158955	0.376453
C79	C	1.220263	-0.000084	-0.117185
C80	C	1.720263	0.499916	0.382815
C81	C	1.319561	-0.000087	-0.119056
C82	C	1.819561	0.499913	0.380944
C83	C	1.063094	-0.000079	0.039985
C84	C	1.563094	0.499921	0.539985
C85	C	1.061223	-0.000078	0.139282
C86	C	1.561223	0.499922	0.639282
N87	N	1.056776	0.188594	-0.123539
N88	N	1.556776	0.688594	0.376461
C89	C	1.050384	-0.000066	-0.287065
C90	C	1.550384	0.499934	0.212935
C91	C	1.052254	-0.000062	-0.386362
C92	C	1.552254	0.499938	0.113638
C93	C	1.141812	-0.000085	0.196507
C94	C	1.641812	0.499915	0.696507
C95	C	1.140049	-0.000077	0.289807
C96	C	1.640049	0.499923	0.789807
C97	C	1.057696	-0.000068	0.325879
C98	C	1.557696	0.499932	0.825879
C99	C	0.977101	-0.000060	0.268646
C100	C	1.477101	0.499940	0.768646
C101	C	0.978865	-0.000062	0.175349
C102	C	1.478865	0.499938	0.675349
C103	C	0.973430	-0.000057	0.463109
C104	C	1.473430	0.499943	0.963109
C105	C	0.971665	-0.000056	0.556413
C106	C	1.471665	0.499944	1.056413
C107	C	1.134614	-0.000072	0.577567
C108	C	1.634614	0.499928	1.077567
C109	C	1.136378	-0.000074	0.484269
C110	C	1.636378	0.499926	0.984269
C111	C	1.055782	-0.000067	0.427043
C112	C	1.555782	0.499933	0.927043
H113	H	0.766054	-0.000044	-0.275675
H114	H	1.266054	0.499956	0.224325
H115	H	1.205673	-0.000084	0.336396
H116	H	1.705673	0.499916	0.836396
H117	H	0.309033	-0.000078	-0.267039
H118	H	0.809033	0.499922	0.232961
H119	H	0.347419	-0.000097	0.028593
H120	H	0.847419	0.499903	0.528593
H121	H	0.958240	-0.666058	-0.024946
H122	H	1.458240	-0.166058	0.475054
C123	C	1.170792	-0.655117	-0.237664
C124	C	1.670792	-0.155117	0.262336
N125	N	1.215785	-0.623533	-0.282688
N126	N	1.715785	-0.123533	0.217312
H127	H	0.516682	-0.000089	0.025399
H128	H	1.016682	0.499911	0.525399
C129	C	0.887369	-0.580126	-0.118087
C130	C	1.387369	-0.080126	0.381913
N131	N	0.820544	-0.611708	-0.115933
N132	N	1.320544	-0.111708	0.384067
C133	C	1.226971	-0.000088	0.444592
C134	C	1.726971	0.499912	0.944592
N135	N	1.295207	-0.000096	0.414707
N136	N	1.795207	0.499904	0.914707
C137	C	0.884769	-0.000052	0.400162
C138	C	1.384769	0.499948	0.900162
N139	N	0.817992	-0.000054	0.352750
N140	N	1.317992	0.499946	0.852750
H141	H	0.913240	-0.000056	0.128756
H142	H	1.413240	0.499944	0.628756
H143	H	0.958197	-0.195845	-0.024927
H144	H	1.458197	0.304155	0.475073
C145	C	0.624870	-0.000085	0.046688
C146	C	1.124870	0.499915	0.546688
N147	N	0.594982	-0.000090	0.114922
N148	N	1.094982	0.499910	0.614922
C149	C	0.887350	-0.420058	-0.118086
C150	C	1.387350	0.079942	0.381914
N151	N	0.820519	-0.388492	-0.115939
N152	N	1.320519	0.111508	0.384061
C153	C	0.942688	-0.345032	-0.009417
C154	C	1.442688	0.154968	0.490583
N155	N	0.897697	-0.376623	0.035602
N156	N	1.397697	0.123377	0.535602
C157	C	1.170741	-0.184909	-0.237656
C158	C	1.670741	0.315091	0.262344
N159	N	1.215738	-0.153327	-0.282678
N160	N	1.715738	0.346673	0.217322
C161	C	0.881072	-0.000037	0.596090
C162	C	1.381072	0.499963	1.096090
N163	N	0.812837	-0.000020	0.625975
N164	N	1.312837	0.499980	1.125975
C165	C	0.580448	-0.000072	-0.295505
C166	C	1.080448	0.499928	0.204495
N167	N	0.533038	-0.000085	-0.362284
N168	N	1.033038	0.499915	0.137716
H169	H	1.208874	-0.000097	0.167145
H170	H	1.708874	0.499903	0.667145
H171	H	0.478296	-0.000059	-0.270239
H172	H	0.978296	0.499941	0.229761
H173	H	0.804443	-0.000071	0.019958
H174	H	1.304443	0.499929	0.519958
C175	C	1.170753	-0.344980	-0.237659
C176	C	1.670753	0.155020	0.262341
N177	N	1.215744	-0.376547	-0.282690
N178	N	1.715744	0.123453	0.217310
H179	H	1.200238	-0.000076	0.624165
H180	H	1.700238	0.499924	1.124165
H181	H	0.910047	-0.000048	0.298024
H182	H	1.410047	0.499952	0.798024
C183	C	1.226102	-0.420012	-0.128996
C184	C	1.726102	0.079988	0.371004
N185	N	1.292925	-0.388426	-0.131139
N186	N	1.792925	0.111574	0.368861
H187	H	1.203068	-0.569200	-0.128264
H188	H	1.703068	-0.069200	0.371736
H189	H	1.155297	-0.804299	-0.222127
H190	H	1.655297	-0.304299	0.277873
H191	H	0.958256	-0.804348	-0.024949
H192	H	1.458256	-0.304348	0.475051
