data_functionalizedCrystal
_audit_creation_method	'MofGen! by Chris Wilmer'
_symmetry_space_group_name_H-M	'P1'
_symmetry_Int_Tables_number	1
_symmetry_cell_setting	triclinic
loop_
_symmetry_equiv_pos_as_xyz
  x,y,z
_cell_length_a	12.759401
_cell_length_b	25.639240
_cell_length_c	12.759393
_cell_angle_alpha	89.956559
_cell_angle_beta	89.980178
_cell_angle_gamma	90.032989
loop_
_atom_site_label
_atom_site_type_symbol
_atom_site_fract_x
_atom_site_fract_y
_atom_site_fract_z
Zn1	Zn	1.606126	-0.208121	-0.593920
Zn2	Zn	1.605964	-0.295566	-0.418201
Zn3	Zn	1.430427	-0.208147	-0.418256
Zn4	Zn	1.430361	-0.295527	-0.593839
O5	O	1.518219	-0.251840	-0.506054
O6	O	1.753125	-0.219726	-0.570622
O7	O	1.582639	-0.283997	-0.271188
O8	O	1.453829	-0.134978	-0.441615
O9	O	1.753006	-0.283972	-0.441522
O10	O	1.582914	-0.134959	-0.570675
O11	O	1.453672	-0.219771	-0.271228
O12	O	1.283397	-0.219733	-0.441537
O13	O	1.453717	-0.283905	-0.740871
O14	O	1.283349	-0.283931	-0.570537
O15	O	1.582850	-0.219688	-0.740931
O16	O	1.582575	-0.368726	-0.441443
O17	O	1.453560	-0.368698	-0.570484
C18	C	1.245252	-0.251831	-0.506035
C19	C	1.128475	-0.251840	-0.506051
C20	C	1.073555	-0.285239	-0.438737
C21	C	0.963831	-0.285248	-0.438755
C22	C	0.963957	-0.218454	-0.573405
C23	C	1.073679	-0.218448	-0.573391
C24	C	1.128351	-0.318630	-0.371398
C25	C	1.073431	-0.352032	-0.304077
C26	C	0.963707	-0.352041	-0.304096
C27	C	0.908903	-0.318648	-0.371434
C28	C	1.518071	-0.387683	-0.505972
C29	C	1.518104	-0.445797	-0.505972
C30	C	1.585467	-0.806112	-0.573377
C31	C	1.585498	-0.860716	-0.573398
O32	O	1.642597	-0.888911	-0.630624
N33	N	1.518365	-0.888079	-0.506156
C34	C	1.451189	-0.860836	-0.438895
O35	O	1.394089	-0.889125	-0.381703
C36	C	1.451154	-0.806233	-0.438880
C37	C	1.518299	-0.778872	-0.506119
C38	C	1.652606	-0.778751	-0.640611
C39	C	1.652576	-0.724150	-0.640588
C40	C	1.585408	-0.696910	-0.573331
C41	C	1.518269	-0.724271	-0.506096
C42	C	1.383973	-0.778990	-0.371625
C43	C	1.383943	-0.724383	-0.371617
C44	C	1.451088	-0.697022	-0.438856
C45	C	1.451070	-0.642431	-0.438816
N46	N	1.518204	-0.615067	-0.506058
C47	C	1.585372	-0.642307	-0.573316
C48	C	1.451268	-0.975507	-0.438934
C49	C	1.451308	-1.030109	-0.438943
C50	C	1.585616	-1.029985	-0.573448
C51	C	1.585580	-0.975382	-0.573432
C52	C	1.518401	-0.948143	-0.506176
C53	C	1.585305	-0.527642	-0.573262
C54	C	1.585272	-0.473037	-0.573229
C55	C	1.450961	-0.473165	-0.438729
C56	C	1.450997	-0.527766	-0.438757
C57	C	1.518173	-0.555003	-0.506032
O58	O	1.393998	-0.614201	-0.381622
O59	O	1.642453	-0.614012	-0.630508
C60	C	1.792253	-0.251850	-0.506075
C61	C	1.909029	-0.251855	-0.506083
C62	C	1.518294	-0.251790	-0.780088
C63	C	1.518326	-0.251768	-0.896865
C64	C	1.518397	-0.115467	-0.506160
C65	C	1.518473	-0.057353	-0.506205
C66	C	1.451217	-0.218300	-1.061472
C67	C	1.451194	-0.218319	-0.951748
C68	C	1.585493	-0.285197	-0.951711
C69	C	1.585521	-0.285176	-1.061433
C70	C	1.384073	-0.184852	-1.116349
C71	C	1.316907	-0.151422	-1.061510
C72	C	1.316883	-0.151441	-0.951786
C73	C	1.384026	-0.184889	-0.896901
C74	C	1.518206	-0.251853	-0.233087
C75	C	1.518377	-0.251728	-0.116311
H76	H	1.217694	-0.318626	-0.371373
O77	O	1.251592	-0.119040	-0.898399
C78	C	1.183667	-0.148819	-0.834920
H79	H	1.220672	-0.188445	-0.818453
H80	H	1.105813	-0.154557	-0.877195
C81	C	1.119201	-0.071401	-0.750943
C82	C	1.164654	-0.120068	-0.730710
H83	H	1.107468	-0.053666	-0.686663
H84	H	1.164960	-0.051338	-0.793712
H85	H	1.054327	-0.076189	-0.786174
H86	H	1.229532	-0.115279	-0.695492
H87	H	1.118905	-0.140130	-0.687932
H88	H	1.118059	-0.379222	-0.249260
H89	H	1.640255	-0.953108	-0.628185
H90	H	1.640306	-1.052173	-0.628214
O91	O	1.650531	-0.446540	-0.638651
C92	C	1.709835	-0.482296	-0.698001
H93	H	1.666817	-0.521235	-0.701611
H94	H	1.789652	-0.488088	-0.659603
C95	C	1.777738	-0.413104	-0.805393
C96	C	1.724899	-0.460928	-0.809834
H97	H	1.787035	-0.399922	-0.874376
H98	H	1.737787	-0.389014	-0.765406
H99	H	1.844247	-0.417937	-0.773390
H100	H	1.658387	-0.456092	-0.841825
H101	H	1.764839	-0.485017	-0.849830
H102	H	1.639999	-0.549812	-0.628050
O103	O	1.650791	-0.317697	-1.114548
C104	C	1.710061	-0.347217	-1.042587
H105	H	1.667008	-0.349045	-0.964366
H106	H	1.789874	-0.328075	-1.030939
C107	C	1.778023	-0.400609	-1.181448
C108	C	1.725141	-0.402858	-1.085379
H109	H	1.787331	-0.434930	-1.207845
H110	H	1.738096	-0.380720	-1.229931
H111	H	1.844529	-0.384655	-1.171728
H112	H	1.658632	-0.418806	-1.095103
H113	H	1.765057	-0.422751	-1.036899
H114	H	1.396643	-1.052381	-0.384179
H115	H	0.918994	-0.379242	-0.249288
H116	H	1.640157	-0.312430	-0.907015
O117	O	0.910608	-0.186088	-0.638858
C118	C	0.847161	-0.215900	-0.706622
H119	H	0.830672	-0.255502	-0.669415
H120	H	0.889475	-0.221687	-0.784454
C121	C	0.763224	-0.138510	-0.771463
C122	C	0.742964	-0.187149	-0.725761
H123	H	0.698951	-0.120775	-0.783273
H124	H	0.805971	-0.118425	-0.725812
H125	H	0.798488	-0.143340	-0.836318
H126	H	0.707712	-0.182318	-0.660901
H127	H	0.700208	-0.207232	-0.771401
O128	O	1.717830	-0.697657	-0.706010
C129	C	1.777130	-0.733417	-0.765352
H130	H	1.734110	-0.772355	-0.768952
H131	H	1.856947	-0.739209	-0.726952
C132	C	1.845039	-0.664233	-0.872760
C133	C	1.792196	-0.712056	-0.877189
H134	H	1.854337	-0.651056	-0.941745
H135	H	1.805091	-0.640140	-0.832778
H136	H	1.911548	-0.669066	-0.840755
H137	H	1.725684	-0.707221	-0.909181
H138	H	1.832134	-0.736148	-0.917179
H139	H	0.819558	-0.318662	-0.371451
H140	H	1.118396	-0.191250	-0.628201
O141	O	1.717712	-0.805230	-0.706060
C142	C	1.657902	-0.836822	-0.773870
H143	H	1.575135	-0.820409	-0.780286
H144	H	1.654341	-0.878224	-0.741405
C145	C	1.810839	-0.857736	-0.875249
C146	C	1.709185	-0.837575	-0.883137
H147	H	1.842474	-0.858203	-0.942649
H148	H	1.851136	-0.836453	-0.829563
H149	H	1.807858	-0.892236	-0.848191
H150	H	1.712169	-0.803074	-0.910182
H151	H	1.668890	-0.858852	-0.928831
O152	O	1.251723	-0.118980	-1.114983
C153	C	1.266159	-0.126122	-1.223587
H154	H	1.300522	-0.166470	-1.238544
H155	H	1.322152	-0.095105	-1.254758
C156	C	1.117670	-0.071764	-1.261536
C157	C	1.159866	-0.121321	-1.279908
H158	H	1.052105	-0.068800	-1.296280
H159	H	1.107945	-0.066951	-1.188368
H160	H	1.164341	-0.045922	-1.287513
H161	H	1.113202	-0.147162	-1.253920
H162	H	1.169580	-0.126139	-1.353073
H163	H	1.384008	-0.184898	-0.807556
H164	H	1.396565	-0.953331	-0.384157
H165	H	1.329297	-0.801258	-0.316872
O166	O	1.318647	-0.698005	-0.306184
C167	C	1.259377	-0.733868	-0.246869
H168	H	1.302439	-0.772773	-0.243283
H169	H	1.179572	-0.739693	-0.285284
C170	C	1.191377	-0.664836	-0.139436
C171	C	1.244271	-0.712618	-0.135023
H172	H	1.182054	-0.651727	-0.070445
H173	H	1.231305	-0.640674	-0.179399
H174	H	1.124878	-0.669697	-0.171452
H175	H	1.310773	-0.707756	-0.103019
H176	H	1.204354	-0.736779	-0.095051
H177	H	1.396330	-0.550044	-0.383997
O178	O	1.385565	-0.446755	-0.373458
C179	C	1.280849	-0.460121	-0.396363
H180	H	1.278675	-0.499752	-0.436748
H181	H	1.245431	-0.429383	-0.450355
C182	C	1.219917	-0.414030	-0.244295
C183	C	1.217245	-0.462708	-0.293888
H184	H	1.180680	-0.415624	-0.181085
H185	H	1.290465	-0.405023	-0.228865
H186	H	1.190404	-0.388420	-0.289299
H187	H	1.246770	-0.488315	-0.248890
H188	H	1.146700	-0.471719	-0.309309
H189	H	1.384083	-0.184834	-1.205692
