data_functionalizedCrystal
_audit_creation_method	'MofGen! by Chris Wilmer'
_symmetry_space_group_name_H-M	'P1'
_symmetry_Int_Tables_number	1
_symmetry_cell_setting	triclinic
loop_
_symmetry_equiv_pos_as_xyz
  x,y,z
_cell_length_a	11.026607
_cell_length_b	14.971486
_cell_length_c	14.048226
_cell_angle_alpha	89.993360
_cell_angle_beta	89.994652
_cell_angle_gamma	96.100073
loop_
_atom_site_label
_atom_site_type_symbol
_atom_site_fract_x
_atom_site_fract_y
_atom_site_fract_z
O1	O	1.610710	0.374644	-0.079168
O2	O	1.257342	0.331984	-0.079169
O3	O	1.443497	0.224631	-0.079162
O4	O	1.424555	0.481996	-0.079175
O5	O	1.443475	0.224620	0.079160
O6	O	1.257320	0.331972	0.079153
O7	O	1.610688	0.374632	0.079153
Zn8	Zn	1.434000	0.353300	0.104290
Zn9	Zn	1.434030	0.353316	-0.104305
O10	O	1.424532	0.481985	0.079146
C11	C	1.442639	0.191165	-0.000001
C12	C	1.440100	0.091461	-0.000002
C13	C	1.212109	0.324108	-0.000008
C14	C	1.077360	0.300647	-0.000008
C15	C	1.549461	0.051758	-0.000001
C16	C	1.547069	-0.041924	-0.000011
C17	C	1.435314	-0.095903	-0.000015
C18	C	1.325944	-0.056194	-0.000018
C19	C	1.328338	0.037487	-0.000015
C20	C	1.320963	-0.251455	-0.000022
C21	C	1.318568	-0.345143	-0.000023
C22	C	1.539693	-0.330866	-0.000017
C23	C	1.542087	-0.237185	-0.000014
C24	C	1.432717	-0.197483	-0.000016
C25	C	1.003649	0.365426	-0.000012
C26	C	0.864379	0.341180	-0.000012
C27	C	1.655921	0.382508	-0.000010
C28	C	1.790669	0.405969	-0.000016
C29	C	1.425391	0.515451	-0.000016
C30	C	1.427929	0.615155	-0.000022
N31	N	1.433989	0.353291	0.246650
N32	N	1.434051	0.353320	-0.246666
C33	C	1.516444	0.305784	0.296472
C34	C	1.516452	0.305785	0.396129
C35	C	1.434010	0.353298	0.445964
C36	C	1.351546	0.400806	0.396136
C37	C	1.351533	0.400799	0.296480
C38	C	1.351581	0.400818	0.603850
C39	C	1.351595	0.400826	0.703513
C40	C	1.516501	0.305804	0.703499
C41	C	1.516487	0.305797	0.603843
C42	C	1.434024	0.353307	0.554022
H43	H	1.640465	0.095702	0.000007
H44	H	1.583593	0.267101	0.436693
C45	C	1.727418	-0.347564	0.081374
C46	C	1.659914	-0.374507	-0.000019
H47	H	1.801629	-0.374515	0.081377
H48	H	1.744838	-0.284054	0.081373
H49	H	1.681572	-0.365864	0.136574
H50	H	1.705756	-0.356201	-0.055219
H51	H	1.642497	-0.438030	-0.000026
H52	H	1.037363	0.227236	-0.000029
C53	C	1.018408	0.507180	0.081371
C54	C	1.057630	0.464532	-0.000014
H55	H	1.051738	0.568363	0.081371
H56	H	0.931909	0.503887	0.081361
H57	H	1.044997	0.478219	0.136576
H58	H	1.031032	0.493489	-0.055220
H59	H	1.144147	0.467831	-0.000013
H60	H	1.239285	0.069811	-0.000016
H61	H	1.231902	-0.219133	-0.000026
C62	C	1.765878	-0.018403	0.000017
C63	C	1.667283	-0.085565	0.000001
H64	H	1.840094	-0.045347	0.000031
H65	H	1.762229	0.017845	-0.055189
H66	H	1.762184	0.017831	0.055232
H67	H	1.670971	-0.121796	-0.055218
H68	H	1.670933	-0.121829	0.055212
H69	H	0.824387	0.267765	-0.000033
H70	H	1.284461	0.439515	0.744083
H71	H	1.633088	-0.193238	-0.000005
H72	H	1.583583	0.267098	0.255903
H73	H	1.284427	0.439502	0.563289
C74	C	0.805416	0.547735	-0.081416
C75	C	0.844628	0.505083	-0.000025
H76	H	0.838720	0.608925	-0.081417
H77	H	0.832028	0.518794	-0.136611
H78	H	0.718904	0.544426	-0.081406
H79	H	0.931140	0.508387	-0.000038
H80	H	0.818024	0.534033	0.055185
H81	H	1.583624	0.267114	0.563268
C82	C	1.542705	0.188286	0.815568
C83	C	1.607144	0.253573	0.758253
H84	H	1.598668	0.156043	0.849367
H85	H	1.493620	0.216581	0.859509
H86	H	1.492139	0.147950	0.776693
H87	H	1.657704	0.293914	0.797129
H88	H	1.656250	0.225277	0.714308
C89	C	1.107614	-0.060889	-0.000036
C90	C	1.203099	-0.115524	-0.000029
H91	H	1.031774	-0.097517	-0.000048
H92	H	1.113133	-0.024064	0.055172
H93	H	1.113169	-0.024042	-0.055248
H94	H	1.197549	-0.152367	0.055187
H95	H	1.197577	-0.152365	-0.055243
H96	H	1.284414	0.439488	0.436717
C97	C	1.188545	0.494735	0.306497
C98	C	1.260901	0.453025	0.241713
H99	H	1.132595	0.526980	0.272684
H100	H	1.144842	0.450448	0.345379
H101	H	1.239130	0.535076	0.345353
H102	H	1.210316	0.412678	0.202861
H103	H	1.304607	0.497317	0.202814
H104	H	1.227568	-0.389090	-0.000010
