data_functionalizedCrystal
_audit_creation_method	'MofGen! by Chris Wilmer'
_symmetry_space_group_name_H-M	'P1'
_symmetry_Int_Tables_number	1
_symmetry_cell_setting	triclinic
loop_
_symmetry_equiv_pos_as_xyz
  x,y,z
_cell_length_a	10.908878
_cell_length_b	11.792254
_cell_length_c	9.482900
_cell_angle_alpha	99.398945
_cell_angle_beta	83.038437
_cell_angle_gamma	72.141694
loop_
_atom_site_label
_atom_site_type_symbol
_atom_site_fract_x
_atom_site_fract_y
_atom_site_fract_z
O1	O	1.722485	-0.196580	-0.120865
O2	O	1.349243	-0.108069	-0.120874
O3	O	1.544911	-0.319250	-0.120859
O4	O	1.526817	0.014600	-0.120880
O5	O	1.505168	-0.276212	0.120930
O6	O	1.309499	-0.065032	0.120915
O7	O	1.682741	-0.153543	0.120925
Cu8	Cu	1.492491	-0.105358	0.142997
Cu9	Cu	1.539493	-0.156254	-0.142947
O10	O	1.487073	0.057638	0.120909
C11	C	1.281588	-0.078279	0.000019
C12	C	1.139209	-0.053645	0.000016
C13	C	1.523899	-0.339800	0.000035
C14	C	1.520487	-0.465151	0.000034
C15	C	1.089569	-0.143530	0.000021
C16	C	0.942413	-0.118072	0.000017
C17	C	1.517716	-0.566950	0.000029
C18	C	1.514251	-0.694666	0.000015
C19	C	1.750397	-0.183334	0.000028
C20	C	1.892778	-0.207969	0.000022
C21	C	1.508085	0.078188	0.000012
C22	C	1.511499	0.203537	0.000004
N23	N	1.459442	-0.069562	0.344115
N24	N	1.572552	-0.192061	-0.344064
C25	C	1.529736	-0.145701	0.416320
C26	C	1.502248	-0.115911	0.583735
H27	H	0.875972	-0.022265	0.000004
N28	N	1.352768	0.045999	0.426393
H29	H	1.309633	0.092716	0.355206
H30	H	1.285304	0.024635	0.489556
H31	H	1.610263	-0.232943	0.354198
H32	H	0.959219	-0.303779	0.000018
N33	N	1.177563	-0.270433	0.000041
H34	H	1.175451	-0.328804	-0.089586
H35	H	1.270167	-0.270522	0.000098
N36	N	1.051212	0.073257	-0.000006
H37	H	0.958562	0.073455	-0.000010
H38	H	1.053431	0.131557	0.089625
H39	H	1.653083	-0.279309	0.593818
N40	N	1.395559	-0.000350	0.666002
H41	H	1.391042	0.004549	0.773936
H42	H	1.415523	0.072466	0.639469
