data_functionalizedCrystal
_audit_creation_method	'MofGen! by Chris Wilmer'
_symmetry_space_group_name_H-M	'P1'
_symmetry_Int_Tables_number	1
_symmetry_cell_setting	triclinic
loop_
_symmetry_equiv_pos_as_xyz
  x,y,z
_cell_length_a	10.654555
_cell_length_b	15.455313
_cell_length_c	10.654549
_cell_angle_alpha	87.308023
_cell_angle_beta	95.514124
_cell_angle_gamma	87.295451
loop_
_atom_site_label
_atom_site_type_symbol
_atom_site_fract_x
_atom_site_fract_y
_atom_site_fract_z
O1	O	-1.673290	0.072076	0.170988
O2	O	-1.173290	0.572076	0.670988
O3	O	-1.307813	0.072089	0.187786
O4	O	-0.807813	0.572089	0.687786
O5	O	-1.498955	0.072079	-0.003352
O6	O	-0.998955	0.572079	0.496648
O7	O	-1.482149	0.072086	0.362126
O8	O	-0.982149	0.572086	0.862126
O9	O	-1.488024	-0.072183	0.007533
O10	O	-0.988024	0.427817	0.507533
O11	O	-1.296883	-0.072172	0.198671
O12	O	-0.796883	0.427828	0.698671
O13	O	-1.662359	-0.072185	0.181872
O14	O	-1.162359	0.427815	0.681872
Cu15	Cu	-1.478623	-0.085351	0.191266
Cu16	Cu	-0.978623	0.414649	0.691266
Cu17	Cu	-1.491550	0.085255	0.178393
Cu18	Cu	-0.991550	0.585255	0.678393
O19	O	-1.471218	-0.072175	0.373010
O20	O	-0.971218	0.427825	0.873010
C21	C	-1.255550	-0.000040	0.191994
C22	C	-0.755550	0.499960	0.691994
C23	C	-1.116108	-0.000035	0.188299
C24	C	-0.616108	0.499965	0.688299
C25	C	-0.925520	0.078598	0.177164
C26	C	-0.425520	0.578598	0.677164
C27	C	-1.056543	0.078601	0.180627
C28	C	-0.556543	0.578601	0.680627
C29	C	-1.044644	-0.078680	0.192494
C30	C	-0.544644	0.421320	0.692494
C31	C	-0.913625	-0.078683	0.189022
C32	C	-0.413625	0.421317	0.689022
N33	N	-1.469540	-0.205346	0.200319
N34	N	-0.969540	0.294654	0.700319
C35	C	-1.550772	-0.250745	0.119147
C36	C	-1.050772	0.249255	0.619147
C37	C	-1.543915	-0.341552	0.126005
C38	C	-1.043915	0.158448	0.626005
C39	C	-1.455831	-0.386960	0.214042
C40	C	-0.955831	0.113040	0.714042
C41	C	-1.374590	-0.341555	0.295217
C42	C	-0.874590	0.158445	0.795217
C43	C	-1.381442	-0.250749	0.288352
C44	C	-0.881442	0.249251	0.788352
C45	C	-1.426254	-0.658539	0.243640
C46	C	-0.926254	-0.158539	0.743640
C47	C	-1.419410	-0.749352	0.250502
C48	C	-0.919410	-0.249352	0.750502
C49	C	-1.588735	-0.749343	0.081287
C50	C	-1.088735	-0.249343	0.581287
C51	C	-1.595584	-0.658535	0.074435
C52	C	-1.095584	-0.158535	0.574435
C53	C	-1.514339	-0.613138	0.155606
C54	C	-1.014339	-0.113138	0.655606
N55	N	-1.448822	-0.479779	0.221057
N56	N	-0.948822	0.020221	0.721057
N57	N	-1.521343	-0.520320	0.148584
N58	N	-1.021343	-0.020320	0.648584
C59	C	-0.714623	-0.000052	0.177666
C60	C	-0.214623	0.499948	0.677666
C61	C	-0.854066	-0.000042	0.181363
C62	C	-0.354066	0.499958	0.681363
C63	C	-1.492256	-0.000051	-0.044708
C64	C	-0.992256	0.499949	0.455292
C65	C	-1.488564	-0.000048	-0.184151
C66	C	-0.988564	0.499952	0.315849
N67	N	-1.500643	0.205250	0.169330
N68	N	-1.000643	0.705250	0.669330
C69	C	-1.597627	-0.000046	-0.394664
C70	C	-1.097627	0.499954	0.105336
C71	C	-1.601105	-0.000053	-0.263643
C72	C	-1.101105	0.499947	0.236357
C73	C	-1.372537	-0.000045	-0.235686
C74	C	-0.872537	0.499955	0.264314
C75	C	-1.369060	-0.000044	-0.366704
C76	C	-0.869060	0.499956	0.133296
C77	C	-1.477917	-0.000043	0.414366
C78	C	-0.977917	0.499957	0.914366
C79	C	-1.481609	-0.000040	0.553809
C80	C	-0.981609	0.499960	1.053809
H81	H	-0.855445	-0.142725	0.192441
H82	H	-0.355445	0.357275	0.692441
F83	F	-1.675193	-0.797663	-0.005098
F84	F	-1.175193	-0.297663	0.494902
F85	F	-0.862138	0.162295	0.169009
F86	F	-0.362138	0.662295	0.669009
F87	F	-1.252761	-0.000044	-0.151081
F88	F	-0.752761	0.499956	0.348919
F89	F	-1.245571	-0.000043	-0.421545
F90	F	-0.745571	0.499957	0.078455
F91	F	-1.644531	-0.202427	0.025451
F92	F	-1.144531	0.297573	0.525451
F93	F	-1.132585	0.162300	0.176153
F94	F	-0.632585	0.662300	0.676153
H95	H	-1.347678	-0.786318	0.322197
H96	H	-0.847678	-0.286318	0.822197
H97	H	-1.360103	-0.621584	0.309735
H98	H	-0.860103	-0.121584	0.809735
F99	F	-1.630370	-0.389869	0.039612
F100	F	-1.130370	0.110131	0.539612
F101	F	-1.280836	-0.389881	0.388908
F102	F	-0.780836	0.110119	0.888908
F103	F	-1.724588	-0.000057	-0.208811
F104	F	-1.224588	0.499943	0.291189
F105	F	-1.689334	-0.610211	-0.019262
F106	F	-1.189334	-0.110211	0.480738
H107	H	-1.315292	-0.213786	0.354449
H108	H	-0.815292	0.286214	0.854449
F109	F	-1.717412	-0.000045	-0.479255
F110	F	-1.217412	0.499955	0.020745
H111	H	-1.093153	-0.142708	0.198733
H112	H	-0.593153	0.357292	0.698733
