data_functionalizedCrystal
_audit_creation_method	'MofGen! by Chris Wilmer'
_symmetry_space_group_name_H-M	'P1'
_symmetry_Int_Tables_number	1
_symmetry_cell_setting	triclinic
loop_
_symmetry_equiv_pos_as_xyz
  x,y,z
_cell_length_a	15.995288
_cell_length_b	19.288865
_cell_length_c	17.766277
_cell_angle_alpha	89.988397
_cell_angle_beta	90.011620
_cell_angle_gamma	96.698486
loop_
_atom_site_label
_atom_site_type_symbol
_atom_site_fract_x
_atom_site_fract_y
_atom_site_fract_z
O1	O	-1.110687	0.089325	-0.062642
O2	O	-0.610687	0.589325	0.437358
O3	O	-0.866863	0.100426	-0.062636
O4	O	-0.366863	0.600426	0.437364
O5	O	-0.995820	-0.006238	-0.062625
O6	O	-0.495820	0.493762	0.437375
O7	O	-0.981730	0.195989	-0.062654
O8	O	-0.481730	0.695989	0.437346
O9	O	-0.995798	-0.006244	0.062564
O10	O	-0.495798	0.493756	0.562564
O11	O	-0.866840	0.100420	0.062552
O12	O	-0.366840	0.600420	0.562552
O13	O	-1.110664	0.089319	0.062546
O14	O	-0.610664	0.589319	0.562546
Cu15	Cu	-0.988750	0.094869	0.073980
Cu16	Cu	-0.488750	0.594869	0.573980
Cu17	Cu	-0.988777	0.094876	-0.074070
Cu18	Cu	-0.488777	0.594876	0.425930
O19	O	-0.981707	0.195983	0.062534
O20	O	-0.481707	0.695983	0.562534
C21	C	-0.835657	0.099972	-0.000041
C22	C	-0.335657	0.599972	0.499959
C23	C	-0.742709	0.098619	-0.000038
C24	C	-0.242709	0.598619	0.499962
C25	C	-0.995356	-0.032118	-0.000028
C26	C	-0.495356	0.467882	0.499972
C27	C	-0.993995	-0.109225	-0.000021
C28	C	-0.493995	0.390775	0.499979
C29	C	-0.572535	0.096120	-0.000042
C30	C	-0.072535	0.596120	0.499958
C31	C	-0.524782	0.172066	-0.000051
C32	C	-0.024782	0.672066	0.499949
C33	C	-0.428099	0.170684	-0.000335
C34	C	0.071901	0.670684	0.499665
C35	C	-0.404986	0.093661	-0.000044
C36	C	0.095014	0.593661	0.499956
C37	C	-0.446274	0.055985	-0.071387
C38	C	0.053726	0.555985	0.428613
C39	C	-0.542901	0.057903	-0.071446
C40	C	-0.042901	0.557903	0.428554
C41	C	-0.543159	0.056772	0.070921
C42	C	-0.043159	0.556772	0.570921
C43	C	-0.446214	0.056783	0.071858
C44	C	0.053786	0.556783	0.571858
C45	C	-0.310296	0.092267	-0.000048
C46	C	0.189704	0.592267	0.499952
C47	C	-0.667226	0.097512	-0.000043
C48	C	-0.167226	0.597512	0.499957
C49	C	-1.069661	-0.153739	-0.000020
C50	C	-0.569661	0.346261	0.499980
C51	C	-1.068382	-0.226189	-0.000032
C52	C	-0.568382	0.273811	0.499968
C53	C	-0.991433	-0.254122	-0.000030
C54	C	-0.491433	0.245878	0.499970
C55	C	-0.915757	-0.209598	-0.000036
C56	C	-0.415757	0.290402	0.499964
C57	C	-0.917037	-0.137150	-0.000032
C58	C	-0.417037	0.362850	0.499968
C59	C	-0.930934	-0.362557	0.043822
C60	C	-0.430934	0.137443	0.543822
C61	C	-0.929656	-0.435005	0.043823
C62	C	-0.429656	0.064995	0.543823
C63	C	-0.987479	-0.477577	-0.000047
C64	C	-0.487479	0.022423	0.499953
C65	C	-1.046594	-0.447695	-0.043907
C66	C	-0.546594	0.052305	0.456093
C67	C	-1.047875	-0.375246	-0.043902
C68	C	-0.547875	0.124754	0.456098
C69	C	-0.990036	-0.332680	-0.000035
C70	C	-0.490036	0.167320	0.499965
C71	C	-1.061765	-0.600651	-0.000059
C72	C	-0.561765	-0.100651	0.499941
C73	C	-1.060483	-0.673102	-0.000075
C74	C	-0.560483	-0.173102	0.499925
C75	C	-0.907855	-0.656509	-0.000073
C76	C	-0.407855	-0.156509	0.499927
C77	C	-0.909139	-0.584060	-0.000064
C78	C	-0.409139	-0.084060	0.499936
C79	C	-0.986096	-0.556135	-0.000053
C80	C	-0.486096	-0.056135	0.499947
C81	C	-0.141868	0.089782	-0.000048
C82	C	0.358132	0.589782	0.499952
C83	C	-0.234812	0.091163	-0.000048
C84	C	0.265188	0.591163	0.499952
C85	C	-0.982172	0.221863	-0.000064
C86	C	-0.482172	0.721863	0.499936
C87	C	-0.983533	0.298970	-0.000075
C88	C	-0.483533	0.798970	0.499925
N89	N	-0.988738	0.094864	0.178110
N90	N	-0.488738	0.594864	0.678110
N91	N	-0.988796	0.094875	-0.178200
N92	N	-0.488796	0.594875	0.321800
C93	C	-1.045858	0.047657	0.217502
C94	C	-0.545858	0.547657	0.717502
C95	C	-1.045863	0.047653	0.296304
C96	C	-0.545863	0.547653	0.796304
C97	C	-0.988755	0.094870	0.335711
C98	C	-0.488755	0.594870	0.835711
C99	C	-0.931624	0.142081	0.296309
C100	C	-0.431624	0.642081	0.796309
C101	C	-0.931615	0.142078	0.217509
C102	C	-0.431615	0.642078	0.717509
C103	C	-0.977546	0.158131	0.460540
C104	C	-0.477546	0.658131	0.960540
C105	C	-0.977560	0.158134	0.539339
C106	C	-0.477560	0.658134	1.039339
C107	C	-0.988778	0.094878	0.578757
C108	C	-0.488778	0.594878	1.078757
C109	C	-0.999998	0.031616	0.539367
C110	C	-0.499998	0.531616	1.039367
C111	C	-0.999989	0.031613	0.460567
C112	C	-0.499989	0.531613	0.960567
C113	C	-0.988758	0.094878	0.421156
C114	C	-0.488758	0.594878	0.921156
C115	C	-1.045907	0.047663	0.703595
C116	C	-0.545907	0.547663	1.203595
C117	C	-1.045906	0.047659	0.782398
C118	C	-0.545906	0.547659	1.282398
C119	C	-0.931670	0.142093	0.782402
C120	C	-0.431670	0.642093	1.282402
C121	C	-0.931667	0.142091	0.703600
C122	C	-0.431667	0.642091	1.203600
C123	C	-0.988790	0.094877	0.664202
C124	C	-0.488790	0.594877	1.164202
H125	H	-0.399515	0.200289	0.050794
H126	H	0.100485	0.700289	0.550794
H127	H	-0.575151	0.000779	0.071616
H128	H	-0.075151	0.500779	0.571616
Cl129	Cl	-0.424837	-0.031393	-0.075166
Cl130	Cl	0.075163	0.468607	0.424834
H131	H	-0.418761	0.084296	0.124639
H132	H	0.081239	0.584296	0.624639
Cl133	Cl	-0.859827	0.201436	0.345847
Cl134	Cl	-0.359827	0.701436	0.845847
H135	H	-0.543149	0.202583	0.051100
H136	H	-0.043149	0.702583	0.551100
Cl137	Cl	-0.859871	0.201446	0.831936
Cl138	Cl	-0.359871	0.701446	1.331936
Cl139	Cl	-0.402397	0.095928	-0.153681
Cl140	Cl	0.097603	0.595928	0.346319
H141	H	-0.968429	0.209646	0.571404
H142	H	-0.468429	0.709646	1.071404
Cl143	Cl	-0.858236	-0.309045	0.098980
Cl144	Cl	-0.358236	0.190955	0.598980
H145	H	-0.853104	-0.232346	-0.000037
H146	H	-0.353104	0.267654	0.499963
Cl147	Cl	-1.166407	-0.118638	-0.000028
Cl148	Cl	-0.666407	0.381362	0.499972
H149	H	-1.092418	0.009213	0.814472
H150	H	-0.592418	0.509213	1.314472
H151	H	-0.885157	0.180535	0.671525
H152	H	-0.385157	0.680535	1.171525
Cl153	Cl	-0.814010	-0.528096	-0.000062
Cl154	Cl	-0.314010	-0.028096	0.499938
Cl155	Cl	-0.574647	0.095370	0.154435
Cl156	Cl	-0.074647	0.595370	0.654435
Cl157	Cl	-0.963521	0.237662	0.410993
Cl158	Cl	-0.463521	0.737662	0.910993
Cl159	Cl	-0.859801	0.201431	0.167984
Cl160	Cl	-0.359801	0.701431	0.667984
Cl161	Cl	-1.122182	-0.337681	-0.099043
Cl162	Cl	-0.622182	0.162319	0.400957
Cl163	Cl	-0.811117	-0.691618	-0.000075
Cl164	Cl	-0.311117	-0.191618	0.499925
Cl165	Cl	-1.117713	-0.011695	0.654064
Cl166	Cl	-0.617713	0.488305	1.154064
H167	H	-0.431087	0.000627	0.076386
H168	H	0.068913	0.500627	0.576386
H169	H	-1.130001	-0.262440	-0.000033
H170	H	-0.630001	0.237560	0.499967
H171	H	-1.092369	0.009211	0.185426
H172	H	-0.592369	0.509211	0.685426
H173	H	-1.092379	0.009210	0.328383
H174	H	-0.592379	0.509210	0.828383
Cl175	Cl	-0.554890	0.218489	-0.078933
Cl176	Cl	-0.054890	0.718489	0.421067
Cl177	Cl	-1.155616	-0.729064	-0.000078
Cl178	Cl	-0.655616	-0.229064	0.499922
H179	H	-0.400149	0.200166	-0.051783
H180	H	0.099851	0.700166	0.448217
Cl181	Cl	-1.119291	-0.501207	-0.099062
Cl182	Cl	-0.619291	-0.001207	0.400938
H183	H	-0.855419	-0.100906	-0.000033
H184	H	-0.355419	0.399094	0.499967
H185	H	-0.561128	0.085059	-0.124986
H186	H	-0.061128	0.585059	0.375014
H187	H	-1.009123	-0.019897	0.428499
H188	H	-0.509123	0.480103	0.928499
H189	H	-0.881518	-0.459329	0.079532
H190	H	-0.381518	0.040671	0.579532
Cl191	Cl	-0.593058	-0.028195	-0.076138
Cl192	Cl	-0.093058	0.471805	0.423862
Cl193	Cl	-1.158508	-0.565542	-0.000042
Cl194	Cl	-0.658508	-0.065542	0.499958
H195	H	-1.009132	-0.019893	0.571460
H196	H	-0.509132	0.480107	1.071460
