data_functionalizedCrystal
_audit_creation_method	'MofGen! by Chris Wilmer'
_symmetry_space_group_name_H-M	'P1'
_symmetry_Int_Tables_number	1
_symmetry_cell_setting	triclinic
loop_
_symmetry_equiv_pos_as_xyz
  x,y,z
_cell_length_a	16.109317
_cell_length_b	17.666332
_cell_length_c	16.109301
_cell_angle_alpha	90.007897
_cell_angle_beta	96.535152
_cell_angle_gamma	89.995238
loop_
_atom_site_label
_atom_site_type_symbol
_atom_site_fract_x
_atom_site_fract_y
_atom_site_fract_z
O1	O	-1.103129	0.062870	0.106934
O2	O	-0.861069	0.062890	0.120219
O3	O	-0.988749	0.062872	-0.007454
O4	O	-0.975449	0.062888	0.234607
O5	O	-0.988726	-0.063025	-0.007461
O6	O	-0.861047	-0.063007	0.120212
O7	O	-1.103107	-0.063027	0.106927
Cu8	Cu	-0.982075	-0.074512	0.113569
Cu9	Cu	-0.982101	0.074375	0.113577
O10	O	-0.975427	-0.063009	0.234600
C11	C	-0.830083	-0.000056	0.119675
C12	C	-0.737788	-0.000049	0.118054
C13	C	-0.438727	0.068568	0.112824
C14	C	-0.525448	0.068572	0.114341
C15	C	-0.525443	-0.068688	0.114322
C16	C	-0.438724	-0.068691	0.112799
C17	C	-0.395367	-0.000060	0.112054
C18	C	-0.568808	-0.000054	0.115095
C19	C	-0.662835	-0.000051	0.116740
C20	C	-0.301335	-0.000063	0.110408
N21	N	-0.982062	-0.179232	0.113563
C22	C	-1.038617	-0.218849	0.057057
C23	C	-1.038622	-0.298097	0.057053
C24	C	-0.982080	-0.337724	0.113569
C25	C	-0.925514	-0.298097	0.170079
C26	C	-0.925505	-0.218851	0.170076
N27	N	-0.971477	-0.462137	0.187138
N28	N	-0.971490	-0.537417	0.187138
C29	C	-0.982101	-0.576488	0.113581
N30	N	-0.992716	-0.537434	0.040020
N31	N	-0.992706	-0.462147	0.040021
C32	C	-0.982082	-0.423653	0.113578
C33	C	-1.038665	-0.702035	0.057066
C34	C	-1.038664	-0.781284	0.057061
C35	C	-0.925560	-0.781282	0.170094
C36	C	-0.925557	-0.702035	0.170092
C37	C	-0.982114	-0.662416	0.113579
C38	C	-0.134092	-0.000075	0.107472
C39	C	-0.226387	-0.000065	0.109095
C40	C	-0.988199	-0.000077	-0.038433
C41	C	-0.986584	-0.000078	-0.130728
N42	N	-0.982120	0.179095	0.113577
C43	C	-1.058591	-0.000072	-0.352996
C44	C	-1.057067	-0.000066	-0.439717
C45	C	-0.905579	-0.000056	-0.419851
C46	C	-0.907104	-0.000057	-0.333132
C47	C	-0.983612	-0.000069	-0.299707
C48	C	-0.980563	-0.000062	-0.473147
C49	C	-0.978910	-0.000055	-0.567173
C50	C	-0.985266	-0.000074	-0.205675
C51	C	-0.975977	-0.000058	0.265578
C52	C	-0.977592	-0.000052	0.357874
H53	H	-0.403419	-0.124579	0.112172
O54	O	-0.864597	-0.824026	0.231063
H55	H	-0.875184	-0.808796	0.295874
H56	H	-1.084677	-0.330360	0.011037
O57	O	-0.826227	-0.000054	-0.275653
H58	H	-0.840143	-0.000047	-0.209737
H59	H	-0.560748	0.124456	0.114967
H60	H	-0.403429	0.124452	0.112216
O61	O	-1.099672	-0.824010	-0.003891
H62	H	-1.064702	-0.860120	-0.044326
O63	O	-1.099603	-0.176116	-0.003904
H64	H	-1.138925	-0.216984	-0.043204
O65	O	-0.572209	-0.142706	0.115139
H66	H	-0.527487	-0.190428	0.114342
O67	O	-0.864531	-0.340830	0.231043
H68	H	-0.874045	-0.402591	0.221560
H69	H	-0.879450	-0.186593	0.216091
H70	H	-0.879508	-0.669776	0.216108
H71	H	-1.120889	-0.000080	-0.325785
O72	O	-1.099650	-0.659294	-0.003894
H73	H	-1.138968	-0.700160	-0.043199
O74	O	-1.137935	-0.000078	-0.497196
H75	H	-1.191389	-0.000094	-0.459381
O76	O	-0.823061	-0.000060	-0.455901
H77	H	-0.834595	-0.000071	-0.525155
