data_functionalizedCrystal
_audit_creation_method	'MofGen! by Chris Wilmer'
_symmetry_space_group_name_H-M	'P1'
_symmetry_Int_Tables_number	1
_symmetry_cell_setting	triclinic
loop_
_symmetry_equiv_pos_as_xyz
  x,y,z
_cell_length_a	8.597340
_cell_length_b	8.597304
_cell_length_c	14.048226
_cell_angle_alpha	82.293729
_cell_angle_beta	97.695678
_cell_angle_gamma	86.359595
loop_
_atom_site_label
_atom_site_type_symbol
_atom_site_fract_x
_atom_site_fract_y
_atom_site_fract_z
O1	O	2.085993	0.234297	0.072720
O2	O	1.629345	0.252275	0.033790
O3	O	1.866654	0.014956	0.072721
O4	O	1.848684	0.471616	0.033790
O5	O	1.866624	0.014941	0.231041
O6	O	1.629316	0.252260	0.192110
O7	O	2.085963	0.234283	0.231040
Zn8	Zn	1.857635	0.243269	0.236712
Zn9	Zn	1.857673	0.243288	0.028118
O10	O	1.848655	0.471602	0.192110
C11	C	1.570830	0.250337	0.108310
C12	C	1.396519	0.244567	0.094486
C13	C	1.864708	-0.043553	0.156519
C14	C	1.858936	-0.217869	0.170338
C15	C	2.144478	0.236220	0.156518
C16	C	2.318789	0.241990	0.170336
C17	C	1.850600	0.530110	0.108309
C18	C	1.856373	0.704427	0.094484
N19	N	1.857620	0.243255	0.379073
N20	N	1.857700	0.243290	-0.114240
C21	C	1.962734	0.138215	0.446128
C22	C	1.962745	0.138214	0.545787
C23	C	1.857648	0.243262	0.578388
C24	C	1.752522	0.348308	0.511324
C25	C	1.752505	0.348299	0.411667
C26	C	1.752567	0.348320	0.719041
C27	C	1.752586	0.348330	0.818704
C28	C	1.962808	0.138234	0.853160
C29	C	1.962791	0.138226	0.753504
C30	C	1.857666	0.243274	0.686447
H31	H	1.856696	-0.284707	0.245860
C32	C	2.077122	0.024115	0.925809
C33	C	2.169196	-0.067844	0.875928
C34	C	2.274538	-0.172959	0.942822
H35	H	2.019857	-0.042288	0.965451
H36	H	2.143414	0.081603	0.965372
H37	H	2.102913	-0.125328	0.836381
H38	H	2.226495	-0.001485	0.836290
H39	H	2.340830	-0.115471	0.982386
H40	H	2.217260	-0.239350	0.982461
H41	H	2.337033	-0.235355	0.908988
C42	C	1.638250	0.462119	0.646190
C43	C	1.540840	0.376966	0.588010
C44	C	1.435508	0.481747	0.520899
H45	H	1.695527	0.528402	0.606486
H46	H	1.575573	0.524664	0.679843
H47	H	1.603510	0.314449	0.554360
H48	H	1.483528	0.310689	0.627688
H49	H	1.372831	0.544291	0.554552
H50	H	1.492798	0.548024	0.481202
H51	H	1.369393	0.423986	0.481422
C52	C	1.638394	0.462113	0.854245
C53	C	1.541090	0.376935	0.910503
C54	C	1.435891	0.481695	0.943274
H55	H	1.575616	0.524714	0.800136
H56	H	1.695824	0.528343	0.892442
H57	H	1.483665	0.310733	0.872309
H58	H	1.603824	0.314339	0.964627
H59	H	1.493321	0.547925	0.981470
H60	H	1.373125	0.544290	0.889159
H61	H	1.369868	0.423918	0.981456
H62	H	2.048323	0.052679	0.419593
H63	H	1.385596	0.244186	0.245856
H64	H	1.329705	0.242360	0.018962
C65	C	1.638568	0.462604	0.338904
C66	C	1.666413	0.617278	0.352706
C67	C	1.561491	0.722615	0.285686
H68	H	1.533483	0.444098	0.348110
H69	H	1.653615	0.447659	0.274866
H70	H	1.651352	0.632217	0.416728
H71	H	1.771477	0.635833	0.343491
H72	H	1.576539	0.707670	0.221649
H73	H	1.456413	0.704095	0.294898
H74	H	1.580379	0.827572	0.295036
H75	H	2.048336	0.052681	0.600384
H76	H	1.666942	0.433835	0.537873
H77	H	2.048376	0.052696	0.726962
H78	H	1.858590	-0.228741	0.018965
