data_functionalizedCrystal
_audit_creation_method	'MofGen! by Chris Wilmer'
_symmetry_space_group_name_H-M	'P1'
_symmetry_Int_Tables_number	1
_symmetry_cell_setting	triclinic
loop_
_symmetry_equiv_pos_as_xyz
  x,y,z
_cell_length_a	8.634740
_cell_length_b	8.597282
_cell_length_c	7.681481
_cell_angle_alpha	103.491727
_cell_angle_beta	96.618947
_cell_angle_gamma	87.119848
loop_
_atom_site_label
_atom_site_type_symbol
_atom_site_fract_x
_atom_site_fract_y
_atom_site_fract_z
O1	O	2.031472	-0.532549	-0.227206
O2	O	1.582521	-0.488971	-0.220600
O3	O	1.819274	-0.280605	-0.188981
O4	O	1.794719	-0.740915	-0.258825
O5	O	1.848414	-0.254890	0.107779
O6	O	1.611661	-0.463256	0.076160
O7	O	2.060613	-0.506835	0.069554
Zn8	Zn	1.840764	-0.480963	0.119974
Zn9	Zn	1.802370	-0.514843	-0.271020
O10	O	1.823860	-0.715201	0.037935
C11	C	1.539641	-0.466241	-0.070723
C12	C	1.368458	-0.436806	-0.066260
C13	C	1.832830	-0.208206	-0.031571
C14	C	1.829791	-0.030788	-0.004662
C15	C	2.103492	-0.529564	-0.080327
C16	C	2.274674	-0.559000	-0.084803
N17	N	1.866978	-0.457841	0.386817
C18	C	1.810303	0.212400	-0.119479
C19	C	1.813342	0.034982	-0.146396
N20	N	1.776168	-0.537953	-0.537861
H21	H	1.325350	-0.686142	-0.104083
O22	O	1.977494	-0.360076	0.491167
C23	C	2.073045	-0.091736	0.588703
C24	C	1.947816	-0.202280	0.470412
H25	H	2.049075	0.035871	0.571993
H26	H	2.193050	-0.134390	0.546030
H27	H	2.069660	-0.094843	0.735776
H28	H	1.951057	-0.199224	0.323309
H29	H	1.827867	-0.159589	0.513238
H30	H	1.841542	0.048634	0.137276
O31	O	1.665539	-0.635620	0.357893
C32	C	1.459605	-0.817140	0.349438
C33	C	1.584855	-0.706615	0.467715
H34	H	1.394316	-0.874543	0.438184
H35	H	1.517684	-0.914555	0.248379
H36	H	1.374014	-0.744045	0.274180
H37	H	1.670485	-0.779575	0.543089
H38	H	1.526669	-0.609196	0.568663
O39	O	1.308129	-0.285075	-0.042930
C40	C	1.305197	-0.019873	0.148967
C41	C	1.373629	-0.191660	0.122796
H42	H	1.358150	0.055710	0.282933
H43	H	1.173281	-0.022253	0.148717
H44	H	1.333578	0.034128	0.034543
H45	H	1.345365	-0.245764	0.237184
H46	H	1.505528	-0.189174	0.122971
O47	O	1.799071	-0.059904	-0.315667
C48	C	1.650214	-0.261970	-0.531416
C49	C	1.666241	-0.154647	-0.339654
H50	H	1.542809	-0.338573	-0.550883
H51	H	1.758512	-0.342834	-0.551652
H52	H	1.637405	-0.183859	-0.633731
H53	H	1.679004	-0.232633	-0.237220
H54	H	1.557937	-0.073772	-0.319570
