data_functionalizedCrystal
_audit_creation_method	'MofGen! by Chris Wilmer'
_symmetry_space_group_name_H-M	'P1'
_symmetry_Int_Tables_number	1
_symmetry_cell_setting	triclinic
loop_
_symmetry_equiv_pos_as_xyz
  x,y,z
_cell_length_a	13.635800
_cell_length_b	20.659702
_cell_length_c	9.582880
_cell_angle_alpha	93.986043
_cell_angle_beta	68.792966
_cell_angle_gamma	121.792501
loop_
_atom_site_label
_atom_site_type_symbol
_atom_site_fract_x
_atom_site_fract_y
_atom_site_fract_z
V1	V	2.109813	0.105091	-0.467224
O2	O	2.048556	-0.005381	-0.457687
O3	O	2.136056	0.208695	-0.464646
O4	O	2.104336	0.103329	-0.670714
O5	O	2.080495	0.100715	-0.250193
V6	V	2.342664	0.091894	-0.441190
O7	O	2.259987	0.134038	-0.524331
O8	O	2.417589	0.062946	-0.384083
O9	O	2.204818	-0.011710	-0.443768
O10	O	2.462619	0.202366	-0.450727
O11	O	2.430680	0.096270	-0.658221
O12	O	2.236537	0.093656	-0.237700
V13	V	2.609813	0.105091	-0.467224
O14	O	2.548556	-0.005381	-0.457687
O15	O	2.636056	0.208695	-0.464646
O16	O	2.604336	0.103329	-0.670714
O17	O	2.580495	0.100715	-0.250193
V18	V	2.842664	0.091894	-0.441190
O19	O	2.759987	0.134038	-0.524331
O20	O	2.917589	0.062946	-0.384083
O21	O	2.704818	-0.011710	-0.443768
O22	O	2.962619	0.202366	-0.450727
O23	O	2.930680	0.096270	-0.658221
O24	O	2.736537	0.093656	-0.237700
C25	C	2.070222	0.233956	-0.457435
C26	C	2.132447	0.318653	-0.456684
C27	C	2.255352	0.362320	-0.463819
C28	C	2.313815	0.441902	-0.463122
C29	C	2.249368	0.477816	-0.455280
C30	C	2.126453	0.434144	-0.448149
C31	C	2.067995	0.354564	-0.448857
C32	C	2.362206	0.755082	-0.445297
C33	C	2.420675	0.834667	-0.444585
C34	C	2.608027	0.842420	-0.459562
C35	C	2.549569	0.762840	-0.460270
C36	C	2.426662	0.719175	-0.453147
C37	C	2.363271	0.632883	-0.453906
C38	C	2.312754	0.564105	-0.454510
C39	C	2.029759	0.099550	-0.720294
C40	C	2.066257	0.098795	-0.886652
C41	C	2.605808	0.963032	-0.450974
C42	C	2.543585	0.878336	-0.451731
C43	C	2.102325	-0.036968	-0.450975
C44	C	2.029720	-0.121664	-0.451735
C45	C	1.947279	-0.172232	-0.314970
C46	C	1.879038	-0.251814	-0.315664
C47	C	1.893246	-0.280827	-0.453124
C48	C	1.975693	-0.230253	-0.589900
C49	C	2.043926	-0.150672	-0.589205
C50	C	2.142786	0.097437	-0.188113
C51	C	2.095905	0.098188	-0.021753
C52	C	2.570222	0.233956	-0.457435
C53	C	2.632447	0.318653	-0.456684
C54	C	2.529759	0.099550	-0.720294
C55	C	2.566257	0.098795	-0.886652
C56	C	2.642786	0.097437	-0.188113
C57	C	2.595905	0.098188	-0.021753
C58	C	2.755356	0.362308	-0.463832
C59	C	2.813844	0.441892	-0.463149
C60	C	2.749417	0.477820	-0.455308
C61	C	2.626497	0.434160	-0.448165
C62	C	2.568015	0.354578	-0.448858
H63	H	2.307836	0.333084	-0.470191
H64	H	1.987249	-0.253887	-0.701816
H65	H	2.111056	-0.109504	-0.700579
H66	H	2.602053	0.733602	-0.466648
H67	H	2.807832	0.333066	-0.470207
H68	H	2.413893	0.477452	-0.468934
H69	H	2.368187	0.863906	-0.438209
H70	H	2.262134	0.719539	-0.439488
H71	H	2.073985	0.463392	-0.441773
H72	H	1.837674	-0.345629	-0.453669
C73	C	2.741408	0.889904	-0.467068
C74	C	2.744013	0.925654	-0.337711
C75	C	2.866856	0.969408	-0.344574
H76	H	2.771541	0.857200	-0.471761
H77	H	2.792838	0.928050	-0.554775
H78	H	2.692601	0.887514	-0.250026
H79	H	2.713904	0.958371	-0.332992
H80	H	2.918286	1.007553	-0.432282
H81	H	2.896979	0.936698	-0.349270
H82	H	2.868642	0.993675	-0.256815
C83	C	2.434648	0.307168	-0.441384
C84	C	2.432004	0.271438	-0.570759
C85	C	2.309168	0.227770	-0.563933
H86	H	2.383136	0.269012	-0.353716
H87	H	2.404635	0.339948	-0.436688
H88	H	2.462000	0.238660	-0.575440
H89	H	2.483490	0.309576	-0.658446
H90	H	2.279156	0.260550	-0.559236
H91	H	2.257666	0.189618	-0.476260
H92	H	2.307360	0.203527	-0.651717
C93	C	2.947302	0.489419	-0.470938
C94	C	2.984757	0.566809	-0.468693
C95	C	3.107690	0.610611	-0.475876
H96	H	2.951636	0.471158	-0.386428
H97	H	3.000958	0.484908	-0.561868
H98	H	2.931116	0.571317	-0.377773
H99	H	2.980452	0.585093	-0.553197
H100	H	3.161346	0.606099	-0.566806
H101	H	3.112013	0.592343	-0.391364
H102	H	3.133123	0.663125	-0.474368
C103	C	1.934459	0.307165	-0.440790
C104	C	1.855719	0.313985	-0.306671
C105	C	1.732696	0.270325	-0.299185
H106	H	1.930067	0.325468	-0.525199
H107	H	1.908803	0.254612	-0.442253
H108	H	1.881368	0.366527	-0.305222
H109	H	1.860072	0.295677	-0.222239
H110	H	1.707039	0.217772	-0.300648
H111	H	1.728317	0.288632	-0.383601
H112	H	1.679254	0.274941	-0.208181
C113	C	2.556742	0.473309	-0.439571
C114	C	2.634267	0.552341	-0.440446
C115	C	2.570044	0.588429	-0.432500
H116	H	2.533339	0.465669	-0.524284
H117	H	2.483995	0.451823	-0.348849
H118	H	2.706990	0.573820	-0.531158
H119	H	2.657672	0.560003	-0.355738
H120	H	2.497298	0.566944	-0.341778
H121	H	2.546645	0.580784	-0.517215
H122	H	2.622631	0.642055	-0.433079
H123	H	1.935694	-0.148622	-0.203029
H124	H	1.811913	-0.292983	-0.204281
H125	H	2.797052	0.542621	-0.454745
