data_functionalizedCrystal
_audit_creation_method	'MofGen! by Chris Wilmer'
_symmetry_space_group_name_H-M	'P1'
_symmetry_Int_Tables_number	1
_symmetry_cell_setting	triclinic
loop_
_symmetry_equiv_pos_as_xyz
  x,y,z
_cell_length_a	12.759401
_cell_length_b	12.759394
_cell_length_c	12.759387
_cell_angle_alpha	89.968877
_cell_angle_beta	89.981987
_cell_angle_gamma	90.014017
loop_
_atom_site_label
_atom_site_type_symbol
_atom_site_fract_x
_atom_site_fract_y
_atom_site_fract_z
Zn1	Zn	1.606257	-0.418195	-0.593989
Zn2	Zn	1.606155	-0.593915	-0.418312
Zn3	Zn	1.430560	-0.418251	-0.418328
Zn4	Zn	1.430550	-0.593833	-0.593953
O5	O	1.518380	-0.506048	-0.506145
O6	O	1.753264	-0.441515	-0.570693
O7	O	1.582824	-0.570671	-0.271293
O8	O	1.453913	-0.271223	-0.441651
O9	O	1.753189	-0.570616	-0.441624
O10	O	1.582997	-0.271181	-0.570709
O11	O	1.453815	-0.441612	-0.271305
O12	O	1.283538	-0.441532	-0.441617
O13	O	1.453896	-0.570476	-0.740979
O14	O	1.283530	-0.570531	-0.570648
O15	O	1.582987	-0.441435	-0.741005
O16	O	1.582814	-0.740925	-0.441589
O17	O	1.453797	-0.740865	-0.570632
C18	C	1.245413	-0.506029	-0.506131
C19	C	1.128636	-0.506046	-0.506150
C20	C	1.518322	-0.779016	-0.506128
C21	C	1.518393	-0.895793	-0.506156
C22	C	1.073798	-0.573323	-0.573225
C23	C	0.964074	-0.573337	-0.573237
C24	C	0.964036	-0.438792	-0.439088
C25	C	1.073758	-0.438775	-0.439083
C26	C	1.073819	-0.651005	-0.650672
C27	C	0.964095	-0.651018	-0.650683
C28	C	1.652707	-0.895591	-0.640644
C29	C	1.719897	-0.950351	-0.707896
C30	C	1.719960	-1.060073	-0.707918
C31	C	1.652822	-1.115037	-0.640684
C32	C	1.585632	-1.060277	-0.573432
C33	C	1.585579	-0.950553	-0.573415
C34	C	1.451315	-1.060478	-0.438951
C35	C	1.451256	-0.950757	-0.438922
C36	C	1.384177	-1.115442	-0.371717
C37	C	1.316991	-1.060682	-0.304458
C38	C	1.316932	-0.950954	-0.304437
C39	C	1.384066	-0.895997	-0.371670
C40	C	1.792414	-0.506069	-0.506160
C41	C	1.909190	-0.506077	-0.506167
C42	C	1.518452	-0.505940	-0.780179
C43	C	1.518482	-0.505894	-0.896956
C44	C	1.518468	-0.232015	-0.506186
C45	C	1.518505	-0.115238	-0.506203
C46	C	1.384154	-0.371495	-0.896987
C47	C	1.317009	-0.304275	-0.951864
C48	C	1.317040	-0.304237	-1.061585
C49	C	1.384222	-0.371428	-1.116433
C50	C	1.451367	-0.438649	-1.061557
C51	C	1.451330	-0.438677	-0.951832
C52	C	1.585688	-0.573051	-1.061525
C53	C	1.585663	-0.573085	-0.951803
C54	C	1.652869	-0.640243	-1.116373
C55	C	1.720021	-0.707459	-1.061496
C56	C	1.719988	-0.707494	-0.951768
C57	C	1.652808	-0.640306	-0.896927
C58	C	1.518370	-0.506081	-0.233178
C59	C	1.518543	-0.505831	-0.116402
H60	H	1.118404	-0.383984	-0.384471
Cl61	Cl	0.895040	-0.354227	-0.354781
Cl62	Cl	1.384240	-0.371397	-1.254370
H63	H	1.774668	-0.762230	-0.907094
H64	H	1.103626	-0.629305	-0.732078
Cl65	Cl	1.652764	-0.640339	-0.758990
H66	H	0.930096	-0.621973	-0.728035
H67	H	1.107834	-0.728257	-0.621388
Cl68	Cl	1.804425	-1.128917	-0.792467
Cl69	Cl	1.653053	-1.252973	-0.640565
Cl70	Cl	1.804460	-0.791927	-1.130452
Cl71	Cl	1.652620	-0.757654	-0.640634
Cl72	Cl	0.918086	-0.776601	-0.616789
Cl73	Cl	1.232454	-0.882122	-0.219892
Cl74	Cl	1.804284	-0.881249	-0.792424
Cl75	Cl	1.384400	-1.253379	-0.371601
H76	H	1.384029	-0.806656	-0.371655
H77	H	1.262328	-1.105443	-0.249727
H78	H	1.262364	-0.249501	-1.106266
Cl79	Cl	1.384122	-0.371524	-0.759050
H80	H	1.262309	-0.249571	-0.907195
H81	H	1.652885	-0.640212	-1.205714
