data_functionalizedCrystal
_audit_creation_method	'MofGen! by Chris Wilmer'
_symmetry_space_group_name_H-M	'P1'
_symmetry_Int_Tables_number	1
_symmetry_cell_setting	triclinic
loop_
_symmetry_equiv_pos_as_xyz
  x,y,z
_cell_length_a	11.169417
_cell_length_b	13.897447
_cell_length_c	11.169409
_cell_angle_alpha	90.034303
_cell_angle_beta	90.019824
_cell_angle_gamma	90.020409
loop_
_atom_site_label
_atom_site_type_symbol
_atom_site_fract_x
_atom_site_fract_y
_atom_site_fract_z
Zn1	Zn	1.834886	-0.383914	0.678526
Zn2	Zn	1.834743	-0.545250	0.477836
Zn3	Zn	1.634172	-0.383973	0.477861
Zn4	Zn	1.634147	-0.545171	0.678481
O5	O	1.734487	-0.464577	0.578176
O6	O	2.002816	-0.405324	0.651913
O7	O	1.808087	-0.523914	0.309890
O8	O	1.660867	-0.248984	0.504509
O9	O	2.002711	-0.523857	0.504467
O10	O	1.808331	-0.248940	0.651937
O11	O	1.660728	-0.405424	0.309908
O12	O	1.466219	-0.405348	0.504465
O13	O	1.660825	-0.523723	0.846437
O14	O	1.466200	-0.523780	0.651860
O15	O	1.808307	-0.405248	0.846470
O16	O	1.808063	-0.680221	0.504423
O17	O	1.660686	-0.680163	0.651836
C18	C	1.422662	-0.464562	0.578161
C19	C	1.289262	-0.464579	0.578183
C20	C	1.734389	-0.715191	0.578148
C21	C	1.734457	-0.822405	0.578177
C22	C	1.734515	-0.909475	0.578204
C23	C	1.734599	-1.018708	0.578235
C24	C	2.047529	-0.464592	0.578192
C25	C	2.180929	-0.464599	0.578199
C26	C	1.734579	-0.464470	0.891219
C27	C	1.734618	-0.464424	1.024619
C28	C	1.734617	-0.212984	0.578230
C29	C	1.734673	-0.105770	0.578253
C30	C	1.734464	-0.464614	0.266351
C31	C	1.734657	-0.464388	0.132952
