data_functionalizedCrystal
_audit_creation_method	'MofGen! by Chris Wilmer'
_symmetry_space_group_name_H-M	'P1'
_symmetry_Int_Tables_number	1
_symmetry_cell_setting	triclinic
loop_
_symmetry_equiv_pos_as_xyz
  x,y,z
_cell_length_a	17.699097
_cell_length_b	13.339070
_cell_length_c	16.776229
_cell_angle_alpha	89.996888
_cell_angle_beta	89.989262
_cell_angle_gamma	99.458863
loop_
_atom_site_label
_atom_site_type_symbol
_atom_site_fract_x
_atom_site_fract_y
_atom_site_fract_z
O1	O	1.031113	0.127929	-0.066354
O2	O	0.814249	0.144551	-0.066340
O3	O	0.897792	-0.010964	-0.066343
O4	O	0.947570	0.283444	-0.066351
O5	O	0.897775	-0.010974	0.066233
O6	O	0.814232	0.144541	0.066236
O7	O	1.031096	0.127920	0.066223
Zn8	Zn	0.922661	0.136229	0.087279
Zn9	Zn	0.922684	0.136241	-0.087396
O10	O	0.947553	0.283434	0.066226
C11	C	0.785918	0.143948	-0.000051
C12	C	0.701521	0.142154	-0.000046
C13	C	0.183488	0.131166	-0.072345
C14	C	0.262787	0.132844	-0.072341
C15	C	0.302421	0.133680	-0.000070
C16	C	0.262751	0.132827	0.072201
C17	C	0.183453	0.131141	0.072196
C18	C	0.582552	0.139623	0.072222
C19	C	0.661856	0.141312	0.072221
C20	C	0.661886	0.141326	-0.072315
C21	C	0.582588	0.139640	-0.072320
C22	C	0.542924	0.138782	-0.000049
C23	C	0.456939	0.136960	-0.000054
C24	C	0.388406	0.135509	-0.000064
C25	C	0.889375	-0.048638	-0.000055
C26	C	0.864312	-0.160880	-0.000057
C27	C	1.059193	-0.526139	-0.000068
C28	C	1.082744	-0.420683	-0.000062
C29	C	1.028138	-0.355727	-0.000061
C30	C	0.949977	-0.396238	-0.000066
C31	C	0.926424	-0.501704	-0.000066
C32	C	0.895368	-0.331292	-0.000059
C33	C	0.817207	-0.371803	-0.000063
C34	C	0.793658	-0.477259	-0.000064
C35	C	0.848264	-0.542215	-0.000065
C36	C	0.918922	-0.225826	-0.000059
C37	C	0.786152	-0.201391	-0.000056
C38	C	0.762601	-0.306847	-0.000062
C39	C	1.059428	0.128522	-0.000069
C40	C	1.143824	0.130316	-0.000079
C41	C	0.955970	0.321108	-0.000064
C42	C	0.981034	0.433350	-0.000067
N43	N	0.922651	0.136220	0.206490
N44	N	0.922699	0.136243	-0.206608
C45	C	0.959665	0.067386	0.248206
C46	C	0.959669	0.067385	0.331658
C47	C	0.922663	0.136224	0.373393
C48	C	0.885644	0.205061	0.331671
C49	C	0.885636	0.205056	0.248221
C50	C	0.885675	0.205080	0.668218
C51	C	0.885688	0.205082	0.751675
C52	C	0.959709	0.067410	0.751656
C53	C	0.959701	0.067405	0.668205
C54	C	0.922678	0.136238	0.626491
C55	C	0.922673	0.136237	0.536003
C56	C	0.922672	0.136230	0.463880
H57	H	0.295077	0.133530	-0.131187
H58	H	0.550322	0.138965	-0.131170
O59	O	0.994833	-0.186432	0.000080
C60	C	1.098462	-0.081513	0.068733
C61	C	1.012479	-0.126075	0.068687
H62	H	1.112754	-0.032688	0.124187
H63	H	1.133481	-0.146015	0.068782
H64	H	1.112798	-0.032789	0.013223
H65	H	0.998072	-0.174787	0.124187
H66	H	0.977508	-0.061525	0.068597
O67	O	1.158632	-0.381165	-0.000030
C68	C	1.253756	-0.229529	-0.000084
C69	C	1.167784	-0.274147	-0.000099
H70	H	1.261183	-0.142999	-0.000157
H71	H	1.281882	-0.256223	0.055409
H72	H	1.281854	-0.256344	-0.055557
H73	H	1.139620	-0.247352	0.055336
H74	H	1.139715	-0.247459	-0.055629
H75	H	0.989852	0.011359	0.785629
H76	H	0.855551	0.261140	0.785654
O77	O	0.145044	0.130365	0.142467
C78	C	0.153370	0.130462	0.285833
C79	C	0.196965	0.131374	0.206308
H80	H	0.195328	0.131256	0.337470
H81	H	0.124192	0.200420	0.289501
H82	H	0.108299	0.058954	0.289399
H83	H	0.242072	0.202835	0.202689
H84	H	0.226090	0.061368	0.202674
H85	H	0.829093	-0.628088	-0.000072
O86	O	0.544104	0.138663	0.142477
C87	C	0.509986	0.050542	0.266001
C88	C	0.553576	0.051516	0.186468
H89	H	0.517616	-0.019919	0.301582
H90	H	0.533511	0.121557	0.301691
H91	H	0.446509	0.049239	0.253579
H92	H	0.617060	0.052784	0.198817
H93	H	0.529990	-0.019493	0.150802
H94	H	0.151225	0.130492	-0.131196
H95	H	0.989838	0.011354	0.634228
O96	O	0.733073	-0.138344	0.000083
C97	C	0.626764	-0.085229	0.068745
C98	C	0.686840	-0.156677	0.068693
H99	H	0.589359	-0.100041	0.124201
H100	H	0.656983	-0.002876	0.068793
H101	H	0.589440	-0.099926	0.013238
H102	H	0.724182	-0.142071	0.124191
H103	H	0.656572	-0.239007	0.068603
H104	H	0.730015	-0.510239	-0.000061
H105	H	0.855532	0.261128	0.634261
H106	H	0.694189	0.142021	-0.131162
H107	H	0.989804	0.011334	0.214231
O108	O	0.301319	0.133504	0.142354
C109	C	0.380981	0.047811	0.226267
C110	C	0.337352	0.046927	0.146781
H111	H	0.410112	-0.022190	0.229880
H112	H	0.426077	0.119288	0.229893
H113	H	0.339000	0.046962	0.277905
H114	H	0.379274	0.047739	0.095098
H115	H	0.292245	-0.024544	0.143225
H116	H	0.694124	0.141992	0.131076
O117	O	0.849761	0.271893	0.372333
C118	C	0.816932	0.332882	0.500899
C119	C	0.857612	0.257152	0.454952
H120	H	0.823251	0.320977	0.567704
H121	H	0.843796	0.413874	0.484535
H122	H	0.753577	0.319813	0.484465
H123	H	0.920969	0.270129	0.471361
H124	H	0.830686	0.176187	0.471319
H125	H	1.047318	-0.269860	-0.000056
H126	H	1.103645	-0.579035	-0.000063
H127	H	0.698961	-0.339846	-0.000065
O128	O	0.995701	0.000493	0.372057
C129	C	1.069108	-0.136078	0.363232
C130	C	1.028340	-0.060364	0.317382
H131	H	1.095493	-0.185315	0.319047
H132	H	1.116110	-0.092520	0.402259
H133	H	1.025847	-0.186502	0.402343
H134	H	1.071543	-0.009922	0.278228
H135	H	0.981326	-0.103985	0.278405
H136	H	0.855494	0.261106	0.214256
