data_functionalizedCrystal
_audit_creation_method	'MofGen! by Chris Wilmer'
_symmetry_space_group_name_H-M	'P1'
_symmetry_Int_Tables_number	1
_symmetry_cell_setting	triclinic
loop_
_symmetry_equiv_pos_as_xyz
  x,y,z
_cell_length_a	19.188925
_cell_length_b	19.188925
_cell_length_c	9.730223
_cell_angle_alpha	89.995959
_cell_angle_beta	89.995762
_cell_angle_gamma	83.142549
loop_
_atom_site_label
_atom_site_type_symbol
_atom_site_fract_x
_atom_site_fract_y
_atom_site_fract_z
O1	O	0.926144	0.087149	-0.114318
O2	O	1.426144	0.587149	0.385682
O3	O	0.722832	0.098888	-0.114315
O4	O	1.222832	0.598888	0.385685
O5	O	0.830357	-0.008637	-0.114309
O6	O	1.330357	0.491363	0.385691
O7	O	0.818619	0.194675	-0.114324
O8	O	1.318619	0.694675	0.385676
O9	O	0.830351	-0.008640	0.114271
O10	O	1.330351	0.491360	0.614271
O11	O	0.722825	0.098885	0.114265
O12	O	1.222825	0.598885	0.614265
O13	O	0.926137	0.087147	0.114262
O14	O	1.426137	0.587147	0.614262
Zn15	Zn	0.824480	0.093015	0.150555
Zn16	Zn	1.324480	0.593015	0.650555
Zn17	Zn	0.824489	0.093019	-0.150608
Zn18	Zn	1.324489	0.593019	0.349392
O19	O	0.818612	0.194672	0.114256
O20	O	1.318612	0.694672	0.614256
C21	C	0.696818	0.098507	-0.000024
C22	C	1.196818	0.598507	0.499976
C23	C	0.619313	0.097368	-0.000022
C24	C	1.119313	0.597368	0.499978
C25	C	0.829974	-0.034650	-0.000020
C26	C	1.329974	0.465350	0.499980
C27	C	0.828835	-0.112155	-0.000023
C28	C	1.328835	0.387845	0.499977
C29	C	0.057542	0.152832	-0.000030
C30	C	0.557542	0.652832	0.499970
C31	C	0.130365	0.153908	-0.000037
C32	C	0.630365	0.653908	0.499963
C33	C	0.175301	0.090816	-0.000030
C34	C	0.675301	0.590816	0.499970
C35	C	0.147408	0.026642	-0.000051
C36	C	0.647408	0.526642	0.499949
C37	C	0.074586	0.025568	-0.000057
C38	C	0.574586	0.525568	0.499943
N39	N	0.295976	0.045139	0.077784
N40	N	0.795976	0.545139	0.577784
N41	N	0.365154	0.046164	0.077792
N42	N	0.865154	0.546164	0.577792
C43	C	0.394710	0.094050	-0.000014
C44	C	0.894710	0.594050	0.499986
N45	N	0.352474	0.140883	-0.077813
N46	N	0.852474	0.640883	0.422187
N47	N	0.283290	0.139860	-0.077815
N48	N	0.783290	0.639860	0.422185
C49	C	0.254265	0.091974	-0.000024
C50	C	0.754265	0.591974	0.499976
C51	C	0.501557	0.159387	-0.000011
C52	C	1.001557	0.659387	0.499989
C53	C	0.574382	0.160461	-0.000027
C54	C	1.074382	0.660461	0.499973
C55	C	0.591424	0.033193	-0.000027
C56	C	1.091424	0.533193	0.499973
C57	C	0.518600	0.032121	-0.000025
C58	C	1.018600	0.532121	0.499975
C59	C	0.473671	0.095220	-0.000010
C60	C	0.973671	0.595220	0.499990
C61	C	0.884299	-0.673926	-0.000058
C62	C	1.384299	-0.173926	0.499942
C63	C	0.885376	-0.601103	-0.000046
C64	C	1.385376	-0.101103	0.499954
C65	C	0.822284	-0.556167	-0.000045
C66	C	1.322284	-0.056167	0.499955
C67	C	0.758110	-0.584060	-0.000022
C68	C	1.258110	-0.084060	0.499978
C69	C	0.757035	-0.656882	-0.000020
C70	C	1.257035	-0.156882	0.499980
N71	N	0.776610	-0.435485	-0.077847
N72	N	1.276610	0.064515	0.422153
N73	N	0.777635	-0.366307	-0.077851
N74	N	1.277635	0.133693	0.422149
C75	C	0.825518	-0.336758	-0.000046
C76	C	1.325518	0.163242	0.499954
N77	N	0.872347	-0.379001	0.077746
N78	N	1.372347	0.120999	0.577746
N79	N	0.871324	-0.448184	0.077744
N80	N	1.371324	0.051816	0.577744
C81	C	0.823442	-0.477203	-0.000046
C82	C	1.323442	0.022797	0.499954
C83	C	0.890854	-0.229910	-0.000047
C84	C	1.390854	0.270090	0.499953
C85	C	0.891928	-0.157085	-0.000026
C86	C	1.391928	0.342915	0.499974
C87	C	0.764661	-0.140044	-0.000015
C88	C	1.264661	0.359956	0.499985
C89	C	0.763589	-0.212867	-0.000022
C90	C	1.263589	0.287133	0.499978
C91	C	0.826688	-0.257797	-0.000044
C92	C	1.326688	0.242203	0.499956
C93	C	0.952152	0.087528	-0.000032
C94	C	1.452152	0.587528	0.499968
C95	C	1.029657	0.088667	-0.000043
C96	C	1.529657	0.588667	0.499957
C97	C	0.818995	0.220684	-0.000036
C98	C	1.318995	0.720684	0.499964
C99	C	0.820134	0.298189	-0.000043
C100	C	1.320134	0.798189	0.499957
N101	N	0.824479	0.093012	0.356092
N102	N	1.324479	0.593012	0.856092
N103	N	0.824496	0.093017	-0.356145
N104	N	1.324496	0.593017	0.143855
C105	C	0.872107	0.045420	0.428020
C106	C	1.372107	0.545420	0.928020
C107	C	0.872114	0.045420	0.571903
C108	C	1.372114	0.545420	1.071903
C109	C	0.776863	0.140611	0.571917
C110	C	1.276863	0.640611	1.071917
C111	C	0.776853	0.140607	0.428036
C112	C	1.276853	0.640607	0.928036
H113	H	0.020964	0.204212	-0.000025
H114	H	0.520964	0.704212	0.499975
Br115	Br	0.036739	-0.061520	-0.000083
Br116	Br	0.536739	0.438480	0.499917
Br117	Br	0.976486	-0.290889	-0.000073
Br118	Br	1.476486	0.209111	0.499927
H119	H	0.738065	0.179363	0.369468
H120	H	1.238065	0.679363	0.869468
H121	H	0.153074	0.206161	-0.000014
H122	H	0.653074	0.706161	0.499986
Br123	Br	0.652400	-0.052434	-0.000046
Br124	Br	1.152400	0.447566	0.499954
H125	H	0.597084	0.212714	-0.000028
H126	H	1.097084	0.712714	0.499972
Br127	Br	0.208390	-0.058984	-0.000053
Br128	Br	0.708390	0.441016	0.499947
H129	H	0.495897	-0.020129	-0.000027
H130	H	0.995897	0.479871	0.499973
H131	H	0.935680	-0.710503	-0.000069
H132	H	1.435680	-0.210503	0.499931
H133	H	0.910887	0.006664	0.369447
H134	H	1.410887	0.506664	0.869447
H135	H	0.944181	-0.134384	-0.000030
H136	H	1.444181	0.365616	0.499970
H137	H	0.464974	0.210766	-0.000002
H138	H	0.964974	0.710766	0.499998
Br139	Br	0.712231	0.205203	0.669560
Br140	Br	1.212231	0.705203	1.169560
H141	H	0.937628	-0.578394	-0.000059
H142	H	1.437628	-0.078394	0.499941
Br143	Br	0.672484	-0.523078	-0.000008
Br144	Br	1.172484	-0.023078	0.499992
Br145	Br	0.936752	-0.019175	0.669518
Br146	Br	1.436752	0.480825	1.169518
H147	H	0.704783	-0.679584	-0.000004
H148	H	1.204783	-0.179584	0.499996
H149	H	0.711338	-0.235571	-0.000019
H150	H	1.211338	0.264429	0.499981
H151	H	0.713290	-0.103458	-0.000002
H152	H	1.213290	0.396542	0.499998
