data_functionalizedCrystal
_audit_creation_method	'MofGen! by Chris Wilmer'
_symmetry_space_group_name_H-M	'P1'
_symmetry_Int_Tables_number	1
_symmetry_cell_setting	triclinic
loop_
_symmetry_equiv_pos_as_xyz
  x,y,z
_cell_length_a	14.853566
_cell_length_b	17.038272
_cell_length_c	15.500227
_cell_angle_alpha	86.966746
_cell_angle_beta	92.845607
_cell_angle_gamma	87.372985
loop_
_atom_site_label
_atom_site_type_symbol
_atom_site_fract_x
_atom_site_fract_y
_atom_site_fract_z
O1	O	1.207960	0.098459	0.071887
O2	O	0.946416	0.110620	0.071902
O3	O	1.075633	-0.009277	0.071888
O4	O	1.078743	0.218357	0.071901
O5	O	1.067790	-0.002030	-0.072000
O6	O	0.938573	0.117868	-0.071986
O7	O	1.200117	0.105706	-0.072001
Cu8	Cu	1.068629	0.112449	-0.085131
Cu9	Cu	1.077904	0.103878	0.085033
O10	O	1.070900	0.225604	-0.071987
C11	C	0.908865	0.113693	-0.000040
C12	C	0.808657	0.112042	-0.000035
C13	C	0.389221	0.101110	0.078383
C14	C	0.380691	0.109011	-0.078490
C15	C	0.474842	0.110562	-0.078487
C16	C	0.526187	0.107387	-0.000048
C17	C	0.483381	0.102662	0.078388
C18	C	0.517655	0.115294	-0.156921
C19	C	0.611811	0.116845	-0.156922
C20	C	0.663158	0.113665	-0.078482
C21	C	0.620346	0.108939	-0.000043
C22	C	0.671691	0.105765	0.078396
C23	C	0.628881	0.101033	0.156836
C24	C	0.534727	0.099482	0.156827
C25	C	0.757312	0.115217	-0.078474
C26	C	0.765851	0.107317	0.078401
C27	C	1.068884	-0.034786	-0.000056
C28	C	1.060448	-0.121590	-0.000055
C29	C	1.137901	-0.171602	-0.000060
C30	C	1.129969	-0.253164	-0.000052
C31	C	1.044584	-0.284710	-0.000044
C32	C	0.967125	-0.234692	-0.000036
C33	C	0.975058	-0.153132	-0.000039
C34	C	1.016559	-0.530506	-0.000031
C35	C	1.008632	-0.612072	-0.000031
C36	C	1.171477	-0.630538	-0.000045
C37	C	1.179402	-0.548976	-0.000052
C38	C	1.101944	-0.498964	-0.000040
C39	C	1.036474	-0.368079	-0.000038
C40	C	1.110055	-0.415598	-0.000040
C41	C	1.237668	0.102634	-0.000056
C42	C	1.337876	0.104284	-0.000056
C43	C	1.077649	0.251112	-0.000041
C44	C	1.086085	0.337916	-0.000036
N45	N	1.062111	0.118476	-0.204816
C46	C	1.116887	0.067690	-0.250098
C47	C	1.111966	0.072256	-0.340671
C48	C	1.052275	0.127612	-0.385959
C49	C	0.997493	0.178400	-0.340670
C50	C	1.002409	0.173830	-0.250099
C51	C	1.034563	0.144063	-0.659424
C52	C	1.029653	0.148630	-0.750001
C53	C	1.144126	0.042484	-0.749995
C54	C	1.149041	0.037922	-0.659423
C55	C	1.094256	0.088708	-0.614142
C56	C	1.047246	0.132282	-0.478538
C57	C	1.099280	0.084034	-0.521564
N58	N	1.084428	0.097844	0.204717
H59	H	0.354362	0.097254	0.142246
H60	H	1.197646	-0.007153	-0.622551
H61	H	0.646659	0.120696	-0.220792
H62	H	0.475843	0.117884	-0.220782
N63	N	1.229998	-0.137583	-0.000074
H64	H	1.239830	-0.106836	0.053261
H65	H	1.233948	-0.101513	-0.053453
H66	H	1.234539	-0.671265	-0.000053
H67	H	0.966953	-0.393774	-0.000034
H68	H	0.939097	-0.637753	-0.000039
N69	N	0.803489	0.120318	-0.163064
H70	H	0.838770	0.169571	-0.166550
H71	H	0.756624	0.122065	-0.212706
H72	H	1.193040	-0.293881	-0.000058
H73	H	0.998645	0.177356	-0.515419
N74	N	0.684272	0.097608	0.241431
H75	H	0.673354	0.047176	0.275718
H76	H	0.666135	0.144075	0.275661
H77	H	1.188728	0.001136	-0.786871
N78	N	1.271496	-0.514951	-0.000066
H79	H	1.319361	-0.559011	-0.000068
H80	H	1.281245	-0.484195	0.053273
H81	H	0.499863	0.095629	0.220689
H82	H	0.807650	0.104730	0.142276
H83	H	0.338881	0.111601	-0.142351
H84	H	0.953487	-0.489796	-0.000021
H85	H	0.897603	-0.260384	-0.000025
H86	H	0.911987	-0.112412	-0.000034
H87	H	1.179576	-0.389910	-0.000027
N88	N	1.163644	0.024324	-0.472711
H89	H	1.207888	0.052372	-0.435114
H90	H	1.197543	-0.007149	-0.515183
H91	H	0.981042	0.193711	-0.786870
H92	H	1.165498	0.022617	-0.213231
N93	N	0.975471	0.198832	-0.610591
H94	H	0.936914	0.234592	-0.653027
H95	H	1.014669	0.231561	-0.572995
N96	N	0.933103	0.238102	-0.389511
H97	H	0.938301	0.233293	-0.453759
H98	H	0.948626	0.292790	-0.373666
H99	H	1.156568	0.030901	-0.377539
N100	N	0.943326	0.228602	-0.201254
H101	H	0.904765	0.264364	-0.243685
H102	H	0.982527	0.261330	-0.163660
