data_functionalizedCrystal
_audit_creation_method	'MofGen! by Chris Wilmer'
_symmetry_space_group_name_H-M	'P1'
_symmetry_Int_Tables_number	1
_symmetry_cell_setting	triclinic
loop_
_symmetry_equiv_pos_as_xyz
  x,y,z
_cell_length_a	14.044220
_cell_length_b	14.044191
_cell_length_c	16.053802
_cell_angle_alpha	87.186691
_cell_angle_beta	87.198230
_cell_angle_gamma	86.809673
loop_
_atom_site_label
_atom_site_type_symbol
_atom_site_fract_x
_atom_site_fract_y
_atom_site_fract_z
O1	O	-0.226523	1.280858	-0.069385
O2	O	0.106810	1.614191	0.263948
O3	O	0.440143	1.947525	0.597282
O4	O	-0.218210	1.004186	-0.069396
O5	O	0.115123	1.337519	0.263938
O6	O	0.448457	1.670853	0.597271
O7	O	-0.084031	1.138369	-0.069387
O8	O	0.249302	1.471702	0.263947
O9	O	0.582636	1.805036	0.597280
O10	O	-0.360702	1.146675	-0.069394
O11	O	-0.027369	1.480008	0.263940
O12	O	0.305964	1.813342	0.597273
O13	O	-0.091383	1.130980	0.069472
O14	O	0.241950	1.464314	0.402805
O15	O	0.575283	1.797647	0.736138
O16	O	-0.225562	0.996797	0.069463
O17	O	0.107771	1.330131	0.402796
O18	O	0.441104	1.663464	0.736129
O19	O	-0.233876	1.273469	0.069473
O20	O	0.099458	1.606803	0.402807
O21	O	0.432791	1.940136	0.736140
Zn22	Zn	-0.230886	1.133960	0.091515
Zn23	Zn	0.102447	1.467294	0.424848
Zn24	Zn	0.435780	1.800627	0.758182
Zn25	Zn	-0.221199	1.143695	-0.091437
Zn26	Zn	0.112134	1.477028	0.241896
Zn27	Zn	0.445467	1.810362	0.575230
O28	O	-0.368055	1.139286	0.069465
O29	O	-0.034721	1.472620	0.402798
O30	O	0.298612	1.805953	0.736131
C31	C	-0.218250	0.964870	0.000032
C32	C	0.115084	1.298203	0.333366
C33	C	0.448417	1.631537	0.666699
C34	C	-0.207402	0.858727	0.000028
C35	C	0.125931	1.192060	0.333361
C36	C	0.459265	1.525394	0.666695
C37	C	-0.264503	0.613268	0.000035
C38	C	0.068831	0.946601	0.333368
C39	C	0.402164	1.279935	0.666702
C40	C	-0.187587	0.664394	0.000036
C41	C	0.145747	0.997727	0.333369
C42	C	0.479080	1.331060	0.666702
C43	C	-0.198615	0.772531	0.000031
C44	C	0.134719	1.105864	0.333365
C45	C	0.468052	1.439197	0.666698
C46	C	-0.253476	0.505121	0.000039
C47	C	0.079857	0.838454	0.333372
C48	C	0.413190	1.171788	0.666706
C49	C	-0.400000	1.146616	0.000035
C50	C	-0.066667	1.479950	0.333368
C51	C	0.266666	1.813283	0.666701
C52	C	-0.506143	1.157461	0.000032
C53	C	-0.172810	1.490795	0.333365
C54	C	0.160523	1.824128	0.666699
C55	C	-0.700482	1.177287	0.000036
C56	C	-0.367148	1.510621	0.333370
C57	C	-0.033815	1.843954	0.666703
C58	C	-0.751609	1.100373	0.000034
C59	C	-0.418276	1.433706	0.333367
C60	C	-0.084943	1.767039	0.666701
C61	C	-0.859746	1.111404	0.000037
C62	C	-0.526413	1.444738	0.333370
C63	C	-0.193079	1.778071	0.666703
C64	C	-0.592335	1.166257	0.000034
C65	C	-0.259002	1.499591	0.333367
C66	C	0.074331	1.832924	0.666701
C67	C	-0.052085	1.131039	0.000041
C68	C	0.281248	1.464372	0.333375
C69	C	0.614582	1.797706	0.666708
C70	C	0.054058	1.120195	0.000039
C71	C	0.387391	1.453528	0.333372
C72	C	0.720725	1.786861	0.666705
C73	C	-0.233836	1.312786	0.000044
C74	C	0.099497	1.646119	0.333377
C75	C	0.432831	1.979452	0.666710
C76	C	-0.244683	1.418929	0.000042
C77	C	0.088650	1.752262	0.333376
C78	C	0.421984	2.085595	0.666709
N79	N	-0.237497	1.127323	0.216375
N80	N	0.095836	1.460657	0.549708
N81	N	0.429169	1.793990	0.883041
N82	N	-0.214581	1.150339	-0.216297
N83	N	0.118752	1.483672	0.117036
N84	N	0.452085	1.817005	0.450370
C85	C	-0.180428	1.184443	0.260072
C86	C	0.152905	1.517776	0.593406
C87	C	0.486238	1.851110	0.926739
C88	C	-0.185063	1.179810	0.347479
C89	C	0.148271	1.513144	0.680812
C90	C	0.481604	1.846477	1.014146
C91	C	-0.246772	1.118062	0.391186
C92	C	0.086562	1.451395	0.724519
C93	C	0.419895	1.784729	1.057853
C94	C	-0.303843	1.060936	0.347482
C95	C	0.029490	1.394269	0.680816
C96	C	0.362823	1.727603	1.014149
C97	C	-0.299203	1.065565	0.260077
C98	C	0.034130	1.398898	0.593411
C99	C	0.367463	1.732231	0.926744
C100	C	-0.267013	1.097841	0.652594
C101	C	0.066321	1.431175	0.985928
C102	C	0.399654	1.764508	1.319261
C103	C	-0.271650	1.093219	0.740005
C104	C	0.061683	1.426552	1.073339
C105	C	0.395016	1.759886	1.406672
C106	C	-0.152868	1.212093	0.739996
C107	C	0.180465	1.545426	1.073329
C108	C	0.513799	1.878759	1.406663
C109	C	-0.148238	1.216720	0.652589
C110	C	0.185096	1.550053	0.985923
C111	C	0.518429	1.883387	1.319256
C112	C	-0.205305	1.159590	0.608893
C113	C	0.128028	1.492924	0.942227
C114	C	0.461361	1.826257	1.275560
N115	N	-0.251513	1.113327	0.480530
N116	N	0.081821	1.446660	0.813863
N117	N	0.415154	1.779994	1.147196
N118	N	-0.200559	1.164321	0.519551
N119	N	0.132774	1.497654	0.852885
N120	N	0.466108	1.830987	1.186218
H121	H	-0.338629	0.650710	0.000031
H122	H	-0.005296	0.984043	0.333364
H123	H	0.328037	1.317376	0.666697
H124	H	-0.130182	1.234729	0.224492
H125	H	0.203151	1.568063	0.557825
H126	H	0.536484	1.901396	0.891159
Br127	Br	-0.689211	0.976810	0.000035
Br128	Br	-0.355877	1.310143	0.333368
Br129	Br	-0.022544	1.643477	0.666701
Br130	Br	-0.762883	1.300842	0.000044
Br131	Br	-0.429550	1.634175	0.333377
Br132	Br	-0.096216	1.967508	0.666710
H133	H	-0.354085	1.010654	0.383074
H134	H	-0.020751	1.343987	0.716407
H135	H	0.312582	1.677321	1.049740
H136	H	-0.097989	1.267000	0.617005
H137	H	0.235344	1.600334	0.950338
H138	H	0.568678	1.933667	1.283672
H139	H	-0.138592	1.226321	0.383057
H140	H	0.194742	1.559654	0.716391
H141	H	0.528075	1.892987	1.049724
Br142	Br	-0.075421	1.289620	0.799301
Br143	Br	0.257913	1.622953	1.132634
Br144	Br	0.591246	1.956287	1.465967
H145	H	-0.321905	1.042934	0.775588
H146	H	0.011428	1.376267	1.108921
H147	H	0.344761	1.709600	1.442254
Br148	Br	-0.344461	1.020313	0.593297
Br149	Br	-0.011128	1.353646	0.926630
Br150	Br	0.322205	1.686979	1.259964
Br151	Br	-0.064026	0.601990	0.000041
Br152	Br	0.269307	0.935324	0.333374
Br153	Br	0.602641	1.268657	0.666707
H154	H	-0.345674	1.019050	0.224500
H155	H	-0.012341	1.352384	0.557833
H156	H	0.320993	1.685717	0.891166
