data_functionalizedCrystal
_audit_creation_method	'MofGen! by Chris Wilmer'
_symmetry_space_group_name_H-M	'P1'
_symmetry_Int_Tables_number	1
_symmetry_cell_setting	triclinic
loop_
_symmetry_equiv_pos_as_xyz
  x,y,z
_cell_length_a	10.654559
_cell_length_b	9.130313
_cell_length_c	10.654566
_cell_angle_alpha	90.001068
_cell_angle_beta	95.509927
_cell_angle_gamma	90.003271
loop_
_atom_site_label
_atom_site_type_symbol
_atom_site_fract_x
_atom_site_fract_y
_atom_site_fract_z
O1	O	1.667843	0.121804	-0.176444
O2	O	1.302367	0.121805	-0.193238
O3	O	1.493497	0.121798	-0.002103
O4	O	1.476712	0.121811	-0.367579
O5	O	1.493484	-0.121801	-0.002115
O6	O	1.302354	-0.121794	-0.193249
O7	O	1.667830	-0.121795	-0.176455
Cu8	Cu	1.485090	-0.144037	-0.184853
Cu9	Cu	1.485106	0.144047	-0.184840
O10	O	1.476699	-0.121788	-0.367590
C11	C	1.255562	0.000006	-0.192008
C12	C	1.116119	0.000006	-0.188312
C13	C	1.064573	-0.000002	-0.072300
C14	C	0.933551	0.000009	-0.068834
C15	C	0.905632	0.000029	-0.297402
C16	C	1.036652	0.000029	-0.300866
C17	C	1.080691	-0.000020	0.059662
C18	C	0.949668	-0.000009	0.063128
N19	N	1.485089	-0.346659	-0.184862
C20	C	1.561922	-0.423323	-0.261739
C21	C	1.561940	-0.576660	-0.261716
C22	C	1.408281	-0.576656	-0.107936
C23	C	1.408270	-0.423322	-0.107953
C24	C	1.638740	-0.346660	-0.338648
C25	C	1.715579	-0.423324	-0.415532
C26	C	1.715597	-0.576660	-0.415509
C27	C	1.638777	-0.653334	-0.338601
C28	C	1.714634	0.000008	-0.177685
C29	C	1.854077	0.000017	-0.181382
C30	C	1.492254	0.000000	0.044689
C31	C	1.488554	0.000005	0.184131
N32	N	1.485118	0.346670	-0.184821
C33	C	1.483352	-0.132785	0.380663
C34	C	1.486813	-0.132784	0.249641
C35	C	1.486821	0.132801	0.249650
C36	C	1.483351	0.132798	0.380669
C37	C	1.481625	-0.265583	0.446168
C38	C	1.483355	-0.398379	0.380658
C39	C	1.486816	-0.398378	0.249635
C40	C	1.488547	-0.265580	0.184122
C41	C	1.477938	0.000009	0.585617
C42	C	1.481623	0.000001	0.446173
H43	H	0.920291	-0.101957	0.114724
H44	H	0.914042	0.105171	0.105163
C45	C	1.638733	-0.177987	-0.338674
N46	N	1.638728	-0.050942	-0.338692
H47	H	1.778130	-0.360886	-0.478140
C48	C	1.800106	-0.660986	-0.500096
N49	N	1.863749	-0.724497	-0.563822
H50	H	1.638810	-0.778191	-0.338577
C51	C	1.492349	-0.265587	0.039991
N52	N	1.495219	-0.265593	-0.068565
H53	H	1.126324	-0.105203	0.099524
H54	H	1.488230	0.240919	0.196299
C55	C	0.818206	0.000044	-0.421205
N56	N	0.752357	0.000050	-0.514457
H57	H	1.122441	0.101918	0.109396
H58	H	1.345735	-0.639096	-0.045323
H59	H	1.481933	0.240924	0.434007
H60	H	1.345704	-0.360901	-0.045355
C61	C	1.477813	-0.265596	0.590295
N62	N	1.474942	-0.265605	0.698851
H63	H	1.078615	0.000060	-0.395334
C64	C	1.481441	-0.544449	0.452723
N65	N	1.479998	-0.654471	0.507001
C66	C	1.488712	-0.544455	0.177577
N67	N	1.490146	-0.654485	0.123306
