data_functionalizedCrystal
_audit_creation_method	'MofGen! by Chris Wilmer'
_symmetry_space_group_name_H-M	'P1'
_symmetry_Int_Tables_number	1
_symmetry_cell_setting	triclinic
loop_
_symmetry_equiv_pos_as_xyz
  x,y,z
_cell_length_a	18.215407
_cell_length_b	17.077402
_cell_length_c	17.077396
_cell_angle_alpha	90.029086
_cell_angle_beta	89.982723
_cell_angle_gamma	89.971304
loop_
_atom_site_label
_atom_site_type_symbol
_atom_site_fract_x
_atom_site_fract_y
_atom_site_fract_z
Zn1	Zn	1.125039	0.312562	-0.443793
Zn2	Zn	1.625039	0.812562	0.056207
Zn3	Zn	1.124934	0.443837	-0.312525
Zn4	Zn	1.624934	0.943837	0.187475
Zn5	Zn	1.001971	0.312583	-0.312546
Zn6	Zn	1.501971	0.812583	0.187454
Zn7	Zn	1.001923	0.443784	-0.443754
Zn8	Zn	1.501923	0.943784	0.056246
O9	O	1.063467	0.378191	-0.378155
O10	O	1.563467	0.878191	0.121845
O11	O	1.228009	0.329989	-0.426388
O12	O	1.728009	0.829989	0.073612
O13	O	1.108599	0.426457	-0.202681
O14	O	1.608599	0.926457	0.297319
O15	O	1.018361	0.202733	-0.329981
O16	O	1.518361	0.702733	0.170019
O17	O	1.227932	0.426436	-0.329946
O18	O	1.727932	0.926436	0.170054
O19	O	1.108778	0.202718	-0.426407
O20	O	1.608778	0.702718	0.073593
O21	O	1.018259	0.330025	-0.202696
O22	O	1.518259	0.830025	0.297304
O23	O	0.898981	0.329974	-0.329943
O24	O	1.398981	0.829974	0.170057
O25	O	1.018279	0.426346	-0.553606
O26	O	1.518279	0.926346	-0.053606
O27	O	0.898946	0.426366	-0.426341
O28	O	1.398946	0.926366	0.073659
O29	O	1.108731	0.329938	-0.553635
O30	O	1.608731	0.829938	-0.053635
O31	O	1.108552	0.553677	-0.329908
O32	O	1.608552	1.053677	0.170092
O33	O	1.018177	0.553638	-0.426322
O34	O	1.518177	1.053638	0.073678
C35	C	0.872261	0.378167	-0.378141
C36	C	1.372261	0.878167	0.121859
C37	C	0.790462	0.378176	-0.378154
C38	C	1.290462	0.878176	0.121846
C39	C	0.602307	0.328059	-0.428450
C40	C	1.102307	0.828059	0.071550
C41	C	0.525448	0.328066	-0.428453
C42	C	1.025448	0.828066	0.071547
C43	C	0.525379	0.428345	-0.327873
C44	C	1.025379	0.928345	0.172127
C45	C	0.602236	0.428334	-0.327867
C46	C	1.102236	0.928334	0.172133
C47	C	0.640698	0.378192	-0.378160
C48	C	1.140698	0.878192	0.121840
C49	C	0.486982	0.378210	-0.378169
C50	C	0.986982	0.878210	0.121831
C51	C	0.403648	0.378218	-0.378171
C52	C	0.903648	0.878218	0.121829
C53	C	0.724037	0.378183	-0.378157
C54	C	1.224037	0.878183	0.121843
C55	C	1.063368	0.582139	-0.378126
C56	C	1.563368	1.082139	0.121874
C57	C	1.063393	0.669389	-0.378140
C58	C	1.563393	1.169389	0.121860
C59	C	1.110442	0.710303	-0.428388
C60	C	1.610442	1.210303	0.071612
C61	C	1.110463	0.792284	-0.428403
C62	C	1.610463	1.292284	0.071597
C63	C	1.063437	0.833348	-0.378164
C64	C	1.563437	1.333348	0.121836
C65	C	1.016383	0.792428	-0.327913
C66	C	1.516383	1.292428	0.172087
C67	C	1.016359	0.710449	-0.327903
C68	C	1.516359	1.210449	0.172097
C69	C	1.016436	0.963298	-0.327936
C70	C	1.516436	1.463298	0.172064
C71	C	1.016461	1.045283	-0.327945
C72	C	1.516461	1.545283	0.172055
C73	C	1.110540	1.045133	-0.428435
C74	C	1.610540	1.545133	0.071565
C75	C	1.110516	0.963154	-0.428425
C76	C	1.610516	1.463154	0.071575
C77	C	1.063463	0.922239	-0.378173
C78	C	1.563463	1.422239	0.121827
C79	C	1.255420	0.378216	-0.378169
C80	C	1.755420	0.878216	0.121831
C81	C	1.337219	0.378227	-0.378175
C82	C	1.837219	0.878227	0.121825
C83	C	1.063511	0.378133	-0.582899
C84	C	1.563511	0.878133	-0.082899
C85	C	1.063530	0.378109	-0.670149
C86	C	1.563530	0.878109	-0.170149
C87	C	1.063554	1.173447	-0.378194
C88	C	1.563554	1.673447	0.121806
C89	C	1.063510	1.086197	-0.378193
C90	C	1.563510	1.586197	0.121807
C91	C	1.110630	0.327905	-0.711155
C92	C	1.610630	0.827905	-0.211155
C93	C	1.110639	0.327879	-0.793135
C94	C	1.610639	0.827879	-0.293135
C95	C	1.063551	0.378061	-0.834108
C96	C	1.563551	0.878061	-0.334108
C97	C	1.016446	0.428267	-0.793096
C98	C	1.516446	0.928267	-0.293096
C99	C	1.016434	0.428289	-0.711117
C100	C	1.516434	0.928289	-0.211117
C101	C	1.016475	0.428220	-0.963966
C102	C	1.516475	0.928220	-0.463966
C103	C	1.016488	0.428200	-1.045951
C104	C	1.516488	0.928200	-0.545951
C105	C	1.110681	0.327810	-1.045985
C106	C	1.610681	0.827810	-0.545985
C107	C	1.110669	0.327831	-0.964006
C108	C	1.610669	0.827831	-0.464006
C109	C	1.063564	0.378039	-0.922999
C110	C	1.563564	0.878039	-0.422999
C111	C	1.063465	0.378192	-0.174207
C112	C	1.563465	0.878192	0.325793
C113	C	1.063588	0.377996	-0.086957
C114	C	1.563588	0.877996	0.413043
H115	H	0.633620	0.287228	-0.469399
H116	H	1.133620	0.787228	0.030601
H117	H	1.148978	0.287043	-0.677801
H118	H	1.648978	0.787043	-0.177801
O119	O	0.965624	0.482426	-0.666883
O120	O	1.465624	0.982426	-0.166883
H121	H	0.932882	0.517318	-0.709145
H122	H	1.432882	1.017318	-0.209145
O123	O	0.483892	0.482425	-0.273632
O124	O	0.983892	0.982425	0.226368
H125	H	0.498631	0.544047	-0.286979
H126	H	0.998631	1.044047	0.213021
O127	O	0.965689	0.482316	-1.090140
O128	O	1.465689	0.982316	-0.590140
H129	H	0.928285	0.447154	-1.127493
H130	H	1.428285	0.947154	-0.627493
O131	O	0.643653	0.482406	-0.273621
O132	O	1.143653	0.982406	0.226379
H133	H	0.603997	0.517282	-0.238657
H134	H	1.103997	1.017282	0.261343
H135	H	0.978046	0.677137	-0.286987
H136	H	1.478046	1.177137	0.213013
O137	O	1.161287	1.089255	-0.482645
O138	O	1.661287	1.589255	0.017355
H139	H	1.153398	1.153158	-0.474222
H140	H	1.653398	1.653158	0.025778
O141	O	1.161169	0.666013	-0.482568
O142	O	1.661169	1.166013	0.017432
H143	H	1.193886	0.708240	-0.517513
H144	H	1.693886	1.208240	-0.017513
H145	H	0.494193	0.287241	-0.469403
H146	H	0.994193	0.787241	0.030597
H147	H	1.149034	0.286928	-1.079376
H148	H	1.649034	0.786928	-0.579376
H149	H	0.978165	1.078715	-0.287039
H150	H	1.478165	1.578715	0.212961
O151	O	0.965692	0.919164	-0.273731
O152	O	1.465692	1.419164	0.226269
H153	H	0.933003	0.961489	-0.238791
H154	H	1.433003	1.461489	0.261209
H155	H	1.148780	0.825593	-0.469314
H156	H	1.648780	1.325593	0.030686
O157	O	0.965672	0.836721	-0.273718
O158	O	1.465672	1.336721	0.226282
H159	H	0.928226	0.874093	-0.308814
H160	H	1.428226	1.374093	0.191186
O161	O	1.161252	0.918858	-0.482592
O162	O	1.661252	1.418858	0.017408
H163	H	1.193976	0.961079	-0.517536
H164	H	1.693976	1.461079	-0.017536
H165	H	1.148995	0.287000	-0.826519
H166	H	1.648995	0.787000	-0.326519
O167	O	1.161459	0.273712	-0.919808
O168	O	1.661459	0.773712	-0.419808
H169	H	1.194212	0.238792	-0.962093
H170	H	1.694212	0.738792	-0.462093
H171	H	0.978106	0.469092	-0.930582
H172	H	1.478106	0.969092	-0.430582
O173	O	0.965650	0.482387	-0.837285
O174	O	1.465650	0.982387	-0.337285
H175	H	0.998567	0.522326	-0.874626
H176	H	1.498567	1.022326	-0.374626
