data_functionalizedCrystal
_audit_creation_method	'MofGen! by Chris Wilmer'
_symmetry_space_group_name_H-M	'P1'
_symmetry_Int_Tables_number	1
_symmetry_cell_setting	triclinic
loop_
_symmetry_equiv_pos_as_xyz
  x,y,z
_cell_length_a	14.908783
_cell_length_b	21.295417
_cell_length_c	14.909227
_cell_angle_alpha	86.670613
_cell_angle_beta	83.584164
_cell_angle_gamma	93.320338
loop_
_atom_site_label
_atom_site_type_symbol
_atom_site_fract_x
_atom_site_fract_y
_atom_site_fract_z
Zn1	Zn	1.413382	-0.169936	-0.591768
Zn2	Zn	1.913382	0.330064	-0.091768
Zn3	Zn	1.404515	-0.281665	-0.440382
Zn4	Zn	1.904515	0.218335	0.059618
Zn5	Zn	1.253266	-0.182846	-0.431667
Zn6	Zn	1.753266	0.317154	0.068333
Zn7	Zn	1.261949	-0.281616	-0.582957
Zn8	Zn	1.761949	0.218384	-0.082957
O9	O	1.333278	-0.229016	-0.511693
O10	O	1.833278	0.270984	-0.011693
O11	O	1.538879	-0.179375	-0.579021
O12	O	2.038879	0.320625	-0.079021
O13	O	1.377107	-0.273980	-0.312555
O14	O	1.877107	0.226020	0.187445
O15	O	1.274584	-0.093040	-0.452944
O16	O	1.774584	0.406960	0.047056
O17	O	1.532364	-0.261462	-0.467798
O18	O	2.032364	0.238538	0.032202
O19	O	1.392220	-0.083555	-0.570570
O20	O	1.892220	0.416445	-0.070570
O21	O	1.265985	-0.201379	-0.306152
O22	O	1.765985	0.298621	0.193848
O23	O	1.127745	-0.201331	-0.444401
O24	O	1.627745	0.298669	0.055599
O25	O	1.289381	-0.261377	-0.710797
O26	O	1.789381	0.238623	-0.210797
O27	O	1.134124	-0.273896	-0.555554
O28	O	1.634124	0.226104	-0.055554
O29	O	1.400639	-0.179327	-0.717270
O30	O	1.900639	0.320673	-0.217270
O31	O	1.385525	-0.369753	-0.459255
O32	O	1.885525	0.130247	0.040745
O33	O	1.280783	-0.369716	-0.564005
O34	O	1.780783	0.130284	-0.064005
C35	C	1.098090	-0.239009	-0.498076
C36	C	1.598090	0.260991	0.001924
C37	C	0.997476	-0.243299	-0.492272
C38	C	1.497476	0.256701	0.007728
C39	C	0.815205	-0.165985	-0.597358
C40	C	1.315205	0.334015	-0.097358
C41	C	0.720670	-0.170013	-0.591908
C42	C	1.220670	0.329987	-0.091908
C43	C	0.713869	-0.255379	-0.475917
C44	C	1.213869	0.244621	0.024083
C45	C	0.808404	-0.251351	-0.481367
C46	C	1.308404	0.248649	0.018633
C47	C	0.859069	-0.206653	-0.542091
C48	C	1.359069	0.293347	-0.042091
C49	C	0.953606	-0.202628	-0.547546
C50	C	1.453606	0.297372	-0.047546
C51	C	0.946803	-0.287992	-0.431550
C52	C	1.446803	0.212008	0.068450
C53	C	0.852268	-0.292020	-0.426100
C54	C	1.352268	0.207980	0.073900
C55	C	1.333160	-0.392574	-0.511641
C56	C	1.833160	0.107426	-0.011641
C57	C	1.333194	-0.462541	-0.511654
C58	C	1.833194	0.037459	-0.011654
C59	C	1.394416	-0.490411	-0.572941
C60	C	1.894416	0.009589	-0.072941
C61	C	1.394450	-0.556151	-0.572965
C62	C	1.894450	-0.056151	-0.072965
C63	C	1.333269	-0.594019	-0.511686
C64	C	1.833269	-0.094019	-0.011686
C65	C	1.272035	-0.566141	-0.450395
C66	C	1.772035	-0.066141	0.049605
C67	C	1.271998	-0.500402	-0.450378
C68	C	1.771998	-0.000402	0.049622
N69	N	1.321857	-0.700949	-0.432072
N70	N	1.821857	-0.200949	0.067928
N71	N	1.321898	-0.763398	-0.432091
N72	N	1.821898	-0.263398	0.067909
C73	C	1.333377	-0.792087	-0.511733
C74	C	1.833377	-0.292087	-0.011733
N75	N	1.344831	-0.755968	-0.591360
N76	N	1.844831	-0.255968	-0.091360
N77	N	1.344795	-0.693513	-0.591340
N78	N	1.844795	-0.193513	-0.091340
C79	C	1.333303	-0.665302	-0.511698
C80	C	1.833303	-0.165302	-0.011698
C81	C	1.394639	-0.891240	-0.573052
C82	C	1.894639	-0.391240	-0.073052
C83	C	1.394666	-0.956982	-0.573077
C84	C	1.894666	-0.456982	-0.073077
C85	C	1.272256	-0.966971	-0.450499
C86	C	1.772256	-0.466971	0.049501
C87	C	1.272224	-0.901230	-0.450481
C88	C	1.772224	-0.401230	0.049519
C89	C	1.333421	-0.863369	-0.511757
C90	C	1.833421	-0.363369	-0.011757
C91	C	1.569385	-0.218984	-0.525364
C92	C	2.069385	0.281016	-0.025364
C93	C	1.669999	-0.214709	-0.531190
C94	C	2.169999	0.285291	-0.031190
C95	C	1.346968	-0.218907	-0.747796
C96	C	1.846968	0.281093	-0.247796
C97	C	1.352801	-0.214599	-0.848409
C98	C	1.852801	0.285401	-0.348409
C99	C	1.333422	-0.064817	-0.511767
C100	C	1.833422	0.435183	-0.011767
C101	C	1.333484	0.005155	-0.511799
C102	C	1.833484	0.505155	-0.011799
C103	C	1.418942	-0.165812	-0.993590
C104	C	1.918942	0.334188	-0.493590
C105	C	1.413466	-0.169857	-0.899055
C106	C	1.913466	0.330143	-0.399055
C107	C	1.297611	-0.255299	-0.892305
C108	C	1.797611	0.244701	-0.392305
C109	C	1.303087	-0.251254	-0.986839
C110	C	1.803087	0.248746	-0.486839
C111	C	1.363754	-0.206509	-1.037479
C112	C	1.863754	0.293491	-0.537479
C113	C	1.369226	-0.202461	-1.132015
C114	C	1.869226	0.297539	-0.632015
C115	C	1.253376	-0.287905	-1.125263
C116	C	1.753376	0.212095	-0.625263
C117	C	1.247899	-0.291950	-1.030728
C118	C	1.747899	0.208050	-0.530728
C119	C	1.319694	-0.239038	-0.276512
C120	C	1.819694	0.260962	0.223488
C121	C	1.314035	-0.243161	-0.175910
C122	C	1.814035	0.256839	0.324090
H123	H	0.672601	-0.291763	-0.426469
H124	H	1.172601	0.208237	0.073531
C125	C	1.461739	-0.448767	-0.640341
C126	C	1.961739	0.051233	-0.140341
N127	N	1.512449	-0.417399	-0.691105
N128	N	2.012449	0.082601	-0.191105
C129	C	0.995061	-0.332731	-0.370754
C130	C	1.495061	0.167269	0.129246
N131	N	1.031410	-0.366429	-0.324965
N132	N	1.531410	0.133571	0.175035
C133	C	1.181166	-0.341165	-0.975014
C134	C	1.681166	0.158835	-0.475014
N135	N	1.130897	-0.378233	-0.933051
N136	N	1.630897	0.121767	-0.433051
H137	H	1.468331	-0.129373	-1.034820
H138	H	1.968331	0.370627	-0.534820
H139	H	0.856458	-0.129592	-0.646806
H140	H	1.356458	0.370408	-0.146806
C141	C	1.461944	-0.849590	-0.640467
C142	C	1.961944	-0.349590	-0.140467
N143	N	1.512636	-0.818221	-0.691247
N144	N	2.012636	-0.318221	-0.191247
C145	C	1.462023	-0.987638	-0.640497
C146	C	1.962023	-0.487638	-0.140497
N147	N	1.512761	-1.010729	-0.691276
N148	N	2.012761	-0.510729	-0.191276
H149	H	1.208428	-0.321037	-1.161006
H150	H	1.708428	0.178963	-0.661006
C151	C	1.461805	-0.586815	-0.640384
C152	C	1.961805	-0.086815	-0.140384
N153	N	1.512539	-0.609909	-0.691163
N154	N	2.012539	-0.109909	-0.191163
H155	H	1.458406	-0.136719	-0.863325
H156	H	1.958406	0.363281	-0.363325
H157	H	1.418620	-0.166024	-1.173244
H158	H	1.918620	0.333976	-0.673244
H159	H	0.994856	-0.166234	-0.596991
H160	H	1.494856	0.333766	-0.096991
C161	C	0.672424	-0.125276	-0.652709
C162	C	1.172424	0.374724	-0.152709
N163	N	0.636085	-0.091578	-0.698508
N164	N	1.136085	0.408422	-0.198508
C165	C	1.230884	-0.304516	-0.836586
C166	C	1.730884	0.195484	-0.336586
N167	N	1.180624	-0.341585	-0.794617
N168	N	1.680624	0.158415	-0.294617
C169	C	1.204869	-0.870572	-0.383065
C170	C	1.704869	-0.370572	0.116935
N171	N	1.154129	-0.847481	-0.332289
N172	N	1.654129	-0.347481	0.167711
H173	H	1.222220	-0.596977	-0.400503
H174	H	1.722220	-0.096977	0.099497
H175	H	0.811004	-0.328409	-0.376658
H176	H	1.311004	0.171591	0.123342
H177	H	1.222436	-0.997802	-0.400610
H178	H	1.722436	-0.497802	0.099390
C179	C	1.204642	-0.469744	-0.382958
C180	C	1.704642	0.030256	0.117042
N181	N	1.153908	-0.446652	-0.332176
N182	N	1.653908	0.053348	0.167824
