data_functionalizedCrystal
_audit_creation_method	'MofGen! by Chris Wilmer'
_symmetry_space_group_name_H-M	'P1'
_symmetry_Int_Tables_number	1
_symmetry_cell_setting	triclinic
loop_
_symmetry_equiv_pos_as_xyz
  x,y,z
_cell_length_a	19.805407
_cell_length_b	19.120786
_cell_length_c	19.805399
_cell_angle_alpha	87.531070
_cell_angle_beta	89.982197
_cell_angle_gamma	92.462474
loop_
_atom_site_label
_atom_site_type_symbol
_atom_site_fract_x
_atom_site_fract_y
_atom_site_fract_z
Zn1	Zn	1.023242	-0.279696	-0.371182
Zn2	Zn	1.018330	-0.397155	-0.253161
Zn3	Zn	0.910056	-0.279710	-0.258009
Zn4	Zn	0.905195	-0.397112	-0.366313
O5	O	0.964206	-0.338418	-0.312166
O6	O	1.117306	-0.295289	-0.355535
O7	O	1.003946	-0.381599	-0.159087
O8	O	0.929160	-0.181418	-0.277088
O9	O	1.113698	-0.381586	-0.268826
O10	O	1.012318	-0.181408	-0.360235
O11	O	0.924397	-0.295313	-0.162649
O12	O	0.814695	-0.295271	-0.272367
O13	O	0.920876	-0.381513	-0.461677
O14	O	0.811124	-0.381526	-0.351938
O15	O	1.007604	-0.295248	-0.465253
O16	O	0.999232	-0.495439	-0.264105
O17	O	0.916113	-0.495408	-0.347237
C18	C	0.788351	-0.338396	-0.312151
C19	C	0.713118	-0.338404	-0.312160
C20	C	0.679651	-0.293549	-0.357372
C21	C	0.608962	-0.293552	-0.357374
C22	C	0.571742	-0.338415	-0.312167
C23	C	0.605215	-0.383272	-0.266951
C24	C	0.675902	-0.383264	-0.266945
C25	C	0.320140	-0.383304	-0.266970
C26	C	0.249448	-0.383309	-0.266980
C27	C	0.253200	-0.293592	-0.357399
C28	C	0.323887	-0.293584	-0.357393
C29	C	0.357354	-0.338438	-0.312175
C30	C	0.434003	-0.338432	-0.312172
C31	C	0.495095	-0.338425	-0.312173
C32	C	0.956630	-0.520909	-0.304632
C33	C	0.953452	-0.598979	-0.301431
C34	C	0.995221	-0.635591	-0.343253
C35	C	0.992232	-0.708946	-0.340247
C36	C	0.947475	-0.745688	-0.295415
C37	C	0.905701	-0.709071	-0.253591
C38	C	0.908688	-0.635717	-0.256601
C39	C	0.936290	-0.967173	-0.284162
C40	C	0.933308	-1.040533	-0.281153
C41	C	1.019838	-1.040402	-0.367810
C42	C	1.022824	-0.967047	-0.370813
C43	C	0.981047	-0.930436	-0.328992
C44	C	0.944420	-0.820669	-0.292339
C45	C	0.984099	-0.855457	-0.332072
C46	C	1.140748	-0.338441	-0.312182
C47	C	1.215979	-0.338450	-0.312189
C48	C	0.964246	-0.338374	-0.488711
C49	C	0.964262	-0.338355	-0.563944
C50	C	0.971829	-0.155215	-0.319745
C51	C	0.975078	-0.077144	-0.322975
C52	C	1.009423	-0.293435	-0.601152
C53	C	1.009431	-0.293414	-0.671841
C54	C	0.964281	-0.338318	-0.705321
C55	C	0.919115	-0.383241	-0.668108
C56	C	0.919105	-0.383257	-0.597420
C57	C	0.919156	-0.383175	-0.953184
C58	C	0.919172	-0.383157	-1.023877
C59	C	1.009482	-0.293332	-1.027605
C60	C	1.009472	-0.293349	-0.956917
C61	C	0.964304	-0.338268	-0.919711
C62	C	0.964295	-0.338289	-0.843061
C63	C	0.964292	-0.338302	-0.781969
C64	C	0.964207	-0.338412	-0.136311
C65	C	0.964329	-0.338232	-0.061087
H66	H	0.581716	-0.257028	-0.394191
C67	C	0.862740	-0.595442	-0.210596
C68	C	0.811634	-0.545044	-0.241948
C69	C	0.765681	-0.504770	-0.195944
C70	C	0.770836	-0.514895	-0.118588
C71	C	0.821944	-0.565295	-0.087231
C72	C	0.867897	-0.605569	-0.133235
H73	H	0.807816	-0.537547	-0.299216
H74	H	0.727847	-0.467460	-0.219157
H75	H	0.736819	-0.485081	-0.084533
H76	H	0.825762	-0.572792	-0.029964
H77	H	0.905731	-0.642879	-0.110023
C78	C	1.033332	-0.815044	-0.381384
C79	C	1.027363	-0.825080	-0.457914
C80	C	1.076599	-0.784660	-0.507225
C81	C	1.131804	-0.734204	-0.480005
C82	C	1.137776	-0.724165	-0.403471
C83	C	1.088540	-0.764585	-0.354161
H84	H	0.986494	-0.862433	-0.478067
H85	H	1.072177	-0.792092	-0.563880
H86	H	1.168252	-0.704282	-0.516508
H87	H	1.178645	-0.686812	-0.383318
H88	H	1.092962	-0.757154	-0.297506
C89	C	1.044456	-0.595178	-0.392569
C90	C	1.090399	-0.635454	-0.438574
C91	C	1.139633	-0.595043	-0.487893
C92	C	1.142924	-0.514357	-0.491206
C93	C	1.096979	-0.474076	-0.445199
C94	C	1.047745	-0.514487	-0.395880
H95	H	1.087964	-0.695187	-0.436123
H96	H	1.173645	-0.624862	-0.521950
H97	H	1.179370	-0.484442	-0.527715
H98	H	1.099414	-0.414343	-0.447650
H99	H	1.013734	-0.484668	-0.361823
C100	C	1.059090	-0.244039	-0.564327
C101	C	1.110959	-0.274490	-0.514482
C102	C	1.160626	-0.225091	-0.477660
C103	C	1.158425	-0.145240	-0.490683
C104	C	1.106554	-0.114784	-0.540531
C105	C	1.056887	-0.164183	-0.577352
H106	H	1.112590	-0.333604	-0.504840
H107	H	1.199024	-0.247637	-0.440760
H108	H	1.195191	-0.108671	-0.463426
H109	H	1.104923	-0.055670	-0.550173
H110	H	1.018489	-0.141637	-0.614253
C111	C	1.072055	-0.926638	-0.420135
C112	C	1.127271	-0.876185	-0.392930
C113	C	1.176505	-0.835778	-0.442252
C114	C	1.170523	-0.845825	-0.518779
C115	C	1.115305	-0.896281	-0.545988
C116	C	1.066071	-0.936688	-0.496666
H117	H	1.131701	-0.868745	-0.336276
H118	H	1.217381	-0.798427	-0.422109
H119	H	1.206969	-0.815914	-0.555290
H120	H	1.110875	-0.903721	-0.602642
H121	H	1.025195	-0.974039	-0.516809
H122	H	1.046240	-0.256786	-0.929661
H123	H	0.354188	-0.257054	-0.394208
C124	C	0.564274	-0.432622	-0.217223
C125	C	0.516916	-0.402121	-0.165397
C126	C	0.475976	-0.451475	-0.115670
C127	C	0.482395	-0.531329	-0.117769
C128	C	0.529754	-0.561834	-0.169597
C129	C	0.570694	-0.512481	-0.219323
H130	H	0.512163	-0.343005	-0.163842
H131	H	0.440917	-0.428892	-0.077304
H132	H	0.452088	-0.567864	-0.080958
H133	H	0.534507	-0.620951	-0.171152
H134	H	0.605753	-0.535063	-0.257690
C135	C	0.884076	-1.080955	-0.231834
C136	C	0.890053	-1.070912	-0.155306
C137	C	0.840829	-1.111337	-0.105987
C138	C	0.785627	-1.161804	-0.133197
C139	C	0.779648	-1.171849	-0.209729
C140	C	0.828872	-1.131424	-0.259048
H141	H	0.930919	-1.033551	-0.135160
H142	H	0.845256	-1.103901	-0.049333
H143	H	0.749188	-1.191729	-0.096689
H144	H	0.738782	-1.209210	-0.229875
H145	H	0.824445	-1.138861	-0.315702
H146	H	0.907981	-0.850593	-0.255835
C147	C	0.208504	-0.432658	-0.217246
C148	C	0.218428	-0.426811	-0.140550
C149	C	0.177484	-0.476156	-0.090819
C150	C	0.126617	-0.531349	-0.117784
C151	C	0.116692	-0.537198	-0.194484
C152	C	0.157635	-0.487852	-0.244214
H153	H	0.256085	-0.385952	-0.120585
H154	H	0.184832	-0.471826	-0.034041
H155	H	0.096308	-0.567877	-0.080970
H156	H	0.079035	-0.578057	-0.214448
H157	H	0.150287	-0.492183	-0.300993
C158	C	0.890349	-0.926903	-0.238151
C159	C	0.839241	-0.876498	-0.269490
C160	C	0.793302	-0.836222	-0.223475
C161	C	0.798472	-0.846351	-0.146120
C162	C	0.849582	-0.896758	-0.114776
C163	C	0.895521	-0.937034	-0.160792
H164	H	0.835412	-0.868999	-0.326757
H165	H	0.755467	-0.798908	-0.246677
H166	H	0.764466	-0.816536	-0.112056
H167	H	0.853411	-0.904258	-0.057510
H168	H	0.933356	-0.974349	-0.137589
C169	C	1.059107	-0.243999	-0.712770
C170	C	1.108773	-0.194608	-0.675944
C171	C	1.158449	-0.145188	-0.716872
C172	C	1.158459	-0.145159	-0.794627
C173	C	1.108791	-0.194552	-0.831457
C174	C	1.059115	-0.243972	-0.790528
H175	H	1.108767	-0.194627	-0.618382
H176	H	1.195216	-0.108623	-0.689608
H177	H	1.195232	-0.108575	-0.824924
H178	H	1.108796	-0.194533	-0.889019
H179	H	1.022347	-0.280537	-0.817793
H180	H	1.046258	-0.256754	-1.057907
C181	C	0.869431	-0.432677	-0.556492
C182	C	0.896460	-0.487836	-0.505619
C183	C	0.846783	-0.537257	-0.464692
C184	C	0.770078	-0.531519	-0.474638
C185	C	0.743045	-0.476357	-0.525513
C186	C	0.792722	-0.426936	-0.566440
H187	H	0.953245	-0.492086	-0.498254
H188	H	0.866795	-0.578091	-0.427031
H189	H	0.733304	-0.568103	-0.444341
H190	H	0.686260	-0.472107	-0.532877
H191	H	0.772710	-0.386102	-0.604100
C192	C	0.869479	-0.432591	-0.912263
C193	C	0.819821	-0.481988	-0.949092
C194	C	0.770142	-0.531408	-0.908167
C195	C	0.770121	-0.531432	-0.830413
C196	C	0.819781	-0.482033	-0.793580
C197	C	0.869460	-0.432613	-0.834505
H198	H	0.819834	-0.481973	-1.006654
H199	H	0.733380	-0.567976	-0.935434
H200	H	0.733346	-0.568015	-0.800118
H201	H	0.819768	-0.482048	-0.736018
H202	H	0.906222	-0.396045	-0.807238
H203	H	0.709950	-0.257018	-0.394186
H204	H	0.225943	-0.257067	-0.394216
H205	H	0.347380	-0.419827	-0.230151
H206	H	0.703151	-0.419790	-0.230129
H207	H	0.882402	-0.419725	-1.051135
H208	H	0.882351	-0.419800	-0.695374
H209	H	0.869256	-0.738993	-0.217091
H210	H	1.026250	-0.738753	-0.374297
H211	H	1.053850	-1.070219	-0.401859
