data_functionalizedCrystal
_audit_creation_method	'MofGen! by Chris Wilmer'
_symmetry_space_group_name_H-M	'P1'
_symmetry_Int_Tables_number	1
_symmetry_cell_setting	triclinic
loop_
_symmetry_equiv_pos_as_xyz
  x,y,z
_cell_length_a	18.050591
_cell_length_b	18.050582
_cell_length_c	18.050589
_cell_angle_alpha	90.018205
_cell_angle_beta	89.975773
_cell_angle_gamma	89.979078
loop_
_atom_site_label
_atom_site_type_symbol
_atom_site_fract_x
_atom_site_fract_y
_atom_site_fract_z
Zn1	Zn	1.135293	-0.420054	0.295786
Zn2	Zn	1.135203	-0.295873	0.419969
Zn3	Zn	1.011112	-0.295865	0.295789
Zn4	Zn	1.011060	-0.420009	0.419930
O5	O	1.073167	-0.357950	0.357868
O6	O	1.239205	-0.403603	0.312274
O7	O	1.118727	-0.191948	0.403514
O8	O	1.027644	-0.312354	0.191864
O9	O	1.239140	-0.312369	0.403511
O10	O	1.118879	-0.403595	0.191862
O11	O	1.027557	-0.191942	0.312279
O12	O	0.907180	-0.312311	0.312241
O13	O	1.027555	-0.523940	0.403444
O14	O	0.907142	-0.403519	0.403447
O15	O	1.118828	-0.523973	0.312236
O16	O	1.118676	-0.312325	0.523888
O17	O	1.027468	-0.403527	0.523860
C18	C	0.880215	-0.357909	0.357841
C19	C	0.797669	-0.357909	0.357847
C20	C	1.073196	-0.551656	0.357835
C21	C	1.073208	-0.634202	0.357821
C22	C	0.598217	-0.308425	0.308191
C23	C	0.548798	-0.290154	0.375927
C24	C	0.646539	-0.357943	0.357869
C25	C	0.548877	-0.376212	0.290157
C26	C	0.500553	-0.357974	0.357885
C27	C	0.598206	-0.339637	0.425641
C28	C	0.598289	-0.425726	0.339825
C29	C	0.548892	-0.407481	0.407607
C30	C	0.730637	-0.357923	0.357859
C31	C	0.416457	-0.357994	0.357903
C32	C	1.023612	-0.833635	0.407353
C33	C	1.091367	-0.883034	0.425511
C34	C	1.073245	-0.785332	0.357765
C35	C	1.005527	-0.883014	0.339586
C36	C	1.073274	-0.931317	0.357711
C37	C	1.141036	-0.833645	0.375958
C38	C	1.055150	-0.833620	0.290002
C39	C	1.122952	-0.882998	0.308134
C40	C	1.073227	-0.701234	0.357797
C41	C	1.073300	-1.015414	0.357679
C42	C	1.266872	-0.357992	0.357897
C43	C	1.349418	-0.358010	0.357909
C44	C	1.073077	-0.357938	0.550820
C45	C	1.073107	-0.357958	0.633366
C46	C	1.073181	-0.164998	0.357848
C47	C	1.073312	-0.082453	0.357652
C48	C	1.073277	-0.357979	0.164163
C49	C	1.073324	-0.357991	0.081617
C50	C	1.023557	-0.407536	0.832828
C51	C	1.005459	-0.339767	0.882261
C52	C	1.073180	-0.357967	0.784497
C53	C	1.091314	-0.425744	0.882146
C54	C	1.073249	-0.357983	0.930482
C55	C	1.055046	-0.290162	0.832842
C56	C	1.140933	-0.376186	0.832722
C57	C	1.122861	-0.308370	0.882133
C58	C	1.073138	-0.357959	0.700398
C59	C	1.073291	-0.357983	1.014578
H60	H	0.619875	-0.266503	0.266226
H61	H	1.039807	-0.811899	0.232736
H62	H	0.620045	-0.483019	0.324530
H63	H	0.527370	-0.449370	0.449673
N64	N	0.520001	-0.214244	0.396167
H65	H	0.537587	-0.176931	0.358371
H66	H	0.464062	-0.215117	0.396923
N67	N	0.967887	-0.462975	0.804142
H68	H	0.968588	-0.462909	0.748192
H69	H	0.981061	-0.514013	0.822897
H70	H	0.619785	-0.324134	0.482928
N71	N	0.929657	-0.911745	0.319244
H72	H	0.892198	-0.893788	0.356758
H73	H	0.915657	-0.892993	0.268431
N74	N	0.520167	-0.396667	0.214301
H75	H	0.538109	-0.359213	0.176814
H76	H	0.538948	-0.447504	0.200343
H77	H	0.948195	-0.324371	0.904037
N78	N	1.034681	-0.214222	0.804283
H79	H	1.034759	-0.214690	0.748331
H80	H	0.983708	-0.200399	0.822795
H81	H	1.106690	-0.904739	0.482794
H82	H	1.164855	-0.266409	0.903645
N83	N	0.968066	-0.804916	0.462966
H84	H	0.981847	-0.822891	0.514120
H85	H	0.968139	-0.748970	0.462194
N86	N	1.216934	-0.805049	0.396383
H87	H	1.216450	-0.749097	0.396298
H88	H	1.230681	-0.823514	0.447369
H89	H	1.164986	-0.904535	0.266177
H90	H	1.198184	-0.391613	0.810948
N91	N	1.111597	-0.501655	0.910841
H92	H	1.074050	-0.539048	0.892906
H93	H	1.162396	-0.515732	0.892042
