data_functionalizedCrystal
_audit_creation_method	'MofGen! by Chris Wilmer'
_symmetry_space_group_name_H-M	'P1'
_symmetry_Int_Tables_number	1
_symmetry_cell_setting	triclinic
loop_
_symmetry_equiv_pos_as_xyz
  x,y,z
_cell_length_a	12.759401
_cell_length_b	17.077402
_cell_length_c	12.759393
_cell_angle_alpha	89.965312
_cell_angle_beta	89.979062
_cell_angle_gamma	90.024408
loop_
_atom_site_label
_atom_site_type_symbol
_atom_site_fract_x
_atom_site_fract_y
_atom_site_fract_z
Zn1	Zn	1.606207	-0.312438	-0.593990
Zn2	Zn	2.106207	0.187562	-0.093990
Zn3	Zn	1.606073	-0.443724	-0.418297
Zn4	Zn	2.106073	0.056276	0.081703
Zn5	Zn	1.430505	-0.312480	-0.418325
Zn6	Zn	1.930505	0.187520	0.081675
Zn7	Zn	1.430472	-0.443669	-0.593934
Zn8	Zn	1.930472	0.056331	-0.093934
O9	O	1.518314	-0.378078	-0.506136
O10	O	2.018314	0.121922	-0.006136
O11	O	1.753210	-0.329859	-0.570695
O12	O	2.253210	0.170141	-0.070695
O13	O	1.582741	-0.426355	-0.271279
O14	O	2.082741	0.073645	0.228721
O15	O	1.453882	-0.202628	-0.441662
O16	O	1.953882	0.297372	0.058338
O17	O	1.753111	-0.426314	-0.441614
O18	O	2.253111	0.073686	0.058386
O19	O	1.582969	-0.202597	-0.570722
O20	O	2.082969	0.297403	-0.070722
O21	O	1.453753	-0.329930	-0.271300
O22	O	1.953753	0.170070	0.228700
O23	O	1.283480	-0.329877	-0.441608
O24	O	1.783480	0.170123	0.058392
O25	O	1.453826	-0.426221	-0.740962
O26	O	1.953826	0.073779	-0.240962
O27	O	1.283456	-0.426261	-0.570627
O28	O	1.783456	0.073739	-0.070627
O29	O	1.582937	-0.329806	-0.741003
O30	O	2.082937	0.170194	-0.241003
O31	O	1.582709	-0.553564	-0.441560
O32	O	2.082709	-0.053564	0.058440
O33	O	1.453696	-0.553524	-0.570600
O34	O	1.953696	-0.053524	-0.070600
C35	C	1.245347	-0.378068	-0.506115
C36	C	1.745347	0.121932	-0.006115
C37	C	1.128570	-0.378083	-0.506131
C38	C	1.628570	0.121917	-0.006131
C39	C	1.073723	-0.428347	-0.573206
C40	C	1.573723	0.071653	-0.073206
C41	C	0.963999	-0.428350	-0.573227
C42	C	1.463999	0.071650	-0.073227
C43	C	0.963979	-0.327823	-0.439089
C44	C	1.463979	0.172177	0.060911
C45	C	1.073701	-0.327817	-0.439075
C46	C	1.573701	0.172183	0.060925
C47	C	1.518213	-0.582026	-0.506094
C48	C	2.018213	-0.082026	-0.006094
C49	C	1.518266	-0.669276	-0.506111
C50	C	2.018266	-0.169276	-0.006111
C51	C	1.585511	-0.710261	-0.438993
C52	C	2.085511	-0.210261	0.061007
C53	C	1.585563	-0.792241	-0.439019
C54	C	2.085563	-0.292241	0.060981
C55	C	1.518362	-0.833235	-0.506161
C56	C	2.018362	-0.333235	-0.006161
C57	C	1.451114	-0.792244	-0.573287
C58	C	1.951114	-0.292244	-0.073287
C59	C	1.451068	-0.710265	-0.573265
C60	C	1.951068	-0.210265	-0.073265
C61	C	1.451211	-0.963114	-0.573327
C62	C	1.951211	-0.463114	-0.073327
C63	C	1.451255	-1.045099	-0.573348
C64	C	1.951255	-0.545099	-0.073348
C65	C	1.585705	-1.045090	-0.439082
C66	C	2.085705	-0.545090	0.060918
C67	C	1.585660	-0.963111	-0.439059
C68	C	2.085660	-0.463111	0.060941
C69	C	1.518410	-0.922126	-0.506184
C70	C	2.018410	-0.422126	-0.006184
C71	C	1.792347	-0.378088	-0.506158
C72	C	2.292347	0.121912	-0.006158
C73	C	1.909124	-0.378093	-0.506167
C74	C	2.409124	0.121907	-0.006167
C75	C	1.518393	-0.378003	-0.780170
C76	C	2.018393	0.121997	-0.280170
C77	C	1.518426	-0.377971	-0.896946
C78	C	2.018426	0.122029	-0.396946
C79	C	1.518445	-0.173334	-0.506201
C80	C	2.018445	0.326666	-0.006201
C81	C	1.518500	-0.086084	-0.506229
C82	C	2.018500	0.413916	-0.006229
C83	C	1.585660	-0.327759	-0.951831
C84	C	2.085660	0.172241	-0.451831
C85	C	1.585677	-0.327725	-1.061555
C86	C	2.085677	0.172275	-0.561555
C87	C	1.451226	-0.428121	-1.061500
C88	C	1.951226	0.071879	-0.561500
C89	C	1.451203	-0.428150	-0.951778
C90	C	1.951203	0.071850	-0.451778
C91	C	1.518296	-0.378096	-0.233169
C92	C	2.018296	0.121904	0.266831
C93	C	1.518466	-0.377907	-0.116393
C94	C	2.018466	0.122093	0.383607
H95	H	0.919291	-0.286900	-0.384493
H96	H	1.419291	0.213100	0.115507
H97	H	0.919347	-0.469279	-0.627847
H98	H	1.419347	0.030721	-0.127847
C99	C	1.377245	-0.483384	-0.891396
C100	C	1.877245	0.016616	-0.391396
H101	H	1.386852	-0.476207	-0.818197
H102	H	1.886852	0.023793	-0.318197
H103	H	1.392584	-0.536123	-0.909358
H104	H	1.892584	-0.036123	-0.409358
H105	H	1.306662	-0.471880	-0.909369
H106	H	1.806662	0.028120	-0.409369
H107	H	1.396497	-0.468977	-1.106157
H108	H	1.896497	0.031023	-0.606157
H109	H	1.396554	-1.078474	-0.628040
H110	H	1.896554	-0.578474	-0.128040
C111	C	1.659667	-1.090170	-0.365233
C112	C	2.159667	-0.590170	0.134767
H113	H	1.650075	-1.144865	-0.374864
H114	H	2.150075	-0.644865	0.125136
H115	H	1.644302	-1.076782	-0.294631
H116	H	2.144302	-0.576782	0.205369
H117	H	1.730251	-1.076685	-0.380655
H118	H	2.230251	-0.576685	0.119345
C119	C	1.134042	-0.272524	-0.365293
C120	C	1.634042	0.227476	0.134707
H121	H	1.207246	-0.279714	-0.374898
H122	H	1.707246	0.220286	0.125102
H123	H	1.116025	-0.283945	-0.294674
H124	H	1.616025	0.216055	0.205326
H125	H	1.116092	-0.219795	-0.380809
H126	H	1.616092	0.280205	0.119191
C127	C	1.659434	-0.665175	-0.365138
C128	C	2.159434	-0.165175	0.134862
H129	H	1.699497	-0.701328	-0.325176
H130	H	2.199497	-0.201328	0.174824
H131	H	1.619256	-0.633246	-0.319315
H132	H	2.119256	-0.133246	0.180685
H133	H	1.705176	-0.633144	-0.405368
H134	H	2.205176	-0.133144	0.094632
H135	H	1.640394	-0.286897	-0.907191
H136	H	2.140394	0.213103	-0.407191
C137	C	1.659639	-0.272497	-1.121925
C138	C	2.159639	0.227503	-0.621925
H139	H	1.699674	-0.242622	-1.073551
H140	H	2.199674	0.257378	-0.573551
H141	H	1.619486	-0.238278	-1.164732
H142	H	2.119486	0.261722	-0.664732
H143	H	1.705406	-0.302522	-1.164724
H144	H	2.205406	0.197478	-0.664724
H145	H	1.118394	-0.469275	-0.627811
H146	H	1.618394	0.030725	-0.127811
H147	H	1.640320	-0.825608	-0.384364
H148	H	2.140320	-0.325608	0.115636
H149	H	1.396452	-0.929747	-0.627991
H150	H	1.896452	-0.429747	-0.127991
C151	C	1.659579	-0.918019	-0.365207
C152	C	2.159579	-0.418019	0.134793
H153	H	1.699645	-0.954168	-0.325240
H154	H	2.199645	-0.454168	0.174760
H155	H	1.619396	-0.886090	-0.319388
H156	H	2.119396	-0.386090	0.180612
H157	H	1.705318	-0.885988	-0.405440
H158	H	2.205318	-0.385988	0.094560
H159	H	1.396311	-0.676896	-0.627921
H160	H	1.896311	-0.176896	-0.127921
C161	C	1.377196	-0.837332	-0.647146
C162	C	1.877196	-0.337332	-0.147146
H163	H	1.337148	-0.801179	-0.687125
H164	H	1.837148	-0.301179	-0.187125
H165	H	1.331456	-0.869365	-0.606929
H166	H	1.831456	-0.369365	-0.106929
H167	H	1.417389	-0.869257	-0.692970
H168	H	1.917389	-0.369257	-0.192970
