data_functionalizedCrystal
_audit_creation_method	'MofGen! by Chris Wilmer'
_symmetry_space_group_name_H-M	'P1'
_symmetry_Int_Tables_number	1
_symmetry_cell_setting	triclinic
loop_
_symmetry_equiv_pos_as_xyz
  x,y,z
_cell_length_a	14.519709
_cell_length_b	9.730217
_cell_length_c	10.654541
_cell_angle_alpha	89.996959
_cell_angle_beta	95.917963
_cell_angle_gamma	89.995795
loop_
_atom_site_label
_atom_site_type_symbol
_atom_site_fract_x
_atom_site_fract_y
_atom_site_fract_z
O1	O	1.224716	0.114110	-0.164621
O2	O	1.724716	0.614110	0.335379
O3	O	0.956340	0.114152	-0.184008
O4	O	1.456340	0.614152	0.315992
O5	O	1.096699	0.114122	0.008484
O6	O	1.596699	0.614122	0.508484
O7	O	1.084356	0.114141	-0.357113
O8	O	1.584356	0.614141	0.142887
O9	O	1.096695	-0.114458	0.008486
O10	O	1.596695	0.385542	0.508486
O11	O	0.956335	-0.114428	-0.184006
O12	O	1.456335	0.385572	0.315994
O13	O	1.224712	-0.114470	-0.164619
O14	O	1.724712	0.385530	0.335381
Zn15	Zn	1.090523	-0.150741	-0.174312
Zn16	Zn	1.590523	0.349259	0.325688
Zn17	Zn	1.090528	0.150423	-0.174315
Zn18	Zn	1.590528	0.650423	0.325685
O19	O	1.084352	-0.114440	-0.357112
O20	O	1.584352	0.385560	0.142888
C21	C	0.921973	-0.000133	-0.183103
C22	C	1.421973	0.499867	0.316897
C23	C	0.819578	-0.000117	-0.180396
C24	C	1.319578	0.499883	0.319604
N25	N	1.090526	-0.356277	-0.174310
N26	N	1.590526	0.143723	0.325690
C27	C	1.214865	-0.356295	-0.003908
C28	C	1.714865	0.143705	0.496092
C29	C	1.277042	-0.428244	0.081290
C30	C	1.777042	0.071756	0.581290
C31	C	1.277051	-0.572123	0.081291
C32	C	1.777051	-0.072123	0.581291
C33	C	1.214876	-0.644058	-0.003913
C34	C	1.714876	-0.144058	0.496087
C35	C	1.152700	-0.572109	-0.089110
C36	C	1.652700	-0.072109	0.410890
C37	C	1.152699	-0.428226	-0.089104
C38	C	1.652699	0.071774	0.410896
C39	C	1.028357	-0.572092	-0.259505
C40	C	1.528357	-0.072092	0.240495
C41	C	1.028350	-0.428212	-0.259514
C42	C	1.528350	0.071788	0.240486
C43	C	0.966181	-0.644026	-0.344708
C44	C	1.466181	-0.144026	0.155292
C45	C	0.904008	-0.572077	-0.429914
C46	C	1.404008	-0.072077	0.070086
C47	C	0.904002	-0.428189	-0.429912
C48	C	1.404002	0.071811	0.070088
C49	C	0.966174	-0.356263	-0.344711
C50	C	1.466174	0.143737	0.155289
C51	C	0.444630	-0.000180	-0.170429
C52	C	0.944630	0.499820	0.329571
C53	C	0.548952	-0.000162	-0.173197
C54	C	1.048952	0.499838	0.326803
C55	C	0.632101	-0.000147	-0.175412
C56	C	1.132101	0.499853	0.324588
C57	C	0.736429	-0.000132	-0.178181
C58	C	1.236429	0.499868	0.321819
C59	C	1.259078	-0.000182	-0.165524
C60	C	1.759078	0.499818	0.334476
C61	C	1.361474	-0.000189	-0.168231
C62	C	1.861474	0.499811	0.331769
C63	C	1.095791	-0.000167	0.055275
C64	C	1.595791	0.499833	0.555275
C65	C	1.093081	-0.000164	0.194692
C66	C	1.593081	0.499836	0.694692
N67	N	1.090533	0.355960	-0.174307
N68	N	1.590533	0.855960	0.325693
C69	C	1.085260	-0.000147	-0.403902
C70	C	1.585260	0.499853	0.096098
C71	C	1.087970	-0.000141	-0.543319
C72	C	1.587970	0.499859	-0.043319
C73	C	1.260920	-0.000208	0.224277
C74	C	1.760920	0.499792	0.724277
C75	C	1.343562	-0.000233	0.304566
C76	C	1.843562	0.499767	0.804566
C77	C	1.341010	-0.000228	0.435559
C78	C	1.841010	0.499772	0.935559
C79	C	1.255806	-0.000195	0.486265
C80	C	1.755806	0.499805	0.986265
C81	C	1.173164	-0.000170	0.405976
C82	C	1.673164	0.499830	0.905976
C83	C	1.175725	-0.000179	0.274981
C84	C	1.675725	0.499821	0.774981
C85	C	1.005328	-0.000117	0.376392
C86	C	1.505328	0.499883	0.876392
C87	C	1.007878	-0.000131	0.245398
C88	C	1.507878	0.499869	0.745398
C89	C	0.920124	-0.000084	0.427098
C90	C	1.420124	0.499916	0.927098
C91	C	0.837480	-0.000069	0.346809
C92	C	1.337480	0.499931	0.846809
C93	C	0.840036	-0.000075	0.215808
C94	C	1.340036	0.499925	0.715808
C95	C	0.925236	-0.000107	0.165109
C96	C	1.425236	0.499893	0.665109
H97	H	1.214872	-0.239140	-0.003910
H98	H	1.714872	0.260860	0.496090
H99	H	1.327677	-0.630704	0.150671
H100	H	1.827677	-0.130704	0.650671
H101	H	1.214880	-0.761212	-0.003896
H102	H	1.714880	-0.261212	0.496104
H103	H	0.768114	-0.000033	0.388105
H104	H	1.268114	0.499967	0.888105
H105	H	1.263006	-0.000231	0.117616
H106	H	1.763006	0.499769	0.617616
F107	F	0.966187	-0.797156	-0.344702
F108	F	1.466187	-0.297156	0.155298
H109	H	1.408304	-0.000237	0.500931
H110	H	1.908304	0.499763	1.000931
H111	H	1.253736	-0.000174	0.592928
H112	H	1.753736	0.499826	1.092928
F113	F	1.343208	-0.351680	0.171970
F114	F	1.843208	0.148320	0.671970
H115	H	0.853385	-0.630655	-0.499275
H116	H	1.353385	-0.130655	0.000725
H117	H	0.918052	-0.000071	0.533761
H118	H	1.418052	0.499929	1.033761
F119	F	1.434237	-0.000261	0.250592
F120	F	1.934237	0.499739	0.750592
F121	F	0.752075	-0.000040	0.130367
F122	F	1.252075	0.499960	0.630367
F123	F	0.927963	-0.000123	0.025696
F124	F	1.427963	0.499877	0.525696
H125	H	0.853367	-0.369616	-0.499286
H126	H	1.353367	0.130384	0.000714
F127	F	0.966177	-0.203133	-0.344707
F128	F	1.466177	0.296867	0.155293
