data_functionalizedCrystal
_audit_creation_method	'MofGen! by Chris Wilmer'
_symmetry_space_group_name_H-M	'P1'
_symmetry_Int_Tables_number	1
_symmetry_cell_setting	triclinic
loop_
_symmetry_equiv_pos_as_xyz
  x,y,z
_cell_length_a	42.774184
_cell_length_b	42.790298
_cell_length_c	42.795305
_cell_angle_alpha	89.996162
_cell_angle_beta	120.002938
_cell_angle_gamma	60.012247
loop_
_atom_site_label
_atom_site_type_symbol
_atom_site_fract_x
_atom_site_fract_y
_atom_site_fract_z
O1	O	-0.275789	-0.214385	-0.009290
O2	O	-0.211765	-0.168939	0.009256
O3	O	-0.275780	-0.168943	-0.054730
O4	O	-0.211774	-0.214381	0.054696
O5	O	-0.223794	-0.220912	-0.054730
O6	O	-0.159779	-0.220909	0.009256
O7	O	-0.223803	-0.266354	-0.009290
Zn8	Zn	-0.183537	-0.251883	-0.000017
Zn9	Zn	-0.252031	-0.183411	-0.000017
O10	O	-0.159788	-0.266351	0.054696
C11	C	-0.051259	-0.079146	0.028119
C12	C	-0.069886	-0.041540	0.028382
C13	C	0.005353	-0.079148	0.028116
C14	C	-0.013359	-0.041542	0.028380
C15	C	-0.051244	-0.022563	0.028116
C16	C	-0.013375	-0.098040	0.028382
C17	C	-0.096105	-0.170799	0.017880
C18	C	-0.116827	-0.188734	0.014985
C19	C	-0.155560	-0.169398	0.013532
C20	C	-0.178035	-0.188839	0.010386
C21	C	-0.173569	-0.132127	0.014977
C22	C	-0.152844	-0.114197	0.017877
C23	C	-0.114110	-0.133535	0.019328
C24	C	-0.153157	0.113892	0.017871
C25	C	-0.173989	0.152534	0.014974
C26	C	-0.156097	0.171919	0.013516
C27	C	-0.178684	0.213818	0.010369
C28	C	-0.117367	0.152657	0.014961
C29	C	-0.096531	0.114015	0.017865
C30	C	-0.114433	0.094635	0.019317
C31	C	0.131599	-0.170809	0.017869
C32	C	0.167353	-0.188744	0.014967
C33	C	0.185298	-0.169411	0.013511
C34	C	0.224065	-0.188855	0.010362
C35	C	0.167485	-0.132141	0.014955
C36	C	0.131730	-0.114207	0.017855
C37	C	0.113792	-0.133546	0.019316
C38	C	-0.091642	-0.114088	0.022469
C39	C	-0.073731	-0.098589	0.024974
C40	C	0.044120	-0.098594	0.024969
C41	C	0.075022	-0.114096	0.022462
C42	C	-0.073833	0.019336	0.024970
C43	C	-0.091840	0.052734	0.022462
C44	C	-0.440839	-0.022813	-0.361515
C45	C	-0.422120	-0.041790	-0.323909
C46	C	-0.384238	-0.079396	-0.361514
C47	C	-0.365605	-0.098288	-0.323907
C48	C	-0.384239	-0.079395	-0.304930
C49	C	-0.422119	-0.041791	-0.380407
C50	C	-0.567082	0.113635	-0.453173
C51	C	-0.602837	0.152276	-0.471110
C52	C	-0.620773	0.171661	-0.451775
C53	C	-0.659536	0.213560	-0.471218
C54	C	-0.602954	0.152401	-0.414504
C55	C	-0.567205	0.113762	-0.396573
C56	C	-0.549269	0.094379	-0.415909
C57	C	-0.339429	-0.113945	-0.168476
C58	C	-0.318716	-0.131753	-0.129833
C59	C	-0.279985	-0.169016	-0.110446
C60	C	-0.257520	-0.188327	-0.068547
C61	C	-0.261969	-0.188472	-0.129706
C62	C	-0.282685	-0.170666	-0.168349
C63	C	-0.321417	-0.133399	-0.187731
C64	C	-0.339424	-0.113949	-0.453168
C65	C	-0.318707	-0.131757	-0.471101
C66	C	-0.279975	-0.169022	-0.451765
C67	C	-0.257510	-0.188332	-0.471207
C68	C	-0.261961	-0.188475	-0.414496
C69	C	-0.282678	-0.170665	-0.396564
C70	C	-0.321413	-0.133402	-0.415905
C71	C	-0.510502	0.052481	-0.396461
C72	C	-0.479602	0.019084	-0.380960
C73	C	-0.361775	-0.098705	-0.380957
C74	C	-0.343872	-0.114096	-0.396457
C75	C	-0.361777	-0.098703	-0.263030
C76	C	-0.343874	-0.114093	-0.229632
C77	C	-0.440912	-0.356164	-0.028175
C78	C	-0.422197	-0.393770	-0.028440
C79	C	-0.384300	-0.356162	-0.028173
C80	C	-0.365670	-0.393768	-0.028437
C81	C	-0.384312	-0.412747	-0.028175
C82	C	-0.422185	-0.337271	-0.028438
C83	C	-0.567164	-0.264513	-0.017933
C84	C	-0.602924	-0.246578	-0.015037
C85	C	-0.620868	-0.265915	-0.013585
C86	C	-0.659636	-0.246474	-0.010438
C87	C	-0.603052	-0.303185	-0.015031
C88	C	-0.567299	-0.321115	-0.017932
C89	C	-0.549355	-0.301777	-0.019382
C90	C	-0.339521	-0.549200	-0.017933
C91	C	-0.318813	-0.587842	-0.015037
C92	C	-0.280078	-0.607227	-0.013581
C93	C	-0.257617	-0.649125	-0.010435
C94	C	-0.262055	-0.587965	-0.015025
C95	C	-0.282767	-0.549323	-0.017928
C96	C	-0.321502	-0.529943	-0.019379
C97	C	-0.339461	-0.264502	-0.017923
C98	C	-0.318737	-0.246567	-0.015020
C99	C	-0.280002	-0.265901	-0.013565
C100	C	-0.257529	-0.246457	-0.010416
C101	C	-0.261991	-0.303170	-0.015010
C102	C	-0.282715	-0.321103	-0.017911
C103	C	-0.321453	-0.301765	-0.019371
C104	C	-0.510584	-0.321223	-0.022524
C105	C	-0.479680	-0.336722	-0.025030
C106	C	-0.361830	-0.336716	-0.025025
C107	C	-0.343920	-0.321215	-0.022517
C108	C	-0.361855	-0.454646	-0.025029
C109	C	-0.343955	-0.488043	-0.022523
O110	O	0.327666	-0.266374	-0.009307
O111	O	0.236752	-0.220927	0.009238
O112	O	0.236747	-0.220933	-0.054748
O113	O	0.327670	-0.266368	0.054679
O114	O	0.236762	-0.168962	-0.054750
O115	O	0.236766	-0.168957	0.009236
O116	O	0.327680	-0.214404	-0.009309
Zn117	Zn	0.282226	-0.183429	-0.000037
Zn118	Zn	0.282206	-0.251902	-0.000034
O119	O	0.327685	-0.214398	0.054677
O120	O	-0.223887	0.337057	-0.009306
O121	O	-0.159901	0.227633	0.009238
O122	O	-0.223902	0.291613	-0.054748
O123	O	-0.159885	0.273077	0.054679
O124	O	-0.275899	0.291615	-0.054745
O125	O	-0.211897	0.227635	0.009240
O126	O	-0.275884	0.337059	-0.009304
Zn127	Zn	-0.252146	0.282347	-0.000032
Zn128	Zn	-0.183638	0.282345	-0.000035
O129	O	-0.211882	0.273079	0.054681
O130	O	-0.211763	-0.214392	-0.548717
O131	O	-0.275772	-0.168950	-0.503280
O132	O	-0.211756	-0.168948	-0.503276
O133	O	-0.275779	-0.214394	-0.548722
O134	O	-0.159771	-0.220917	-0.451303
O135	O	-0.223787	-0.220919	-0.451307
O136	O	-0.159778	-0.266361	-0.496745
Zn137	Zn	-0.183529	-0.251891	-0.465774
Zn138	Zn	-0.252021	-0.183420	-0.534251
O139	O	-0.223794	-0.266363	-0.496749
O140	O	-0.763131	0.336798	-0.496759
O141	O	-0.672226	0.227376	-0.451318
O142	O	-0.672213	0.291361	-0.451315
O143	O	-0.763144	0.272813	-0.496762
O144	O	-0.672213	0.291361	-0.503287
O145	O	-0.672226	0.227377	-0.503290
O146	O	-0.763132	0.336799	-0.548730
Zn147	Zn	-0.717679	0.282088	-0.534262
Zn148	Zn	-0.717679	0.282087	-0.465787
O149	O	-0.763145	0.272814	-0.548733
C150	C	0.005280	-0.412489	0.361480
C151	C	-0.013439	-0.393512	0.380373
C152	C	-0.051322	-0.355906	0.304896
C153	C	-0.069954	-0.337015	0.323874
C154	C	-0.051320	-0.355907	0.361481
C155	C	-0.013440	-0.393511	0.323873
C156	C	0.131522	-0.548938	0.396030
C157	C	0.167277	-0.587579	0.413840
C158	C	0.185213	-0.606964	0.451106
C159	C	0.223977	-0.648863	0.470416
C160	C	0.167394	-0.587704	0.470562
C161	C	0.131645	-0.549065	0.452754
C162	C	0.113709	-0.529681	0.415487
C163	C	-0.096129	-0.321359	0.453139
C164	C	-0.116842	-0.303550	0.471075
C165	C	-0.155573	-0.266287	0.451742
C166	C	-0.178037	-0.246977	0.471183
C167	C	-0.173588	-0.246832	0.414471
C168	C	-0.152873	-0.264637	0.396538
C169	C	-0.114142	-0.301905	0.415876
C170	C	-0.096137	-0.321352	0.168441
C171	C	-0.116854	-0.303544	0.129796
C172	C	-0.155585	-0.266279	0.110412
C173	C	-0.178051	-0.246969	0.068511
C174	C	-0.173599	-0.246826	0.129672
C175	C	-0.152882	-0.264636	0.168315
C176	C	-0.114147	-0.301899	0.187697
C177	C	0.074943	-0.487784	0.396179
C178	C	0.044043	-0.454387	0.380788
C179	C	-0.073784	-0.336597	0.262996
C180	C	-0.091688	-0.321206	0.229598
C181	C	-0.073781	-0.336600	0.380926
C182	C	-0.091684	-0.321210	0.396426
C183	C	-0.051269	-0.022835	-0.361535
C184	C	-0.069913	-0.041813	-0.380427
C185	C	0.005331	-0.079417	-0.304949
C186	C	-0.013399	-0.098309	-0.323927
C187	C	-0.051286	-0.079418	-0.361534
C188	C	-0.013382	-0.041812	-0.323928
C189	C	-0.096050	0.113614	-0.396091
C190	C	-0.116757	0.152255	-0.413902
C191	C	-0.155493	0.171639	-0.451168
C192	C	-0.177951	0.213538	-0.470479
C193	C	-0.173519	0.152378	-0.470623
C194	C	-0.152809	0.113739	-0.452814
C195	C	-0.114073	0.094357	-0.415546
C196	C	-0.153254	-0.113971	-0.453188
C197	C	-0.174103	-0.131780	-0.471123
C198	C	-0.156226	-0.169043	-0.451789
C199	C	-0.178831	-0.188355	-0.471229
C200	C	-0.117493	-0.188498	-0.414518
C201	C	-0.096641	-0.170691	-0.396586
C202	C	-0.114528	-0.133424	-0.415925
C203	C	0.131603	-0.113965	-0.168495
C204	C	0.167360	-0.131772	-0.129851
C205	C	0.185290	-0.169037	-0.110465
C206	C	0.224060	-0.188345	-0.068564
C207	C	0.167459	-0.188491	-0.129724
C208	C	0.131701	-0.170682	-0.168366
C209	C	0.113778	-0.133419	-0.187750
C210	C	-0.091621	0.052459	-0.396236
C211	C	-0.073724	0.019063	-0.380845
C212	C	0.044101	-0.098724	-0.263050
C213	C	0.075005	-0.114114	-0.229651
C214	C	-0.073894	-0.098726	-0.380977
C215	C	-0.091916	-0.114117	-0.396477
C216	C	0.615718	-0.356160	0.361463
C217	C	0.634345	-0.393765	0.380356
C218	C	0.559101	-0.356161	0.304878
C219	C	0.577814	-0.393765	0.323857
C220	C	0.615701	-0.412743	0.361463
C221	C	0.577831	-0.337269	0.323856
C222	C	0.660568	-0.264507	0.396014
C223	C	0.681292	-0.246572	0.413824
C224	C	0.720028	-0.265907	0.451090
C225	C	0.742505	-0.246465	0.470400
C226	C	0.738037	-0.303176	0.470546
C227	C	0.717310	-0.321106	0.452738
C228	C	0.678574	-0.301770	0.415470
C229	C	0.717617	-0.549191	0.453122
C230	C	0.738449	-0.587832	0.471058
C231	C	0.720555	-0.607218	0.451724
C232	C	0.743142	-0.649116	0.471166
C233	C	0.681822	-0.587958	0.414453
C234	C	0.660987	-0.549317	0.396520
C235	C	0.678891	-0.529936	0.415859
C236	C	0.432847	-0.264509	0.168423
C237	C	0.397089	-0.246577	0.129778
C238	C	0.379142	-0.265911	0.110394
C239	C	0.340372	-0.246470	0.068493
C240	C	0.396956	-0.303179	0.129654
C241	C	0.432714	-0.321110	0.168296
C242	C	0.450654	-0.301771	0.187679
C243	C	0.656104	-0.321217	0.396162
C244	C	0.638191	-0.336717	0.380771
C245	C	0.520331	-0.336718	0.262979
C246	C	0.489427	-0.321218	0.229580
C247	C	0.638291	-0.454640	0.380908
C248	C	0.656297	-0.488037	0.396409
C249	C	-0.440986	0.310436	-0.361522
C250	C	-0.422262	0.310696	-0.380415
C251	C	-0.384374	0.310444	-0.304940
C252	C	-0.365736	0.310704	-0.323919
C253	C	-0.384373	0.310433	-0.361524
C254	C	-0.422263	0.310707	-0.323916
C255	C	-0.567258	0.300190	-0.396067
C256	C	-0.603022	0.297291	-0.413875
C257	C	-0.620962	0.295831	-0.451140
C258	C	-0.659734	0.292681	-0.470448
C259	C	-0.603137	0.297272	-0.470597
C260	C	-0.567380	0.300176	-0.452790
C261	C	-0.549441	0.301634	-0.415524
C262	C	-0.339555	0.300170	-0.453181
C263	C	-0.318839	0.297269	-0.471117
C264	C	-0.280100	0.295815	-0.451785
C265	C	-0.257632	0.292665	-0.471226
C266	C	-0.262081	0.297268	-0.414515
C267	C	-0.282801	0.300175	-0.396582
C268	C	-0.321540	0.301624	-0.415919
C269	C	-0.339558	0.300224	-0.168487
C270	C	-0.318839	0.297329	-0.129844
C271	C	-0.280100	0.295877	-0.110461
C272	C	-0.257632	0.292737	-0.068561
C273	C	-0.262081	0.297317	-0.129721
C274	C	-0.282800	0.300210	-0.168363
C275	C	-0.321542	0.301667	-0.187744
C276	C	-0.510665	0.304779	-0.396217
C277	C	-0.479758	0.307288	-0.380828
C278	C	-0.361909	0.307305	-0.263042
C279	C	-0.344003	0.304805	-0.229644
C280	C	-0.361908	0.307283	-0.380969
C281	C	-0.344002	0.304773	-0.396470
O282	O	-0.275676	0.336777	-0.548504
O283	O	-0.211683	0.227353	-0.503066
O284	O	-0.275680	0.291334	-0.503060
O285	O	-0.211680	0.272797	-0.548510
O286	O	-0.223678	0.291335	-0.451089
O287	O	-0.159682	0.227354	-0.451095
O288	O	-0.223675	0.336778	-0.496533
Zn289	Zn	-0.183422	0.282066	-0.465563
Zn290	Zn	-0.251936	0.282065	-0.534037
O291	O	-0.159678	0.272798	-0.496539
C292	C	-0.051166	0.254258	0.361458
C293	C	-0.013278	0.253997	0.380349
C294	C	-0.051166	0.254248	0.304874
C295	C	-0.013278	0.253987	0.323850
C296	C	0.005445	0.254258	0.361455
C297	C	-0.069803	0.253987	0.323853
C298	C	-0.153113	0.264509	0.396015
C299	C	-0.173954	0.267408	0.413826
C300	C	-0.156065	0.268869	0.451091
C301	C	-0.178665	0.272020	0.470402
C302	C	-0.117330	0.267426	0.470545
C303	C	-0.096489	0.264522	0.452735
C304	C	-0.114382	0.263063	0.415469
C305	C	0.131715	0.264518	0.453103
C306	C	0.167478	0.267417	0.471036
C307	C	0.185417	0.268870	0.451702
C308	C	0.224189	0.272019	0.471140
C309	C	0.167593	0.267418	0.414432
C310	C	0.131837	0.264511	0.396502
C311	C	0.113898	0.263064	0.415842
C312	C	-0.153113	0.264469	0.168424
C313	C	-0.173958	0.267364	0.129781
C314	C	-0.156068	0.268815	0.110395
C315	C	-0.178668	0.271955	0.068495
C316	C	-0.117337	0.267374	0.129652
C317	C	-0.096495	0.264481	0.168294
C318	C	-0.114385	0.263025	0.187678
C319	C	-0.091781	0.259917	0.396160
C320	C	-0.073767	0.257407	0.380768
C321	C	-0.073767	0.257387	0.262975
C322	C	-0.091781	0.259888	0.229578
C323	C	0.044216	0.257407	0.380897
C324	C	0.075123	0.259916	0.396395
H325	H	-0.205523	0.168214	0.013796
C326	C	0.186972	-0.110371	-0.108669
N327	N	0.201745	-0.094251	-0.092716
H328	H	-0.552656	0.301379	-0.365724
C329	C	0.007816	-0.020959	0.028952
N330	N	0.023764	-0.005457	0.029384
C331	C	-0.172792	0.262893	0.355026
N332	N	-0.187611	0.261674	0.324155
C333	C	0.112234	0.262915	0.355508
N334	N	0.097467	0.261714	0.324629
H335	H	0.116994	-0.186558	0.019058
H336	H	0.117018	-0.083628	-0.184278
C337	C	-0.382169	0.301769	-0.474454
N338	N	-0.414266	0.302973	-0.490476
H339	H	-0.437848	-0.306373	-0.028860
C340	C	-0.443433	0.311287	-0.303332
N341	N	-0.459378	0.311726	-0.287829
C342	C	-0.382172	0.301823	-0.189805
N343	N	-0.414268	0.303026	-0.205862
H344	H	-0.617341	0.167955	-0.501454
C345	C	0.111991	0.262916	0.474381
N346	N	0.097135	0.261708	0.490407
H347	H	-0.167507	-0.083852	0.019055
H348	H	-0.064997	0.098334	0.019043
H349	H	-0.230517	-0.603748	-0.013842
C350	C	-0.382046	-0.072960	-0.189800
N351	N	-0.414149	-0.042093	-0.205864
C352	C	-0.097657	0.268971	0.108327
N353	N	-0.082835	0.270174	0.092265
C354	C	0.111799	-0.527618	0.355038
N355	N	0.096943	-0.511560	0.324163
C356	C	-0.219485	0.295695	-0.393258
N357	N	-0.187404	0.294516	-0.377249
C358	C	-0.338531	-0.110349	-0.108650
N359	N	-0.353456	-0.094226	-0.092694
H360	H	-0.205492	0.268584	0.397984
C361	C	0.007885	0.253416	0.303262
N362	N	0.023823	0.252989	0.287755
H363	H	-0.205497	0.268542	0.114103
H364	H	-0.064951	0.263345	0.468578
C365	C	-0.219366	-0.229462	-0.108382
N366	N	-0.187274	-0.260336	-0.092319
H367	H	-0.552482	0.097857	-0.468922
C368	C	0.452584	-0.243236	0.189742
N369	N	0.467452	-0.227215	0.205800
H370	H	-0.268124	0.301381	-0.184042
H371	H	-0.268016	-0.186510	-0.184028
H372	H	0.002268	-0.129208	-0.308690
H373	H	0.666627	-0.216229	0.397979
C374	C	0.186871	-0.608761	0.392435
N375	N	0.201628	-0.624716	0.376312
H376	H	-0.552700	0.098083	-0.366228
C377	C	-0.262940	-0.528139	-0.019515
N378	N	-0.248005	-0.512183	-0.020709
H379	H	-0.064958	0.263306	0.183971
H380	H	-0.617527	0.296111	-0.398029
C381	C	-0.053438	0.092296	-0.355098
N382	N	-0.021342	0.076239	-0.324223
H383	H	-0.617562	0.168187	-0.398766
H384	H	-0.268007	-0.186507	-0.366218
H385	H	-0.100368	-0.026304	0.028812
H386	H	0.182099	-0.116399	0.013771
H387	H	-0.333512	0.296155	-0.114164
H388	H	0.562191	-0.306381	0.308610
H389	H	-0.268047	-0.351449	-0.019088
H390	H	-0.333512	0.296086	-0.501461
H391	H	-0.333404	-0.216223	-0.013841
H392	H	0.629028	-0.248759	0.365669
C393	C	-0.324548	0.311282	-0.303335
N394	N	-0.293527	0.311718	-0.287831
H395	H	-0.100403	-0.026574	-0.411324
H396	H	-0.230415	-0.218814	-0.398747
C397	C	-0.622514	-0.205585	-0.013442
N398	N	-0.637268	-0.174709	-0.012239
C399	C	-0.622870	0.295663	-0.511585
N400	N	-0.637731	0.294448	-0.542458
C401	C	-0.262979	0.301770	-0.355588
N402	N	-0.248046	0.302970	-0.324709
C403	C	0.187126	-0.609029	0.511553
N404	N	0.201986	-0.625091	0.542429
C405	C	-0.382069	-0.243231	-0.019522
N406	N	-0.414160	-0.227212	-0.020724
C407	C	0.007773	-0.139778	0.028944
N408	N	0.023700	-0.171213	0.029363
C409	C	0.112141	-0.073213	0.019447
N410	N	0.097387	-0.042336	0.020647
H411	H	-0.552559	-0.248763	-0.019115
C412	C	0.007727	-0.414097	0.422116
N413	N	0.023668	-0.429600	0.453555
H414	H	-0.167683	0.263285	0.184205
C415	C	-0.216709	-0.110378	-0.512117
N416	N	-0.248801	-0.094256	-0.542994
H417	H	-0.333375	-0.115914	-0.501446
C418	C	-0.324427	-0.140029	-0.303323
N419	N	-0.293413	-0.171469	-0.287820
C420	C	-0.053493	-0.192077	0.019484
N421	N	-0.021397	-0.208103	0.020694
H422	H	0.664831	-0.408999	0.411255
C423	C	0.112093	-0.192085	-0.189549
N424	N	0.097325	-0.208208	-0.205505
H425	H	-0.335184	-0.409003	-0.028860
H426	H	0.629450	-0.533638	0.366176
C427	C	-0.443435	0.311270	-0.422159
N428	N	-0.459383	0.311703	-0.453599
C429	C	-0.443361	-0.414361	-0.029001
N430	N	-0.459296	-0.429871	-0.029418
H431	H	0.181853	-0.219089	0.013790
C432	C	0.187183	-0.229484	-0.108399
N433	N	0.202039	-0.260358	-0.092339
H434	H	-0.167819	-0.083628	-0.468938
H435	H	-0.617666	-0.318925	-0.013850
H436	H	0.117142	-0.533386	0.468599
C437	C	-0.053521	-0.362349	0.474414
N438	N	-0.021429	-0.393222	0.490438
C439	C	0.377496	-0.205582	0.108595
N440	N	0.362737	-0.174704	0.092641
H441	H	-0.552797	-0.351459	-0.019111
C442	C	-0.547774	0.301757	-0.474192
N443	N	-0.533005	0.302946	-0.490311
C444	C	-0.097019	-0.229727	0.013390
N445	N	-0.082100	-0.260604	0.012188
H446	H	-0.205137	-0.216483	0.113887
C447	C	-0.172639	0.092555	-0.474215
N448	N	-0.187576	0.076601	-0.490335
C449	C	0.187328	0.269011	0.393163
N450	N	0.202192	0.270214	0.377143
C451	C	-0.382132	-0.527883	-0.019537
N452	N	-0.414227	-0.511825	-0.020745
H453	H	0.769575	-0.318914	0.500889
H454	H	-0.102795	0.168440	0.013780
H455	H	0.732195	-0.533413	0.468871
H456	H	-0.333488	-0.603522	-0.013859
H457	H	0.002291	-0.026573	-0.308693
H458	H	-0.437790	-0.026553	-0.308674
H459	H	-0.100298	0.253568	0.308616
C460	C	-0.096930	0.173439	-0.392498
N461	N	-0.081996	0.189395	-0.376375
H462	H	-0.102934	-0.218840	-0.398777
C463	C	-0.054037	-0.192092	-0.355591
N464	N	-0.021948	-0.208211	-0.324712
H465	H	-0.230449	-0.318913	-0.013824
H466	H	-0.100437	-0.306117	0.308636
C467	C	-0.097654	0.269032	0.511535
N468	N	-0.082833	0.270242	0.542409
C469	C	-0.216175	-0.110860	0.013378
N470	N	-0.248268	-0.094839	0.012173
C471	C	0.452303	-0.362103	0.189480
N472	N	0.467058	-0.392979	0.205436
H473	H	-0.167734	0.098114	0.019056
C474	C	-0.443289	-0.021211	-0.422153
N475	N	-0.459236	-0.005713	-0.453596
H476	H	0.181986	0.268601	0.501380
H477	H	-0.370962	-0.083607	-0.468918
H478	H	-0.205057	0.168163	-0.500965
H479	H	0.562137	-0.409000	0.308619
H480	H	-0.205122	-0.216488	0.398731
C481	C	0.007724	-0.414094	0.303289
N482	N	0.023664	-0.429596	0.287785
H483	H	-0.102184	-0.319386	0.114117
C484	C	-0.053532	-0.362344	0.189759
N485	N	-0.021444	-0.393219	0.205817
C486	C	-0.097026	-0.324955	0.512069
N487	N	-0.082102	-0.341078	0.542945
C488	C	-0.172689	-0.243234	0.355544
N489	N	-0.187615	-0.227113	0.324666
H490	H	-0.167552	-0.248794	0.183994
C491	C	0.737122	-0.362100	0.474140
N492	N	0.752046	-0.392978	0.490260
C493	C	0.781056	-0.609015	0.512051
N494	N	0.813149	-0.624971	0.542928
C495	C	0.662135	-0.609281	0.393186
N496	N	0.647308	-0.625343	0.377167
C497	C	0.377212	-0.324448	0.108331
N498	N	0.362341	-0.340467	0.092272
H499	H	-0.230535	0.296133	-0.113937
H500	H	0.002392	0.253573	0.411248
