data_functionalizedCrystal
_audit_creation_method	'MofGen! by Chris Wilmer'
_symmetry_space_group_name_H-M	'P1'
_symmetry_Int_Tables_number	1
_symmetry_cell_setting	triclinic
loop_
_symmetry_equiv_pos_as_xyz
  x,y,z
_cell_length_a	16.959453
_cell_length_b	15.298068
_cell_length_c	15.296720
_cell_angle_alpha	88.354818
_cell_angle_beta	99.644028
_cell_angle_gamma	99.679525
loop_
_atom_site_label
_atom_site_type_symbol
_atom_site_fract_x
_atom_site_fract_y
_atom_site_fract_z
Zn1	Zn	-0.235138	1.253390	-0.727359
Zn2	Zn	-0.341295	1.278658	-0.580887
Zn3	Zn	-0.227458	1.132270	-0.555525
Zn4	Zn	-0.385606	1.106889	-0.701910
O5	O	-0.297374	1.192802	-0.641420
O6	O	-0.233890	1.379317	-0.729193
O7	O	-0.304435	1.280436	-0.454962
O8	O	-0.117864	1.148384	-0.578356
O9	O	-0.311882	1.397881	-0.621581
O10	O	-0.123507	1.237371	-0.704601
O11	O	-0.220800	1.172885	-0.436329
O12	O	-0.263767	1.006328	-0.553679
O13	O	-0.387405	1.105127	-0.827847
O14	O	-0.379958	0.987681	-0.661227
O15	O	-0.276857	1.212760	-0.846544
O16	O	-0.457785	1.255825	-0.596904
O17	O	-0.490341	1.129627	-0.685819
C18	C	-0.325838	0.965222	-0.601940
C19	C	-0.338038	0.867859	-0.585071
C20	C	-0.210380	0.554688	-0.761988
C21	C	-0.198921	0.646165	-0.777842
C22	C	-0.233699	0.701593	-0.729650
C23	C	-0.279938	0.665535	-0.665602
C24	C	-0.291404	0.574049	-0.649751
C25	C	-0.314723	0.720953	-0.617414
C26	C	-0.360962	0.684896	-0.553366
C27	C	-0.372425	0.593418	-0.537517
C28	C	-0.337647	0.537990	-0.585709
C29	C	-0.303257	0.812440	-0.633265
C30	C	-0.384281	0.831800	-0.521028
C31	C	-0.395740	0.740324	-0.505174
C32	C	-0.502744	1.192734	-0.641375
C33	C	-0.590597	1.192781	-0.641399
C34	C	-0.964962	1.239191	-0.707274
C35	C	-0.959176	1.146635	-0.575739
C36	C	-0.876630	1.146606	-0.575713
C37	C	-0.838247	1.192869	-0.641470
C38	C	-0.882410	1.239161	-0.707252
C39	C	-0.832464	1.100308	-0.509937
C40	C	-0.749913	1.100276	-0.509909
C41	C	-0.711528	1.146545	-0.575663
C42	C	-0.755695	1.192839	-0.641447
C43	C	-0.717312	1.239102	-0.707204
C44	C	-0.761477	1.285402	-0.772986
C45	C	-0.844024	1.285429	-0.773006
C46	C	-0.628980	1.146518	-0.575643
C47	C	-0.634760	1.239072	-0.707182
C48	C	-0.091203	1.192890	-0.641488
C49	C	-0.003345	1.192928	-0.641517
C50	C	-0.337931	1.153294	-0.869862
C51	C	-0.355213	1.136458	-0.967211
C52	C	-0.268800	1.421270	-0.681055
C53	C	-0.256623	1.518630	-0.697945
C54	C	-0.173709	1.313164	-1.280560
C55	C	-0.157472	1.328988	-1.189098
C56	C	-0.206906	1.280856	-1.133621
C57	C	-0.272580	1.216899	-1.169617
C58	C	-0.288823	1.201079	-1.261090
C59	C	-0.322019	1.168771	-1.114151
C60	C	-0.387694	1.104814	-1.150146
C61	C	-0.403933	1.088996	-1.241610
C62	C	-0.354499	1.137127	-1.297086
C63	C	-0.305776	1.184591	-1.022678
C64	C	-0.420890	1.072506	-1.003207
C65	C	-0.437127	1.056682	-1.094670
C66	C	-0.256912	1.232207	-0.413875
C67	C	-0.239386	1.249212	-0.316557
H68	H	-0.182074	0.509551	-0.801223
O69	O	-0.222535	0.790481	-0.744884
C70	C	-0.183370	0.835539	-0.666285
H71	H	-0.194447	0.791535	-0.606673
H72	H	-0.208554	0.899435	-0.661244
H73	H	-0.115441	0.852081	-0.667379
O74	O	-0.348926	0.449126	-0.570315
C75	C	-0.432509	0.414678	-0.587384
H76	H	-0.468743	0.469983	-0.581460
H77	H	-0.447153	0.360298	-0.537248
H78	H	-0.449216	0.385897	-0.657243
O79	O	-0.418116	0.885708	-0.474348
C80	C	-0.471455	0.930003	-0.533278
H81	H	-0.453744	0.932238	-0.602084
H82	H	-0.467599	1.000497	-0.508728
H83	H	-0.536153	0.893094	-0.536675
H84	H	-0.161275	0.675516	-0.829993
H85	H	-0.133471	1.352350	-1.325737
H86	H	-0.879990	1.323124	-0.826562
O87	O	-1.007931	1.284017	-0.771243
C88	C	-1.071987	1.224344	-0.819104
H89	H	-1.056735	1.154417	-0.812481
H90	H	-1.080897	1.244305	-0.892019
H91	H	-1.130125	1.226056	-0.791515
H92	H	-0.990433	1.108966	-0.522206
H93	H	-0.433390	0.710952	-0.453026
O94	O	-0.468920	1.025884	-0.949252
C95	C	-0.504355	1.084882	-0.904992
H96	H	-0.465742	1.153644	-0.902818
H97	H	-0.507986	1.060325	-0.834477
H98	H	-0.567989	1.088383	-0.941888
O99	O	-0.585972	1.101674	-0.511730
C100	C	-0.521944	1.161347	-0.463826
H101	H	-0.506710	1.222351	-0.506271
H102	H	-0.466299	1.127690	-0.445856
H103	H	-0.541046	1.182253	-0.400616
H104	H	-0.252303	1.236666	-0.993380
O105	O	-0.370224	1.121613	-1.385911
C106	C	-0.365871	1.032380	-1.401907
H107	H	-0.326581	1.005302	-1.342925
H108	H	-0.338051	1.028080	-1.464201
H109	H	-0.429461	0.991602	-1.411531
H110	H	-0.603513	1.276749	-0.760726
H111	H	-0.410084	0.564062	-0.485371
O112	O	-0.724123	1.330209	-0.836882
C113	C	-0.692691	1.270488	-0.884748
H114	H	-0.683201	1.209477	-0.842290
H115	H	-0.632236	1.304090	-0.902681
H116	H	-0.737217	1.249606	-0.947978
H117	H	-0.863722	1.062640	-0.456404
H118	H	-0.490600	1.004607	-1.123991
O119	O	-0.707125	1.055296	-0.445920
C120	C	-0.758710	1.014452	-0.387902
H121	H	-0.812512	1.050868	-0.391145
H122	H	-0.723804	1.017097	-0.317269
H123	H	-0.781527	0.942365	-0.408374
O124	O	-0.190997	1.296304	-1.044789
C125	C	-0.122443	1.363089	-1.024916
H126	H	-0.084089	1.366265	-1.079774
H127	H	-0.084885	1.347254	-0.959151
H128	H	-0.142920	1.429749	-1.019751
H129	H	-0.104002	1.381064	-1.159797
O130	O	-0.467821	1.026934	-1.276484
C131	C	-0.540238	1.049924	-1.257437
H132	H	-0.525866	1.095084	-1.196869
H133	H	-0.583031	0.987235	-1.243321
H134	H	-0.570373	1.086041	-1.316718
H135	H	-0.265607	0.841789	-0.685413
