data_functionalizedCrystal
_audit_creation_method	'MofGen! by Chris Wilmer'
_symmetry_space_group_name_H-M	'P1'
_symmetry_Int_Tables_number	1
_symmetry_cell_setting	triclinic
loop_
_symmetry_equiv_pos_as_xyz
  x,y,z
_cell_length_a	10.723024
_cell_length_b	16.992695
_cell_length_c	16.053912
_cell_angle_alpha	92.708062
_cell_angle_beta	87.134691
_cell_angle_gamma	92.431954
loop_
_atom_site_label
_atom_site_type_symbol
_atom_site_fract_x
_atom_site_fract_y
_atom_site_fract_z
O1	O	1.671652	-0.112993	-0.069424
O2	O	2.171652	0.387007	0.430576
O3	O	1.309407	-0.123525	-0.069427
O4	O	1.809407	0.376475	0.430573
O5	O	1.489077	-0.004108	-0.069419
O6	O	1.989077	0.495892	0.430581
O7	O	1.491982	-0.232410	-0.069432
O8	O	1.991982	0.267590	0.430568
O9	O	1.479081	0.001815	0.069438
O10	O	1.979081	0.501815	0.569438
O11	O	1.299411	-0.117602	0.069430
O12	O	1.799411	0.382398	0.569430
O13	O	1.661656	-0.107070	0.069433
O14	O	2.161656	0.392930	0.569433
Zn15	Zn	1.478947	-0.111395	0.091478
Zn16	Zn	1.978947	0.388605	0.591478
Zn17	Zn	1.492116	-0.119200	-0.091472
Zn18	Zn	1.992116	0.380800	0.408528
O19	O	1.481986	-0.226487	0.069425
O20	O	1.981986	0.273513	0.569425
C21	C	1.257843	-0.119797	0.000001
C22	C	1.757843	0.380203	0.500001
C23	C	1.119092	-0.117504	0.000000
C24	C	1.619092	0.382496	0.500000
C25	C	1.480343	0.028086	0.000009
C26	C	1.980343	0.528086	0.500009
C27	C	1.469195	0.115190	0.000009
C28	C	1.969195	0.615190	0.500009
N29	N	1.469968	-0.106069	0.216337
N30	N	1.969968	0.393931	0.716337
C31	C	1.049863	-0.184323	-0.000004
C32	C	1.549863	0.315677	0.499996
C33	C	0.906455	-0.181955	-0.000005
C34	C	1.406455	0.318045	0.499995
C35	C	1.713220	-0.110798	0.000003
C36	C	2.213220	0.389202	0.500003
C37	C	1.851972	-0.113091	-0.000002
C38	C	2.351972	0.386909	0.499998
C39	C	1.490720	-0.258681	-0.000005
C40	C	1.990720	0.241319	0.499995
C41	C	1.501869	-0.345785	-0.000011
C42	C	2.001869	0.154215	0.499989
C43	C	1.576755	0.164852	0.000011
C44	C	2.076755	0.664852	0.500011
C45	C	1.566274	0.246695	0.000003
C46	C	2.066274	0.746695	0.500003
C47	C	1.448231	0.278874	-0.000001
C48	C	1.948231	0.778874	0.499999
C49	C	1.340663	0.229206	-0.000005
C50	C	1.840663	0.729206	0.499995
C51	C	1.351146	0.147364	-0.000003
C52	C	1.851146	0.647364	0.499997
C53	C	1.404783	0.522705	-0.000013
C54	C	1.904783	1.022705	0.499987
C55	C	1.394308	0.604553	-0.000012
C56	C	1.894308	1.104553	0.499988
C57	C	1.619921	0.622036	-0.000006
C58	C	2.119921	1.122036	0.499994
C59	C	1.630393	0.540193	0.000001
C60	C	2.130393	1.040193	0.500001
C61	C	1.522825	0.490531	-0.000007
C62	C	2.022825	0.990531	0.499993
N63	N	1.437514	0.362530	-0.000006
N64	N	1.937514	0.862530	0.499994
N65	N	1.533543	0.406876	-0.000008
N66	N	2.033543	0.906876	0.499992
C67	C	1.423774	-0.078397	0.739961
C68	C	1.923774	0.421603	1.239961
C69	C	1.430050	-0.082154	0.652555
C70	C	1.930050	0.417846	1.152555
C71	C	1.513641	-0.132054	0.608860
C72	C	2.013641	0.367946	1.108860
C73	C	1.590970	-0.178194	0.652574
C74	C	2.090970	0.321806	1.152574
C75	C	1.584700	-0.174433	0.739978
C76	C	2.084700	0.325567	1.239978
C77	C	1.541027	-0.148448	0.347455
C78	C	2.041027	0.351552	0.847455
C79	C	1.547289	-0.152207	0.260045
C80	C	2.047289	0.347793	0.760045
C81	C	1.386369	-0.056166	0.260032
C82	C	1.886369	0.443834	0.760032
C83	C	1.380101	-0.052412	0.347438
C84	C	1.880101	0.447588	0.847438
C85	C	1.457435	-0.098549	0.391145
C86	C	1.957435	0.401451	0.891145
N87	N	1.520055	-0.135896	0.519517
N88	N	2.020055	0.364104	1.019517
N89	N	1.451026	-0.094702	0.480486
N90	N	1.951026	0.405298	0.980486
N91	N	1.501095	-0.124536	0.783669
N92	N	2.001095	0.375464	1.283669
H93	H	1.096761	-0.243283	-0.000003
H94	H	1.596761	0.256717	0.499997
Cl95	Cl	1.681914	-0.232435	0.794927
Cl96	Cl	2.181914	0.267565	1.294927
H97	H	1.312034	-0.011777	0.383008
H98	H	1.812034	0.488223	0.883008
Cl99	Cl	1.701499	0.309124	0.000008
Cl100	Cl	2.201499	0.809124	0.500008
H101	H	1.726516	0.513999	0.000004
H102	H	2.226516	1.013999	0.500004
Cl103	Cl	1.755139	0.684472	0.000003
Cl104	Cl	2.255139	1.184472	0.500003
Cl105	Cl	1.245900	0.645005	-0.000012
Cl106	Cl	1.745900	1.145005	0.499988
H107	H	0.846949	-0.239158	-0.000012
H108	H	1.346949	0.260842	0.499988
Cl109	Cl	1.696063	-0.240922	0.597643
Cl110	Cl	2.196063	0.259078	1.097643
Cl111	Cl	1.332804	-0.024172	0.597611
Cl112	Cl	1.832804	0.475828	1.097611
H113	H	1.244550	0.255412	-0.000014
H114	H	1.744550	0.755412	0.499986
Cl115	Cl	1.269554	0.460284	-0.000026
Cl116	Cl	1.769554	0.960284	0.499974
H117	H	0.911471	-0.055886	-0.000003
H118	H	1.411471	0.444114	0.499997
H119	H	1.263558	0.106930	-0.000005
H120	H	1.763558	0.606930	0.499995
Cl121	Cl	1.638239	-0.206456	0.402390
Cl122	Cl	2.138239	0.293544	0.902390
Cl123	Cl	1.046694	-0.026469	0.000011
Cl124	Cl	1.546694	0.473531	0.500011
H125	H	1.355699	-0.037767	0.775531
H126	H	1.855699	0.462233	1.275531
Cl127	Cl	1.289160	0.001835	0.205081
Cl128	Cl	1.789160	0.501835	0.705081
H129	H	1.672878	0.138659	0.000019
H130	H	2.172878	0.638659	0.500019
H131	H	1.615357	-0.192847	0.224471
H132	H	2.115357	0.307153	0.724471
