data_functionalizedCrystal
_audit_creation_method	'MofGen! by Chris Wilmer'
_symmetry_space_group_name_H-M	'P1'
_symmetry_Int_Tables_number	1
_symmetry_cell_setting	triclinic
loop_
_symmetry_equiv_pos_as_xyz
  x,y,z
_cell_length_a	10.654546
_cell_length_b	13.930277
_cell_length_c	10.654550
_cell_angle_alpha	89.996642
_cell_angle_beta	84.484213
_cell_angle_gamma	89.985189
loop_
_atom_site_label
_atom_site_type_symbol
_atom_site_fract_x
_atom_site_fract_y
_atom_site_fract_z
O1	O	-1.667849	0.079998	-0.176378
O2	O	-1.302370	0.079962	-0.193188
O3	O	-1.493512	0.079977	-0.002044
O4	O	-1.476706	0.079983	-0.367522
O5	O	-1.493486	-0.079684	-0.002039
O6	O	-1.302343	-0.079699	-0.193184
O7	O	-1.667822	-0.079664	-0.176373
Zn8	Zn	-1.485078	-0.105031	-0.184778
Zn9	Zn	-1.485114	0.105330	-0.184784
O10	O	-1.476679	-0.079679	-0.367518
C11	C	-1.255558	0.000127	-0.191953
C12	C	-1.116115	0.000113	-0.188262
N13	N	-1.485063	-0.248598	-0.184773
C14	C	-1.036629	0.000125	-0.300805
C15	C	-0.905608	0.000134	-0.297330
C16	C	-0.933571	0.000125	-0.068760
C17	C	-1.064590	0.000108	-0.072236
C18	C	-1.020483	0.000135	-0.432768
C19	C	-0.889462	0.000144	-0.429293
C20	C	-1.400472	-0.700874	-0.269389
C21	C	-1.569790	-0.700830	-0.100169
C22	C	-1.569775	-0.600334	-0.100165
C23	C	-1.485108	-0.550103	-0.184775
C24	C	-1.400457	-0.600368	-0.269390
C25	C	-1.654433	-0.550061	-0.015560
C26	C	-1.654422	-0.449559	-0.015554
C27	C	-1.569749	-0.399327	-0.100159
C28	C	-1.485093	-0.449598	-0.184776
C29	C	-1.400427	-0.399368	-0.269387
C30	C	-1.315764	-0.449637	-0.353999
C31	C	-1.315784	-0.550136	-0.353996
C32	C	-1.569730	-0.298828	-0.100163
C33	C	-1.400412	-0.298863	-0.269388
C34	C	-0.714633	0.000160	-0.177612
C35	C	-0.854075	0.000139	-0.181311
C36	C	-1.492265	0.000147	0.044757
C37	C	-1.488573	0.000150	0.184200
N38	N	-1.485138	0.248896	-0.184778
C39	C	-1.477927	0.000153	-0.414318
C40	C	-1.481619	0.000156	-0.553761
C41	C	-1.601115	0.000159	0.263687
C42	C	-1.597638	0.000165	0.394708
C43	C	-1.369068	0.000151	0.366741
C44	C	-1.372546	0.000152	0.235723
C45	C	-1.733078	0.000162	0.279834
C46	C	-1.729601	0.000169	0.410855
H47	H	-0.891603	0.000135	0.025705
H48	H	-1.056151	0.069070	-0.474788
H49	H	-0.843779	-0.068788	-0.469172
H50	H	-1.049803	-0.066685	-0.484376
H51	H	-0.847741	0.066966	-0.479017
H52	H	-1.331461	-0.257971	-0.338284
O53	O	-1.233504	-0.599076	-0.436013
C54	C	-1.062207	-0.712563	-0.461153
C55	C	-1.155329	-0.657210	-0.368130
H56	H	-0.998961	-0.759562	-0.406305
H57	H	-1.116920	-0.759657	-0.524375
H58	H	-1.001741	-0.659388	-0.521655
H59	H	-1.215818	-0.710315	-0.307544
H60	H	-1.100540	-0.610101	-0.304993
H61	H	-1.129304	0.000085	0.019407
H62	H	-1.779312	-0.066643	0.452617
H63	H	-1.723372	-0.590962	0.053321
H64	H	-1.274603	0.000153	0.408708
H65	H	-1.638666	-0.257903	-0.031278
H66	H	-1.638729	-0.741730	-0.031287
O67	O	-1.736698	-0.400881	0.066762
C68	C	-1.904688	-0.411452	0.234561
C69	C	-1.811563	-0.466701	0.141423
H70	H	-1.965259	-0.464644	0.294931
H71	H	-1.849977	-0.364451	0.297895
H72	H	-1.967831	-0.364349	0.179736
H73	H	-1.748397	-0.513857	0.196145
H74	H	-1.866353	-0.513642	0.078090
H75	H	-1.246834	-0.408728	-0.422895
H76	H	-1.769494	0.069110	0.456496
H77	H	-1.280904	0.000158	0.171008
H78	H	-1.784705	0.066981	0.250475
H79	H	-1.775088	-0.068773	0.244210
H80	H	-1.331537	-0.741805	-0.338276
