data_functionalizedCrystal
_audit_creation_method	'MofGen! by Chris Wilmer'
_symmetry_space_group_name_H-M	'P1'
_symmetry_Int_Tables_number	1
_symmetry_cell_setting	triclinic
loop_
_symmetry_equiv_pos_as_xyz
  x,y,z
_cell_length_a	6.817900
_cell_length_b	17.982968
_cell_length_c	9.582889
_cell_angle_alpha	93.503180
_cell_angle_beta	111.207298
_cell_angle_gamma	102.451960
loop_
_atom_site_label
_atom_site_type_symbol
_atom_site_fract_x
_atom_site_fract_y
_atom_site_fract_z
V1	V	-4.055307	-0.237408	-0.208457
V2	V	-3.555307	0.262592	0.291543
O3	O	-4.001167	-0.233032	0.008575
O4	O	-3.501167	0.266968	0.508575
O5	O	-4.046166	-0.235646	-0.411947
O6	O	-3.546166	0.264354	0.088053
O7	O	-4.001317	-0.341013	-0.205883
O8	O	-3.501317	0.158987	0.294117
O9	O	-4.046326	-0.126936	-0.198916
O10	O	-3.546326	0.373064	0.301084
V11	V	-4.534572	-0.224211	-0.182422
V12	V	-4.034572	0.275789	0.317578
O13	O	-4.325905	-0.266356	-0.265565
O14	O	-3.825905	0.233644	0.234435
O15	O	-4.714171	-0.195264	-0.125314
O16	O	-4.214171	0.304736	0.374686
O17	O	-4.320506	-0.225973	0.021068
O18	O	-3.820506	0.274027	0.521068
O19	O	-4.706108	-0.228587	-0.399454
O20	O	-4.206108	0.271413	0.100546
O21	O	-4.660949	-0.334683	-0.191963
O22	O	-4.160949	0.165317	0.308037
O23	O	-4.365354	-0.120607	-0.184996
O24	O	-3.865354	0.379393	0.315004
C25	C	-3.900898	-0.231865	-0.461534
C26	C	-3.400898	0.268135	0.038466
C27	C	-3.974674	-0.231116	-0.627894
C28	C	-3.474674	0.268884	-0.127894
C29	C	-3.843688	-0.366270	-0.198677
C30	C	-3.343688	0.133730	0.301323
C31	C	-3.881089	-0.450967	-0.197919
C32	C	-3.381089	0.049033	0.302081
C33	C	-4.082028	-0.494633	-0.205062
C34	C	-3.582028	0.005367	0.294938
C35	C	-4.117158	-0.574215	-0.204350
C36	C	-3.617158	-0.074215	0.295650
C37	C	-3.951352	-0.610128	-0.196504
C38	C	-3.451352	-0.110128	0.303496
C39	C	-3.750395	-0.566455	-0.189356
C40	C	-3.250395	-0.066455	0.310644
C41	C	-3.715263	-0.486875	-0.190058
C42	C	-3.215263	0.013125	0.309942
C43	C	-3.892076	-0.887394	-0.186522
C44	C	-3.392076	-0.387394	0.313478
C45	C	-3.927227	-0.966981	-0.185825
C46	C	-3.427227	-0.466981	0.314175
C47	C	-4.293971	-0.974734	-0.200813
C48	C	-3.793971	-0.474734	0.299187
C49	C	-4.258838	-0.895153	-0.201516
C50	C	-3.758838	-0.395153	0.298484
C51	C	-4.057882	-0.851487	-0.194359
C52	C	-3.557882	-0.351487	0.305641
C53	C	-4.019791	-0.765196	-0.195130
C54	C	-3.519791	-0.265196	0.304870
C55	C	-3.989446	-0.696419	-0.195745
C56	C	-3.489446	-0.196419	0.304255
C57	C	-4.129117	-0.229752	0.070647
C58	C	-3.629117	0.270248	0.570647
C59	C	-4.034580	-0.230507	0.237006
C60	C	-3.534580	0.269493	0.737006
C61	C	-4.186327	-0.095345	-0.192207
C62	C	-3.686327	0.404655	0.307793
C63	C	-4.128163	-0.010648	-0.192957
C64	C	-3.628163	0.489352	0.307043
H65	H	-4.217056	-0.465400	-0.211461
H66	H	-3.717056	0.034600	0.288539
C67	C	-4.515022	-1.022773	-0.208665
C68	C	-4.015022	-0.522773	0.291335
N69	N	-4.681514	-1.058955	-0.214580
N70	N	-4.181514	-0.558955	0.285420
H71	H	-4.280774	-0.609764	-0.210158
H72	H	-3.780774	-0.109764	0.289842
H73	H	-3.728476	-0.851854	-0.180748
H74	H	-3.228476	-0.351854	0.319252
H75	H	-3.615392	-0.595702	-0.182959
H76	H	-3.115392	-0.095702	0.317041
H77	H	-3.792195	-0.996218	-0.179432
H78	H	-3.292195	-0.496218	0.320568
C79	C	-4.441237	-0.855653	-0.210139
C80	C	-3.941237	-0.355653	0.289861
N81	N	-4.578620	-0.825901	-0.216624
N82	N	-4.078620	-0.325901	0.283376
H83	H	-3.551623	-0.451319	-0.184204
H84	H	-3.051623	0.048681	0.315796
