data_functionalizedCrystal
_audit_creation_method	'MofGen! by Chris Wilmer'
_symmetry_space_group_name_H-M	'P1'
_symmetry_Int_Tables_number	1
_symmetry_cell_setting	triclinic
loop_
_symmetry_equiv_pos_as_xyz
  x,y,z
_cell_length_a	19.805407
_cell_length_b	12.594516
_cell_length_c	19.805399
_cell_angle_alpha	90.021665
_cell_angle_beta	90.017803
_cell_angle_gamma	90.015489
loop_
_atom_site_label
_atom_site_type_symbol
_atom_site_fract_x
_atom_site_fract_y
_atom_site_fract_z
Zn1	Zn	1.034774	-0.423843	0.382715
Zn2	Zn	1.034706	-0.601836	0.269539
Zn3	Zn	0.921589	-0.423864	0.269544
Zn4	Zn	0.921569	-0.601772	0.382689
O5	O	0.978159	-0.512829	0.326122
O6	O	1.129482	-0.447473	0.367711
O7	O	1.019680	-0.578264	0.174823
O8	O	0.936641	-0.274915	0.284569
O9	O	1.129431	-0.578244	0.284561
O10	O	1.019797	-0.274900	0.367716
O11	O	0.936574	-0.447508	0.174826
O12	O	0.826870	-0.447445	0.284544
O13	O	0.936606	-0.578133	0.477409
O14	O	0.826855	-0.578153	0.367671
O15	O	1.019778	-0.447410	0.477429
O16	O	1.019660	-0.750774	0.284536
O17	O	0.936539	-0.750726	0.367667
C18	C	0.802303	-0.512795	0.326105
C19	C	0.727071	-0.512807	0.326114
C20	C	0.691754	-0.444835	0.369477
C21	C	0.621066	-0.444840	0.369479
C22	C	0.585696	-0.512824	0.326123
C23	C	0.621018	-0.580799	0.282756
C24	C	0.691705	-0.580787	0.282750
C25	C	0.335945	-0.580847	0.282776
C26	C	0.265253	-0.580856	0.282787
C27	C	0.265305	-0.444900	0.369505
C28	C	0.335993	-0.444888	0.369500
C29	C	0.371308	-0.512859	0.326131
C30	C	0.447957	-0.512850	0.326128
C31	C	0.509049	-0.512839	0.326129
C32	C	0.978109	-0.789370	0.326113
C33	C	0.978149	-0.907675	0.326131
C34	C	0.932976	-1.047705	0.371323
C35	C	0.994681	-0.976800	0.387928
C36	C	0.916450	-0.977008	0.309556
C37	C	1.039997	-1.047556	0.342794
C38	C	0.961724	-1.047770	0.264392
C39	C	1.023472	-0.976898	0.280974
C40	C	1.154702	-0.512863	0.326139
C41	C	1.229934	-0.512878	0.326146
C42	C	0.978197	-0.512762	0.502665
C43	C	0.978214	-0.512733	0.577897
C44	C	0.978229	-0.235208	0.326146
C45	C	0.978259	-0.116902	0.326156
C46	C	0.978161	-0.512819	0.150266
C47	C	0.978276	-0.512547	0.075034
C48	C	1.021522	-0.444662	0.613252
C49	C	1.021529	-0.444631	0.683940
C50	C	0.978230	-0.512678	0.719272
C51	C	0.934917	-0.580752	0.683912
C52	C	0.934907	-0.580776	0.613225
C53	C	0.934955	-0.580652	0.968985
C54	C	0.934970	-0.580625	1.039678
C55	C	1.021577	-0.444507	1.039701
C56	C	1.021567	-0.444532	0.969014
C57	C	0.978252	-0.512602	0.933660
C58	C	0.978244	-0.512633	0.857011
C59	C	0.978241	-0.512652	0.795919
H60	H	0.236543	-0.389551	0.404816
O61	O	1.069107	-0.940165	0.235309
C62	C	1.052175	-0.977904	0.170445
H63	H	1.020284	-1.052873	0.175320
H64	H	1.100310	-0.996815	0.141277
H65	H	1.022242	-0.914543	0.142285
H66	H	1.008624	-0.945630	0.440150
O67	O	0.944953	-1.084946	0.202132
C68	C	0.879784	-1.049047	0.184830
H69	H	0.850543	-1.029172	0.232764
H70	H	0.852074	-1.113915	0.155748
H71	H	0.884037	-0.975028	0.151988
H72	H	0.899695	-0.636094	0.940209
O73	O	1.063595	-0.378516	0.934589
C74	C	1.054282	-0.393108	0.864617
H75	H	1.032107	-0.475257	0.854948
H76	H	1.104974	-0.385879	0.837754
H77	H	1.018235	-0.329988	0.844567
O78	O	1.063653	-0.378711	0.578902
C79	C	1.107339	-0.439324	0.538000
H80	H	1.111507	-0.523147	0.559294
H81	H	1.159435	-0.400831	0.537210
H82	H	1.086402	-0.443006	0.484425
H83	H	0.899660	-0.636152	0.712685
H84	H	0.592214	-0.636148	0.247450
O85	O	0.854094	-0.940179	0.292883
C86	C	0.806577	-0.976247	0.340657
H87	H	0.826664	-1.050704	0.366477
H88	H	0.756993	-0.995460	0.314071
H89	H	0.797649	-0.911746	0.380054
O90	O	0.887490	-1.084935	0.416976
C91	C	0.921048	-1.147922	0.465310
H92	H	0.970313	-1.178916	0.443023
H93	H	0.887520	-1.217770	0.480013
H94	H	0.932447	-1.098016	0.511979
H95	H	0.364787	-0.389532	0.404808
O96	O	1.063665	-0.378477	0.718180
C97	C	1.101871	-0.318411	0.671837
H98	H	1.104194	-0.362029	0.621446
H99	H	1.155206	-0.307067	0.692271
H100	H	1.077109	-0.237569	0.664321
H101	H	1.056844	-0.389078	1.068495
O102	O	0.892937	-0.646873	1.073924
C103	C	0.907703	-0.752968	1.056655
H104	H	0.933711	-0.755202	1.005334
H105	H	0.858839	-0.800679	1.054227
H106	H	0.942499	-0.788816	1.096439
O107	O	0.726005	-0.378697	0.411618
C108	C	0.679671	-0.318724	0.449902
H109	H	0.629274	-0.314988	0.422185
H110	H	0.700107	-0.234875	0.457213
H111	H	0.672168	-0.357811	0.501266
O112	O	0.586687	-0.378965	0.411639
C113	C	0.545822	-0.439666	0.455303
H114	H	0.535209	-0.520274	0.431339
H115	H	0.496125	-0.396334	0.464430
H116	H	0.573085	-0.451472	0.505445
O117	O	0.892825	-0.647015	0.578983
C118	C	0.854602	-0.707058	0.625324
H119	H	0.882329	-0.710719	0.675719
H120	H	0.847369	-0.790929	0.604893
H121	H	0.803203	-0.668081	0.632831
H122	H	0.720459	-0.636137	0.247440
O123	O	1.102277	-1.084415	0.359722
C124	C	1.097511	-1.146678	0.418677
H125	H	1.050320	-1.123202	0.448043
H126	H	1.144045	-1.133015	0.451444
H127	H	1.094314	-1.234160	0.404218
O128	O	0.230818	-0.646747	0.240631
C129	C	0.189929	-0.586056	0.196980
H130	H	0.179361	-0.505448	0.220945
H131	H	0.140211	-0.629396	0.187869
H132	H	0.217148	-0.574248	0.146829
O133	O	0.370140	-0.646974	0.240629
C134	C	0.323761	-0.706960	0.202354
H135	H	0.273386	-0.710712	0.230083
H136	H	0.344172	-0.790803	0.195038
H137	H	0.316222	-0.667874	0.150993
