data_functionalizedCrystal
_audit_creation_method	'MofGen! by Chris Wilmer'
_symmetry_space_group_name_H-M	'P1'
_symmetry_Int_Tables_number	1
_symmetry_cell_setting	triclinic
loop_
_symmetry_equiv_pos_as_xyz
  x,y,z
_cell_length_a	27.440280
_cell_length_b	27.440280
_cell_length_c	27.440280
_cell_angle_alpha	59.998179
_cell_angle_beta	89.996938
_cell_angle_gamma	60.002656
loop_
_atom_site_label
_atom_site_type_symbol
_atom_site_fract_x
_atom_site_fract_y
_atom_site_fract_z
Zr1	Zr	0.469576	0.533358	-0.064013
O2	O	0.391775	0.635023	-0.141829
O3	O	0.493416	0.431693	-0.040152
O4	O	0.493434	0.533347	-0.141824
O5	O	0.391755	0.533378	0.040036
O6	O	0.573636	0.533339	-0.141827
O7	O	0.391757	0.533369	-0.040158
O8	O	0.573604	0.351499	0.040045
O9	O	0.391787	0.715218	-0.141836
O10	O	0.563450	0.473504	-0.029986
O11	O	0.503595	0.473517	0.029864
O12	O	0.503615	0.593201	-0.089841
O13	O	0.443760	0.593214	-0.029992
Zr14	Zr	0.597486	0.533361	0.063881
Zr15	Zr	0.597489	0.533346	-0.064018
Zr16	Zr	0.469573	0.533374	0.063886
Zr17	Zr	0.469595	0.661261	-0.064025
Zr18	Zr	0.597467	0.405458	0.063892
O19	O	0.573646	0.635026	0.040020
O20	O	0.573651	0.635005	-0.141836
O21	O	0.391770	0.635044	0.040027
O22	O	0.675287	0.431697	0.141697
O23	O	0.675292	0.431675	-0.040159
O24	O	0.493411	0.431715	0.141704
O25	O	0.675307	0.533341	-0.040168
O26	O	0.573628	0.533373	0.141692
O27	O	0.493426	0.533380	0.141695
O28	O	0.675305	0.533351	0.040025
O29	O	0.493461	0.715208	-0.141840
O30	O	0.573602	0.351511	0.141708
O31	O	0.675275	0.351501	0.141704
O32	O	0.675278	0.351489	0.040041
O33	O	0.391784	0.715230	-0.040174
O34	O	0.493458	0.715220	-0.040177
O35	O	0.563447	0.473518	0.089709
O36	O	0.623302	0.473505	0.029859
O37	O	0.563468	0.593202	-0.029996
O38	O	0.503612	0.593215	0.029853
C39	C	0.533508	0.373373	-0.000052
C40	C	0.533500	0.319074	-0.000047
C41	C	0.577713	0.040192	0.044118
C42	C	0.577708	0.091214	0.044120
O43	O	0.615286	0.080038	0.081683
N44	N	0.533525	0.160904	-0.000059
C45	C	0.489349	0.179572	-0.044247
O46	O	0.451768	0.243534	-0.081826
C47	C	0.489357	0.128551	-0.044252
C48	C	0.533539	0.058861	-0.000066
C49	C	0.621892	-0.029495	0.088300
C50	C	0.621897	-0.080513	0.088298
C51	C	0.577723	-0.061844	0.044114
C52	C	0.533544	0.007842	-0.000068
C53	C	0.445184	0.147220	-0.088442
C54	C	0.445196	0.096191	-0.088443
C55	C	0.489378	0.026501	-0.044257
C56	C	0.489374	-0.024507	-0.044253
N57	N	0.533557	-0.094197	-0.000074
C58	C	0.577731	-0.112866	0.044110
C59	C	0.489335	0.286718	-0.044236
C60	C	0.489324	0.337739	-0.044230
C61	C	0.577683	0.249377	0.044138
C62	C	0.577692	0.198355	0.044133
C63	C	0.533518	0.217028	-0.000056
C64	C	0.577737	-0.220005	0.044103
C65	C	0.577736	-0.271024	0.044099
C66	C	0.489379	-0.182657	-0.044270
C67	C	0.489377	-0.131643	-0.044264
C68	C	0.533562	-0.150321	-0.000075
O69	O	0.451817	-0.013383	-0.081798
O70	O	0.615310	-0.176828	0.081677
C71	C	0.373532	0.533375	-0.000060
C72	C	0.319229	0.533381	-0.000058
C73	C	-0.017467	0.533339	-0.044246
C74	C	-0.068485	0.533334	-0.044247
O75	O	-0.094859	0.533304	-0.081807
N76	N	-0.094004	0.533341	-0.000068
C77	C	-0.068499	0.533345	0.044117
O78	O	-0.094890	0.533350	0.081695
C79	C	-0.017480	0.533345	0.044119
C80	C	0.008033	0.533346	-0.000066
C81	C	0.008046	0.533339	-0.088427
C82	C	0.059060	0.533345	-0.088427
C83	C	0.084560	0.533352	-0.044247
C84	C	0.059047	0.533352	-0.000066
C85	C	0.008027	0.533345	0.088306
C86	C	0.059050	0.533344	0.088305
C87	C	0.084563	0.533345	0.044120
C88	C	0.135561	0.533364	0.044115
N89	N	0.161080	0.533358	-0.000064
C90	C	0.135580	0.533352	-0.044244
C91	C	-0.175643	0.533344	0.044109
C92	C	-0.226664	0.533349	0.044105
C93	C	-0.226646	0.533337	-0.044258
C94	C	-0.175626	0.533337	-0.044256
C95	C	-0.150124	0.533338	-0.000069
C96	C	0.242712	0.533365	-0.044242
C97	C	0.293729	0.533374	-0.044239
C98	C	0.293708	0.533383	0.044126
C99	C	0.242694	0.533377	0.044122
C100	C	0.217198	0.533366	-0.000065
O101	O	0.161969	0.533392	0.081657
O102	O	0.161981	0.533338	-0.081811
C103	C	0.693531	0.533344	-0.000072
C104	C	0.747833	0.533339	-0.000074
C105	C	0.533535	0.533341	-0.160049
C106	C	0.533537	0.533334	-0.214345
C107	C	0.533554	0.693347	-0.000080
C108	C	0.533562	0.747645	-0.000085
C109	C	0.564777	0.470868	-0.417809
C110	C	0.564779	0.470864	-0.366787
O111	O	0.591358	0.417726	-0.313827
N112	N	0.533543	0.533344	-0.372513
C113	C	0.502308	0.595832	-0.429267
O114	O	0.475740	0.648975	-0.429453
C115	C	0.502311	0.595835	-0.480288
C116	C	0.533544	0.533351	-0.474557
C117	C	0.596008	0.408389	-0.412080
C118	C	0.596006	0.408393	-0.463099
C119	C	0.564772	0.470876	-0.519847
C120	C	0.533541	0.533355	-0.525576
C121	C	0.471080	0.658322	-0.537040
C122	C	0.471085	0.658320	-0.588062
C123	C	0.502318	0.595836	-0.582331
C124	C	0.502305	0.595842	-0.633342
N125	N	0.533541	0.533362	-0.627615
C126	C	0.564775	0.470879	-0.570868
C127	C	0.502307	0.595820	-0.322117
C128	C	0.502300	0.595818	-0.271097
C129	C	0.564772	0.470850	-0.208620
C130	C	0.564774	0.470853	-0.259641
C131	C	0.533543	0.533340	-0.316390
C132	C	0.564766	0.470892	-0.678014
C133	C	0.564759	0.470902	-0.729040
C134	C	0.502290	0.595870	-0.791512
C135	C	0.502295	0.595860	-0.740490
C136	C	0.533537	0.533366	-0.683740
O137	O	0.475741	0.648952	-0.686321
O138	O	0.591345	0.417744	-0.570693
C139	C	0.533527	0.533379	0.159916
C140	C	0.533525	0.533385	0.214213
C141	C	0.693507	0.373357	-0.000058
C142	C	0.747802	0.319054	-0.000055
C143	C	0.533503	0.373392	0.159930
C144	C	0.533494	0.319100	0.214231
C145	C	0.693503	0.373376	0.159924
C146	C	0.747796	0.319079	0.214224
C147	C	0.373559	0.693344	-0.160057
C148	C	0.319266	0.747641	-0.214356
C149	C	0.373555	0.693362	-0.000074
C150	C	0.319260	0.747666	-0.000077
C151	C	0.533559	0.693328	-0.160063
C152	C	0.533568	0.747620	-0.214364
C153	C	0.742057	0.293551	-0.031298
C154	C	0.793067	0.242535	-0.031307
C155	C	0.849822	0.217017	-0.000070
C156	C	0.855566	0.242525	0.031174
C157	C	0.804556	0.293544	0.031179
C158	C	0.564732	0.293604	0.270976
C159	C	0.564721	0.242599	0.322003
C160	C	0.533475	0.217086	0.316284
C161	C	0.502233	0.242586	0.259533
C162	C	0.502241	0.293594	0.208508
C163	C	0.804542	0.293574	0.208482
C164	C	0.855561	0.242563	0.259497
C165	C	0.849832	0.217055	0.316253
C166	C	0.793081	0.242565	0.321993
C167	C	0.742063	0.293578	0.270979
C168	C	0.262520	0.773152	-0.208615
C169	C	0.211502	0.824179	-0.259630
C170	C	0.217230	0.849689	-0.316386
C171	C	0.273982	0.824176	-0.322126
C172	C	0.324999	0.773154	-0.271111
C173	C	0.325005	0.773173	0.031160
C174	C	0.273995	0.824204	0.031155
C175	C	0.217240	0.849723	-0.000084
C176	C	0.211496	0.824214	-0.031325
C177	C	0.262506	0.773187	-0.031323
C178	C	0.564820	0.773117	-0.208626
C179	C	0.564841	0.824123	-0.259643
C180	C	0.533605	0.849634	-0.316397
C181	C	0.502353	0.824133	-0.322134
C182	C	0.502336	0.773124	-0.271118
H183	H	0.613669	0.141613	0.080113
H184	H	0.476853	0.646740	-0.745158
C185	C	0.786736	0.214480	-0.065673
N186	N	0.781965	0.193349	-0.091555
H187	H	0.657867	-0.044707	0.124280
C188	C	-0.254703	0.533323	-0.092855
N189	N	-0.275836	0.533311	-0.129455
H190	H	0.278683	0.844966	0.056598
H191	H	0.175683	0.891235	-0.357920
H192	H	0.809242	0.314301	0.056624
C193	C	0.149060	0.852283	-0.065676
N194	N	0.102031	0.873420	-0.091543
C195	C	0.467868	0.214511	0.253252
N196	N	0.441988	0.193359	0.248523
H197	H	0.221960	0.533355	-0.080221
C198	C	0.467937	0.664598	-0.853942
N199	N	0.442066	0.716364	-0.900967
H200	H	0.257820	0.752420	-0.056759
H201	H	0.175709	0.891272	-0.000080
C202	C	0.149080	0.852233	-0.253302
N203	N	0.102066	0.873362	-0.248535
C204	C	0.786789	0.214493	0.384431
N205	N	0.782053	0.193343	0.431460
C206	C	0.905960	0.160933	0.372365
N207	N	0.948237	0.118660	0.414627
C208	C	0.533478	0.160968	0.372419
N209	N	0.533486	0.118697	0.414703
H210	H	0.476922	0.844912	-0.368350
H211	H	0.590176	0.314371	0.275644
H212	H	0.590163	0.221842	0.368206
H213	H	0.257845	0.752384	-0.162406
H214	H	0.695849	0.314327	-0.056742
C215	C	0.918002	0.214443	0.065537
N216	N	0.965031	0.193287	0.091423
C217	C	0.467931	0.664566	-0.384541
N218	N	0.442037	0.716345	-0.431556
C219	C	0.467945	0.745092	-0.277440
N220	N	0.442038	0.723983	-0.282206
C221	C	0.810858	0.321627	0.146055
N222	N	0.815619	0.342757	0.099037
C223	C	0.917982	0.214505	0.253170
N224	N	0.964996	0.193371	0.248402
C225	C	0.626347	-0.347685	0.092703
N226	N	0.662963	-0.405424	0.129309
H227	H	0.695860	0.314338	0.275662
H228	H	0.476806	0.314346	0.162306
C229	C	0.280273	0.852239	-0.384563
N230	N	0.285009	0.873373	-0.431592
C231	C	0.599188	0.745059	-0.146200
N232	N	0.625079	0.723926	-0.099183
C233	C	0.440791	-0.162134	-0.092871
N234	N	0.404197	-0.146677	-0.129480
H235	H	0.371203	0.752383	-0.275793
H236	H	-0.012738	0.533344	0.124286
C237	C	0.626339	-0.240561	0.092716
N238	N	0.662944	-0.256045	0.129334
H239	H	0.590289	0.844881	-0.254960
C240	C	0.670514	-0.157170	0.136893
N241	N	0.707140	-0.214907	0.173492
H242	H	0.613652	0.234184	0.080114
C243	C	0.440717	0.414396	-0.092834
N244	N	0.404107	0.472134	-0.129447
H245	H	0.533624	0.891169	-0.357933
H246	H	0.590207	0.420004	-0.631810
C247	C	0.440728	0.307269	-0.092843
N248	N	0.404116	0.322750	-0.129452
C249	C	0.396583	0.223872	-0.137055
N250	N	0.359977	0.281609	-0.173675
H251	H	0.590207	0.419973	-0.254969
C252	C	0.087123	0.533335	-0.137029
N253	N	0.108259	0.533322	-0.173636
H254	H	0.409225	0.111403	-0.124429
H255	H	0.371214	0.752400	0.056603
C256	C	0.630368	0.339655	-0.456785
N257	N	0.656252	0.287877	-0.452025
C258	C	-0.147596	0.533347	0.092721
N259	N	-0.126472	0.533346	0.129336
H260	H	0.453386	-0.074896	-0.080229
H261	H	0.314499	0.533376	-0.080222
H262	H	-0.012711	0.533331	-0.124405
C263	C	0.905929	0.160890	-0.000077
N264	N	0.948187	0.118612	-0.000083
H265	H	-0.247438	0.533359	0.080079
C266	C	0.087099	0.533346	0.136915
N267	N	0.108223	0.533349	0.173527
C268	C	0.214626	0.533382	0.092724
N269	N	0.193492	0.533379	0.129336
C270	C	-0.147563	0.533331	-0.092859
N271	N	-0.126428	0.533323	-0.129467
H272	H	0.590192	0.420018	-0.724366
C273	C	0.630368	0.339646	-0.349660
N274	N	0.656245	0.287865	-0.302647
C275	C	0.599127	0.402117	-0.146187
N276	N	0.624999	0.350350	-0.099163
C277	C	0.321770	0.533386	0.092724
N278	N	0.342911	0.533382	0.129332
H279	H	0.476859	0.646699	-0.275771
C280	C	0.436723	0.727063	-0.650486
N281	N	0.410839	0.778840	-0.697503
C282	C	0.436726	0.727061	-0.543359
N283	N	0.410851	0.778839	-0.548122
