data_functionalizedCrystal
_audit_creation_method	'MofGen! by Chris Wilmer'
_symmetry_space_group_name_H-M	'P1'
_symmetry_Int_Tables_number	1
_symmetry_cell_setting	triclinic
loop_
_symmetry_equiv_pos_as_xyz
  x,y,z
_cell_length_a	16.625546
_cell_length_b	14.908571
_cell_length_c	14.908694
_cell_angle_alpha	96.407528
_cell_angle_beta	93.266239
_cell_angle_gamma	93.281505
loop_
_atom_site_label
_atom_site_type_symbol
_atom_site_fract_x
_atom_site_fract_y
_atom_site_fract_z
Zn1	Zn	-0.424492	-1.413322	-0.591483
Zn2	Zn	-0.551076	-1.404485	-0.440111
Zn3	Zn	-0.408000	-1.253225	-0.431419
Zn4	Zn	-0.551013	-1.261916	-0.582709
O5	O	-0.483645	-1.333237	-0.511431
O6	O	-0.448211	-1.538816	-0.578713
O7	O	-0.525221	-1.377084	-0.312293
O8	O	-0.297360	-1.274523	-0.452687
O9	O	-0.541212	-1.532323	-0.467500
O10	O	-0.309477	-1.392146	-0.570285
O11	O	-0.420103	-1.265954	-0.305907
O12	O	-0.420043	-1.127711	-0.444179
O13	O	-0.541106	-1.289337	-0.710538
O14	O	-0.525114	-1.134097	-0.555331
O15	O	-0.448151	-1.400574	-0.716984
O16	O	-0.663895	-1.385511	-0.458992
O17	O	-0.663849	-1.280767	-0.563759
C18	C	-0.693129	-1.333149	-0.511388
C19	C	-0.782754	-1.333196	-0.511404
C20	C	-0.470782	-1.098061	-0.497860
C21	C	-0.465300	-0.997453	-0.492076
C22	C	-0.496461	-1.346910	-0.747522
C23	C	-0.501922	-1.352737	-0.848131
C24	C	-1.110943	-1.333359	-0.511508
C25	C	-1.019631	-1.333311	-0.511481
C26	C	-0.946851	-1.333277	-0.511456
C27	C	-0.855533	-1.333230	-0.511430
C28	C	-0.273345	-1.333351	-0.511495
C29	C	-0.183728	-1.333399	-0.511522
C30	C	-0.496558	-1.569331	-0.525055
C31	C	-0.502061	-1.669941	-0.530860
C32	C	-0.564561	-0.815088	-0.596794
C33	C	-0.559413	-0.720558	-0.591363
C34	C	-0.449852	-0.713861	-0.475787
C35	C	-0.455001	-0.808391	-0.481218
C36	C	-0.512358	-0.859001	-0.541723
C37	C	-0.517509	-0.953533	-0.547149
C38	C	-0.407945	-0.946834	-0.431579
C39	C	-0.402797	-0.852304	-0.426147
C40	C	-0.402727	-1.247946	-1.030535
C41	C	-0.407855	-1.253418	-1.125066
C42	C	-0.517311	-1.369147	-1.131723
C43	C	-0.512183	-1.363676	-1.037193
C44	C	-0.454888	-1.303074	-0.986602
C45	C	-0.449756	-1.297607	-0.892070
C46	C	-0.559215	-1.413332	-0.898729
C47	C	-0.564343	-1.418803	-0.993259
C48	C	-0.470824	-1.319669	-0.276260
C49	C	-0.465145	-1.314017	-0.175663
H50	H	-0.564214	-0.994738	-0.596414
H51	H	-0.611268	-0.856295	-0.646055
H52	H	-0.601686	-1.458224	-0.862949
Cl53	Cl	-0.625042	-0.665355	-0.660600
H54	H	-0.365381	-1.208527	-1.160832
Cl55	Cl	-0.589343	-1.445312	-1.195337
Cl56	Cl	-0.377741	-0.650222	-0.399744
H57	H	-0.356097	-0.811085	-0.376888
Cl58	Cl	-0.636370	-1.494981	-1.056867
H59	H	-0.365439	-0.982598	-0.386734
H60	H	-0.356068	-1.198610	-0.989344
Cl61	Cl	-0.377727	-1.221425	-0.828472
