data_functionalizedCrystal
_audit_creation_method	'MofGen! by Chris Wilmer'
_symmetry_space_group_name_H-M	'P1'
_symmetry_Int_Tables_number	1
_symmetry_cell_setting	triclinic
loop_
_symmetry_equiv_pos_as_xyz
  x,y,z
_cell_length_a	16.120484
_cell_length_b	14.908750
_cell_length_c	14.908308
_cell_angle_alpha	83.240757
_cell_angle_beta	95.986071
_cell_angle_gamma	90.537334
loop_
_atom_site_label
_atom_site_type_symbol
_atom_site_fract_x
_atom_site_fract_y
_atom_site_fract_z
Zn1	Zn	-0.427134	-1.329313	-0.456654
Zn2	Zn	0.072866	-0.829313	0.043346
Zn3	Zn	-0.558950	-1.330262	-0.312967
Zn4	Zn	-0.058950	-0.830262	0.187033
Zn5	Zn	-0.411957	-1.187573	-0.313174
Zn6	Zn	0.088043	-0.687573	0.186826
Zn7	Zn	-0.558898	-1.170238	-0.473023
Zn8	Zn	-0.058898	-0.670238	0.026977
O9	O	-0.489235	-1.254347	-0.388955
O10	O	0.010765	-0.754347	0.111045
O11	O	-0.450994	-1.455728	-0.430656
O12	O	0.049006	-0.955728	0.069344
O13	O	-0.533122	-1.318986	-0.185964
O14	O	-0.033122	-0.818986	0.314036
O15	O	-0.297310	-1.213232	-0.325443
O16	O	0.202690	-0.713232	0.174557
O17	O	-0.547838	-1.456426	-0.325090
O18	O	-0.047838	-0.956426	0.174910
O19	O	-0.308460	-1.317368	-0.430857
O20	O	0.191540	-0.817368	0.069143
O21	O	-0.425126	-1.214153	-0.186116
O22	O	0.074874	-0.714153	0.313884
O23	O	-0.425075	-1.058984	-0.341316
O24	O	0.074925	-0.558984	0.158684
O25	O	-0.547749	-1.183688	-0.597882
O26	O	-0.047749	-0.683688	-0.097882
O27	O	-0.533032	-1.046248	-0.458756
O28	O	-0.033032	-0.546248	0.041244
O29	O	-0.450943	-1.300559	-0.585856
O30	O	0.049057	-0.800559	-0.085856
O31	O	-0.675604	-1.302178	-0.340963
O32	O	-0.175604	-0.802178	0.159037
O33	O	-0.675565	-1.184609	-0.458555
O34	O	-0.175565	-0.684609	0.041445
C35	C	-0.477402	-1.019871	-0.401835
C36	C	0.022598	-0.519871	0.098165
C37	C	-0.472361	-0.919558	-0.407369
C38	C	0.027639	-0.419558	0.092631
C39	C	-0.705836	-1.241638	-0.401531
C40	C	-0.205836	-0.741638	0.098469
C41	C	-0.798504	-1.236282	-0.406937
C42	C	-0.298504	-0.736282	0.093063
C43	C	-0.414932	-0.777795	-0.470219
C44	C	0.085068	-0.277795	0.029781
C45	C	-0.419662	-0.872048	-0.465024
C46	C	0.080338	-0.372048	0.034976
C47	C	-0.520335	-0.872810	-0.354906
C48	C	-0.020335	-0.372810	0.145094
C49	C	-0.515606	-0.778558	-0.360101
C50	C	-0.015606	-0.278558	0.139899
C51	C	-0.462901	-0.731053	-0.417758
C52	C	0.037099	-0.231053	0.082242
C53	C	-0.458168	-0.636800	-0.422948
C54	C	0.041832	-0.136800	0.077052
C55	C	-0.558845	-0.637563	-0.312835
C56	C	-0.058845	-0.137563	0.187165
C57	C	-0.563575	-0.731816	-0.307640
C58	C	-0.063575	-0.231816	0.192360
C59	C	-0.968172	-1.226508	-0.416826
C60	C	-0.468172	-0.726508	0.083174
C61	C	-1.009467	-1.282346	-0.361089
C62	C	-0.509467	-0.782346	0.138911
C63	C	-1.103875	-1.276907	-0.366591
C64	C	-0.603875	-0.776907	0.133409
C65	C	-0.873754	-1.231945	-0.411325
C66	C	-0.373754	-0.731945	0.088675
C67	C	-0.271791	-1.267128	-0.376347
C68	C	0.228209	-0.767128	0.123653
C69	C	-0.179129	-1.272574	-0.370975
C70	C	0.320871	-0.772574	0.129025
C71	C	-0.501033	-1.240084	-0.625727
C72	C	-0.001033	-0.740084	-0.125727
C73	C	-0.506060	-1.234006	-0.726626
C74	C	-0.006060	-0.734006	-0.226626
C75	C	-0.501106	-0.489739	-0.376017
C76	C	-0.001106	0.010261	0.123983
C77	C	-0.506143	-0.590051	-0.370485
C78	C	-0.006143	-0.090051	0.129515
C79	C	-0.414684	-1.344282	-0.903703
C80	C	0.085316	-0.844282	-0.403703
C81	C	-0.419405	-1.338574	-0.998505
C82	C	0.080595	-0.838574	-0.498505
C83	C	-0.520219	-1.216879	-1.011036
C84	C	-0.020219	-0.716879	-0.511036
C85	C	-0.515498	-1.222587	-0.916233
C86	C	-0.015498	-0.722587	-0.416233
C87	C	-0.462730	-1.286291	-0.862570
C88	C	0.037270	-0.786291	-0.362570
C89	C	-0.458013	-1.292003	-0.767765
C90	C	0.041987	-0.792003	-0.267765
C91	C	-0.558822	-1.170304	-0.780298
C92	C	-0.058822	-0.670304	-0.280298
C93	C	-0.563543	-1.164596	-0.875100
C94	C	-0.063543	-0.664596	-0.375100
C95	C	-0.477425	-1.268609	-0.153096
C96	C	0.022575	-0.768609	0.346904
C97	C	-0.472172	-1.274876	-0.052175
C98	C	0.027828	-0.774876	0.447825
H99	H	-0.415250	-0.598124	-0.469891
H100	H	0.084750	-0.098124	0.030109
H101	H	-0.606487	-0.770506	-0.260699
H102	H	-0.106487	-0.270506	0.239301
H103	H	-0.973917	-1.334234	-0.309238
H104	H	-0.473917	-0.834234	0.190762
H105	H	-0.380279	-1.385794	-1.031992
H106	H	0.119721	-0.885794	-0.531992
O107	O	-0.373189	-0.917481	-0.516083
O108	O	0.126811	-0.417481	-0.016083
C109	C	-0.426390	-0.965723	-0.574368
C110	C	0.073610	-0.465723	-0.074368
H111	H	-0.490907	-0.933151	-0.585236
H112	H	0.009093	-0.433151	-0.085236
H113	H	-0.399875	-0.964349	-0.642478
H114	H	0.100125	-0.464349	-0.142478
H115	H	-0.431406	-1.038675	-0.542523
H116	H	0.068594	-0.538675	-0.042523
H117	H	-0.372010	-0.739118	-0.517157
H118	H	0.127990	-0.239118	-0.017157
O119	O	-1.010700	-1.164630	-0.478595
O120	O	-0.510700	-0.664630	0.021405
C121	C	-1.096860	-1.172919	-0.470408
C122	C	-0.596860	-0.672919	0.029592
H123	H	-1.106651	-1.206095	-0.399425
H124	H	-0.606651	-0.706095	0.100575
H125	H	-1.126980	-1.103073	-0.482110
H126	H	-0.626980	-0.603073	0.017890
H127	H	-1.126619	-1.216291	-0.523066
H128	H	-0.626619	-0.716291	-0.023066
H129	H	-0.563247	-0.911504	-0.307967
H130	H	-0.063247	-0.411504	0.192033
H131	H	-0.415048	-1.343875	-0.724073
H132	H	0.084952	-0.843875	-0.224073
H133	H	-0.371723	-1.396157	-0.860009
H134	H	0.128277	-0.896157	-0.360009
O135	O	-0.571445	-1.155067	-1.063307
O136	O	-0.071445	-0.655067	-0.563307
C137	C	-0.565279	-1.162444	-1.155801
C138	C	-0.065279	-0.662444	-0.655801
H139	H	-0.542146	-1.232920	-1.163338
H140	H	-0.042146	-0.732920	-0.663338
H141	H	-0.629202	-1.150466	-1.195805
H142	H	-0.129202	-0.650466	-0.695805
H143	H	-0.519507	-1.109912	-1.183054
H144	H	-0.019507	-0.609912	-0.683054
H145	H	-0.597947	-1.123086	-0.746798
H146	H	-0.097947	-0.623086	-0.246798
O147	O	-0.605543	-0.592107	-0.262009
O148	O	-0.105543	-0.092107	0.237991
C149	C	-0.659283	-0.531318	-0.319726
C150	C	-0.159283	-0.031318	0.180274
H151	H	-0.669521	-0.555116	-0.389953
H152	H	-0.169521	-0.055116	0.110047
H153	H	-0.721699	-0.528483	-0.290561
H154	H	-0.221699	-0.028483	0.209439
H155	H	-0.630085	-0.461201	-0.325334
H156	H	-0.130085	0.038799	0.174666
O157	O	-0.614897	-1.102840	-0.927272
O158	O	-0.114897	-0.602840	-0.427272
C159	C	-0.674046	-1.147758	-0.982428
C160	C	-0.174046	-0.647758	-0.482428
H161	H	-0.681355	-1.220255	-0.950251
H162	H	-0.181355	-0.720255	-0.450251
H163	H	-0.736613	-1.111288	-0.989022
H164	H	-0.236613	-0.611288	-0.489022
H165	H	-0.652002	-1.148053	-1.052610
H166	H	-0.152002	-0.648053	-0.552610
