data_functionalizedCrystal
_audit_creation_method	'MofGen! by Chris Wilmer'
_symmetry_space_group_name_H-M	'P1'
_symmetry_Int_Tables_number	1
_symmetry_cell_setting	triclinic
loop_
_symmetry_equiv_pos_as_xyz
  x,y,z
_cell_length_a	19.188925
_cell_length_b	19.188930
_cell_length_c	18.266242
_cell_angle_alpha	89.989745
_cell_angle_beta	89.990110
_cell_angle_gamma	83.143665
loop_
_atom_site_label
_atom_site_type_symbol
_atom_site_fract_x
_atom_site_fract_y
_atom_site_fract_z
O1	O	0.926152	0.087149	-0.060905
O2	O	1.426152	0.587149	0.439095
O3	O	0.722840	0.098888	-0.060904
O4	O	1.222840	0.598888	0.439096
O5	O	0.830363	-0.008637	-0.060890
O6	O	1.330363	0.491363	0.439110
O7	O	0.818629	0.194674	-0.060919
O8	O	1.318629	0.694674	0.439081
O9	O	0.830345	-0.008640	0.060872
O10	O	1.330345	0.491360	0.560872
O11	O	0.722822	0.098885	0.060858
O12	O	1.222822	0.598885	0.560858
O13	O	0.926133	0.087146	0.060857
O14	O	1.426133	0.587146	0.560857
Zn15	Zn	0.824475	0.093015	0.080190
Zn16	Zn	1.324475	0.593015	0.580190
Zn17	Zn	0.824499	0.093019	-0.080237
Zn18	Zn	1.324499	0.593019	0.419763
O19	O	0.818610	0.194671	0.060843
O20	O	1.318610	0.694671	0.560843
C21	C	0.696820	0.098507	-0.000023
C22	C	1.196820	0.598507	0.499977
C23	C	0.619315	0.097367	-0.000022
C24	C	1.119315	0.597367	0.499978
C25	C	0.057545	0.152831	-0.000031
C26	C	0.557545	0.652831	0.499969
C27	C	0.130368	0.153908	-0.000035
C28	C	0.630368	0.653908	0.499965
C29	C	0.175302	0.090816	-0.000025
C30	C	0.675302	0.590816	0.499975
C31	C	0.147408	0.026642	-0.000030
C32	C	0.647408	0.526642	0.499970
C33	C	0.074586	0.025568	-0.000033
C34	C	0.574586	0.525568	0.499967
N35	N	0.295973	0.045139	0.041430
N36	N	0.795973	0.545139	0.541430
N37	N	0.365151	0.046164	0.041435
N38	N	0.865151	0.546164	0.541435
C39	C	0.394712	0.094050	-0.000017
C40	C	0.894712	0.594050	0.499983
N41	N	0.352480	0.140883	-0.041464
N42	N	0.852480	0.640883	0.458536
N43	N	0.283297	0.139859	-0.041465
N44	N	0.783297	0.639859	0.458535
C45	C	0.254267	0.091974	-0.000022
C46	C	0.754267	0.591974	0.499978
C47	C	0.501561	0.159386	-0.000022
C48	C	1.001561	0.659386	0.499978
C49	C	0.574385	0.160460	-0.000031
C50	C	1.074385	0.660460	0.499969
C51	C	0.591425	0.033193	-0.000018
C52	C	1.091425	0.533193	0.499982
C53	C	0.518601	0.032121	-0.000016
C54	C	1.018601	0.532121	0.499984
C55	C	0.473673	0.095220	-0.000015
C56	C	0.973673	0.595220	0.499985
C57	C	0.829974	-0.034650	-0.000007
C58	C	1.329974	0.465350	0.499993
C59	C	0.828833	-0.112154	-0.000001
C60	C	1.328833	0.387846	0.499999
C61	C	0.891924	-0.157079	0.000002
C62	C	1.391924	0.342921	0.500002
C63	C	0.890852	-0.229903	-0.000009
C64	C	1.390852	0.270097	0.499991
C65	C	0.826686	-0.257799	-0.000010
C66	C	1.326686	0.242201	0.499990
C67	C	0.763587	-0.212864	-0.000017
C68	C	1.263587	0.287136	0.499983
C69	C	0.764660	-0.140041	-0.000012
C70	C	1.264660	0.359959	0.499988
N71	N	0.777633	-0.365804	0.041429
N72	N	1.277633	0.134196	0.541429
N73	N	0.776617	-0.434982	0.041426
N74	N	1.276617	0.065018	0.541426
C75	C	0.823448	-0.477207	-0.000024
C76	C	1.323448	0.022793	0.499976
N77	N	0.871343	-0.447642	-0.041463
N78	N	1.371343	0.052358	0.458537
N79	N	0.872361	-0.378457	-0.041457
N80	N	1.372361	0.121543	0.458543
C81	C	0.825515	-0.336761	-0.000015
C82	C	1.325515	0.163239	0.499985
C83	C	0.885381	-0.601097	-0.000035
C84	C	1.385381	-0.101097	0.499965
C85	C	0.884307	-0.673922	-0.000051
C86	C	1.384307	-0.173922	0.499949
C87	C	0.757040	-0.656880	-0.000051
C88	C	1.257040	-0.156880	0.499949
C89	C	0.758116	-0.584057	-0.000042
C90	C	1.258116	-0.084057	0.499958
C91	C	0.822289	-0.556170	-0.000031
C92	C	1.322289	-0.056170	0.499969
C93	C	0.952154	0.087527	-0.000026
C94	C	1.452154	0.587527	0.499974
C95	C	1.029658	0.088666	-0.000032
C96	C	1.529658	0.588666	0.499968
C97	C	0.819000	0.220684	-0.000041
C98	C	1.319000	0.720684	0.499959
C99	C	0.820140	0.298188	-0.000053
C100	C	1.320140	0.798188	0.499947
N101	N	0.824463	0.093012	0.189677
N102	N	1.324463	0.593012	0.689677
N103	N	0.824516	0.093016	-0.189724
N104	N	1.324516	0.593016	0.310276
C105	C	0.866673	0.135256	0.227973
C106	C	1.366673	0.635256	0.727973
C107	C	0.866684	0.135254	0.304618
C108	C	1.366684	0.635254	0.804618
C109	C	0.824473	0.093016	0.342964
C110	C	1.324473	0.593016	0.842964
C111	C	0.782262	0.050763	0.304658
C112	C	1.282262	0.550763	0.804658
C113	C	0.782256	0.050761	0.228015
C114	C	1.282256	0.550761	0.728015
N115	N	0.763326	0.091297	0.463317
N116	N	1.263326	0.591297	0.963317
N117	N	0.763332	0.091303	0.536125
N118	N	1.263332	0.591303	1.036125
C119	C	0.824487	0.093019	0.573886
C120	C	1.324487	0.593019	1.073886
N121	N	0.885636	0.094741	0.536088
N122	N	1.385636	0.594741	1.036088
N123	N	0.885629	0.094739	0.463274
N124	N	1.385629	0.594739	0.963274
C125	C	0.824475	0.093013	0.426071
C126	C	1.324475	0.593013	0.926071
C127	C	0.866713	0.135263	0.695290
C128	C	1.366713	0.635263	1.195290
C129	C	0.866726	0.135256	0.771936
C130	C	1.366726	0.635256	1.271936
C131	C	0.782297	0.050769	0.771975
C132	C	1.282297	0.550769	1.271975
C133	C	0.782290	0.050772	0.695330
C134	C	1.282290	0.550772	1.195330
C135	C	0.824497	0.093023	0.656992
C136	C	1.324497	0.593023	1.156992
H137	H	0.628010	-0.018178	-0.000015
H138	H	1.128010	0.481822	0.499985
H139	H	0.597088	0.212713	-0.000036
H140	H	1.097088	0.712713	0.499964
H141	H	0.711342	-0.235581	-0.000019
H142	H	1.211342	0.264419	0.499981
O143	O	0.952187	-0.273484	-0.000100
O144	O	1.452187	0.226516	0.499900
C145	C	1.060627	-0.310359	-0.063189
C146	C	1.560627	0.189641	0.436811
C147	C	0.991201	-0.260955	-0.063170
C148	C	1.491201	0.239045	0.436830
H149	H	1.092182	-0.300257	-0.114183
H150	H	1.592182	0.199743	0.385817
H151	H	1.092253	-0.300246	-0.012262
H152	H	1.592253	0.199754	0.487738
H153	H	1.048816	-0.367190	-0.063157
H154	H	1.548816	0.132810	0.436843
H155	H	1.002948	-0.204106	-0.063228
H156	H	1.502948	0.295894	0.436772
H157	H	0.959595	-0.271129	-0.114093
H158	H	1.459595	0.228871	0.385907
O159	O	0.703306	-0.096497	0.000021
O160	O	1.203306	0.403503	0.500021
C161	C	0.576964	-0.087279	-0.000028
C162	C	1.076964	0.412721	0.499972
C163	C	0.646395	-0.136675	-0.000050
C164	C	1.146395	0.363325	0.499950
H165	H	0.530932	-0.119743	-0.000101
H166	H	1.030932	0.380257	0.499899
H167	H	0.574228	-0.052785	0.050945
H168	H	1.074228	0.447215	0.550945
H169	H	0.574333	-0.052732	-0.050969
H170	H	1.074333	0.447268	0.449031
H171	H	0.649071	-0.171265	0.050856
H172	H	1.149071	0.328735	0.550856
H173	H	0.649101	-0.171120	-0.051057
H174	H	1.149101	0.328880	0.448943
O175	O	0.947776	-0.574118	-0.000069
O176	O	1.447776	-0.074118	0.499931
C177	C	1.073893	-0.598704	-0.000041
C178	C	1.573893	-0.098704	0.499959
C179	C	1.003280	-0.629348	-0.000015
C180	C	1.503280	-0.129348	0.499985
H181	H	1.118786	-0.643343	0.000018
H182	H	1.618786	-0.143343	0.500018
H183	H	1.077627	-0.565051	-0.051008
H184	H	1.577627	-0.065051	0.448992
H185	H	1.077536	-0.565024	0.050907
H186	H	1.577536	-0.065024	0.550907
H187	H	0.999589	-0.663060	-0.050928
H188	H	1.499589	-0.163060	0.449072
H189	H	0.999577	-0.662962	0.050986
H190	H	1.499577	-0.162962	0.550986
H191	H	0.901044	0.169658	0.196763
H192	H	1.401044	0.669658	0.696763
H193	H	0.935686	-0.710500	-0.000053
H194	H	1.435686	-0.210500	0.499947
O195	O	0.907585	0.176337	0.341909
O196	O	1.407585	0.676337	0.841909
C197	C	0.911307	0.270638	0.428385
C198	C	1.411307	0.770638	0.928385
C199	C	0.864908	0.224149	0.386216
C200	C	1.364908	0.724149	0.886216
H201	H	0.876820	0.309315	0.464206
H202	H	1.376820	0.809315	0.964206
H203	H	0.949965	0.236247	0.464318
H204	H	1.449965	0.736247	0.964318
H205	H	0.941489	0.300800	0.387803
H206	H	1.441489	0.800800	0.887803
H207	H	0.834680	0.193979	0.426745
H208	H	1.334680	0.693979	0.926745
H209	H	0.826293	0.258577	0.350273
H210	H	1.326293	0.758577	0.850273
H211	H	0.704794	-0.679592	-0.000055
H212	H	1.204794	-0.179592	0.499945
O213	O	0.741216	0.009722	0.658238
O214	O	1.241216	0.509722	1.158238
C215	C	0.657507	-0.074107	0.666367
C216	C	1.157507	0.425893	1.166367
C217	C	0.703977	-0.027636	0.708464
C218	C	1.203977	0.472364	1.208464
H219	H	0.627399	-0.104334	0.706956
H220	H	1.127399	0.395666	1.206956
H221	H	0.618793	-0.039702	0.630508
H222	H	1.118793	0.460298	1.130508
H223	H	0.691972	-0.112726	0.630464
H224	H	1.191972	0.387274	1.130464
H225	H	0.669569	0.010990	0.744407
H226	H	1.169569	0.510990	1.244407
H227	H	0.742696	-0.062085	0.744277
H228	H	1.242696	0.437915	1.244277
H229	H	0.020968	0.204211	-0.000034
H230	H	0.520968	0.704211	0.499966
H231	H	0.495896	-0.020129	-0.000012
H232	H	0.995896	0.479871	0.499988
H233	H	0.747883	0.016359	0.196834
H234	H	1.247883	0.516359	0.696834
H235	H	0.706740	-0.547478	-0.000041
H236	H	1.206740	-0.047478	0.499959
H237	H	0.464978	0.210765	-0.000022
H238	H	0.964978	0.710765	0.499978
H239	H	0.747894	0.016371	0.335884
H240	H	1.247894	0.516371	0.835884
H241	H	0.901081	0.169666	0.664073
H242	H	1.401081	0.669666	1.164073
H243	H	0.153078	0.206160	-0.000028
H244	H	0.653078	0.706160	0.499972
O245	O	0.191026	-0.034664	-0.000149
O246	O	0.691026	0.465336	0.499851
C247	C	0.227858	-0.143119	-0.063201
C248	C	0.727858	0.356881	0.436799
C249	C	0.178434	-0.073707	-0.063160
C250	C	0.678434	0.426293	0.436840
H251	H	0.217685	-0.174712	-0.114132
H252	H	0.717685	0.325288	0.385868
H253	H	0.284711	-0.131370	-0.063243
H254	H	0.784711	0.368630	0.436757
H255	H	0.217736	-0.174685	-0.012220
H256	H	0.717736	0.325315	0.487780
H257	H	0.188494	-0.042107	-0.114132
H258	H	0.688494	0.457893	0.385868
H259	H	0.121598	-0.085505	-0.063079
H260	H	0.621598	0.414495	0.436921
H261	H	0.944179	-0.134379	0.000009
H262	H	1.444179	0.365621	0.500009
H263	H	0.901103	0.169655	0.803115
H264	H	1.401103	0.669655	1.303115
H265	H	0.051883	-0.026685	-0.000033
H266	H	0.551883	0.473315	0.499967
H267	H	0.747929	0.016376	0.803195
H268	H	1.247929	0.516376	1.303195
