data_functionalizedCrystal
_audit_creation_method	'MofGen! by Chris Wilmer'
_symmetry_space_group_name_H-M	'P1'
_symmetry_Int_Tables_number	1
_symmetry_cell_setting	triclinic
loop_
_symmetry_equiv_pos_as_xyz
  x,y,z
_cell_length_a	6.817900
_cell_length_b	17.982959
_cell_length_c	17.329378
_cell_angle_alpha	92.080851
_cell_angle_beta	103.025558
_cell_angle_gamma	102.451857
loop_
_atom_site_label
_atom_site_type_symbol
_atom_site_fract_x
_atom_site_fract_y
_atom_site_fract_z
V1	V	-4.005912	-0.089822	-0.245309
O2	O	-3.999092	0.020338	-0.240301
O3	O	-3.952503	-0.193511	-0.243956
O4	O	-3.950730	-0.081410	-0.352148
O5	O	-4.000877	-0.092539	-0.131360
V6	V	-4.491068	-0.077476	-0.231640
O7	O	-4.263589	-0.116903	-0.275292
O8	O	-4.683588	-0.050395	-0.201657
O9	O	-4.321270	0.026212	-0.232993
O10	O	-4.615285	-0.187636	-0.236647
O11	O	-4.613499	-0.074760	-0.345589
O12	O	-4.323043	-0.085888	-0.124801
C13	C	-3.796505	-0.219008	-0.240170
C14	C	-3.834079	-0.303729	-0.239776
C15	C	-4.033399	-0.347162	-0.243522
C16	C	-4.068694	-0.426768	-0.243156
C17	C	-3.904664	-0.462938	-0.239039
C18	C	-3.705329	-0.419499	-0.235295
C19	C	-3.670039	-0.339896	-0.235666
C20	C	-3.847644	-0.740530	-0.233798
C21	C	-3.882949	-0.820139	-0.233424
C22	C	-4.246298	-0.827402	-0.241288
C23	C	-4.211009	-0.747798	-0.241659
C24	C	-4.011680	-0.704367	-0.237919
C25	C	-3.973412	-0.618050	-0.238318
C26	C	-3.942926	-0.549253	-0.238635
C27	C	-3.794243	-0.076012	-0.378179
C28	C	-3.830376	-0.069820	-0.465523
C29	C	-3.883436	-0.135956	-0.517995
C30	C	-3.917395	-0.130137	-0.600064
C31	C	-3.898279	-0.058182	-0.629659
C32	C	-3.845220	0.007958	-0.577180
C33	C	-3.811276	0.002139	-0.495113
C34	C	-3.998975	-0.037157	-0.876876
C35	C	-4.032918	-0.031342	-0.958949
C36	C	-4.105095	-0.169438	-0.981827
C37	C	-4.071135	-0.175251	-0.899757
C38	C	-4.018090	-0.109111	-0.847286
C39	C	-3.932984	-0.052233	-0.713546
C40	C	-3.983401	-0.115061	-0.763401
C41	C	-4.140610	0.051705	-0.236777
C42	C	-4.082274	0.136426	-0.237176
C43	C	-4.142873	-0.091290	-0.098766
C44	C	-4.085978	-0.097477	-0.011421
H45	H	-3.749366	-0.849586	-0.230077
H46	H	-4.166972	-0.317718	-0.246867
H47	H	-4.408605	-0.862773	-0.244334
Br48	Br	-3.739315	0.091896	-0.423900
H49	H	-3.998973	-0.173647	-0.739302
H50	H	-3.917417	0.006354	-0.737651
Br51	Br	-3.819288	0.105612	-0.617344
H52	H	-3.571778	-0.448955	-0.231947
Br53	Br	-4.339209	-0.485710	-0.248241
H54	H	-4.148290	-0.223285	-1.024557
Br55	Br	-3.577129	-0.681597	-0.228718
H56	H	-4.344581	-0.718353	-0.245008
H57	H	-3.507737	-0.304533	-0.232619
Br58	Br	-3.989419	-0.219897	-0.671274
Br59	Br	-3.909361	-0.233613	-0.477839
H60	H	-3.955784	0.016700	-0.834163
H61	H	-4.086713	-0.233844	-0.875668
Br62	Br	-4.006969	0.066318	-0.999112
