data_functionalizedCrystal
_audit_creation_method	'MofGen! by Chris Wilmer'
_symmetry_space_group_name_H-M	'P1'
_symmetry_Int_Tables_number	1
_symmetry_cell_setting	triclinic
loop_
_symmetry_equiv_pos_as_xyz
  x,y,z
_cell_length_a	14.908571
_cell_length_b	13.897448
_cell_length_c	14.908694
_cell_angle_alpha	93.268807
_cell_angle_beta	83.592472
_cell_angle_gamma	86.713891
loop_
_atom_site_label
_atom_site_type_symbol
_atom_site_fract_x
_atom_site_fract_y
_atom_site_fract_z
Zn1	Zn	1.413363	-0.507824	-0.591509
Zn2	Zn	1.746697	-0.174491	-0.258176
Zn3	Zn	2.080030	0.158842	0.075158
Zn4	Zn	1.404538	-0.659258	-0.440145
Zn5	Zn	1.737871	-0.325925	-0.106811
Zn6	Zn	2.071205	0.007408	0.226522
Zn7	Zn	1.253264	-0.488095	-0.431444
Zn8	Zn	1.586598	-0.154761	-0.098111
Zn9	Zn	1.919931	0.178572	0.235222
Zn10	Zn	1.261970	-0.659183	-0.582743
Zn11	Zn	1.595303	-0.325850	-0.249410
Zn12	Zn	1.928636	0.007483	0.083924
O13	O	1.333284	-0.578590	-0.511460
O14	O	1.666617	-0.245257	-0.178127
O15	O	1.999950	0.088076	0.155206
O16	O	1.538860	-0.536201	-0.578740
O17	O	1.872193	-0.202867	-0.245407
O18	O	2.205526	0.130466	0.087927
O19	O	1.377134	-0.628328	-0.312325
O20	O	1.710468	-0.294994	0.021008
O21	O	2.043801	0.038339	0.354342
O22	O	1.274552	-0.355735	-0.452705
O23	O	1.607885	-0.022402	-0.119371
O24	O	1.941219	0.310932	0.213962
O25	O	1.532376	-0.647459	-0.467533
O26	O	1.865709	-0.314125	-0.134200
O27	O	2.199042	0.019208	0.199133
O28	O	1.392176	-0.370230	-0.570304
O29	O	1.725509	-0.036897	-0.236970
O30	O	2.058843	0.296436	0.096363
O31	O	1.265994	-0.502574	-0.305933
O32	O	1.599328	-0.169241	0.027401
O33	O	1.932661	0.164092	0.360734
O34	O	1.127752	-0.502502	-0.444205
O35	O	1.461085	-0.169169	-0.110871
O36	O	1.794418	0.164165	0.222462
O37	O	1.289389	-0.647331	-0.710571
O38	O	1.622722	-0.313998	-0.377238
O39	O	1.956056	0.019336	-0.043905
O40	O	1.134148	-0.628200	-0.555363
O41	O	1.467481	-0.294867	-0.222030
O42	O	1.800814	0.038467	0.111304
O43	O	1.400617	-0.536128	-0.717012
O44	O	1.733950	-0.202795	-0.383678
O45	O	2.067284	0.130539	-0.050345
O46	O	1.385576	-0.794225	-0.459033
O47	O	1.718909	-0.460892	-0.125700
O48	O	2.052242	-0.127559	0.207634
O49	O	1.280831	-0.794170	-0.563799
O50	O	1.614165	-0.460837	-0.230466
O51	O	1.947498	-0.127504	0.102867
C52	C	1.098106	-0.563203	-0.497889
C53	C	1.431440	-0.229869	-0.164556
C54	C	1.764773	0.103464	0.168778
C55	C	0.997498	-0.556644	-0.492105
C56	C	1.330831	-0.223311	-0.158771
C57	C	1.664164	0.110022	0.174562
C58	C	0.815142	-0.675391	-0.596829
C59	C	1.148476	-0.342058	-0.263496
C60	C	1.481809	-0.008725	0.069838
C61	C	0.720612	-0.669232	-0.591397
C62	C	1.053945	-0.335899	-0.258064
C63	C	1.387279	-0.002566	0.075270
C64	C	0.713904	-0.538164	-0.475814
C65	C	1.047238	-0.204830	-0.142481
C66	C	1.380571	0.128503	0.190852
C67	C	0.808435	-0.544323	-0.481246
C68	C	1.141768	-0.210989	-0.147913
C69	C	1.475102	0.122344	0.185420
C70	C	0.859051	-0.612940	-0.541755
C71	C	1.192384	-0.279606	-0.208421
C72	C	1.525717	0.053727	0.124912
C73	C	0.953583	-0.619102	-0.547181
C74	C	1.286916	-0.285769	-0.213848
C75	C	1.620250	0.047564	0.119486
C76	C	0.946874	-0.488030	-0.431604
C77	C	1.280207	-0.154697	-0.098270
C78	C	1.613541	0.178637	0.235063
C79	C	0.852343	-0.481871	-0.426172
C80	C	1.185677	-0.148538	-0.092839
C81	C	1.519010	0.184796	0.240495
C82	C	1.333216	-0.829199	-0.511430
C83	C	1.666550	-0.495865	-0.178097
C84	C	1.999883	-0.162532	0.155236
C85	C	1.333272	-0.936417	-0.511452
C86	C	1.666605	-0.603084	-0.178119
C87	C	1.999938	-0.269751	0.155214
C88	C	1.333370	-1.132722	-0.511515
C89	C	1.666703	-0.799389	-0.178181
C90	C	2.000037	-0.466056	0.155152
C91	C	1.333313	-1.023484	-0.511483
C92	C	1.666646	-0.690151	-0.178149
C93	C	1.999980	-0.356818	0.155184
C94	C	1.569380	-0.594039	-0.525085
C95	C	1.902713	-0.260705	-0.191752
C96	C	2.236046	0.072628	0.141582
C97	C	1.669989	-0.600622	-0.530891
C98	C	2.003323	-0.267289	-0.197558
C99	C	2.336656	0.066045	0.135776
C100	C	1.346959	-0.593922	-0.747553
C101	C	1.680292	-0.260589	-0.414220
C102	C	2.013625	0.072745	-0.080886
C103	C	1.352786	-0.600455	-0.848161
C104	C	1.686119	-0.267122	-0.514828
C105	C	2.019453	0.066211	-0.181495
C106	C	1.333377	-0.327006	-0.511512
C107	C	1.666711	0.006327	-0.178178
C108	C	2.000044	0.339660	0.155155
C109	C	1.333417	-0.219796	-0.511533
C110	C	1.666751	0.113537	-0.178200
C111	C	2.000084	0.446871	0.155133
C112	C	1.247985	-0.481787	-1.030560
C113	C	1.581318	-0.148454	-0.697227
C114	C	1.914652	0.184880	-0.363893
C115	C	1.253457	-0.487922	-1.125091
C116	C	1.586790	-0.154589	-0.791757
C117	C	1.920124	0.178744	-0.458424
C118	C	1.369197	-0.618865	-1.131755
C119	C	1.702531	-0.285532	-0.798421
C120	C	2.035864	0.047801	-0.465088
C121	C	1.363725	-0.612730	-1.037224
C122	C	1.697058	-0.279397	-0.703891
C123	C	2.030392	0.053937	-0.370557
C124	C	1.303118	-0.544188	-0.986630
C125	C	1.636451	-0.210854	-0.653297
C126	C	1.969785	0.122479	-0.319963
C127	C	1.297651	-0.538048	-0.892098
C128	C	1.630984	-0.204715	-0.558765
C129	C	1.964317	0.128618	-0.225431
C130	C	1.413386	-0.668995	-0.898763
C131	C	1.746719	-0.335662	-0.565430
C132	C	2.080053	-0.002329	-0.232097
C133	C	1.418858	-0.675131	-0.993294
C134	C	1.752191	-0.341797	-0.659961
C135	C	2.085525	-0.008464	-0.326627
C136	C	1.319714	-0.563252	-0.276289
C137	C	1.653048	-0.229919	0.057044
C138	C	1.986381	0.103415	0.390378
C139	C	1.314062	-0.556458	-0.175691
C140	C	1.647396	-0.223125	0.157642
C141	C	1.980729	0.110208	0.490976
H142	H	0.811119	-0.426003	-0.376910
H143	H	1.144452	-0.092669	-0.043577
H144	H	1.477786	0.240664	0.289756
H145	H	0.982634	-0.437179	-0.386756
H146	H	1.315967	-0.103846	-0.053423
H147	H	1.649300	0.229488	0.279911
H148	H	0.684866	-0.720085	-0.636246
H149	H	1.018199	-0.386752	-0.302913
H150	H	1.351532	-0.053419	0.030420
H151	H	1.468200	-0.730939	-1.034500
H152	H	1.801533	-0.397606	-0.701167
H153	H	2.134866	-0.064272	-0.367834
F154	F	1.194774	-0.421510	-1.171841
F155	F	1.528108	-0.088176	-0.838507
F156	F	1.861441	0.245157	-0.505174
H157	H	1.248305	-0.482234	-0.850906
H158	H	1.581638	-0.148900	-0.517572
H159	H	1.914971	0.184433	-0.184239
F160	F	0.660021	-0.465131	-0.411435
F161	F	0.993355	-0.131798	-0.078101
F162	F	1.326688	0.201535	0.255232
H163	H	1.198644	-0.425969	-0.989366
H164	H	1.531978	-0.092635	-0.656033
H165	H	1.865311	0.240698	-0.322699
F166	F	1.433683	-0.691818	-1.185614
F167	F	1.767017	-0.358485	-0.852281
F168	F	2.100350	-0.025151	-0.518948
F169	F	1.472068	-0.735410	-0.852004
F170	F	1.805401	-0.402076	-0.518670
F171	F	2.138734	-0.068743	-0.185337
H172	H	0.994793	-0.674975	-0.596449
H173	H	1.328126	-0.341642	-0.263115
H174	H	1.661460	-0.008309	0.070218
F175	F	0.869013	-0.748426	-0.661217
F176	F	1.202346	-0.415092	-0.327883
F177	F	1.535680	-0.081759	0.005450
