data_functionalizedCrystal
_audit_creation_method	'MofGen! by Chris Wilmer'
_symmetry_space_group_name_H-M	'P1'
_symmetry_Int_Tables_number	1
_symmetry_cell_setting	triclinic
loop_
_symmetry_equiv_pos_as_xyz
  x,y,z
_cell_length_a	14.908571
_cell_length_b	29.839131
_cell_length_c	14.908308
_cell_angle_alpha	86.746001
_cell_angle_beta	89.824947
_cell_angle_gamma	86.730696
loop_
_atom_site_label
_atom_site_type_symbol
_atom_site_fract_x
_atom_site_fract_y
_atom_site_fract_z
Zn1	Zn	1.345180	-0.234441	0.587474
Zn2	Zn	1.353725	-0.305498	0.437082
Zn3	Zn	1.203500	-0.225812	0.428476
Zn4	Zn	1.194753	-0.304964	0.578733
O5	O	1.274290	-0.267679	0.507941
O6	O	1.472138	-0.247701	0.574784
O7	O	1.341034	-0.291539	0.310117
O8	O	1.222378	-0.164093	0.449624
O9	O	1.478416	-0.299906	0.464291
O10	O	1.326470	-0.170433	0.566439
O11	O	1.230664	-0.232995	0.303794
O12	O	1.076515	-0.232477	0.441148
O13	O	1.207471	-0.298997	0.705716
O14	O	1.070090	-0.290630	0.551542
O15	O	1.317989	-0.247183	0.712138
O16	O	1.332553	-0.368290	0.455816
O17	O	1.215757	-0.367898	0.559887
C18	C	1.040678	-0.260560	0.494463
C19	C	0.940736	-0.257525	0.488719
C20	C	0.746301	-0.312463	0.592722
C21	C	0.652397	-0.309614	0.587328
C22	C	0.659022	-0.248975	0.472541
C23	C	0.752926	-0.251825	0.477935
C24	C	0.796562	-0.283570	0.538027
C25	C	0.890468	-0.286421	0.543416
C26	C	0.897091	-0.225781	0.428634
C27	C	0.803187	-0.222932	0.423240
C28	C	1.274157	-0.384395	0.507858
C29	C	1.274181	-0.434330	0.507857
C30	C	1.328473	-0.747247	0.568848
C31	C	1.328568	-0.934924	0.568908
O32	O	1.374598	-0.961967	0.620701
N33	N	1.274437	-0.955128	0.508050
C34	C	1.220274	-0.928409	0.447176
O35	O	1.174227	-0.949900	0.395420
C36	C	1.220175	-0.740733	0.447122
C37	C	1.274316	-0.720532	0.507978
C38	C	1.382609	-0.727046	0.629700
C39	C	1.382589	-0.680129	0.629681
C40	C	1.328432	-0.653414	0.568811
C41	C	1.274296	-0.673615	0.507959
C42	C	1.166008	-0.714015	0.386253
C43	C	1.165986	-0.667093	0.386247
C44	C	1.220128	-0.646892	0.447103
C45	C	1.220119	-0.599983	0.447070
N46	N	1.274250	-0.579779	0.507928
C47	C	1.328406	-0.606495	0.568798
C48	C	1.220331	-1.026942	0.447208
C49	C	1.220356	-1.073861	0.447221
C50	C	1.328649	-1.080373	0.568953
C51	C	1.328628	-1.033453	0.568936
C52	C	1.274462	-1.006739	0.508066
C53	C	1.328360	-0.507966	0.568754
C54	C	1.328337	-0.461045	0.568727
C55	C	1.220041	-0.454537	0.446998
C56	C	1.220067	-0.501454	0.447021
C57	C	1.274229	-0.528168	0.507906
O58	O	1.174105	-0.572913	0.395310
O59	O	1.374431	-0.584995	0.620560
C60	C	1.328494	-0.794163	0.568867
C61	C	1.274357	-0.814365	0.508015
C62	C	1.220201	-0.787649	0.447145
C63	C	1.274383	-0.861284	0.508028
C64	C	1.328540	-0.887999	0.568898
C65	C	1.382671	-0.867795	0.629756
C66	C	1.382650	-0.820879	0.629737
C67	C	1.166070	-0.807853	0.386287
C68	C	1.166095	-0.854770	0.386310
C69	C	1.220252	-0.881485	0.447180
C70	C	1.508814	-0.274826	0.521472
C71	C	1.608754	-0.277871	0.527238
C72	C	1.260801	-0.273993	0.742464
C73	C	1.255053	-0.276684	0.842403
C74	C	1.274446	-0.150508	0.508046
C75	C	1.274513	-0.100576	0.508091
C76	C	1.287777	-0.261358	0.274334
C77	C	1.293699	-0.258546	0.174405
C78	C	1.359332	-0.227777	1.036888
C79	C	1.353934	-0.230304	1.130791
C80	C	1.238856	-0.284262	1.124111
C81	C	1.244254	-0.281735	1.030209
C82	C	1.304495	-0.253492	0.986601
C83	C	1.309897	-0.250968	0.892697
C84	C	1.194814	-0.304923	0.886019
C85	C	1.189417	-0.307450	0.979922
H86	H	0.623476	-0.223127	0.423623
H87	H	1.426737	-0.804435	0.679292
Cl88	Cl	1.385629	-0.215464	0.837877
H89	H	1.150164	-0.325864	0.845065
Cl90	Cl	1.151962	-0.420944	0.370479
H91	H	1.426770	-0.889555	0.679316
H92	H	0.767645	-0.197084	0.374317
H93	H	0.925996	-0.312271	0.592345
H94	H	1.121968	-0.786105	0.336720
Cl95	Cl	0.801163	-0.352375	0.668255
Cl96	Cl	1.435071	-0.192278	0.982064
H97	H	0.611478	-0.333141	0.631869
Cl98	Cl	1.152303	-1.099251	0.370701
Cl99	Cl	0.960282	-0.189460	0.359862
H100	H	1.372429	-0.444600	0.618283
Cl101	Cl	1.396730	-1.113967	0.645477
Cl102	Cl	1.422875	-0.197974	1.194006
H103	H	1.189811	-0.307256	1.159633
H104	H	1.122009	-0.871213	0.336745
Cl105	Cl	1.113689	-0.342953	1.034752
H106	H	1.372714	-1.017009	0.618491
H107	H	1.426672	-0.663684	0.679238
Cl108	Cl	1.396453	-0.541542	0.645294
H109	H	1.426710	-0.748793	0.679273
H110	H	1.176221	-1.005194	0.397638
Cl111	Cl	1.097936	-0.739398	0.309747
Cl112	Cl	1.097888	-0.633511	0.309719
H113	H	1.175988	-0.517903	0.397460
