data_functionalizedCrystal
_audit_creation_method	'MofGen! by Chris Wilmer'
_symmetry_space_group_name_H-M	'P1'
_symmetry_Int_Tables_number	1
_symmetry_cell_setting	triclinic
loop_
_symmetry_equiv_pos_as_xyz
  x,y,z
_cell_length_a	15.995292
_cell_length_b	11.792241
_cell_length_c	10.868271
_cell_angle_alpha	90.005281
_cell_angle_beta	89.994509
_cell_angle_gamma	96.168984
loop_
_atom_site_label
_atom_site_type_symbol
_atom_site_fract_x
_atom_site_fract_y
_atom_site_fract_z
O1	O	1.111678	-0.145982	-0.102356
O2	O	1.611678	0.354018	0.397644
O3	O	0.867979	-0.164116	-0.102351
O4	O	1.367979	0.335884	0.397649
O5	O	0.995742	0.010173	-0.102345
O6	O	1.495742	0.510173	0.397655
O7	O	0.983915	-0.320271	-0.102362
O8	O	1.483915	0.179729	0.397638
O9	O	0.995732	0.010179	0.102300
O10	O	1.495732	0.510179	0.602300
O11	O	0.867968	-0.164110	0.102293
O12	O	1.367968	0.335890	0.602293
O13	O	1.111668	-0.145975	0.102289
O14	O	1.611668	0.354025	0.602289
Zn15	Zn	0.989816	-0.155041	0.134783
Zn16	Zn	1.489816	0.344959	0.634783
Zn17	Zn	0.989830	-0.155050	-0.134845
Zn18	Zn	1.489830	0.344950	0.365155
O19	O	0.983904	-0.320264	0.102282
O20	O	1.483904	0.179736	0.602282
C21	C	0.836774	-0.163375	-0.000028
C22	C	1.336774	0.336625	0.499972
C23	C	0.743811	-0.161162	-0.000026
C24	C	1.243811	0.338838	0.499974
C25	C	0.406036	-0.153027	-0.000040
C26	C	0.906036	0.346973	0.499960
C27	C	0.429920	-0.278824	-0.000503
C28	C	0.929920	0.221176	0.499497
C29	C	0.526606	-0.281215	-0.000037
C30	C	1.026606	0.218785	0.499963
C31	C	0.573610	-0.157064	-0.000034
C32	C	1.073610	0.342936	0.499966
C33	C	0.544217	-0.094168	0.116828
C34	C	1.044217	0.405832	0.616828
C35	C	0.447420	-0.092653	0.116920
C36	C	0.947420	0.407347	0.616920
C37	C	0.447564	-0.090092	-0.115799
C38	C	0.947564	0.409908	0.384201
C39	C	0.544078	-0.094754	-0.117338
C40	C	1.044078	0.405246	0.382662
C41	C	0.668317	-0.159338	-0.000026
C42	C	1.168317	0.340662	0.499974
C43	C	0.311330	-0.150749	-0.000039
C44	C	0.811330	0.349251	0.499961
C45	C	0.994994	0.052460	-0.000023
C46	C	1.494994	0.552460	0.499977
C47	C	0.992770	0.178455	-0.000024
C48	C	1.492770	0.678455	0.499976
C49	C	1.142872	-0.146716	-0.000037
C50	C	1.642872	0.353284	0.499963
C51	C	1.235835	-0.148929	-0.000047
C52	C	1.735835	0.351071	0.499953
C53	C	0.984652	-0.362552	-0.000042
C54	C	1.484652	0.137448	0.499958
C55	C	0.986876	-0.488546	-0.000049
C56	C	1.486876	0.011454	0.499951
N57	N	0.989813	-0.155034	0.318797
N58	N	1.489813	0.344966	0.818797
C59	C	0.988681	0.409132	-0.000045
C60	C	1.488681	0.909132	0.499955
C61	C	0.990953	0.280766	-0.000034
C62	C	1.490953	0.780766	0.499966
N63	N	0.989840	-0.155048	-0.318859
N64	N	1.489840	0.344952	0.181141
C65	C	0.989826	-0.155048	0.569803
C66	C	1.489826	0.344952	1.069803
C67	C	0.989816	-0.155044	0.430125
C68	C	1.489816	0.344956	0.930125
H69	H	0.545230	-0.330765	0.083872
H70	H	1.045230	0.169235	0.583872
N71	N	0.584904	0.018937	-0.126173
N72	N	1.084904	0.518937	0.373827
N73	N	0.542246	0.101749	-0.126475
N74	N	1.042246	0.601749	0.373525
H75	H	0.571079	0.182049	-0.132703
H76	H	1.071079	0.682049	0.367297
N77	N	0.393793	-0.339335	0.104024
N78	N	0.893793	0.160665	0.604024
N79	N	0.343289	-0.426767	0.089227
N80	N	0.843289	0.073233	0.589227
H81	H	0.317773	-0.469502	0.163051
H82	H	0.817773	0.030498	0.663051
N83	N	0.414027	-0.147290	0.226509
N84	N	0.914027	0.352710	0.726509
N85	N	0.462236	-0.186274	0.302389
N86	N	0.962236	0.313726	0.802389
H87	H	0.438657	-0.224864	0.379790
H88	H	0.938657	0.275136	0.879790
H89	H	0.402148	-0.327315	-0.084310
H90	H	0.902148	0.172685	0.415690
H91	H	0.433151	0.002503	-0.116587
H92	H	0.933151	0.502503	0.383413
N93	N	0.428648	0.023056	0.123586
N94	N	0.928648	0.523056	0.623586
N95	N	0.487015	0.102434	0.128164
N96	N	0.987015	0.602434	0.628164
H97	H	0.473761	0.184152	0.132880
H98	H	0.973761	0.684152	0.632880
N99	N	0.583675	0.020441	0.122271
N100	N	1.083675	0.520441	0.622271
N101	N	0.634021	0.057130	0.039886
N102	N	1.134021	0.557130	0.539886
H103	H	0.661890	0.138073	0.043726
H104	H	1.161890	0.638073	0.543726
H105	H	0.564470	-0.137840	0.203793
H106	H	1.064470	0.362160	0.703793
H107	H	0.545860	-0.330466	-0.083811
H108	H	1.045860	0.169534	0.416189
H109	H	0.419420	-0.129415	-0.204373
H110	H	0.919420	0.370585	0.295627
N111	N	0.567630	-0.152221	-0.225786
N112	N	1.067630	0.347779	0.274214
N113	N	0.606025	-0.238746	-0.216813
N114	N	1.106025	0.261254	0.283187
H115	H	0.622661	-0.279339	-0.293402
H116	H	1.122661	0.220661	0.206598
