data_functionalizedCrystal
_audit_creation_method	'MofGen! by Chris Wilmer'
_symmetry_space_group_name_H-M	'P1'
_symmetry_Int_Tables_number	1
_symmetry_cell_setting	triclinic
loop_
_symmetry_equiv_pos_as_xyz
  x,y,z
_cell_length_a	10.685980
_cell_length_b	25.639239
_cell_length_c	10.686551
_cell_angle_alpha	85.590528
_cell_angle_beta	81.591741
_cell_angle_gamma	94.404956
loop_
_atom_site_label
_atom_site_type_symbol
_atom_site_fract_x
_atom_site_fract_y
_atom_site_fract_z
Zn1	Zn	1.995668	-0.117194	-0.866668
Zn2	Zn	2.495668	0.382806	-0.366668
Zn3	Zn	1.979148	-0.211916	-0.654375
Zn4	Zn	2.479148	0.288084	-0.154375
Zn5	Zn	1.767080	-0.131747	-0.638128
Zn6	Zn	2.267080	0.368253	-0.138128
Zn7	Zn	1.783272	-0.211866	-0.850285
Zn8	Zn	2.283272	0.288134	-0.350285
O9	O	1.881292	-0.168181	-0.752364
O10	O	2.381292	0.331819	-0.252364
O11	O	2.171116	-0.123690	-0.852162
O12	O	2.671116	0.376310	-0.352162
O13	O	1.937327	-0.207393	-0.474586
O14	O	2.437327	0.292607	0.025414
O15	O	1.797540	-0.056645	-0.668501
O16	O	2.297540	0.443355	-0.168501
O17	O	2.158980	-0.193282	-0.696192
O18	O	2.658980	0.306718	-0.196192
O19	O	1.965483	-0.045954	-0.836408
O20	O	2.465483	0.454046	-0.336408
O21	O	1.781522	-0.148493	-0.462649
O22	O	2.281522	0.351507	0.037351
O23	O	1.591588	-0.148444	-0.652615
O24	O	2.091588	0.351556	-0.152615
O25	O	1.825137	-0.193196	-1.030093
O26	O	2.325137	0.306804	-0.530093
O27	O	1.603485	-0.207307	-0.808487
O28	O	2.103485	0.292693	-0.308487
O29	O	1.981183	-0.123641	-1.042129
O30	O	2.481183	0.376359	-0.542129
O31	O	1.953028	-0.285081	-0.680307
O32	O	2.453028	0.214919	-0.180307
O33	O	1.809119	-0.285044	-0.824241
O34	O	2.309119	0.214956	-0.324241
C35	C	1.551477	-0.179449	-0.727011
C36	C	2.051477	0.320551	-0.227011
C37	C	1.410382	-0.184282	-0.716195
C38	C	1.910382	0.315718	-0.216195
C39	C	1.881074	-0.304033	-0.752290
C40	C	2.381074	0.195967	-0.252290
C41	C	1.881100	-0.362145	-0.752309
C42	C	2.381100	0.137855	-0.252309
C43	C	1.956448	-0.722495	-0.677572
C44	C	2.456448	-0.222495	-0.177572
C45	C	1.956499	-0.777097	-0.677593
C46	C	2.456499	-0.277097	-0.177593
O47	O	2.020336	-0.805333	-0.613968
O48	O	2.520336	-0.305333	-0.113968
N49	N	1.881522	-0.804409	-0.752465
N50	N	2.381522	-0.304409	-0.252465
C51	C	1.806499	-0.777116	-0.827332
C52	C	2.306499	-0.277116	-0.327332
O53	O	1.742731	-0.805361	-0.891020
O54	O	2.242731	-0.305361	-0.391020
C55	C	1.806456	-0.722514	-0.827317
C56	C	2.306456	-0.222514	-0.327317
C57	C	1.881429	-0.695206	-0.752430
C58	C	2.381429	-0.195206	-0.252430
C59	C	2.031415	-0.695187	-0.602692
C60	C	2.531415	-0.195187	-0.102692
C61	C	2.031363	-0.640589	-0.602670
C62	C	2.531363	-0.140589	-0.102670
C63	C	1.956343	-0.613299	-0.677527
C64	C	2.456343	-0.113299	-0.177527
C65	C	1.881376	-0.640608	-0.752408
C66	C	2.381376	-0.140608	-0.252408
C67	C	1.731442	-0.695221	-0.902190
C68	C	2.231442	-0.195221	-0.402190
C69	C	1.731406	-0.640616	-0.902169
C70	C	2.231406	-0.140616	-0.402169
C71	C	1.806378	-0.613308	-0.827282
C72	C	2.306378	-0.113308	-0.327282
C73	C	1.806304	-0.558720	-0.827243
C74	C	2.306304	-0.058720	-0.327243
N75	N	1.881281	-0.531408	-0.752371
N76	N	2.381281	-0.031408	-0.252371
C77	C	1.956300	-0.558698	-0.677513
C78	C	2.456300	-0.058698	-0.177513
C79	C	1.806596	-0.891783	-0.827359
C80	C	2.306596	-0.391783	-0.327359
C81	C	1.806631	-0.946383	-0.827367
C82	C	2.306631	-0.446383	-0.327367
C83	C	1.956633	-0.946361	-0.677630
C84	C	2.456633	-0.446361	-0.177630
C85	C	1.956590	-0.891760	-0.677615
C86	C	2.456590	-0.391760	-0.177615
C87	C	1.881573	-0.864471	-0.752486
C88	C	2.381573	-0.364471	-0.252486
C89	C	1.956183	-0.444038	-0.677471
C90	C	2.456183	0.055962	-0.177471
C91	C	1.956120	-0.389435	-0.677451
C92	C	2.456120	0.110565	-0.177451
C93	C	1.806124	-0.389462	-0.827193
C94	C	2.306124	0.110538	-0.327193
C95	C	1.806182	-0.444060	-0.827208
C96	C	2.306182	0.055940	-0.327208
C97	C	1.881221	-0.471346	-0.752344
C98	C	2.381221	0.028654	-0.252344
O99	O	1.742503	-0.530450	-0.890839
O100	O	2.242503	-0.030450	-0.390839
O101	O	2.020071	-0.530445	-0.613848
O102	O	2.520071	-0.030445	-0.113848
C103	C	2.212396	-0.156869	-0.777817
C104	C	2.712396	0.343131	-0.277817
C105	C	2.353493	-0.152048	-0.788663
C106	C	2.853493	0.347952	-0.288663
C107	C	1.906809	-0.156789	-1.083457
C108	C	2.406809	0.343211	-0.583457
C109	C	1.917683	-0.151935	-1.224549
C110	C	2.417683	0.348065	-0.724549
C111	C	1.881548	-0.031796	-0.752469
C112	C	2.381548	0.468204	-0.252469
C113	C	1.881657	0.026323	-0.752514
C114	C	2.381657	0.526323	-0.252514
C115	C	1.855948	-0.179488	-0.422565
C116	C	2.355948	0.320512	0.077435
C117	C	1.845320	-0.184186	-0.281492
C118	C	2.345320	0.315814	0.218508
H119	H	1.412728	-0.120752	-0.858979
H120	H	1.912728	0.379248	-0.358979
H121	H	1.670320	-0.618400	-0.963142
H122	H	2.170320	-0.118400	-0.463142
H123	H	1.745040	-0.367234	-0.888138
H124	H	2.245040	0.132766	-0.388138
H125	H	2.092415	-0.618357	-0.541694
H126	H	2.592415	-0.118357	-0.041694
H127	H	1.745138	-0.466295	-0.888192
H128	H	2.245138	0.033705	-0.388192
H129	H	1.775052	-0.215513	-1.222305
H130	H	2.275052	0.284487	-0.722305
H131	H	1.351139	-0.215577	-0.645866
H132	H	1.851139	0.284423	-0.145866
H133	H	1.987964	-0.120610	-1.283744
H134	H	2.487964	0.379390	-0.783744
H135	H	2.017171	-0.367202	-0.616465
H136	H	2.517171	0.132798	-0.116465
H137	H	1.670385	-0.717447	-0.963164
H138	H	2.170385	-0.217447	-0.463164
H139	H	2.017291	-0.466248	-0.616512
H140	H	2.517291	0.033752	-0.116512
H141	H	2.017640	-0.869528	-0.616636
H142	H	2.517640	-0.369528	-0.116636
H143	H	2.092512	-0.717400	-0.541734
H144	H	2.592512	-0.217400	-0.041734
H145	H	2.017723	-0.968590	-0.616681
H146	H	2.517723	-0.468590	-0.116681
H147	H	1.745569	-0.968614	-0.888335
H148	H	2.245569	-0.468614	-0.388335
H149	H	1.745498	-0.869567	-0.888323
H150	H	2.245498	-0.369567	-0.388323
