data_functionalizedCrystal
_audit_creation_method	'MofGen! by Chris Wilmer'
_symmetry_space_group_name_H-M	'P1'
_symmetry_Int_Tables_number	1
_symmetry_cell_setting	triclinic
loop_
_symmetry_equiv_pos_as_xyz
  x,y,z
_cell_length_a	10.489716
_cell_length_b	10.489716
_cell_length_c	8.965430
_cell_angle_alpha	90.004464
_cell_angle_beta	89.996523
_cell_angle_gamma	84.529136
loop_
_atom_site_label
_atom_site_type_symbol
_atom_site_fract_x
_atom_site_fract_y
_atom_site_fract_z
O1	O	1.694056	0.179811	-0.124013
O2	O	1.322855	0.196737	-0.124017
O3	O	1.516918	0.002674	-0.124020
O4	O	1.499992	0.373875	-0.124010
O5	O	1.516902	0.002686	0.124059
O6	O	1.322838	0.196750	0.124062
O7	O	1.694039	0.179824	0.124066
Cu8	Cu	1.508437	0.188288	0.146716
Cu9	Cu	1.508457	0.188273	-0.146666
O10	O	1.499976	0.373888	0.124069
C11	C	1.275314	0.195472	0.000022
C12	C	1.133684	0.191667	0.000020
C13	C	1.035999	0.310673	0.000019
C14	C	0.958651	0.247794	0.122340
C15	C	0.958674	0.247753	-0.122246
C16	C	1.058201	0.128838	0.122441
C17	C	1.058229	0.128815	-0.122255
C18	C	0.980929	0.065848	0.000096
C19	C	1.515638	-0.044852	0.000015
C20	C	1.511833	-0.186483	0.000001
C21	C	1.630839	-0.284167	0.000016
C22	C	1.567962	-0.361529	-0.122297
C23	C	1.567918	-0.361480	0.122290
C24	C	1.449006	-0.261979	-0.122413
C25	C	1.448980	-0.261925	0.122284
C26	C	1.386015	-0.339237	-0.000059
C27	C	1.741580	0.181089	0.000024
C28	C	1.883210	0.184894	0.000017
C29	C	1.501256	0.421413	0.000031
C30	C	1.505061	0.563044	0.000035
N31	N	1.508433	0.188298	0.353065
N32	N	1.508471	0.188253	-0.353015
C33	C	1.418657	0.278016	0.450372
C34	C	1.534153	0.303817	0.549788
C35	C	1.392986	0.162508	0.549776
C36	C	1.623987	0.214157	0.450292
C37	C	1.482744	0.072798	0.450271
C38	C	1.598323	0.098550	0.549642
H39	H	0.915157	0.298037	0.225754
H40	H	1.460955	-0.024828	0.406525
N41	N	1.693702	0.003362	0.603994
N42	N	1.782136	0.035182	0.685305
H43	H	1.849504	-0.032037	0.723693
H44	H	1.101736	0.078610	-0.225674
N45	N	1.760693	-0.253215	-0.000099
N46	N	1.834241	-0.290959	0.103853
H47	H	1.925950	-0.269099	0.103770
H48	H	1.618206	-0.405033	-0.225704
N49	N	0.950253	-0.064094	0.000160
N50	N	0.887060	-0.104795	-0.104875
H51	H	0.865389	-0.196564	-0.104825
N52	N	1.270488	0.135145	0.604568
N53	N	1.226932	0.032101	0.570883
H54	H	1.140414	0.012785	0.609574
H55	H	0.915192	0.298009	-0.225644
H56	H	1.398803	-0.218676	-0.225933
H57	H	1.398780	-0.218397	0.225695
N58	N	1.066946	0.440528	0.000187
N59	N	1.030769	0.513402	0.105387
H60	H	1.052629	0.605110	0.105516
N61	N	1.112546	0.065863	0.252296
N62	N	1.230816	0.058698	0.273278
H63	H	1.269202	0.014225	0.364988
H64	H	1.282422	-0.363659	-0.000126
H65	H	1.618174	-0.404951	0.225693
H66	H	1.342807	0.353958	0.406785
H67	H	1.555907	0.401474	0.593500
N68	N	1.746523	0.241623	0.395720
N69	N	1.810606	0.162161	0.315073
H70	H	1.897146	0.181560	0.276530
