data_functionalizedCrystal
_audit_creation_method	'MofGen! by Chris Wilmer'
_symmetry_space_group_name_H-M	'P1'
_symmetry_Int_Tables_number	1
_symmetry_cell_setting	triclinic
loop_
_symmetry_equiv_pos_as_xyz
  x,y,z
_cell_length_a	21.295420
_cell_length_b	21.295417
_cell_length_c	17.640968
_cell_angle_alpha	78.765192
_cell_angle_beta	78.774361
_cell_angle_gamma	90.026289
loop_
_atom_site_label
_atom_site_type_symbol
_atom_site_fract_x
_atom_site_fract_y
_atom_site_fract_z
Zn1	Zn	1.034311	-0.178720	-0.446935
Zn2	Zn	1.012930	-0.305278	-0.314737
Zn3	Zn	0.907755	-0.200015	-0.314762
Zn4	Zn	0.928995	-0.283956	-0.446881
O5	O	0.970998	-0.241992	-0.380829
O6	O	1.119566	-0.195519	-0.429411
O7	O	0.981141	-0.309150	-0.204122
O8	O	0.924601	-0.109095	-0.332328
O9	O	1.103857	-0.288501	-0.332286
O10	O	1.017582	-0.093450	-0.429435
O11	O	0.903869	-0.231813	-0.204140
O12	O	0.822481	-0.211138	-0.332275
O13	O	0.960803	-0.252161	-0.557506
O14	O	0.838086	-0.272810	-0.429343
O15	O	1.038178	-0.174844	-0.557546
O16	O	1.001737	-0.390544	-0.332233
O17	O	0.940070	-0.374879	-0.429319
C18	C	0.807442	-0.241972	-0.380806
C19	C	0.737476	-0.241975	-0.380816
C20	C	0.246214	-0.193656	-0.431496
C21	C	0.311956	-0.193652	-0.431496
C22	C	0.336641	-0.242008	-0.380847
C23	C	0.295580	-0.290382	-0.330209
C24	C	0.229840	-0.290389	-0.330216
N25	N	0.428688	-0.257899	-0.311631
N26	N	0.491138	-0.257889	-0.311626
C27	C	0.534712	-0.241991	-0.380824
N28	N	0.513477	-0.226092	-0.450028
N29	N	0.451020	-0.226099	-0.450031
C30	C	0.407925	-0.242006	-0.380834
C31	C	0.647051	-0.193618	-0.431463
C32	C	0.712795	-0.193617	-0.431464
C33	C	0.696417	-0.290346	-0.330170
C34	C	0.630675	-0.290348	-0.330176
C35	C	0.605996	-0.241981	-0.380821
C36	C	0.970908	-0.405551	-0.380785
C37	C	0.970932	-0.475518	-0.380793
C38	C	1.003085	-0.516512	-0.330292
C39	C	1.003118	-0.582251	-0.330310
C40	C	0.970984	-0.606996	-0.380820
C41	C	0.938829	-0.565992	-0.431331
C42	C	0.938802	-0.500253	-0.431317
N43	N	0.916886	-0.709288	-0.386839
N44	N	0.916911	-0.771738	-0.386847
C45	C	0.971061	-0.805063	-0.380865
N46	N	1.025183	-0.773581	-0.374859
N47	N	1.025156	-0.711126	-0.374847
C48	C	0.971009	-0.678278	-0.380841
C49	C	1.003253	-0.917340	-0.330381
C50	C	1.003288	-0.983080	-0.330404
C51	C	0.938992	-0.966820	-0.431421
C52	C	0.938964	-0.901081	-0.431402
C53	C	0.971093	-0.876345	-0.380878
C54	C	1.135191	-0.242013	-0.380852
C55	C	1.205161	-0.242022	-0.380861
C56	C	1.004245	-0.208749	-0.587010
C57	C	1.018413	-0.194582	-0.674872
C58	C	0.971107	-0.077792	-0.380890
C59	C	0.971154	-0.007820	-0.380916
C60	C	0.863607	-0.349270	-0.963737
C61	C	0.876933	-0.335950	-1.046297
C62	C	0.957497	-0.255447	-1.046328
C63	C	0.944176	-0.268758	-0.963766
C64	C	0.897231	-0.315670	-0.922477
C65	C	0.977799	-0.235158	-0.922506
C66	C	0.964481	-0.248470	-0.839952
C67	C	0.917539	-0.295382	-0.798657
C68	C	0.883912	-0.328982	-0.839923
C69	C	1.024747	-0.188249	-0.963797
C70	C	1.058371	-0.154650	-0.922537
C71	C	1.045049	-0.167958	-0.839981
C72	C	0.998108	-0.214870	-0.798687
C73	C	1.078676	-0.134358	-0.798716
C74	C	1.065358	-0.147670	-0.716161
C75	C	0.984789	-0.228182	-0.716132
C76	C	0.937916	-0.275061	-0.175449
C77	C	0.923870	-0.289050	-0.087588
H78	H	0.345388	-0.154264	-0.472728
H79	H	0.716515	-0.329723	-0.288937
O80	O	1.037783	-0.175255	-1.043991
C81	C	1.101077	-0.111946	-1.162474
C82	C	1.086390	-0.126610	-1.071657
H83	H	1.140366	-0.072607	-1.184870
H84	H	1.117763	-0.157058	-1.184919
H85	H	1.055934	-0.095288	-1.184868
H86	H	1.131507	-0.143251	-1.049196
H87	H	1.069677	-0.081484	-1.049266
O88	O	0.222352	-0.146645	-0.480770
C89	C	0.245532	-0.050681	-0.581199
C90	C	0.272644	-0.103889	-0.525449
H91	H	0.286177	-0.016091	-0.617325
H92	H	0.221432	-0.072940	-0.622526
H93	H	0.208899	-0.023594	-0.544972
H94	H	0.309300	-0.130994	-0.561613
H95	H	0.296703	-0.081591	-0.484120
O96	O	0.590877	-0.337359	-0.280907
C97	C	0.581577	-0.433318	-0.180470
C98	C	0.626717	-0.380105	-0.236214
H99	H	0.610537	-0.467900	-0.144333
H100	H	0.544157	-0.411062	-0.139153
H101	H	0.556617	-0.460412	-0.216703
H102	H	0.651721	-0.352993	-0.200045
H103	H	0.664097	-0.402400	-0.277533
H104	H	0.825365	-0.387455	-0.930117
H105	H	1.096595	-0.116456	-0.956166
H106	H	0.746221	-0.154233	-0.472702
O107	O	1.034517	-0.893221	-0.281420
C108	C	1.117808	-0.820661	-0.270867
C109	C	1.082447	-0.847908	-0.326404
H110	H	1.156576	-0.784030	-0.307215
H111	H	1.082288	-0.796552	-0.229502
H112	H	1.140768	-0.861272	-0.234763
H113	H	1.059485	-0.807334	-0.362559
H114	H	1.117995	-0.872035	-0.367716
H115	H	1.116903	-0.096167	-0.832346
H116	H	0.626957	-0.154234	-0.472701
O117	O	0.907872	-0.990910	-0.480529
C118	C	0.916585	-1.047852	-0.587298
C119	C	0.951902	-1.020613	-0.531715
H120	H	0.952169	-1.071861	-0.628706
H121	H	0.877863	-1.084564	-0.551022
H122	H	0.893576	-1.007249	-0.623352
H123	H	0.974949	-1.061172	-0.495649
H124	H	0.990589	-0.983883	-0.568036
O125	O	0.904714	-0.308318	-0.718464
C126	C	0.945924	-0.343642	-0.599986
C127	C	0.960540	-0.329002	-0.690803
H128	H	0.991046	-0.360381	-0.577594
H129	H	0.929310	-0.298510	-0.577544
H130	H	0.906574	-0.382921	-0.577584
H131	H	0.999901	-0.289743	-0.713272
H132	H	0.977117	-0.374165	-0.713191
O133	O	0.939113	-0.273671	-0.675991
C134	C	0.839099	-0.297178	-0.582750
C135	C	0.890768	-0.245596	-0.628168
H136	H	0.800006	-0.274501	-0.544061
H137	H	0.817306	-0.318895	-0.626393
H138	H	0.861763	-0.336340	-0.544128
H139	H	0.868153	-0.206395	-0.666790
H140	H	0.912556	-0.223930	-0.584482
O141	O	0.838391	-0.374644	-0.799834
C142	C	0.803697	-0.485798	-0.774550
C143	C	0.855293	-0.434151	-0.819992
H144	H	0.817338	-0.533919	-0.790843
H145	H	0.799971	-0.489592	-0.708453
H146	H	0.755557	-0.472104	-0.790755
H147	H	0.903461	-0.447807	-0.803853
H148	H	0.858964	-0.430367	-0.886078
H149	H	0.849550	-0.363315	-1.079888
H150	H	1.029249	-0.496374	-0.289154
O151	O	0.189882	-0.337291	-0.280986
C152	C	0.098451	-0.362851	-0.174219
C153	C	0.143649	-0.309671	-0.229935
H154	H	0.061069	-0.340542	-0.132919
H155	H	0.073456	-0.389967	-0.210398
H156	H	0.127401	-0.397424	-0.138056
H157	H	0.114746	-0.275055	-0.266110
H158	H	0.168646	-0.282604	-0.193711
H159	H	0.912618	-0.466874	-0.472442
H160	H	0.995722	-0.217253	-1.079957
O161	O	0.319643	-0.337368	-0.281118
C162	C	0.392064	-0.424105	-0.270287
C163	C	0.364878	-0.370905	-0.325969
H164	H	0.428632	-0.451242	-0.306528
H165	H	0.416234	-0.401837	-0.229027
H166	H	0.351413	-0.458650	-0.234079
H167	H	0.405493	-0.336341	-0.362229
H168	H	0.340691	-0.393216	-0.367177
H169	H	1.029304	-0.615635	-0.289186
H170	H	0.912666	-0.586143	-0.472458
O171	O	0.907667	-0.861350	-0.480476
C172	C	0.843927	-0.852157	-0.580700
C173	C	0.879333	-0.897226	-0.525147
H174	H	0.821022	-0.881143	-0.616843
H175	H	0.805129	-0.827291	-0.544399
H176	H	0.879462	-0.814658	-0.622027
H177	H	0.843847	-0.934761	-0.483809
H178	H	0.918141	-0.922045	-0.561498
O179	O	1.097954	-0.114938	-0.676109
C180	C	1.124534	-0.011933	-0.650906
C181	C	1.087572	-0.048920	-0.696302
H182	H	1.116164	0.041450	-0.667228
H183	H	1.106945	-0.029457	-0.584802
H184	H	1.177899	-0.020410	-0.667123
H185	H	1.034201	-0.040459	-0.680151
H186	H	1.105213	-0.031390	-0.762396
H187	H	1.029475	-1.016457	-0.289282
