data_functionalizedCrystal
_audit_creation_method	'MofGen! by Chris Wilmer'
_symmetry_space_group_name_H-M	'P1'
_symmetry_Int_Tables_number	1
_symmetry_cell_setting	triclinic
loop_
_symmetry_equiv_pos_as_xyz
  x,y,z
_cell_length_a	12.759401
_cell_length_b	12.759399
_cell_length_c	12.759393
_cell_angle_alpha	90.027009
_cell_angle_beta	89.981550
_cell_angle_gamma	89.985383
loop_
_atom_site_label
_atom_site_type_symbol
_atom_site_fract_x
_atom_site_fract_y
_atom_site_fract_z
Zn1	Zn	1.606246	0.418244	-0.594012
Zn2	Zn	1.606139	0.593959	-0.418342
Zn3	Zn	1.430549	0.418292	-0.418350
Zn4	Zn	1.430534	0.593879	-0.593982
O5	O	1.518367	0.506093	-0.506171
O6	O	1.753253	0.441567	-0.570717
O7	O	1.582808	0.570709	-0.271322
O8	O	1.453907	0.271264	-0.441668
O9	O	1.753174	0.570663	-0.441653
O10	O	1.582991	0.271229	-0.570726
O11	O	1.453803	0.441648	-0.271328
O12	O	1.283526	0.441570	-0.441640
O13	O	1.453882	0.570527	-0.741007
O14	O	1.283515	0.570573	-0.570676
O15	O	1.582976	0.441489	-0.741029
O16	O	1.582794	0.740969	-0.441625
O17	O	1.453778	0.740910	-0.570667
C18	C	1.245400	0.506069	-0.506156
C19	C	1.128623	0.506084	-0.506174
C20	C	0.964066	0.439009	-0.573489
C21	C	1.073790	0.438988	-0.573482
C22	C	1.073727	0.573212	-0.438877
C23	C	0.964005	0.573237	-0.438890
C24	C	1.518301	0.779061	-0.506165
C25	C	1.518369	0.895837	-0.506197
C26	C	1.585621	0.950695	-0.439082
C27	C	1.585684	1.060419	-0.439121
C28	C	1.451233	1.060418	-0.573392
C29	C	1.451176	0.950696	-0.573358
C30	C	1.652813	0.895836	-0.371921
C31	C	1.720070	0.950694	-0.304800
C32	C	1.720133	1.060418	-0.304838
C33	C	1.652939	1.115284	-0.371998
C34	C	1.792400	0.506119	-0.506188
C35	C	1.909177	0.506129	-0.506194
C36	C	1.518439	0.505994	-0.780205
C37	C	1.518470	0.505951	-0.896982
C38	C	1.518459	1.232060	-0.506215
C39	C	1.518488	1.115283	-0.506270
C40	C	1.585681	0.573078	-1.061569
C41	C	1.585650	0.573125	-0.951845
C42	C	1.451310	0.438734	-0.951848
C43	C	1.451337	0.438693	-1.061570
C44	C	1.652873	0.640248	-1.116427
C45	C	1.720032	0.707467	-1.061568
C46	C	1.720001	0.707515	-0.951844
C47	C	1.652810	0.640343	-0.896979
C48	C	1.518356	0.506117	-0.233204
C49	C	1.518529	0.505863	-0.116428
H50	H	1.652767	0.806494	-0.371879
C51	C	1.309785	0.827395	-0.587802
C52	C	1.377251	0.890390	-0.647133
H53	H	1.264154	0.790162	-0.633355
H54	H	1.269643	0.870264	-0.542018
H55	H	1.349808	0.779023	-0.547810
H56	H	1.337229	0.938768	-0.687119
H57	H	1.417397	0.847517	-0.692935
H58	H	1.774784	0.906017	-0.250126
C59	C	1.273414	0.387560	-0.918043
C60	C	1.377463	0.364899	-0.891539
H61	H	1.227826	0.341979	-0.880805
H62	H	1.263823	0.377909	-0.991231
H63	H	1.258025	0.458159	-0.900049
H64	H	1.392854	0.294302	-0.909540
H65	H	1.387058	0.374541	-0.818335
H66	H	1.653004	1.204629	-0.372032
H67	H	1.118475	0.384333	-0.628281
C68	C	1.779741	0.767061	-1.229764
C69	C	1.793887	0.781299	-1.121872
H70	H	1.825342	0.812639	-1.266989
H71	H	1.709160	0.782430	-1.247739
H72	H	1.795144	0.696460	-1.247737
H73	H	1.778476	0.851899	-1.103898
H74	H	1.864484	0.765938	-1.103890
C75	C	1.310057	0.424038	-1.184956
C76	C	1.377526	0.364806	-1.121881
H77	H	1.264484	0.378423	-1.222184
H78	H	1.350073	0.464031	-1.233322
H79	H	1.269843	0.469818	-1.142133
H80	H	1.417746	0.319031	-1.164705
H81	H	1.337506	0.324795	-1.073509
H82	H	1.118381	0.627846	-0.384078
H83	H	1.774904	1.105081	-0.250192
C84	C	0.975153	0.306346	-0.706551
C85	C	0.903798	0.365258	-0.647481
H86	H	0.937946	0.260821	-0.752238
H87	H	1.017925	0.266091	-0.660840
H88	H	1.017969	0.352174	-0.746649
H89	H	0.860987	0.319429	-0.607377
H90	H	0.861008	0.405515	-0.693198
C91	C	0.974955	0.705907	-0.305823
C92	C	0.903663	0.647019	-0.364911
H93	H	0.937699	0.751451	-0.260153
H94	H	1.017768	0.746139	-0.351524
H95	H	1.017736	0.660064	-0.265707
H96	H	0.860887	0.692862	-0.405034
H97	H	0.860832	0.606784	-0.319205
H98	H	1.396526	1.105099	-0.628070
C99	C	1.625944	0.740357	-0.739796
C100	C	1.652770	0.640399	-0.776367
H101	H	1.625927	0.740389	-0.665337
H102	H	1.558153	0.758495	-0.764614
H103	H	1.675573	0.789975	-0.764623
H104	H	1.603136	0.590782	-0.751547
H105	H	1.720571	0.622249	-0.751539
H106	H	1.774679	0.762254	-0.907181
C107	C	1.679730	0.540239	-1.273608
C108	C	1.652911	0.640198	-1.237037
H109	H	1.679759	0.540209	-1.348067
H110	H	1.630103	0.490629	-1.248790
H111	H	1.747527	0.522094	-1.248781
H112	H	1.585110	0.658339	-1.261857
H113	H	1.702540	0.689823	-1.261865
