data_functionalizedCrystal
_audit_creation_method	'MofGen! by Chris Wilmer'
_symmetry_space_group_name_H-M	'P1'
_symmetry_Int_Tables_number	1
_symmetry_cell_setting	triclinic
loop_
_symmetry_equiv_pos_as_xyz
  x,y,z
_cell_length_a	18.101395
_cell_length_b	19.077105
_cell_length_c	19.076919
_cell_angle_alpha	89.923776
_cell_angle_beta	92.272317
_cell_angle_gamma	92.272502
loop_
_atom_site_label
_atom_site_type_symbol
_atom_site_fract_x
_atom_site_fract_y
_atom_site_fract_z
Zn1	Zn	-0.358271	-1.058231	-0.440421
Zn2	Zn	-0.108271	-0.808231	-0.190421
Zn3	Zn	0.141729	-0.558231	0.059579
Zn4	Zn	0.391729	-0.308231	0.309579
Zn5	Zn	-0.477344	-1.062857	-0.322915
Zn6	Zn	-0.227344	-0.812857	-0.072915
Zn7	Zn	0.022656	-0.562857	0.177085
Zn8	Zn	0.272656	-0.312857	0.427085
Zn9	Zn	-0.348351	-0.945450	-0.318214
Zn10	Zn	-0.098351	-0.695450	-0.068214
Zn11	Zn	0.151649	-0.445450	0.181786
Zn12	Zn	0.401649	-0.195450	0.431786
Zn13	Zn	-0.476897	-0.940679	-0.435668
Zn14	Zn	-0.226897	-0.690679	-0.185668
Zn15	Zn	0.023103	-0.440679	0.064332
Zn16	Zn	0.273103	-0.190679	0.314332
O17	O	-0.415216	-1.001804	-0.379305
O18	O	-0.165216	-0.751804	-0.129305
O19	O	0.084784	-0.501804	0.120695
O20	O	0.334784	-0.251804	0.370695
O21	O	-0.378405	-1.157176	-0.428790
O22	O	-0.128405	-0.907176	-0.178790
O23	O	0.121595	-0.657176	0.071210
O24	O	0.371595	-0.407176	0.321210
O25	O	-0.456268	-1.051216	-0.223960
O26	O	-0.206268	-0.801216	0.026040
O27	O	0.043732	-0.551216	0.276040
O28	O	0.293732	-0.301216	0.526040
O29	O	-0.246037	-0.960470	-0.334447
O30	O	0.003963	-0.710470	-0.084447
O31	O	0.253963	-0.460470	0.165553
O32	O	0.503963	-0.210470	0.415553
O33	O	-0.465887	-1.160575	-0.342459
O34	O	-0.215887	-0.910575	-0.092459
O35	O	0.034113	-0.660575	0.157541
O36	O	0.284113	-0.410575	0.407541
O37	O	-0.253326	-1.043330	-0.424232
O38	O	-0.003326	-0.793330	-0.174232
O39	O	0.246674	-0.543330	0.075768
O40	O	0.496674	-0.293330	0.325768
O41	O	-0.361497	-0.964957	-0.220507
O42	O	-0.111497	-0.714957	0.029493
O43	O	0.138503	-0.464957	0.279493
O44	O	0.388503	-0.214957	0.529493
O45	O	-0.361064	-0.846486	-0.329838
O46	O	-0.111064	-0.596486	-0.079838
O47	O	0.138936	-0.346486	0.170162
O48	O	0.388936	-0.096486	0.420162
O49	O	-0.465126	-0.952340	-0.534630
O50	O	-0.215126	-0.702340	-0.284630
O51	O	0.034874	-0.452340	-0.034630
O52	O	0.284874	-0.202340	0.215370
O53	O	-0.455506	-0.842981	-0.416131
O54	O	-0.205506	-0.592981	-0.166131
O55	O	0.044494	-0.342981	0.083869
O56	O	0.294494	-0.092981	0.333869
O57	O	-0.377972	-1.038704	-0.538122
O58	O	-0.127972	-0.788704	-0.288122
O59	O	0.122028	-0.538704	-0.038122
O60	O	0.372028	-0.288704	0.211878
O61	O	-0.580914	-1.046590	-0.337850
O62	O	-0.330914	-0.796590	-0.087850
O63	O	-0.080914	-0.546590	0.162150
O64	O	0.169086	-0.296590	0.412150
O65	O	-0.580586	-0.956826	-0.420689
O66	O	-0.330586	-0.706826	-0.170689
O67	O	-0.080586	-0.456826	0.079311
O68	O	0.169414	-0.206826	0.329311
C69	C	-0.407161	-0.819237	-0.371959
C70	C	-0.157161	-0.569237	-0.121959
C71	C	0.092839	-0.319237	0.128041
C72	C	0.342839	-0.069237	0.378041
C73	C	-0.403733	-0.741133	-0.368833
C74	C	-0.153733	-0.491133	-0.118833
C75	C	0.096267	-0.241133	0.131167
C76	C	0.346267	0.008867	0.381167
C77	C	-0.607621	-1.001711	-0.379280
C78	C	-0.357621	-0.751711	-0.129280
C79	C	-0.107621	-0.501711	0.120720
C80	C	0.142379	-0.251711	0.370720
C81	C	-0.689937	-1.001735	-0.379296
C82	C	-0.439937	-0.751735	-0.129296
C83	C	-0.189937	-0.501735	0.120704
C84	C	0.060063	-0.251735	0.370704
C85	C	-0.422606	-0.994474	-0.562585
C86	C	-0.172606	-0.744474	-0.312585
C87	C	0.077394	-0.494474	-0.062585
C88	C	0.327394	-0.244474	0.187415
C89	C	-0.425755	-0.991350	-0.640688
C90	C	-0.175755	-0.741350	-0.390688
C91	C	0.074245	-0.491350	-0.140688
C92	C	0.324245	-0.241350	0.109312
C93	C	-0.989036	-1.001887	-0.379340
C94	C	-0.739036	-0.751887	-0.129340
C95	C	-0.489036	-0.501887	0.120660
C96	C	-0.239036	-0.251887	0.370660
C97	C	-0.957547	-0.945531	-0.431600
C98	C	-0.707547	-0.695531	-0.181600
C99	C	-0.457547	-0.445531	0.068400
C100	C	-0.207547	-0.195531	0.318400
C101	C	-0.871910	-0.945280	-0.431419
C102	C	-0.621910	-0.695280	-0.181419
C103	C	-0.371910	-0.445280	0.068581
C104	C	-0.121910	-0.195280	0.318581
C105	C	-0.840650	-1.001811	-0.379319
C106	C	-0.590650	-0.751811	-0.129319
C107	C	-0.340650	-0.501811	0.120681
C108	C	-0.090650	-0.251811	0.370681
C109	C	-0.867911	-0.984741	-0.304458
C110	C	-0.617911	-0.734741	-0.054458
C111	C	-0.367911	-0.484741	0.195542
C112	C	-0.117911	-0.234741	0.445542
C113	C	-0.953554	-0.984379	-0.304770
C114	C	-0.703554	-0.734379	-0.054770
C115	C	-0.453554	-0.484379	0.195230
C116	C	-0.203554	-0.234379	0.445230
C117	C	-0.961424	-1.075459	-0.401293
C118	C	-0.711424	-0.825459	-0.151293
C119	C	-0.461424	-0.575459	0.098707
C120	C	-0.211424	-0.325459	0.348707
C121	C	-0.875820	-1.074956	-0.402900
C122	C	-0.625820	-0.824956	-0.152900
C123	C	-0.375820	-0.574956	0.097100
C124	C	-0.125820	-0.324956	0.347100
C125	C	-0.756788	-1.001770	-0.379302
C126	C	-0.506788	-0.751770	-0.129302
C127	C	-0.256788	-0.501770	0.120698
C128	C	-0.006788	-0.251770	0.370698
C129	C	-1.072898	-1.001927	-0.379351
C130	C	-0.822898	-0.751927	-0.129351
C131	C	-0.572898	-0.501927	0.120649
C132	C	-0.322898	-0.251927	0.370649
C133	C	-0.222060	-1.001916	-0.379345
C134	C	0.027940	-0.751916	-0.129345
C135	C	0.277940	-0.501916	0.120655
C136	C	0.527940	-0.251916	0.370655
C137	C	-0.139749	-1.001964	-0.379363
C138	C	0.110251	-0.751964	-0.129363
C139	C	0.360251	-0.501964	0.120637
C140	C	0.610251	-0.251964	0.370637
C141	C	-0.423303	-1.185084	-0.386679
C142	C	-0.173303	-0.935084	-0.136679
C143	C	0.076697	-0.685084	0.113321
C144	C	0.326697	-0.435084	0.363321
C145	C	-0.426749	-1.263188	-0.389822
C146	C	-0.176749	-1.013188	-0.139822
C147	C	0.073251	-0.763188	0.110178
C148	C	0.323251	-0.513188	0.360178
C149	C	-0.451363	-0.702636	-0.412222
C150	C	-0.201363	-0.452636	-0.162222
C151	C	0.048637	-0.202636	0.087778
C152	C	0.298637	0.047364	0.337778
C153	C	-0.448133	-0.629249	-0.409288
C154	C	-0.198133	-0.379249	-0.159288
C155	C	0.051867	-0.129249	0.090712
C156	C	0.301867	0.120751	0.340712
C157	C	-0.397276	-0.594361	-0.362962
C158	C	-0.147276	-0.344361	-0.112962
C159	C	0.102724	-0.094361	0.137038
C160	C	0.352724	0.155639	0.387038
C161	C	-0.349642	-0.632863	-0.319571
C162	C	-0.099642	-0.382863	-0.069571
C163	C	0.150358	-0.132863	0.180429
C164	C	0.400358	0.117137	0.430429
C165	C	-0.352869	-0.706248	-0.322509
C166	C	-0.102869	-0.456248	-0.072509
C167	C	0.147131	-0.206248	0.177491
C168	C	0.397131	0.043752	0.427491
C169	C	-0.382341	-0.375075	-0.349369
C170	C	-0.132341	-0.125075	-0.099369
C171	C	0.117659	0.124925	0.150631
C172	C	0.367659	0.374925	0.400631
C173	C	-0.379119	-0.301684	-0.346433
C174	C	-0.129119	-0.051684	-0.096433
C175	C	0.120881	0.198316	0.153567
C176	C	0.370881	0.448316	0.403567
C177	C	-0.477610	-0.298076	-0.436152
C178	C	-0.227610	-0.048076	-0.186152
C179	C	0.022390	0.201924	0.063848
C180	C	0.272390	0.451924	0.313848
C181	C	-0.480836	-0.371463	-0.439082
C182	C	-0.230836	-0.121463	-0.189082
C183	C	0.019164	0.128537	0.060918
C184	C	0.269164	0.378537	0.310918
C185	C	-0.433198	-0.409959	-0.395694
C186	C	-0.183198	-0.159959	-0.145694
C187	C	0.066802	0.090041	0.104306
C188	C	0.316802	0.340041	0.354306
N189	N	-0.393975	-0.519348	-0.359960
N190	N	-0.143975	-0.269348	-0.109960
N191	N	0.106025	-0.019348	0.140040
N192	N	0.356025	0.230652	0.390040
N193	N	-0.436497	-0.484970	-0.398700
N194	N	-0.186497	-0.234970	-0.148700
N195	N	0.063503	0.015030	0.101300
N196	N	0.313503	0.265030	0.351300
C197	C	-0.381860	-1.034846	-0.679200
C198	C	-0.131860	-0.784846	-0.429200
C199	C	0.118140	-0.534846	-0.179200
C200	C	0.368140	-0.284846	0.070800
C201	C	-0.384816	-1.031902	-0.752586
C202	C	-0.134816	-0.781902	-0.502586
C203	C	0.115184	-0.531902	-0.252586
C204	C	0.365184	-0.281902	-0.002586
C205	C	-0.431671	-0.985466	-0.787458
C206	C	-0.181671	-0.735466	-0.537458
C207	C	0.068329	-0.485466	-0.287458
C208	C	0.318329	-0.235466	-0.037458
C209	C	-0.475568	-0.941966	-0.748941
C210	C	-0.225568	-0.691966	-0.498941
C211	C	0.024432	-0.441966	-0.248941
C212	C	0.274432	-0.191966	0.001059
C213	C	-0.472608	-0.944906	-0.675556
C214	C	-0.222608	-0.694906	-0.425556
C215	C	0.027392	-0.444906	-0.175556
C216	C	0.277392	-0.194906	0.074444
C217	C	-0.445387	-0.971847	-1.006740
C218	C	-0.195387	-0.721847	-0.756740
C219	C	0.054613	-0.471847	-0.506740
C220	C	0.304613	-0.221847	-0.256740
C221	C	-0.448346	-0.968911	-1.080130
C222	C	-0.198346	-0.718911	-0.830130
C223	C	0.051654	-0.468911	-0.580130
C224	C	0.301654	-0.218911	-0.330130
C225	C	-0.357593	-1.058847	-1.083770
C226	C	-0.107593	-0.808847	-0.833770
C227	C	0.142407	-0.558847	-0.583770
C228	C	0.392407	-0.308847	-0.333770
C229	C	-0.354640	-1.061786	-1.010384
C230	C	-0.104640	-0.811786	-0.760384
C231	C	0.145360	-0.561786	-0.510384
C232	C	0.395360	-0.311786	-0.260384
C233	C	-0.398533	-1.018283	-0.971872
C234	C	-0.148533	-0.768283	-0.721872
C235	C	0.101467	-0.518283	-0.471872
C236	C	0.351467	-0.268283	-0.221872
N237	N	-0.434696	-0.982458	-0.862471
N238	N	-0.184696	-0.732458	-0.612471
N239	N	0.065304	-0.482458	-0.362471
N240	N	0.315304	-0.232458	-0.112471
N241	N	-0.395505	-1.021289	-0.896861
N242	N	-0.145505	-0.771289	-0.646861
N243	N	0.104495	-0.521289	-0.396861
N244	N	0.354495	-0.271289	-0.146861
C245	C	-0.407803	-1.009146	-0.196739
C246	C	-0.157803	-0.759146	0.053261
C247	C	0.092197	-0.509146	0.303261
C248	C	0.342197	-0.259146	0.553261
C249	C	-0.404451	-1.012406	-0.118642
C250	C	-0.154451	-0.762406	0.131358
C251	C	0.095549	-0.512406	0.381358
C252	C	0.345549	-0.262406	0.631358
H253	H	-0.853628	-0.955615	-0.486834
H254	H	-0.603628	-0.705615	-0.236834
H255	H	-0.353628	-0.455615	0.013166
H256	H	-0.103628	-0.205615	0.263166
Br257	Br	-0.318274	-1.097875	-0.631881
Br258	Br	-0.068274	-0.847875	-0.381881
Br259	Br	0.181726	-0.597875	-0.131881
Br260	Br	0.431726	-0.347875	0.118119
H261	H	-0.492778	-0.731037	-0.449944
H262	H	-0.242778	-0.481037	-0.199944
H263	H	0.007222	-0.231037	0.050056
H264	H	0.257222	0.018963	0.300056
H265	H	-0.321856	-1.094263	-1.115133
H266	H	-0.071856	-0.844263	-0.865133
H267	H	0.178144	-0.594263	-0.615133
H268	H	0.428144	-0.344263	-0.365133
Br269	Br	-1.002272	-1.102367	-0.490988
Br270	Br	-0.752272	-0.852367	-0.240988
Br271	Br	-0.502272	-0.602367	0.009012
Br272	Br	-0.252272	-0.352367	0.259012
Br273	Br	-0.827220	-0.896229	-0.273595
Br274	Br	-0.577220	-0.646229	-0.023595
Br275	Br	-0.327220	-0.396229	0.226405
Br276	Br	-0.077220	-0.146229	0.476405
Br277	Br	-0.539153	-0.878940	-0.796267
Br278	Br	-0.289153	-0.628940	-0.546267
Br279	Br	-0.039153	-0.378940	-0.296267
Br280	Br	0.210847	-0.128940	-0.046267
H281	H	-0.522250	-0.399864	-0.476804
H282	H	-0.272250	-0.149864	-0.226804
H283	H	-0.022250	0.100136	0.023196
H284	H	0.227750	0.350136	0.273196
Br285	Br	-0.512774	-0.577006	-0.468178
Br286	Br	-0.262774	-0.327006	-0.218178
Br287	Br	-0.012774	-0.077006	0.031822
Br288	Br	0.237226	0.172994	0.281822
H289	H	-0.980878	-0.955734	-0.487188
H290	H	-0.730878	-0.705734	-0.237188
H291	H	-0.480878	-0.455734	0.012812
H292	H	-0.230878	-0.205734	0.262812
H293	H	-0.858335	-1.087883	-0.458008
H294	H	-0.608335	-0.837883	-0.208008
H295	H	-0.358335	-0.587883	0.041992
H296	H	-0.108335	-0.337883	0.291992
Br297	Br	-0.280614	-0.585515	-0.256705
Br298	Br	-0.030614	-0.335515	-0.006705
Br299	Br	0.219386	-0.085515	0.243295
Br300	Br	0.469386	0.164485	0.493295
Br301	Br	-0.542260	-0.245829	-0.495029
Br302	Br	-0.292260	0.004171	-0.245029
Br303	Br	-0.042260	0.254171	0.004971
Br304	Br	0.207740	0.504171	0.254971
Br305	Br	-0.988685	-0.855088	-0.407276
Br306	Br	-0.738685	-0.605088	-0.157276
Br307	Br	-0.488685	-0.355088	0.092724
Br308	Br	-0.238685	-0.105088	0.342724
Br309	Br	-0.310103	-0.254336	-0.283550
Br310	Br	-0.060103	-0.004336	-0.033550
Br311	Br	0.189897	0.245664	0.216450
Br312	Br	0.439897	0.495664	0.466450
Br313	Br	-0.511936	-0.905884	-1.127456
Br314	Br	-0.261936	-0.655884	-0.877456
Br315	Br	-0.011936	-0.405884	-0.627456
Br316	Br	0.238064	-0.155884	-0.377456
H317	H	-0.314080	-0.737591	-0.287181
H318	H	-0.064080	-0.487591	-0.037181
H319	H	0.185920	-0.237591	0.212819
H320	H	0.435920	0.012409	0.462819
Br321	Br	-0.317687	-0.427310	-0.290489
Br322	Br	-0.067687	-0.177310	-0.040489
Br323	Br	0.182313	0.072690	0.209511
Br324	Br	0.432313	0.322690	0.459511
Br325	Br	-0.833949	-1.051222	-0.237569
Br326	Br	-0.583949	-0.801222	0.012431
Br327	Br	-0.333949	-0.551222	0.262431
Br328	Br	-0.083949	-0.301222	0.512431
H329	H	-0.349074	-1.067323	-0.783940
H330	H	-0.099074	-0.817323	-0.533940
H331	H	0.150926	-0.567323	-0.283940
H332	H	0.400926	-0.317323	-0.033940
Br333	Br	-0.291051	-1.124811	-0.963062
Br334	Br	-0.041051	-0.874811	-0.713062
Br335	Br	0.208949	-0.624811	-0.463062
Br336	Br	0.458949	-0.374811	-0.213062
Br337	Br	-0.504956	-0.912805	-0.954483
Br338	Br	-0.254956	-0.662805	-0.704483
Br339	Br	-0.004956	-0.412805	-0.454483
Br340	Br	0.245044	-0.162805	-0.204483
H341	H	-0.848550	-0.890687	-0.416642
H342	H	-0.598550	-0.640687	-0.166642
H343	H	-0.348550	-0.390687	0.083358
H344	H	-0.098550	-0.140687	0.333358
H345	H	-0.970551	-0.930687	-0.286519
H346	H	-0.720551	-0.680687	-0.036519
H347	H	-0.470551	-0.430687	0.213481
H348	H	-0.220551	-0.180687	0.463481
Br349	Br	-0.988020	-1.050087	-0.237387
Br350	Br	-0.738020	-0.800087	0.012613
Br351	Br	-0.488020	-0.550087	0.262613
Br352	Br	-0.238020	-0.300087	0.512613
Br353	Br	-0.840756	-1.148249	-0.344485
Br354	Br	-0.590756	-0.898249	-0.094485
Br355	Br	-0.340756	-0.648249	0.155515
Br356	Br	-0.090756	-0.398249	0.405515
H357	H	-0.981841	-1.117410	-0.363267
H358	H	-0.731841	-0.867410	-0.113267
H359	H	-0.481841	-0.617410	0.136733
H360	H	-0.231841	-0.367410	0.386733
H361	H	-0.508344	-0.909480	-0.644200
H362	H	-0.258344	-0.659480	-0.394200
H363	H	-0.008344	-0.409480	-0.144200
H364	H	0.241656	-0.159480	0.105800
