data_functionalizedCrystal
_audit_creation_method	'MofGen! by Chris Wilmer'
_symmetry_space_group_name_H-M	'P1'
_symmetry_Int_Tables_number	1
_symmetry_cell_setting	triclinic
loop_
_symmetry_equiv_pos_as_xyz
  x,y,z
_cell_length_a	12.645331
_cell_length_b	12.645330
_cell_length_c	13.897441
_cell_angle_alpha	90.027301
_cell_angle_beta	90.017415
_cell_angle_gamma	90.018103
loop_
_atom_site_label
_atom_site_type_symbol
_atom_site_fract_x
_atom_site_fract_y
_atom_site_fract_z
Zn1	Zn	1.620725	-0.421994	0.545318
Zn2	Zn	1.620608	-0.599289	0.384029
Zn3	Zn	1.443441	-0.422042	0.384046
Zn4	Zn	1.443421	-0.599217	0.545290
O5	O	1.532049	-0.510636	0.464671
O6	O	1.769057	-0.445523	0.523927
O7	O	1.597067	-0.575827	0.249049
O8	O	1.467016	-0.273688	0.405457
O9	O	1.768971	-0.575781	0.405428
O10	O	1.597265	-0.273653	0.523943
O11	O	1.466903	-0.445604	0.249062
O12	O	1.295092	-0.445534	0.405431
O13	O	1.466981	-0.575658	0.680276
O14	O	1.295077	-0.575704	0.523897
O15	O	1.597246	-0.445453	0.680296
O16	O	1.597047	-0.747627	0.405402
O17	O	1.466868	-0.747574	0.523880
C18	C	1.256619	-0.510617	0.464663
C19	C	1.138789	-0.510635	0.464683
C20	C	1.093934	-0.592665	0.539101
C21	C	0.971374	-0.593002	0.538880
C22	C	0.970837	-0.540478	0.362904
C23	C	1.093435	-0.541057	0.363335
C24	C	1.093643	-0.398588	0.491154
C25	C	0.971037	-0.399207	0.493395
C26	C	1.531972	-0.786065	0.464657
C27	C	1.532036	-0.903895	0.464684
C28	C	1.450478	-1.071470	0.539448
C29	C	1.450061	-0.948911	0.539208
C30	C	1.501791	-0.948494	0.363030
C31	C	1.501294	-1.071093	0.363483
C32	C	1.644336	-1.070983	0.490749
C33	C	1.643648	-0.948376	0.492971
C34	C	1.808554	-0.510655	0.464679
C35	C	1.926384	-0.510663	0.464682
C36	C	1.532124	-0.510542	0.716264
C37	C	1.532156	-0.510502	0.823478
C38	C	1.532156	-0.234130	0.464705
C39	C	1.532201	-0.116300	0.464720
C40	C	1.532035	-0.510652	0.214056
C41	C	1.532208	-0.510394	0.106843
C42	C	1.532185	-0.510430	1.019773
C43	C	1.532166	-0.510473	0.910540
H44	H	0.941320	-0.574402	0.614334
N45	N	1.475298	-1.110432	0.639621
H46	H	1.421926	-1.080750	0.686448
H47	H	1.548586	-1.086423	0.658575
N48	N	1.341044	-1.112394	0.516907
H49	H	1.344175	-1.159848	0.458500
H50	H	1.292361	-1.050833	0.503510
H51	H	1.468983	-0.918753	0.614584
N52	N	1.394345	-0.907953	0.333282
H53	H	1.365107	-0.860710	0.385499
H54	H	1.344969	-0.969697	0.322844
N55	N	1.132084	-0.317641	0.419373
H56	H	1.174065	-0.261241	0.453907
H57	H	1.069387	-0.284218	0.386192
N58	N	1.578122	-0.909880	0.287249
H59	H	1.651996	-0.934165	0.303819
H60	H	1.576262	-0.830085	0.284700
H61	H	1.123451	-0.574279	0.614790
N62	N	1.339950	-0.910172	0.516357
H63	H	1.288972	-0.937018	0.566670
H64	H	1.317977	-0.937252	0.450958
H65	H	1.123106	-0.483864	0.305986
N66	N	1.576709	-1.110392	0.287218
H67	H	1.610126	-1.048071	0.253450
H68	H	1.536719	-1.154748	0.238925
H69	H	1.419322	-1.099786	0.341433
N70	N	1.680906	-1.111831	0.587259
H71	H	1.629039	-1.089536	0.638658
H72	H	1.753007	-1.081754	0.602437
H73	H	1.666456	-0.919222	0.567783
H74	H	1.707742	-0.917727	0.442506
N75	N	1.724992	-1.109375	0.418657
H76	H	1.689129	-1.155895	0.369372
H77	H	1.781556	-1.151197	0.453049
H78	H	1.124711	-0.675220	0.521751
H79	H	1.122000	-0.622948	0.340961
N80	N	0.932473	-0.702985	0.515611
H81	H	0.994966	-0.751436	0.505453
H82	H	0.888247	-0.700795	0.455119
N83	N	0.932250	-0.463768	0.287435
H84	H	0.885468	-0.408821	0.318569
H85	H	0.890660	-0.503362	0.236888
H86	H	0.941988	-0.376715	0.568298
N87	N	1.134623	-0.362509	0.587814
H88	H	1.104670	-0.290475	0.603382
H89	H	1.214351	-0.358344	0.585761
H90	H	0.940107	-0.621478	0.340149
H91	H	0.940414	-0.334866	0.443187
