data_functionalizedCrystal
_audit_creation_method	'MofGen! by Chris Wilmer'
_symmetry_space_group_name_H-M	'P1'
_symmetry_Int_Tables_number	1
_symmetry_cell_setting	triclinic
loop_
_symmetry_equiv_pos_as_xyz
  x,y,z
_cell_length_a	19.805407
_cell_length_b	25.639240
_cell_length_c	19.805399
_cell_angle_alpha	90.035908
_cell_angle_beta	90.017803
_cell_angle_gamma	90.030074
loop_
_atom_site_label
_atom_site_type_symbol
_atom_site_fract_x
_atom_site_fract_y
_atom_site_fract_z
Zn1	Zn	1.034706	-0.208200	0.382648
Zn2	Zn	1.534706	0.291800	0.882648
Zn3	Zn	1.034608	-0.295634	0.269444
Zn4	Zn	1.534608	0.204366	0.769444
Zn5	Zn	0.921520	-0.208211	0.269477
Zn6	Zn	1.421520	0.291789	0.769477
Zn7	Zn	0.921471	-0.295602	0.382594
Zn8	Zn	1.421471	0.204398	0.882594
O9	O	0.978076	-0.251912	0.326041
O10	O	1.478076	0.248088	0.826041
O11	O	1.129409	-0.219808	0.367641
O12	O	1.629409	0.280192	0.867641
O13	O	1.019586	-0.284055	0.174732
O14	O	1.519586	0.215945	0.674732
O15	O	0.936596	-0.135044	0.284526
O16	O	1.436596	0.364956	0.784526
O17	O	1.129338	-0.284045	0.284470
O18	O	1.629338	0.215955	0.784470
O19	O	1.019753	-0.135037	0.367672
O20	O	1.519753	0.364963	0.867672
O21	O	0.936501	-0.219825	0.174756
O22	O	1.436501	0.280175	0.674756
O23	O	0.826797	-0.219794	0.284473
O24	O	1.326797	0.280206	0.784473
O25	O	0.936513	-0.283991	0.477318
O26	O	1.436513	0.216009	0.977318
O27	O	0.826761	-0.284001	0.367580
O28	O	1.326761	0.215999	0.867580
O29	O	1.019705	-0.219777	0.477358
O30	O	1.519705	0.280223	0.977358
O31	O	1.019539	-0.368795	0.284417
O32	O	1.519539	0.131205	0.784417
O33	O	0.936418	-0.368772	0.367548
O34	O	1.436418	0.131228	0.867548
C35	C	0.802220	-0.251896	0.326024
C36	C	1.302220	0.248104	0.826024
C37	C	0.726988	-0.251901	0.326033
C38	C	1.226988	0.248099	0.826033
C39	C	0.691682	-0.218512	0.369406
C40	C	1.191682	0.281488	0.869406
C41	C	0.620994	-0.218515	0.369409
C42	C	1.120994	0.281485	0.869409
C43	C	0.585613	-0.251910	0.326041
C44	C	1.085613	0.248090	0.826041
C45	C	0.620924	-0.285300	0.282664
C46	C	1.120924	0.214700	0.782664
C47	C	0.691611	-0.285295	0.282658
C48	C	1.191611	0.214705	0.782658
C49	C	0.335851	-0.285324	0.282684
C50	C	0.835851	0.214676	0.782684
C51	C	0.265159	-0.285328	0.282695
C52	C	0.765159	0.214672	0.782695
C53	C	0.265233	-0.218544	0.369435
C54	C	0.765233	0.281456	0.869435
C55	C	0.335921	-0.218538	0.369430
C56	C	0.835921	0.281462	0.869430
C57	C	0.371225	-0.251927	0.326050
C58	C	0.871225	0.248073	0.826050
C59	C	0.447874	-0.251923	0.326046
C60	C	0.947874	0.248077	0.826046
C61	C	0.508966	-0.251917	0.326048
C62	C	1.008966	0.248083	0.826048
C63	C	0.977981	-0.387755	0.325988
C64	C	1.477981	0.112245	0.825988
C65	C	0.978002	-0.445869	0.325988
C66	C	1.478002	0.054131	0.825988
C67	C	1.021398	-0.806189	0.369413
C68	C	1.521398	-0.306189	0.869413
C69	C	1.021418	-0.860793	0.369427
C70	C	1.521418	-0.360793	0.869427
O71	O	1.058201	-0.888994	0.406295
O72	O	1.558201	-0.388994	0.906295
N73	N	0.978170	-0.888151	0.326106
N74	N	1.478170	-0.388151	0.826106
C75	C	0.934895	-0.860901	0.282773
C76	C	1.434895	-0.360901	0.782773
O77	O	0.898112	-0.889185	0.245927
O78	O	1.398112	-0.389185	0.745927
C79	C	0.934873	-0.806298	0.282764
C80	C	1.434873	-0.306298	0.782764
C81	C	0.978128	-0.778943	0.326083
C82	C	1.478128	-0.278943	0.826083
C83	C	1.064649	-0.778834	0.412729
C84	C	1.564649	-0.278834	0.912729
C85	C	1.064629	-0.724234	0.412715
C86	C	1.564629	-0.224234	0.912715
C87	C	1.021359	-0.696988	0.369384
C88	C	1.521359	-0.196988	0.869384
C89	C	0.978108	-0.724343	0.326068
C90	C	1.478108	-0.224343	0.826068
C91	C	0.891595	-0.779049	0.239435
C92	C	1.391595	-0.279049	0.739435
C93	C	0.891575	-0.724442	0.239429
C94	C	1.391575	-0.224442	0.739429
C95	C	0.934830	-0.697088	0.282748
C96	C	1.434830	-0.197088	0.782748
C97	C	0.934819	-0.642497	0.282722
C98	C	1.434819	-0.142497	0.782722
N99	N	0.978066	-0.615139	0.326043
N100	N	1.478066	-0.115139	0.826043
C101	C	1.021336	-0.642385	0.369374
C102	C	1.521336	-0.142385	0.869374
C103	C	0.934946	-0.975572	0.282798
C104	C	1.434946	-0.475572	0.782798
C105	C	0.934972	-1.030174	0.282804
C106	C	1.434972	-0.530174	0.782804
C107	C	1.021493	-1.030063	0.369459
C108	C	1.521493	-0.530063	0.869459
C109	C	1.021470	-0.975459	0.369449
C110	C	1.521470	-0.475459	0.869449
C111	C	0.978193	-0.948214	0.326119
C112	C	1.478193	-0.448214	0.826119
C113	C	1.021293	-0.527720	0.369339
C114	C	1.521293	-0.027720	0.869339
C115	C	1.021272	-0.473114	0.369318
C116	C	1.521272	0.026886	0.869318
C117	C	0.934748	-0.473231	0.282666
C118	C	1.434748	0.026769	0.782666
C119	C	0.934772	-0.527831	0.282684
C120	C	1.434772	-0.027831	0.782684
C121	C	0.978046	-0.555075	0.326026
C122	C	1.478046	-0.055075	0.826026
O123	O	0.898053	-0.614261	0.245875
O124	O	1.398053	-0.114261	0.745875
O125	O	1.058108	-0.614095	0.406220
O126	O	1.558108	-0.114095	0.906220
C127	C	1.154619	-0.251929	0.326058
C128	C	1.654619	0.248071	0.826058
C129	C	1.229851	-0.251936	0.326065
C130	C	1.729851	0.248064	0.826065
C131	C	0.978114	-0.251879	0.502584
C132	C	1.478114	0.248121	1.002584
C133	C	0.978131	-0.251865	0.577816
C134	C	1.478131	0.248135	1.077816
C135	C	0.978191	-0.115539	0.326109
C136	C	1.478191	0.384461	0.826109
C137	C	0.978240	-0.057425	0.326138
C138	C	1.478240	0.442575	0.826138
C139	C	0.978078	-0.251907	0.150185
C140	C	1.478078	0.248093	0.650185
C141	C	0.978193	-0.251774	0.074953
C142	C	1.478193	0.248226	0.574953
C143	C	1.021450	-0.218427	0.613182
C144	C	1.521450	0.281573	1.113182
C145	C	1.021457	-0.218412	0.683870
C146	C	1.521457	0.281588	1.183870
C147	C	0.978147	-0.251838	0.719191
C148	C	1.478147	0.248162	1.219191
C149	C	0.934823	-0.285277	0.683820
C150	C	1.434823	0.214723	1.183820
C151	C	0.934813	-0.285289	0.613133
C152	C	1.434813	0.214711	1.113133
C153	C	0.934861	-0.285228	0.968894
C154	C	1.434861	0.214772	1.468894
C155	C	0.934876	-0.285215	1.039586
C156	C	1.434876	0.214785	1.539586
C157	C	1.021505	-0.218351	1.039631
C158	C	1.521505	0.281649	1.539631
C159	C	1.021495	-0.218363	0.968944
C160	C	1.521495	0.281637	1.468944
C161	C	0.978169	-0.251800	0.933579
C162	C	1.478169	0.248200	1.433579
C163	C	0.978161	-0.251816	0.856930
C164	C	1.478161	0.248184	1.356930
C165	C	0.978158	-0.251825	0.795838
C166	C	1.478158	0.248175	1.295838
H167	H	0.592111	-0.312489	0.247350
H168	H	1.092111	0.187511	0.747350
H169	H	0.856372	-0.801312	0.204159
H170	H	1.356372	-0.301312	0.704159
N171	N	1.111274	-0.694736	0.459449
N172	N	1.611274	-0.194736	0.959449
H173	H	1.104701	-0.656009	0.452874
H174	H	1.604701	-0.156009	0.952874
H175	H	1.159624	-0.704258	0.448964
H176	H	1.659624	-0.204258	0.948964
N177	N	0.374077	-0.182521	0.416209
N178	N	0.874077	0.317479	0.916209
H179	H	0.361793	-0.145154	0.405791
H180	H	0.861793	0.354846	0.905791
H181	H	0.424203	-0.187628	0.409603
H182	H	0.924203	0.312372	0.909603
N183	N	1.068187	-0.182344	0.722003
N184	N	1.568187	0.317656	1.222003
H185	H	1.099540	-0.203587	0.751328
H186	H	1.599540	0.296413	1.251328
H187	H	1.040661	-0.158108	0.751296
H188	H	1.540661	0.341892	1.251296
N189	N	0.227155	-0.182529	0.416224
N190	N	0.727155	0.317471	0.916224
H191	H	0.177006	-0.187597	0.409648
H192	H	0.677006	0.312403	0.909648
H193	H	0.239530	-0.145177	0.405785
H194	H	0.739530	0.354823	0.905785
H195	H	0.592251	-0.191327	0.404729
H196	H	1.092251	0.308673	0.904729
N197	N	0.888274	-0.946193	0.236048
N198	N	1.388274	-0.446193	0.736048
H199	H	0.915791	-0.923540	0.204702
H200	H	1.415791	-0.423540	0.704702
H201	H	0.856884	-0.923571	0.263561
H202	H	1.356884	-0.423571	0.763561
H203	H	0.236353	-0.312524	0.247377
H204	H	0.736353	0.187476	0.747377
N205	N	0.844895	-0.695057	0.192695
N206	N	1.344895	-0.195057	0.692695
H207	H	0.817500	-0.720675	0.165258
H208	H	1.317500	-0.220675	0.665258
H209	H	0.872454	-0.672405	0.161388
H210	H	1.372454	-0.172405	0.661388
H211	H	0.899592	-0.312463	0.940108
H212	H	1.399592	0.187537	1.440108
N213	N	1.068211	-0.182314	0.930847
N214	N	1.568211	0.317686	1.430847
H215	H	1.095655	-0.161128	0.963978
H216	H	1.595655	0.338872	1.463978
H217	H	1.040675	-0.158121	0.901526
H218	H	1.540675	0.341879	1.401526
H219	H	0.364587	-0.312511	0.247362
H220	H	0.864587	0.187489	0.747362
H221	H	0.899557	-0.312491	0.712584
H222	H	1.399557	0.187509	1.212584
H223	H	0.720356	-0.312483	0.247339
H224	H	1.220356	0.187517	0.747339
H225	H	1.099884	-0.801012	0.448019
H226	H	1.599884	-0.301012	0.948019
N227	N	1.067928	-0.443610	0.416042
N228	N	1.567928	0.056390	0.916042
H229	H	1.095339	-0.469159	0.443495
H230	H	1.595339	0.030841	0.943495
H231	H	1.040350	-0.420952	0.447335
H232	H	1.540350	0.079048	0.947335
H233	H	1.056527	-0.549895	0.404637
H234	H	1.556527	-0.049895	0.904637
H235	H	1.056781	-0.191123	1.068433
H236	H	1.556781	0.308877	1.568433
N237	N	1.068122	-0.945957	0.416172
N238	N	1.568122	-0.445957	0.916172
H239	H	1.095536	-0.971508	0.443620
H240	H	1.595536	-0.471508	0.943620
H241	H	1.040544	-0.923303	0.447469
H242	H	1.540544	-0.423303	0.947469
N243	N	1.068165	-1.059454	0.416197
N244	N	1.568165	-0.559454	0.916197
H245	H	1.061611	-1.098195	0.409628
H246	H	1.561611	-0.598195	0.909628
H247	H	1.057597	-1.049889	0.464525
H248	H	1.557597	-0.549889	0.964525
H249	H	0.899756	-1.052442	0.247522
H250	H	1.399756	-0.552442	0.747522
N251	N	0.888128	-0.557339	0.235955
N252	N	1.388128	-0.057339	0.735955
H253	H	0.860716	-0.531791	0.208501
H254	H	1.360716	-0.031791	0.708501
H255	H	0.856794	-0.579994	0.263485
H256	H	1.356794	-0.079994	0.763485
N257	N	0.888162	-0.321268	1.077685
N258	N	1.388162	0.178732	1.577685
H259	H	0.860711	-0.342452	1.044556
H260	H	1.360711	0.157548	1.544556
H261	H	0.856866	-0.299975	1.107021
H262	H	1.356866	0.200025	1.607021
H263	H	0.899531	-0.312512	0.584339
H264	H	1.399531	0.187488	1.084339
N265	N	0.888085	-0.443834	0.235933
N266	N	1.388085	0.056166	0.735933
H267	H	0.856699	-0.421182	0.263413
H268	H	1.356699	0.078818	0.763413
H269	H	0.860729	-0.469476	0.208498
H270	H	1.360729	0.030524	0.708498
N271	N	0.729841	-0.182496	0.416186
N272	N	1.229841	0.317504	0.916186
H273	H	0.696745	-0.161344	0.443662
H274	H	1.196745	0.338656	0.943662
H275	H	0.759173	-0.158270	0.388694
H276	H	1.259173	0.341730	0.888694
N277	N	1.068167	-0.182378	0.575088
N278	N	1.568167	0.317622	1.075088
H279	H	1.095610	-0.161193	0.608221
H280	H	1.595610	0.338807	1.108221
H281	H	1.040633	-0.158184	0.545766
H282	H	1.540633	0.341816	1.045766
