data_functionalizedCrystal
_audit_creation_method	'MofGen! by Chris Wilmer'
_symmetry_space_group_name_H-M	'P1'
_symmetry_Int_Tables_number	1
_symmetry_cell_setting	triclinic
loop_
_symmetry_equiv_pos_as_xyz
  x,y,z
_cell_length_a	18.215407
_cell_length_b	12.594516
_cell_length_c	18.215387
_cell_angle_alpha	89.912771
_cell_angle_beta	89.942217
_cell_angle_gamma	90.012264
loop_
_atom_site_label
_atom_site_type_symbol
_atom_site_fract_x
_atom_site_fract_y
_atom_site_fract_z
Zn1	Zn	1.125415	-0.423074	-0.416138
Zn2	Zn	1.125269	-0.601268	-0.293081
Zn3	Zn	1.002266	-0.423306	-0.293085
Zn4	Zn	1.002341	-0.601012	-0.416106
O5	O	1.063823	-0.512165	-0.354602
O6	O	1.228380	-0.446722	-0.399826
O7	O	1.108860	-0.577866	-0.190097
O8	O	1.018631	-0.274329	-0.309424
O9	O	1.228273	-0.577641	-0.309416
O10	O	1.109108	-0.274159	-0.399830
O11	O	1.018490	-0.447117	-0.190100
O12	O	0.899291	-0.446869	-0.309393
O13	O	1.018759	-0.577204	-0.519095
O14	O	0.899347	-0.577429	-0.399775
O15	O	1.109181	-0.446473	-0.519118
O16	O	1.108934	-0.750180	-0.309385
O17	O	1.018619	-0.749992	-0.399771
C18	C	0.872616	-0.512147	-0.354581
C19	C	0.790817	-0.512165	-0.354590
C20	C	0.602672	-0.580254	-0.401593
C21	C	0.525813	-0.580258	-0.401602
C22	C	0.525726	-0.444095	-0.307628
C23	C	0.602583	-0.444087	-0.307623
C24	C	0.641054	-0.512173	-0.354604
C25	C	0.487338	-0.512184	-0.354618
C26	C	0.404004	-0.512187	-0.354628
C27	C	0.724393	-0.512168	-0.354596
C28	C	1.063789	-0.788706	-0.354590
C29	C	1.063841	-0.907011	-0.354609
C30	C	1.113021	-0.976328	-0.305500
C31	C	1.131048	-1.046924	-0.372671
C32	C	1.045906	-1.047214	-0.287480
C33	C	1.081903	-0.976049	-0.421815
C34	C	0.996730	-0.976333	-0.336579
C35	C	1.014732	-1.046897	-0.403796
C36	C	1.255776	-0.512184	-0.354624
C37	C	1.337574	-0.512192	-0.354633
C38	C	1.063995	-0.511784	-0.546556
C39	C	1.064068	-0.511622	-0.628355
C40	C	1.063877	-0.234544	-0.354631
C41	C	1.063900	-0.116239	-0.354644
C42	C	1.063694	-0.512467	-0.163396
C43	C	1.063763	-0.512330	-0.081597
C44	C	1.110679	-0.443365	0.183254
C45	C	1.110626	-0.443482	0.106395
C46	C	1.017147	-0.580590	0.106800
C47	C	1.017196	-0.580466	0.183657
C48	C	1.063966	-0.511855	0.221882
C49	C	1.063864	-0.512096	0.068166
C50	C	1.063807	-0.512224	-0.015167
C51	C	1.064023	-0.511726	0.305221
H52	H	0.494393	-0.388663	-0.269376
H53	H	1.187828	-1.077935	-0.387941
H54	H	0.979152	-0.636239	0.215109
H55	H	0.979069	-0.636453	0.075667
O56	O	0.488642	-0.646495	-0.447269
C57	C	0.496845	-0.781506	-0.540506
C58	C	0.539031	-0.706564	-0.488811
H59	H	0.537566	-0.830075	-0.574118
H60	H	0.460838	-0.837227	-0.506693
H61	H	0.460891	-0.732634	-0.579017
H62	H	0.575025	-0.755350	-0.450290
H63	H	0.574992	-0.650840	-0.522670
H64	H	0.633992	-0.635692	-0.439850
H65	H	0.633835	-0.388640	-0.269359
H66	H	1.154617	-0.945339	-0.264008
O67	O	1.156079	-0.376808	0.220500
C68	C	1.197546	-0.315792	0.338722
C69	C	1.146109	-0.391246	0.296636
H70	H	1.189493	-0.327422	0.400285
H71	H	1.256984	-0.333887	0.323602
H72	H	1.184204	-0.230141	0.323429
H73	H	1.159385	-0.476922	0.311906
H74	H	1.086687	-0.373059	0.311760
O75	O	1.100133	-0.938750	-0.489527
C76	C	1.120507	-0.784707	-0.565484
C77	C	1.099867	-0.826806	-0.488766
H78	H	1.120284	-0.694196	-0.564898
H79	H	1.177583	-0.814334	-0.580981
H80	H	1.078881	-0.814436	-0.607387
H81	H	1.141444	-0.797094	-0.446812
H82	H	1.042773	-0.797187	-0.473331
O83	O	0.965228	-1.083591	-0.453512
C84	C	0.928232	-1.088704	-0.580429
C85	C	0.984351	-1.047096	-0.524206
H86	H	0.943664	-1.059197	-0.637596
H87	H	0.928279	-1.179220	-0.579807
H88	H	0.871169	-1.058437	-0.565494
H89	H	1.041442	-1.077284	-0.539102
H90	H	0.984240	-0.956582	-0.524839
O91	O	0.929034	-0.939350	-0.318212
C92	C	0.833539	-0.933645	-0.226662
C93	C	0.910216	-0.975582	-0.247372
H94	H	0.818294	-0.962940	-0.169394
H95	H	0.834021	-0.843132	-0.227304
H96	H	0.791510	-0.963879	-0.267988
H97	H	0.952288	-0.945427	-0.206067
H98	H	0.909673	-1.066093	-0.246753
O99	O	1.027860	-1.084375	-0.219683
C100	C	1.059327	-1.090713	-0.091293
C101	C	1.079830	-1.048543	-0.168029
H102	H	1.101342	-1.061779	-0.049511
H103	H	1.002512	-1.060436	-0.075445
H104	H	1.058972	-1.181219	-0.092125
H105	H	1.080228	-0.958040	-0.167254
H106	H	1.136633	-1.078902	-0.183846
H107	H	1.148663	-0.387709	0.074948
