data_functionalizedCrystal
_audit_creation_method	'MofGen! by Chris Wilmer'
_symmetry_space_group_name_H-M	'P1'
_symmetry_Int_Tables_number	1
_symmetry_cell_setting	triclinic
loop_
_symmetry_equiv_pos_as_xyz
  x,y,z
_cell_length_a	14.044191
_cell_length_b	19.188924
_cell_length_c	13.101039
_cell_angle_alpha	93.348752
_cell_angle_beta	86.337551
_cell_angle_gamma	88.166870
loop_
_atom_site_label
_atom_site_type_symbol
_atom_site_fract_x
_atom_site_fract_y
_atom_site_fract_z
O1	O	1.262232	0.164780	-0.085173
O2	O	0.986288	0.158702	-0.085186
O3	O	1.132226	0.060600	-0.085167
O4	O	1.116294	0.262883	-0.085192
O5	O	1.121755	0.067652	0.085261
O6	O	0.975817	0.165754	0.085242
O7	O	1.251761	0.171832	0.085255
Zn8	Zn	1.112127	0.169912	0.112308
Zn9	Zn	1.125922	0.160622	-0.112239
O10	O	1.105823	0.269934	0.085236
C11	C	0.945750	0.159569	0.000027
C12	C	0.840557	0.151638	0.000022
C13	C	0.590096	0.193386	0.000027
C14	C	0.647959	0.137151	0.000033
C15	C	0.755130	0.145213	0.000027
C16	C	0.482915	0.185325	0.000033
C17	C	1.126475	0.038081	0.000048
C18	C	1.124930	-0.039523	0.000051
C19	C	1.129916	-0.079812	-0.092850
C20	C	1.128451	-0.152730	-0.092858
C21	C	1.122018	-0.185356	0.000040
C22	C	1.117026	-0.145057	0.092953
C23	C	1.118481	-0.072141	0.092958
N24	N	1.169410	-0.298825	0.069185
N25	N	1.168029	-0.368093	0.069173
C26	C	1.117629	-0.405049	0.000030
N27	N	1.068674	-0.370121	-0.069117
N28	N	1.070060	-0.300847	-0.069109
C29	C	1.120438	-0.264421	0.000045
C30	C	1.121026	-0.524404	-0.092886
C31	C	1.119554	-0.597322	-0.092890
C32	C	1.108139	-0.589649	0.092924
C33	C	1.109601	-0.516731	0.092926
C34	C	1.116049	-0.484113	0.000018
C35	C	1.292300	0.170965	0.000040
C36	C	1.397493	0.178896	0.000038
C37	C	1.111574	0.292452	0.000019
C38	C	1.113120	0.370057	0.000010
N39	N	1.102718	0.176253	0.265555
N40	N	1.135338	0.154276	-0.265486
C41	C	1.089918	0.184886	0.474596
C42	C	1.148136	0.145645	0.525479
C43	C	1.141013	0.150449	0.641797
C44	C	1.097039	0.180083	0.358268
H45	H	0.617015	0.082947	-0.000033
Cl46	Cl	1.004714	0.242323	0.542206
H47	H	1.102894	-0.616212	0.168564
Cl48	Cl	1.233708	0.088497	0.457869
Cl49	Cl	0.637877	0.277062	0.000005
H50	H	1.105548	-0.483927	0.168576
Cl51	Cl	1.134719	-0.203389	-0.209657
Cl52	Cl	1.138015	-0.038810	-0.209649
H53	H	1.111785	-0.171626	0.168592
Cl54	Cl	1.129124	-0.483395	-0.209681
Cl55	Cl	1.112211	-0.021489	0.209758
H56	H	1.123610	-0.630125	-0.168544
