data_functionalizedCrystal
_audit_creation_method	'MofGen! by Chris Wilmer'
_symmetry_space_group_name_H-M	'P1'
_symmetry_Int_Tables_number	1
_symmetry_cell_setting	triclinic
loop_
_symmetry_equiv_pos_as_xyz
  x,y,z
_cell_length_a	12.645331
_cell_length_b	18.101396
_cell_length_c	12.645323
_cell_angle_alpha	90.027635
_cell_angle_beta	89.977324
_cell_angle_gamma	89.963998
loop_
_atom_site_label
_atom_site_type_symbol
_atom_site_fract_x
_atom_site_fract_y
_atom_site_fract_z
Zn1	Zn	1.620589	0.294844	-0.599426
Zn2	Zn	2.120589	0.794844	-0.099426
Zn3	Zn	1.620411	0.418694	-0.422157
Zn4	Zn	2.120411	0.918694	0.077843
Zn5	Zn	1.443303	0.294869	-0.422170
Zn6	Zn	1.943303	0.794869	0.077830
Zn7	Zn	1.443225	0.418646	-0.599373
Zn8	Zn	1.943225	0.918646	-0.099373
O9	O	1.531882	0.356763	-0.510782
O10	O	2.031882	0.856763	-0.010782
O11	O	1.768912	0.311283	-0.575928
O12	O	2.268912	0.811283	-0.075928
O13	O	1.596875	0.402299	-0.273812
O14	O	2.096875	0.902299	0.226188
O15	O	1.466928	0.191233	-0.445711
O16	O	1.966928	0.691233	0.054289
O17	O	1.768782	0.402275	-0.445689
O18	O	2.268782	0.902275	0.054311
O19	O	1.597179	0.191214	-0.575940
O20	O	2.097179	0.691214	-0.075940
O21	O	1.466755	0.311325	-0.273821
O22	O	1.966755	0.811325	0.226179
O23	O	1.294946	0.311278	-0.445660
O24	O	1.794946	0.811278	0.054340
O25	O	1.466795	0.402193	-0.747727
O26	O	1.966795	0.902193	-0.247727
O27	O	1.294888	0.402217	-0.575850
O28	O	1.794888	0.902217	-0.075850
O29	O	1.597103	0.311236	-0.747766
O30	O	2.097103	0.811236	-0.247766
O31	O	1.596799	0.522321	-0.445638
O32	O	2.096799	1.022321	0.054362
O33	O	1.466622	0.522285	-0.575837
O34	O	1.966622	1.022285	-0.075837
C35	C	1.256452	0.356746	-0.510751
C36	C	1.756452	0.856746	-0.010751
C37	C	1.138622	0.356756	-0.510763
C38	C	1.638622	0.856756	-0.010763
C39	C	1.531712	0.549174	-0.510753
C40	C	2.031712	1.049174	-0.010753
C41	C	1.531736	0.631488	-0.510777
C42	C	2.031736	1.131488	-0.010777
C43	C	0.971059	0.299284	-0.429312
C44	C	1.471059	0.799284	0.070688
C45	C	1.093619	0.299432	-0.428953
C46	C	1.593619	0.799432	0.071047
C47	C	1.094064	0.434770	-0.480243
C48	C	1.594064	0.934770	0.019757
C49	C	0.971466	0.434456	-0.479687
C50	C	1.471466	0.934456	0.020313
C51	C	0.971483	0.336957	-0.623048
C52	C	1.471483	0.836957	-0.123048
C53	C	1.094089	0.335215	-0.622425
C54	C	1.594089	0.835215	-0.122425
C55	C	1.531924	0.930579	-0.510839
C56	C	2.031924	1.430579	-0.010839
C57	C	1.450215	0.899262	-0.592959
C58	C	1.950215	1.399262	-0.092959
C59	C	1.449839	0.813644	-0.592701
C60	C	1.949839	1.313644	-0.092701
C61	C	1.531831	0.782196	-0.510809
C62	C	2.031831	1.282196	-0.010809
C63	C	1.501574	0.813349	-0.399084
C64	C	2.001574	1.313349	0.100916
C65	C	1.501034	0.898994	-0.399577
C66	C	2.001034	1.398994	0.100423
C67	C	1.644074	0.898924	-0.539459
C68	C	2.144074	1.398924	-0.039459
C69	C	1.643428	0.813273	-0.541908
C70	C	2.143428	1.313273	-0.041908
C71	C	1.531780	0.698337	-0.510785
C72	C	2.031780	1.198337	-0.010785
C73	C	1.531973	1.014438	-0.510855
C74	C	2.031973	1.514438	-0.010855
C75	C	1.808387	0.356782	-0.510813
C76	C	2.308387	0.856782	-0.010813
C77	C	1.926217	0.356789	-0.510826
C78	C	2.426217	0.856789	-0.010826
C79	C	1.531960	0.356706	-0.787287
C80	C	2.031960	0.856706	-0.287287
C81	C	1.531993	0.356682	-0.905117
C82	C	2.031993	0.856682	-0.405117
C83	C	1.532045	1.163601	-0.510837
C84	C	2.032045	1.663601	-0.010837
C85	C	1.532019	1.081287	-0.510871
C86	C	2.032019	1.581287	-0.010871
C87	C	1.449764	0.413633	-1.072657
C88	C	1.949764	0.913633	-0.572657
C89	C	1.449979	0.413915	-0.950097
C90	C	1.949979	0.913915	-0.450097
C91	C	1.643683	0.377863	-0.949636
C92	C	2.143683	0.877863	-0.449636
C93	C	1.643232	0.378220	-1.072234
C94	C	2.143232	0.878220	-0.572234
C95	C	1.503590	0.278231	-1.072320
C96	C	2.003590	0.778231	-0.572320
C97	C	1.501098	0.278701	-0.949714
C98	C	2.001098	0.778701	-0.449714
C99	C	1.531865	0.356767	-0.235352
C100	C	2.031865	0.856767	0.264648
C101	C	1.532038	0.356583	-0.117522
C102	C	2.032038	0.856583	0.382478
H103	H	1.123747	0.241582	-0.448084
H104	H	1.623747	0.741582	0.051916
O105	O	0.930607	0.262917	-0.659820
O106	O	1.430607	0.762917	-0.159820
H107	H	0.877566	0.239425	-0.598512
H108	H	1.377566	0.739425	-0.098512
H109	H	1.671652	0.920471	-0.619541
H110	H	2.171652	1.420471	-0.119541
O111	O	1.724822	0.925741	-0.460339
O112	O	2.224822	1.425741	0.039661
H113	H	1.786888	0.957840	-0.502025
H114	H	2.286888	1.457840	-0.002025
H115	H	0.941623	0.241259	-0.448237
H116	H	1.441623	0.741259	0.051763
H117	H	1.123213	0.478761	-0.537750
H118	H	1.623213	0.978761	-0.037750
O119	O	1.132676	0.259170	-0.652917
O120	O	1.632676	0.759170	-0.152917
H121	H	1.179156	0.262797	-0.727208
H122	H	1.679156	0.762797	-0.227208
O123	O	1.728364	0.784927	-0.468462
O124	O	2.228364	1.284927	0.031538
H125	H	1.767115	0.832296	-0.428423
H126	H	2.267115	1.332296	0.071577
O127	O	1.675170	0.454091	-1.110131
O128	O	2.175170	0.954091	-0.610131
H129	H	1.675169	0.455098	-1.197894
H130	H	2.175169	0.955098	-0.697894
H131	H	1.124728	0.374044	-0.686407
H132	H	1.624728	0.874044	-0.186407
O133	O	0.932156	0.493124	-0.554904
O134	O	1.432156	0.993124	-0.054904
H135	H	1.000715	0.521600	-0.591504
H136	H	1.500715	1.021600	-0.091504
H137	H	1.706625	0.337625	-0.920503
H138	H	2.206625	0.837625	-0.420503
O139	O	0.930185	0.316462	-0.319808
O140	O	1.430185	0.816462	0.180192
H141	H	0.884615	0.268521	-0.289585
H142	H	1.384615	0.768521	0.210415
H143	H	1.468357	0.471356	-1.103472
H144	H	1.968357	0.971356	-0.603472
H145	H	1.366696	0.400505	-1.102131
H146	H	1.866696	0.900505	-0.602131
H147	H	1.559221	0.792980	-0.336228
H148	H	2.059221	1.292980	0.163772
H149	H	1.468755	0.472001	-0.920779
H150	H	1.968755	0.972001	-0.420779
O151	O	1.132399	0.316798	-0.318799
O152	O	1.632399	0.816798	0.181201
H153	H	1.220171	0.316957	-0.318154
H154	H	1.720171	0.816957	0.181846
H155	H	1.706608	0.338471	-1.101915
H156	H	2.206608	0.838471	-0.601915
O157	O	1.676185	0.452940	-0.908997
O158	O	2.176185	0.952940	-0.408997
H159	H	1.612978	0.475289	-0.857106
H160	H	2.112978	0.975289	-0.357106
H161	H	0.942812	0.451274	-0.397647
H162	H	1.442812	0.951274	0.102353
H163	H	1.423566	0.258923	-1.103226
H164	H	1.923566	0.758923	-0.603226
H165	H	0.942483	0.378842	-0.683783
H166	H	1.442483	0.878842	-0.183783
H167	H	1.468770	0.792579	-0.675544
H168	H	1.968770	1.292579	-0.175544
O169	O	1.392234	0.257525	-0.911157
O170	O	1.892234	0.757525	-0.411157
H171	H	1.360257	0.302346	-0.860438
H172	H	1.860257	0.802346	-0.360438
H173	H	1.557966	0.919713	-0.336304
H174	H	2.057966	1.419713	0.163696
H175	H	1.420467	0.791963	-0.374404
H176	H	1.920467	1.291963	0.125596
O177	O	1.474641	0.926834	-0.702958
O178	O	1.974641	1.426834	-0.202958
H179	H	1.545329	0.963107	-0.700293
H180	H	2.045329	1.463107	-0.200293
O181	O	1.340763	0.927839	-0.568164
O182	O	1.840763	1.427839	-0.068164
H183	H	1.344306	0.964248	-0.497605
H184	H	1.844306	1.464248	0.002395
H185	H	1.556647	0.233948	-0.919096
H186	H	2.056647	0.733948	-0.419096
H187	H	1.666244	0.792909	-0.624131
H188	H	2.166244	1.292909	-0.124131
H189	H	1.563514	0.235726	-1.101337
H190	H	2.063514	0.735726	-0.601337
O191	O	1.134640	0.457435	-0.372733
O192	O	1.634640	0.957435	0.127267
H193	H	1.186528	0.413267	-0.340865
H194	H	1.686528	0.913267	0.159135
H195	H	1.366717	0.793220	-0.573742
H196	H	1.866717	1.293220	-0.073742
H197	H	1.419053	0.919036	-0.375332
H198	H	1.919053	1.419036	0.124668
H199	H	1.367156	0.400660	-0.919996
H200	H	1.867156	0.900660	-0.419996
