data_functionalizedCrystal
_audit_creation_method	'MofGen! by Chris Wilmer'
_symmetry_space_group_name_H-M	'P1'
_symmetry_Int_Tables_number	1
_symmetry_cell_setting	triclinic
loop_
_symmetry_equiv_pos_as_xyz
  x,y,z
_cell_length_a	16.992701
_cell_length_b	10.654550
_cell_length_c	9.730223
_cell_angle_alpha	90.000193
_cell_angle_beta	89.999552
_cell_angle_gamma	92.423964
loop_
_atom_site_label
_atom_site_type_symbol
_atom_site_fract_x
_atom_site_fract_y
_atom_site_fract_z
O1	O	1.041836	-0.266410	-0.114294
O2	O	0.813534	-0.263491	-0.114295
O3	O	0.932934	-0.082665	-0.114289
O4	O	0.922436	-0.447236	-0.114300
O5	O	0.932933	-0.082670	0.114290
O6	O	0.813533	-0.263496	0.114285
O7	O	1.041834	-0.266415	0.114286
Zn8	Zn	0.927683	-0.264956	0.150577
Zn9	Zn	0.927685	-0.264950	-0.150587
O10	O	0.922435	-0.447241	0.114280
C11	C	0.784301	-0.259733	-0.000005
C12	C	0.697196	-0.248515	-0.000005
C13	C	0.207826	-0.173140	-0.000008
C14	C	0.289670	-0.183691	-0.000000
C15	C	0.321859	-0.302492	-0.000010
C16	C	0.272200	-0.410750	-0.000013
C17	C	0.190358	-0.400199	-0.000012
C18	C	0.565694	-0.346222	-0.000007
C19	C	0.647543	-0.356766	-0.000013
C20	C	0.665007	-0.129705	0.000003
C21	C	0.583162	-0.119164	-0.000004
C22	C	0.533510	-0.227422	-0.000000
N23	N	0.405516	-0.313279	-0.000006
N24	N	0.449855	-0.216634	0.000006
C25	C	0.932163	-0.035803	-0.000001
C26	C	0.929856	0.103840	-0.000006
C27	C	1.071068	-0.270173	-0.000007
C28	C	1.158173	-0.281391	-0.000016
C29	C	0.923206	-0.494103	-0.000011
C30	C	0.925512	-0.633746	-0.000015
N31	N	0.927688	-0.264960	0.356114
C32	C	1.000157	0.177251	-0.000002
C33	C	0.997985	0.308460	-0.000011
C34	C	0.855206	0.292833	-0.000024
C35	C	0.857379	0.161627	-0.000024
C36	C	1.082590	0.186275	0.000012
C37	C	1.080418	0.317483	0.000002
N38	N	0.927687	-0.264937	-0.356123
C39	C	0.980572	-0.184921	0.428042
C40	C	0.980570	-0.184905	0.571925
C41	C	0.874797	-0.344980	0.571939
C42	C	0.874796	-0.344988	0.428058
C43	C	1.041641	-0.092506	0.428036
C44	C	1.041639	-0.092491	0.571919
H45	H	0.673747	-0.453513	-0.000001
C46	C	1.126143	0.142846	-0.129214
N47	N	1.158945	0.110135	-0.226546
C48	C	0.816681	-0.433139	0.348942
N49	N	0.772929	-0.499579	0.289352
H50	H	1.108838	0.148378	0.098708
C51	C	1.114089	0.376248	-0.133314
N52	N	1.139453	0.420511	-0.233723
C53	C	1.122369	0.370276	0.129236
N54	N	1.153963	0.410039	0.226573
H55	H	0.800133	0.101859	-0.000047
H56	H	1.022579	0.000379	0.616536
H57	H	0.831734	-0.410135	0.630531
C58	C	0.775485	0.356411	-0.000028
N59	N	0.715437	0.404297	-0.000024
H60	H	1.028246	0.005183	0.388984
H61	H	0.149930	-0.488348	-0.000013
H62	H	1.098600	-0.128016	0.383409
H63	H	0.556961	-0.022423	0.000004
C64	C	0.172426	-0.042448	0.000005
N65	N	0.145766	0.055993	0.000022
C66	C	0.344285	-0.064606	0.000007
N67	N	0.385421	0.025095	0.000014
C68	C	1.123063	-0.128692	0.624680
N69	N	1.184383	-0.155995	0.664419
H70	H	0.705442	-0.041567	0.000002
C71	C	0.511087	-0.465311	0.000015
N72	N	0.469954	-0.555015	0.000039
H73	H	0.298415	-0.507482	-0.000013
