data_functionalizedCrystal
_audit_creation_method	'MofGen! by Chris Wilmer'
_symmetry_space_group_name_H-M	'P1'
_symmetry_Int_Tables_number	1
_symmetry_cell_setting	triclinic
loop_
_symmetry_equiv_pos_as_xyz
  x,y,z
_cell_length_a	29.839134
_cell_length_b	29.839131
_cell_length_c	18.101390
_cell_angle_alpha	89.964306
_cell_angle_beta	89.972820
_cell_angle_gamma	90.036281
loop_
_atom_site_label
_atom_site_type_symbol
_atom_site_fract_x
_atom_site_fract_y
_atom_site_fract_z
Zn1	Zn	0.686743	-0.178898	-0.418911
Zn2	Zn	0.686668	-0.254034	-0.295063
Zn3	Zn	0.611619	-0.178912	-0.295063
Zn4	Zn	0.611573	-0.253995	-0.418842
O5	O	0.649151	-0.216460	-0.356970
O6	O	0.749600	-0.188875	-0.402511
O7	O	0.676700	-0.244091	-0.191430
O8	O	0.621634	-0.116043	-0.311520
O9	O	0.749545	-0.244077	-0.311521
O10	O	0.676828	-0.116033	-0.402511
O11	O	0.621562	-0.188899	-0.191430
O12	O	0.548746	-0.188861	-0.311453
O13	O	0.621557	-0.244011	-0.522484
O14	O	0.548712	-0.244025	-0.402394
O15	O	0.676784	-0.188838	-0.522535
O16	O	0.676656	-0.316896	-0.311454
O17	O	0.621484	-0.316867	-0.402394
C18	C	0.532428	-0.216441	-0.356916
C19	C	0.482494	-0.216443	-0.356911
C20	C	0.649070	-0.333182	-0.356933
C21	C	0.649076	-0.383117	-0.356942
C22	C	0.677931	-0.692762	-0.309687
C23	C	0.677986	-0.880435	-0.309715
O24	O	0.702455	-0.904702	-0.269509
N25	N	0.649244	-0.903902	-0.357026
C26	C	0.620487	-0.880447	-0.404336
O27	O	0.596045	-0.904713	-0.444582
C28	C	0.620435	-0.692775	-0.404310
C29	C	0.649176	-0.669311	-0.356991
C30	C	0.706670	-0.669298	-0.262372
C31	C	0.706654	-0.622383	-0.262363
C32	C	0.677899	-0.598931	-0.309667
C33	C	0.649160	-0.622395	-0.356982
C34	C	0.591681	-0.669321	-0.451623
C35	C	0.591671	-0.622400	-0.451614
C36	C	0.620412	-0.598936	-0.404295
C37	C	0.620389	-0.552029	-0.404277
N38	N	0.649131	-0.528562	-0.356967
C39	C	0.677887	-0.552013	-0.309662
C40	C	0.620517	-0.978978	-0.404345
C41	C	0.620529	-1.025896	-0.404350
C42	C	0.678029	-1.025880	-0.309731
C43	C	0.678014	-0.978962	-0.309722
C44	C	0.649259	-0.955511	-0.357034
C45	C	0.677851	-0.453488	-0.309645
C46	C	0.677831	-0.406568	-0.309637
C47	C	0.620333	-0.406587	-0.404259
C48	C	0.620351	-0.453503	-0.404264
C49	C	0.649114	-0.476952	-0.356955
O50	O	0.595936	-0.527733	-0.444468
O51	O	0.702333	-0.527739	-0.269433
C52	C	0.677947	-0.739678	-0.309696
C53	C	0.649208	-0.763142	-0.357010
C54	C	0.620452	-0.739690	-0.404315
C55	C	0.649220	-0.810060	-0.357016
C56	C	0.677975	-0.833511	-0.309711
C57	C	0.706718	-0.810044	-0.262401
C58	C	0.706702	-0.763129	-0.262391
C59	C	0.591710	-0.763157	-0.451625
C60	C	0.591728	-0.810072	-0.451631
C61	C	0.620483	-0.833524	-0.404326
C62	C	0.172842	-0.245226	-0.404264
C63	C	-0.014831	-0.245238	-0.404297
O64	O	-0.039102	-0.269689	-0.444527
N65	N	-0.038291	-0.216476	-0.357025
C66	C	-0.014831	-0.187707	-0.309746
O67	O	-0.039092	-0.163240	-0.269544
C68	C	0.172841	-0.187692	-0.309717
C69	C	0.196299	-0.216459	-0.356986
C70	C	0.196301	-0.273990	-0.451531
C71	C	0.243216	-0.273989	-0.451519
C72	C	0.266673	-0.245222	-0.404241
C73	C	0.243215	-0.216458	-0.356975
C74	C	0.196301	-0.158921	-0.262441
C75	C	0.243222	-0.158919	-0.262440
C76	C	0.266680	-0.187686	-0.309709
C77	C	0.313588	-0.187690	-0.309685
N78	N	0.337048	-0.216452	-0.356957
C79	C	0.313591	-0.245218	-0.404235
C80	C	-0.113362	-0.187717	-0.309763
C81	C	-0.160279	-0.187721	-0.309769
C82	C	-0.160276	-0.245252	-0.404322
C83	C	-0.113357	-0.245250	-0.404312
C84	C	-0.089901	-0.216479	-0.357035
C85	C	0.412117	-0.245213	-0.404207
C86	C	0.459037	-0.245210	-0.404189
C87	C	0.459029	-0.187677	-0.309639
C88	C	0.412113	-0.187681	-0.309654
C89	C	0.388659	-0.216451	-0.356944
O90	O	0.337888	-0.163248	-0.269483
O91	O	0.337860	-0.269675	-0.444442
C92	C	0.125927	-0.245227	-0.404276
C93	C	0.102469	-0.216463	-0.357010
C94	C	0.125926	-0.187696	-0.309732
C95	C	0.055551	-0.216467	-0.357016
C96	C	0.032094	-0.245233	-0.404294
C97	C	0.055554	-0.273996	-0.451565
C98	C	0.102470	-0.273994	-0.451554
C99	C	0.102465	-0.158934	-0.262460
C100	C	0.055549	-0.158939	-0.262475
C101	C	0.032092	-0.187705	-0.309753
C102	C	0.766329	-0.216479	-0.357024
C103	C	0.816263	-0.216487	-0.357047
C104	C	0.649173	-0.216419	-0.550132
C105	C	0.649183	-0.216401	-0.632446
C106	C	0.649244	-0.099281	-0.357023
C107	C	0.649284	-0.049347	-0.357045
C108	C	0.649199	-0.216387	-0.783154
C109	C	0.683948	-0.181671	-0.814540
C110	C	0.684093	-0.181765	-0.900158
C111	C	0.649215	-0.216373	-0.931537
C112	C	0.661870	-0.263759	-0.900426
C113	C	0.662113	-0.263566	-0.814781
C114	C	0.601711	-0.204129	-0.814699
C115	C	0.601975	-0.203076	-0.900351
C116	C	0.649223	-0.216367	-1.015397
C117	C	0.649192	-0.216396	-0.699295
C118	C	0.649154	-0.216468	-0.164559
C119	C	0.649231	-0.216359	-0.082246
H120	H	0.701235	-0.387465	-0.271102
H121	H	0.676137	-0.146432	-0.793968
H122	H	0.574720	-0.226502	-0.921707
H123	H	0.121565	-0.297419	-0.490046
H124	H	0.177207	-0.297416	-0.490034
C125	C	0.628733	-0.299655	-0.927880
N126	N	0.603774	-0.326691	-0.948560
C127	C	-0.087566	-0.156067	-0.257746
N128	N	-0.068138	-0.132230	-0.218564
H129	H	0.696821	-0.273935	-0.794820
C130	C	-0.087558	-0.276894	-0.456315
N131	N	-0.068127	-0.300728	-0.495489
H132	H	0.590148	-0.170169	-0.793106
H133	H	0.718936	-0.189699	-0.793035
H134	H	0.262312	-0.297413	-0.490012
H135	H	0.568319	-0.829173	-0.490162
H136	H	0.696195	-0.274309	-0.921908
H137	H	0.730088	-0.688387	-0.223851
C138	C	0.738268	-0.596578	-0.210302
N139	N	0.762081	-0.577145	-0.171085
H140	H	-0.179383	-0.268675	-0.442817
C141	C	0.588894	-0.953188	-0.456415
N142	N	0.565079	-0.933765	-0.495641
C143	C	0.560064	-0.695121	-0.503681
N144	N	0.536249	-0.714553	-0.542895
H145	H	0.262317	-0.135487	-0.223945
H146	H	-0.179375	-0.164300	-0.271270
C147	C	0.589074	-0.155967	-0.927831
N148	N	0.579358	-0.120484	-0.948535
C149	C	0.386309	-0.156039	-0.257650
N150	N	0.366875	-0.132203	-0.218484
H151	H	0.701442	-1.044982	-0.271213
H152	H	0.597121	-1.044996	-0.442875
C153	C	0.731636	-0.192741	-0.927863
N154	N	0.767448	-0.201011	-0.948730
C155	C	0.484838	-0.276857	-0.456192
N156	N	0.504270	-0.300692	-0.495361
H157	H	0.575824	-0.229413	-0.794398
C158	C	0.029742	-0.305638	-0.503572
N159	N	0.010299	-0.329467	-0.542745
C160	C	0.709488	-0.479275	-0.257597
N161	N	0.733315	-0.498697	-0.218391
C162	C	0.709632	-0.953156	-0.257671
N163	N	0.733449	-0.933721	-0.218464
H164	H	0.568256	-0.603309	-0.490144
H165	H	0.596949	-0.472608	-0.442797
C166	C	0.588706	-0.380782	-0.456295
N167	N	0.564887	-0.361344	-0.495493
C168	C	0.484841	-0.156030	-0.257645
N169	N	0.504284	-0.132190	-0.218489
C170	C	0.170507	-0.127269	-0.210448
N171	N	0.151080	-0.103424	-0.171287
C172	C	0.629402	-0.299718	-0.786725
N173	N	0.604768	-0.326951	-0.765597
H174	H	0.676187	-0.146634	-0.921196
H175	H	0.730106	-0.744028	-0.223860
C176	C	0.738348	-0.835850	-0.210365
N177	N	0.762172	-0.855289	-0.171176
H178	H	0.393026	-0.268638	-0.442716
C179	C	0.029751	-0.127289	-0.210473
N180	N	0.010321	-0.103447	-0.171311
H181	H	0.568295	-0.744066	-0.490148
H182	H	0.121559	-0.135509	-0.223960
