data_functionalizedCrystal
_audit_creation_method	'MofGen! by Chris Wilmer'
_symmetry_space_group_name_H-M	'P1'
_symmetry_Int_Tables_number	1
_symmetry_cell_setting	triclinic
loop_
_symmetry_equiv_pos_as_xyz
  x,y,z
_cell_length_a	16.120530
_cell_length_b	12.645330
_cell_length_c	16.120256
_cell_angle_alpha	92.878509
_cell_angle_beta	90.128265
_cell_angle_gamma	87.113442
loop_
_atom_site_label
_atom_site_type_symbol
_atom_site_fract_x
_atom_site_fract_y
_atom_site_fract_z
Zn1	Zn	1.247481	-0.537102	-0.534597
Zn2	Zn	1.254445	-0.705858	-0.395549
Zn3	Zn	1.115470	-0.519182	-0.388514
Zn4	Zn	1.108401	-0.704887	-0.527519
O5	O	1.181449	-0.616757	-0.461545
O6	O	1.364772	-0.567393	-0.522059
O7	O	1.241883	-0.674002	-0.278249
O8	O	1.133026	-0.373216	-0.407910
O9	O	1.369888	-0.691378	-0.419901
O10	O	1.230014	-0.386381	-0.515237
O11	O	1.139778	-0.536852	-0.273081
O12	O	0.998166	-0.535910	-0.401046
O13	O	1.120978	-0.689723	-0.644824
O14	O	0.992972	-0.672347	-0.503173
O15	O	1.223159	-0.566452	-0.650025
O16	O	1.235028	-0.854073	-0.413037
O17	O	1.127730	-0.853359	-0.509994
C18	C	0.965396	-0.602080	-0.450579
C19	C	0.872967	-0.595827	-0.445907
C20	C	0.703736	-0.584388	-0.437385
C21	C	0.660000	-0.649209	-0.485765
C22	C	0.565834	-0.642844	-0.481024
C23	C	0.797911	-0.590751	-0.442125
C24	C	1.181389	-0.892182	-0.461530
C25	C	1.181438	-1.010017	-0.461555
C26	C	1.114192	-1.177206	-0.522763
C27	C	1.113875	-1.054612	-0.522539
C28	C	1.162161	-1.047628	-0.372718
C29	C	1.161750	-1.170224	-0.373090
C30	C	1.268390	-1.184460	-0.488494
C31	C	1.267753	-1.061934	-0.490383
C32	C	1.398346	-0.631493	-0.472554
C33	C	1.490775	-0.637772	-0.477246
C34	C	1.170503	-0.629978	-0.678441
C35	C	1.165839	-0.635612	-0.770869
C36	C	1.181532	-0.340259	-0.461579
C37	C	1.181566	-0.222433	-0.461593
C38	C	1.205774	-0.587350	-0.983850
C39	C	1.157294	-0.645852	-0.940089
C40	C	1.162050	-0.640153	-0.845926
C41	C	1.201019	-0.593048	-1.078022
C42	C	1.192401	-0.603515	-0.245495
C43	C	1.197227	-0.597593	-0.153076
H44	H	0.670461	-0.524118	-0.392407
H45	H	0.693277	-0.709483	-0.530748
H46	H	1.250847	-0.532990	-0.950598
H47	H	1.125422	-1.029449	-0.588272
H48	H	1.125591	-1.211613	-0.588702
H49	H	1.099512	-1.011514	-0.350138
H50	H	1.050134	-1.202811	-0.504800
H51	H	1.049419	-1.020042	-0.504366
H52	H	1.208934	-1.199868	-0.325720
H53	H	1.112214	-0.700211	-0.973343
H54	H	1.098414	-1.193388	-0.350819
H55	H	1.209874	-1.018514	-0.325701
H56	H	1.286844	-1.220624	-0.552408
H57	H	1.282371	-1.037952	-0.555784
H58	H	1.320237	-1.032027	-0.449428
H59	H	1.318530	-1.213811	-0.443996
