data_functionalizedCrystal
_audit_creation_method	'MofGen! by Chris Wilmer'
_symmetry_space_group_name_H-M	'P1'
_symmetry_Int_Tables_number	1
_symmetry_cell_setting	triclinic
loop_
_symmetry_equiv_pos_as_xyz
  x,y,z
_cell_length_a	6.817900
_cell_length_b	10.773894
_cell_length_c	9.514072
_cell_angle_alpha	94.040261
_cell_angle_beta	118.843421
_cell_angle_gamma	96.645922
loop_
_atom_site_label
_atom_site_type_symbol
_atom_site_fract_x
_atom_site_fract_y
_atom_site_fract_z
V1	V	-4.031208	-0.389895	-0.216288
O2	O	-3.931676	-0.381468	0.016466
O3	O	-4.066329	-0.388196	-0.434704
O4	O	-3.946589	-0.559501	-0.210297
O5	O	-4.052245	-0.208977	-0.209494
V6	V	-4.508706	-0.368139	-0.188763
O7	O	-4.305681	-0.437621	-0.276667
O8	O	-4.684430	-0.320413	-0.128384
O9	O	-4.250378	-0.369838	0.029652
O10	O	-4.725634	-0.376566	-0.421517
O11	O	-4.605066	-0.549057	-0.195557
O12	O	-4.370118	-0.198533	-0.194754
C13	C	-3.932820	-0.382295	-0.488032
C14	C	-4.042581	-0.382036	-0.666572
C15	C	-3.780079	-0.600810	-0.201777
C16	C	-3.792730	-0.739470	-0.198323
C17	C	-3.973094	-0.807358	-0.204308
C18	C	-3.986174	-0.950671	-0.200739
C19	C	-4.047233	-0.375736	0.082972
C20	C	-3.916709	-0.376003	0.261511
C21	C	-4.199974	-0.157218	-0.203280
C22	C	-4.166558	-0.018557	-0.206725
H23	H	-4.234341	-0.387046	-0.741605
C24	C	-3.661009	-0.369111	-0.638226
C25	C	-3.567225	-0.260957	-0.521475
C26	C	-3.331678	-0.254574	-0.429059
H27	H	-3.596463	-0.365231	-0.707080
H28	H	-3.629393	-0.442025	-0.585850
H29	H	-3.598822	-0.188061	-0.573847
H30	H	-3.631705	-0.264812	-0.452585
H31	H	-3.300061	-0.327488	-0.376684
H32	H	-3.267154	-0.250698	-0.497927
H33	H	-3.268018	-0.181198	-0.349824
H34	H	-4.117819	-0.759381	-0.212064
H35	H	-3.647992	-0.787445	-0.190546
H36	H	-4.311309	-0.970588	-0.214498
C37	C	-3.793166	-1.014755	-0.190131
C38	C	-3.702171	-1.071791	-0.049284
C39	C	-3.524395	-1.130853	-0.039468
H40	H	-3.678102	-0.953706	-0.186745
H41	H	-3.849384	-1.077202	-0.282398
H42	H	-3.645949	-1.009352	0.042960
H43	H	-3.817176	-1.132858	-0.052638
H44	H	-3.580613	-1.193299	-0.131735
H45	H	-3.409347	-1.069796	-0.036087
H46	H	-3.462646	-1.169568	0.056088
