data_functionalizedCrystal
_audit_creation_method	'MofGen! by Chris Wilmer'
_symmetry_space_group_name_H-M	'P1'
_symmetry_Int_Tables_number	1
_symmetry_cell_setting	triclinic
loop_
_symmetry_equiv_pos_as_xyz
  x,y,z
_cell_length_a	19.805407
_cell_length_b	12.759394
_cell_length_c	19.805398
_cell_angle_alpha	89.979392
_cell_angle_beta	89.984135
_cell_angle_gamma	90.013856
loop_
_atom_site_label
_atom_site_type_symbol
_atom_site_fract_x
_atom_site_fract_y
_atom_site_fract_z
Zn1	Zn	1.034770	-0.418308	-0.382745
Zn2	Zn	1.534770	0.081692	0.117255
Zn3	Zn	1.034717	-0.593996	-0.269567
Zn4	Zn	1.534717	-0.093996	0.230433
Zn5	Zn	0.921592	-0.418332	-0.269569
Zn6	Zn	1.421592	0.081668	0.230431
Zn7	Zn	0.921573	-0.593946	-0.382714
Zn8	Zn	1.421573	-0.093946	0.117286
O9	O	0.978163	-0.506146	-0.326149
O10	O	1.478163	-0.006146	0.173851
O11	O	1.129479	-0.441625	-0.367743
O12	O	1.629479	0.058375	0.132257
O13	O	1.019696	-0.570725	-0.174851
O14	O	1.519696	-0.070725	0.325149
O15	O	0.936635	-0.271308	-0.284596
O16	O	1.436635	0.228692	0.215404
O17	O	1.129441	-0.570702	-0.284592
O18	O	1.629441	-0.070702	0.215408
O19	O	1.019787	-0.271290	-0.367746
O20	O	1.519787	0.228710	0.132254
O21	O	0.936584	-0.441665	-0.174852
O22	O	1.436584	0.058335	0.325148
O23	O	0.826873	-0.441616	-0.284566
O24	O	1.326873	0.058384	0.215434
O25	O	0.936603	-0.570616	-0.477434
O26	O	1.436603	-0.070616	0.022566
O27	O	0.826859	-0.570639	-0.367693
O28	O	1.326859	-0.070639	0.132307
O29	O	1.019768	-0.441576	-0.477457
O30	O	1.519768	0.058424	0.022543
O31	O	1.019678	-0.741011	-0.284562
O32	O	1.519678	-0.241011	0.215438
O33	O	0.936552	-0.740973	-0.367690
O34	O	1.436552	-0.240973	0.132310
C35	C	0.802307	-0.506125	-0.326127
C36	C	1.302307	-0.006125	0.173873
C37	C	0.727075	-0.506142	-0.326133
C38	C	1.227075	-0.006142	0.173867
C39	C	0.691741	-0.573425	-0.369347
C40	C	1.191741	-0.073425	0.130653
C41	C	0.621053	-0.573427	-0.369357
C42	C	1.121053	-0.073427	0.130643
C43	C	0.585699	-0.506150	-0.326149
C44	C	1.085699	-0.006150	0.173851
C45	C	0.621038	-0.438860	-0.282933
C46	C	1.121038	0.061140	0.217067
C47	C	0.691725	-0.438853	-0.282927
C48	C	1.191725	0.061147	0.217073
C49	C	0.335965	-0.438883	-0.282955
C50	C	0.835965	0.061117	0.217045
C51	C	0.265273	-0.438897	-0.282963
C52	C	0.765273	0.061103	0.217037
C53	C	0.265292	-0.573457	-0.369385
C54	C	0.765292	-0.073457	0.130615
C55	C	0.335979	-0.573450	-0.369379
C56	C	0.835979	-0.073450	0.130621
C57	C	0.371312	-0.506156	-0.326166
C58	C	0.871312	-0.006156	0.173834
C59	C	0.447960	-0.506154	-0.326157
C60	C	0.947960	-0.006154	0.173843
C61	C	0.509052	-0.506157	-0.326154
C62	C	1.009052	-0.006157	0.173846
C63	C	0.978125	-0.779113	-0.326137
C64	C	1.478125	-0.279113	0.173863
C65	C	0.978171	-0.895890	-0.326155
C66	C	1.478171	-0.395890	0.173845
C67	C	1.064692	-0.895713	-0.412804
C68	C	1.564692	-0.395713	0.087196
C69	C	1.107974	-0.950486	-0.456133
C70	C	1.607974	-0.450486	0.043867
C71	C	1.108014	-1.060207	-0.456148
C72	C	1.608014	-0.560207	0.043852
C73	C	1.064766	-1.115159	-0.412830
C74	C	1.564766	-0.615159	0.087170
C75	C	1.021485	-1.060386	-0.369500
C76	C	1.521485	-0.560386	0.130500
C77	C	1.021450	-0.950662	-0.369489
C78	C	1.521450	-0.450662	0.130511
C79	C	0.934961	-1.060563	-0.282856
C80	C	1.434961	-0.560563	0.217144
C81	C	0.934924	-0.950841	-0.282837
C82	C	1.434924	-0.450841	0.217163
C83	C	0.891714	-1.115514	-0.239538
C84	C	1.391714	-0.615514	0.260462
C85	C	0.848435	-1.060742	-0.196205
C86	C	1.348435	-0.560742	0.303795
C87	C	0.848397	-0.951014	-0.196191
C88	C	1.348397	-0.451014	0.303809
C89	C	0.891642	-0.896069	-0.239508
C90	C	1.391642	-0.396069	0.260492
C91	C	1.154706	-0.506166	-0.326171
C92	C	1.654706	-0.006166	0.173829
C93	C	1.229938	-0.506175	-0.326180
C94	C	1.729938	-0.006175	0.173820
C95	C	0.978189	-0.506087	-0.502691
C96	C	1.478189	-0.006087	-0.002691
C97	C	0.978201	-0.506063	-0.577923
C98	C	1.478201	-0.006063	-0.077923
C99	C	0.978219	-0.232112	-0.326175
C100	C	1.478219	0.267888	0.173825
C101	C	0.978243	-0.115335	-0.326186
C102	C	1.478243	0.384665	0.173814
C103	C	1.021587	-0.438685	-1.039728
C104	C	1.521587	0.061315	-0.539728
C105	C	1.021576	-0.438717	-0.969039
C106	C	1.521576	0.061283	-0.469039
C107	C	0.978270	-0.505916	-0.933685
C108	C	1.478270	-0.005916	-0.433685
C109	C	0.934977	-0.573095	-0.969024
C110	C	1.434977	-0.073095	-0.469024
C111	C	0.934992	-0.573067	-1.039711
C112	C	1.434992	-0.073067	-0.539711
C113	C	0.934918	-0.573209	-0.683950
C114	C	1.434918	-0.073209	-0.183950
C115	C	0.934906	-0.573229	-0.613258
C116	C	1.434906	-0.073229	-0.113258
C117	C	1.021503	-0.438859	-0.613278
C118	C	1.521503	0.061141	-0.113278
C119	C	1.021517	-0.438831	-0.683966
C120	C	1.521517	0.061169	-0.183966
C121	C	0.978227	-0.506013	-0.719298
C122	C	1.478227	-0.006013	-0.219298
C123	C	0.978240	-0.505979	-0.795946
C124	C	1.478240	-0.005979	-0.295946
C125	C	0.978253	-0.505946	-0.857038
C126	C	1.478253	-0.005946	-0.357038
C127	C	0.978175	-0.506128	-0.150293
C128	C	1.478175	-0.006128	0.349707
C129	C	0.978295	-0.505857	-0.075061
C130	C	1.478295	-0.005857	0.424939
H131	H	0.236490	-0.384105	-0.247777
H132	H	0.736490	0.115895	0.252223
N133	N	0.374104	-0.646014	-0.415986
N134	N	0.874104	-0.146014	0.084014
H135	H	0.403449	-0.603378	-0.447396
H136	H	0.903449	-0.103378	0.052604
H137	H	0.403378	-0.694630	-0.388378
H138	H	0.903378	-0.194630	0.111622
N139	N	0.729871	-0.645987	-0.415951
N140	N	1.229871	-0.145987	0.084049
H141	H	0.759182	-0.694616	-0.388388
H142	H	1.259182	-0.194616	0.111612
H143	H	0.696717	-0.688539	-0.443320
H144	H	1.196717	-0.188539	0.056680
N145	N	0.227184	-0.646040	-0.415996
N146	N	0.727184	-0.146040	0.084004
H147	H	0.177039	-0.635838	-0.409448
H148	H	0.677039	-0.135838	0.090552
H149	H	0.239561	-0.629793	-0.464353
H150	H	0.739561	-0.129793	0.035647
N151	N	1.064660	-0.777372	-0.412784
N152	N	1.564660	-0.277372	0.087216
H153	H	1.052187	-0.750911	-0.459201
H154	H	1.552187	-0.250911	0.040799
H155	H	1.030687	-0.751094	-0.378732
H156	H	1.530687	-0.251094	0.121268
N157	N	1.068230	-0.366349	-0.722088
N158	N	1.568230	0.133651	-0.222088
H159	H	1.099594	-0.409036	-0.751415
H160	H	1.599594	0.090964	-0.251415
H161	H	1.040694	-0.317656	-0.751378
H162	H	1.540694	0.182344	-0.251378
H163	H	0.592287	-0.628217	-0.404546
H164	H	1.092287	-0.128217	0.095454
N165	N	1.068210	-0.366417	-0.575171
N166	N	1.568210	0.133583	-0.075171
H167	H	1.061638	-0.376636	-0.525026
H168	H	1.561638	0.123364	-0.025026
H169	H	1.116545	-0.382785	-0.587538
H170	H	1.616545	0.117215	-0.087538
H171	H	0.364724	-0.384096	-0.247763
H172	H	0.864724	0.115904	0.252237
N173	N	0.891610	-0.777727	-0.239494
N174	N	1.391610	-0.277727	0.260506
H175	H	0.879136	-0.751275	-0.285913
H176	H	1.379136	-0.251275	0.214087
H177	H	0.857637	-0.751443	-0.205444
H178	H	1.357637	-0.251443	0.294556
H179	H	0.899740	-0.627766	-1.068478
H180	H	1.399740	-0.127766	-0.568478
H181	H	0.592248	-0.384077	-0.247755
H182	H	1.092248	0.115923	0.252245
H183	H	1.143250	-1.104803	-0.491437
H184	H	1.643250	-0.604803	0.008563
H185	H	1.056847	-0.383957	-1.068508
H186	H	1.556847	0.116043	-0.568508
H187	H	0.899720	-0.627814	-0.940233
H188	H	1.399720	-0.127814	-0.440233
H189	H	1.143184	-0.905735	-0.491404
H190	H	1.643184	-0.405735	0.008596
N191	N	0.729839	-0.366277	-0.236323
N192	N	1.229839	0.133723	0.263677
H193	H	0.696718	-0.323657	-0.208951
H194	H	1.196718	0.176343	0.291049
H195	H	0.759154	-0.408968	-0.204949
H196	H	1.259154	0.091032	0.295051
N197	N	1.064812	-1.233501	-0.412839
N198	N	1.564812	-0.733501	0.087161
H199	H	1.098794	-1.259860	-0.446860
H200	H	1.598794	-0.759860	0.053140
H201	H	1.077273	-1.259856	-0.366396
H202	H	1.577273	-0.759856	0.133604
H203	H	0.891747	-1.204855	-0.239556
H204	H	1.391747	-0.704855	0.260444
H205	H	0.813223	-1.105492	-0.160942
H206	H	1.313223	-0.605492	0.339058
H207	H	0.899636	-0.627950	-0.584475
H208	H	1.399636	-0.127950	-0.084475
H209	H	1.056830	-0.384023	-0.940274
H210	H	1.556830	0.115977	-0.440274
N211	N	0.801710	-0.891940	-0.149460
N212	N	1.301710	-0.391940	0.350540
H213	H	0.774322	-0.943404	-0.122024
H214	H	1.274322	-0.443404	0.377976
H215	H	0.829262	-0.846411	-0.118152
H216	H	1.329262	-0.346411	0.381848
N217	N	0.888227	-0.645663	-0.722053
N218	N	1.388227	-0.145663	-0.222053
H219	H	0.860790	-0.688231	-0.688929
H220	H	1.360790	-0.188231	-0.188929
H221	H	0.856918	-0.602884	-0.751384
H222	H	1.356918	-0.102884	-0.251384
