data_functionalizedCrystal
_audit_creation_method	'MofGen! by Chris Wilmer'
_symmetry_space_group_name_H-M	'P1'
_symmetry_Int_Tables_number	1
_symmetry_cell_setting	triclinic
loop_
_symmetry_equiv_pos_as_xyz
  x,y,z
_cell_length_a	19.077105
_cell_length_b	18.101395
_cell_length_c	19.076919
_cell_angle_alpha	87.727683
_cell_angle_beta	89.923776
_cell_angle_gamma	87.727498
loop_
_atom_site_label
_atom_site_type_symbol
_atom_site_fract_x
_atom_site_fract_y
_atom_site_fract_z
Zn1	Zn	1.058231	-0.358271	0.440421
Zn2	Zn	1.558231	0.141729	0.940421
Zn3	Zn	1.062857	-0.477344	0.322915
Zn4	Zn	1.562857	0.022656	0.822915
Zn5	Zn	0.945450	-0.348351	0.318214
Zn6	Zn	1.445450	0.151649	0.818214
Zn7	Zn	0.940679	-0.476897	0.435668
Zn8	Zn	1.440679	0.023103	0.935668
O9	O	1.001804	-0.415216	0.379305
O10	O	1.501804	0.084784	0.879305
O11	O	1.157176	-0.378405	0.428790
O12	O	1.657176	0.121595	0.928790
O13	O	1.051216	-0.456268	0.223960
O14	O	1.551216	0.043732	0.723960
O15	O	0.960470	-0.246037	0.334447
O16	O	1.460470	0.253963	0.834447
O17	O	1.160575	-0.465887	0.342459
O18	O	1.660575	0.034113	0.842459
O19	O	1.043330	-0.253326	0.424232
O20	O	1.543330	0.246674	0.924232
O21	O	0.964957	-0.361497	0.220507
O22	O	1.464957	0.138503	0.720507
O23	O	0.846486	-0.361064	0.329838
O24	O	1.346486	0.138936	0.829838
O25	O	0.952340	-0.465126	0.534630
O26	O	1.452340	0.034874	1.034630
O27	O	0.842981	-0.455506	0.416131
O28	O	1.342981	0.044494	0.916131
O29	O	1.038704	-0.377972	0.538122
O30	O	1.538704	0.122028	1.038122
O31	O	1.046590	-0.580914	0.337850
O32	O	1.546590	-0.080914	0.837850
O33	O	0.956826	-0.580586	0.420689
O34	O	1.456826	-0.080586	0.920689
C35	C	0.819237	-0.407161	0.371959
C36	C	1.319237	0.092839	0.871959
C37	C	0.741133	-0.403733	0.368833
C38	C	1.241133	0.096267	0.868833
C39	C	0.702636	-0.451363	0.412222
C40	C	1.202636	0.048637	0.912222
C41	C	0.629249	-0.448133	0.409288
C42	C	1.129249	0.051867	0.909288
C43	C	0.594361	-0.397276	0.362962
C44	C	1.094361	0.102724	0.862962
C45	C	0.632863	-0.349642	0.319571
C46	C	1.132863	0.150358	0.819571
C47	C	0.706248	-0.352869	0.322509
C48	C	1.206248	0.147131	0.822509
C49	C	0.375075	-0.382341	0.349369
C50	C	0.875075	0.117659	0.849369
C51	C	0.301684	-0.379119	0.346433
C52	C	0.801684	0.120881	0.846433
C53	C	0.298076	-0.477610	0.436152
C54	C	0.798076	0.022390	0.936152
C55	C	0.371463	-0.480836	0.439082
C56	C	0.871463	0.019164	0.939082
C57	C	0.409959	-0.433198	0.395694
C58	C	0.909959	0.066802	0.895694
N59	N	0.519348	-0.393975	0.359960
N60	N	1.019348	0.106025	0.859960
N61	N	0.484970	-0.436497	0.398700
N62	N	0.984970	0.063503	0.898700
C63	C	1.001711	-0.607621	0.379280
C64	C	1.501711	-0.107621	0.879280
C65	C	1.001735	-0.689937	0.379296
C66	C	1.501735	-0.189937	0.879296
C67	C	1.001887	-0.989036	0.379340
C68	C	1.501887	-0.489036	0.879340
C69	C	0.945531	-0.957547	0.431600
C70	C	1.445531	-0.457547	0.931600
C71	C	0.945280	-0.871910	0.431419
C72	C	1.445280	-0.371910	0.931419
C73	C	1.001811	-0.840650	0.379319
C74	C	1.501811	-0.340650	0.879319
C75	C	0.984741	-0.867911	0.304458
C76	C	1.484741	-0.367911	0.804458
C77	C	0.984379	-0.953554	0.304770
C78	C	1.484379	-0.453554	0.804770
C79	C	1.075459	-0.961424	0.401293
C80	C	1.575459	-0.461424	0.901293
C81	C	1.074956	-0.875820	0.402900
C82	C	1.574956	-0.375820	0.902900
C83	C	1.001770	-0.756788	0.379302
C84	C	1.501770	-0.256788	0.879302
C85	C	1.001927	-1.072898	0.379351
C86	C	1.501927	-0.572898	0.879351
C87	C	1.185084	-0.423303	0.386679
C88	C	1.685084	0.076697	0.886679
C89	C	1.263188	-0.426749	0.389822
C90	C	1.763188	0.073251	0.889822
C91	C	0.994474	-0.422606	0.562585
C92	C	1.494474	0.077394	1.062585
C93	C	0.991350	-0.425755	0.640688
C94	C	1.491350	0.074245	1.140688
C95	C	1.001916	-0.222060	0.379345
C96	C	1.501916	0.277940	0.879345
C97	C	1.001964	-0.139749	0.379363
C98	C	1.501964	0.360251	0.879363
C99	C	1.009146	-0.407803	0.196739
C100	C	1.509146	0.092197	0.696739
C101	C	1.012406	-0.404451	0.118642
C102	C	1.512406	0.095549	0.618642
C103	C	1.034846	-0.381860	0.679200
C104	C	1.534846	0.118140	1.179200
C105	C	1.031902	-0.384816	0.752586
C106	C	1.531902	0.115184	1.252586
C107	C	0.985466	-0.431671	0.787458
C108	C	1.485466	0.068329	1.287458
C109	C	0.941966	-0.475568	0.748941
C110	C	1.441966	0.024432	1.248941
C111	C	0.944906	-0.472608	0.675556
C112	C	1.444906	0.027392	1.175556
C113	C	0.971847	-0.445387	1.006740
C114	C	1.471847	0.054613	1.506740
C115	C	0.968911	-0.448346	1.080130
C116	C	1.468911	0.051654	1.580130
C117	C	1.058847	-0.357593	1.083770
C118	C	1.558847	0.142407	1.583770
C119	C	1.061786	-0.354640	1.010384
C120	C	1.561786	0.145360	1.510384
C121	C	1.018283	-0.398533	0.971872
C122	C	1.518283	0.101467	1.471872
N123	N	0.982458	-0.434696	0.862471
N124	N	1.482458	0.065304	1.362471
N125	N	1.021289	-0.395505	0.896861
N126	N	1.521289	0.104495	1.396861
H127	H	0.399864	-0.522250	0.476804
H128	H	0.899864	-0.022250	0.976804
H129	H	0.406410	-0.343557	0.314034
H130	H	0.906410	0.156443	0.814034
H131	H	1.118927	-0.854786	0.367848
H132	H	1.618927	-0.354786	0.867848
N133	N	1.131031	-0.988463	0.350926
N134	N	1.631031	-0.488463	0.850926
H135	H	1.108699	-1.018454	0.314065
H136	H	1.608699	-0.518454	0.814065
H137	H	1.167509	-1.020350	0.377486
H138	H	1.667509	-0.520350	0.877486
N139	N	0.913262	-0.976077	0.280593
N140	N	1.413262	-0.476077	0.780593
H141	H	0.882442	-0.930388	0.269835
H142	H	1.382442	-0.430388	0.769835
H143	H	0.890927	-1.007376	0.318824
H144	H	1.390927	-0.507376	0.818824
H145	H	0.604451	-0.308230	0.281854
H146	H	1.104451	0.191770	0.781854
N147	N	0.747773	-0.301492	0.275716
N148	N	1.247773	0.198508	0.775716
H149	H	0.714537	-0.268785	0.245923
H150	H	1.214537	0.231215	0.745923
H151	H	0.779507	-0.331604	0.244365
H152	H	1.279507	0.168396	0.744365
N153	N	1.092094	-0.852643	0.475887
N154	N	1.592094	-0.352643	0.975887
H155	H	1.139196	-0.875428	0.490764
H156	H	1.639196	-0.375428	0.990764
H157	H	1.054783	-0.870016	0.509615
H158	H	1.554783	-0.370016	1.009615
H159	H	1.091602	-0.985932	0.455108
H160	H	1.591602	-0.485932	0.955108
N161	N	1.037572	-0.840921	0.251296
N162	N	1.537572	-0.340921	0.751296
H163	H	1.073165	-0.810690	0.275285
H164	H	1.573165	-0.310690	0.775285
H165	H	1.012640	-0.809283	0.213524
H166	H	1.512640	-0.309283	0.713524
H167	H	0.955615	-0.853628	0.486834
H168	H	1.455615	-0.353628	0.986834
N169	N	0.891886	-0.526110	0.786552
N170	N	1.391886	-0.026110	1.286552
H171	H	0.864777	-0.553467	0.751017
H172	H	1.364777	-0.053467	1.251017
H173	H	0.858165	-0.495761	0.815698
H174	H	1.358165	0.004239	1.315698
N175	N	1.084939	-0.331333	0.641591
N176	N	1.584939	0.168667	1.141591
H177	H	1.057630	-0.294526	0.609994
H178	H	1.557630	0.205474	1.109994
H179	H	1.118690	-0.361701	0.612495
H180	H	1.618690	0.138299	1.112495
N181	N	1.078801	-0.337458	0.794124
N182	N	1.578801	0.162542	1.294124
H183	H	1.108663	-0.307325	0.760897
H184	H	1.608663	0.192675	1.260897
H185	H	1.110084	-0.370253	0.825886
H186	H	1.610084	0.129747	1.325886
N187	N	0.959035	-0.988453	0.505234
N188	N	1.459035	-0.488453	1.005234
H189	H	1.001815	-1.023169	0.505435
H190	H	1.501815	-0.523169	1.005435
H191	H	0.917022	-1.016287	0.522253
H192	H	1.417022	-0.516287	1.022253
H193	H	0.909480	-0.508344	0.644200
H194	H	1.409480	-0.008344	1.144200
H195	H	0.931095	-0.486502	1.108520
H196	H	1.431095	0.013498	1.608520
H197	H	0.273280	-0.337698	0.308713
H198	H	0.773280	0.162302	0.808713
N199	N	0.740264	-0.506221	0.462184
N200	N	1.240264	-0.006221	0.962184
H201	H	0.704737	-0.535902	0.489226
H202	H	1.204737	-0.035902	0.989226
H203	H	0.769431	-0.478783	0.495973
H204	H	1.269431	0.021217	0.995973
N205	N	0.914399	-0.835570	0.279932
N206	N	1.414399	-0.335570	0.779932
H207	H	0.876721	-0.851824	0.313758
H208	H	1.376721	-0.351824	0.813758
H209	H	0.903945	-0.853444	0.231708
H210	H	1.403945	-0.353444	0.731708
N211	N	0.873648	-0.982272	0.412259
N212	N	1.373648	-0.482272	0.912259
H213	H	0.877431	-1.013783	0.369792
H214	H	1.377431	-0.513783	0.869792
H215	H	0.841782	-0.937449	0.401204
H216	H	1.341782	-0.437449	0.901204
N217	N	0.872971	-0.840957	0.411838
N218	N	1.372971	-0.340957	0.911838
H219	H	0.837699	-0.859713	0.447129
H220	H	1.337699	-0.359713	0.947129
H221	H	0.860321	-0.857295	0.363609
H222	H	1.360321	-0.357295	0.863609
H223	H	1.023807	-0.974230	0.264344
H224	H	1.523807	-0.474230	0.764344
N225	N	1.111873	-0.304106	0.972772
N226	N	1.611873	0.195894	1.472772
H227	H	1.138981	-0.276746	1.008306
H228	H	1.638981	0.223254	1.508306
H229	H	1.084511	-0.267345	0.941178
H230	H	1.584511	0.232655	1.441178
H231	H	0.597908	-0.486918	0.444619
H232	H	1.097908	0.013082	0.944619
H233	H	1.094263	-0.321856	1.115133
H234	H	1.594263	0.178144	1.615133
H235	H	0.936434	-0.481139	0.975393
H236	H	1.436434	0.018861	1.475393
N237	N	0.256557	-0.528987	0.482946
N238	N	0.756557	-0.028987	0.982946
H239	H	0.204773	-0.519229	0.474058
H240	H	0.704773	-0.019229	0.974058
H241	H	0.267393	-0.520132	0.533664
H242	H	0.767393	-0.020132	1.033664
