data_functionalizedCrystal
_audit_creation_method	'MofGen! by Chris Wilmer'
_symmetry_space_group_name_H-M	'P1'
_symmetry_Int_Tables_number	1
_symmetry_cell_setting	triclinic
loop_
_symmetry_equiv_pos_as_xyz
  x,y,z
_cell_length_a	14.519709
_cell_length_b	13.596369
_cell_length_c	11.792254
_cell_angle_alpha	90.000552
_cell_angle_beta	83.939371
_cell_angle_gamma	90.000316
loop_
_atom_site_label
_atom_site_type_symbol
_atom_site_fract_x
_atom_site_fract_y
_atom_site_fract_z
O1	O	1.224420	0.081664	0.148772
O2	O	1.724420	0.581664	0.648772
O3	O	0.956008	0.081694	0.166293
O4	O	1.456008	0.581694	0.666293
O5	O	1.096722	0.081671	-0.007673
O6	O	1.596722	0.581671	0.492327
O7	O	1.083706	0.081686	0.322738
O8	O	1.583706	0.581686	0.822738
O9	O	1.096704	-0.081912	-0.007664
O10	O	1.596704	0.418088	0.492336
O11	O	0.955991	-0.081889	0.166302
O12	O	1.455991	0.418111	0.666302
O13	O	1.224403	-0.081919	0.148781
O14	O	1.724403	0.418081	0.648781
Zn15	Zn	1.090194	-0.107876	0.157543
Zn16	Zn	1.590194	0.392124	0.657543
Zn17	Zn	1.090217	0.107651	0.157531
Zn18	Zn	1.590217	0.607651	0.657531
O19	O	1.083689	-0.081896	0.322748
O20	O	1.583689	0.418104	0.822748
C21	C	0.921636	-0.000094	0.165481
C22	C	1.421636	0.499906	0.665481
C23	C	0.819246	-0.000083	0.163034
C24	C	1.319246	0.499917	0.663034
N25	N	1.090185	-0.254968	0.157551
N26	N	1.590185	0.245032	0.657551
C27	C	0.444317	-0.000128	0.154026
C28	C	0.944317	0.499872	0.654026
C29	C	0.548634	-0.000115	0.156528
C30	C	1.048634	0.499885	0.656528
C31	C	0.631778	-0.000104	0.158530
C32	C	1.131778	0.499896	0.658530
C33	C	0.736102	-0.000093	0.161032
C34	C	1.236102	0.499907	0.661032
C35	C	1.090190	-0.343966	0.157554
C36	C	1.590190	0.156034	0.657554
C37	C	1.090199	-0.455618	0.157546
C38	C	1.590199	0.044382	0.657546
C39	C	1.090211	-0.544608	0.157533
C40	C	1.590211	-0.044608	0.657533
C41	C	1.090221	-0.656267	0.157527
C42	C	1.590221	-0.156267	0.657527
C43	C	1.258774	-0.000129	0.149593
C44	C	1.758774	0.499871	0.649593
C45	C	1.361164	-0.000134	0.152040
C46	C	1.861164	0.499866	0.652040
C47	C	1.095893	-0.000120	-0.049955
C48	C	1.595893	0.499880	0.450045
C49	C	1.093439	-0.000119	-0.175954
C50	C	1.593439	0.499881	0.324046
N51	N	1.090233	0.254743	0.157514
N52	N	1.590233	0.754743	0.657514
C53	C	1.091445	-0.000115	-0.278280
C54	C	1.591445	0.499885	0.221720
C55	C	1.088952	-0.000106	-0.406652
C56	C	1.588952	0.499894	0.093348
C57	C	1.084518	-0.000103	0.365029
C58	C	1.584518	0.499897	0.865029
C59	C	1.086972	-0.000098	0.491028
C60	C	1.586972	0.499902	0.991028
