data_functionalizedCrystal
_audit_creation_method	'MofGen! by Chris Wilmer'
_symmetry_space_group_name_H-M	'P1'
_symmetry_Int_Tables_number	1
_symmetry_cell_setting	triclinic
loop_
_symmetry_equiv_pos_as_xyz
  x,y,z
_cell_length_a	16.120530
_cell_length_b	18.050590
_cell_length_c	16.120297
_cell_angle_alpha	87.128980
_cell_angle_beta	89.871860
_cell_angle_gamma	87.114013
loop_
_atom_site_label
_atom_site_type_symbol
_atom_site_fract_x
_atom_site_fract_y
_atom_site_fract_z
Zn1	Zn	1.247477	-0.376250	0.534553
Zn2	Zn	1.580811	-0.042916	0.867886
Zn3	Zn	1.914144	0.290417	1.201220
Zn4	Zn	1.254440	-0.494475	0.395492
Zn5	Zn	1.587773	-0.161142	0.728825
Zn6	Zn	1.921106	0.172192	1.062158
Zn7	Zn	1.115466	-0.363700	0.388471
Zn8	Zn	1.448800	-0.030367	0.721805
Zn9	Zn	1.782133	0.302967	1.055138
Zn10	Zn	1.108396	-0.493791	0.527461
Zn11	Zn	1.441729	-0.160458	0.860794
Zn12	Zn	1.775063	0.172876	1.194128
O13	O	1.181445	-0.432054	0.461494
O14	O	1.514778	-0.098721	0.794828
O15	O	1.848112	0.234613	1.128161
O16	O	1.364768	-0.397471	0.522012
O17	O	1.698101	-0.064137	0.855346
O18	O	2.031434	0.269196	1.188679
O19	O	1.241877	-0.472162	0.278195
O20	O	1.575211	-0.138828	0.611529
O21	O	1.908544	0.194505	0.944862
O22	O	1.133023	-0.261444	0.407879
O23	O	1.466357	0.071890	0.741213
O24	O	1.799690	0.405223	1.074546
O25	O	1.369883	-0.484330	0.419845
O26	O	1.703216	-0.150997	0.753178
O27	O	2.036550	0.182336	1.086511
O28	O	1.230011	-0.270664	0.515205
O29	O	1.563344	0.062670	0.848538
O30	O	1.896678	0.396003	1.181872
O31	O	1.139774	-0.376082	0.273037
O32	O	1.473108	-0.042749	0.606371
O33	O	1.806441	0.290585	0.939704
O34	O	0.998162	-0.375419	0.401003
O35	O	1.331495	-0.042085	0.734336
O36	O	1.664828	0.291248	1.067669
O37	O	1.120973	-0.483165	0.644767
O38	O	1.454306	-0.149831	0.978100
O39	O	1.787639	0.183502	1.311434
O40	O	0.992967	-0.470996	0.503118
O41	O	1.326301	-0.137663	0.836451
O42	O	1.659634	0.195671	1.169784
O43	O	1.223155	-0.396808	0.649978
O44	O	1.556489	-0.063474	0.983311
O45	O	1.889822	0.269859	1.316644
O46	O	1.235022	-0.598305	0.412968
O47	O	1.568355	-0.264972	0.746301
O48	O	1.901688	0.068361	1.079634
O49	O	1.127724	-0.597803	0.509925
O50	O	1.461057	-0.264470	0.843258
O51	O	1.794391	0.068864	1.176592
C52	C	0.965392	-0.421772	0.450529
C53	C	1.298725	-0.088439	0.783863
C54	C	1.632058	0.244895	1.117196
C55	C	0.872962	-0.417392	0.445858
C56	C	1.206296	-0.084059	0.779191
C57	C	1.539629	0.249275	1.112525
C58	C	0.703732	-0.409378	0.437337
C59	C	1.037065	-0.076045	0.770670
C60	C	1.370399	0.257288	1.104004
C61	C	0.659995	-0.454787	0.485712
C62	C	0.993329	-0.121454	0.819046
C63	C	1.326662	0.211880	1.152379
C64	C	0.565830	-0.450328	0.480971
C65	C	0.899163	-0.116995	0.814304
C66	C	1.232496	0.216339	1.147638
C67	C	0.797906	-0.413836	0.442077
C68	C	1.131239	-0.080503	0.775410
C69	C	1.464573	0.252831	1.108744
C70	C	1.181383	-0.625002	0.461458
C71	C	1.514716	-0.291668	0.794791
C72	C	1.848049	0.041665	1.128125
C73	C	1.181431	-0.707550	0.461474
C74	C	1.514764	-0.374217	0.794807
C75	C	1.848097	-0.040884	1.128141
C76	C	1.239891	-0.907256	0.408832
C77	C	1.573224	-0.573923	0.742165
C78	C	1.906557	-0.240589	1.075499
C79	C	1.256356	-0.960809	0.485754
C80	C	1.589689	-0.627476	0.819087
C81	C	1.923023	-0.294143	1.152421
C82	C	1.181476	-0.858684	0.461510
C83	C	1.514810	-0.525351	0.794843
C84	C	1.848143	-0.192018	1.128176
C85	C	1.165094	-0.952218	0.384626
C86	C	1.498427	-0.618885	0.717959
C87	C	1.831761	-0.285551	1.051293
C88	C	1.181522	-1.004673	0.461537
C89	C	1.514855	-0.671339	0.794871
C90	C	1.848189	-0.338006	1.128204
C91	C	1.197978	-0.911154	0.538473
C92	C	1.531312	-0.577821	0.871807
C93	C	1.864645	-0.244487	1.205140
C94	C	1.106684	-0.902555	0.437293
C95	C	1.440017	-0.569221	0.770626
C96	C	1.773350	-0.235888	1.103959
C97	C	1.123117	-0.956086	0.514265
C98	C	1.456451	-0.622753	0.847599
C99	C	1.789784	-0.289420	1.180932
C100	C	1.181452	-0.774584	0.461493
C101	C	1.514785	-0.441251	0.794826
C102	C	1.848119	-0.107917	1.128159
C103	C	1.181546	-1.088771	0.461563
C104	C	1.514879	-0.755438	0.794896
C105	C	1.848212	-0.422105	1.128230
C106	C	1.398342	-0.442377	0.472503
C107	C	1.731675	-0.109043	0.805836
C108	C	2.065008	0.224290	1.139169
C109	C	1.490770	-0.446776	0.477194
C110	C	1.824103	-0.113442	0.810527
C111	C	2.157437	0.219891	1.143860
C112	C	1.170499	-0.441310	0.678388
C113	C	1.503832	-0.107976	1.011722
C114	C	1.837165	0.225357	1.345055
C115	C	1.165834	-0.445254	0.770815
C116	C	1.499167	-0.111921	1.104149
C117	C	1.832501	0.221413	1.437482
C118	C	1.181529	-0.238355	0.461550
C119	C	1.514862	0.094979	0.794884
C120	C	1.848196	0.428312	1.128217
C121	C	1.181565	-0.155812	0.461574
C122	C	1.514898	0.177522	0.794907
C123	C	1.848232	0.510855	1.128241
C124	C	1.192396	-0.422783	0.245447
C125	C	1.525730	-0.089450	0.578780
C126	C	1.859063	0.243884	0.912113
C127	C	1.197222	-0.418637	0.153028
C128	C	1.530556	-0.085304	0.486361
C129	C	1.863889	0.248030	0.819695
C130	C	1.157287	-0.452437	0.940040
C131	C	1.490620	-0.119104	1.273373
C132	C	1.823954	0.214229	1.606707
C133	C	1.205767	-0.411456	0.983809
C134	C	1.539100	-0.078123	1.317142
C135	C	1.872433	0.255211	1.650476
C136	C	1.201011	-0.415453	1.077971
C137	C	1.534344	-0.082119	1.411304
C138	C	1.867678	0.251214	1.744638
C139	C	1.162042	-0.448441	0.845869
C140	C	1.495375	-0.115108	1.179202
C141	C	1.828708	0.218225	1.512536
H142	H	0.693272	-0.497010	0.530690
H143	H	1.026605	-0.163677	0.864023
H144	H	1.359938	0.169656	1.197356
C145	C	1.096393	-0.503886	0.984952
C146	C	1.429727	-0.170553	1.318285
C147	C	1.763060	0.162780	1.651619
N148	N	1.050530	-0.542638	1.018790
N149	N	1.383863	-0.209304	1.352123
N150	N	1.717196	0.124029	1.685456
H151	H	0.670458	-0.367158	0.392364
H152	H	1.003791	-0.033824	0.725697
H153	H	1.337124	0.299509	1.059031
C154	C	1.341829	-0.995187	0.513445
C155	C	1.675162	-0.661854	0.846779
C156	C	2.008496	-0.328520	1.180112
N157	N	1.406209	-1.021079	0.534297
N158	N	1.739543	-0.687746	0.867630
N159	N	2.072876	-0.354412	1.200963
H160	H	1.250842	-0.373368	0.950563
H161	H	1.584175	-0.040035	1.283896
H162	H	1.917509	0.293298	1.617229
H163	H	1.043433	-0.877095	0.416771
H164	H	1.376767	-0.543762	0.750105
H165	H	1.710100	-0.210429	1.083438
H166	H	1.289303	-0.885812	0.364334
H167	H	1.622637	-0.552478	0.697667
H168	H	1.955970	-0.219145	1.031000
H169	H	1.211787	-0.893067	0.603556
H170	H	1.545121	-0.559734	0.936890
H171	H	1.878454	-0.226401	1.270223
H172	H	1.073735	-0.977400	0.558879
H173	H	1.407068	-0.644067	0.892212
H174	H	1.740402	-0.310733	1.225546
H175	H	1.151219	-0.970396	0.319595
H176	H	1.484552	-0.637063	0.652929
H177	H	1.817885	-0.303729	0.986262
