data_functionalizedCrystal
_audit_creation_method	'MofGen! by Chris Wilmer'
_symmetry_space_group_name_H-M	'P1'
_symmetry_Int_Tables_number	1
_symmetry_cell_setting	triclinic
loop_
_symmetry_equiv_pos_as_xyz
  x,y,z
_cell_length_a	29.839134
_cell_length_b	21.295417
_cell_length_c	29.839126
_cell_angle_alpha	89.976722
_cell_angle_beta	90.035740
_cell_angle_gamma	89.974633
loop_
_atom_site_label
_atom_site_type_symbol
_atom_site_fract_x
_atom_site_fract_y
_atom_site_fract_z
Zn1	Zn	0.686815	0.250757	0.254121
Zn2	Zn	1.186815	0.750757	0.754121
Zn3	Zn	0.686743	0.356012	0.178989
Zn4	Zn	1.186743	0.856012	0.678989
Zn5	Zn	0.611679	0.250751	0.178991
Zn6	Zn	1.111679	0.750751	0.678991
Zn7	Zn	0.611660	0.355983	0.254078
Zn8	Zn	1.111660	0.855983	0.754078
O9	O	0.649224	0.303376	0.216545
O10	O	1.149224	0.803376	0.716545
O11	O	0.749672	0.264734	0.244172
O12	O	1.249672	0.764734	0.744172
O13	O	0.676764	0.342058	0.116122
O14	O	1.176764	0.842058	0.616122
O15	O	0.621685	0.162662	0.188976
O16	O	1.121685	0.662662	0.688976
O17	O	0.749620	0.342064	0.188973
O18	O	1.249620	0.842064	0.688973
O19	O	0.676886	0.162667	0.244174
O20	O	1.176886	0.662667	0.744174
O21	O	0.621615	0.264724	0.116123
O22	O	1.121615	0.764724	0.616123
O23	O	0.548810	0.264696	0.188933
O24	O	1.048810	0.764696	0.688933
O25	O	0.621651	0.342015	0.316951
O26	O	1.121651	0.842015	0.816951
O27	O	0.548795	0.342009	0.244100
O28	O	1.048795	0.842009	0.744100
O29	O	0.676867	0.264706	0.316982
O30	O	1.176867	0.764706	0.816982
O31	O	0.676745	0.444097	0.188931
O32	O	1.176745	0.944097	0.688931
O33	O	0.621581	0.444076	0.244098
O34	O	1.121581	0.944076	0.744098
C35	C	0.649165	0.466927	0.216520
C36	C	1.149165	0.966927	0.716520
C37	C	0.649181	0.536895	0.216524
C38	C	1.149181	1.036895	0.716524
C39	C	0.532502	0.303349	0.216512
C40	C	1.032502	0.803349	0.716512
C41	C	0.482567	0.303353	0.216509
C42	C	0.982567	0.803353	0.716509
C43	C	0.649265	0.303358	0.333723
C44	C	1.149265	0.803358	0.833723
C45	C	0.649282	0.303350	0.383658
C46	C	1.149282	0.803350	0.883658
C47	C	0.172926	0.343692	0.245235
C48	C	0.672926	0.843692	0.745235
C49	C	-0.014747	0.343710	0.245254
C50	C	0.485253	0.843710	0.745254
O51	O	-0.039011	0.377979	0.269659
O52	O	0.460989	0.877979	0.769659
N53	N	-0.038218	0.303399	0.216579
N54	N	0.461782	0.803399	0.716579
C55	C	-0.014767	0.263077	0.187898
C56	C	0.485233	0.763077	0.687898
O57	O	-0.039037	0.228786	0.163511
O58	O	0.460963	0.728786	0.663511
C59	C	0.172905	0.263057	0.187880
C60	C	0.672905	0.763057	0.687880
C61	C	0.196373	0.303375	0.216555
C62	C	0.696373	0.803375	0.716555
C63	C	0.196394	0.384007	0.273907
C64	C	0.696394	0.884007	0.773907
C65	C	0.243309	0.384004	0.273900
C66	C	0.743309	0.884004	0.773900
C67	C	0.266757	0.343687	0.245220
C68	C	0.766757	0.843687	0.745220
C69	C	0.243289	0.303373	0.216548
C70	C	0.743289	0.803373	0.716548
C71	C	0.196355	0.222733	0.159202
C72	C	0.696355	0.722733	0.659202
C73	C	0.243276	0.222730	0.159201
C74	C	0.743276	0.722730	0.659201
C75	C	0.266744	0.263048	0.187876
C76	C	0.766744	0.763048	0.687876
C77	C	0.313651	0.263053	0.187861
C78	C	0.813651	0.763053	0.687861
N79	N	0.337122	0.303365	0.216537
N80	N	0.837122	0.803365	0.716537
C81	C	0.313674	0.343682	0.245217
C82	C	0.813674	0.843682	0.745217
C83	C	-0.113298	0.263092	0.187908
C84	C	0.386702	0.763092	0.687908
C85	C	-0.160216	0.263098	0.187912
C86	C	0.339784	0.763098	0.687912
C87	C	-0.160193	0.343730	0.245269
C88	C	0.339807	0.843730	0.745269
C89	C	-0.113274	0.343727	0.245263
C90	C	0.386726	0.843727	0.745263
C91	C	-0.089827	0.303403	0.216584
C92	C	0.410173	0.803403	0.716584
C93	C	0.412200	0.343674	0.245200
C94	C	0.912200	0.843674	0.745200
C95	C	0.459120	0.343670	0.245189
C96	C	0.959120	0.843670	0.745189
C97	C	0.459093	0.263036	0.187833
C98	C	0.959093	0.763036	0.687833
C99	C	0.412177	0.263042	0.187842
C100	C	0.912177	0.763042	0.687842
C101	C	0.388732	0.303363	0.216529
C102	C	0.888732	0.803363	0.716529
O103	O	0.337943	0.228798	0.163473
O104	O	0.837943	0.728798	0.663473
O105	O	0.337952	0.377958	0.269607
O106	O	0.837952	0.877958	0.769607
C107	C	0.126010	0.343695	0.245242
C108	C	0.626010	0.843695	0.745242
C109	C	0.102542	0.303380	0.216569
C110	C	0.602542	0.803380	0.716569
C111	C	0.125990	0.263063	0.187889
C112	C	0.625990	0.763063	0.687889
C113	C	0.055624	0.303386	0.216573
C114	C	0.555624	0.803386	0.716573
C115	C	0.032177	0.343703	0.245252
C116	C	0.532177	0.843703	0.745252
C117	C	0.055647	0.384014	0.273928
C118	C	0.555647	0.884014	0.773928
C119	C	0.102563	0.384012	0.273921
C120	C	0.602563	0.884012	0.773921
C121	C	0.102519	0.222752	0.159213
C122	C	0.602519	0.722752	0.659213
C123	C	0.055604	0.222758	0.159222
C124	C	0.555604	0.722758	0.659222
C125	C	0.032156	0.263075	0.187902
C126	C	0.532156	0.763075	0.687902
C127	C	0.766403	0.303403	0.216577
C128	C	1.266403	0.803403	0.716577
C129	C	0.816337	0.303415	0.216591
C130	C	1.316337	0.803415	0.716591
C131	C	0.649296	0.139185	0.216580
C132	C	1.149296	0.639185	0.716580
C133	C	0.649326	0.069217	0.216594
C134	C	1.149326	0.569217	0.716594
C135	C	0.677930	0.569752	0.187828
C136	C	1.177930	1.069752	0.687828
C137	C	0.677951	0.635495	0.187838
C138	C	1.177951	1.135495	0.687838
C139	C	0.649215	0.668378	0.216540
C140	C	1.149215	1.168378	0.716540
C141	C	0.620464	0.635513	0.245241
C142	C	1.120464	1.135513	0.745241
C143	C	0.620447	0.569772	0.245234
C144	C	1.120447	1.069772	0.745234
N145	N	0.609915	0.771639	0.219954
N146	N	1.109915	1.271639	0.719954
N147	N	0.609933	0.834091	0.219958
N148	N	1.109933	1.334091	0.719958
C149	C	0.649266	0.866453	0.216565
C150	C	1.149266	1.366453	0.716565
N151	N	0.688581	0.834004	0.213159
N152	N	1.188581	1.334004	0.713159
N153	N	0.688563	0.771546	0.213152
N154	N	1.188563	1.271546	0.713152
C155	C	0.649231	0.739663	0.216551
C156	C	1.149231	1.239663	0.716551
C157	C	0.678040	0.970595	0.187879
C158	C	1.178040	1.470595	0.687879
C159	C	0.678062	1.036339	0.187892
C160	C	1.178062	1.536339	0.687892
C161	C	0.620571	1.036356	0.245293
C162	C	1.120571	1.536356	0.745293
C163	C	0.620553	0.970613	0.245282
C164	C	1.120553	1.470613	0.745282
C165	C	0.649287	0.937737	0.216573
C166	C	1.149287	1.437737	0.716573
C167	C	0.649210	0.303348	0.099822
C168	C	1.149210	0.803348	0.599822
C169	C	0.649280	0.303179	0.049888
C170	C	1.149280	0.803179	0.549888
C171	C	0.677992	0.343534	0.740247
C172	C	1.177992	0.843534	1.240247
C173	C	0.677992	0.343578	0.552574
C174	C	1.177992	0.843578	1.052574
O175	O	0.702398	0.377843	0.528312
O176	O	1.202398	0.877843	1.028312
N177	N	0.649280	0.303320	0.529103
N178	N	1.149280	0.803320	1.029103
C179	C	0.620563	0.263050	0.552552
C180	C	1.120563	0.763050	1.052552
O181	O	0.596137	0.228814	0.528282
O182	O	1.096137	0.728814	1.028282
C183	C	0.620560	0.263010	0.740225
C184	C	1.120560	0.763010	1.240225
C185	C	0.649278	0.303267	0.763694
C186	C	1.149278	0.803267	1.263694
C187	C	0.706707	0.383788	0.763716
C188	C	1.206707	0.883788	1.263716
C189	C	0.706708	0.383774	0.810632
C190	C	1.206708	0.883774	1.310632
C191	C	0.677994	0.343507	0.834078
C192	C	1.177994	0.843507	1.334078
C193	C	0.649279	0.303253	0.810609
C194	C	1.149279	0.803253	1.310609
C195	C	0.591841	0.222745	0.763673
C196	C	1.091841	0.722745	1.263673
C197	C	0.591842	0.222739	0.810595
C198	C	1.091842	0.722739	1.310595
C199	C	0.620560	0.262996	0.834064
C200	C	1.120560	0.762996	1.334064
C201	C	0.620566	0.262972	0.880971
C202	C	1.120566	0.762972	1.380971
N203	N	0.649279	0.303230	0.904443
N204	N	1.149279	0.803230	1.404443
C205	C	0.677993	0.343498	0.880996
C206	C	1.177993	0.843498	1.380996
C207	C	0.620567	0.263073	0.454022
C208	C	1.120567	0.763073	0.954022
C209	C	0.620568	0.263083	0.407104
C210	C	1.120568	0.763083	0.907104
C211	C	0.677997	0.343611	0.407129
C212	C	1.177997	0.843611	0.907129
C213	C	0.677998	0.343599	0.454048
C214	C	1.177998	0.843599	0.954048
C215	C	0.649279	0.303332	0.477493
C216	C	1.149279	0.803332	0.977493
C217	C	0.677994	0.343465	0.979522
C218	C	1.177994	0.843465	1.479522
C219	C	0.677994	0.343446	1.026442
C220	C	1.177994	0.843446	1.526442
C221	C	0.620563	0.262920	1.026413
C222	C	1.120563	0.762920	1.526413
C223	C	0.620564	0.262937	0.979497
C224	C	1.120564	0.762937	1.479497
C225	C	0.649281	0.303214	0.956053
C226	C	1.149281	0.803214	1.456053
O227	O	0.596170	0.228730	0.905262
O228	O	1.096170	0.728730	1.405262
O229	O	0.702408	0.377739	0.905274
O230	O	1.202408	0.877739	1.405274
C231	C	0.677990	0.343548	0.693332
C232	C	1.177990	0.843548	1.193332
C233	C	0.649275	0.303294	0.669863
C234	C	1.149275	0.803294	1.169863
C235	C	0.620561	0.263027	0.693309
C236	C	1.120561	0.763027	1.193309
C237	C	0.649276	0.303303	0.622945
C238	C	1.149276	0.803303	1.122945
C239	C	0.677990	0.343571	0.599499
C240	C	1.177990	0.843571	1.099499
C241	C	0.706703	0.383829	0.622970
C242	C	1.206703	0.883829	1.122970
C243	C	0.706704	0.383816	0.669886
C244	C	1.206704	0.883816	1.169886
C245	C	0.591849	0.222768	0.669838
C246	C	1.091849	0.722768	1.169838
C247	C	0.591850	0.222785	0.622922
C248	C	1.091850	0.722785	1.122922
C249	C	0.620564	0.263052	0.599476
C250	C	1.120564	0.763052	1.099476
H251	H	0.478225	0.376504	0.268539
H252	H	0.978225	0.876504	0.768539
H253	H	0.262364	0.189889	0.135849
H254	H	0.762364	0.689889	0.635849
O255	O	0.386861	0.219559	0.156915
O256	O	0.886861	0.719559	0.656915
H257	H	0.411049	0.191522	0.136972
H258	H	0.911049	0.691522	0.636972
O259	O	0.560881	0.179326	0.695121
O260	O	1.060881	0.679326	1.195121
H261	H	0.538006	0.207480	0.716478
H262	H	1.038006	0.707480	1.216478
O263	O	0.127873	0.427492	0.304853
O264	O	0.627873	0.927492	0.804853
H265	H	0.103680	0.455518	0.324798
H266	H	0.603680	0.955518	0.824798
O267	O	-0.185530	0.219622	0.156980
O268	O	0.314470	0.719622	0.656980
H269	H	-0.176509	0.170231	0.164752
H270	H	0.323491	0.670231	0.664752
H271	H	0.730092	0.416557	0.829736
H272	H	1.230092	0.916557	1.329736
H273	H	0.701381	0.376228	1.045548
H274	H	1.201381	0.876228	1.545548
O275	O	0.030370	0.427546	0.304843
O276	O	0.530370	0.927546	0.804843
H277	H	0.039401	0.416858	0.340122
H278	H	0.539401	0.916858	0.840122
O279	O	-0.087968	0.387205	0.276200
O280	O	0.412032	0.887205	0.776200
H281	H	-0.066572	0.359068	0.299091
H282	H	0.433428	0.859068	0.799091
O283	O	0.484386	0.219548	0.156902
O284	O	0.984386	0.719548	0.656902
H285	H	0.520953	0.226318	0.161722
H286	H	1.020953	0.726318	0.661722
H287	H	0.701476	1.063090	0.164525
H288	H	1.201476	1.563090	0.664525
O289	O	0.708925	0.534296	0.156865
O290	O	1.208925	1.034296	0.656865
H291	H	0.704082	0.483061	0.161677
H292	H	1.204082	0.983061	0.661677
H293	H	0.036500	0.189927	0.135868
H294	H	0.536500	0.689927	0.635868
O295	O	0.386916	0.387208	0.276106
O296	O	0.886916	0.887208	0.776106
H297	H	0.411123	0.415258	0.296026
H298	H	0.911123	0.915258	0.796026
O299	O	0.708959	0.670954	0.156890
O300	O	1.208959	1.170954	0.656890
H301	H	0.701264	0.658385	0.121619
H302	H	1.201264	1.158385	0.621619
O303	O	0.127806	0.179279	0.128269
O304	O	0.627806	0.679279	0.628269
H305	H	0.103599	0.151259	0.108327
H306	H	0.603599	0.651259	0.608327
O307	O	0.560878	0.179357	0.597610
O308	O	1.060878	0.679357	1.097610
H309	H	0.540912	0.151359	0.621801
H310	H	1.040912	0.651359	1.121801
O311	O	0.589535	0.935178	0.276229
O312	O	1.089535	1.435178	0.776229
H313	H	0.609620	0.905188	0.299110
H314	H	1.109620	1.405188	0.799110
H315	H	0.597068	0.662291	0.268611
H316	H	1.097068	1.162291	0.768611
O317	O	0.589573	1.071815	0.276247
O318	O	1.089573	1.571815	0.776247
H319	H	0.609677	1.101730	0.299128
H320	H	1.109677	1.601730	0.799128
O321	O	0.708972	0.386898	0.954239
O322	O	1.208972	0.886898	1.454239
H323	H	0.728941	0.414877	0.978447
H324	H	1.228941	0.914877	1.478447
H325	H	0.701382	0.376379	0.473153
H326	H	1.201382	0.876379	0.973153
H327	H	0.730090	0.416582	0.744631
H328	H	1.230090	0.916582	1.244631
O329	O	0.589430	0.534327	0.276177
O330	O	1.089430	1.034327	0.776177
H331	H	0.569447	0.568234	0.296134
H332	H	1.069447	1.068234	0.796134
H333	H	0.262413	0.416835	0.297251
H334	H	0.762413	0.916835	0.797251
O335	O	0.171107	0.427568	0.304791
O336	O	0.671107	0.927568	0.804791
H337	H	0.195316	0.455624	0.324704
H338	H	0.695316	0.955624	0.824704
H339	H	0.597186	0.230148	0.960387
H340	H	1.097186	0.730148	1.460387
H341	H	0.701378	0.376398	0.388031
H342	H	1.201378	0.876398	0.888031
H343	H	0.597188	0.230294	0.387999
H344	H	1.097188	0.730294	0.887999
H345	H	0.597179	0.230282	0.473107
H346	H	1.097179	0.730282	0.973107
H347	H	0.597186	0.230133	1.045511
H348	H	1.097186	0.730133	1.545511
H349	H	0.568455	0.189964	0.744573
H350	H	1.068455	0.689964	1.244573
H351	H	0.568455	0.189948	0.829681
H352	H	1.068455	0.689948	1.329681
H353	H	-0.179291	0.376557	0.268622
H354	H	0.320709	0.876557	0.768622
O355	O	0.737670	0.427247	0.695197
O356	O	1.237670	0.927247	1.195197
H357	H	0.757628	0.455253	0.671004
H358	H	1.257628	0.955253	1.171004
H359	H	0.730085	0.416614	0.603872
H360	H	1.230085	0.916614	1.103872
H361	H	0.701439	0.943826	0.164503
H362	H	1.201439	1.443826	0.664503
H363	H	-0.094212	0.230255	0.164552
H364	H	0.405788	0.730255	0.664552
H365	H	0.177255	0.189903	0.135851
H366	H	0.677255	0.689903	0.635851
