data_functionalizedCrystal
_audit_creation_method	'MofGen! by Chris Wilmer'
_symmetry_space_group_name_H-M	'P1'
_symmetry_Int_Tables_number	1
_symmetry_cell_setting	triclinic
loop_
_symmetry_equiv_pos_as_xyz
  x,y,z
_cell_length_a	14.519709
_cell_length_b	16.992695
_cell_length_c	16.053802
_cell_angle_alpha	92.741074
_cell_angle_beta	87.419624
_cell_angle_gamma	87.174184
loop_
_atom_site_label
_atom_site_type_symbol
_atom_site_fract_x
_atom_site_fract_y
_atom_site_fract_z
O1	O	1.234886	0.099504	-0.069320
O2	O	0.967279	0.111608	-0.069346
O3	O	1.100010	-0.008588	-0.069327
O4	O	1.102156	0.219700	-0.069340
O5	O	1.092702	-0.001999	0.069531
O6	O	0.959971	0.118197	0.069512
O7	O	1.227578	0.106092	0.069537
Zn8	Zn	1.092615	0.113191	0.091571
Zn9	Zn	1.102243	0.104510	-0.091380
O10	O	1.094848	0.226288	0.069518
C11	C	1.093596	-0.034510	0.000102
C12	C	1.085360	-0.121566	0.000101
C13	C	0.929225	0.114338	0.000080
C14	C	0.826723	0.112647	0.000070
C15	C	1.164820	-0.171694	0.000109
C16	C	1.157077	-0.253492	0.000101
C17	C	1.069873	-0.285160	0.000089
C18	C	0.990408	-0.235025	0.000079
C19	C	0.998152	-0.153229	0.000081
C20	C	1.037777	-0.528803	0.000075
C21	C	1.030038	-0.610605	0.000075
C22	C	1.196708	-0.629067	0.000095
C23	C	1.204444	-0.547269	0.000103
C24	C	1.124979	-0.497141	0.000088
N25	N	1.061956	-0.368770	0.000083
N26	N	1.132897	-0.413533	0.000088
C27	C	0.451379	0.106425	0.000108
C28	C	0.555811	0.108153	0.000097
C29	C	0.639048	0.109536	0.000088
C30	C	0.743487	0.111264	0.000079
C31	C	1.265632	0.103362	0.000110
C32	C	1.368135	0.105053	0.000114
C33	C	1.101262	0.252210	0.000088
C34	C	1.109498	0.339266	0.000083
N35	N	1.086050	0.119115	0.216431
N36	N	1.108814	0.098580	-0.216239
C37	C	1.142550	0.067989	0.260133
C38	C	1.137968	0.072141	0.347539
C39	C	1.076889	0.127422	0.391241
C40	C	1.020382	0.178549	0.347533
C41	C	1.024961	0.174393	0.260128
C42	C	1.056886	0.145552	0.652648
C43	C	1.052314	0.149705	0.740059
C44	C	1.169899	0.043295	0.740058
C45	C	1.174476	0.039147	0.652652
C46	C	1.117966	0.090272	0.608952
N47	N	1.072205	0.131668	0.480584
N48	N	1.122646	0.086022	0.519610
H49	H	1.235830	-0.145918	0.000123
H50	H	1.275455	-0.521492	0.000112
C51	C	1.284115	-0.684209	0.000102
C52	C	1.297920	-0.739568	0.072205
C53	C	1.385332	-0.794711	0.072208
C54	C	1.458939	-0.794494	0.000108
C55	C	1.445136	-0.739133	-0.072000
C56	C	1.357724	-0.683991	-0.072003
H57	H	1.243430	-0.739731	0.125582
H58	H	1.395549	-0.835693	0.125587
H59	H	1.523646	-0.835314	0.000110
H60	H	1.499626	-0.738971	-0.125377
H61	H	1.347507	-0.643009	-0.125382
C62	C	0.953193	0.239360	0.395601
C63	C	0.948199	0.243975	0.491743
C64	C	0.881010	0.304790	0.539808
C65	C	0.818816	0.360990	0.491731
C66	C	0.823809	0.356377	0.395584
C67	C	0.890997	0.295562	0.347519
H68	H	0.994240	0.202371	0.527336
H69	H	0.877315	0.308205	0.610982
H70	H	0.769080	0.406009	0.527312
H71	H	0.777767	0.397981	0.359990
H72	H	0.894692	0.292147	0.276345
H73	H	0.959022	-0.636384	0.000079
H74	H	0.973070	-0.487998	0.000063
H75	H	0.919405	-0.260815	0.000064
C76	C	0.985118	0.210517	0.788130
C77	C	0.909185	0.182596	0.848238
C78	C	0.841994	0.243406	0.896307
C79	C	0.850737	0.332137	0.884268
C80	C	0.926673	0.360062	0.824158
C81	C	0.993863	0.299252	0.776088
H82	H	0.902710	0.116908	0.857152
H83	H	0.785781	0.222733	0.940805
H84	H	0.800998	0.377152	0.919852
H85	H	0.933147	0.425750	0.815244
H86	H	1.050076	0.319925	0.731590
H87	H	1.221781	-0.294304	0.000109
H88	H	0.933447	-0.112414	0.000074
C89	C	1.209739	0.007178	0.212065
C90	C	1.271884	-0.049062	0.260141
C91	C	1.339072	-0.109877	0.212076
C92	C	1.344116	-0.114452	0.115935
C93	C	1.281970	-0.058210	0.067853
C94	C	1.214781	0.002605	0.115918
H95	H	1.268151	-0.045676	0.331316
H96	H	1.385077	-0.151510	0.247670
H97	H	1.393853	-0.159471	0.080354
H98	H	1.285702	-0.061595	-0.003322
H99	H	1.168777	0.044238	0.080324
H100	H	1.183974	0.030510	0.383121
H101	H	1.224211	-0.005867	0.617072
H102	H	1.215905	0.001671	0.775647
H103	H	1.010876	0.187181	0.617074
H104	H	0.978951	0.216024	0.224547
