data_functionalizedCrystal
_audit_creation_method	'MofGen! by Chris Wilmer'
_symmetry_space_group_name_H-M	'P1'
_symmetry_Int_Tables_number	1
_symmetry_cell_setting	triclinic
loop_
_symmetry_equiv_pos_as_xyz
  x,y,z
_cell_length_a	21.295418
_cell_length_b	21.295417
_cell_length_c	12.759393
_cell_angle_alpha	90.039170
_cell_angle_beta	90.040879
_cell_angle_gamma	90.046319
loop_
_atom_site_label
_atom_site_type_symbol
_atom_site_fract_x
_atom_site_fract_y
_atom_site_fract_z
Zn1	Zn	0.962338	-0.250306	0.594554
Zn2	Zn	0.962246	-0.355590	0.418850
Zn3	Zn	0.857067	-0.250368	0.418824
Zn4	Zn	0.857031	-0.355571	0.594423
O5	O	0.909670	-0.302959	0.506663
O6	O	1.050415	-0.264255	0.571312
O7	O	0.948270	-0.341666	0.271826
O8	O	0.871085	-0.162270	0.442179
O9	O	1.050347	-0.341607	0.442223
O10	O	0.948427	-0.162225	0.571286
O11	O	0.870995	-0.264360	0.271807
O12	O	0.768972	-0.264341	0.442052
O13	O	0.871024	-0.341573	0.741462
O14	O	0.768946	-0.341633	0.571064
O15	O	0.948393	-0.264236	0.741557
O16	O	0.948235	-0.443677	0.442097
O17	O	0.870934	-0.443663	0.571089
C18	C	0.746119	-0.302992	0.506542
C19	C	0.676150	-0.303021	0.506515
C20	C	0.643287	-0.343320	0.573591
C21	C	0.577544	-0.343305	0.573638
C22	C	0.544668	-0.302997	0.506591
C23	C	0.577540	-0.262690	0.439510
C24	C	0.643281	-0.262702	0.439472
N25	N	0.441395	-0.298087	0.414700
N26	N	0.378943	-0.298079	0.414738
C27	C	0.346593	-0.302957	0.506702
N28	N	0.379054	-0.307855	0.598627
N29	N	0.441511	-0.307866	0.598587
C30	C	0.473383	-0.302979	0.506625
C31	C	0.242444	-0.343241	0.573835
C32	C	0.176700	-0.343221	0.573884
C33	C	0.176697	-0.262609	0.439746
C34	C	0.242440	-0.262626	0.439707
C35	C	0.275309	-0.302945	0.506750
C36	C	0.909588	-0.466510	0.506605
C37	C	0.909610	-0.536479	0.506615
C38	C	0.949896	-0.569332	0.439517
C39	C	0.949926	-0.635074	0.439541
C40	C	0.909658	-0.667961	0.506651
C41	C	0.869369	-0.635100	0.573762
C42	C	0.869345	-0.569359	0.573744
N43	N	0.854590	-0.771241	0.514620
N44	N	0.854615	-0.833693	0.514631
C45	C	0.909728	-0.866036	0.506711
N46	N	0.964817	-0.833568	0.498760
N47	N	0.964792	-0.771111	0.498743
C48	C	0.909679	-0.739246	0.506679
C49	C	0.950050	-0.970174	0.439636
C50	C	0.950081	-1.035918	0.439667
C51	C	0.869518	-1.035942	0.573882
C52	C	0.869493	-0.970200	0.573857
C53	C	0.909758	-0.937320	0.506728
C54	C	1.073861	-0.302926	0.506785
C55	C	1.143829	-0.302912	0.506837
C56	C	0.909714	-0.302895	0.780696
C57	C	0.909733	-0.302868	0.897473
C58	C	0.909770	-0.138768	0.506744
C59	C	0.909813	-0.068800	0.506779
C60	C	0.909663	-0.302977	0.233695
C61	C	0.909766	-0.302826	0.116919
C62	C	0.950025	-0.262595	0.952387
C63	C	0.950040	-0.262572	1.062111
C64	C	0.869470	-0.343102	1.061998
C65	C	0.869452	-0.343121	0.952276
C66	C	0.990306	-0.222342	0.897584
C67	C	1.030601	-0.182066	0.952498
C68	C	1.030616	-0.182044	1.062222
C69	C	0.990336	-0.222297	1.117032
H70	H	0.269198	-0.229813	0.385081
H71	H	0.269208	-0.376068	0.628431
H72	H	0.149930	-0.229787	0.385160
C73	C	1.074939	-0.137737	1.122624
N74	N	1.108327	-0.104367	1.168116
H75	H	0.982684	-0.542563	0.384860
H76	H	0.982734	-0.661829	0.384902
C77	C	0.825223	-1.072114	0.647707
N78	N	0.791860	-1.099362	0.703315
C79	C	0.825071	-0.671277	0.647579
N80	N	0.791706	-0.698525	0.703182
H81	H	0.670045	-0.376151	0.628184
H82	H	0.149944	-0.376037	0.628512
C83	C	0.679432	-0.218371	0.365675
N84	N	0.706663	-0.184982	0.310086
H85	H	0.550781	-0.376121	0.628263
C86	C	0.825132	-0.387427	0.891867
N87	N	0.791750	-0.420799	0.846368
H88	H	0.990344	-0.222268	1.206377
H89	H	0.836538	-0.542609	0.628384
H90	H	0.982891	-1.062666	0.385030
C91	C	0.541375	-0.218351	0.365757
N92	N	0.514135	-0.184952	0.310207
C93	C	0.994352	-0.934004	0.365809
N94	N	1.027722	-0.906762	0.310206
H95	H	0.836685	-0.943449	0.628489
H96	H	0.990299	-0.222358	0.808241
H97	H	1.063392	-0.149290	0.907864
C98	C	0.825165	-0.387378	1.122294
N99	N	0.791795	-0.420729	1.167709
