data_functionalizedCrystal
_audit_creation_method	'MofGen! by Chris Wilmer'
_symmetry_space_group_name_H-M	'P1'
_symmetry_Int_Tables_number	1
_symmetry_cell_setting	triclinic
loop_
_symmetry_equiv_pos_as_xyz
  x,y,z
_cell_length_a	19.288864
_cell_length_b	14.044190
_cell_length_c	18.366186
_cell_angle_alpha	89.989358
_cell_angle_beta	89.977106
_cell_angle_gamma	88.164010
loop_
_atom_site_label
_atom_site_type_symbol
_atom_site_fract_x
_atom_site_fract_y
_atom_site_fract_z
O1	O	0.928950	0.118215	-0.060793
O2	O	1.428950	0.618215	0.439207
O3	O	0.727715	0.134162	-0.060745
O4	O	1.227715	0.634162	0.439255
O5	O	0.825309	-0.011784	-0.060754
O6	O	1.325309	0.488216	0.439246
O7	O	0.831356	0.264160	-0.060784
O8	O	1.331356	0.764160	0.439216
O9	O	0.825291	-0.011791	0.060345
O10	O	1.325291	0.488209	0.560345
O11	O	0.727696	0.134154	0.060355
O12	O	1.227696	0.634154	0.560355
O13	O	0.928932	0.118207	0.060306
O14	O	1.428932	0.618207	0.560306
Zn15	Zn	0.828311	0.126180	0.079558
Zn16	Zn	1.328311	0.626180	0.579558
Zn17	Zn	0.828336	0.126189	-0.079996
Zn18	Zn	1.328336	0.626189	0.420004
O19	O	0.831337	0.264153	0.060315
O20	O	1.331337	0.764153	0.560315
C21	C	0.701796	0.133645	-0.000189
C22	C	1.201796	0.633645	0.499811
C23	C	0.624593	0.132105	-0.000169
C24	C	1.124593	0.632105	0.499831
C25	C	0.585401	0.217739	-0.000190
C26	C	1.085401	0.717739	0.499810
C27	C	0.512861	0.216292	-0.000198
C28	C	1.012861	0.716292	0.499802
C29	C	0.479516	0.129205	-0.000200
C30	C	0.979516	0.629205	0.499800
C31	C	0.518718	0.043560	-0.000175
C32	C	1.018718	0.543560	0.499825
C33	C	0.591256	0.045010	-0.000160
C34	C	1.091256	0.545010	0.499840
C35	C	0.366861	0.060749	-0.042643
C36	C	0.866861	0.560749	0.457357
C37	C	0.294323	0.059303	-0.042663
C38	C	0.794323	0.559303	0.457337
C39	C	0.255783	0.124731	-0.000243
C40	C	0.755783	0.624731	0.499757
C41	C	0.289788	0.191622	0.042187
C42	C	0.789788	0.691622	0.542187
C43	C	0.362327	0.193071	0.042202
C44	C	0.862327	0.693071	0.542202
C45	C	0.400861	0.127624	-0.000216
C46	C	0.900861	0.627624	0.499784
C47	C	0.137934	0.208802	-0.000272
C48	C	0.637934	0.708802	0.499728
C49	C	0.065393	0.207351	-0.000275
C50	C	0.565393	0.707351	0.499725
C51	C	0.071251	0.034617	-0.000259
C52	C	0.571251	0.534617	0.499741
C53	C	0.143791	0.036071	-0.000248
C54	C	0.643791	0.536071	0.499752
C55	C	0.177128	0.123165	-0.000258
C56	C	0.677128	0.623165	0.499742
C57	C	0.822655	-0.047091	-0.000201
C58	C	1.322655	0.452909	0.499799
C59	C	0.814765	-0.152283	-0.000193
C60	C	1.314765	0.347717	0.499807
C61	C	0.856297	-0.402747	-0.000232
C62	C	1.356297	0.097253	0.499768
C63	C	0.800353	-0.344879	-0.000213
C64	C	1.300353	0.155121	0.499787
C65	C	0.808374	-0.237709	-0.000202
C66	C	1.308374	0.262291	0.499798
C67	C	0.848277	-0.509927	-0.000243
C68	C	1.348277	-0.009927	0.499757
C69	C	0.954851	0.118724	-0.000252
C70	C	1.454851	0.618724	0.499748
C71	C	1.032053	0.120264	-0.000276
C72	C	1.532053	0.620264	0.499724
C73	C	0.833991	0.299460	-0.000239
C74	C	1.333991	0.799460	0.499761
C75	C	0.841881	0.404652	-0.000252
C76	C	1.341881	0.904652	0.499748
N77	N	0.828299	0.126173	0.188449
N78	N	1.328299	0.626173	0.688449
N79	N	0.828352	0.126189	-0.188887
N80	N	1.328352	0.626189	0.311113
C81	C	0.871532	0.061580	0.226545
C82	C	1.371532	0.561580	0.726545
C83	C	0.871536	0.061576	0.302773
C84	C	1.371536	0.561576	0.802773
C85	C	0.828315	0.126181	0.340901
C86	C	1.328315	0.626181	0.840901
C87	C	0.785074	0.190778	0.302796
C88	C	1.285074	0.690778	0.802796
C89	C	0.785066	0.190775	0.226570
C90	C	1.285066	0.690775	0.726570
C91	C	0.824566	0.212524	0.461654
C92	C	1.324566	0.712524	0.961654
C93	C	0.824579	0.212529	0.537879
C94	C	1.324579	0.712529	1.037879
C95	C	0.828336	0.126192	0.576009
C96	C	1.328336	0.626192	1.076009
C97	C	0.832094	0.039847	0.537905
C98	C	1.332094	0.539847	1.037905
C99	C	0.832086	0.039843	0.461679
C100	C	1.332086	0.539843	0.961679
C101	C	0.828319	0.126192	0.423556
C102	C	1.328319	0.626192	0.923556
C103	C	0.871575	0.061590	0.696760
C104	C	1.371575	0.561590	1.196760
C105	C	0.871574	0.061584	0.772989
C106	C	1.371574	0.561584	1.272989
C107	C	0.785116	0.190795	0.773011
C108	C	1.285116	0.690795	1.273011
C109	C	0.785113	0.190792	0.696783
C110	C	1.285113	0.690792	1.196783
C111	C	0.828346	0.126191	0.658662
C112	C	1.328346	0.626191	1.158662
H113	H	0.390011	0.247533	0.076752
H114	H	0.890011	0.747533	0.576752
H115	H	0.623167	-0.024726	-0.000143
H116	H	1.123167	0.475274	0.499857
H117	H	0.835152	-0.030457	0.568949
H118	H	1.335152	0.469543	1.068949
N119	N	0.732704	-0.383675	-0.000190
N120	N	1.232704	0.116325	0.499810
N121	N	0.680101	-0.329328	-0.000165
N122	N	1.180101	0.170672	0.499835
H123	H	0.632325	-0.356731	-0.000146
H124	H	1.132325	0.143269	0.499854
N125	N	0.915637	-0.004476	0.657776
N126	N	1.415637	0.495524	1.157776
N127	N	0.909160	-0.092046	0.666308
N128	N	1.409160	0.407954	1.166308
H129	H	0.940245	-0.138729	0.638759
H130	H	1.440245	0.361271	1.138759
N131	N	0.923931	-0.363919	-0.000243
N132	N	1.423931	0.136081	0.499757
N133	N	0.930432	-0.275651	-0.000233
N134	N	1.430432	0.224349	0.499767
H135	H	0.978198	-0.248217	-0.000240
H136	H	1.478198	0.251783	0.499760
H137	H	0.821496	0.282834	0.430614
H138	H	1.321496	0.782834	0.930614
N139	N	0.740925	0.256759	0.341751
N140	N	1.240925	0.756759	0.841751
N141	N	0.740938	0.256755	0.409809
N142	N	1.240938	0.756755	0.909809
H143	H	0.709753	0.303352	0.437322
H144	H	1.209753	0.803352	0.937322
H145	H	0.258410	0.244899	0.076729
H146	H	0.758410	0.744899	0.576729
H147	H	0.906733	0.008975	0.195509
H148	H	1.406733	0.508975	0.695509
H149	H	0.906777	0.008980	0.804008
H150	H	1.406777	0.508980	1.304008
N151	N	0.915701	-0.004417	0.341687
N152	N	1.415701	0.495583	0.841687
N153	N	0.954294	-0.062093	0.307642
N154	N	1.454294	0.437907	0.807642
H155	H	0.985486	-0.108701	0.335122
H156	H	1.485486	0.391299	0.835122
H157	H	0.266642	0.004840	-0.077215
H158	H	0.766642	0.504840	0.422785
H159	H	0.835144	-0.030463	0.430657
H160	H	1.335144	0.469537	0.930657
H161	H	0.749922	0.243394	0.804055
H162	H	1.249922	0.743394	1.304055
H163	H	0.749912	0.243394	0.665763
H164	H	1.249912	0.743394	1.165763
N165	N	0.171981	0.297771	-0.000277
N166	N	0.671981	0.797771	0.499723
N167	N	0.136975	0.374227	-0.000287
N168	N	0.636975	0.874227	0.499713
H169	H	0.161019	0.437062	-0.000289
H170	H	0.661019	0.937062	0.499711
H171	H	0.749860	0.243375	0.195551
H172	H	1.249860	0.743375	0.695551
N173	N	0.619441	0.306709	-0.000202
N174	N	1.119441	0.806709	0.499798
N175	N	0.584433	0.383163	-0.000222
N176	N	1.084433	0.883163	0.499778
H177	H	0.608475	0.446001	-0.000231
H178	H	1.108475	0.946001	0.499769
N179	N	0.472826	0.303777	-0.000215
N180	N	0.972826	0.803777	0.499785
N181	N	0.502600	0.381531	-0.000220
N182	N	1.002600	0.881531	0.499780
H183	H	0.474328	0.443319	-0.000232
H184	H	0.974328	0.943319	0.499768
N185	N	0.820750	0.300733	0.576786
N186	N	1.320750	0.800733	1.076786
N187	N	0.817389	0.377813	0.542735
N188	N	1.317389	0.877813	1.042735
H189	H	0.814686	0.440110	0.570211
H190	H	1.314686	0.940110	1.070211
H191	H	0.033483	0.277088	-0.000288
H192	H	0.533483	0.777088	0.499712
H193	H	0.044103	-0.036290	-0.000306
H194	H	0.544103	0.463710	0.499694
H195	H	0.175702	-0.033662	-0.000236
H196	H	0.675702	0.466338	0.499764
H197	H	0.398235	0.007467	-0.077191
H198	H	0.898235	0.507467	0.422809
H199	H	0.491564	-0.027346	-0.000186
H200	H	0.991564	0.472654	0.499814
