data_functionalizedCrystal
_audit_creation_method	'MofGen! by Chris Wilmer'
_symmetry_space_group_name_H-M	'P1'
_symmetry_Int_Tables_number	1
_symmetry_cell_setting	triclinic
loop_
_symmetry_equiv_pos_as_xyz
  x,y,z
_cell_length_a	10.654545
_cell_length_b	11.792241
_cell_length_c	9.730223
_cell_angle_alpha	90.006376
_cell_angle_beta	90.003812
_cell_angle_gamma	84.338247
loop_
_atom_site_label
_atom_site_type_symbol
_atom_site_fract_x
_atom_site_fract_y
_atom_site_fract_z
O1	O	1.667393	0.159398	0.114277
O2	O	1.301871	0.174592	0.114283
O3	O	1.493502	0.001845	0.114270
O4	O	1.475762	0.332145	0.114290
O5	O	1.493487	0.001834	-0.114310
O6	O	1.301855	0.174581	-0.114297
O7	O	1.667378	0.159388	-0.114303
Zn8	Zn	1.484614	0.166983	-0.150592
Zn9	Zn	1.484634	0.166997	0.150572
O10	O	1.475746	0.332135	-0.114290
C11	C	1.255068	0.173472	-0.000007
C12	C	1.115634	0.170138	-0.000005
C13	C	1.050126	0.168562	-0.124604
C14	C	0.919115	0.165410	-0.124605
C15	C	0.919132	0.165414	0.124606
C16	C	1.050142	0.168558	0.124604
C17	C	1.492380	-0.040454	-0.000020
C18	C	1.489045	-0.166475	-0.000018
C19	C	1.482911	-0.397202	0.000005
C20	C	1.486319	-0.268809	-0.000008
C21	C	1.714180	0.160507	-0.000011
C22	C	1.853614	0.163842	-0.000004
C23	C	1.476868	0.374433	0.000002
C24	C	1.480204	0.500455	0.000010
N25	N	1.484610	0.166973	-0.356129
C26	C	1.408008	0.097512	-0.571995
C27	C	1.407992	0.097496	-0.428112
C28	C	1.561259	0.236461	-0.428036
C29	C	1.561281	0.236470	-0.571916
N30	N	1.484649	0.166998	0.356108
H31	H	1.345610	0.040943	-0.630593
H32	H	0.865792	0.164129	0.226058
H33	H	1.623648	0.293024	-0.369416
O34	O	1.113584	0.170136	0.245772
C35	C	1.027691	0.168049	0.355755
H36	H	0.929341	0.201680	0.319238
H37	H	1.026325	0.076818	0.394058
C38	C	1.189364	0.202273	0.518333
C39	C	1.068570	0.243588	0.473485
H40	H	1.214581	0.248865	0.590958
H41	H	1.247233	0.203675	0.444237
H42	H	1.188209	0.126247	0.550243
H43	H	1.069729	0.319607	0.441560
H44	H	1.010701	0.242201	0.547579
H45	H	1.345585	0.040913	-0.369579
O46	O	1.635768	0.304079	-0.641553
C47	C	1.703416	0.365381	-0.547177
H48	H	1.651460	0.371569	-0.444625
H49	H	1.801673	0.319447	-0.531859
C50	C	1.778581	0.478438	-0.729263
C51	C	1.714761	0.486045	-0.603310
H52	H	1.785585	0.552867	-0.763889
H53	H	1.733009	0.437135	-0.792848
H54	H	1.860455	0.440154	-0.716481
H55	H	1.632884	0.524315	-0.616096
H56	H	1.760320	0.527358	-0.539728
H57	H	1.103446	0.169848	-0.226069
H58	H	0.865784	0.164128	-0.226066
