data_functionalizedCrystal
_audit_creation_method	'MofGen! by Chris Wilmer'
_symmetry_space_group_name_H-M	'P1'
_symmetry_Int_Tables_number	1
_symmetry_cell_setting	triclinic
loop_
_symmetry_equiv_pos_as_xyz
  x,y,z
_cell_length_a	14.971486
_cell_length_b	19.188930
_cell_length_c	18.266242
_cell_angle_alpha	89.990449
_cell_angle_beta	89.999167
_cell_angle_gamma	83.379455
loop_
_atom_site_label
_atom_site_type_symbol
_atom_site_fract_x
_atom_site_fract_y
_atom_site_fract_z
O1	O	1.186466	0.090986	-0.060805
O2	O	1.686466	0.590986	0.439195
O3	O	0.926008	0.101882	-0.060826
O4	O	1.426008	0.601882	0.439174
O5	O	1.063753	-0.005198	-0.060801
O6	O	1.563753	0.494802	0.439199
O7	O	1.048721	0.198065	-0.060831
O8	O	1.548721	0.698065	0.439169
O9	O	1.063738	-0.005200	0.060961
O10	O	1.563738	0.494800	0.560961
O11	O	0.925993	0.101879	0.060936
O12	O	1.425993	0.601879	0.560936
O13	O	1.186450	0.090984	0.060957
O14	O	1.686450	0.590984	0.560957
Zn15	Zn	1.056219	0.096431	0.080279
Zn16	Zn	1.556219	0.596431	0.580279
Zn17	Zn	1.056239	0.096434	-0.080148
Zn18	Zn	1.556239	0.596434	0.419852
O19	O	1.048705	0.198063	0.060931
O20	O	1.548705	0.698063	0.560931
C21	C	0.892678	0.101393	0.000052
C22	C	1.392678	0.601393	0.500052
C23	C	0.793389	0.099933	0.000045
C24	C	1.293389	0.599933	0.500045
C25	C	1.063259	-0.031211	0.000082
C26	C	1.563259	0.468789	0.500082
C27	C	1.061797	-0.108721	0.000088
C28	C	1.561797	0.391279	0.500088
C29	C	0.735831	0.162839	0.000037
C30	C	1.235831	0.662839	0.500037
C31	C	0.642539	0.161463	0.000048
C32	C	1.142539	0.661463	0.500048
C33	C	0.606806	0.097180	0.000062
C34	C	1.106806	0.597180	0.500062
C35	C	0.664371	0.034269	0.000072
C36	C	1.164371	0.534269	0.500072
C37	C	0.757662	0.035646	0.000066
C38	C	1.257662	0.535646	0.500066
C39	C	0.469924	0.031403	0.000083
C40	C	0.969924	0.531403	0.500083
C41	C	0.376627	0.030026	0.000087
C42	C	0.876627	0.530026	0.500087
C43	C	0.354801	0.157221	0.000064
C44	C	0.854801	0.657221	0.500064
C45	C	0.448092	0.158598	0.000058
C46	C	0.948092	0.658598	0.500058
C47	C	0.505650	0.095686	0.000067
C48	C	1.005650	0.595686	0.500067
C49	C	1.142622	-0.153384	0.000098
C50	C	1.642622	0.346616	0.500098
C51	C	1.141249	-0.226213	0.000087
C52	C	1.641249	0.273787	0.500087
C53	C	1.059047	-0.254374	0.000079
C54	C	1.559047	0.245626	0.500079
C55	C	0.978212	-0.209700	0.000065
C56	C	1.478212	0.290300	0.500065
C57	C	0.979587	-0.136873	0.000070
C58	C	1.479587	0.363127	0.500070
N59	N	0.996208	-0.362582	0.041512
N60	N	1.496208	0.137418	0.541512
N61	N	0.994908	-0.431765	0.041510
N62	N	1.494908	0.068235	0.541510
C63	C	1.054899	-0.473796	0.000064
C64	C	1.554899	0.026204	0.500064
N65	N	1.116254	-0.444032	-0.041369
N66	N	1.616254	0.055968	0.458631
N67	N	1.117557	-0.374843	-0.041363
N68	N	1.617557	0.125157	0.458637
C69	C	1.057547	-0.333341	0.000074
C70	C	1.557547	0.166659	0.500074
C71	C	1.134240	-0.597429	0.000060
C72	C	1.634240	-0.097429	0.500060
C73	C	1.132864	-0.670258	0.000044
C74	C	1.632864	-0.170258	0.500044
C75	C	0.969825	-0.653744	0.000030
C76	C	1.469825	-0.153744	0.500030
C77	C	0.971203	-0.580916	0.000039
C78	C	1.471203	-0.080916	0.500039
C79	C	1.053413	-0.552763	0.000058
C80	C	1.553413	-0.052763	0.500058
C81	C	1.219780	0.091472	0.000077
C82	C	1.719780	0.591472	0.500077
C83	C	1.319070	0.092932	0.000079
C84	C	1.819070	0.592932	0.500079
C85	C	1.049200	0.224077	0.000047
C86	C	1.549200	0.724077	0.500047
C87	C	1.050661	0.301586	0.000036
C88	C	1.550661	0.801586	0.500036
N89	N	1.056212	0.096429	0.189765
N90	N	1.556212	0.596429	0.689765
C91	C	1.117245	0.049031	0.772054
C92	C	1.617245	0.549031	1.272054
C93	C	1.117247	0.049032	0.695409
C94	C	1.617247	0.549032	1.195409
C95	C	1.056238	0.096429	0.657078
C96	C	1.556238	0.596429	1.157078
C97	C	0.995238	0.143840	0.695398
C98	C	1.495238	0.643840	1.195398
C99	C	0.995244	0.143842	0.772042
C100	C	1.495244	0.643842	1.272042
N101	N	0.977052	0.105222	0.536744
N102	N	1.477052	0.605222	1.036744
N103	N	0.977049	0.105216	0.463936
N104	N	1.477049	0.605216	0.963936
C105	C	1.056216	0.096427	0.426156
C106	C	1.556216	0.596427	0.926156
N107	N	1.135390	0.087631	0.463934
N108	N	1.635390	0.587631	0.963934
N109	N	1.135392	0.087633	0.536748
N110	N	1.635392	0.587633	1.036748
C111	C	1.056224	0.096433	0.573971
C112	C	1.556224	0.596433	1.073971
C113	C	1.117218	0.049024	0.304737
C114	C	1.617218	0.549024	0.804737
C115	C	1.117221	0.049031	0.228091
C116	C	1.617221	0.549031	0.728091
C117	C	0.995204	0.143835	0.228082
C118	C	1.495204	0.643835	0.728082
C119	C	0.995209	0.143832	0.304727
C120	C	1.495209	0.643832	0.804727
C121	C	1.056215	0.096423	0.343050
C122	C	1.556215	0.596423	0.843050
N123	N	1.056250	0.096433	0.810365
N124	N	1.556250	0.596433	1.310365
H125	H	0.764917	0.215186	0.000025
H126	H	1.264917	0.715186	0.500025
H127	H	1.198683	-0.706623	0.000048
H128	H	1.698683	-0.206623	0.500048
H129	H	0.902894	-0.676672	0.000021
H130	H	1.402894	-0.176672	0.500021
N131	N	0.532001	-0.036453	0.000091
N132	N	1.032001	0.463547	0.500091
H133	H	0.571191	-0.038715	-0.045048
H134	H	1.071191	0.461285	0.454952
H135	H	0.571139	-0.038678	0.045256
H136	H	1.071139	0.461322	0.545256
H137	H	1.209564	-0.130467	0.000111
H138	H	1.709564	0.369533	0.500111
N139	N	0.889548	-0.240065	0.000066
N140	N	1.389548	0.259935	0.500066
H141	H	0.854155	-0.223775	-0.045074
H142	H	1.354155	0.276225	0.454926
H143	H	0.901011	-0.292973	0.000096
H144	H	1.401011	0.207027	0.500096
H145	H	1.207068	-0.262585	0.000092
H146	H	1.707068	0.237415	0.500092
N147	N	0.929401	0.194951	0.186742
N148	N	1.429401	0.694951	0.686742
H149	H	0.865955	0.186829	0.200085
H150	H	1.365955	0.686829	0.700085
H151	H	0.939583	0.244497	0.200083
H152	H	1.439583	0.744497	0.700083
H153	H	0.945538	0.182428	0.335922
H154	H	1.445538	0.682428	0.835922
N155	N	0.892409	-0.088695	0.000058
N156	N	1.392409	0.411305	0.500058
H157	H	0.840124	-0.117582	0.000050
H158	H	1.340124	0.382418	0.500050
H159	H	0.889423	-0.058130	0.045200
H160	H	1.389423	0.441870	0.545200
N161	N	0.819743	-0.032204	0.000069
N162	N	1.319743	0.467796	0.500069
H163	H	0.884264	-0.021578	0.000066
H164	H	1.384264	0.478422	0.500066
H165	H	0.808205	-0.060215	0.045214
H166	H	1.308205	0.439785	0.545214
H167	H	1.201180	-0.574506	0.000072
H168	H	1.701180	-0.074506	0.500072
N169	N	0.884028	-0.532737	0.000033
N170	N	1.384028	-0.032737	0.500033
H171	H	0.831743	-0.561626	0.000027
H172	H	1.331743	-0.061626	0.500027
H173	H	0.881042	-0.502171	0.045173
H174	H	1.381042	-0.002171	0.545173
H175	H	0.307932	0.208445	0.000060
H176	H	0.807932	0.708445	0.500060
H177	H	0.595679	0.212688	0.000040
H178	H	1.095679	0.712688	0.500040
N179	N	1.183071	-0.002078	0.813388
N180	N	1.683071	0.497922	1.313388
H181	H	1.221721	-0.032099	0.777483
H182	H	1.721721	0.467901	1.277483
H183	H	1.222499	0.024726	0.845165
H184	H	1.722499	0.524726	1.345165
N185	N	1.183037	-0.002095	0.654075
N186	N	1.683037	0.497905	1.154075
H187	H	1.221685	-0.032126	0.689983
H188	H	1.721685	0.467874	1.189983
H189	H	1.148907	-0.033001	0.622285
H190	H	1.648907	0.466999	1.122285
H191	H	0.347537	-0.022319	0.000100
H192	H	0.847537	0.477681	0.500100
N193	N	0.929437	0.194963	0.654061
N194	N	1.429437	0.694963	1.154061
H195	H	0.938686	0.187768	0.599694
H196	H	1.438686	0.687768	1.099694
H197	H	0.866020	0.186819	0.667466
H198	H	1.366020	0.686819	1.167466
H199	H	0.477182	0.210943	0.000040
H200	H	0.977182	0.710943	0.500040
H201	H	0.945574	0.182443	0.803235
H202	H	1.445574	0.682443	1.303235
H203	H	0.635271	-0.018072	0.000094
H204	H	1.135271	0.481928	0.500094
N205	N	1.183013	-0.002106	0.346079
N206	N	1.683013	0.497894	0.846079
H207	H	1.221659	-0.032132	0.310175
H208	H	1.721659	0.467868	0.810175
H209	H	1.222449	0.024672	0.377875
H210	H	1.722449	0.524672	0.877875
N211	N	1.183017	-0.002094	0.186766
N212	N	1.683017	0.497906	0.686766
H213	H	1.221661	-0.032125	0.222677
H214	H	1.721661	0.467875	0.722677
H215	H	1.148892	-0.033000	0.154972
H216	H	1.648892	0.467000	0.654972
