data_functionalizedCrystal
_audit_creation_method	'MofGen! by Chris Wilmer'
_symmetry_space_group_name_H-M	'P1'
_symmetry_Int_Tables_number	1
_symmetry_cell_setting	triclinic
loop_
_symmetry_equiv_pos_as_xyz
  x,y,z
_cell_length_a	16.120530
_cell_length_b	19.120786
_cell_length_c	16.120297
_cell_angle_alpha	89.693695
_cell_angle_beta	89.871860
_cell_angle_gamma	89.436752
loop_
_atom_site_label
_atom_site_type_symbol
_atom_site_fract_x
_atom_site_fract_y
_atom_site_fract_z
Zn1	Zn	1.230439	-0.354318	0.515736
Zn2	Zn	1.480439	-0.104318	0.765736
Zn3	Zn	1.730439	0.145682	1.015736
Zn4	Zn	1.980439	0.395682	1.265736
Zn5	Zn	1.232048	-0.465652	0.370762
Zn6	Zn	1.482048	-0.215652	0.620762
Zn7	Zn	1.732048	0.034348	0.870762
Zn8	Zn	1.982048	0.284348	1.120762
Zn9	Zn	1.098996	-0.342500	0.370282
Zn10	Zn	1.348996	-0.092500	0.620282
Zn11	Zn	1.598996	0.157500	0.870282
Zn12	Zn	1.848996	0.407500	1.120282
Zn13	Zn	1.086035	-0.465008	0.502765
Zn14	Zn	1.336035	-0.215008	0.752765
Zn15	Zn	1.586035	0.034992	1.002765
Zn16	Zn	1.836035	0.284992	1.252765
O17	O	1.161880	-0.406870	0.439886
O18	O	1.411880	-0.156870	0.689886
O19	O	1.661880	0.093130	0.939886
O20	O	1.911880	0.343130	1.189886
O21	O	1.346768	-0.374302	0.502134
O22	O	1.596768	-0.124302	0.752134
O23	O	1.846768	0.125698	1.002134
O24	O	2.096768	0.375698	1.252134
O25	O	1.220496	-0.444639	0.254581
O26	O	1.470496	-0.194639	0.504581
O27	O	1.720496	0.055361	0.754581
O28	O	1.970496	0.305361	1.004581
O29	O	1.121184	-0.246204	0.394804
O30	O	1.371184	0.003796	0.644804
O31	O	1.621184	0.253796	0.894804
O32	O	1.871184	0.503796	1.144804
O33	O	1.347950	-0.456099	0.395622
O34	O	1.597950	-0.206099	0.645622
O35	O	1.847950	0.043901	0.895622
O36	O	2.097950	0.293901	1.145622
O37	O	1.217754	-0.254887	0.501668
O38	O	1.467754	-0.004887	0.751668
O39	O	1.717754	0.245113	1.001668
O40	O	1.967754	0.495113	1.251668
O41	O	1.122744	-0.354160	0.254229
O42	O	1.372744	-0.104160	0.504229
O43	O	1.622744	0.145840	0.754229
O44	O	1.872744	0.395840	1.004229
O45	O	0.981161	-0.353536	0.382227
O46	O	1.231161	-0.103536	0.632227
O47	O	1.481161	0.146464	0.882227
O48	O	1.731161	0.396464	1.132227
O49	O	1.099093	-0.455001	0.620603
O50	O	1.349093	-0.205001	0.870603
O51	O	1.599093	0.044999	1.120603
O52	O	1.849093	0.294999	1.370603
O53	O	0.971638	-0.443542	0.479562
O54	O	1.221638	-0.193542	0.729562
O55	O	1.471638	0.056458	0.979562
O56	O	1.721638	0.306458	1.229562
O57	O	1.205186	-0.373678	0.630132
O58	O	1.455186	-0.123678	0.880132
O59	O	1.705186	0.126322	1.130132
O60	O	1.955186	0.376322	1.380132
O61	O	1.207928	-0.563430	0.383045
O62	O	1.457928	-0.313430	0.633045
O63	O	1.707928	-0.063430	0.883045
O64	O	1.957928	0.186570	1.133045
O65	O	1.100653	-0.562957	0.480027
O66	O	1.350653	-0.312957	0.730027
O67	O	1.600653	-0.062957	0.980027
O68	O	1.850653	0.187043	1.230027
C69	C	0.946292	-0.397187	0.429435
C70	C	1.196292	-0.147187	0.679435
C71	C	1.446292	0.102813	0.929435
C72	C	1.696292	0.352813	1.179435
C73	C	0.854061	-0.393062	0.424983
C74	C	1.104061	-0.143062	0.674983
C75	C	1.354061	0.106938	0.924983
C76	C	1.604061	0.356938	1.174983
C77	C	0.685193	-0.385516	0.416863
C78	C	0.935193	-0.135516	0.666863
C79	C	1.185193	0.114484	0.916863
C80	C	1.435193	0.364484	1.166863
C81	C	0.639400	-0.428278	0.462967
C82	C	0.889400	-0.178278	0.712967
C83	C	1.139400	0.071722	0.962967
C84	C	1.389400	0.321722	1.212967
C85	C	0.545437	-0.424079	0.458449
C86	C	0.795437	-0.174079	0.708449
C87	C	1.045437	0.075921	0.958449
C88	C	1.295437	0.325921	1.208449
C89	C	0.779166	-0.389714	0.421380
C90	C	1.029166	-0.139714	0.671380
C91	C	1.279166	0.110286	0.921380
C92	C	1.529166	0.360286	1.171380
C93	C	1.153080	-0.588570	0.430200
C94	C	1.403080	-0.338570	0.680200
C95	C	1.653080	-0.088570	0.930200
C96	C	1.903080	0.161430	1.180200
C97	C	1.149390	-0.666307	0.426087
C98	C	1.399390	-0.416307	0.676087
C99	C	1.649390	-0.166307	0.926087
C100	C	1.899390	0.083693	1.176087
C101	C	1.197893	-0.707288	0.479835
C102	C	1.447893	-0.457288	0.729835
C103	C	1.697893	-0.207288	0.979835
C104	C	1.947893	0.042712	1.229835
C105	C	1.194422	-0.780330	0.475973
C106	C	1.444422	-0.530330	0.725973
C107	C	1.694422	-0.280330	0.975973
C108	C	1.944422	-0.030330	1.225973
C109	C	1.142452	-0.812390	0.418357
C110	C	1.392452	-0.562390	0.668357
C111	C	1.642452	-0.312390	0.918357
C112	C	1.892452	-0.062390	1.168357
C113	C	1.093943	-0.771403	0.364607
C114	C	1.343943	-0.521403	0.614607
C115	C	1.593943	-0.271403	0.864607
C116	C	1.843943	-0.021403	1.114607
C117	C	1.097410	-0.698363	0.368475
C118	C	1.347410	-0.448363	0.618475
C119	C	1.597410	-0.198363	0.868475
C120	C	1.847410	0.051637	1.118475
C121	C	1.129467	-1.032702	0.403899
C122	C	1.379467	-0.782702	0.653899
C123	C	1.629467	-0.532702	0.903899
C124	C	1.879467	-0.282702	1.153899
C125	C	1.126006	-1.105748	0.400034
C126	C	1.376006	-0.855748	0.650034
C127	C	1.626006	-0.605748	0.900034
C128	C	1.876006	-0.355748	1.150034
C129	C	1.226484	-1.114670	0.511400
C130	C	1.476484	-0.864670	0.761400
C131	C	1.726484	-0.614670	1.011400
C132	C	1.976484	-0.364670	1.261400
C133	C	1.229950	-1.041628	0.515259
C134	C	1.479950	-0.791628	0.765259
C135	C	1.729950	-0.541628	1.015259
C136	C	1.979950	-0.291628	1.265259
C137	C	1.181438	-1.000648	0.461512
C138	C	1.431438	-0.750648	0.711512
C139	C	1.681438	-0.500648	0.961512
C140	C	1.931438	-0.250648	1.211512
C141	C	1.138905	-0.887050	0.414406
C142	C	1.388905	-0.637050	0.664406
C143	C	1.638905	-0.387050	0.914406
C144	C	1.888905	-0.137050	1.164406
C145	C	1.184981	-0.925989	0.465468
C146	C	1.434981	-0.675989	0.715468
C147	C	1.684981	-0.425989	0.965468
C148	C	1.934981	-0.175989	1.215468
C149	C	1.378309	-0.416591	0.450378
C150	C	1.628309	-0.166591	0.700378
C151	C	1.878309	0.083409	0.950378
C152	C	2.128309	0.333409	1.200378
C153	C	1.470538	-0.420733	0.454849
C154	C	1.720538	-0.170733	0.704849
C155	C	1.970538	0.079267	0.954849
C156	C	2.220538	0.329267	1.204849
C157	C	1.150514	-0.415586	0.656317
C158	C	1.400514	-0.165586	0.906317
C159	C	1.650514	0.084414	1.156317
C160	C	1.900514	0.334414	1.406317
C161	C	1.145671	-0.419300	0.748547
C162	C	1.395671	-0.169300	0.998547
C163	C	1.645671	0.080700	1.248547
C164	C	1.895671	0.330700	1.498547
C165	C	1.170735	-0.224461	0.449629
C166	C	1.420735	0.025539	0.699629
C167	C	1.670735	0.275539	0.949629
C168	C	1.920735	0.525539	1.199629
C169	C	1.174509	-0.146729	0.453781
C170	C	1.424509	0.103271	0.703781
C171	C	1.674509	0.353271	0.953781
C172	C	1.924509	0.603271	1.203781
C173	C	1.173251	-0.398139	0.224302
C174	C	1.423251	-0.148139	0.474302
C175	C	1.673251	0.101861	0.724302
C176	C	1.923251	0.351861	0.974302
C177	C	1.178264	-0.394235	0.132091
C178	C	1.428264	-0.144235	0.382091
C179	C	1.678264	0.105765	0.632091
C180	C	1.928264	0.355765	0.882091
C181	C	1.136799	-0.426065	0.917412
C182	C	1.386799	-0.176065	1.167412
C183	C	1.636799	0.073935	1.417412
C184	C	1.886799	0.323935	1.667412
C185	C	1.187134	-0.387472	0.963231
C186	C	1.437134	-0.137472	1.213231
C187	C	1.687134	0.112528	1.463231
C188	C	1.937134	0.362528	1.713231
C189	C	1.182197	-0.391236	1.057193
C190	C	1.432197	-0.141236	1.307193
C191	C	1.682197	0.108764	1.557193
C192	C	1.932197	0.358764	1.807193
C193	C	1.141734	-0.422302	0.823441
C194	C	1.391734	-0.172302	1.073441
C195	C	1.641734	0.077698	1.323441
C196	C	1.891734	0.327698	1.573441
H197	H	0.653831	-0.345756	0.374001
H198	H	0.903831	-0.095756	0.624001
H199	H	1.153831	0.154244	0.874001
H200	H	1.403831	0.404244	1.124001
F201	F	1.038624	-0.805525	0.303296
F202	F	1.288624	-0.555525	0.553296
F203	F	1.538624	-0.305525	0.803296
F204	F	1.788624	-0.055525	1.053296
H205	H	1.240217	-0.681191	0.526748
H206	H	1.490217	-0.431191	0.776748
H207	H	1.740217	-0.181191	1.026748
H208	H	1.990217	0.068809	1.276748
H209	H	0.670765	-0.468040	0.505833
H210	H	0.920765	-0.218040	0.755833
H211	H	1.170765	0.031960	1.005833
H212	H	1.420765	0.281960	1.255833
F213	F	1.075632	-0.472944	0.958375
F214	F	1.325632	-0.222944	1.208375
F215	F	1.575632	0.027056	1.458375
F216	F	1.825632	0.277056	1.708375
F217	F	1.285263	-1.007513	0.576582
F218	F	1.535263	-0.757513	0.826582
F219	F	1.785263	-0.507513	1.076582
F220	F	2.035263	-0.257513	1.326582
F221	F	1.246037	-0.823943	0.533187
F222	F	1.496037	-0.573943	0.783187
F223	F	1.746037	-0.323943	1.033187
F224	F	1.996037	-0.073943	1.283187
F225	F	1.278108	-1.158289	0.568600
F226	F	1.528108	-0.908289	0.818600
F227	F	1.778108	-0.658289	1.068600
F228	F	2.028108	-0.408289	1.318600
F229	F	1.070692	-1.139866	0.338707
F230	F	1.320692	-0.889866	0.588707
F231	F	1.570692	-0.639866	0.838707
F232	F	1.820692	-0.389866	1.088707
F233	F	1.248321	-0.340604	0.922268
F234	F	1.498321	-0.090604	1.172268
F235	F	1.748321	0.159396	1.422268
F236	F	1.998321	0.409396	1.672268
H237	H	1.057912	-0.664996	0.324709
H238	H	1.307912	-0.414996	0.574709
H239	H	1.557912	-0.164996	0.824709
H240	H	1.807912	0.085004	1.074709
F241	F	1.240285	-0.891867	0.526789
F242	F	1.490285	-0.641867	0.776789
F243	F	1.740285	-0.391867	1.026789
F244	F	1.990285	-0.141867	1.276789
F245	F	1.077829	-0.989097	0.346701
F246	F	1.327829	-0.739097	0.596701
F247	F	1.577829	-0.489097	0.846701
F248	F	1.827829	-0.239097	1.096701
H249	H	1.096593	-0.913161	0.367493
H250	H	1.346593	-0.663161	0.617493
H251	H	1.596593	-0.413161	0.867493
H252	H	1.846593	-0.163161	1.117493
