data_functionalizedCrystal
_audit_creation_method	'MofGen! by Chris Wilmer'
_symmetry_space_group_name_H-M	'P1'
_symmetry_Int_Tables_number	1
_symmetry_cell_setting	triclinic
loop_
_symmetry_equiv_pos_as_xyz
  x,y,z
_cell_length_a	19.288865
_cell_length_b	19.288840
_cell_length_c	17.766277
_cell_angle_alpha	89.983415
_cell_angle_beta	89.988397
_cell_angle_gamma	83.131131
loop_
_atom_site_label
_atom_site_type_symbol
_atom_site_fract_x
_atom_site_fract_y
_atom_site_fract_z
O1	O	0.086566	0.921364	-0.062729
O2	O	0.586566	1.421364	0.437271
O3	O	0.098273	0.719101	-0.062704
O4	O	0.598273	1.219101	0.437296
O5	O	-0.008711	0.826077	-0.062702
O6	O	0.491289	1.326077	0.437298
O7	O	0.193550	0.814388	-0.062730
O8	O	0.693550	1.314388	0.437270
O9	O	-0.008717	0.826058	0.062487
O10	O	0.491283	1.326058	0.562487
O11	O	0.098267	0.719082	0.062485
O12	O	0.598267	1.219082	0.562485
O13	O	0.086560	0.921345	0.062460
O14	O	0.586560	1.421345	0.562460
Cu15	Cu	0.092413	0.820212	0.073903
Cu16	Cu	0.592413	1.320212	0.573903
Cu17	Cu	0.092420	0.820234	-0.074147
Cu18	Cu	0.592420	1.320234	0.425853
O19	O	0.193545	0.814369	0.062458
O20	O	0.693545	1.314369	0.562458
C21	C	0.097896	0.693215	-0.000106
C22	C	0.597896	1.193215	0.499894
C23	C	0.096774	0.616110	-0.000096
C24	C	0.596774	1.116110	0.499904
C25	C	0.096238	0.579917	-0.068338
C26	C	0.596238	1.079917	0.431662
C27	C	0.095176	0.507470	-0.068347
C28	C	0.595176	1.007470	0.431653
C29	C	0.094636	0.471221	-0.000110
C30	C	0.594636	0.971221	0.499890
C31	C	0.095176	0.507423	0.068141
C32	C	0.595176	1.007423	0.568141
C33	C	0.096245	0.579867	0.068148
C34	C	0.596245	1.079867	0.568148
C35	C	0.052256	0.361886	0.052164
C36	C	0.552256	0.861886	0.552164
C37	C	0.051183	0.289443	0.052155
C38	C	0.551183	0.789443	0.552155
C39	C	0.091342	0.247778	-0.000129
C40	C	0.591342	0.747778	0.499871
C41	C	0.132566	0.278565	-0.052416
C42	C	0.632566	0.778565	0.447584
C43	C	0.133635	0.351010	-0.052408
C44	C	0.633635	0.851010	0.447592
C45	C	0.093477	0.392667	-0.000110
C46	C	0.593477	0.892667	0.499890
C47	C	0.089655	0.133029	-0.068386
C48	C	0.589655	0.633029	0.431614
C49	C	0.088598	0.060580	-0.068392
C50	C	0.588598	0.560580	0.431608
C51	C	0.088591	0.060535	0.068098
C52	C	0.588591	0.560535	0.568098
C53	C	0.089656	0.132982	0.068102
C54	C	0.589656	0.632982	0.568102
C55	C	0.090185	0.169225	-0.000142
C56	C	0.590185	0.669225	0.499858
C57	C	-0.034591	0.825692	-0.000105
C58	C	0.465409	1.325692	0.499895
C59	C	-0.111694	0.824563	-0.000099
C60	C	0.388306	1.324563	0.499901
C61	C	-0.156396	0.887331	-0.000103
C62	C	0.343604	1.387331	0.499897
C63	C	-0.228843	0.886270	-0.000114
C64	C	0.271157	1.386270	0.499886
C65	C	-0.256585	0.822438	-0.000107
C66	C	0.243415	1.322438	0.499893
C67	C	-0.211873	0.759661	-0.000107
C68	C	0.288127	1.259661	0.499893
C69	C	-0.139428	0.760723	-0.000103
C70	C	0.360572	1.260723	0.499897
C71	C	-0.364870	0.772251	0.043750
C72	C	0.135130	1.272251	0.543750
C73	C	-0.437314	0.771191	0.043750
C74	C	0.062686	1.271191	0.543750
C75	C	-0.480030	0.819158	-0.000123
C76	C	0.019970	1.319158	0.499877
C77	C	-0.450295	0.868196	-0.043988
C78	C	0.049705	1.368196	0.456012
C79	C	-0.377849	0.869259	-0.043984
C80	C	0.122151	1.369259	0.456016
C81	C	-0.335139	0.821278	-0.000112
C82	C	0.164861	1.321278	0.499888
C83	C	-0.603288	0.880781	-0.000141
C84	C	-0.103288	1.380781	0.499859
C85	C	-0.675736	0.879717	-0.000158
C86	C	-0.175736	1.379717	0.499842
C87	C	-0.658764	0.753106	-0.000143
C88	C	-0.158764	1.253106	0.499857
C89	C	-0.586318	0.754171	-0.000134
C90	C	-0.086318	1.254171	0.499866
C91	C	-0.558584	0.818010	-0.000130
C92	C	-0.058584	1.318010	0.499870
C93	C	0.219424	0.814755	-0.000140
C94	C	0.719424	1.314755	0.499860
C95	C	0.296527	0.815884	-0.000152
C96	C	0.796527	1.315884	0.499848
C97	C	0.086937	0.947232	-0.000139
C98	C	0.586937	1.447232	0.499861
C99	C	0.088059	1.024336	-0.000154
C100	C	0.588059	1.524336	0.499846
N101	N	0.092409	0.820202	0.178034
N102	N	0.592409	1.320202	0.678034
N103	N	0.092419	0.820250	-0.178277
N104	N	0.592419	1.320250	0.321723
C105	C	0.045059	0.867586	0.217421
C106	C	0.545059	1.367586	0.717421
C107	C	0.045056	0.867590	0.296223
C108	C	0.545056	1.367590	0.796223
C109	C	0.092414	0.820216	0.335634
C110	C	0.592414	1.320216	0.835634
C111	C	0.139767	0.772823	0.296237
C112	C	0.639767	1.272823	0.796237
C113	C	0.139764	0.772816	0.217437
C114	C	0.639764	1.272816	0.717437
C115	C	0.155703	0.810917	0.460464
C116	C	0.655703	1.310917	0.960464
C117	C	0.155706	0.810930	0.539263
C118	C	0.655706	1.310930	1.039263
C119	C	0.092422	0.820235	0.578680
C120	C	0.592422	1.320235	1.078680
C121	C	0.029132	0.829543	0.539290
C122	C	0.529132	1.329543	1.039290
C123	C	0.029129	0.829535	0.460489
C124	C	0.529129	1.329535	0.960489
C125	C	0.092422	0.820219	0.421080
C126	C	0.592422	1.320219	0.921080
C127	C	0.045065	0.867626	0.703514
C128	C	0.545065	1.367626	1.203514
C129	C	0.045061	0.867625	0.782317
C130	C	0.545061	1.367625	1.282317
C131	C	0.139779	0.772862	0.782330
C132	C	0.639779	1.272862	1.282330
C133	C	0.139777	0.772859	0.703528
C134	C	0.639777	1.272859	1.203528
C135	C	0.092421	0.820245	0.664125
C136	C	0.592421	1.320245	1.164125
H137	H	0.096669	0.609422	-0.123907
H138	H	0.596669	1.109422	0.376093
Br139	Br	-0.118760	0.973970	-0.000118
Br140	Br	0.381240	1.473970	0.499882
Br141	Br	0.189580	0.392791	-0.123362
Br142	Br	0.689580	0.892791	0.376638
H143	H	-0.265246	0.937386	-0.000121
H144	H	0.234754	1.437386	0.499879
H145	H	0.207239	0.803328	0.428377
H146	H	0.707239	1.303328	0.928377
Br147	Br	0.187074	0.222028	-0.123376
Br148	Br	0.687074	0.722028	0.376624
Br149	Br	-0.337494	0.935804	-0.103515
Br150	Br	0.162506	1.435804	0.396485
Br151	Br	0.096974	0.628990	0.160770
Br152	Br	0.596974	1.128990	0.660770
Br153	Br	-0.508257	0.933300	-0.103535
Br154	Br	-0.008257	1.433300	0.396465
H155	H	0.090094	0.162539	-0.123954
H156	H	0.590094	0.662539	0.376046
Br157	Br	0.094450	0.458339	-0.160968
Br158	Br	0.594450	0.958339	0.339032
Br159	Br	-0.565645	0.967417	-0.000128
Br160	Br	-0.065645	1.467417	0.499872
Br161	Br	-0.736406	0.964911	-0.000171
Br162	Br	-0.236406	1.464911	0.499829
H163	H	0.207241	0.803355	0.571329
H164	H	0.707241	1.303355	1.071329
Br165	Br	0.204042	0.708552	0.650067
Br166	Br	0.704042	1.208552	1.150067
Br167	Br	-0.019205	0.931932	0.650036
Br168	Br	0.480795	1.431932	1.150036
Br169	Br	-0.078756	0.675530	-0.000100
Br170	Br	0.421244	1.175530	0.499900
H171	H	0.006497	0.906177	0.328298
H172	H	0.506497	1.406177	0.828298
H173	H	0.088165	0.031112	-0.123965
H174	H	0.588165	0.531112	0.376035
Br175	Br	0.087869	0.011347	0.160707
Br176	Br	0.587869	0.511347	0.660707
Br177	Br	0.204035	0.708525	0.349720
Br178	Br	0.704035	1.208525	0.849720
H179	H	-0.022404	0.837112	0.428420
H180	H	0.477596	1.337112	0.928420
H181	H	0.090088	0.162451	0.123672
H182	H	0.590088	0.662451	0.623672
H183	H	-0.461518	0.731258	0.079463
H184	H	0.038482	1.231258	0.579463
Br185	Br	-0.004745	0.247665	0.123128
Br186	Br	0.495255	0.747665	0.623128
H187	H	0.178336	0.734287	0.814418
H188	H	0.678336	1.234287	1.314418
H189	H	0.019552	0.395805	0.094744
H190	H	0.519552	0.895805	0.594744
Br191	Br	-0.696406	0.666474	-0.000141
Br192	Br	-0.196406	1.166474	0.499859
Br193	Br	0.094451	0.458229	0.160749
Br194	Br	0.594451	0.958229	0.660749
Br195	Br	-0.525647	0.668980	-0.000128
Br196	Br	-0.025647	1.168980	0.499872
H197	H	-0.330095	0.733189	0.079481
H198	H	0.169905	1.233189	0.579481
Br199	Br	-0.249520	0.673029	-0.000107
Br200	Br	0.250480	1.173029	0.499893
Br201	Br	-0.019210	0.931931	0.835776
Br202	Br	0.480790	1.431931	1.335776
H203	H	0.006498	0.906168	0.185341
H204	H	0.506498	1.406168	0.685341
Br205	Br	-0.056759	0.842181	0.592774
Br206	Br	0.443241	1.342181	1.092774
Br207	Br	0.204029	0.708503	0.163977
Br208	Br	0.704029	1.208503	0.663977
