data_functionalizedCrystal
_audit_creation_method	'MofGen! by Chris Wilmer'
_symmetry_space_group_name_H-M	'P1'
_symmetry_Int_Tables_number	1
_symmetry_cell_setting	triclinic
loop_
_symmetry_equiv_pos_as_xyz
  x,y,z
_cell_length_a	14.971486
_cell_length_b	14.971486
_cell_length_c	13.448316
_cell_angle_alpha	90.002892
_cell_angle_beta	89.999959
_cell_angle_gamma	83.614129
loop_
_atom_site_label
_atom_site_type_symbol
_atom_site_fract_x
_atom_site_fract_y
_atom_site_fract_z
O1	O	-1.186946	-0.116560	-0.082578
O2	O	-0.853612	0.216773	0.250755
O3	O	-0.520279	0.550107	0.584089
O4	O	-0.926545	-0.130519	-0.082605
O5	O	-0.593212	0.202815	0.250728
O6	O	-0.259879	0.536148	0.584062
O7	O	-1.063725	0.006661	-0.082584
O8	O	-0.730392	0.339994	0.250750
O9	O	-0.397058	0.673327	0.584083
O10	O	-1.049766	-0.253739	-0.082599
O11	O	-0.716433	0.079594	0.250734
O12	O	-0.383099	0.412927	0.584067
O13	O	-1.063711	0.006659	0.082800
O14	O	-0.730378	0.339993	0.416133
O15	O	-0.397045	0.673326	0.749467
O16	O	-0.926532	-0.130520	0.082779
O17	O	-0.593198	0.202813	0.416112
O18	O	-0.259865	0.536147	0.749445
O19	O	-1.186932	-0.116561	0.082806
O20	O	-0.853599	0.216772	0.416139
O21	O	-0.520265	0.550105	0.749472
Cu22	Cu	-1.056731	-0.123541	0.097893
Cu23	Cu	-0.723397	0.209793	0.431226
Cu24	Cu	-0.390064	0.543126	0.764560
Cu25	Cu	-1.056747	-0.123539	-0.097692
Cu26	Cu	-0.723413	0.209794	0.235641
Cu27	Cu	-0.390080	0.543127	0.568974
O28	O	-1.049753	-0.253741	0.082784
O29	O	-0.716419	0.079593	0.416118
O30	O	-0.383086	0.412926	0.749451
C31	C	-0.893214	-0.129895	0.000083
C32	C	-0.559881	0.203438	0.333417
C33	C	-0.226547	0.536772	0.666750
C34	C	-0.793917	-0.128024	0.000073
C35	C	-0.460583	0.205309	0.333407
C36	C	-0.127250	0.538642	0.666740
C37	C	-1.063094	0.039985	0.000108
C38	C	-0.729761	0.373318	0.333441
C39	C	-0.396427	0.706651	0.666774
C40	C	-1.061223	0.139282	0.000107
C41	C	-0.727890	0.472615	0.333440
C42	C	-0.394556	0.805949	0.666773
C43	C	-1.220263	-0.117185	0.000115
C44	C	-0.886930	0.216149	0.333448
C45	C	-0.553597	0.549482	0.666782
C46	C	-1.319561	-0.119056	0.000119
C47	C	-0.986227	0.214278	0.333452
C48	C	-0.652894	0.547611	0.666785
N49	N	-1.056726	-0.123541	0.235457
N50	N	-0.723393	0.209792	0.568791
N51	N	-0.390059	0.543125	0.902124
C52	C	-0.736692	-0.208614	0.000070
C53	C	-0.403358	0.124720	0.333403
C54	C	-0.070025	0.458053	0.666736
C55	C	-0.643392	-0.206850	0.000085
C56	C	-0.310059	0.126483	0.333418
C57	C	0.023275	0.459816	0.666751
C58	C	-0.607320	-0.124497	0.000096
C59	C	-0.273986	0.208836	0.333429
C60	C	0.059347	0.542169	0.666763
C61	C	-0.664552	-0.043902	0.000102
C62	C	-0.331219	0.289431	0.333436
C63	C	0.002114	0.622765	0.666769
C64	C	-0.757850	-0.045666	0.000095
C65	C	-0.424517	0.287667	0.333428
C66	C	-0.091183	0.621001	0.666761
C67	C	-0.470090	-0.040231	0.000116
C68	C	-0.136757	0.293103	0.333450
C69	C	0.196577	0.626436	0.666783
C70	C	-0.376786	-0.038466	0.000122
C71	C	-0.043453	0.294867	0.333456
C72	C	0.289881	0.628200	0.666789
C73	C	-0.355632	-0.201415	0.000106
C74	C	-0.022299	0.131918	0.333440
C75	C	0.311035	0.465251	0.666773
C76	C	-0.448930	-0.203179	0.000099
C77	C	-0.115596	0.130154	0.333432
C78	C	0.217737	0.463487	0.666765
C79	C	-0.506156	-0.122584	0.000103
C80	C	-0.172822	0.210750	0.333436
C81	C	0.160511	0.544083	0.666770
C82	C	-1.050384	-0.287065	0.000091
C83	C	-0.717050	0.046269	0.333424
C84	C	-0.383717	0.379602	0.666757
C85	C	-1.052254	-0.386362	0.000085
C86	C	-0.718921	-0.053028	0.333419
C87	C	-0.385588	0.280305	0.666752
C88	C	-1.141812	0.196507	0.000116
C89	C	-0.808479	0.529841	0.333449
C90	C	-0.475146	0.863174	0.666783
C91	C	-1.140049	0.289807	0.000106
C92	C	-0.806716	0.623140	0.333439
C93	C	-0.473383	0.956473	0.666772
C94	C	-1.057696	0.325879	0.000093
C95	C	-0.724363	0.659212	0.333427
C96	C	-0.391029	0.992546	0.666760
C97	C	-0.977101	0.268646	0.000081
C98	C	-0.643767	0.601980	0.333415
C99	C	-0.310434	0.935313	0.666748
C100	C	-0.978865	0.175349	0.000084
C101	C	-0.645531	0.508682	0.333418
C102	C	-0.312198	0.842015	0.666751
C103	C	-0.973430	0.463109	0.000077
C104	C	-0.640096	0.796442	0.333411
C105	C	-0.306763	1.129776	0.666744
C106	C	-0.971665	0.556413	0.000076
C107	C	-0.638332	0.889746	0.333409
C108	C	-0.304998	1.223080	0.666743
C109	C	-1.134614	0.577567	0.000099
C110	C	-0.801281	0.910900	0.333432
C111	C	-0.467947	1.244233	0.666765
C112	C	-1.136378	0.484269	0.000102
C113	C	-0.803045	0.817603	0.333435
C114	C	-0.469712	1.150936	0.666768
C115	C	-1.055782	0.427043	0.000091
C116	C	-0.722449	0.760376	0.333425
C117	C	-0.389116	1.093710	0.666758
N118	N	-1.056759	-0.123532	-0.235257
N119	N	-0.723425	0.209802	0.098077
N120	N	-0.390092	0.543135	0.431410
C121	C	-1.002456	-0.069191	0.712702
C122	C	-0.669123	0.264142	1.046036
C123	C	-0.335790	0.597476	1.379369
C124	C	-1.002453	-0.069188	0.608599
C125	C	-0.669120	0.264145	0.941933
C126	C	-0.335787	0.597478	1.275266
C127	C	-1.056748	-0.123532	0.556539
C128	C	-0.723415	0.209802	0.889872
C129	C	-0.390082	0.543135	1.223205
C130	C	-1.111057	-0.177874	0.608587
C131	C	-0.777723	0.155459	0.941920
C132	C	-0.444390	0.488793	1.275254
C133	C	-1.111064	-0.177871	0.712688
C134	C	-0.777731	0.155462	1.046022
C135	C	-0.444397	0.488795	1.379355
C136	C	-1.111036	-0.177878	0.391607
C137	C	-0.777703	0.155456	0.724940
C138	C	-0.444370	0.488789	1.058273
C139	C	-1.111028	-0.177882	0.287498
C140	C	-0.777695	0.155452	0.620832
C141	C	-0.444361	0.488785	0.954165
C142	C	-1.002426	-0.069194	0.287518
C143	C	-0.669092	0.264139	0.620851
C144	C	-0.335759	0.597472	0.954184
C145	C	-1.002433	-0.069192	0.391619
C146	C	-0.669100	0.264142	0.724952
C147	C	-0.335766	0.597475	1.058286
C148	C	-1.056740	-0.123536	0.443660
C149	C	-0.723407	0.209797	0.776993
C150	C	-0.390074	0.543131	1.110327
H151	H	-0.766054	-0.275675	0.000060
H152	H	-0.432720	0.057658	0.333393
H153	H	-0.099387	0.390992	0.666727
H154	H	-1.155261	-0.222128	0.433975
H155	H	-0.821928	0.111205	0.767309
H156	H	-0.488595	0.444539	1.100642
C157	C	-0.580448	-0.295505	0.000099
C158	C	-0.247114	0.037828	0.333432
C159	C	0.086219	0.371161	0.666765
N160	N	-0.533038	-0.362284	0.000117
N161	N	-0.199705	-0.028951	0.333450
N162	N	0.133629	0.304382	0.666783
C163	C	-1.226971	0.444592	0.000120
C164	C	-0.893637	0.777925	0.333453
C165	C	-0.560304	1.111259	0.666786
N166	N	-1.295207	0.414707	0.000131
N167	N	-0.961873	0.748041	0.333464
N168	N	-0.628540	1.081374	0.666797
H169	H	-0.913240	0.128756	0.000077
H170	H	-0.579907	0.462089	0.333410
H171	H	-0.246574	0.795423	0.666743
H172	H	-1.155283	-0.222121	0.755059
H173	H	-0.821950	0.111213	1.088392
H174	H	-0.488616	0.444546	1.421725
H175	H	-0.478296	-0.270239	0.000080
H176	H	-0.144963	0.063095	0.333413
H177	H	0.188370	0.396428	0.666747
H178	H	-1.200238	0.624165	0.000104
H179	H	-0.866905	0.957499	0.333437
H180	H	-0.533572	1.290832	0.666770
H181	H	-0.309033	-0.267039	0.000107
H182	H	0.024300	0.066294	0.333440
H183	H	0.357633	0.399627	0.666774
C184	C	-0.942713	-0.009413	0.551359
C185	C	-0.609379	0.323920	0.884692
C186	C	-0.276046	0.657253	1.218026
N187	N	-0.897712	0.035611	0.508246
N188	N	-0.564379	0.368944	0.841580
N189	N	-0.231046	0.702278	1.174913
C190	C	-0.337109	0.052126	0.000136
C191	C	-0.003775	0.385460	0.333470
C192	C	0.329558	0.718793	0.666803
N193	N	-0.307224	0.120362	0.000147
N194	N	0.026109	0.453695	0.333480
N195	N	0.359443	0.787029	0.666814
H196	H	-0.958217	-0.024945	0.434004
H197	H	-0.624883	0.308388	0.767337
H198	H	-0.291550	0.641721	1.100671
H199	H	-0.635175	0.023152	0.000126
H200	H	-0.301842	0.356485	0.333459
H201	H	0.031492	0.689818	0.666792
C202	C	-0.881072	0.596090	0.000050
C203	C	-0.547739	0.929423	0.333383
C204	C	-0.214406	1.262757	0.666717
N205	N	-0.812837	0.625975	0.000027
N206	N	-0.479503	0.959308	0.333360
N207	N	-0.146170	1.292641	0.666694
C208	C	-0.884769	0.400162	0.000071
C209	C	-0.551436	0.733495	0.333404
C210	C	-0.218103	1.066828	0.666738
N211	N	-0.817992	0.352750	0.000074
N212	N	-0.484658	0.686083	0.333407
N213	N	-0.151325	1.019416	0.666740
C214	C	-0.942726	-0.009409	0.769959
C215	C	-0.609393	0.323924	1.103293
C216	C	-0.276059	0.657258	1.436626
N217	N	-0.897738	0.035624	0.813083
N218	N	-0.564404	0.368957	1.146416
N219	N	-0.231071	0.702291	1.479749
C220	C	-0.942616	-0.009486	0.230271
C221	C	-0.609283	0.323848	0.563604
C222	C	-0.275950	0.657181	0.896938
N223	N	-0.897541	0.035456	0.187148
N224	N	-0.564208	0.368790	0.520481
N225	N	-0.230874	0.702123	0.853815
H226	H	-1.155237	-0.222136	0.245113
H227	H	-0.821904	0.111198	0.578447
H228	H	-0.488570	0.444531	0.911780
H229	H	-1.155269	-0.222117	0.566191
H230	H	-0.821936	0.111216	0.899524
H231	H	-0.488602	0.444550	1.232858
H232	H	-1.205673	0.336396	0.000115
H233	H	-0.872340	0.669730	0.333449
H234	H	-0.539007	1.003063	0.666782
H235	H	-0.804443	0.019958	0.000097
H236	H	-0.471109	0.353292	0.333430
H237	H	-0.137776	0.686625	0.666763
C238	C	-0.533037	0.048429	0.000117
C239	C	-0.199704	0.381763	0.333451
C240	C	0.133630	0.715096	0.666784
N241	N	-0.580449	0.115207	0.000112
N242	N	-0.247116	0.448540	0.333445
N243	N	0.086218	0.781874	0.666778
H244	H	-1.208874	0.167145	0.000132
H245	H	-0.875541	0.500478	0.333465
H246	H	-0.542207	0.833812	0.666799
H247	H	-0.910047	0.298024	0.000065
H248	H	-0.576714	0.631357	0.333399
H249	H	-0.243380	0.964690	0.666732
