data_functionalizedCrystal
_audit_creation_method	'MofGen! by Chris Wilmer'
_symmetry_space_group_name_H-M	'P1'
_symmetry_Int_Tables_number	1
_symmetry_cell_setting	triclinic
loop_
_symmetry_equiv_pos_as_xyz
  x,y,z
_cell_length_a	17.077404
_cell_length_b	10.686685
_cell_length_c	17.077404
_cell_angle_alpha	85.629912
_cell_angle_beta	90.005946
_cell_angle_gamma	85.640248
loop_
_atom_site_label
_atom_site_type_symbol
_atom_site_fract_x
_atom_site_fract_y
_atom_site_fract_z
Zn1	Zn	1.223983	-0.502502	0.467873
Zn2	Zn	1.234010	-0.713447	0.346695
Zn3	Zn	1.092745	-0.502487	0.336620
Zn4	Zn	1.102771	-0.713432	0.477918
O5	O	1.163377	-0.607967	0.407277
O6	O	1.335160	-0.530498	0.451811
O7	O	1.215271	-0.685463	0.235512
O8	O	1.101762	-0.325927	0.345611
O9	O	1.342527	-0.685478	0.362782
O10	O	1.198182	-0.325938	0.442042
O11	O	1.111484	-0.530472	0.228110
O12	O	0.984227	-0.530457	0.355351
O13	O	1.118849	-0.685451	0.586432
O14	O	0.991593	-0.685437	0.459162
O15	O	1.207903	-0.530483	0.579053
O16	O	1.224993	-0.890007	0.372522
O17	O	1.128572	-0.889996	0.468931
C18	C	0.959428	-0.607944	0.407254
C19	C	0.872179	-0.607965	0.407264
C20	C	0.835051	-0.688785	0.461244
C21	C	0.753070	-0.688787	0.461256
C22	C	0.708220	-0.607976	0.407285
C23	C	0.745354	-0.527147	0.353303
C24	C	0.827333	-0.527139	0.353295
C25	C	0.574485	-0.527172	0.353323
C26	C	0.492501	-0.527181	0.353330
C27	C	0.500223	-0.688820	0.461285
C28	C	0.582202	-0.688812	0.461276
C29	C	0.619330	-0.607985	0.407293
C30	C	1.178979	-0.935782	0.422927
C31	C	1.185726	-1.076023	0.429648
C32	C	1.368122	-0.607991	0.407300
C33	C	1.455373	-0.608001	0.407310
C34	C	1.163376	-0.607967	0.612021
C35	C	1.163376	-0.607967	0.699271
C36	C	1.147735	-0.278872	0.391583
C37	C	1.141069	-0.138632	0.384895
C38	C	1.109341	-0.527273	0.736407
C39	C	1.109339	-0.527283	0.818388
C40	C	1.163374	-0.607983	0.863231
C41	C	1.217411	-0.688685	0.826090
C42	C	1.217409	-0.688680	0.744110
C43	C	1.217411	-0.688688	0.996960
C44	C	1.217414	-0.688692	1.078945
C45	C	1.109340	-0.527291	1.071237
C46	C	1.109339	-0.527286	0.989258
C47	C	1.163377	-0.607988	0.952122
C48	C	1.163375	-0.607996	1.203330
C49	C	1.163380	-0.607998	1.116080
H50	H	0.618717	-0.754623	0.505220
H51	H	0.871563	-0.754595	0.505191
H52	H	1.229125	-1.129715	0.473102
H53	H	0.722845	-0.754600	0.505211
C54	C	1.028441	-0.990443	0.366879
C55	C	1.082484	-1.066168	0.326233
H56	H	0.992270	-0.945708	0.330662
H57	H	1.055555	-0.932382	0.394046
H58	H	1.000836	-1.041890	0.403485
H59	H	1.110093	-1.014720	0.289630
H60	H	1.055367	-1.124236	0.299052
H61	H	0.469989	-0.754629	0.505242
C62	C	0.493097	-0.367384	0.246633
C63	C	0.443199	-0.438343	0.294011
H64	H	0.462657	-0.312533	0.210016
H65	H	0.527677	-0.422267	0.219163
H66	H	0.522786	-0.319210	0.278592
H67	H	0.413514	-0.486523	0.262053
H68	H	0.408604	-0.383452	0.321483
C69	C	1.002508	-0.367752	0.737032
C70	C	1.049940	-0.438570	0.687119
H71	H	0.965831	-0.312999	0.706604
H72	H	1.034415	-0.319494	0.766706
H73	H	0.975102	-0.422741	0.771628
H74	H	1.077350	-0.383582	0.652526
H75	H	1.018029	-0.486833	0.657432
C76	C	0.665813	-0.509379	0.246899
C77	C	0.615304	-0.438333	0.293984
H78	H	0.691017	-0.454538	0.210269
H79	H	0.636437	-0.564267	0.219443
H80	H	0.704248	-0.557502	0.279053
H81	H	0.576865	-0.390218	0.261830
H82	H	0.644681	-0.383424	0.321442
H83	H	0.708830	-0.461343	0.309362
H84	H	1.261414	-0.754404	1.115454
C85	C	0.811472	-0.367388	0.246577
C86	C	0.868148	-0.438311	0.293952
H87	H	0.836670	-0.312553	0.209938
H88	H	0.777213	-0.319211	0.278528
H89	H	0.782103	-0.422304	0.219124
H90	H	0.897513	-0.383394	0.321409
H91	H	0.902420	-0.486491	0.261997
H92	H	1.065336	-0.461579	0.848620
C93	C	1.002510	-0.367751	0.989869
C94	C	1.049943	-0.438581	0.939964
H95	H	0.965838	-0.312996	0.959436
H96	H	1.034416	-0.319495	1.019545
H97	H	0.975097	-0.422732	1.024464
H98	H	1.077361	-0.383600	0.905373
H99	H	1.018033	-0.486841	0.910275
H100	H	1.065342	-0.461579	1.101476
H101	H	1.261421	-0.754393	0.966726
H102	H	1.261404	-0.754399	0.862608
H103	H	1.261415	-0.754380	0.713875
