data_functionalizedCrystal
_audit_creation_method	'MofGen! by Chris Wilmer'
_symmetry_space_group_name_H-M	'P1'
_symmetry_Int_Tables_number	1
_symmetry_cell_setting	triclinic
loop_
_symmetry_equiv_pos_as_xyz
  x,y,z
_cell_length_a	18.050591
_cell_length_b	29.839131
_cell_length_c	18.050582
_cell_angle_alpha	90.025477
_cell_angle_beta	90.020922
_cell_angle_gamma	90.037426
loop_
_atom_site_label
_atom_site_type_symbol
_atom_site_fract_x
_atom_site_fract_y
_atom_site_fract_z
Zn1	Zn	1.135224	-0.178930	0.420016
Zn2	Zn	1.635224	0.321070	0.920016
Zn3	Zn	1.135106	-0.254052	0.295820
Zn4	Zn	1.635106	0.245948	0.795820
Zn5	Zn	1.011044	-0.178932	0.295827
Zn6	Zn	1.511044	0.321068	0.795827
Zn7	Zn	1.010963	-0.254028	0.419956
Zn8	Zn	1.510963	0.245972	0.919956
O9	O	1.073084	-0.216485	0.357905
O10	O	1.573084	0.283515	0.857905
O11	O	1.239133	-0.188904	0.403564
O12	O	1.739133	0.311096	0.903564
O13	O	1.118634	-0.244098	0.191896
O14	O	1.618634	0.255902	0.691896
O15	O	1.027600	-0.116064	0.312330
O16	O	1.527600	0.383936	0.812330
O17	O	1.239047	-0.244096	0.312317
O18	O	1.739047	0.255904	0.812317
O19	O	1.118835	-0.116063	0.403571
O20	O	1.618835	0.383937	0.903571
O21	O	1.027485	-0.188907	0.191902
O22	O	1.527485	0.311093	0.691902
O23	O	0.907108	-0.188884	0.312271
O24	O	1.407108	0.311116	0.812271
O25	O	1.027462	-0.244056	0.523888
O26	O	1.527462	0.255944	1.023888
O27	O	0.907049	-0.244057	0.403467
O28	O	1.407049	0.255943	0.903467
O29	O	1.118756	-0.188881	0.523933
O30	O	1.618756	0.311119	1.023933
O31	O	1.118555	-0.316916	0.312258
O32	O	1.618555	0.183084	0.812258
O33	O	1.027348	-0.316898	0.403460
O34	O	1.527348	0.183102	0.903460
C35	C	0.880132	-0.216469	0.357864
C36	C	1.380132	0.283531	0.857864
C37	C	0.797586	-0.216472	0.357864
C38	C	1.297586	0.283528	0.857864
C39	C	0.598146	-0.186434	0.308386
C40	C	1.098146	0.313566	0.808386
C41	C	0.548711	-0.227410	0.290106
C42	C	1.048711	0.272590	0.790106
C43	C	0.646456	-0.216486	0.357897
C44	C	1.146456	0.283514	0.857897
C45	C	0.548810	-0.175525	0.376175
C46	C	1.048810	0.324475	0.876175
C47	C	0.500471	-0.216495	0.357928
C48	C	1.000471	0.283505	0.857928
C49	C	0.598108	-0.257483	0.339583
C50	C	1.098108	0.242517	0.839583
C51	C	0.598211	-0.205570	0.425683
C52	C	1.098211	0.294430	0.925683
C53	C	0.548798	-0.246574	0.407429
C54	C	1.048798	0.253426	0.907429
C55	C	0.730554	-0.216480	0.357878
C56	C	1.230554	0.283520	0.857878
C57	C	0.416374	-0.216506	0.357948
C58	C	0.916374	0.283494	0.857948
C59	C	1.072950	-0.333208	0.357868
C60	C	1.572950	0.166792	0.857868
C61	C	1.072961	-0.383142	0.357877
C62	C	1.572961	0.116858	0.857877
C63	C	1.120663	-0.692782	0.310485
C64	C	1.620663	-0.192782	0.810485
C65	C	1.120754	-0.880455	0.310514
C66	C	1.620754	-0.380455	0.810514
O67	O	1.161206	-0.904717	0.270192
O68	O	1.661206	-0.404717	0.770192
N69	N	1.073238	-0.903927	0.357961
N70	N	1.573238	-0.403927	0.857961
C71	C	1.025700	-0.880478	0.405407
C72	C	1.525700	-0.380478	0.905407
O73	O	0.985292	-0.904749	0.445769
O74	O	1.485292	-0.404749	0.945769
C75	C	1.025612	-0.692806	0.405381
C76	C	1.525612	-0.192806	0.905381
C77	C	1.073126	-0.669337	0.357926
C78	C	1.573126	-0.169337	0.857926
C79	C	1.168173	-0.669312	0.263035
C80	C	1.668173	-0.169312	0.763035
C81	C	1.168147	-0.622397	0.263025
C82	C	1.668147	-0.122397	0.763025
C83	C	1.120610	-0.598951	0.310466
C84	C	1.620610	-0.098951	0.810466
C85	C	1.073100	-0.622421	0.357917
C86	C	1.573100	-0.122421	0.857917
C87	C	0.978078	-0.669358	0.452831
C88	C	1.478078	-0.169358	0.952831
C89	C	0.978062	-0.622437	0.452822
C90	C	1.478062	-0.122437	0.952822
C91	C	1.025575	-0.598967	0.405367
C92	C	1.525575	-0.098967	0.905367
C93	C	1.025537	-0.552060	0.405348
C94	C	1.525537	-0.052060	0.905348
N95	N	1.073053	-0.528588	0.357902
N96	N	1.573053	-0.028588	0.857902
C97	C	1.120589	-0.552033	0.310461
C98	C	1.620589	-0.052033	0.810461
C99	C	1.025748	-0.979009	0.405416
C100	C	1.525748	-0.479009	0.905416
C101	C	1.025769	-1.025927	0.405422
C102	C	1.525769	-0.525927	0.905422
C103	C	1.120824	-1.025900	0.310530
C104	C	1.620824	-0.525900	0.810530
C105	C	1.120799	-0.978982	0.310521
C106	C	1.620799	-0.478982	0.810521
C107	C	1.073264	-0.955537	0.357970
C108	C	1.573264	-0.455537	0.857970
C109	C	1.120530	-0.453508	0.310444
C110	C	1.620530	0.046492	0.810444
C111	C	1.120497	-0.406588	0.310436
C112	C	1.620497	0.093412	0.810436
C113	C	1.025445	-0.406619	0.405331
C114	C	1.525445	0.093381	0.905331
C115	C	1.025474	-0.453534	0.405336
C116	C	1.525474	0.046466	0.905336
C117	C	1.073023	-0.476977	0.357890
C118	C	1.573023	0.023023	0.857890
O119	O	0.985113	-0.527769	0.445655
O120	O	1.485113	-0.027769	0.945655
O121	O	1.161002	-0.527755	0.270116
O122	O	1.661002	-0.027755	0.770116
C123	C	1.120689	-0.739698	0.310495
C124	C	1.620689	-0.239698	0.810495
C125	C	1.073178	-0.763167	0.357946
C126	C	1.573178	-0.263167	0.857946
C127	C	1.025642	-0.739722	0.405387
C128	C	1.525642	-0.239722	0.905387
C129	C	1.073199	-0.810085	0.357951
C130	C	1.573199	-0.310085	0.857951
C131	C	1.120736	-0.833531	0.310510
C132	C	1.620736	-0.333531	0.810510
C133	C	1.168252	-0.810059	0.263064
C134	C	1.668252	-0.310059	0.763064
C135	C	1.168225	-0.763143	0.263054
C136	C	1.668225	-0.263143	0.763054
C137	C	0.978126	-0.763194	0.452833
C138	C	1.478126	-0.263194	0.952833
C139	C	0.978155	-0.810109	0.452838
C140	C	1.478155	-0.310109	0.952838
C141	C	1.025692	-0.833555	0.405397
C142	C	1.525692	-0.333555	0.905397
C143	C	1.266790	-0.216502	0.357947
C144	C	1.766790	0.283498	0.857947
C145	C	1.349336	-0.216510	0.357964
C146	C	1.849336	0.283490	0.857964
C147	C	1.073113	-0.216465	0.551611
C148	C	1.573113	0.283535	1.051611
C149	C	1.073126	-0.216457	0.634156
C150	C	1.573126	0.283543	1.134156
C151	C	1.073239	-0.099307	0.357958
C152	C	1.573239	0.400693	0.857958
C153	C	1.073305	-0.049373	0.357981
C154	C	1.573305	0.450627	0.857981
C155	C	1.073098	-0.216473	0.164953
C156	C	1.573098	0.283527	0.664953
C157	C	1.073230	-0.216355	0.082407
C158	C	1.573230	0.283645	0.582407
C159	C	1.023518	-0.246420	0.833583
C160	C	1.523518	0.253580	1.333583
C161	C	1.091269	-0.257404	0.882980
C162	C	1.591269	0.242596	1.382980
C163	C	1.073162	-0.216423	0.785287
C164	C	1.573162	0.283577	1.285287
C165	C	1.005449	-0.205426	0.882971
C166	C	1.505449	0.294574	1.382971
C167	C	1.073192	-0.216390	0.931272
C168	C	1.573192	0.283610	1.431272
C169	C	1.140949	-0.227429	0.833597
C170	C	1.640949	0.272571	1.333597
C171	C	1.055083	-0.175431	0.833584
C172	C	1.555083	0.324569	1.333584
C173	C	1.122881	-0.186400	0.882959
C174	C	1.622881	0.313600	1.382959
C175	C	1.073145	-0.216442	0.701189
C176	C	1.573145	0.283558	1.201189
C177	C	1.073218	-0.216371	1.015369
C178	C	1.573218	0.283629	1.515369
H179	H	1.159189	-0.387480	0.271790
H180	H	1.659189	0.112520	0.771790
H181	H	1.198243	-0.236756	0.812000
H182	H	1.698243	0.263244	1.312000
H183	H	0.527267	-0.272021	0.449313
H184	H	1.027267	0.227979	0.949313
O185	O	1.109551	-0.298710	0.909000
O186	O	1.609551	0.201290	1.409000
C187	C	1.109947	-0.298010	0.987101
C188	C	1.609947	0.201990	1.487101
H189	H	1.118650	-0.262179	1.007260
H190	H	1.618650	0.237821	1.507260
H191	H	1.156783	-0.320125	1.008463
H192	H	1.656783	0.179875	1.508463
H193	H	1.054731	-0.311158	1.008735
H194	H	1.554731	0.188842	1.508735
O195	O	0.937177	-0.194288	0.908933
O196	O	1.437177	0.305712	1.408933
C197	C	0.942346	-0.154927	0.951872
C198	C	1.442346	0.345073	1.451872
H199	H	1.001447	-0.150947	0.973176
H200	H	1.501447	0.349053	1.473176
H201	H	0.902648	-0.157280	1.000824
H202	H	1.402648	0.342720	1.500824
H203	H	0.927122	-0.124726	0.916340
H204	H	1.427122	0.375274	1.416340
O205	O	0.623953	-0.298794	0.321054
O206	O	1.123953	0.201206	0.821054
C207	C	0.702059	-0.298288	0.321250
C208	C	1.202059	0.201712	0.821250
H209	H	0.722531	-0.262480	0.313092
H210	H	1.222531	0.237520	0.813092
H211	H	0.723581	-0.320301	0.274333
H212	H	1.223581	0.179699	0.774333
H213	H	0.723224	-0.311675	0.376481
H214	H	1.223224	0.188325	0.876481
O215	O	1.173135	-0.156171	0.908632
O216	O	1.673135	0.343829	1.408632
C217	C	1.244420	-0.167908	0.883322
C218	C	1.744420	0.332092	1.383322
H219	H	1.245780	-0.205184	0.869528
H220	H	1.745780	0.294816	1.369528
H221	H	1.286893	-0.160362	0.928396
H222	H	1.786893	0.339638	1.428396
H223	H	1.258229	-0.147670	0.831577
H224	H	1.758229	0.352330	1.331577
H225	H	1.039754	-0.140789	0.811869
H226	H	1.539754	0.359211	1.311869
O227	O	1.166739	-0.476207	0.264283
O228	O	1.666739	0.023793	0.764283
C229	C	1.208674	-0.445423	0.222418
C230	C	1.708674	0.054577	0.722418
H231	H	1.178233	-0.411999	0.219819
H232	H	1.678233	0.088001	0.719819
H233	H	1.216640	-0.458989	0.163912
H234	H	1.716640	0.041011	0.663912
H235	H	1.265058	-0.440389	0.249667
H236	H	1.765058	0.059611	0.749667
O237	O	0.979712	-1.048772	0.451552
O238	O	1.479712	-0.548772	0.951552
C239	C	1.021974	-1.075862	0.499580
C240	C	1.521974	-0.575862	0.999580
H241	H	1.078273	-1.082872	0.473445
H242	H	1.578273	-0.582872	0.973445
H243	H	0.991729	-1.108866	0.509514
H244	H	1.491729	-0.608866	1.009514
H245	H	1.030094	-1.057755	0.554618
H246	H	1.530094	-0.557755	1.054618
H247	H	0.987037	-0.959923	0.444056
H248	H	1.487037	-0.459923	0.944056
H249	H	0.939458	-0.829214	0.491481
H250	H	1.439458	-0.329214	0.991481
H251	H	0.619814	-0.161048	0.266470
H252	H	1.119814	0.338952	0.766470
H253	H	0.981575	-0.271821	0.811904
H254	H	1.481575	0.228179	1.311904
O255	O	1.214376	-0.692014	0.216875
O256	O	1.714376	-0.192014	0.716875
C257	C	1.256312	-0.661229	0.175014
C258	C	1.756312	-0.161229	0.675014
H259	H	1.225873	-0.627804	0.172421
H260	H	1.725873	-0.127804	0.672421
H261	H	1.264276	-0.674791	0.116505
H262	H	1.764276	-0.174791	0.616505
H263	H	1.312696	-0.656198	0.202263
H264	H	1.812696	-0.156198	0.702263
O265	O	0.522800	-0.238493	0.221751
O266	O	1.022800	0.261507	0.721751
C267	C	0.548934	-0.281397	0.202088
C268	C	1.048934	0.218603	0.702088
H269	H	0.601357	-0.289200	0.234860
H270	H	1.101357	0.210800	0.734860
H271	H	0.561873	-0.282180	0.140289
H272	H	1.061873	0.217820	0.640289
H273	H	0.504708	-0.307502	0.215212
H274	H	1.004708	0.192498	0.715212
H275	H	0.939353	-0.603351	0.491462
H276	H	1.439353	-0.103351	0.991462
O277	O	0.624140	-0.194456	0.494013
O278	O	1.124140	0.305544	0.994013
C279	C	0.599053	-0.151223	0.513062
C280	C	1.099053	0.348777	1.013062
H281	H	0.585167	-0.131798	0.460497
H282	H	1.085167	0.368202	0.960497
H283	H	0.644297	-0.132820	0.544998
H284	H	1.144297	0.367180	1.044998
H285	H	0.547410	-0.154092	0.549094
H286	H	1.047410	0.345908	1.049094
H287	H	1.206956	-0.829156	0.224433
H288	H	1.706956	-0.329156	0.724433
H289	H	0.527115	-0.140885	0.391596
H290	H	1.027115	0.359115	0.891596
H291	H	1.206838	-0.603291	0.224386
H292	H	1.706838	-0.103291	0.724386
O293	O	1.167026	-0.956255	0.264403
O294	O	1.667026	-0.456255	0.764403
C295	C	1.208967	-0.987015	0.222519
C296	C	1.708967	-0.487015	0.722519
H297	H	1.211529	-1.020448	0.252948
H298	H	1.711529	-0.520448	0.752948
H299	H	1.267481	-0.973433	0.214651
H300	H	1.767481	-0.473433	0.714651
H301	H	1.181808	-0.992038	0.166090
H302	H	1.681808	-0.492038	0.666090
O303	O	1.167023	-1.048749	0.264560
O304	O	1.667023	-0.548749	0.764560
C305	C	1.156857	-1.095192	0.274757
C306	C	1.656857	-0.595192	0.774757
H307	H	1.132432	-1.101581	0.332021
H308	H	1.632432	-0.601581	0.832021
H309	H	1.212513	-1.112983	0.269865
H310	H	1.712513	-0.612983	0.769865
H311	H	1.117406	-1.108566	0.230631
H312	H	1.617406	-0.608566	0.730631
H313	H	0.939383	-0.688459	0.491470
H314	H	1.439383	-0.188459	0.991470
H315	H	0.986787	-0.472644	0.443980
H316	H	1.486787	0.027356	0.943980
O317	O	0.979380	-0.383817	0.451493
O318	O	1.479380	0.116183	0.951493
C319	C	1.021631	-0.356630	0.499475
C320	C	1.521631	0.143370	0.999475
H321	H	1.080122	-0.370740	0.504119
H322	H	1.580122	0.129260	1.004119
H323	H	0.994741	-0.356088	0.556604
H324	H	1.494741	0.143912	1.056604
H325	H	1.024194	-0.321080	0.476502
H326	H	1.524194	0.178920	0.976502
H327	H	1.206916	-0.744038	0.224412
H328	H	1.706916	-0.244038	0.724412
H329	H	0.939417	-0.744108	0.491466
H330	H	1.439417	-0.244108	0.991466
