data_functionalizedCrystal
_audit_creation_method	'MofGen! by Chris Wilmer'
_symmetry_space_group_name_H-M	'P1'
_symmetry_Int_Tables_number	1
_symmetry_cell_setting	triclinic
loop_
_symmetry_equiv_pos_as_xyz
  x,y,z
_cell_length_a	14.853567
_cell_length_b	14.971486
_cell_length_c	13.330367
_cell_angle_alpha	90.001855
_cell_angle_beta	90.002061
_cell_angle_gamma	83.624530
loop_
_atom_site_label
_atom_site_type_symbol
_atom_site_fract_x
_atom_site_fract_y
_atom_site_fract_z
O1	O	-1.196344	-0.116775	-0.083355
O2	O	-0.933882	-0.130687	-0.083372
O3	O	-1.072148	0.006468	-0.083356
O4	O	-1.058079	-0.253930	-0.083371
O5	O	-1.072134	0.006464	0.083491
O6	O	-0.933868	-0.130691	0.083475
O7	O	-1.196330	-0.116779	0.083492
Cu8	Cu	-1.065098	-0.123735	0.098718
Cu9	Cu	-1.065115	-0.123731	-0.098598
O10	O	-1.058064	-0.253934	0.083476
C11	C	-0.900287	-0.130058	0.000049
C12	C	-0.800203	-0.128169	0.000043
C13	C	-1.229926	-0.117408	0.000069
C14	C	-1.330009	-0.119297	0.000068
C15	C	-1.071512	0.039791	0.000067
C16	C	-1.069626	0.139088	0.000066
C17	C	-0.387686	-0.038712	0.000071
C18	C	-0.366375	-0.201655	0.000060
C19	C	-0.460408	-0.203431	0.000057
C20	C	-0.518085	-0.122846	0.000059
C21	C	-0.481728	-0.040486	0.000064
C22	C	-0.496772	-0.285790	0.000041
C23	C	-0.590811	-0.287569	0.000037
C24	C	-0.648490	-0.206984	0.000046
C25	C	-0.612127	-0.124620	0.000053
C26	C	-0.669804	-0.044035	0.000055
C27	C	-0.633444	0.038330	0.000068
C28	C	-0.539407	0.040100	0.000074
C29	C	-0.742527	-0.208754	0.000041
C30	C	-0.763847	-0.045809	0.000048
C31	C	-1.058701	-0.287257	0.000051
C32	C	-1.060586	-0.386554	0.000045
C33	C	-1.150854	0.196299	0.000072
C34	C	-1.149076	0.289598	0.000062
C35	C	-1.066071	0.325686	0.000053
C36	C	-0.984838	0.268468	0.000044
C37	C	-0.986616	0.175170	0.000047
C38	C	-0.981137	0.462931	0.000040
C39	C	-0.979359	0.556235	0.000039
C40	C	-1.143598	0.577360	0.000055
C41	C	-1.145376	0.484062	0.000058
C42	C	-1.064142	0.426850	0.000051
N43	N	-1.065093	-0.123738	0.237500
N44	N	-1.065127	-0.123721	-0.237379
C45	C	-1.003860	-0.184452	0.290018
C46	C	-1.126330	-0.063021	0.290010
C47	C	-1.126340	-0.063018	0.395028
C48	C	-1.065107	-0.123731	0.447546
C49	C	-1.003865	-0.184448	0.395046
C50	C	-1.187574	-0.002296	0.447536
C51	C	-1.187585	-0.002289	0.552561
C52	C	-1.126356	-0.063008	0.605081
C53	C	-1.065113	-0.123728	0.552574
C54	C	-1.003880	-0.184441	0.605092
C55	C	-0.942640	-0.245166	0.552587
C56	C	-0.942636	-0.245167	0.447566
C57	C	-1.126360	-0.063007	0.710102
C58	C	-1.003885	-0.184438	0.710120
H59	H	-0.680417	0.103941	0.000063
O60	O	-0.352416	0.041316	0.000258
C61	C	-0.341920	0.181152	0.086674
C62	C	-0.381906	0.090542	0.086600
H63	H	-0.365763	0.220984	0.156464
H64	H	-0.264798	0.168638	0.086745
H65	H	-0.365649	0.220940	0.016816
H66	H	-0.358247	0.050707	0.156446
H67	H	-0.459024	0.103120	0.086477
O68	O	-0.944463	-0.243560	0.239066
C69	C	-0.891771	-0.399000	0.206995
C70	C	-0.959102	-0.332160	0.264743
H71	H	-0.903570	-0.470647	0.227749
H72	H	-0.902283	-0.388658	0.122899
H73	H	-0.819562	-0.387170	0.227638
H74	H	-1.031337	-0.343950	0.244184
H75	H	-0.948511	-0.342518	0.348825
H76	H	-0.892780	-0.294596	0.595360
O77	O	-1.247018	0.056536	0.396299
C78	C	-1.266397	0.178382	0.277394
C79	C	-1.198914	0.111909	0.335419
H80	H	-1.227531	0.223181	0.228175
H81	H	-1.311311	0.139462	0.228270
H82	H	-1.310319	0.221759	0.332845
H83	H	-1.154933	0.068515	0.280041
H84	H	-1.154063	0.150884	0.384558
O85	O	-1.247164	0.056723	0.603403
C86	C	-1.368610	0.177195	0.592303
C87	C	-1.301197	0.110403	0.534597
H88	H	-1.412300	0.220626	0.536698
H89	H	-1.413752	0.138540	0.641432
H90	H	-1.329632	0.221910	0.641510
H91	H	-1.340100	0.065671	0.485336
H92	H	-1.256054	0.149114	0.485531
H93	H	-0.892776	-0.294606	0.404810
H94	H	-0.810802	0.019814	0.000054
H95	H	-0.449806	-0.351397	0.000029
O96	O	-0.904183	0.303479	-0.000145
C97	C	-0.763253	0.313923	-0.086568
C98	C	-0.854572	0.274232	-0.086493
H99	H	-0.723108	0.290277	-0.156362
H100	H	-0.775882	0.390436	-0.086631
H101	H	-0.723137	0.290386	-0.016715
H102	H	-0.894735	0.297700	-0.156334
H103	H	-0.841879	0.197723	-0.086378
H104	H	-0.620407	-0.354635	0.000026
O105	O	-1.228064	0.345045	0.000120
C106	C	-1.391154	0.356151	0.000091
C107	C	-1.301764	0.293256	0.000050
H108	H	-1.450764	0.314306	0.000014
H109	H	-1.394479	0.400346	0.069931
H110	H	-1.394392	0.400374	-0.069719
H111	H	-1.298467	0.248977	0.069813
H112	H	-1.298477	0.249123	-0.069837
H113	H	-0.920472	0.128589	0.000042
O114	O	-1.185795	-0.003901	0.760999
C115	C	-1.238387	0.151544	0.793184
C116	C	-1.171039	0.084699	0.735463
H117	H	-1.226467	0.223191	0.772576
H118	H	-1.310628	0.139849	0.772513
H119	H	-1.227883	0.141068	0.877261
H120	H	-1.181460	0.095135	0.651373
H121	H	-1.098822	0.096410	0.756218
O122	O	-0.504191	0.120157	-0.000058
C123	C	-0.493582	0.259938	-0.086531
C124	C	-0.533547	0.169317	-0.086489
H125	H	-0.517285	0.299702	-0.156413
H126	H	-0.517345	0.299832	-0.016753
H127	H	-0.416466	0.247336	-0.086485
H128	H	-0.610664	0.181838	-0.086570
H129	H	-0.509712	0.129452	-0.156260
H130	H	-1.218446	0.166924	0.000086
O131	O	-0.902286	0.407265	0.000168
C132	C	-0.808944	0.289711	0.086640
C133	C	-0.898282	0.352685	0.086601
H134	H	-0.805669	0.245580	0.156524
H135	H	-0.805661	0.245437	0.016864
H136	H	-0.749328	0.331548	0.086588
H137	H	-0.957949	0.310919	0.086688
H138	H	-0.901486	0.396963	0.156371
H139	H	-0.911769	0.585614	0.000048
H140	H	-0.954025	-0.233881	0.752874
H141	H	-0.319409	-0.267263	0.000050
H142	H	-0.772127	-0.275814	0.000031
H143	H	-1.176180	-0.013586	0.247246
H144	H	-1.212967	0.454683	0.000073
H145	H	-1.209742	0.623946	0.000058
