data_functionalizedCrystal
_audit_creation_method	'MofGen! by Chris Wilmer'
_symmetry_space_group_name_H-M	'P1'
_symmetry_Int_Tables_number	1
_symmetry_cell_setting	triclinic
loop_
_symmetry_equiv_pos_as_xyz
  x,y,z
_cell_length_a	21.395364
_cell_length_b	16.120444
_cell_length_c	21.395355
_cell_angle_alpha	92.881464
_cell_angle_beta	89.975448
_cell_angle_gamma	92.941529
loop_
_atom_site_label
_atom_site_type_symbol
_atom_site_fract_x
_atom_site_fract_y
_atom_site_fract_z
Zn1	Zn	0.945239	-0.331681	-0.366899
Zn2	Zn	1.278572	0.001653	-0.033566
Zn3	Zn	1.611906	0.334986	0.299767
Zn4	Zn	0.939837	-0.471080	-0.267433
Zn5	Zn	1.273171	-0.137746	0.065900
Zn6	Zn	1.606504	0.195587	0.399233
Zn7	Zn	0.840452	-0.331717	-0.262137
Zn8	Zn	1.173786	0.001616	0.071196
Zn9	Zn	1.507119	0.334950	0.404529
Zn10	Zn	0.835118	-0.471095	-0.372174
Zn11	Zn	1.168452	-0.137761	-0.038841
Zn12	Zn	1.501785	0.195572	0.294493
O13	O	0.890162	-0.401393	-0.317161
O14	O	1.223495	-0.068060	0.016172
O15	O	1.556828	0.265274	0.349506
O16	O	1.032201	-0.350151	-0.353714
O17	O	1.365534	-0.016817	-0.020381
O18	O	1.698868	0.316516	0.312953
O19	O	0.926625	-0.452602	-0.179053
O20	O	1.259959	-0.119269	0.154280
O21	O	1.593292	0.214065	0.487613
O22	O	0.858846	-0.215043	-0.271611
O23	O	1.192179	0.118290	0.061723
O24	O	1.525512	0.451623	0.395056
O25	O	1.028233	-0.452567	-0.280637
O26	O	1.361566	-0.119233	0.052697
O27	O	1.694899	0.214100	0.386030
O28	O	0.935832	-0.215016	-0.348579
O29	O	1.269165	0.118317	-0.015245
O30	O	1.602498	0.451650	0.318088
O31	O	0.853608	-0.350213	-0.175162
O32	O	1.186941	-0.016880	0.158171
O33	O	1.520274	0.316454	0.491504
O34	O	0.752066	-0.350227	-0.276725
O35	O	1.085399	-0.016894	0.056608
O36	O	1.418733	0.316439	0.389941
O37	O	0.849754	-0.452592	-0.459152
O38	O	1.183088	-0.119259	-0.125819
O39	O	1.516421	0.214075	0.207515
O40	O	0.748147	-0.452628	-0.357569
O41	O	1.081481	-0.119294	-0.024235
O42	O	1.414814	0.214039	0.309098
O43	O	0.930659	-0.350165	-0.455277
O44	O	1.263993	-0.016832	-0.121943
O45	O	1.597326	0.316502	0.211390
O46	O	0.921453	-0.587751	-0.285751
O47	O	1.254786	-0.254418	0.047582
O48	O	1.588120	0.078916	0.380915
O49	O	0.844517	-0.587762	-0.362704
O50	O	1.177850	-0.254428	-0.029371
O51	O	1.511183	0.078905	0.303963
C52	C	0.727373	-0.401434	-0.317145
C53	C	1.060706	-0.068100	0.016188
C54	C	1.394039	0.265233	0.349522
C55	C	0.657730	-0.401471	-0.317154
C56	C	0.991063	-0.068138	0.016180
C57	C	1.324397	0.265196	0.349513
C58	C	0.627102	-0.348230	-0.355270
C59	C	0.960436	-0.014897	-0.021937
C60	C	1.293769	0.318436	0.311396
C61	C	0.561668	-0.348208	-0.355272
C62	C	0.895001	-0.014875	-0.021939
C63	C	1.228334	0.318458	0.311395
C64	C	0.526863	-0.401442	-0.317164
C65	C	0.860196	-0.068108	0.016169
C66	C	1.193529	0.265225	0.349503
C67	C	0.557498	-0.454686	-0.279040
C68	C	0.890831	-0.121353	0.054293
C69	C	1.224165	0.211981	0.387627
C70	C	0.622932	-0.454701	-0.279035
C71	C	0.956265	-0.121367	0.054299
C72	C	1.289598	0.211966	0.387632
C73	C	0.420281	-0.476523	-0.314987
C74	C	0.753615	-0.143190	0.018346
C75	C	1.086948	0.190143	0.351679
C76	C	0.354849	-0.476510	-0.314997
C77	C	0.688182	-0.143177	0.018336
C78	C	1.021516	0.190157	0.351670
C79	C	0.325044	-0.401396	-0.317176
C80	C	0.658377	-0.068062	0.016157
C81	C	0.991710	0.265271	0.349490
C82	C	0.360679	-0.326292	-0.319359
C83	C	0.694012	0.007041	0.013974
C84	C	1.027346	0.340374	0.347308
C85	C	0.426113	-0.326307	-0.319354
C86	C	0.759446	0.007026	0.013979
C87	C	1.092779	0.340360	0.347313
C88	C	0.455911	-0.401431	-0.317165
C89	C	0.789244	-0.068098	0.016168
C90	C	1.122577	0.265235	0.349502
C91	C	0.223465	-0.348126	-0.355297
C92	C	0.556798	-0.014793	-0.021963
C93	C	0.890131	0.318540	0.311370
C94	C	0.158029	-0.348103	-0.355294
C95	C	0.491362	-0.014770	-0.021960
C96	C	0.824696	0.318564	0.311373
C97	C	0.153860	-0.454588	-0.279065
C98	C	0.487194	-0.121255	0.054268
C99	C	0.820527	0.212078	0.387602
C100	C	0.219295	-0.454604	-0.279064
C101	C	0.552628	-0.121271	0.054269
C102	C	0.885962	0.212062	0.387602
C103	C	0.254093	-0.401375	-0.317184
C104	C	0.587427	-0.068041	0.016150
C105	C	0.920760	0.265292	0.349483
C106	C	0.881837	-0.618007	-0.325388
C107	C	1.215170	-0.284674	0.007945
C108	C	1.548504	0.048659	0.341278
C109	C	0.878333	-0.710676	-0.328929
C110	C	1.211666	-0.377342	0.004404
C111	C	1.545000	-0.044009	0.337738
C112	C	0.908493	-0.921598	-0.298929
C113	C	1.241826	-0.588265	0.034404
C114	C	1.575159	-0.254931	0.367738
C115	C	0.871947	-0.880337	-0.335400
C116	C	1.205280	-0.547003	-0.002066
C117	C	1.538614	-0.213670	0.331267
C118	C	0.875501	-0.785929	-0.331798
C119	C	1.208834	-0.452595	0.001535
C120	C	1.542168	-0.119262	0.334868
C121	C	0.904939	-1.016015	-0.302530
C122	C	1.238273	-0.682681	0.030804
C123	C	1.571606	-0.349348	0.364137
C124	C	1.053587	-0.401353	-0.317178
C125	C	1.386920	-0.068020	0.016156
C126	C	1.720253	0.265314	0.349489
C127	C	1.123228	-0.401336	-0.317185
C128	C	1.456562	-0.068003	0.016149
C129	C	1.789895	0.265331	0.349482
C130	C	0.890214	-0.401376	-0.480584
C131	C	1.223548	-0.068043	-0.147250
C132	C	1.556881	0.265290	0.186083
C133	C	0.890237	-0.401369	-0.550225
C134	C	1.223570	-0.068036	-0.216891
C135	C	1.556903	0.265298	0.116442
C136	C	0.898536	-0.183933	-0.308915
C137	C	1.231869	0.149400	0.024418
C138	C	1.565203	0.482734	0.357751
C139	C	0.902105	-0.091264	-0.305402
C140	C	1.235438	0.242069	0.027932
C141	C	1.568771	0.575402	0.361265
C142	C	0.932362	-0.348033	-0.580921
C143	C	1.265696	-0.014700	-0.247588
C144	C	1.599029	0.318634	0.085746
C145	C	0.932363	-0.347997	-0.646355
C146	C	1.265696	-0.014664	-0.313022
C147	C	1.599030	0.318669	0.020312
C148	C	0.890244	-0.401312	-0.681091
C149	C	1.223577	-0.067979	-0.347758
C150	C	1.556911	0.265354	-0.014424
C151	C	0.848110	-0.454652	-0.650387
C152	C	1.181444	-0.121319	-0.317054
C153	C	1.514777	0.212015	0.016280
C154	C	0.848107	-0.454680	-0.584954
C155	C	1.181440	-0.121347	-0.251621
C156	C	1.514773	0.211986	0.081713
C157	C	0.882412	-0.476383	-0.787617
C158	C	1.215745	-0.143050	-0.454284
C159	C	1.549078	0.190283	-0.120950
C160	C	0.882419	-0.476356	-0.853049
C161	C	1.215753	-0.143023	-0.519716
C162	C	1.549086	0.190310	-0.186382
C163	C	0.890251	-0.401224	-0.882909
C164	C	1.223584	-0.067891	-0.549575
C165	C	1.556918	0.265443	-0.216242
C166	C	0.898088	-0.326117	-0.847328
C167	C	1.231422	0.007217	-0.513995
C168	C	1.564755	0.340550	-0.180661
C169	C	0.898085	-0.326145	-0.781895
C170	C	1.231418	0.007188	-0.448562
C171	C	1.564751	0.340522	-0.115228
C172	C	0.890243	-0.401287	-0.752042
C173	C	1.223576	-0.067954	-0.418709
C174	C	1.556909	0.265380	-0.085376
C175	C	0.932380	-0.347845	-0.984556
C176	C	1.265713	-0.014511	-0.651222
C177	C	1.599046	0.318822	-0.317889
C178	C	0.932376	-0.347807	-1.049991
C179	C	1.265709	-0.014474	-0.716658
C180	C	1.599042	0.318859	-0.383324
C181	C	0.848126	-0.454470	-1.054022
C182	C	1.181459	-0.121136	-0.720689
C183	C	1.514793	0.212197	-0.387355
C184	C	0.848127	-0.454499	-0.988588
C185	C	1.181460	-0.121166	-0.655254
C186	C	1.514794	0.212167	-0.321921
C187	C	0.890257	-0.401188	-0.953858
C188	C	1.223590	-0.067855	-0.620525
C189	C	1.556924	0.265479	-0.287192
C190	C	0.890148	-0.401350	-0.154372
C191	C	1.223481	-0.068016	0.178961
C192	C	1.556814	0.265317	0.512295
C193	C	0.890256	-0.401122	-0.084722
C194	C	1.223589	-0.067789	0.248611
C195	C	1.556922	0.265545	0.581944
H196	H	0.444543	-0.537695	-0.313212
H197	H	0.777876	-0.204362	0.020121
H198	H	1.111210	0.128972	0.353454
Br199	Br	0.116462	-0.275835	-0.407023
Br200	Br	0.449795	0.057498	-0.073690
Br201	Br	0.783128	0.390832	0.259643
H202	H	0.536726	-0.304849	-0.386310
H203	H	0.870059	0.028484	-0.052977
H204	H	1.203392	0.361818	0.280357
H205	H	0.942447	-0.886024	-0.265002
H206	H	1.275780	-0.552691	0.068331
H207	H	1.609114	-0.219358	0.401664
H208	H	0.244232	-0.497962	-0.248028
H209	H	0.577565	-0.164629	0.085305
H210	H	0.910899	0.168704	0.418638
Br211	Br	0.106632	-0.526826	-0.227339
Br212	Br	0.439966	-0.193493	0.105994
Br213	Br	0.773299	0.139840	0.439328
Br214	Br	0.306494	-0.578435	-0.312048
Br215	Br	0.639827	-0.245102	0.021285
Br216	Br	0.973160	0.088231	0.354619
H217	H	0.837990	-0.915915	-0.369328
H218	H	1.171323	-0.582581	-0.035995
H219	H	1.504656	-0.249248	0.297339
Br220	Br	0.510265	-0.526926	-0.227316
Br221	Br	0.843598	-0.193592	0.106017
Br222	Br	1.176932	0.139741	0.439350
H223	H	0.647868	-0.498057	-0.247995
H224	H	0.981201	-0.164724	0.085339
H225	H	1.314535	0.168609	0.418672
H226	H	0.813815	-0.498059	-0.678673
H227	H	1.147148	-0.164725	-0.345340
H228	H	1.480481	0.168608	-0.012007
Br229	Br	0.989536	-0.275679	-0.533791
Br230	Br	1.322869	0.057654	-0.200458
Br231	Br	1.656203	0.390987	0.132876
Br232	Br	0.871792	-0.578287	-0.901330
Br233	Br	1.205125	-0.244953	-0.567997
Br234	Br	1.538459	0.088380	-0.234663
H235	H	0.655431	-0.304886	-0.386309
H236	H	0.988764	0.028447	-0.052976
H237	H	1.322098	0.361781	0.280357
Br238	Br	0.871801	-0.578360	-0.747100
Br239	Br	1.205134	-0.245027	-0.413767
Br240	Br	1.538467	0.088307	-0.080434
H241	H	0.966666	-0.304560	-0.671353
H242	H	1.299999	0.028773	-0.338019
H243	H	1.633332	0.362107	-0.004686
H244	H	0.904464	-0.264990	-0.752928
H245	H	1.237798	0.068343	-0.419595
H246	H	1.571131	0.401677	-0.086261
Br247	Br	0.908723	-0.224144	-0.887843
Br248	Br	1.242056	0.109189	-0.554509
Br249	Br	1.575390	0.442522	-0.221176
Br250	Br	0.989552	-0.275493	-0.937419
Br251	Br	1.322886	0.057840	-0.604086
Br252	Br	1.656219	0.391174	-0.270753
Br253	Br	0.989561	-0.275429	-1.091652
Br254	Br	1.322894	0.057904	-0.758318
Br255	Br	1.656227	0.391238	-0.424985
Br256	Br	0.790956	-0.526817	-1.101156
Br257	Br	1.124289	-0.193483	-0.767823
Br258	Br	1.457622	0.139850	-0.434489
H259	H	0.813800	-0.498112	-0.559962
H260	H	1.147134	-0.164778	-0.226628
H261	H	1.480467	0.168555	0.106705
Br262	Br	0.474473	-0.224387	-0.322314
Br263	Br	0.807806	0.108946	0.011019
Br264	Br	1.141140	0.442280	0.344352
Br265	Br	0.320238	-0.224344	-0.322318
Br266	Br	0.653571	0.108990	0.011015
Br267	Br	0.986905	0.442323	0.344348
Br268	Br	0.790954	-0.526890	-0.946925
Br269	Br	1.124288	-0.193556	-0.613592
Br270	Br	1.457621	0.139777	-0.280259
Br271	Br	0.270695	-0.275883	-0.407024
Br272	Br	0.604028	0.057450	-0.073691
Br273	Br	0.937361	0.390783	0.259642
