data_functionalizedCrystal
_audit_creation_method	'MofGen! by Chris Wilmer'
_symmetry_space_group_name_H-M	'P1'
_symmetry_Int_Tables_number	1
_symmetry_cell_setting	triclinic
loop_
_symmetry_equiv_pos_as_xyz
  x,y,z
_cell_length_a	6.817900
_cell_length_b	16.417825
_cell_length_c	14.858572
_cell_angle_alpha	95.076393
_cell_angle_beta	104.524003
_cell_angle_gamma	103.385495
loop_
_atom_site_label
_atom_site_type_symbol
_atom_site_fract_x
_atom_site_fract_y
_atom_site_fract_z
V1	V	-4.037850	-0.116413	-0.290288
V2	V	-3.537850	0.383587	0.209712
O3	O	-4.025633	0.005052	-0.284426
O4	O	-3.525633	0.505052	0.215574
O5	O	-3.988830	-0.230306	-0.288625
O6	O	-3.488830	0.269694	0.211375
O7	O	-3.994497	-0.114860	-0.416745
O8	O	-3.494497	0.385140	0.083255
O9	O	-4.019927	-0.111193	-0.155419
O10	O	-3.519927	0.388807	0.344581
V11	V	-4.520905	-0.101856	-0.274117
V12	V	-4.020905	0.398144	0.225883
O13	O	-4.300137	-0.148344	-0.325759
O14	O	-3.800137	0.351656	0.174241
O15	O	-4.708816	-0.069925	-0.238646
O16	O	-4.208816	0.430075	0.261354
O17	O	-4.346719	0.012036	-0.275780
O18	O	-3.846719	0.512036	0.224220
O19	O	-4.650519	-0.223321	-0.279978
O20	O	-4.150519	0.276679	0.220022
O21	O	-4.656225	-0.107076	-0.408985
O22	O	-4.156225	0.392924	0.091015
O23	O	-4.341052	-0.103409	-0.147660
O24	O	-3.841052	0.396591	0.352340
C25	C	-3.833516	-0.258063	-0.284129
C26	C	-3.333516	0.241937	0.215871
C27	C	-3.874757	-0.351173	-0.283612
C28	C	-3.374757	0.148827	0.216388
C29	C	-3.926095	-0.553281	-0.197243
C30	C	-3.426095	-0.053281	0.302757
C31	C	-3.964868	-0.640769	-0.196765
C32	C	-3.464868	-0.140769	0.303235
C33	C	-4.052041	-0.664989	-0.367172
C34	C	-3.552041	-0.164989	0.132828
C35	C	-4.013283	-0.577502	-0.367649
C36	C	-3.513283	-0.077502	0.132351
C37	C	-3.950299	-0.521650	-0.282682
C38	C	-3.450299	-0.021650	0.217318
C39	C	-4.027830	-0.696625	-0.281726
C40	C	-3.527830	-0.196625	0.218274
C41	C	-4.069869	-0.791484	-0.281208
C42	C	-3.569869	-0.291484	0.218792
C43	C	-3.908261	-0.426785	-0.283199
C44	C	-3.408261	0.073215	0.216801
C45	C	-3.840744	-0.110800	-0.447557
C46	C	-3.340744	0.389200	0.052443
C47	C	-3.886577	-0.110284	-0.550939
C48	C	-3.386577	0.389716	-0.050939
C49	C	-4.054327	-0.108399	-0.929502
C50	C	-3.554327	0.391601	-0.429502
C51	C	-4.007645	-0.108923	-0.824174
C52	C	-3.507645	0.391077	-0.324174
C53	C	-3.970453	-0.109342	-0.740224
C54	C	-3.470453	0.390658	-0.240224
C55	C	-3.923769	-0.109865	-0.634889
C56	C	-3.423769	0.390135	-0.134889
C57	C	-4.165374	0.039789	-0.280274
C58	C	-3.665374	0.539789	0.219726
C59	C	-4.103372	0.132899	-0.280796
C60	C	-3.603372	0.632899	0.219204
C61	C	-4.158147	-0.107472	-0.116842
C62	C	-3.658147	0.392528	0.383158
C63	C	-4.091552	-0.107984	-0.013460
C64	C	-3.591552	0.392016	0.486540
H65	H	-3.874811	-0.507807	-0.128057
H66	H	-3.374811	-0.007807	0.371943
C67	C	-4.121281	-0.726434	-0.460630
C68	C	-3.621281	-0.226434	0.039370
N69	N	-4.173416	-0.772713	-0.531024
N70	N	-3.673416	-0.272713	-0.031024
C71	C	-4.039900	-0.542707	-0.461643
C72	C	-3.539900	-0.042707	0.038357
N73	N	-4.059947	-0.516499	-0.532437
N74	N	-3.559947	-0.016499	-0.032437
C75	C	-3.938229	-0.675558	-0.102775
C76	C	-3.438229	-0.175558	0.397225
N77	N	-3.918162	-0.701759	-0.031978
N78	N	-3.418162	-0.201759	0.468022
