data_functionalizedCrystal
_audit_creation_method	'MofGen! by Chris Wilmer'
_symmetry_space_group_name_H-M	'P1'
_symmetry_Int_Tables_number	1
_symmetry_cell_setting	triclinic
loop_
_symmetry_equiv_pos_as_xyz
  x,y,z
_cell_length_a	19.188930
_cell_length_b	19.188930
_cell_length_c	14.586319
_cell_angle_alpha	89.991095
_cell_angle_beta	89.982618
_cell_angle_gamma	83.144779
loop_
_atom_site_label
_atom_site_type_symbol
_atom_site_fract_x
_atom_site_fract_y
_atom_site_fract_z
O1	O	0.926144	0.087167	-0.076545
O2	O	0.722833	0.098901	-0.076484
O3	O	0.830355	-0.008622	-0.076498
O4	O	0.818621	0.194690	-0.076531
O5	O	0.830348	-0.008623	0.075982
O6	O	0.722825	0.098899	0.075997
O7	O	0.926136	0.087165	0.075936
Cu8	Cu	0.824480	0.093032	0.089889
Cu9	Cu	0.824489	0.093034	-0.090437
O10	O	0.818614	0.194688	0.075950
C11	C	0.696818	0.098520	-0.000235
C12	C	0.619313	0.097380	-0.000211
C13	C	0.574389	0.160470	-0.000235
C14	C	0.501566	0.159399	-0.000245
C15	C	0.473669	0.095233	-0.000249
C16	C	0.518603	0.032133	-0.000220
C17	C	0.591425	0.033207	-0.000201
N18	N	0.365691	0.046186	-0.052174
N19	N	0.296513	0.045171	-0.052194
C20	C	0.254260	0.091994	-0.000305
N21	N	0.283799	0.139883	0.051594
N22	N	0.352983	0.140900	0.051610
C23	C	0.394707	0.094062	-0.000269
C24	C	0.130372	0.153928	-0.000339
C25	C	0.057547	0.152853	-0.000343
C26	C	0.074586	0.025586	-0.000326
C27	C	0.147409	0.026662	-0.000313
C28	C	0.175298	0.090835	-0.000323
C29	C	0.829972	-0.034634	-0.000255
C30	C	0.828831	-0.112138	-0.000247
C31	C	0.891922	-0.157062	-0.000262
C32	C	0.890850	-0.229886	-0.000276
C33	C	0.826684	-0.257782	-0.000257
C34	C	0.763585	-0.212849	-0.000248
C35	C	0.764658	-0.140026	-0.000243
N36	N	0.777634	-0.365788	0.051650
N37	N	0.776619	-0.434967	0.051647
C38	C	0.823446	-0.477191	-0.000275
N39	N	0.871338	-0.447625	-0.052182
N40	N	0.872355	-0.378440	-0.052175
C41	C	0.825513	-0.336745	-0.000264
C42	C	0.885379	-0.601079	-0.000306
C43	C	0.884305	-0.673904	-0.000327
C44	C	0.757038	-0.656865	-0.000289
C45	C	0.758114	-0.584042	-0.000278
C46	C	0.822286	-0.556154	-0.000283
C47	C	0.952151	0.087546	-0.000315
C48	C	1.029656	0.088687	-0.000345
C49	C	0.818997	0.220700	-0.000295
C50	C	0.820138	0.298204	-0.000309
N51	N	0.824479	0.093030	0.216721
N52	N	0.824496	0.093030	-0.217269
C53	C	0.872106	0.045435	0.451721
C54	C	0.872108	0.045433	0.547702
C55	C	0.776864	0.140628	0.547724
C56	C	0.776859	0.140626	0.451745
C57	C	0.824484	0.093030	0.403745
C58	C	0.824491	0.093031	0.595706
C59	C	0.824493	0.093029	0.699773
C60	C	0.824481	0.093030	0.299672
H61	H	0.464982	0.210776	-0.000263
C62	C	0.923742	-0.006198	0.399440
C63	C	0.913545	0.003982	0.305116
C64	C	0.961090	-0.043582	0.256930
H65	H	0.916313	-0.052794	0.415100
H66	H	0.970344	0.001238	0.415069
H67	H	0.866953	-0.003460	0.289494
H68	H	0.920979	0.050568	0.289429
H69	H	1.007692	-0.036145	0.272559
H70	H	0.953657	-0.090174	0.272597
H71	H	0.954182	-0.036677	0.192927
H72	H	0.738090	0.179380	0.586815
H73	H	0.183988	-0.024713	-0.000298
C74	C	0.959277	-0.278788	-0.000330
C75	C	0.944600	-0.348531	-0.000352
C76	C	1.007616	-0.393597	-0.000412
H77	H	0.985641	-0.270452	0.052827
H78	H	0.985613	-0.270391	-0.053527
H79	H	0.918275	-0.356925	0.052839
H80	H	0.918246	-0.356890	-0.053505
H81	H	1.033952	-0.385200	-0.053609
H82	H	1.033975	-0.385254	0.052746
H83	H	0.997667	-0.440922	-0.000435
H84	H	0.935683	-0.710481	-0.000344
H85	H	0.704792	-0.679578	-0.000278
H86	H	0.713281	-0.103449	-0.000230
H87	H	0.051874	-0.026659	-0.000386
H88	H	0.738076	0.179383	0.412681
C89	C	0.160751	0.223548	-0.000190
C90	C	0.202047	0.227870	0.078255
C91	C	0.230047	0.291990	0.078419
H92	H	0.123633	0.261030	-0.000150
H93	H	0.188863	0.226624	-0.053330
H94	H	0.173937	0.224800	0.131381
H95	H	0.239175	0.190403	0.078231
H96	H	0.258159	0.295066	0.025279
H97	H	0.192925	0.329466	0.078457
H98	H	0.258075	0.294928	0.131639
H99	H	0.910885	0.006677	0.586761
H100	H	0.937632	-0.578372	-0.000314
H101	H	0.706738	-0.547464	-0.000261
C102	C	0.604532	0.230213	-0.000188
C103	C	0.549596	0.285237	-0.000187
C104	C	0.577338	0.349493	-0.000128
H105	H	0.632597	0.233379	-0.053338
H106	H	0.632543	0.233315	0.053015
H107	H	0.521597	0.282137	-0.053385
H108	H	0.521527	0.282094	0.052959
H109	H	0.605349	0.352594	0.053076
H110	H	0.605403	0.352652	-0.053279
H111	H	0.540069	0.386834	-0.000119
C112	C	0.488359	-0.037555	-0.000039
C113	C	0.511164	-0.075676	0.078432
C114	C	0.483311	-0.139874	0.078640
H115	H	0.503797	-0.063607	-0.053142
H116	H	0.438551	-0.029188	-0.000007
H117	H	0.560961	-0.084045	0.078392
H118	H	0.495727	-0.049645	0.131548
H119	H	0.433503	-0.131508	0.078671
H120	H	0.498751	-0.165921	0.025533
H121	H	0.498775	-0.165745	0.131885
C122	C	0.008885	0.221432	-0.000414
C123	C	0.048899	0.277857	-0.000444
C124	C	0.004095	0.341042	-0.000521
H125	H	-0.019912	0.223761	0.052739
H126	H	-0.019849	0.223694	-0.053614
H127	H	0.077621	0.275596	0.052752
H128	H	0.077694	0.275551	-0.053593
H129	H	-0.024639	0.343304	-0.053722
H130	H	-0.024699	0.343365	0.052633
H131	H	0.031238	0.379334	-0.000550
C132	C	0.961665	-0.126919	-0.000320
C133	C	1.016688	-0.181855	-0.000359
C134	C	1.080944	-0.154113	-0.000426
H135	H	0.964825	-0.098884	0.052840
H136	H	0.964772	-0.098879	-0.053514
H137	H	1.013582	-0.209884	0.052830
H138	H	1.013551	-0.209895	-0.053515
H139	H	1.084052	-0.126072	-0.053620
H140	H	1.084097	-0.126078	0.052735
H141	H	1.118285	-0.191382	-0.000461
C142	C	0.640171	-0.035318	-0.000371
C143	C	0.627635	-0.073959	-0.078829
C144	C	0.672534	-0.137083	-0.079026
H145	H	0.631761	-0.061724	0.052741
H146	H	0.687546	-0.025518	-0.000413
H147	H	0.580271	-0.083761	-0.078779
H148	H	0.636050	-0.047574	-0.131954
H149	H	0.719909	-0.127283	-0.079068
H150	H	0.664120	-0.163483	-0.025910
H151	H	0.664039	-0.163306	-0.132263
H152	H	0.711340	-0.235567	-0.000235
