data_functionalizedCrystal
_audit_creation_method	'MofGen! by Chris Wilmer'
_symmetry_space_group_name_H-M	'P1'
_symmetry_Int_Tables_number	1
_symmetry_cell_setting	triclinic
loop_
_symmetry_equiv_pos_as_xyz
  x,y,z
_cell_length_a	14.519709
_cell_length_b	9.016244
_cell_length_c	14.519709
_cell_angle_alpha	90.003180
_cell_angle_beta	83.680145
_cell_angle_gamma	90.001728
loop_
_atom_site_label
_atom_site_type_symbol
_atom_site_fract_x
_atom_site_fract_y
_atom_site_fract_z
O1	O	1.223872	0.123150	0.120887
O2	O	1.723872	0.623150	0.620887
O3	O	0.955395	0.123196	0.135124
O4	O	1.455395	0.623196	0.635124
O5	O	1.096752	0.123159	-0.006233
O6	O	1.596752	0.623159	0.493767
O7	O	1.082515	0.123188	0.262244
O8	O	1.582515	0.623188	0.762244
O9	O	1.096731	-0.123522	-0.006230
O10	O	1.596731	0.376478	0.493770
O11	O	0.955374	-0.123485	0.135127
O12	O	1.455374	0.376515	0.635127
O13	O	1.223851	-0.123530	0.120891
O14	O	1.723851	0.376470	0.620891
Cu15	Cu	1.089611	-0.146031	0.128009
Cu16	Cu	1.589611	0.353969	0.628009
Cu17	Cu	1.089635	0.145697	0.128005
Cu18	Cu	1.589635	0.645697	0.628005
O19	O	1.082494	-0.123493	0.262247
O20	O	1.582494	0.376507	0.762247
C21	C	0.921025	-0.000139	0.134462
C22	C	1.421025	0.499861	0.634462
C23	C	0.818643	-0.000122	0.132474
C24	C	1.318643	0.499878	0.632474
N25	N	1.089600	-0.351218	0.128011
N26	N	1.589600	0.148782	0.628011
C27	C	0.443748	-0.000190	0.125154
C28	C	0.943748	0.499810	0.625154
C29	C	0.548056	-0.000170	0.127187
C30	C	1.048056	0.499830	0.627187
C31	C	0.631192	-0.000154	0.128814
C32	C	1.131192	0.499846	0.628814
C33	C	0.735507	-0.000138	0.130847
C34	C	1.235507	0.499862	0.630847
C35	C	1.013755	-0.586230	0.203378
C36	C	1.513755	-0.086230	0.703378
C37	C	1.013920	-0.414339	0.203657
C38	C	1.513920	0.085661	0.703657
C39	C	1.185864	-0.413570	0.149189
C40	C	1.685864	0.086430	0.649189
C41	C	1.185449	-0.585515	0.149722
C42	C	1.685449	-0.085515	0.649722
C43	C	1.070141	-0.585768	0.031215
C44	C	1.570141	-0.085768	0.531215
C45	C	1.067924	-0.413813	0.031860
C46	C	1.567924	0.086187	0.531860
C47	C	1.258221	-0.000192	0.121553
C48	C	1.758221	0.499808	0.621553
C49	C	1.360602	-0.000200	0.123541
C50	C	1.860602	0.499800	0.623541
C51	C	1.096078	-0.000182	-0.040591
C52	C	1.596078	0.499818	0.459409
C53	C	1.094090	-0.000182	-0.142972
C54	C	1.594090	0.499818	0.357028
N55	N	1.089653	0.350883	0.127996
N56	N	1.589653	0.850883	0.627996
C57	C	1.086770	-0.000143	-0.517868
C58	C	1.586770	0.499857	-0.017868
C59	C	1.088803	-0.000154	-0.413560
C60	C	1.588803	0.499846	0.086440
C61	C	1.090430	-0.000164	-0.330423
C62	C	1.590430	0.499836	0.169577
C63	C	1.092463	-0.000173	-0.226109
C64	C	1.592463	0.499827	0.273891
C65	C	1.083168	-0.000149	0.296606
C66	C	1.583168	0.499851	0.796606
C67	C	1.085156	-0.000139	0.398987
C68	C	1.585156	0.499861	0.898987
H69	H	0.941980	-0.627613	0.190940
H70	H	1.441980	-0.127613	0.690940
C71	C	1.208567	-0.794919	0.246715
C72	C	1.708567	-0.294919	0.746715
C73	C	1.208636	-0.639642	0.245005
C74	C	1.708636	-0.139642	0.745005
H75	H	1.222890	-0.828326	0.305538
H76	H	1.722890	-0.328326	0.805538
H77	H	1.149098	-0.830459	0.235980
H78	H	1.649098	-0.330459	0.735980
H79	H	1.253680	-0.831278	0.199794
H80	H	1.753680	-0.331278	0.699794
H81	H	1.163518	-0.603283	0.291922
H82	H	1.663518	-0.103283	0.791922
H83	H	1.268113	-0.604088	0.255750
H84	H	1.768113	-0.104088	0.755750
C85	C	0.962326	-0.587737	0.366303
C86	C	1.462326	-0.087737	0.866303
C87	C	1.030358	-0.644524	0.299785
C88	C	1.530358	-0.144524	0.799785
H89	H	0.972576	-0.623736	0.425818
H90	H	1.472576	-0.123736	0.925818
H91	H	0.965370	-0.482504	0.366014
H92	H	1.465370	0.017496	0.866014
H93	H	0.902892	-0.618482	0.352195
H94	H	1.402892	-0.118482	0.852195
H95	H	1.089792	-0.613770	0.313889
H96	H	1.589792	-0.113770	0.813889
H97	H	1.027323	-0.749780	0.300077
H98	H	1.527323	-0.249780	0.800077
C99	C	0.955306	-0.272582	0.337401
C100	C	1.455306	0.227418	0.837401
C101	C	1.030756	-0.358778	0.300608
C102	C	1.530756	0.141222	0.800608
H103	H	0.965702	-0.238293	0.397259
H104	H	1.465702	0.261707	0.897259
H105	H	0.948541	-0.190105	0.298011
H106	H	1.448541	0.309895	0.798011
H107	H	0.900507	-0.330905	0.341899
H108	H	1.400507	0.169095	0.841899
H109	H	1.085554	-0.300452	0.296103
H110	H	1.585554	0.199548	0.796103
H111	H	1.037531	-0.441267	0.340007
H112	H	1.537531	0.058733	0.840007
C113	C	1.311196	-0.520438	0.035423
C114	C	1.811196	-0.020438	0.535423
C115	C	1.263978	-0.641682	0.078424
C116	C	1.763978	-0.141682	0.578424
H117	H	1.359676	-0.555113	-0.008590
H118	H	1.859676	-0.055113	0.491410
H119	H	1.269316	-0.462094	0.004908
H120	H	1.769316	0.037906	0.504908
H121	H	1.336631	-0.461895	0.080789
H122	H	1.836631	0.038105	0.580789
H123	H	1.238537	-0.700220	0.033059
H124	H	1.738537	-0.200220	0.533059
H125	H	1.305865	-0.700051	0.108939
H126	H	1.805865	-0.200051	0.608939
H127	H	1.203434	-0.370488	0.218973
H128	H	1.703434	0.129512	0.718973
C129	C	1.191491	-0.518772	-0.087351
C130	C	1.691491	-0.018772	0.412649
C131	C	1.144848	-0.640672	-0.044521
C132	C	1.644848	-0.140672	0.455479
H133	H	1.237616	-0.552678	-0.134098
H134	H	1.737616	-0.052678	0.365902
H135	H	1.148589	-0.457552	-0.114496
H136	H	1.648589	0.042448	0.385504
H137	H	1.219914	-0.463430	-0.042506
H138	H	1.719914	0.036570	0.457494
H139	H	1.116419	-0.696008	-0.089365
H140	H	1.616419	-0.196008	0.410635
H141	H	1.187758	-0.701916	-0.017376
H142	H	1.687758	-0.201916	0.482624
H143	H	0.942371	-0.372184	0.191015
H144	H	1.442371	0.127816	0.691015
H145	H	1.001467	-0.629206	0.010890
H146	H	1.501467	-0.129206	0.510890
C147	C	0.972180	-0.203582	0.007121
C148	C	1.472180	0.296418	0.507121
C149	C	0.972328	-0.358805	0.010165
C150	C	1.472328	0.141195	0.510165
H151	H	0.913163	-0.169621	-0.006274
H152	H	1.413163	0.330379	0.493726
H153	H	0.984898	-0.165372	0.065359
H154	H	1.484898	0.334628	0.565359
H155	H	1.018371	-0.170486	-0.039799
H156	H	1.518371	0.329514	0.460201
H157	H	0.926142	-0.391902	0.057091
H158	H	1.426142	0.108098	0.557091
H159	H	0.959599	-0.397030	-0.048080
H160	H	1.459599	0.102970	0.451920
H161	H	1.243692	-0.372680	0.095753
H162	H	1.743692	0.127320	0.595753
H163	H	1.119596	-0.370851	-0.026875
H164	H	1.619596	0.129149	0.473125
