data_functionalizedCrystal
_audit_creation_method	'MofGen! by Chris Wilmer'
_symmetry_space_group_name_H-M	'P1'
_symmetry_Int_Tables_number	1
_symmetry_cell_setting	triclinic
loop_
_symmetry_equiv_pos_as_xyz
  x,y,z
_cell_length_a	42.795273
_cell_length_b	42.779590
_cell_length_c	42.784893
_cell_angle_alpha	119.999958
_cell_angle_beta	89.999015
_cell_angle_gamma	120.012069
loop_
_atom_site_label
_atom_site_type_symbol
_atom_site_fract_x
_atom_site_fract_y
_atom_site_fract_z
O1	O	0.214288	-0.275768	-0.009305
O2	O	0.168864	-0.211748	0.009249
O3	O	0.168847	-0.275767	-0.054756
O4	O	0.214305	-0.211750	0.054700
O5	O	0.220833	-0.223767	-0.054752
O6	O	0.220850	-0.159749	0.009253
O7	O	0.266273	-0.223769	-0.009301
Zn8	Zn	0.251816	-0.183503	-0.000023
Zn9	Zn	0.183322	-0.252014	-0.000029
O10	O	0.266291	-0.159751	0.054704
C11	C	0.079112	0.005332	0.028111
C12	C	0.098001	-0.013390	0.028377
C13	C	0.022515	-0.051278	0.028115
C14	C	0.041490	-0.069913	0.028382
C15	C	0.079100	-0.051277	0.028116
C16	C	0.041502	-0.013391	0.028376
C17	C	0.113690	0.131593	0.017851
C18	C	0.131508	0.167353	0.014951
C19	C	0.168777	0.185292	0.013495
C20	C	0.188096	0.224061	0.010343
C21	C	0.188230	0.167470	0.014943
C22	C	0.170414	0.131716	0.017849
C23	C	0.133143	0.113777	0.019303
C24	C	0.170748	-0.096094	0.017873
C25	C	0.188679	-0.116809	0.014978
C26	C	0.169337	-0.155546	0.013525
C27	C	0.188774	-0.178014	0.010381
C28	C	0.132062	-0.173564	0.014973
C29	C	0.114134	-0.152845	0.017875
C30	C	0.133481	-0.114108	0.019323
C31	C	-0.113950	-0.096098	0.017869
C32	C	-0.152598	-0.116818	0.014968
C33	C	-0.171991	-0.155555	0.013517
C34	C	-0.213897	-0.178024	0.010370
C35	C	-0.152736	-0.173572	0.014964
C36	C	-0.114088	-0.152852	0.017863
C37	C	-0.094697	-0.114112	0.019319
C38	C	0.113826	0.075005	0.022450
C39	C	0.098429	0.044101	0.024960
C40	C	-0.019389	-0.073743	0.024969
C41	C	-0.052791	-0.091650	0.022463
C42	C	0.098540	-0.073741	0.024971
C43	C	0.114037	-0.091647	0.022466
O44	O	-0.227709	-0.159759	0.009242
O45	O	-0.337152	-0.223783	-0.009314
O46	O	-0.273154	-0.159757	0.054692
O47	O	-0.291707	-0.223785	-0.054764
O48	O	-0.273164	-0.211750	0.054697
O49	O	-0.337162	-0.275776	-0.009309
O50	O	-0.227719	-0.211753	0.009247
Zn51	Zn	-0.282442	-0.252019	-0.000030
Zn52	Zn	-0.282429	-0.183516	-0.000037
O53	O	-0.291717	-0.275779	-0.054759
C54	C	0.079019	-0.384496	-0.361620
C55	C	0.041403	-0.422387	-0.380520
C56	C	0.079019	-0.384496	-0.305022
C57	C	0.041403	-0.422387	-0.324007
C58	C	0.022420	-0.441111	-0.361624
C59	C	0.097917	-0.365858	-0.324004
C60	C	0.170703	-0.282541	-0.396175
C61	C	0.188645	-0.261698	-0.413988
C62	C	0.169305	-0.279588	-0.451264
C63	C	0.188753	-0.256986	-0.470578
C64	C	0.132023	-0.318326	-0.470727
C65	C	0.114087	-0.339169	-0.452916
C66	C	0.133429	-0.321275	-0.415638
C67	C	-0.114067	-0.567387	-0.453311
C68	C	-0.152719	-0.603151	-0.471253
C69	C	-0.172110	-0.621092	-0.451916
C70	C	-0.214020	-0.659865	-0.471364
C71	C	-0.152845	-0.603267	-0.414635
C72	C	-0.114193	-0.567509	-0.396696
C73	C	-0.094807	-0.549569	-0.416038
C74	C	0.170703	-0.282541	-0.168529
C75	C	0.188643	-0.261695	-0.129874
C76	C	0.169303	-0.279585	-0.110485
C77	C	0.188751	-0.256983	-0.068573
C78	C	0.132023	-0.318319	-0.129752
C79	C	0.114085	-0.339163	-0.168405
C80	C	0.133430	-0.321272	-0.187792
C81	C	0.113975	-0.343877	-0.396326
C82	C	0.098470	-0.361894	-0.380932
C83	C	0.098470	-0.361894	-0.263111
C84	C	0.113975	-0.343877	-0.229704
C85	C	-0.019490	-0.479884	-0.381075
C86	C	-0.052896	-0.510792	-0.396581
C87	C	0.356009	-0.440876	-0.028201
C88	C	0.393621	-0.422153	-0.028465
C89	C	0.356026	-0.384260	-0.028196
C90	C	0.393637	-0.365622	-0.028459
C91	C	0.412610	-0.384261	-0.028197
C92	C	0.337123	-0.422151	-0.028463
C93	C	0.264317	-0.567154	-0.017965
C94	C	0.246371	-0.602920	-0.015071
C95	C	0.265701	-0.620861	-0.013619
C96	C	0.246248	-0.659636	-0.010474
C97	C	0.302977	-0.603037	-0.015064
C98	C	0.320918	-0.567278	-0.017963
C99	C	0.301586	-0.549337	-0.019414
C100	C	0.549074	-0.339443	-0.017948
C101	C	0.587722	-0.318725	-0.015050
C102	C	0.607119	-0.279984	-0.013590
C103	C	0.649024	-0.257515	-0.010442
C104	C	0.587864	-0.261963	-0.015034
C105	C	0.549216	-0.282684	-0.017939
C106	C	0.529824	-0.321425	-0.019394
C107	C	0.264383	-0.339435	-0.017943
C108	C	0.246455	-0.318713	-0.015038
C109	C	0.265801	-0.279972	-0.013580
C110	C	0.246365	-0.257501	-0.010429
C111	C	0.303075	-0.261953	-0.015024
C112	C	0.321002	-0.282675	-0.017927
C113	C	0.301651	-0.321419	-0.019389
C114	C	0.321045	-0.510559	-0.022554
C115	C	0.336554	-0.479651	-0.025058
C116	C	0.336588	-0.361792	-0.025046
C117	C	0.321093	-0.343884	-0.022537
C118	C	0.454515	-0.361795	-0.025049
C119	C	0.487917	-0.343888	-0.022540
O120	O	0.266144	0.327671	-0.009345
O121	O	0.220685	0.236753	0.009212
O122	O	0.220680	0.236739	-0.054794
O123	O	0.266150	0.327685	0.054662
O124	O	0.168708	0.236739	-0.054795
O125	O	0.168713	0.236753	0.009211
O126	O	0.214173	0.327671	-0.009345
Zn127	Zn	0.183191	0.282212	-0.000067
Zn128	Zn	0.251666	0.282212	-0.000066
O129	O	0.214178	0.327685	0.054661
O130	O	-0.337288	-0.763488	-0.496915
O131	O	-0.227839	-0.672558	-0.451459
O132	O	-0.291822	-0.672556	-0.451456
O133	O	-0.273305	-0.763490	-0.496918
O134	O	-0.291823	-0.672557	-0.503441
O135	O	-0.227840	-0.672559	-0.503444
O136	O	-0.337290	-0.763490	-0.548900
Zn137	Zn	-0.282565	-0.718024	-0.534426
Zn138	Zn	-0.282563	-0.718023	-0.465933
O139	O	-0.273307	-0.763491	-0.548902
O140	O	0.214309	-0.211746	-0.548620
O141	O	0.168848	-0.275766	-0.503174
O142	O	0.168867	-0.211746	-0.503167
O143	O	0.214291	-0.275765	-0.548626
O144	O	0.220852	-0.159748	-0.451179
O145	O	0.220833	-0.223767	-0.451186
O146	O	0.266294	-0.159747	-0.496632
Zn147	Zn	0.251817	-0.183502	-0.465654
Zn148	Zn	0.183325	-0.252011	-0.534151
O149	O	0.266275	-0.223767	-0.496638
C150	C	0.412476	0.005351	0.361572
C151	C	0.393493	-0.013373	0.380468
C152	C	0.355876	-0.051264	0.304970
C153	C	0.336979	-0.069902	0.323952
C154	C	0.355876	-0.051264	0.361569
C155	C	0.393492	-0.013373	0.323955
C156	C	0.548963	0.131626	0.396140
C157	C	0.587615	0.167391	0.413956
C158	C	0.607004	0.185332	0.451232
C159	C	0.648915	0.224105	0.470549
C160	C	0.587739	0.167507	0.470692
C161	C	0.549089	0.131749	0.452877
C162	C	0.529701	0.113809	0.415599
C163	C	0.321312	-0.096084	0.453245
C164	C	0.303497	-0.116801	0.471184
C165	C	0.266222	-0.155542	0.451843
C166	C	0.246904	-0.178011	0.471288
C167	C	0.246761	-0.173561	0.414562
C168	C	0.264574	-0.152841	0.396627
C169	C	0.301853	-0.114100	0.415972
C170	C	0.321310	-0.096086	0.168480
C171	C	0.303496	-0.116808	0.129825
C172	C	0.266219	-0.155548	0.110433
C173	C	0.246902	-0.178018	0.068521
C174	C	0.246761	-0.173567	0.129696
C175	C	0.264576	-0.152846	0.168350
C176	C	0.301851	-0.114102	0.187740
C177	C	0.487791	0.075032	0.396284
C178	C	0.454385	0.044124	0.380887
C179	C	0.336561	-0.073731	0.263059
C180	C	0.321165	-0.091639	0.229652
C181	C	0.336562	-0.073730	0.381016
C182	C	0.321166	-0.091637	0.396519
C183	C	-0.254301	-0.051015	0.361554
C184	C	-0.254031	-0.013127	0.380448
C185	C	-0.254293	-0.051019	0.304954
C186	C	-0.254023	-0.013131	0.323934
C187	C	-0.254289	0.005594	0.361549
C188	C	-0.254035	-0.069653	0.323939
C189	C	-0.264571	-0.152957	0.396124
C190	C	-0.267474	-0.173797	0.413941
C191	C	-0.268930	-0.155906	0.451215
C192	C	-0.272085	-0.178505	0.470532
C193	C	-0.267479	-0.117172	0.470673
C194	C	-0.264571	-0.096332	0.452858
C195	C	-0.263117	-0.114226	0.415582
C196	C	-0.264522	0.131861	0.453216
C197	C	-0.267414	0.167622	0.471152
C198	C	-0.268863	0.185559	0.451811
C199	C	-0.272005	0.224329	0.471253
C200	C	-0.267416	0.167734	0.414532
C201	C	-0.264517	0.131979	0.396599
C202	C	-0.263073	0.114042	0.415945
C203	C	-0.264539	-0.152973	0.168470
C204	C	-0.267440	-0.173821	0.129816
C205	C	-0.268888	-0.155934	0.110424
C206	C	-0.272034	-0.178537	0.068513
C207	C	-0.267438	-0.117203	0.129685
C208	C	-0.264539	-0.096358	0.168337
C209	C	-0.263087	-0.114246	0.187728
C210	C	-0.259966	-0.091627	0.396267
C211	C	-0.257454	-0.073613	0.380870
C212	C	-0.257438	-0.073622	0.263045
C213	C	-0.259943	-0.091639	0.229638
C214	C	-0.257430	0.044364	0.380994
C215	C	-0.259933	0.075269	0.396495
C216	C	-0.310582	-0.440885	-0.361615
C217	C	-0.310840	-0.422164	-0.380515
C218	C	-0.310578	-0.384272	-0.305020
C219	C	-0.310836	-0.365638	-0.324006
C220	C	-0.310570	-0.384276	-0.361621
C221	C	-0.310848	-0.422160	-0.324000
C222	C	-0.300358	-0.567148	-0.396163
C223	C	-0.297466	-0.602910	-0.413974
C224	C	-0.296011	-0.620851	-0.451248
C225	C	-0.292868	-0.659621	-0.470560
C226	C	-0.297450	-0.603030	-0.470712
C227	C	-0.300347	-0.567274	-0.452902
C228	C	-0.301801	-0.549334	-0.415626
C229	C	-0.300303	-0.339465	-0.453304
C230	C	-0.297399	-0.318750	-0.471246
C231	C	-0.295938	-0.280012	-0.451911
C232	C	-0.292784	-0.257545	-0.471359
C233	C	-0.297386	-0.261992	-0.414632
C234	C	-0.300296	-0.282710	-0.396693
C235	C	-0.301752	-0.321448	-0.416033
C236	C	-0.300343	-0.339445	-0.168531
C237	C	-0.297443	-0.318723	-0.129877
C238	C	-0.295984	-0.279985	-0.110490
C239	C	-0.292837	-0.257514	-0.068579
C240	C	-0.297421	-0.261969	-0.129757
C241	C	-0.300320	-0.282691	-0.168409
C242	C	-0.301784	-0.321432	-0.187794
C243	C	-0.304939	-0.510560	-0.396317
C244	C	-0.307441	-0.479655	-0.380925
C245	C	-0.307433	-0.361805	-0.263111
C246	C	-0.304928	-0.343897	-0.229705
C247	C	-0.307417	-0.361813	-0.381072
C248	C	-0.304904	-0.343908	-0.396577
C249	C	0.022478	-0.051362	-0.361661
C250	C	0.041451	-0.070002	-0.380558
C251	C	0.079080	0.005259	-0.305061
C252	C	0.097967	-0.013467	-0.324044
C253	C	0.079063	-0.051362	-0.361661
C254	C	0.041468	-0.013467	-0.324044
C255	C	-0.113988	-0.096186	-0.396222
C256	C	-0.152636	-0.116905	-0.414036
C257	C	-0.172033	-0.155650	-0.451312
C258	C	-0.213940	-0.178122	-0.470627
C259	C	-0.152778	-0.173672	-0.470773
C260	C	-0.114131	-0.152950	-0.452960
C261	C	-0.094736	-0.114205	-0.415683
C262	C	0.113585	-0.153327	-0.453341
C263	C	0.131389	-0.174172	-0.471281
C264	C	0.168659	-0.156283	-0.451942
C265	C	0.187965	-0.178884	-0.471388
C266	C	0.188127	-0.117541	-0.414661
C267	C	0.170326	-0.096693	-0.396724
C268	C	0.133051	-0.114592	-0.416068
C269	C	0.113673	0.131553	-0.168570
C270	C	0.131493	0.167319	-0.129916
C271	C	0.168765	0.185262	-0.110526
C272	C	0.188087	0.224041	-0.068613
C273	C	0.188213	0.167435	-0.129790
C274	C	0.170392	0.131668	-0.168443
C275	C	0.133122	0.113732	-0.187831
C276	C	-0.052830	-0.091740	-0.396369
C277	C	-0.019427	-0.073831	-0.380974
C278	C	0.098401	0.044038	-0.263150
C279	C	0.113802	0.074950	-0.229743
C280	C	0.098365	-0.073967	-0.381110
C281	C	0.113751	-0.091985	-0.396614
O282	O	-0.291779	-0.223733	0.548584
O283	O	-0.273216	-0.159725	0.503126
O284	O	-0.337218	-0.223745	0.503117
O285	O	-0.227777	-0.159712	0.548592
O286	O	-0.337222	-0.275743	0.451137
O287	O	-0.273219	-0.211722	0.451145
O288	O	-0.291782	-0.275731	0.496603
Zn289	Zn	-0.282501	-0.251982	0.465621
Zn290	Zn	-0.282497	-0.183473	0.534108
O291	O	-0.227780	-0.211710	0.496612
C292	C	0.356042	0.615787	0.361527
C293	C	0.393654	0.634426	0.380424
C294	C	0.356024	0.559165	0.304927
C295	C	0.393636	0.577891	0.323910
C296	C	0.412626	0.615786	0.361527
C297	C	0.337137	0.577891	0.323911
C298	C	0.264399	0.660612	0.396090
C299	C	0.246470	0.681332	0.413905
C300	C	0.265817	0.720077	0.451181
C301	C	0.246381	0.742549	0.470496
C302	C	0.303094	0.738098	0.470641
C303	C	0.321018	0.717375	0.452828
C304	C	0.301669	0.678630	0.415551
C305	C	0.549110	0.717749	0.453206
C306	C	0.587759	0.738594	0.471145
C307	C	0.607139	0.720704	0.451806
C308	C	0.649045	0.743305	0.471252
C309	C	0.587866	0.681963	0.414526
C310	C	0.549218	0.661114	0.396589
C311	C	0.529842	0.679015	0.415933
C312	C	0.264327	0.432872	0.168437
C313	C	0.246381	0.397105	0.129782
C314	C	0.265710	0.379162	0.110392
C315	C	0.246255	0.340383	0.068480
C316	C	0.302985	0.396989	0.129656
C317	C	0.320929	0.432755	0.168309
C318	C	0.301595	0.450692	0.187698
C319	C	0.321110	0.656165	0.396237
C320	C	0.336604	0.638256	0.380841
C321	C	0.336567	0.520386	0.263017
C322	C	0.321057	0.489474	0.229610
C323	C	0.454532	0.638390	0.380975
C324	C	0.487935	0.656407	0.396479
H325	H	0.128905	0.002285	0.028807
H326	H	-0.268657	-0.205335	0.398095
O327	O	0.191568	-0.263249	-0.355974
H328	H	0.175249	-0.255011	-0.336982
H329	H	0.216409	-0.205102	0.398817
H330	H	0.083734	-0.370709	-0.468765
O331	O	0.191614	-0.054310	0.019443
H332	H	0.220613	-0.045143	0.018140
H333	H	-0.268625	-0.205360	0.114135
O334	O	0.323945	-0.220167	-0.013452
H335	H	0.331448	-0.226912	-0.039888
H336	H	0.216023	-0.617427	-0.013893
O337	O	0.528158	-0.381233	-0.019530
H338	H	0.542402	-0.374498	0.006902
O339	O	-0.262959	0.112516	0.474079
H340	H	-0.237632	0.138383	0.500610
O341	O	0.243592	-0.172280	0.356416
H342	H	0.214681	-0.202704	0.345975
H343	H	0.116281	-0.332890	-0.501078
O344	O	-0.311419	-0.442913	-0.303810
H345	H	-0.311557	-0.423514	-0.274411
H346	H	0.351665	-0.064539	0.469000
H347	H	0.533180	0.117023	0.365787
O348	O	0.608673	0.186801	0.510866
H349	H	0.588791	0.168382	0.521394
O350	O	-0.268976	0.186846	0.511357
H351	H	-0.294302	0.160923	0.511970
O352	O	-0.268974	0.187078	0.393668
H353	H	-0.271234	0.214935	0.412399
H354	H	-0.253623	-0.100147	0.308700
H355	H	0.318711	-0.617649	-0.013884
O356	O	0.073386	-0.172627	-0.474203
H357	H	0.073432	-0.148111	-0.476895
O358	O	-0.301875	-0.381245	-0.474162
H359	H	-0.329077	-0.408418	-0.476857
O360	O	-0.173405	-0.097474	-0.393047
H361	H	-0.153427	-0.067055	-0.364133
H362	H	0.026246	-0.100399	0.028811
O363	O	-0.262956	0.112753	0.356394
H364	H	-0.264453	0.131229	0.345954
O365	O	-0.262969	-0.054581	0.189114
H366	H	-0.264458	-0.045641	0.169138
O367	O	0.413850	0.674819	0.421364
H368	H	0.422202	0.667070	0.439704
H369	H	-0.296288	-0.617412	-0.398122
O370	O	0.324481	-0.097373	0.109048
H371	H	0.353391	-0.066950	0.129027
O372	O	0.608545	0.780383	0.511348
H373	H	0.594245	0.773599	0.530999
O374	O	0.361202	-0.263242	-0.019486
H375	H	0.380237	-0.254949	0.005077
H376	H	-0.301475	-0.268036	-0.366341
H377	H	0.533405	0.117241	0.468724
O378	O	-0.093067	-0.054396	-0.356018
H379	H	-0.068595	-0.027231	-0.356063
H380	H	0.306243	0.562241	0.308662
H381	H	0.603645	0.667392	0.398781
H382	H	-0.268618	-0.102639	0.113893
O383	O	0.323829	0.377627	0.108744
H384	H	0.326519	0.380347	0.084267
O385	O	0.296039	-0.110287	0.303766
H386	H	0.286028	-0.120163	0.274364
H387	H	0.351266	-0.552770	-0.019141
H388	H	0.026234	0.002203	-0.308805
O389	O	0.361515	-0.054303	0.189394
H390	H	0.372056	-0.045259	0.169504
O391	O	-0.093153	-0.548046	-0.474174
H392	H	-0.113039	-0.566453	-0.503112
H393	H	0.408733	0.002304	0.411378
H394	H	0.218564	0.182048	-0.114001
H395	H	0.026164	-0.438057	-0.411428
H396	H	-0.296231	-0.230424	-0.113970
O397	O	-0.295898	-0.338156	-0.109098
H398	H	-0.297407	-0.368579	-0.129073
H399	H	-0.311254	-0.335148	-0.308765
O400	O	0.021302	0.007340	0.028928
H401	H	0.037399	0.041798	0.055010
O402	O	-0.311401	-0.442918	-0.421453
H403	H	-0.311537	-0.472459	-0.431459
H404	H	0.218998	-0.230158	-0.398138
H405	H	0.603397	-0.333399	-0.013872
H406	H	-0.301538	-0.370992	-0.184313
O407	O	-0.301925	-0.547797	-0.355959
H408	H	-0.300441	-0.566197	-0.345419
O409	O	0.191319	-0.054910	-0.356519
H410	H	0.198824	-0.061702	-0.336870
O411	O	0.243586	-0.172280	0.189125
H412	H	0.262237	-0.151365	0.219259
H413	H	0.603657	-0.230420	-0.013849
H414	H	0.533528	0.629571	0.366237
O415	O	0.228426	0.186820	0.013376
H416	H	0.238960	0.168425	0.014875
O417	O	0.021216	-0.443142	-0.303819
H418	H	-0.004754	-0.443307	-0.302309
O419	O	0.191369	0.112445	-0.189223
H420	H	0.220281	0.130932	-0.169249
H421	H	-0.296267	-0.617642	-0.501061
O422	O	0.073931	-0.172286	0.019426
H423	H	0.073307	-0.173500	0.044748
O424	O	-0.262976	-0.172269	0.189382
H425	H	-0.260712	-0.151265	0.219495
H426	H	-0.263386	-0.167531	0.365774
H427	H	0.218994	-0.230152	-0.114188
H428	H	0.408851	-0.437825	-0.028891
O429	O	-0.301896	-0.548050	-0.473890
H430	H	-0.300393	-0.566528	-0.502799
H431	H	-0.168274	-0.102146	0.013790
H432	H	0.083330	0.116958	-0.184357
O433	O	0.528449	-0.263249	-0.019494
H434	H	0.548428	-0.232828	-0.017989
O435	O	0.228325	-0.098244	-0.393801
H436	H	0.238871	-0.067803	-0.364868
H437	H	-0.168402	-0.617660	-0.501606
H438	H	0.603297	0.181900	0.398109
H439	H	0.351279	0.447267	0.183992
O440	O	0.323957	0.779886	0.510843
H441	H	0.331457	0.773150	0.530544
H442	H	-0.268662	-0.102607	0.501022
H443	H	-0.296220	-0.333424	-0.501598
H444	H	-0.296201	-0.230453	-0.398890
H445	H	-0.098510	-0.553000	-0.366343
H446	H	-0.098163	-0.064555	0.019054
O447	O	0.413676	0.007382	0.303766
H448	H	0.443078	0.036929	0.323296
H449	H	0.408882	-0.335130	-0.028880
O450	O	0.324486	-0.097373	0.511388
H451	H	0.353401	-0.066957	0.521823
O452	O	0.191563	-0.263243	-0.189439
H453	H	0.220496	-0.232804	-0.169547
H454	H	0.216407	-0.205113	0.113905
H455	H	0.216034	0.382600	0.114097
H456	H	-0.253594	0.002535	0.308689
O457	O	-0.301875	-0.263264	-0.189191
H458	H	-0.300378	-0.232849	-0.169219
H459	H	0.128873	0.002210	-0.308804
H460	H	0.026201	-0.100500	-0.411464
H461	H	0.115654	0.181830	-0.114232
O462	O	-0.253473	0.007632	0.421385
H463	H	-0.253347	-0.011766	0.431396
O464	O	-0.173695	-0.215457	-0.510976
H465	H	-0.203805	-0.226841	-0.520094
H466	H	-0.263387	-0.064794	0.468703
H467	H	-0.098456	-0.167624	-0.468808
H468	H	0.115535	-0.205717	-0.501633
H469	H	0.306220	-0.437821	-0.028887
O470	O	0.243509	-0.381222	-0.019519
H471	H	0.240802	-0.408395	-0.046728
O472	O	0.413817	0.557139	0.303723
H473	H	0.394286	0.527590	0.274320
H474	H	0.216107	-0.333386	-0.013860
H475	H	-0.168633	-0.617879	-0.398891
O476	O	0.243477	0.452224	0.189347
H477	H	0.216945	0.426361	0.188815
O478	O	0.073494	0.112249	0.019425
H479	H	0.062963	0.130652	0.017936
H480	H	0.248640	0.629064	0.365738
O481	O	0.206271	0.661902	0.392915
H482	H	0.195831	0.631484	0.364000
H483	H	0.351368	0.732051	0.468675
O484	O	0.528210	0.737050	0.474067
H485	H	0.528740	0.738253	0.500597
O486	O	0.110520	0.186556	0.013362
H487	H	0.081607	0.168066	0.014850
H488	H	-0.098412	-0.167524	0.019043
H489	H	0.186255	0.117210	0.019030
H490	H	0.083731	-0.370701	-0.184089
O491	O	0.228880	-0.097375	0.013419
H492	H	0.229497	-0.096172	-0.011908
O493	O	0.111195	-0.215346	0.013404
H494	H	0.129921	-0.226730	0.011139
H495	H	0.128820	-0.335360	-0.308759
O496	O	-0.173648	-0.215352	0.013402
H497	H	-0.203755	-0.226732	0.011147
H498	H	0.248573	-0.552551	-0.019148
O499	O	0.111160	-0.337622	-0.108845
H500	H	0.129896	-0.316626	-0.078731
