data_functionalizedCrystal
_audit_creation_method	'MofGen! by Chris Wilmer'
_symmetry_space_group_name_H-M	'P1'
_symmetry_Int_Tables_number	1
_symmetry_cell_setting	triclinic
loop_
_symmetry_equiv_pos_as_xyz
  x,y,z
_cell_length_a	18.215407
_cell_length_b	29.839131
_cell_length_c	18.215399
_cell_angle_alpha	90.026703
_cell_angle_beta	90.019833
_cell_angle_gamma	90.042151
loop_
_atom_site_label
_atom_site_type_symbol
_atom_site_fract_x
_atom_site_fract_y
_atom_site_fract_z
Zn1	Zn	1.124986	-0.178853	0.416122
Zn2	Zn	1.124858	-0.253982	0.293059
Zn3	Zn	1.001919	-0.178867	0.293070
Zn4	Zn	1.001848	-0.253957	0.416083
O5	O	1.063403	-0.216415	0.354583
O6	O	1.227953	-0.188823	0.399809
O7	O	1.108526	-0.244034	0.190076
O8	O	1.018327	-0.115998	0.309414
O9	O	1.227859	-0.244020	0.309395
O10	O	1.108744	-0.115987	0.399820
O11	O	1.018203	-0.188848	0.190084
O12	O	0.898925	-0.188824	0.309376
O13	O	1.018207	-0.243978	0.519073
O14	O	0.898873	-0.243992	0.399754
O15	O	1.108676	-0.188799	0.519101
O16	O	1.108458	-0.316846	0.309357
O17	O	1.018083	-0.316827	0.399743
C18	C	0.872196	-0.216407	0.354562
C19	C	0.790398	-0.216414	0.354571
C20	C	1.063269	-0.333137	0.354561
C21	C	1.063279	-0.383072	0.354576
C22	C	0.602196	-0.245186	0.401571
C23	C	0.525337	-0.245187	0.401581
C24	C	0.525361	-0.187652	0.307612
C25	C	0.602219	-0.187648	0.307607
C26	C	0.640634	-0.216418	0.354585
C27	C	0.486918	-0.216423	0.354600
C28	C	0.403584	-0.216424	0.354609
C29	C	0.723973	-0.216416	0.354577
C30	C	1.016375	-0.739665	0.401644
C31	C	1.016278	-0.551992	0.401621
O32	O	0.976238	-0.527732	0.441627
N33	N	1.063357	-0.528517	0.354598
C34	C	1.110467	-0.551963	0.307580
O35	O	1.150514	-0.527690	0.267589
C36	C	1.110567	-0.739635	0.307608
C37	C	1.063480	-0.763108	0.354629
C38	C	0.969292	-0.763138	0.448662
C39	C	0.969314	-0.810053	0.448665
C40	C	1.016419	-0.833496	0.401649
C41	C	1.063502	-0.810023	0.354631
C42	C	1.157681	-0.763080	0.260594
C43	C	1.157703	-0.810001	0.260607
C44	C	1.110616	-0.833474	0.307628
C45	C	1.110629	-0.880381	0.307618
N46	N	1.063550	-0.903856	0.354642
C47	C	1.016445	-0.880414	0.401657
C48	C	1.110410	-0.453432	0.307568
C49	C	1.110384	-0.406514	0.307560
C50	C	1.016195	-0.406547	0.401602
C51	C	1.016218	-0.453465	0.401606
C52	C	1.063331	-0.476907	0.354592
C53	C	1.016494	-0.978939	0.401658
C54	C	1.016518	-1.025859	0.401654
C55	C	1.110709	-1.025823	0.307615
C56	C	1.110683	-0.978907	0.307616
C57	C	1.063573	-0.955467	0.354643
O58	O	1.150654	-0.904670	0.267640
O59	O	0.976415	-0.904695	0.441654
C60	C	1.016353	-0.692749	0.401642
C61	C	1.063436	-0.669277	0.354624
C62	C	1.110541	-0.692720	0.307608
C63	C	1.063410	-0.622359	0.354616
C64	C	1.016305	-0.598916	0.401631
C65	C	0.969226	-0.622391	0.448655
C66	C	0.969248	-0.669307	0.448657
C67	C	1.157620	-0.669244	0.260585
C68	C	1.157594	-0.622329	0.260586
C69	C	1.110489	-0.598886	0.307601
C70	C	1.255356	-0.216423	0.354605
C71	C	1.337155	-0.216426	0.354614
C72	C	1.063448	-0.216384	0.546536
C73	C	1.063467	-0.216370	0.628335
C74	C	1.063557	-0.099236	0.354622
C75	C	1.063623	-0.049302	0.354639
C76	C	1.063400	-0.216413	0.163377
C77	C	1.063524	-0.216300	0.081579
C78	C	1.110591	-0.187612	0.816545
C79	C	1.110600	-0.187599	0.893404
C80	C	1.016395	-0.245059	0.893363
C81	C	1.016383	-0.245070	0.816506
C82	C	1.063485	-0.216347	0.778099
C83	C	1.063506	-0.216323	0.931815
C84	C	1.063515	-0.216309	1.015149
C85	C	1.063475	-0.216360	0.694760
H86	H	0.633472	-0.268610	0.439826
C87	C	0.964584	-0.276652	0.935618
N88	N	0.925558	-0.300449	0.967444
C89	C	1.209530	-0.835784	0.208883
N90	N	1.248563	-0.855203	0.169923
H91	H	0.494044	-0.268612	0.439842
H92	H	1.149018	-0.959795	0.269320
C93	C	0.483097	-0.156010	0.255934
N94	N	0.451265	-0.132177	0.217007
H95	H	0.633516	-0.164220	0.269345
H96	H	1.148942	-0.164223	0.785277
C97	C	0.964717	-1.051676	0.453385
N98	N	0.925703	-1.071120	0.492348
H99	H	0.978134	-0.959859	0.439953
C100	C	1.162421	-0.155989	0.935692
N101	N	1.201456	-0.132179	0.967542
H102	H	0.977879	-0.472574	0.439899
C103	C	1.162519	-1.051619	0.255898
N104	N	1.201545	-1.071050	0.216946
H105	H	0.978018	-0.268469	0.785202
H106	H	0.930868	-0.603296	0.486934
C107	C	0.917518	-0.835867	0.500397
N108	N	0.878505	-0.855307	0.539367
H109	H	0.930933	-0.744055	0.486951
C110	C	0.964383	-0.380751	0.453324
N111	N	0.925365	-0.361319	0.492283
H112	H	1.148776	-0.472514	0.269281
C113	C	1.162172	-0.380700	0.255821
N114	N	1.201182	-0.361258	0.216850
C115	C	1.209472	-0.737271	0.208857
N116	N	1.248482	-0.717832	0.169882
H117	H	0.930905	-0.688414	0.486948
H118	H	1.195937	-0.603221	0.222289
H119	H	1.195980	-0.688327	0.222299
