data_functionalizedCrystal
_audit_creation_method	'MofGen! by Chris Wilmer'
_symmetry_space_group_name_H-M	'P1'
_symmetry_Int_Tables_number	1
_symmetry_cell_setting	triclinic
loop_
_symmetry_equiv_pos_as_xyz
  x,y,z
_cell_length_a	12.759401
_cell_length_b	19.077174
_cell_length_c	12.759400
_cell_angle_alpha	92.275311
_cell_angle_beta	90.014845
_cell_angle_gamma	87.687685
loop_
_atom_site_label
_atom_site_type_symbol
_atom_site_fract_x
_atom_site_fract_y
_atom_site_fract_z
Zn1	Zn	1.630061	-0.397910	-0.442141
Zn2	Zn	2.130061	0.102090	0.057859
Zn3	Zn	1.622915	-0.280222	-0.610779
Zn4	Zn	2.122915	0.219778	-0.110779
Zn5	Zn	1.447323	-0.280235	-0.435115
Zn6	Zn	1.947323	0.219765	0.064885
Zn7	Zn	1.454350	-0.397885	-0.617777
Zn8	Zn	1.954350	0.102115	-0.117777
O9	O	1.538662	-0.339063	-0.526453
O10	O	2.038662	0.160937	-0.026453
O11	O	1.776134	-0.382304	-0.464522
O12	O	2.276134	0.117696	0.035478
O13	O	1.593690	-0.181734	-0.581608
O14	O	2.093690	0.318266	-0.081608
O15	O	1.471613	-0.295861	-0.289027
O16	O	1.971613	0.204139	0.210973
O17	O	1.770884	-0.295839	-0.588419
O18	O	2.270884	0.204161	-0.088419
O19	O	1.605870	-0.382317	-0.294189
O20	O	2.105870	0.117683	0.205811
O21	O	1.464684	-0.181743	-0.452549
O22	O	1.964684	0.318257	0.047451
O23	O	1.301234	-0.295836	-0.459335
O24	O	1.801234	0.204164	0.040665
O25	O	1.483590	-0.496378	-0.600347
O26	O	1.983590	0.003622	-0.100347
O27	O	1.306397	-0.382273	-0.593535
O28	O	1.806397	0.117727	-0.093535
O29	O	1.612684	-0.496397	-0.471308
O30	O	2.112684	0.003603	0.028692
O31	O	1.600504	-0.295814	-0.758727
O32	O	2.100504	0.204186	-0.258727
O33	O	1.476661	-0.382260	-0.763869
O34	O	1.976661	0.117740	-0.263869
C35	C	1.265694	-0.339053	-0.526433
C36	C	1.765694	0.160947	-0.026433
C37	C	1.148918	-0.339066	-0.526451
C38	C	1.648918	0.160934	-0.026451
C39	C	1.096768	-0.383999	-0.596432
C40	C	1.596768	0.116001	-0.096432
C41	C	0.987044	-0.384007	-0.596446
C42	C	1.487044	0.115993	-0.096446
C43	C	0.981631	-0.294142	-0.456494
C44	C	1.481631	0.205858	0.043506
C45	C	1.091353	-0.294138	-0.456476
C46	C	1.591353	0.205862	0.043524
C47	C	1.099892	-0.435880	-0.677236
C48	C	1.599892	0.064120	-0.177236
C49	C	0.990168	-0.435888	-0.677249
C50	C	1.490168	0.064112	-0.177249
C51	C	1.549718	-0.522639	-0.537392
C52	C	2.049718	-0.022639	-0.037392
C53	C	1.554430	-0.600868	-0.542053
C54	C	2.054430	-0.100868	-0.042053
C55	C	1.489480	-0.637625	-0.477051
C56	C	1.989480	-0.137625	0.022949
C57	C	1.493903	-0.711130	-0.481440
C58	C	1.993903	-0.211130	0.018560
C59	C	1.563282	-0.747876	-0.550826
C60	C	2.063282	-0.247876	-0.050826
C61	C	1.628235	-0.711114	-0.615836
C62	C	2.128235	-0.211114	-0.115836
C63	C	1.623806	-0.637611	-0.611452
C64	C	2.123806	-0.137611	-0.111452
C65	C	1.583725	-0.967707	-0.571149
C66	C	2.083725	-0.467707	-0.071149
C67	C	1.588152	-1.041216	-0.575526
C68	C	2.088152	-0.541216	-0.075526
C69	C	1.453817	-1.041226	-0.441130
C70	C	1.953817	-0.541226	0.058870
C71	C	1.449399	-0.967721	-0.436747
C72	C	1.949399	-0.467721	0.063253
C73	C	1.514348	-0.930966	-0.501761
C74	C	2.014348	-0.430966	-0.001761
N75	N	1.567807	-0.823010	-0.555312
N76	N	2.067807	-0.323010	-0.055312
N77	N	1.509817	-0.855833	-0.497280
N78	N	2.009817	-0.355833	0.002720
C79	C	1.812696	-0.339073	-0.526474
C80	C	2.312696	0.160927	-0.026474
C81	C	1.929473	-0.339077	-0.526483
C82	C	2.429473	0.160923	-0.026483
C83	C	1.538599	-0.339048	-0.799419
C84	C	2.038599	0.160952	-0.299419
C85	C	1.538669	-0.339066	-0.916197
C86	C	2.038669	0.160934	-0.416197
C87	C	1.527709	-0.156201	-0.515481
C88	C	2.027709	0.343799	-0.015481
C89	C	1.523201	-0.077972	-0.510523
C90	C	2.023201	0.422028	-0.010523
C91	C	1.603232	-0.294103	-0.968350
C92	C	2.103232	0.205897	-0.468350
C93	C	1.603298	-0.294124	-1.078075
C94	C	2.103298	0.205876	-0.578075
C95	C	1.474229	-0.384074	-1.083485
C96	C	1.974229	0.115926	-0.583485
C97	C	1.474170	-0.384055	-0.973762
C98	C	1.974170	0.115945	-0.473762
C99	C	1.677746	-0.242169	-0.965227
C100	C	2.177746	0.257831	-0.465227
C101	C	1.677812	-0.242191	-1.074952
C102	C	2.177812	0.257809	-0.574952
C103	C	1.538755	-0.339093	-0.252421
C104	C	2.038755	0.160907	0.247579
C105	C	1.538795	-0.339106	-0.135645
C106	C	2.038795	0.160894	0.364355
H107	H	0.959271	-0.487706	-0.651323
H108	H	1.459271	0.012294	-0.151323
H109	H	1.652813	-0.187673	-1.101535
H110	H	2.152813	0.312327	-0.601535
O111	O	1.143710	-0.508113	-0.652835
O112	O	1.643710	-0.008113	-0.152835
H113	H	1.191836	-0.504678	-0.580473
H114	H	1.691836	-0.004678	-0.080473
H115	H	1.133810	-0.257554	-0.399483
H116	H	1.633810	0.242446	0.100517
O117	O	1.383782	-1.080873	-0.371004
O118	O	1.883782	-0.580873	0.128996
H119	H	1.332322	-1.114356	-0.420008
H120	H	1.832322	-0.614356	0.079992
H121	H	0.959494	-0.421195	-0.757715
H122	H	1.459494	0.078805	-0.257715
H123	H	1.421608	-0.420674	-0.931301
H124	H	1.921608	0.079326	-0.431301
O125	O	1.414648	-0.597996	-0.402207
O126	O	1.914648	-0.097996	0.097793
H127	H	1.459675	-0.564523	-0.346755
H128	H	1.959675	-0.064523	0.153245
O129	O	1.662978	-1.080852	-0.650377
O130	O	2.162978	-0.580852	-0.150377
H131	H	1.744593	-1.066744	-0.631538
H132	H	2.244593	-0.566744	-0.131538
O133	O	1.781756	-0.268112	-1.121484
O134	O	2.281756	0.231888	-0.621484
H135	H	1.769908	-0.315280	-1.173215
H136	H	2.269908	0.184720	-0.673215
H137	H	0.934748	-0.257564	-0.399522
H138	H	1.434748	0.242436	0.100478
O139	O	1.423859	-0.750777	-0.411321
O140	O	1.923859	-0.250777	0.088679
H141	H	1.374884	-0.712876	-0.362324
H142	H	1.874884	-0.212876	0.137676
O143	O	1.374588	-0.928086	-0.361890
O144	O	1.874588	-0.428086	0.138110
H145	H	1.330168	-0.965995	-0.317423
H146	H	1.830168	-0.465995	0.182577
H147	H	1.421717	-0.420703	-1.130368
H148	H	1.921717	0.079297	-0.630368
O149	O	1.693863	-0.597967	-0.681564
O150	O	2.193863	-0.097967	-0.181564
H151	H	1.679120	-0.540682	-0.666868
H152	H	2.179120	-0.040682	-0.166868
O153	O	1.143409	-0.409899	-0.777997
O154	O	1.643409	0.090101	-0.277997
H155	H	1.077747	-0.396131	-0.831435
H156	H	1.577747	0.103869	-0.331435
O157	O	1.635064	-0.173554	-0.916125
O158	O	2.135064	0.326446	-0.416125
H159	H	1.636767	-0.176369	-0.829416
H160	H	2.136767	0.323631	-0.329416
H161	H	1.636600	-0.937790	-0.624099
H162	H	2.136600	-0.437790	-0.124099
H163	H	1.759965	-0.256807	-0.936250
H164	H	2.259965	0.243193	-0.436250
H165	H	1.684720	-0.741039	-0.672338
H166	H	2.184720	-0.241039	-0.172338
