data_functionalizedCrystal
_audit_creation_method	'MofGen! by Chris Wilmer'
_symmetry_space_group_name_H-M	'P1'
_symmetry_Int_Tables_number	1
_symmetry_cell_setting	triclinic
loop_
_symmetry_equiv_pos_as_xyz
  x,y,z
_cell_length_a	19.121102
_cell_length_b	19.120786
_cell_length_c	11.169409
_cell_angle_alpha	87.520717
_cell_angle_beta	87.537729
_cell_angle_gamma	89.915559
loop_
_atom_site_label
_atom_site_type_symbol
_atom_site_fract_x
_atom_site_fract_y
_atom_site_fract_z
Zn1	Zn	1.059892	-0.324859	-0.732072
Zn2	Zn	1.559892	0.175141	-0.232072
Zn3	Zn	1.054794	-0.442123	-0.522444
Zn4	Zn	1.554794	0.057877	-0.022444
Zn5	Zn	0.942646	-0.319891	-0.523221
Zn6	Zn	1.442646	0.180109	-0.023221
Zn7	Zn	0.937621	-0.437058	-0.714915
Zn8	Zn	1.437621	0.062942	-0.214915
O9	O	0.998738	-0.380983	-0.623163
O10	O	1.498738	0.119017	-0.123163
O11	O	1.157322	-0.344613	-0.711119
O12	O	1.657322	0.155387	-0.211119
O13	O	1.039887	-0.425949	-0.354592
O14	O	1.539887	0.074051	0.145408
O15	O	0.962436	-0.222440	-0.558431
O16	O	1.462436	0.277560	-0.058431
O17	O	1.153576	-0.430767	-0.557106
O18	O	1.653576	0.069233	-0.057106
O19	O	1.048576	-0.226090	-0.711873
O20	O	1.548576	0.273910	-0.211873
O21	O	0.957492	-0.336146	-0.355163
O22	O	1.457492	0.163854	0.144837
O23	O	0.843874	-0.331234	-0.541794
O24	O	1.343874	0.168766	-0.041794
O25	O	0.953871	-0.422134	-0.885146
O26	O	1.453871	0.077866	-0.385146
O27	O	0.840182	-0.417316	-0.682632
O28	O	1.340182	0.082684	-0.182632
O29	O	1.043704	-0.339702	-0.897751
O30	O	1.543704	0.160298	-0.397751
O31	O	1.035014	-0.539561	-0.540470
O32	O	1.535014	-0.039561	-0.040470
O33	O	0.948927	-0.535839	-0.681878
O34	O	1.448927	-0.035839	-0.181878
C35	C	0.816590	-0.373187	-0.610436
C36	C	1.316590	0.126813	-0.110436
C37	C	0.738666	-0.369869	-0.605019
C38	C	1.238666	0.130131	-0.105019
C39	C	0.700150	-0.413196	-0.675674
C40	C	1.200150	0.086804	-0.175674
C41	C	0.626932	-0.410069	-0.670591
C42	C	1.126932	0.089931	-0.170591
C43	C	0.592231	-0.363618	-0.594844
C44	C	1.092231	0.136382	-0.094844
C45	C	0.630752	-0.320286	-0.524186
C46	C	1.130752	0.179714	-0.024186
C47	C	0.703969	-0.323410	-0.529277
C48	C	1.203969	0.176590	-0.029277
C49	C	0.371259	-0.351937	-0.575817
C50	C	0.871259	0.148063	-0.075817
C51	C	0.298037	-0.348817	-0.570729
C52	C	0.798037	0.151183	-0.070729
C53	C	0.294222	-0.438600	-0.717136
C54	C	0.794222	0.061400	-0.217136
C55	C	0.367440	-0.441722	-0.722215
C56	C	0.867440	0.058278	-0.222215
C57	C	0.405955	-0.398388	-0.651561
C58	C	0.905955	0.101612	-0.151561
C59	C	0.517390	-0.360422	-0.589644
C60	C	1.017390	0.139578	-0.089644
C61	C	0.480794	-0.401581	-0.656769
C62	C	0.980794	0.098419	-0.156769
C63	C	0.990891	-0.563140	-0.609255
C64	C	1.490891	-0.063140	-0.109255
C65	C	0.987598	-0.641070	-0.603350
C66	C	1.487598	-0.141070	-0.103350
C67	C	1.030867	-0.679521	-0.680525
C68	C	1.530867	-0.179521	-0.180525
C69	C	1.027770	-0.752744	-0.674979
C70	C	1.527770	-0.252744	-0.174979
C71	C	0.981408	-0.787516	-0.592250
C72	C	1.481408	-0.287516	-0.092250
C73	C	0.938135	-0.749061	-0.515072
C74	C	1.438135	-0.249061	-0.015072
C75	C	0.941228	-0.675838	-0.520625
C76	C	1.441228	-0.175838	-0.020625
C77	C	0.969821	-1.008509	-0.571489
C78	C	1.469821	-0.508509	-0.071489
C79	C	0.966732	-1.081737	-0.565939
C80	C	1.466732	-0.581737	-0.065939
C81	C	1.056367	-1.085416	-0.725848
C82	C	1.556367	-0.585416	-0.225848
C83	C	1.059459	-1.012192	-0.731389
C84	C	1.559459	-0.512192	-0.231389
C85	C	1.016184	-0.973742	-0.654215
C86	C	1.516184	-0.473742	-0.154215
C87	C	0.978243	-0.862363	-0.586576
C88	C	1.478243	-0.362363	-0.086576
C89	C	1.019346	-0.898897	-0.659895
C90	C	1.519346	-0.398897	-0.159895
C91	C	1.181598	-0.388809	-0.635940
C92	C	1.681598	0.111191	-0.135940
C93	C	1.259521	-0.392144	-0.641385
C94	C	1.759521	0.107856	-0.141385
C95	C	0.998795	-0.380907	-0.936215
C96	C	1.498795	0.119093	-0.436215
C97	C	0.998820	-0.380875	-1.069619
C98	C	1.498820	0.119125	-0.569619
C99	C	1.006635	-0.198115	-0.637152
C100	C	1.506635	0.301885	-0.137152
C101	C	1.010000	-0.120187	-0.643114
C102	C	1.510000	0.379813	-0.143114
C103	C	0.998724	-0.381009	-0.311335
C104	C	1.498724	0.118991	0.188665
C105	C	0.998844	-0.380849	-0.177956
C106	C	1.498844	0.119151	0.322044
H107	H	0.728398	-0.451024	-0.737351
H108	H	1.228398	0.048976	-0.237351
F109	F	0.593819	-0.270845	-0.443579
F110	F	1.093819	0.229155	0.056421
F111	F	0.517727	-0.451015	-0.737383
F112	F	1.017727	0.048985	-0.237383
F113	F	0.404366	-0.491163	-0.802832
F114	F	0.904366	0.008837	-0.302832
F115	F	1.068682	-0.861888	-0.747944
F116	F	1.568682	-0.361888	-0.247944
F117	F	0.895175	-0.634916	-0.438486
F118	F	1.395175	-0.134916	0.061514
F119	F	0.253227	-0.484717	-0.792323
F120	F	0.753227	0.015283	-0.292323
H121	H	0.402609	-0.316656	-0.518277
H122	H	0.902609	0.183344	-0.018277
F123	F	0.744960	-0.277294	-0.454078
F124	F	1.244960	0.222706	0.045922
H125	H	0.940496	-0.890683	-0.519216
H126	H	1.440496	-0.390683	-0.019216
F127	F	0.261107	-0.299380	-0.490098
F128	F	0.761107	0.200620	0.009902
F129	F	1.108804	-0.975190	-0.819440
F130	F	1.608804	-0.475190	-0.319440
F131	F	0.917387	-1.118742	-0.477881
F132	F	1.417387	-0.618742	0.022119
H133	H	1.068623	-0.651214	-0.747886
H134	H	1.568623	-0.151214	-0.247886
F135	F	0.585944	-0.456183	-0.745793
F136	F	1.085944	0.043817	-0.245793
H137	H	0.489129	-0.322603	-0.527968
H138	H	0.989129	0.177397	-0.027968
H139	H	1.063009	-0.784048	-0.737814
H140	H	1.563009	-0.284048	-0.237814
H141	H	0.900383	-0.777378	-0.447718
H142	H	1.400383	-0.277378	0.052282
H143	H	1.091598	-1.116729	-0.788679
H144	H	1.591598	-0.616729	-0.288679
F145	F	0.923758	-0.967597	-0.489361
F146	F	1.423758	-0.467597	0.010639
