data_functionalizedCrystal
_audit_creation_method	'MofGen! by Chris Wilmer'
_symmetry_space_group_name_H-M	'P1'
_symmetry_Int_Tables_number	1
_symmetry_cell_setting	triclinic
loop_
_symmetry_equiv_pos_as_xyz
  x,y,z
_cell_length_a	14.908571
_cell_length_b	12.759400
_cell_length_c	14.908794
_cell_angle_alpha	86.709965
_cell_angle_beta	89.810279
_cell_angle_gamma	86.709538
loop_
_atom_site_label
_atom_site_type_symbol
_atom_site_fract_x
_atom_site_fract_y
_atom_site_fract_z
Zn1	Zn	1.345214	-0.548510	0.587600
Zn2	Zn	1.845214	-0.048510	1.087600
Zn3	Zn	1.353848	-0.714633	0.437251
Zn4	Zn	1.853848	-0.214633	0.937251
Zn5	Zn	1.203565	-0.528269	0.428599
Zn6	Zn	1.703565	-0.028269	0.928599
Zn7	Zn	1.194842	-0.713439	0.578900
Zn8	Zn	1.694842	-0.213439	1.078900
O9	O	1.274367	-0.626213	0.508088
O10	O	1.774367	-0.126213	1.008088
O11	O	1.472185	-0.579517	0.574918
O12	O	1.972185	-0.079517	1.074918
O13	O	1.341176	-0.681940	0.310280
O14	O	1.841176	-0.181940	0.810280
O15	O	1.222393	-0.383937	0.449712
O16	O	1.722393	0.116063	0.949712
O17	O	1.478528	-0.701567	0.464456
O18	O	1.978528	-0.201567	0.964456
O19	O	1.326462	-0.398808	0.566529
O20	O	1.826462	0.101192	1.066529
O21	O	1.230764	-0.545019	0.303924
O22	O	1.730764	-0.045019	0.803924
O23	O	1.076583	-0.543862	0.441276
O24	O	1.576583	-0.043862	0.941276
O25	O	1.207525	-0.699533	0.705878
O26	O	1.707525	-0.199533	1.205878
O27	O	1.070174	-0.679905	0.551701
O28	O	1.570174	-0.179905	1.051701
O29	O	1.318003	-0.578360	0.712270
O30	O	1.818003	-0.078360	1.212270
O31	O	1.332718	-0.861491	0.456020
O32	O	1.832718	-0.361491	0.956020
O33	O	1.215897	-0.860615	0.560090
O34	O	1.715897	-0.360615	1.060090
C35	C	1.040753	-0.609558	0.494606
C36	C	1.540753	-0.109558	0.994606
C37	C	0.940811	-0.602460	0.488860
C38	C	1.440811	-0.102460	0.988860
C39	C	1.274321	-0.899176	0.508071
C40	C	1.774321	-0.399176	1.008071
C41	C	1.274382	-1.015958	0.508098
C42	C	1.774382	-0.515958	1.008098
C43	C	0.746392	-0.730983	0.592894
C44	C	1.246392	-0.230983	1.092894
C45	C	0.652487	-0.724317	0.587498
C46	C	1.152487	-0.224317	1.087498
C47	C	0.659094	-0.582458	0.472677
C48	C	1.159094	-0.082458	0.972677
C49	C	0.752999	-0.589124	0.478073
C50	C	1.252999	-0.089124	0.978073
C51	C	0.796645	-0.663390	0.538182
C52	C	1.296645	-0.163390	1.038182
C53	C	0.890552	-0.670060	0.543573
C54	C	1.390552	-0.170060	1.043573
C55	C	0.897156	-0.528197	0.428758
C56	C	1.397156	-0.028197	0.928758
C57	C	0.803251	-0.521531	0.423362
C58	C	1.303251	-0.021531	0.923362
C59	C	1.328539	-1.078485	0.568971
C60	C	1.828539	-0.578485	1.068971
C61	C	1.328580	-1.188214	0.568995
C62	C	1.828580	-0.688214	1.068995
C63	C	1.220304	-1.172878	0.447267
C64	C	1.720304	-0.672878	0.947267
C65	C	1.220259	-1.063152	0.447248
C66	C	1.720259	-0.563152	0.947248
C67	C	1.382662	-1.031292	0.629822
C68	C	1.882662	-0.531292	1.129822
C69	C	1.436824	-1.093819	0.690698
C70	C	1.936824	-0.593819	1.190698
C71	C	1.436865	-1.203548	0.690722
C72	C	1.936865	-0.703548	1.190722
C73	C	1.382743	-1.250749	0.629870
C74	C	1.882743	-0.750749	1.129870
C75	C	1.508894	-0.642933	0.521623
C76	C	2.008894	-0.142933	1.021623
C77	C	1.608835	-0.650058	0.527390
C78	C	2.108835	-0.150058	1.027390
C79	C	1.260828	-0.641071	0.742611
C80	C	1.760828	-0.141071	1.242611
C81	C	1.255059	-0.647403	0.842550
C82	C	1.755059	-0.147403	1.342550
C83	C	1.274437	-0.352187	0.508126
C84	C	1.774437	0.147813	1.008126
C85	C	1.274467	-0.235413	0.508142
C86	C	1.774467	0.264587	1.008142
C87	C	1.189409	-0.719402	0.980084
C88	C	1.689409	-0.219402	1.480084
C89	C	1.194828	-0.713461	0.886182
C90	C	1.694828	-0.213461	1.386182
C91	C	1.309872	-0.587280	0.892828
C92	C	1.809872	-0.087280	1.392828
C93	C	1.304452	-0.593221	0.986730
C94	C	1.804452	-0.093221	1.486730
C95	C	1.244220	-0.659286	1.030355
C96	C	1.744220	-0.159286	1.530355
C97	C	1.238806	-0.665233	1.124259
C98	C	1.738806	-0.165233	1.624259
C99	C	1.353844	-0.539047	1.130903
C100	C	1.853844	-0.039047	1.630903
C101	C	1.359263	-0.533105	1.037001
C102	C	1.859263	-0.033105	1.537001
C103	C	1.287848	-0.611437	1.274477
C104	C	1.787848	-0.111437	1.774477
C105	C	1.293619	-0.605110	1.174537
C106	C	1.793619	-0.105110	1.674537
H107	H	0.926087	-0.730533	0.592516
H108	H	1.426087	-0.230533	1.092516
H109	H	1.382769	-1.340097	0.629905
H110	H	1.882769	-0.840097	1.129905
C111	C	0.794406	-0.812672	0.659006
C112	C	1.294406	-0.312672	1.159006
H113	H	0.751027	-0.851973	0.690820
H114	H	1.251027	-0.351973	1.190820
H115	H	0.833018	-0.858801	0.626649
H116	H	1.333018	-0.358801	1.126649
H117	H	0.828782	-0.777633	0.700350
H118	H	1.328782	-0.277633	1.200350
H119	H	1.480959	-1.254455	0.740298
H120	H	1.980959	-0.754455	1.240298
C121	C	1.376107	-0.514598	0.844834
C122	C	1.876107	-0.014598	1.344834
H123	H	1.407970	-0.479634	0.888220
H124	H	1.907970	0.020366	1.388220
H125	H	1.417389	-0.555247	0.810448
H126	H	1.917389	-0.055247	1.310448
H127	H	1.343815	-0.464053	0.806232
H128	H	1.843815	0.035947	1.306232
H129	H	1.382637	-0.941946	0.629807
H130	H	1.882637	-0.441946	1.129807
H131	H	1.408301	-0.479315	1.001469
H132	H	1.908301	0.020685	1.501469
C133	C	0.597211	-0.798649	0.647698
C134	C	1.097211	-0.298649	1.147698
H135	H	0.636658	-0.843828	0.684270
H136	H	1.136658	-0.343828	1.184270
H137	H	0.558336	-0.758392	0.684820
H138	H	1.058336	-0.258392	1.184820
H139	H	0.562548	-0.839595	0.611147
H140	H	1.062548	-0.339595	1.111147
C141	C	1.123165	-0.792073	1.028079
C142	C	1.623165	-0.292073	1.528079
H143	H	1.127793	-0.787007	1.091204
H144	H	1.627793	-0.287007	1.591204
H145	H	1.063641	-0.771427	1.009207
H146	H	1.563641	-0.271427	1.509207
H147	H	1.137207	-0.862629	1.013444
H148	H	1.637207	-0.362629	1.513444
C149	C	1.160783	-1.224798	0.380330
C150	C	1.660783	-0.724798	0.880330
H151	H	1.168573	-1.299102	0.389054
H152	H	1.668573	-0.799102	0.889054
H153	H	1.099594	-1.203392	0.389946
H154	H	1.599594	-0.703392	0.889946
H155	H	1.177478	-1.203940	0.320684
H156	H	1.677478	-0.703940	0.820684
H157	H	1.398477	-0.490098	1.171844
H158	H	1.898477	0.009902	1.671844
H159	H	1.176158	-1.012242	0.397681
H160	H	1.676158	-0.512242	0.897681
H161	H	0.623541	-0.521988	0.423745
H162	H	1.123541	-0.021988	0.923745
H163	H	0.767702	-0.461064	0.374425
H164	H	1.267702	0.038936	0.874425
H165	H	0.938082	-0.473160	0.384206
H166	H	1.438082	0.026840	0.884206
C167	C	1.172556	-0.737899	1.172250
C168	C	1.672556	-0.237899	1.672250
H169	H	1.177183	-0.732838	1.235376
H170	H	1.677183	-0.232838	1.735376
H171	H	1.113034	-0.717244	1.153378
H172	H	1.613034	-0.217244	1.653378
H173	H	1.186592	-0.808456	1.157613
H174	H	1.686592	-0.308456	1.657613
C175	C	1.496351	-1.041903	0.757631
C176	C	1.996351	-0.541903	1.257631
H177	H	1.488578	-0.967598	0.748894
H178	H	1.988578	-0.467598	1.248894
H179	H	1.479667	-1.062755	0.817275
H180	H	1.979667	-0.562755	1.317275
H181	H	1.557542	-1.063316	0.748003
H182	H	2.057542	-0.563316	1.248003
C183	C	1.134552	-0.779607	0.830888
C184	C	1.634552	-0.279607	1.330888
H185	H	1.097914	-0.819811	0.870322
H186	H	1.597914	-0.319811	1.370322
H187	H	1.097495	-0.734323	0.791991
H188	H	1.597495	-0.234323	1.291991
H189	H	1.171067	-0.825519	0.796247
H190	H	1.671067	-0.325519	1.296247
