data_functionalizedCrystal
_audit_creation_method	'MofGen! by Chris Wilmer'
_symmetry_space_group_name_H-M	'P1'
_symmetry_Int_Tables_number	1
_symmetry_cell_setting	triclinic
loop_
_symmetry_equiv_pos_as_xyz
  x,y,z
_cell_length_a	17.019282
_cell_length_b	17.038272
_cell_length_c	16.098538
_cell_angle_alpha	92.929602
_cell_angle_beta	83.391989
_cell_angle_gamma	87.241387
loop_
_atom_site_label
_atom_site_type_symbol
_atom_site_fract_x
_atom_site_fract_y
_atom_site_fract_z
O1	O	1.053664	0.099226	-0.006337
O2	O	1.386997	0.432559	0.326997
O3	O	1.720330	0.765892	0.660330
O4	O	0.824065	0.112771	0.010137
O5	O	1.157399	0.446104	0.343471
O6	O	1.490732	0.779437	0.676804
O7	O	0.937500	-0.007811	0.001992
O8	O	1.270834	0.325522	0.335325
O9	O	1.604167	0.658855	0.668658
O10	O	0.940229	0.219808	0.001809
O11	O	1.273562	0.553141	0.335142
O12	O	1.606895	0.886474	0.668476
O13	O	0.944121	-0.014834	-0.136997
O14	O	1.277455	0.318499	0.196337
O15	O	1.610788	0.651832	0.529670
O16	O	0.830686	0.105748	-0.128851
O17	O	1.164020	0.439081	0.204482
O18	O	1.497353	0.772414	0.537816
O19	O	1.060285	0.092203	-0.145325
O20	O	1.393618	0.425536	0.188008
O21	O	1.726951	0.758869	0.521342
Zn22	Zn	0.946537	0.097860	-0.159155
Zn23	Zn	1.279870	0.431193	0.174178
Zn24	Zn	1.613203	0.764527	0.507511
Zn25	Zn	0.937813	0.107113	0.023968
Zn26	Zn	1.271147	0.440447	0.357301
Zn27	Zn	1.604480	0.773780	0.690634
O28	O	0.946850	0.212785	-0.137179
O29	O	1.280183	0.546118	0.196154
O30	O	1.613516	0.879451	0.529487
C31	C	0.797853	0.108886	-0.057239
C32	C	1.131187	0.442219	0.276095
C33	C	1.464520	0.775553	0.609428
C34	C	0.709885	0.107765	-0.050927
C35	C	1.043219	0.441098	0.282407
C36	C	1.376552	0.774432	0.615740
C37	C	0.672171	0.103408	-0.123726
C38	C	1.005505	0.436741	0.209607
C39	C	1.338838	0.770075	0.542941
C40	C	0.589517	0.102342	-0.117798
C41	C	0.922850	0.435676	0.215535
C42	C	1.256184	0.769009	0.548869
C43	C	0.544577	0.105639	-0.039070
C44	C	0.877911	0.438972	0.294264
C45	C	1.211244	0.772305	0.627597
C46	C	0.582297	0.109994	0.033735
C47	C	0.915630	0.443327	0.367068
C48	C	1.248963	0.776660	0.700402
C49	C	0.664950	0.111054	0.027806
C50	C	0.998284	0.444387	0.361139
C51	C	1.331617	0.777721	0.694473
C52	C	0.294837	0.102624	-0.017378
C53	C	0.628170	0.435957	0.315956
C54	C	0.961504	0.769291	0.649289
C55	C	0.212178	0.101566	-0.011454
C56	C	0.545511	0.434899	0.321879
C57	C	0.878845	0.768232	0.655212
C58	C	0.219404	0.093913	-0.162988
C59	C	0.552737	0.427246	0.170345
C60	C	0.886071	0.760579	0.503679
C61	C	0.302058	0.094978	-0.168910
C62	C	0.635392	0.428311	0.164423
C63	C	0.968725	0.761645	0.497757
C64	C	0.339771	0.099329	-0.096105
C65	C	0.673104	0.432662	0.237228
C66	C	1.006438	0.765995	0.570561
C67	C	0.460091	0.104552	-0.033008
C68	C	0.793424	0.437885	0.300325
C69	C	1.126758	0.771218	0.633658
C70	C	0.424256	0.100410	-0.102167
C71	C	0.757590	0.433743	0.231166
C72	C	1.090923	0.767077	0.564499
C73	C	0.938328	-0.040440	-0.067324
C74	C	1.271662	0.292893	0.266009
C75	C	1.604995	0.626227	0.599342
C76	C	0.930923	-0.127199	-0.066793
C77	C	1.264256	0.206134	0.266541
C78	C	1.597589	0.539467	0.599874
C79	C	0.998916	-0.177621	-0.071672
C80	C	1.332249	0.155712	0.261661
C81	C	1.665582	0.489045	0.594994
C82	C	0.991952	-0.259140	-0.071165
C83	C	1.325285	0.074193	0.262169
C84	C	1.658619	0.407527	0.595502
C85	C	0.916995	-0.290235	-0.065784
C86	C	1.250329	0.043098	0.267550
C87	C	1.583662	0.376432	0.600883
C88	C	0.848997	-0.239806	-0.060901
C89	C	1.182331	0.093527	0.272432
C90	C	1.515664	0.426861	0.605765
C91	C	0.855961	-0.158289	-0.061403
C92	C	1.189295	0.175044	0.271930
C93	C	1.522628	0.508378	0.605264
C94	C	0.892393	-0.535881	-0.064007
C95	C	1.225726	-0.202548	0.269326
C96	C	1.559059	0.130786	0.602660
C97	C	0.885434	-0.617405	-0.063508
C98	C	1.218767	-0.284071	0.269825
C99	C	1.552101	0.049262	0.603159
C100	C	1.028389	-0.636733	-0.073770
C101	C	1.361723	-0.303400	0.259563
C102	C	1.695056	0.029934	0.592897
C103	C	1.035347	-0.555214	-0.074276
C104	C	1.368680	-0.221880	0.259057
C105	C	1.702014	0.111453	0.592390
C106	C	0.967349	-0.504792	-0.069390
C107	C	1.300682	-0.171458	0.263944
C108	C	1.634015	0.161875	0.597277
C109	C	0.909876	-0.373560	-0.065267
C110	C	1.243209	-0.040227	0.268066
C111	C	1.576543	0.293107	0.601399
C112	C	0.974469	-0.421468	-0.069900
C113	C	1.307802	-0.088135	0.263433
C114	C	1.641135	0.245199	0.596767
C115	C	1.086496	0.096087	-0.077947
C116	C	1.419830	0.429421	0.255386
C117	C	1.753163	0.762754	0.588719
C118	C	1.174464	0.097209	-0.084254
C119	C	1.507798	0.430542	0.249080
C120	C	1.841131	0.763875	0.582413
C121	C	0.946021	0.245413	-0.067861
C122	C	1.279355	0.578747	0.265472
C123	C	1.612688	0.912080	0.598805
C124	C	0.953427	0.332173	-0.068388
C125	C	1.286760	0.665506	0.264946
C126	C	1.620093	0.998840	0.598279
N127	N	0.931860	0.113422	0.148944
N128	N	1.265193	0.446756	0.482278
N129	N	1.598526	0.780089	0.815611
N130	N	0.952496	0.091545	-0.284133
N131	N	1.285829	0.424878	0.049201
N132	N	1.619163	0.758211	0.382534
C133	C	0.980112	0.062339	0.189065
C134	C	1.313445	0.395673	0.522398
C135	C	1.646778	0.729006	0.855731
C136	C	0.975945	0.066751	0.276553
C137	C	1.309278	0.400085	0.609886
C138	C	1.642612	0.733418	0.943219
C139	C	0.923522	0.122243	0.323920
C140	C	1.256855	0.455577	0.657253
C141	C	1.590189	0.788910	0.990586
C142	C	0.875268	0.173332	0.283793
C143	C	1.208602	0.506665	0.617127
C144	C	1.541935	0.839998	0.950460
C145	C	0.879440	0.168923	0.196307
C146	C	1.212773	0.502256	0.529640
C147	C	1.546106	0.835589	0.862973
C148	C	0.908413	0.138224	0.588254
C149	C	1.241747	0.471558	0.921588
C150	C	1.575080	0.804891	1.254921
C151	C	0.904244	0.142628	0.675747
C152	C	1.237577	0.475961	1.009081
C153	C	1.570911	0.809294	1.342414
C154	C	1.004922	0.036048	0.668501
C155	C	1.338256	0.369381	1.001834
C156	C	1.671589	0.702715	1.335167
C157	C	1.009085	0.031641	0.581013
C158	C	1.342419	0.364974	0.914346
C159	C	1.675752	0.698308	1.247679
C160	C	0.960835	0.082732	0.540894
C161	C	1.294168	0.416065	0.874227
C162	C	1.627501	0.749399	1.207560
C163	C	0.919260	0.126753	0.413347
C164	C	1.252593	0.460086	0.746680
C165	C	1.585927	0.793419	1.080013
C166	C	0.965101	0.078226	0.451468
C167	C	1.298435	0.411559	0.784801
C168	C	1.631768	0.744892	1.118135
H169	H	0.188690	0.090369	-0.222261
H170	H	0.522023	0.423703	0.111072
H171	H	0.855356	0.757036	0.444406
H172	H	0.824393	-0.642719	-0.059139
H173	H	1.157726	-0.309386	0.274194
H174	H	1.491060	0.023948	0.607527
H175	H	0.695655	0.114603	0.087087
H176	H	1.028989	0.447937	0.420420
H177	H	1.362322	0.781270	0.753754
H178	H	1.044207	-0.005547	0.701173
H179	H	1.377540	0.327786	1.034507
H180	H	1.710873	0.661120	1.367840
H181	H	0.861552	0.187818	0.714310
H182	H	1.194885	0.521151	1.047643
H183	H	1.528219	0.854485	1.380977
H184	H	1.051772	-0.013545	0.542448
H185	H	1.385106	0.319789	0.875781
H186	H	1.718439	0.653122	1.209115
H187	H	0.558815	0.098781	-0.177079
H188	H	0.892149	0.432115	0.156254
H189	H	1.225482	0.765448	0.489588
H190	H	0.325533	0.106164	0.041905
H191	H	0.658866	0.439497	0.375238
H192	H	0.992199	0.772831	0.708572
H193	H	1.083749	-0.677795	-0.077747
H194	H	1.417083	-0.344461	0.255586
H195	H	1.750416	-0.011128	0.588920
H196	H	0.869124	0.179823	0.555597
H197	H	1.202457	0.513157	0.888930
H198	H	1.535791	0.846490	1.222264
H199	H	0.876575	0.171934	0.451920
H200	H	1.209908	0.505267	0.785253
H201	H	1.543242	0.838601	1.118587
H202	H	0.423492	0.107236	0.031093
H203	H	0.756825	0.440569	0.364426
H204	H	1.090159	0.773902	0.697759
H205	H	1.022796	0.017149	0.150504
H206	H	1.356130	0.350482	0.483837
H207	H	1.689463	0.683816	0.817171
H208	H	1.035497	-0.396146	-0.074263
H209	H	1.368831	-0.062813	0.259071
H210	H	1.702164	0.270521	0.592404
H211	H	0.338643	0.092290	-0.233019
H212	H	0.671977	0.425623	0.100315
H213	H	1.005310	0.758956	0.433648
H214	H	0.832587	0.218518	0.322364
H215	H	1.165921	0.551851	0.655698
H216	H	1.499254	0.885185	0.989031
H217	H	0.800594	-0.117235	-0.057429
H218	H	1.133927	0.216098	0.275904
H219	H	1.467261	0.549432	0.609237
H220	H	0.837023	-0.494837	-0.060028
H221	H	1.170357	-0.161503	0.273305
H222	H	1.503690	0.171830	0.606639
H223	H	0.175590	0.104253	0.052659
H224	H	0.508923	0.437586	0.385992
H225	H	0.842256	0.770919	0.719326
H226	H	0.840149	0.210521	0.163642
H227	H	1.173482	0.543854	0.496975
H228	H	1.506815	0.877187	0.830308
H229	H	0.545701	0.112672	0.097837
H230	H	0.879034	0.446006	0.431171
H231	H	1.212367	0.779339	0.764504
H232	H	1.007787	0.033047	0.412899
H233	H	1.341120	0.366380	0.746232
H234	H	1.674454	0.699714	1.079566
H235	H	1.059954	-0.152311	-0.076059
H236	H	1.393287	0.181022	0.257274
H237	H	1.726620	0.514355	0.590607
H238	H	0.708755	0.100730	-0.187835
H239	H	1.042089	0.434063	0.145498
H240	H	1.375422	0.767397	0.478832
H241	H	0.460850	0.097722	-0.166268
H242	H	0.794183	0.431055	0.167066
H243	H	1.127516	0.764389	0.500399
H244	H	1.047319	-0.300191	-0.075140
H245	H	1.380653	0.033142	0.258193
H246	H	1.713986	0.366475	0.591527
H247	H	1.096385	-0.529903	-0.078658
H248	H	1.429718	-0.196569	0.254675
H249	H	1.763051	0.136764	0.588008
H250	H	0.787966	-0.265130	-0.056515
H251	H	1.121299	0.068204	0.276819
H252	H	1.454632	0.401537	0.610152
H253	H	0.848846	-0.398887	-0.060888
H254	H	1.182179	-0.065553	0.272446
H255	H	1.515512	0.267780	0.605779
H256	H	1.015236	0.025156	0.309218
H257	H	1.348569	0.358490	0.642551
H258	H	1.681903	0.691823	0.975884
