data_functionalizedCrystal
_audit_creation_method	'MofGen! by Chris Wilmer'
_symmetry_space_group_name_H-M	'P1'
_symmetry_Int_Tables_number	1
_symmetry_cell_setting	triclinic
loop_
_symmetry_equiv_pos_as_xyz
  x,y,z
_cell_length_a	12.759401
_cell_length_b	12.759400
_cell_length_c	12.759387
_cell_angle_alpha	89.938240
_cell_angle_beta	89.959880
_cell_angle_gamma	90.016209
loop_
_atom_site_label
_atom_site_type_symbol
_atom_site_fract_x
_atom_site_fract_y
_atom_site_fract_z
Zn1	Zn	1.606465	-0.417848	-0.594021
Zn2	Zn	1.606298	-0.593660	-0.418341
Zn3	Zn	1.430705	-0.418000	-0.418356
Zn4	Zn	1.430756	-0.593491	-0.593978
O5	O	1.518556	-0.505750	-0.506174
O6	O	1.753464	-0.441178	-0.570728
O7	O	1.582914	-0.570493	-0.271321
O8	O	1.454069	-0.270959	-0.441682
O9	O	1.753341	-0.570345	-0.441657
O10	O	1.583199	-0.270848	-0.570743
O11	O	1.453907	-0.441436	-0.271333
O12	O	1.283691	-0.441272	-0.441641
O13	O	1.454156	-0.570057	-0.741005
O14	O	1.283728	-0.570204	-0.570670
O15	O	1.583249	-0.441013	-0.741036
O16	O	1.582963	-0.740659	-0.441615
O17	O	1.453993	-0.740534	-0.570655
C18	C	1.245589	-0.505737	-0.506153
C19	C	1.128812	-0.505757	-0.506169
C20	C	1.073997	-0.572994	-0.573249
C21	C	0.964273	-0.572998	-0.573270
C22	C	0.964189	-0.438525	-0.439122
C23	C	1.073911	-0.438516	-0.439107
C24	C	1.518494	-0.778717	-0.506152
C25	C	1.518563	-0.895494	-0.506178
C26	C	1.585792	-0.950386	-0.439061
C27	C	1.585857	-1.060110	-0.439093
C28	C	1.451454	-1.060040	-0.573362
C29	C	1.451396	-0.950318	-0.573334
C30	C	1.652960	-0.895561	-0.371904
C31	C	1.720194	-0.950453	-0.304781
C32	C	1.720258	-1.060177	-0.304813
C33	C	1.653089	-1.115009	-0.371969
C34	C	1.792589	-0.505763	-0.506195
C35	C	1.909366	-0.505769	-0.506205
C36	C	1.518727	-0.505499	-0.780208
C37	C	1.518799	-0.505393	-0.896984
C38	C	1.518647	-0.231716	-0.506219
C39	C	1.518686	-0.114940	-0.506238
C40	C	1.518447	-0.505923	-0.233206
C41	C	1.518578	-0.505734	-0.116430
C42	C	1.585466	-0.437807	0.047866
C43	C	1.585353	-0.437975	-0.061858
C44	C	1.451904	-0.573323	-0.061272
C45	C	1.452012	-0.573149	0.048449
H46	H	1.118542	-0.383757	-0.384483
Br47	Br	0.889673	-0.347274	-0.348114
Br48	Br	1.676102	-0.345851	0.121917
H49	H	1.775010	-1.104867	-0.250166
Br50	Br	1.653200	-0.746651	-0.372180
Br51	Br	1.360301	-1.134455	-0.664495
H52	H	0.919647	-0.627748	-0.627894
Br53	Br	1.652698	-1.263921	-0.371530
Br54	Br	1.675841	-0.346255	-0.136701
Br55	Br	1.811360	-0.876042	-0.213660
H56	H	1.396653	-0.905625	-0.627988
H57	H	1.397717	-0.628184	0.093354
Br58	Br	1.361273	-0.665277	-0.135333
H59	H	1.118695	-0.627743	-0.627857
