data_functionalizedCrystal
_audit_creation_method	'MofGen! by Chris Wilmer'
_symmetry_space_group_name_H-M	'P1'
_symmetry_Int_Tables_number	1
_symmetry_cell_setting	triclinic
loop_
_symmetry_equiv_pos_as_xyz
  x,y,z
_cell_length_a	10.654546
_cell_length_b	9.130313
_cell_length_c	10.654550
_cell_angle_alpha	89.993688
_cell_angle_beta	84.484207
_cell_angle_gamma	89.994515
loop_
_atom_site_label
_atom_site_type_symbol
_atom_site_fract_x
_atom_site_fract_y
_atom_site_fract_z
O1	O	1.667844	-0.121831	0.176381
O2	O	1.302365	-0.121827	0.193192
O3	O	1.493507	-0.121820	0.002047
O4	O	1.476701	-0.121838	0.367526
O5	O	1.493491	0.121779	0.002035
O6	O	1.302348	0.121772	0.193179
O7	O	1.667827	0.121768	0.176369
Cu8	Cu	1.485086	0.144012	0.184773
Cu9	Cu	1.485106	-0.144072	0.184788
O10	O	1.476685	0.121761	0.367513
C11	C	1.255558	-0.000027	0.191952
C12	C	1.116115	-0.000025	0.188262
C13	C	1.492265	-0.000021	-0.044757
C14	C	1.488573	-0.000023	-0.184200
C15	C	1.050629	-0.132818	0.186522
C16	C	0.919608	-0.132829	0.183045
C17	C	0.919571	0.132756	0.183042
C18	C	1.050589	0.132766	0.186528
C19	C	1.050650	-0.286151	0.186519
C20	C	0.919629	-0.286163	0.183042
C21	C	1.714633	-0.000036	0.177608
C22	C	1.854077	-0.000047	0.181298
N23	N	1.485082	0.346635	0.184762
N24	N	1.485120	-0.346694	0.184789
C25	C	1.408283	0.576686	0.107903
C26	C	1.408267	0.423349	0.107885
C27	C	1.561927	0.423265	0.261651
C28	C	1.561949	0.576599	0.261661
C29	C	1.601115	-0.000025	-0.263687
C30	C	1.597638	-0.000043	-0.394708
C31	C	1.369068	-0.000051	-0.366742
C32	C	1.372546	-0.000044	-0.235724
C33	C	1.477927	-0.000041	0.414317
C34	C	1.481619	-0.000049	0.553761
H35	H	1.103901	0.240898	0.187958
H36	H	1.345725	0.639136	0.045308
Br37	Br	1.666187	0.319155	0.365975
Br38	Br	1.758578	0.000003	-0.193766
Br39	Br	1.303980	0.319370	0.003540
Br40	Br	0.830635	0.312963	0.180694
Br41	Br	1.092037	-0.384287	0.334318
Br42	Br	1.211611	-0.000083	-0.436675
Br43	Br	1.750381	-0.000054	-0.502580
H44	H	0.894818	-0.345030	0.094362
H45	H	1.102375	-0.333714	0.097080
Br46	Br	1.219800	-0.000061	-0.127839
H47	H	1.624525	0.638985	0.324271
H48	H	0.867920	-0.333760	0.272484
