data_functionalizedCrystal
_audit_creation_method	'MofGen! by Chris Wilmer'
_symmetry_space_group_name_H-M	'P1'
_symmetry_Int_Tables_number	1
_symmetry_cell_setting	triclinic
loop_
_symmetry_equiv_pos_as_xyz
  x,y,z
_cell_length_a	10.968023
_cell_length_b	11.026607
_cell_length_c	9.482944
_cell_angle_alpha	81.873049
_cell_angle_beta	91.569048
_cell_angle_gamma	96.379243
loop_
_atom_site_label
_atom_site_type_symbol
_atom_site_fract_x
_atom_site_fract_y
_atom_site_fract_z
O1	O	-1.642789	-0.129493	-0.290573
O2	O	-1.298356	-0.157991	-0.204301
O3	O	-1.442025	0.032151	-0.240292
O4	O	-1.499120	-0.319635	-0.254582
O5	O	-1.401263	0.064806	-0.471875
O6	O	-1.257593	-0.125336	-0.435884
O7	O	-1.602027	-0.096838	-0.522156
Cu8	Cu	-1.426088	-0.108105	-0.500165
Cu9	Cu	-1.474294	-0.146724	-0.226291
O10	O	-1.458357	-0.286980	-0.486165
C11	C	-1.233194	-0.142059	-0.308876
C12	C	-1.099760	-0.143222	-0.275454
C13	C	-0.881235	-0.128015	-0.345968
C14	C	-1.019145	-0.126820	-0.380526
N15	N	-1.392191	-0.080942	-0.692796
C16	C	-1.411112	0.093408	-0.353444
C17	C	-1.379714	0.227285	-0.345574
C18	C	-0.667188	-0.112772	-0.417586
C19	C	-0.800620	-0.111615	-0.451024
C20	C	-1.489271	-0.348237	-0.373010
C21	C	-1.520670	-0.482115	-0.380870
C22	C	-1.466410	0.303401	-0.367287
C23	C	-1.433962	0.441770	-0.359154
C24	C	-1.464287	-0.138711	-0.783052
C25	C	-1.436092	-0.116099	-0.943408
N26	N	-1.508199	-0.173877	-0.033663
H27	H	-1.052219	-0.111887	-0.496060
H28	H	-0.848154	-0.142934	-0.230442
H29	H	-1.618941	0.480606	-0.405376
N30	N	-1.310698	0.488514	-0.328311
N31	N	-1.225827	0.476756	-0.408984
H32	H	-1.138773	0.509772	-0.387206
N33	N	-1.058261	-0.161930	-0.130521
N34	N	-0.946291	-0.162867	-0.102650
H35	H	-0.916979	-0.176077	-0.000293
N36	N	-1.256471	0.274046	-0.314686
N37	N	-1.230288	0.386381	-0.308117
H38	H	-1.143245	0.419406	-0.286301
N39	N	-0.842125	-0.092877	-0.595948
N40	N	-0.954094	-0.091926	-0.623815
H41	H	-0.983407	-0.078691	-0.726170
N42	N	-1.567912	-0.221744	-0.731055
N43	N	-1.590673	-0.239990	-0.600867
H44	H	-1.663862	-0.298633	-0.564145
N45	N	-1.589659	0.256635	-0.398142
N46	N	-1.615845	0.144298	-0.404697
H47	H	-1.702893	0.111269	-0.426487
N48	N	-1.332476	-0.033043	-0.995401
N49	N	-1.309721	-0.014789	-1.125591
H50	H	-1.236544	0.043869	-1.162315
H51	H	-1.590805	-0.240077	-0.992228
H52	H	-1.309595	-0.014740	-0.734240
