data_functionalizedCrystal
_audit_creation_method	'MofGen! by Chris Wilmer'
_symmetry_space_group_name_H-M	'P1'
_symmetry_Int_Tables_number	1
_symmetry_cell_setting	triclinic
loop_
_symmetry_equiv_pos_as_xyz
  x,y,z
_cell_length_a	18.101398
_cell_length_b	18.101395
_cell_length_c	16.625539
_cell_angle_alpha	89.972352
_cell_angle_beta	89.988670
_cell_angle_gamma	90.026661
loop_
_atom_site_label
_atom_site_type_symbol
_atom_site_fract_x
_atom_site_fract_y
_atom_site_fract_z
Zn1	Zn	1.132133	-0.294916	-0.455714
Zn2	Zn	1.632133	0.205084	0.044286
Zn3	Zn	1.132025	-0.418765	-0.320883
Zn4	Zn	1.632025	0.081235	0.179117
Zn5	Zn	1.008288	-0.294932	-0.320916
Zn6	Zn	1.508288	0.205068	0.179084
Zn7	Zn	1.008242	-0.418711	-0.455695
Zn8	Zn	1.508242	0.081289	0.044305
O9	O	1.070172	-0.356831	-0.388302
O10	O	1.570172	0.143169	0.111698
O11	O	1.235751	-0.311361	-0.437823
O12	O	1.735751	0.188639	0.062177
O13	O	1.115585	-0.402368	-0.208055
O14	O	1.615585	0.097632	0.291945
O15	O	1.024780	-0.191297	-0.338820
O16	O	1.524780	0.308703	0.161180
O17	O	1.235672	-0.402352	-0.338763
O18	O	1.735672	0.097648	0.161237
O19	O	1.115768	-0.191285	-0.437855
O20	O	1.615768	0.308715	0.062145
O21	O	1.024676	-0.311389	-0.208080
O22	O	1.524676	0.188611	0.291920
O23	O	0.904649	-0.311336	-0.338801
O24	O	1.404649	0.188664	0.161199
O25	O	1.024702	-0.402260	-0.568530
O26	O	1.524702	0.097740	-0.068530
O27	O	0.904615	-0.402275	-0.437822
O28	O	1.404615	0.097725	0.062178
O29	O	1.115724	-0.311308	-0.568544
O30	O	1.615724	0.188692	-0.068544
O31	O	1.115541	-0.522391	-0.338744
O32	O	1.615541	-0.022391	0.161256
O33	O	1.024598	-0.522351	-0.437789
O34	O	1.524598	-0.022351	0.062211
C35	C	0.877761	-0.356802	-0.388313
C36	C	1.377761	0.143198	0.111687
C37	C	0.795447	-0.356807	-0.388337
C38	C	1.295447	0.143193	0.111663
C39	C	0.496356	-0.356851	-0.388304
C40	C	0.996356	0.143149	0.111696
C41	C	0.527685	-0.414344	-0.450297
C42	C	1.027685	0.085656	0.049703
C43	C	0.613303	-0.414164	-0.450552
C44	C	1.113303	0.085836	0.049448
C45	C	0.644739	-0.356830	-0.388320
C46	C	1.144739	0.143170	0.111680
C47	C	0.613685	-0.278827	-0.411539
C48	C	1.113685	0.221173	0.088461
C49	C	0.528040	-0.279173	-0.411980
C50	C	1.028040	0.220827	0.088020
C51	C	0.527902	-0.376673	-0.302942
C52	C	1.027902	0.123327	0.197058
C53	C	0.613552	-0.378384	-0.303398
C54	C	1.113552	0.121616	0.196602
C55	C	0.728598	-0.356813	-0.388328
C56	C	1.228598	0.143187	0.111672
C57	C	0.412497	-0.356862	-0.388297
C58	C	0.912497	0.143138	0.111703
C59	C	1.070073	-0.549242	-0.388278
C60	C	1.570073	-0.049242	0.111722
C61	C	1.070098	-0.631556	-0.388295
C62	C	1.570098	-0.131556	0.111705
C63	C	1.070261	-0.930647	-0.388339
C64	C	1.570261	-0.430647	0.111661
C65	C	1.013175	-0.899327	-0.450810
C66	C	1.513175	-0.399327	0.049190
C67	C	1.012903	-0.813709	-0.450615
C68	C	1.512903	-0.313709	0.049385
C69	C	1.070180	-0.782264	-0.388318
C70	C	1.570180	-0.282264	0.111682
C71	C	1.049049	-0.813414	-0.303344
C72	C	1.549049	-0.313414	0.196656
C73	C	1.048681	-0.899060	-0.303717
C74	C	1.548681	-0.399060	0.196283
C75	C	1.148603	-0.898996	-0.410093
C76	C	1.648603	-0.398996	0.089907
C77	C	1.148142	-0.813345	-0.411957
C78	C	1.648142	-0.313345	0.088043
C79	C	1.070136	-0.698405	-0.388301
C80	C	1.570136	-0.198405	0.111699
C81	C	1.070303	-1.014506	-0.388350
C82	C	1.570303	-0.514506	0.111650
C83	C	1.263334	-0.356861	-0.388291
C84	C	1.763334	0.143139	0.111709
C85	C	1.345648	-0.356874	-0.388287
C86	C	1.845648	0.143126	0.111713
C87	C	1.070220	-0.356776	-0.598611
C88	C	1.570220	0.143224	-0.098611
C89	C	1.070241	-0.356752	-0.688232
C90	C	1.570241	0.143248	-0.188232
C91	C	1.070292	-0.163669	-0.388344
C92	C	1.570292	0.336331	0.111656
C93	C	1.070343	-0.081355	-0.388361
C94	C	1.570343	0.418645	0.111639
C95	C	1.070275	-0.356670	-1.016408
C96	C	1.570275	0.143330	-0.516408
C97	C	1.070263	-0.356695	-0.925100
C98	C	1.570263	0.143305	-0.425100
C99	C	1.070258	-0.356712	-0.852323
C100	C	1.570258	0.143288	-0.352323
C101	C	1.070246	-0.356736	-0.761009
C102	C	1.570246	0.143264	-0.261009
C103	C	1.070167	-0.356833	-0.178811
C104	C	1.570167	0.143167	0.321189
C105	C	1.070290	-0.356648	-0.089191
C106	C	1.570290	0.143352	0.410809
H107	H	0.634298	-0.472007	-0.436000
H108	H	1.134298	0.027993	0.064000
H109	H	0.634048	-0.234829	-0.367794
H110	H	1.134048	0.265171	0.132206
Br111	Br	0.647485	-0.392306	-0.555970
Br112	Br	1.147485	0.107694	-0.055970
Br113	Br	0.494768	-0.251152	-0.515989
Br114	Br	0.994768	0.248848	-0.015989
H115	H	0.506176	-0.401396	-0.513179
H116	H	1.006176	0.098604	-0.013179
H117	H	1.089319	-0.793047	-0.255529
H118	H	1.589319	-0.293047	0.244471
Br119	Br	0.649460	-0.250296	-0.514418
Br120	Br	1.149460	0.249704	-0.014418
H121	H	1.026265	-0.919876	-0.514022
H122	H	1.526265	-0.419876	-0.014022
H123	H	0.955459	-0.920909	-0.436582
H124	H	1.455459	-0.420909	0.063418
H125	H	0.954834	-0.793282	-0.436205
H126	H	1.454834	-0.293282	0.063795
Br127	Br	0.493495	-0.205357	-0.340006
Br128	Br	0.993495	0.294643	0.159994
Br129	Br	0.491863	-0.469846	-0.267762
Br130	Br	0.991863	0.030154	0.232238
Br131	Br	0.953232	-0.932463	-0.272998
Br132	Br	1.453232	-0.432463	0.227002
H133	H	0.634950	-0.339550	-0.254727
H134	H	1.134950	0.160450	0.245273
Br135	Br	1.034937	-0.778598	-0.555633
Br136	Br	1.534937	-0.278598	-0.055633
Br137	Br	0.647376	-0.474060	-0.274214
Br138	Br	1.147376	0.025940	0.225786
Br139	Br	0.494134	-0.306876	-0.225952
Br140	Br	0.994134	0.193124	0.274048
H141	H	1.088456	-0.919780	-0.255585
H142	H	1.588456	-0.419780	0.244415
Br143	Br	1.174706	-0.779410	-0.516190
Br144	Br	1.674706	-0.279410	-0.016190
H145	H	1.167868	-0.920546	-0.471000
H146	H	1.667868	-0.420546	0.029000
H147	H	0.992387	-0.792025	-0.284583
H148	H	1.492387	-0.292025	0.215417
Br149	Br	1.222788	-0.777657	-0.341653
Br150	Br	1.722788	-0.277657	0.158347
H151	H	0.507069	-0.472376	-0.435908
H152	H	1.007069	0.027624	0.064092
Br153	Br	1.219495	-0.932768	-0.334270
Br154	Br	1.719495	-0.432768	0.165730
