data_functionalizedCrystal
_audit_creation_method	'MofGen! by Chris Wilmer'
_symmetry_space_group_name_H-M	'P1'
_symmetry_Int_Tables_number	1
_symmetry_cell_setting	triclinic
loop_
_symmetry_equiv_pos_as_xyz
  x,y,z
_cell_length_a	16.959455
_cell_length_b	16.959453
_cell_length_c	19.805399
_cell_angle_alpha	89.973285
_cell_angle_beta	89.976446
_cell_angle_gamma	90.017008
loop_
_atom_site_label
_atom_site_type_symbol
_atom_site_fract_x
_atom_site_fract_y
_atom_site_fract_z
Zn1	Zn	1.208409	-0.314763	-0.382796
Zn2	Zn	1.708409	0.185237	0.117204
Zn3	Zn	1.208324	-0.446945	-0.269609
Zn4	Zn	1.708324	0.053055	0.230391
Zn5	Zn	1.076230	-0.314778	-0.269612
Zn6	Zn	1.576230	0.185222	0.230388
Zn7	Zn	1.076202	-0.446896	-0.382748
Zn8	Zn	1.576202	0.053104	0.117252
O9	O	1.142292	-0.380845	-0.326191
O10	O	1.642292	0.119155	0.173809
O11	O	1.319009	-0.332311	-0.367800
O12	O	1.819009	0.167689	0.132200
O13	O	1.190778	-0.429439	-0.174893
O14	O	1.690778	0.070561	0.325107
O15	O	1.093811	-0.204165	-0.284648
O16	O	1.593811	0.295835	0.215352
O17	O	1.318947	-0.429425	-0.284642
O18	O	1.818947	0.070575	0.215358
O19	O	1.190922	-0.204154	-0.367803
O20	O	1.690922	0.295846	0.132197
O21	O	1.093729	-0.332337	-0.174895
O22	O	1.593729	0.167663	0.325105
O23	O	0.965616	-0.332289	-0.284601
O24	O	1.465616	0.167711	0.215399
O25	O	1.093764	-0.429342	-0.477471
O26	O	1.593764	0.070658	0.022529
O27	O	0.965595	-0.429356	-0.367722
O28	O	1.465595	0.070644	0.132278
O29	O	1.190895	-0.332264	-0.477506
O30	O	1.690895	0.167736	0.022494
O31	O	1.190751	-0.557549	-0.284596
O32	O	1.690751	-0.057549	0.215404
O33	O	1.093682	-0.557514	-0.367719
O34	O	1.593682	-0.057514	0.132281
C35	C	0.936925	-0.380820	-0.326157
C36	C	1.436925	0.119180	0.173843
C37	C	0.849069	-0.380828	-0.326159
C38	C	1.349069	0.119172	0.173841
C39	C	0.477550	-0.431363	-0.282869
C40	C	0.977550	0.068637	0.217131
C41	C	0.477636	-0.330394	-0.369596
C42	C	0.977636	0.169606	0.130404
C43	C	0.560182	-0.330381	-0.369579
C44	C	1.060182	0.169619	0.130421
C45	C	0.601416	-0.380860	-0.326208
C46	C	1.101416	0.119140	0.173792
C47	C	0.560104	-0.431353	-0.282853
C48	C	1.060104	0.068647	0.217147
C49	C	0.601500	-0.279895	-0.412939
C50	C	1.101500	0.220105	0.087061
C51	C	0.684051	-0.279881	-0.412924
C52	C	1.184051	0.220119	0.087076
C53	C	0.725287	-0.330357	-0.369549
C54	C	1.225287	0.169643	0.130451
C55	C	0.683969	-0.380850	-0.326191
C56	C	1.183969	0.119150	0.173809
C57	C	0.725203	-0.431330	-0.282820
C58	C	1.225203	0.068670	0.217180
C59	C	0.683887	-0.481820	-0.239458
C60	C	1.183887	0.018180	0.260542
C61	C	0.601339	-0.481829	-0.239477
C62	C	1.101339	0.018171	0.260523
C63	C	0.807835	-0.330348	-0.369530
C64	C	1.307835	0.169652	0.130470
C65	C	0.807757	-0.431320	-0.282803
C66	C	1.307757	0.068680	0.217197
C67	C	1.142226	-0.586212	-0.326166
C68	C	1.642226	-0.086212	0.173834
C69	C	1.142270	-0.674068	-0.326178
C70	C	1.642270	-0.174068	0.173822
C71	C	1.192922	-1.045480	-0.369572
C72	C	1.692922	-0.545480	0.130428
C73	C	1.091882	-1.045608	-0.282911
C74	C	1.591882	-0.545608	0.217089
C75	C	1.091852	-0.963062	-0.282896
C76	C	1.591852	-0.463062	0.217104
C77	C	1.142358	-0.921721	-0.326220
C78	C	1.642358	-0.421721	0.173780
C79	C	1.192893	-0.962926	-0.369559
C80	C	1.692893	-0.462926	0.130441
C81	C	1.041313	-0.921851	-0.239562
C82	C	1.541313	-0.421851	0.260438
C83	C	1.041281	-0.839300	-0.239545
C84	C	1.541281	-0.339300	0.260455
C85	C	1.091791	-0.797958	-0.282866
C86	C	1.591791	-0.297958	0.217134
C87	C	1.142328	-0.839168	-0.326207
C88	C	1.642328	-0.339168	0.173793
C89	C	1.192834	-0.797827	-0.369531
C90	C	1.692834	-0.297827	0.130469
C91	C	1.243376	-0.839035	-0.412869
C92	C	1.743376	-0.339035	0.087131
C93	C	1.243403	-0.921584	-0.412880
C94	C	1.743403	-0.421584	0.087120
C95	C	1.091764	-0.715409	-0.282854
C96	C	1.591764	-0.215409	0.217146
C97	C	1.192805	-0.715273	-0.369518
C98	C	1.692805	-0.215273	0.130482
C99	C	1.348460	-0.380872	-0.326226
C100	C	1.848460	0.119128	0.173774
C101	C	1.436316	-0.380883	-0.326241
C102	C	1.936316	0.119117	0.173759
C103	C	1.142336	-0.380796	-0.502734
C104	C	1.642336	0.119204	-0.002734
C105	C	1.142355	-0.380774	-0.577966
C106	C	1.642355	0.119226	-0.077966
C107	C	1.142379	-0.174677	-0.326231
C108	C	1.642379	0.325323	0.173769
C109	C	1.142417	-0.086821	-0.326248
C110	C	1.642417	0.413179	0.173752
C111	C	1.192932	-0.330223	-0.613330
C112	C	1.692932	0.169777	-0.113330
C113	C	1.192940	-0.330200	-0.684018
C114	C	1.692940	0.169800	-0.184018
C115	C	1.142374	-0.380733	-0.719342
C116	C	1.642374	0.119267	-0.219342
C117	C	1.091791	-0.431286	-0.683973
C118	C	1.591791	0.068714	-0.183973
C119	C	1.091780	-0.431305	-0.613286
C120	C	1.591780	0.068695	-0.113286
C121	C	1.091836	-0.431213	-0.969047
C122	C	1.591836	0.068787	-0.469047
C123	C	1.091853	-0.431192	-1.039739
C124	C	1.591853	0.068808	-0.539739
C125	C	1.192997	-0.330108	-1.039779
C126	C	1.692997	0.169892	-0.539779
C127	C	1.192985	-0.330127	-0.969091
C128	C	1.692985	0.169873	-0.469091
C129	C	1.142399	-0.380677	-0.933729
C130	C	1.642399	0.119323	-0.433729
C131	C	1.142390	-0.380700	-0.857081
C132	C	1.642390	0.119300	-0.357081
C133	C	1.142387	-0.380714	-0.795989
C134	C	1.642387	0.119286	-0.295989
C135	C	1.142293	-0.380838	-0.150335
C136	C	1.642293	0.119162	0.349665
C137	C	1.142427	-0.380636	-0.075104
C138	C	1.642427	0.119364	0.424896
H139	H	0.567922	-0.238803	-0.448254
H140	H	1.067922	0.261197	0.051746
F141	F	1.246833	-0.276305	-1.077419
F142	F	1.746833	0.223695	-0.577419
H143	H	1.050657	-0.472385	-0.940263
H144	H	1.550657	0.027615	-0.440263
H145	H	1.284494	-0.805366	-0.448147
H146	H	1.784494	-0.305366	0.051853
H147	H	1.234112	-0.289076	-0.584574
H148	H	1.734112	0.210924	-0.084574
F149	F	1.246799	-0.276424	-0.721651
F150	F	1.746799	0.223576	-0.221651
F151	F	0.557363	-0.535560	-0.193334
F152	F	1.057363	-0.035560	0.306666
H153	H	1.233935	-0.681618	-0.404795
H154	H	1.733935	-0.181618	0.095205
H155	H	0.443907	-0.472468	-0.247563
H156	H	0.943907	0.027532	0.252437
H157	H	1.050672	-0.472343	-1.068497
H158	H	1.550672	0.027657	-0.568497
H159	H	1.050759	-1.079273	-0.247642
H160	H	1.550759	-0.579273	0.252358
H161	H	1.050617	-0.472428	-0.712739
H162	H	1.550617	0.027572	-0.212739
F163	F	1.037946	-0.485106	-0.575650
F164	F	1.537946	0.014894	-0.075650
F165	F	1.246807	-0.276346	-0.931501
F166	F	1.746807	0.223654	-0.431501
H167	H	1.284551	-0.955143	-0.448164
H168	H	1.784551	-0.455143	0.051836
H169	H	1.234074	-1.079035	-0.404855
H170	H	1.734074	-0.579035	0.095145
F171	F	0.728015	-0.226145	-0.459072
F172	F	1.228015	0.273855	0.040928
F173	F	0.727781	-0.535547	-0.193305
F174	F	1.227781	-0.035547	0.306695
F175	F	0.851634	-0.485044	-0.236637
F176	F	1.351634	0.014956	0.263363
H177	H	1.000128	-0.805753	-0.204257
H178	H	1.500128	-0.305753	0.295743
F179	F	1.037976	-0.671556	-0.236736
F180	F	1.537976	-0.171556	0.263264
F181	F	0.433750	-0.276681	-0.415759
F182	F	0.933750	0.223319	0.084241
H183	H	1.000192	-0.955517	-0.204292
H184	H	1.500192	-0.455517	0.295708
F185	F	0.851802	-0.276621	-0.415678
F186	F	1.351802	0.223379	0.084322
