data_functionalizedCrystal
_audit_creation_method	'MofGen! by Chris Wilmer'
_symmetry_space_group_name_H-M	'P1'
_symmetry_Int_Tables_number	1
_symmetry_cell_setting	triclinic
loop_
_symmetry_equiv_pos_as_xyz
  x,y,z
_cell_length_a	16.625548
_cell_length_b	12.594516
_cell_length_c	16.625539
_cell_angle_alpha	89.973898
_cell_angle_beta	89.982945
_cell_angle_gamma	90.014591
loop_
_atom_site_label
_atom_site_type_symbol
_atom_site_fract_x
_atom_site_fract_y
_atom_site_fract_z
Zn1	Zn	1.232703	-0.423729	-0.455911
Zn2	Zn	1.232635	-0.601725	-0.321079
Zn3	Zn	1.097873	-0.423764	-0.321092
Zn4	Zn	1.097856	-0.601670	-0.455869
O5	O	1.165267	-0.512722	-0.388488
O6	O	1.345526	-0.447350	-0.438038
O7	O	1.214737	-0.578156	-0.208248
O8	O	1.115793	-0.274814	-0.338999
O9	O	1.345476	-0.578122	-0.338977
O10	O	1.214852	-0.274788	-0.438050
O11	O	1.115728	-0.447409	-0.208258
O12	O	0.985038	-0.447355	-0.338958
O13	O	1.115765	-0.578028	-0.568707
O14	O	0.985026	-0.578062	-0.437978
O15	O	1.214836	-0.447296	-0.568738
O16	O	1.214721	-0.750663	-0.338937
O17	O	1.115699	-0.750623	-0.437966
C18	C	0.955776	-0.512707	-0.388465
C19	C	0.866155	-0.512726	-0.388475
C20	C	1.165223	-0.789263	-0.388463
C21	C	1.165278	-0.907568	-0.388479
C22	C	0.537979	-0.512733	-0.388509
C23	C	0.629287	-0.512728	-0.388497
C24	C	0.702064	-0.512730	-0.388491
C25	C	0.793378	-0.512724	-0.388481
C26	C	1.219235	-1.047569	-0.334711
C27	C	1.145656	-0.976884	-0.314895
C28	C	1.238848	-0.976682	-0.408259
C29	C	1.091744	-1.047669	-0.368695
C30	C	1.184985	-1.047473	-0.462093
C31	C	1.111355	-0.976821	-0.442305
C32	C	1.375575	-0.512738	-0.388511
C33	C	1.465197	-0.512745	-0.388521
C34	C	1.165306	-0.512652	-0.598797
C35	C	1.165323	-0.512622	-0.688418
C36	C	1.165332	-0.235101	-0.388530
C37	C	1.165360	-0.116796	-0.388549
C38	C	1.165336	-0.512598	-0.761201
C39	C	1.165355	-0.512559	-0.852509
C40	C	1.165374	-0.512521	-0.925286
C41	C	1.165394	-0.512483	-1.016600
C42	C	1.165274	-0.512715	-0.178997
C43	C	1.165413	-0.512445	-0.089376
H44	H	1.264773	-1.078632	-0.289177
C45	C	1.343942	-0.971743	-0.507291
C46	C	1.322794	-0.934590	-0.430789
H47	H	1.395767	-0.945753	-0.521189
H48	H	1.344694	-1.047151	-0.506997
H49	H	1.305713	-0.947505	-0.545573
H50	H	1.361020	-0.958835	-0.392505
H51	H	1.322048	-0.859166	-0.431077
C52	C	1.179730	-0.970711	-0.174647
C53	C	1.123194	-0.935008	-0.230898
H54	H	1.165868	-0.944855	-0.122791
H55	H	1.180073	-1.046120	-0.173942
H56	H	1.231590	-0.945356	-0.189052
H57	H	1.071335	-0.960370	-0.216496
H58	H	1.122843	-0.859584	-0.231600
H59	H	1.029544	-1.078718	-0.351925
H60	H	1.065708	-0.945953	-0.487805
H61	H	1.201645	-1.078506	-0.524300
