data_functionalizedCrystal
_audit_creation_method	'MofGen! by Chris Wilmer'
_symmetry_space_group_name_H-M	'P1'
_symmetry_Int_Tables_number	1
_symmetry_cell_setting	triclinic
loop_
_symmetry_equiv_pos_as_xyz
  x,y,z
_cell_length_a	21.395362
_cell_length_b	16.625546
_cell_length_c	16.625539
_cell_angle_alpha	90.028532
_cell_angle_beta	90.036465
_cell_angle_gamma	90.038346
loop_
_atom_site_label
_atom_site_type_symbol
_atom_site_fract_x
_atom_site_fract_y
_atom_site_fract_z
Zn1	Zn	0.957849	-0.320673	0.456315
Zn2	Zn	1.457849	0.179327	0.956315
Zn3	Zn	0.957780	-0.455512	0.321478
Zn4	Zn	1.457780	0.044488	0.821478
Zn5	Zn	0.853078	-0.320734	0.321450
Zn6	Zn	1.353078	0.179266	0.821450
Zn7	Zn	0.853048	-0.455505	0.456222
Zn8	Zn	1.353048	0.044495	0.956222
O9	O	0.905439	-0.388106	0.388866
O10	O	1.405439	0.111894	0.888866
O11	O	1.045518	-0.338537	0.438479
O12	O	1.545518	0.161463	0.938479
O13	O	0.943875	-0.437662	0.208642
O14	O	1.443875	0.062338	0.708642
O15	O	0.867017	-0.207894	0.339368
O16	O	1.367017	0.292106	0.839368
O17	O	1.045467	-0.437603	0.339415
O18	O	1.545467	0.062397	0.839415
O19	O	0.943992	-0.207849	0.438453
O20	O	1.443992	0.292151	0.938453
O21	O	0.866950	-0.338642	0.208621
O22	O	1.366950	0.161358	0.708621
O23	O	0.765396	-0.338635	0.339277
O24	O	1.265396	0.161365	0.839277
O25	O	0.866967	-0.437591	0.569067
O26	O	1.366967	0.062409	1.069067
O27	O	0.765374	-0.437650	0.438293
O28	O	1.265374	0.062350	0.938293
O29	O	0.943964	-0.338530	0.569135
O30	O	1.443964	0.161470	1.069135
O31	O	0.943846	-0.568343	0.339324
O32	O	1.443846	-0.068343	0.839324
O33	O	0.866900	-0.568338	0.438320
O34	O	1.366900	-0.068338	0.938320
C35	C	0.742651	-0.388149	0.388773
C36	C	1.242651	0.111851	0.888773
C37	C	0.673010	-0.388186	0.388752
C38	C	1.173010	0.111814	0.888752
C39	C	0.640302	-0.439812	0.440232
C40	C	1.140302	0.060188	0.940232
C41	C	0.574867	-0.439792	0.440268
C42	C	1.074867	0.060208	0.940268
C43	C	0.542142	-0.388155	0.388809
C44	C	1.042142	0.111845	0.888809
C45	C	0.574858	-0.336520	0.337325
C46	C	1.074858	0.163480	0.837325
C47	C	0.640292	-0.336535	0.337296
C48	C	1.140292	0.163465	0.837296
C49	C	0.438424	-0.381673	0.316222
C50	C	0.938424	0.118327	0.816222
C51	C	0.372991	-0.381663	0.316249
C52	C	0.872991	0.118337	0.816249
C53	C	0.340321	-0.388103	0.388898
C54	C	0.840321	0.111897	0.888898
C55	C	0.373092	-0.394570	0.461523
C56	C	0.873092	0.105430	0.961523
C57	C	0.438526	-0.394585	0.461494
C58	C	0.938526	0.105415	0.961494
C59	C	0.471189	-0.388132	0.388835
C60	C	0.971189	0.111868	0.888835
C61	C	0.236660	-0.439710	0.440422
C62	C	0.736660	0.060290	0.940422
C63	C	0.171224	-0.439684	0.440459
C64	C	0.671224	0.060316	0.940459
C65	C	0.171216	-0.336416	0.337509
C66	C	0.671216	0.163584	0.837509
C67	C	0.236651	-0.336437	0.337479
C68	C	0.736651	0.163563	0.837479
C69	C	0.269370	-0.388088	0.388934
C70	C	0.769370	0.111912	0.888934
C71	C	0.905380	-0.597597	0.388832
C72	C	1.405380	-0.097597	0.888832
C73	C	0.905412	-0.687218	0.388845
C74	C	1.405412	-0.187218	0.888845
C75	C	0.905521	-1.015394	0.388929
C76	C	1.405521	-0.515394	0.888929
C77	C	0.905488	-0.924085	0.388908
C78	C	1.405488	-0.424085	0.888908
C79	C	0.905466	-0.851309	0.388887
C80	C	1.405466	-0.351309	0.888887
C81	C	0.905434	-0.759995	0.388866
C82	C	1.405434	-0.259995	0.888866
C83	C	1.068862	-0.388064	0.388961
C84	C	1.568862	0.111936	0.888961
C85	C	1.138503	-0.388046	0.389001
C86	C	1.638503	0.111954	0.889001
C87	C	0.905470	-0.388053	0.599175
C88	C	1.405470	0.111947	1.099175
C89	C	0.905483	-0.388030	0.688796
C90	C	1.405483	0.111970	1.188796
C91	C	0.905515	-0.177797	0.388918
C92	C	1.405515	0.322203	0.888918
C93	C	0.905548	-0.088176	0.388940
C94	C	1.405548	0.411824	0.888940
C95	C	0.905444	-0.388101	0.179375
C96	C	1.405444	0.111899	0.679375
C97	C	0.905553	-0.387896	0.089755
C98	C	1.405553	0.112104	0.589755
C99	C	0.905493	-0.388012	0.761579
C100	C	1.405493	0.111988	1.261579
C101	C	0.905508	-0.387982	0.852887
C102	C	1.405508	0.112018	1.352887
C103	C	0.905522	-0.387954	0.925664
C104	C	1.405522	0.112046	1.425664
C105	C	0.905538	-0.387925	1.016978
C106	C	1.405538	0.112075	1.516978
H107	H	0.465018	-0.376425	0.257058
H108	H	0.965018	0.123575	0.757058
O109	O	0.470331	-0.400717	0.532070
O110	O	0.970331	0.099283	1.032070
C111	C	0.454409	-0.335633	0.582433
C112	C	0.954409	0.164367	1.082433
H113	H	0.436424	-0.283621	0.544245
H114	H	0.936424	0.216379	1.044245
H115	H	0.416450	-0.355248	0.626349
H116	H	0.916450	0.144752	1.126349
C117	C	0.534680	-0.372180	0.676609
C118	C	1.034680	0.127820	1.176609
C119	C	0.512595	-0.308296	0.629706
C120	C	1.012595	0.191704	1.129706
H121	H	0.570571	-0.355319	0.705772
H122	H	1.070571	0.144681	1.205772
H123	H	0.545406	-0.416031	0.642681
H124	H	1.045406	0.083969	1.142681
H125	H	0.503042	-0.388521	0.713199
H126	H	1.003042	0.111479	1.213199
H127	H	0.544231	-0.291964	0.593110
H128	H	1.044231	0.208036	1.093110
H129	H	0.501877	-0.264442	0.663629
H130	H	1.001877	0.235558	1.163629
O131	O	0.543142	-0.286401	0.287223
O132	O	1.043142	0.213599	0.787223
C133	C	0.559051	-0.303935	0.206822
C134	C	1.059051	0.196065	0.706822
H135	H	0.606539	-0.334939	0.205078
H136	H	1.106539	0.165061	0.705078
H137	H	0.522177	-0.345345	0.179604
H138	H	1.022177	0.154655	0.679604
C139	C	0.503766	-0.187187	0.160263
C140	C	1.003766	0.312813	0.660263
C141	C	0.562094	-0.225261	0.158121
C142	C	1.062094	0.274739	0.658121
H143	H	0.505640	-0.138659	0.130220
H144	H	1.005640	0.361341	0.630220
H145	H	0.493045	-0.175375	0.214430
H146	H	0.993045	0.324625	0.714430
H147	H	0.473044	-0.221704	0.137582
H148	H	0.973044	0.278296	0.637582
H149	H	0.592813	-0.190748	0.180811
H150	H	1.092813	0.309252	0.680811
H151	H	0.572820	-0.237065	0.103957
H152	H	1.072820	0.262935	0.603957
O153	O	0.341232	-0.375486	0.245642
O154	O	0.841232	0.124514	0.745642
C155	C	0.357135	-0.440584	0.195288
C156	C	0.857135	0.059416	0.695288
H157	H	0.404641	-0.465437	0.213870
H158	H	0.904641	0.034563	0.713870
H159	H	0.320280	-0.489797	0.201048
H160	H	0.820280	0.010203	0.701048
C161	C	0.301769	-0.381115	0.084578
C162	C	0.801769	0.118885	0.584578
C163	C	0.360119	-0.411636	0.107397
C164	C	0.860119	0.088364	0.607397
H165	H	0.303607	-0.363261	0.030362
H166	H	0.803607	0.136739	0.530362
H167	H	0.291052	-0.337259	0.118503
H168	H	0.791052	0.162741	0.618503
H169	H	0.271063	-0.422132	0.089384
H170	H	0.771063	0.077868	0.589384
H171	H	0.390822	-0.370616	0.102600
H172	H	0.890822	0.129384	0.602600
H173	H	0.370841	-0.455485	0.073468
H174	H	0.870841	0.044515	0.573468
H175	H	0.263301	-0.481763	0.482324
H176	H	0.763301	0.018237	0.982324
H177	H	0.666922	-0.294493	0.295375
H178	H	1.166922	0.205507	0.795375
H179	H	0.666937	-0.481869	0.482132
H180	H	1.166937	0.018131	0.982132
H181	H	0.144594	-0.481723	0.482386
H182	H	0.644594	0.018277	0.982386
O183	O	0.543182	-0.490016	0.490308
O184	O	1.043182	0.009984	0.990308
C185	C	0.586091	-0.535587	0.535736
C186	C	1.086091	-0.035587	1.035736
H187	H	0.632709	-0.538353	0.502686
H188	H	1.132709	-0.038353	1.002686
H189	H	0.593118	-0.506140	0.597023
H190	H	1.093118	-0.006140	1.097023
C191	C	0.503244	-0.618010	0.587811
C192	C	1.003244	-0.118010	1.087811
C193	C	0.560499	-0.621414	0.547214
C194	C	1.060499	-0.121414	1.047214
H195	H	0.487457	-0.670951	0.594894
H196	H	0.987457	-0.170951	1.094894
H197	H	0.474334	-0.587307	0.557207
H198	H	0.974334	-0.087307	1.057207
H199	H	0.509107	-0.593468	0.638878
H200	H	1.009107	-0.093468	1.138878
H201	H	0.554633	-0.645947	0.496144
H202	H	1.054633	-0.145947	0.996144
H203	H	0.589407	-0.652124	0.577809
H204	H	1.089407	-0.152124	1.077809
H205	H	0.346494	-0.399812	0.520681
H206	H	0.846494	0.100188	1.020681
H207	H	0.144572	-0.294368	0.295614
H208	H	0.644572	0.205632	0.795614
O209	O	0.268331	-0.286267	0.287388
O210	O	0.768331	0.213733	0.787388
C211	C	0.225418	-0.240671	0.241991
C212	C	0.725418	0.259329	0.741991
H213	H	0.178750	-0.273681	0.239159
H214	H	0.678750	0.226319	0.739159
H215	H	0.218522	-0.179470	0.271631
H216	H	0.718522	0.320530	0.771631
C217	C	0.308217	-0.188399	0.159663
C218	C	0.808217	0.311601	0.659663
C219	C	0.250900	-0.228947	0.156180
C220	C	0.750900	0.271053	0.656180
H221	H	0.323936	-0.181163	0.106732
H222	H	0.823936	0.318837	0.606732
H223	H	0.337129	-0.219116	0.190250
H224	H	0.837129	0.280884	0.690250
H225	H	0.302463	-0.137403	0.184367
H226	H	0.802463	0.362597	0.684367
H227	H	0.256656	-0.279945	0.131485
H228	H	0.756656	0.220055	0.631485
H229	H	0.221990	-0.198238	0.125586
H230	H	0.721990	0.301762	0.625586
