data_functionalizedCrystal
_audit_creation_method	'MofGen! by Chris Wilmer'
_symmetry_space_group_name_H-M	'P1'
_symmetry_Int_Tables_number	1
_symmetry_cell_setting	triclinic
loop_
_symmetry_equiv_pos_as_xyz
  x,y,z
_cell_length_a	17.640112
_cell_length_b	18.101397
_cell_length_c	17.640968
_cell_angle_alpha	78.764690
_cell_angle_beta	92.139080
_cell_angle_gamma	101.246095
loop_
_atom_site_label
_atom_site_type_symbol
_atom_site_fract_x
_atom_site_fract_y
_atom_site_fract_z
Zn1	Zn	1.247779	-0.021278	-0.195078
Zn2	Zn	1.222013	-0.174069	-0.068085
Zn3	Zn	1.095112	-0.069452	-0.093721
Zn4	Zn	1.120754	-0.164321	-0.220668
O5	O	1.171414	-0.107280	-0.144388
O6	O	1.350630	-0.025465	-0.156795
O7	O	1.183665	-0.184432	0.034789
O8	O	1.115416	0.040585	-0.107186
O9	O	1.331700	-0.137720	-0.063493
O10	O	1.227579	0.075978	-0.181653
O11	O	1.090432	-0.107570	0.015954
O12	O	0.992245	-0.098118	-0.131999
O13	O	1.159118	-0.121106	-0.323548
O14	O	1.011084	-0.167818	-0.225266
O15	O	1.252443	-0.016013	-0.304748
O16	O	1.208529	-0.276423	-0.088306
O17	O	1.134134	-0.269261	-0.200408
C18	C	0.974110	-0.137138	-0.184192
C19	C	0.889706	-0.149925	-0.201238
C20	C	1.171342	-0.299709	-0.144364
C21	C	1.171386	-0.382015	-0.144366
C22	C	0.563039	-0.010125	-0.014897
C23	C	0.483731	-0.022153	-0.030925
C24	C	0.503368	-0.094900	-0.127877
C25	C	0.582680	-0.082875	-0.111860
C26	C	0.612509	-0.040488	-0.055369
C27	C	0.632150	-0.113237	-0.152331
C28	C	0.711455	-0.101217	-0.136313
C29	C	0.741290	-0.058833	-0.079822
C30	C	0.691814	-0.028467	-0.039350
C31	C	0.602319	-0.155629	-0.208818
C32	C	0.651789	-0.185992	-0.249290
C33	C	0.731096	-0.173966	-0.233275
C34	C	0.760931	-0.131583	-0.176785
C35	C	0.780572	-0.204333	-0.273747
C36	C	0.859877	-0.192312	-0.257729
C37	C	0.840236	-0.119562	-0.160766
C38	C	1.171497	-0.681075	-0.144415
C39	C	1.218108	-0.654286	-0.073760
C40	C	1.218342	-0.568602	-0.073871
C41	C	1.171442	-0.532708	-0.144390
C42	C	1.209323	-0.542195	-0.220066
C43	C	1.209711	-0.627845	-0.219654
C44	C	1.086988	-0.666422	-0.140120
C45	C	1.087023	-0.581120	-0.138253
C46	C	1.171410	-0.448856	-0.144381
C47	C	1.171531	-0.764925	-0.144430
C48	C	1.369490	-0.077307	-0.104430
C49	C	1.453897	-0.064534	-0.087402
C50	C	1.211515	-0.062098	-0.342474
C51	C	1.228603	-0.042844	-0.426887
C52	C	1.171511	0.085907	-0.144424
C53	C	1.171552	0.168232	-0.144440
C54	C	1.041888	-0.253103	-0.753445
C55	C	1.057961	-0.234999	-0.832760
C56	C	1.155131	-0.125576	-0.813174
C57	C	1.139064	-0.143668	-0.733856
C58	C	1.082442	-0.207433	-0.703998
C59	C	1.179618	-0.097998	-0.684410
C60	C	1.163554	-0.116092	-0.605098
C61	C	1.106936	-0.179855	-0.575233
C62	C	1.066378	-0.225527	-0.624687
C63	C	1.236244	-0.034237	-0.714269
C64	C	1.276798	0.011433	-0.664822
C65	C	1.260731	-0.006657	-0.585510
C66	C	1.204113	-0.070420	-0.555645
C67	C	1.301289	0.039015	-0.536057
C68	C	1.285225	0.020921	-0.456745
C69	C	1.188049	-0.088514	-0.476333
C70	C	1.131514	-0.152227	0.052936
C71	C	1.114573	-0.171250	0.137378
H72	H	0.864526	-0.085033	-0.114777
H73	H	1.280023	-0.663736	-0.075228
C74	C	1.302463	-0.524493	-0.075983
H75	H	1.336626	-0.558930	-0.076783
H76	H	1.312410	-0.501924	-0.031427
H77	H	1.310254	-0.485417	-0.121055
H78	H	1.052059	-0.683524	-0.191779
C79	C	1.167028	-0.650237	-0.292016
H80	H	1.166971	-0.702687	-0.292252
H81	H	1.192495	-0.619195	-0.337027
H82	H	1.115278	-0.642654	-0.291403
H83	H	1.270978	-0.507870	-0.226014
H84	H	1.141923	-0.140423	-0.452025
C85	C	0.828522	-0.045608	-0.062197
H86	H	0.839200	-0.016020	-0.022753
H87	H	0.856406	-0.018970	-0.107600
H88	H	0.843775	-0.093680	-0.045347
H89	H	1.271964	-0.634913	-0.225176
C90	C	1.089262	-0.199764	-0.487993
H91	H	1.049737	-0.244283	-0.477294
H92	H	1.072519	-0.158050	-0.472707
H93	H	1.134629	-0.209255	-0.460158
C94	C	1.253917	-0.014330	-0.801509
H95	H	1.293453	0.030180	-0.812209
H96	H	1.208554	-0.004840	-0.829346
H97	H	1.270661	-0.056049	-0.816792
H98	H	1.055653	-0.704137	-0.086740
H99	H	1.318247	0.058111	-0.416484
C100	C	1.339074	0.081573	-0.697672
H101	H	1.342829	0.085813	-0.751990
H102	H	1.387460	0.075497	-0.674374
H103	H	1.325339	0.126690	-0.686927
H104	H	1.177113	-0.517834	-0.273428
C105	C	1.048825	-0.575223	-0.063133
H106	H	1.084169	-0.543388	-0.035622
H107	H	1.034874	-0.624942	-0.032068
H108	H	1.003873	-0.553680	-0.075369
C109	C	1.013345	-0.285235	-0.887154
H110	H	1.031024	-0.265331	-0.938665
H111	H	0.959695	-0.285083	-0.884455
H112	H	1.021808	-0.336285	-0.871904
H113	H	1.049115	-0.557640	-0.187247
H114	H	1.020252	-0.277436	-0.600379
H115	H	0.716104	0.006063	0.006639
H116	H	0.995762	-0.305012	-0.729137
C117	C	1.363570	0.109149	-0.568907
H118	H	1.367327	0.113385	-0.623224
H119	H	1.411955	0.103068	-0.545607
H120	H	1.349842	0.154270	-0.558166
H121	H	1.201235	-0.073660	-0.837496
C122	C	0.470552	-0.141519	-0.190016
H123	H	0.416236	-0.144326	-0.193764
H124	H	0.481273	-0.191847	-0.176192
H125	H	0.493897	-0.117130	-0.238436
H126	H	0.900157	-0.217035	-0.290685
C127	C	0.595858	0.036512	0.047232
H128	H	0.555039	0.052877	0.069043
H129	H	0.632700	0.080062	0.024363
H130	H	0.620074	0.005361	0.086627
H131	H	0.443455	0.002582	0.002031
C132	C	0.618986	-0.232559	-0.311473
H133	H	0.659811	-0.248906	-0.333293
H134	H	0.594788	-0.201366	-0.350839
H135	H	0.582132	-0.276129	-0.288657
C136	C	0.747765	-0.250910	-0.335922
H137	H	0.788589	-0.267261	-0.357741
H138	H	0.723563	-0.219725	-0.375290
H139	H	0.710914	-0.294478	-0.313096
H140	H	1.192767	-0.563216	-0.017252
C141	C	1.183749	-0.703241	0.003018
H142	H	1.212696	-0.686155	0.044936
H143	H	1.185832	-0.755524	0.004354
H144	H	1.131517	-0.698238	0.007136
H145	H	0.537744	-0.165415	-0.221858
