data_functionalizedCrystal
_audit_creation_method	'MofGen! by Chris Wilmer'
_symmetry_space_group_name_H-M	'P1'
_symmetry_Int_Tables_number	1
_symmetry_cell_setting	triclinic
loop_
_symmetry_equiv_pos_as_xyz
  x,y,z
_cell_length_a	19.805407
_cell_length_b	12.594516
_cell_length_c	19.805399
_cell_angle_alpha	90.025437
_cell_angle_beta	90.019573
_cell_angle_gamma	90.013523
loop_
_atom_site_label
_atom_site_type_symbol
_atom_site_fract_x
_atom_site_fract_y
_atom_site_fract_z
Zn1	Zn	1.034796	-0.423767	0.382730
Zn2	Zn	1.534796	0.076233	0.882730
Zn3	Zn	1.034737	-0.601760	0.269546
Zn4	Zn	1.534737	-0.101760	0.769546
Zn5	Zn	0.921611	-0.423796	0.269554
Zn6	Zn	1.421611	0.076204	0.769554
Zn7	Zn	0.921600	-0.601704	0.382692
Zn8	Zn	1.421600	-0.101704	0.882692
O9	O	0.978186	-0.512757	0.326131
O10	O	1.478186	-0.012757	0.826131
O11	O	1.129505	-0.447389	0.367728
O12	O	1.629505	0.052611	0.867728
O13	O	1.019710	-0.578189	0.174830
O14	O	1.519710	-0.078189	0.674830
O15	O	0.936655	-0.274846	0.284586
O16	O	1.436655	0.225154	0.784586
O17	O	1.129461	-0.578160	0.284572
O18	O	1.629461	-0.078160	0.784572
O19	O	1.019812	-0.274825	0.367736
O20	O	1.519812	0.225175	0.867736
O21	O	0.936597	-0.447439	0.174837
O22	O	1.436597	0.052561	0.674837
O23	O	0.826893	-0.447385	0.284550
O24	O	1.326893	0.052615	0.784550
O25	O	0.936636	-0.578064	0.477414
O26	O	1.436636	-0.078064	0.977414
O27	O	0.826885	-0.578092	0.367672
O28	O	1.326885	-0.078092	0.867672
O29	O	1.019801	-0.447335	0.477441
O30	O	1.519801	0.052665	0.977441
O31	O	1.019699	-0.750699	0.284536
O32	O	1.519699	-0.250699	0.784536
O33	O	0.936578	-0.750657	0.367664
O34	O	1.436578	-0.250657	0.867664
C35	C	0.802330	-0.512736	0.326109
C36	C	1.302330	-0.012736	0.826109
C37	C	0.727098	-0.512753	0.326115
C38	C	1.227098	-0.012753	0.826115
C39	C	0.691767	-0.580915	0.369327
C40	C	1.191767	-0.080915	0.869327
C41	C	0.621079	-0.580917	0.369337
C42	C	1.121079	-0.080917	0.869337
C43	C	0.585722	-0.512762	0.326131
C44	C	1.085722	-0.012762	0.826131
C45	C	0.621058	-0.444592	0.282917
C46	C	1.121058	0.055408	0.782917
C47	C	0.691745	-0.444586	0.282911
C48	C	1.191745	0.055414	0.782911
C49	C	0.335985	-0.444616	0.282939
C50	C	0.835985	0.055384	0.782939
C51	C	0.265293	-0.444629	0.282947
C52	C	0.765293	0.055371	0.782947
C53	C	0.265318	-0.580947	0.369365
C54	C	0.765318	-0.080947	0.869365
C55	C	0.336006	-0.580941	0.369359
C56	C	0.836006	-0.080941	0.869359
C57	C	0.371335	-0.512768	0.326148
C58	C	0.871335	-0.012768	0.826148
C59	C	0.447983	-0.512765	0.326139
C60	C	0.947983	-0.012765	0.826139
C61	C	0.509075	-0.512769	0.326136
C62	C	1.009075	-0.012769	0.826136
C63	C	0.978149	-0.789298	0.326110
C64	C	1.478149	-0.289298	0.826110
C65	C	0.978196	-0.907603	0.326123
C66	C	1.478196	-0.407603	0.826123
C67	C	1.023488	-1.047604	0.280988
C68	C	1.523488	-0.547604	0.780988
C69	C	0.961722	-0.976917	0.264353
C70	C	1.461722	-0.476917	0.764353
C71	C	1.039954	-0.976718	0.342728
C72	C	1.539954	-0.476718	0.842728
C73	C	0.916467	-1.047702	0.309515
C74	C	1.416467	-0.547702	0.809515
C75	C	0.994740	-1.047509	0.387918
C76	C	1.494740	-0.547509	0.887918
C77	C	0.932932	-0.976855	0.371306
C78	C	1.432932	-0.476855	0.871306
C79	C	1.154729	-0.512778	0.326153
C80	C	1.654729	-0.012778	0.826153
C81	C	1.229961	-0.512787	0.326162
C82	C	1.729961	-0.012787	0.826162
C83	C	0.978224	-0.512690	0.502673
C84	C	1.478224	-0.012690	1.002673
C85	C	0.978240	-0.512661	0.577905
C86	C	1.478240	-0.012661	1.077905
C87	C	0.978241	-0.235136	0.326166
C88	C	1.478241	0.264864	0.826166
C89	C	0.978265	-0.116830	0.326182
C90	C	1.478265	0.383170	0.826182
C91	C	0.978187	-0.512747	0.150275
C92	C	1.478187	-0.012747	0.650275
C93	C	0.978302	-0.512475	0.075043
C94	C	1.478302	-0.012475	0.575043
C95	C	1.021545	-0.444587	0.613265
C96	C	1.521545	0.055413	1.113265
C97	C	1.021552	-0.444556	0.683953
C98	C	1.521552	0.055444	1.183953
C99	C	0.978257	-0.512605	0.719281
C100	C	1.478257	-0.012605	1.219281
C101	C	0.934947	-0.580683	0.683917
C102	C	1.434947	-0.080683	1.183917
C103	C	0.934937	-0.580707	0.613229
C104	C	1.434937	-0.080707	1.113229
C105	C	0.934985	-0.580583	0.968990
C106	C	1.434985	-0.080583	1.468990
C107	C	0.935000	-0.580556	1.039682
C108	C	1.435000	-0.080556	1.539682
C109	C	1.021600	-0.444432	1.039714
C110	C	1.521600	0.055568	1.539714
C111	C	1.021590	-0.444457	0.969027
C112	C	1.521590	0.055543	1.469027
C113	C	0.978278	-0.512530	0.933669
C114	C	1.478278	-0.012530	1.433669
C115	C	0.978270	-0.512561	0.857020
C116	C	1.478270	-0.012561	1.357020
C117	C	0.978268	-0.512580	0.795928
C118	C	1.478268	-0.012580	1.295928
H119	H	0.720510	-0.389075	0.247728
H120	H	1.220510	0.110925	0.747728
C121	C	1.075128	-1.089582	0.229360
C122	C	1.575128	-0.589582	0.729360
H123	H	1.108205	-1.131014	0.251993
H124	H	1.608205	-0.631014	0.751993
H125	H	1.052632	-1.132196	0.196777
H126	H	1.552632	-0.632196	0.696777
H127	H	1.096412	-1.031425	0.207465
H128	H	1.596412	-0.531425	0.707465
C129	C	1.069238	-0.369545	1.078610
C130	C	1.569238	0.130455	1.578610
H131	H	1.063041	-0.379265	1.125768
H132	H	1.563041	0.120735	1.625768
H133	H	1.114710	-0.385136	1.067032
H134	H	1.614710	0.114864	1.567032
H135	H	1.059344	-0.298029	1.067031
H136	H	1.559344	0.201971	1.567031
H137	H	0.947753	-0.945905	0.212119
H138	H	1.447753	-0.445905	0.712119
H139	H	0.364789	-0.636444	0.404539
H140	H	0.864789	-0.136444	0.904539
C141	C	0.730653	-0.655886	0.416855
C142	C	1.230653	-0.155886	0.916855
H143	H	0.699485	-0.696473	0.442596
H144	H	1.199485	-0.196473	0.942596
H145	H	0.758213	-0.702208	0.390913
H146	H	1.258213	-0.202208	0.890913
H147	H	0.758244	-0.615220	0.446392
H148	H	1.258244	-0.115220	0.946392
C149	C	0.845931	-1.089629	0.290491
C150	C	1.345931	-0.589629	0.790491
H151	H	0.816464	-1.031444	0.282552
H152	H	1.316464	-0.531444	0.782552
H153	H	0.849089	-1.131668	0.250784
H154	H	1.349089	-0.631668	0.750784
H155	H	0.828719	-1.131631	0.326409
H156	H	1.328719	-0.631631	0.826409
C157	C	0.582218	-0.655960	0.416828
C158	C	1.082218	-0.155960	0.916828
H159	H	0.613399	-0.696578	0.442540
H160	H	1.113399	-0.196578	0.942540
H161	H	0.554640	-0.615371	0.446383
H162	H	1.054640	-0.115371	0.946383
H163	H	0.554647	-0.702266	0.390844
H164	H	1.054647	-0.202266	0.890844
H165	H	0.894614	-0.945987	0.409500
H166	H	1.394614	-0.445987	0.909500
C167	C	1.069191	-0.369680	0.722846
C168	C	1.569191	0.130320	1.222846
H169	H	1.094980	-0.329166	0.691682
H170	H	1.594980	0.170834	1.191682
H171	H	1.043316	-0.323286	0.750422
H172	H	1.543316	0.176714	1.250422
H173	H	1.098678	-0.410399	0.750421
H174	H	1.598678	0.089601	1.250421
C175	C	1.069167	-0.369726	0.574411
C176	C	1.569167	0.130274	1.074411
H177	H	1.094953	-0.329171	0.605596
H178	H	1.594953	0.170829	1.105596
H179	H	1.098648	-0.410447	0.546833
H180	H	1.598648	0.089553	1.046833
H181	H	1.043273	-0.323354	0.546840
H182	H	1.543273	0.176646	1.046840
C183	C	0.226454	-0.655927	0.416903
C184	C	0.726454	-0.155927	0.916903
H185	H	0.179292	-0.646164	0.410727
H186	H	0.679292	-0.146164	0.910727
H187	H	0.238026	-0.727419	0.406916
H188	H	0.738026	-0.227419	0.906916
H189	H	0.238063	-0.640436	0.462398
H190	H	0.738063	-0.140436	0.962398
C191	C	0.374838	-0.369647	0.235398
C192	C	0.874838	0.130353	0.735398
H193	H	0.343655	-0.329071	0.209661
H194	H	0.843655	0.170929	0.709661
H195	H	0.402433	-0.323314	0.261330
H196	H	0.902433	0.176686	0.761330
H197	H	0.402392	-0.410315	0.205858
H198	H	0.902392	0.089685	0.705858
H199	H	1.008727	-1.078544	0.440138
H200	H	1.508727	-0.578544	0.940138
C201	C	0.582171	-0.369618	0.235392
C202	C	1.082171	0.130382	0.735392
H203	H	0.613339	-0.329015	0.209660
H204	H	1.113339	0.170985	0.709660
H205	H	0.554579	-0.410272	0.205856
H206	H	1.054579	0.089728	0.705856
H207	H	0.554613	-0.323295	0.261342
H208	H	1.054613	0.176705	0.761342
C209	C	1.069212	-0.369599	0.930170
C210	C	1.569212	0.130401	1.430170
H211	H	1.095000	-0.329043	0.961353
H212	H	1.595000	0.170957	1.461353
H213	H	1.098691	-0.410323	0.902593
H214	H	1.598691	0.089677	1.402593
H215	H	1.043318	-0.323228	0.902599
H216	H	1.543318	0.176772	1.402599
H217	H	1.092152	-0.945540	0.356747
H218	H	1.592152	-0.445540	0.856747
C219	C	0.226401	-0.369646	0.235424
C220	C	0.726401	0.130354	0.735424
H221	H	0.257566	-0.329035	0.209693
H222	H	0.757566	0.170965	0.709693
H223	H	0.198809	-0.410299	0.205887
H224	H	0.698809	0.089701	0.705887
H225	H	0.198843	-0.323331	0.261379
H226	H	0.698843	0.176669	0.761379
H227	H	0.899741	-0.635972	1.068444
H228	H	1.399741	-0.135972	1.568444
H229	H	0.899728	-0.636028	0.940210
H230	H	1.399728	-0.136028	1.440210
C231	C	0.887324	-0.655537	0.722775
C232	C	1.387324	-0.155537	1.222775
H233	H	0.893537	-0.645782	0.769938
H234	H	1.393537	-0.145782	1.269938
H235	H	0.841848	-0.639961	0.711185
H236	H	1.341848	-0.139961	1.211185
H237	H	0.897219	-0.727060	0.711181
H238	H	1.397219	-0.227060	1.211181
H239	H	0.899667	-0.636130	0.584441
H240	H	1.399667	-0.136130	1.084441
