data_functionalizedCrystal
_audit_creation_method	'MofGen! by Chris Wilmer'
_symmetry_space_group_name_H-M	'P1'
_symmetry_Int_Tables_number	1
_symmetry_cell_setting	triclinic
loop_
_symmetry_equiv_pos_as_xyz
  x,y,z
_cell_length_a	13.339070
_cell_length_b	12.996460
_cell_length_c	14.519709
_cell_angle_alpha	89.992910
_cell_angle_beta	80.345281
_cell_angle_gamma	90.005393
loop_
_atom_site_label
_atom_site_type_symbol
_atom_site_fract_x
_atom_site_fract_y
_atom_site_fract_z
O1	O	1.343121	0.085613	-0.462554
O2	O	1.843121	0.585613	0.037446
O3	O	1.048484	0.085606	-0.401841
O4	O	1.548484	0.585606	0.098159
O5	O	1.203614	0.085600	-0.299946
O6	O	1.703614	0.585600	0.200054
O7	O	1.187990	0.085618	-0.564449
O8	O	1.687990	0.585618	-0.064449
O9	O	1.203598	-0.085534	-0.299934
O10	O	1.703598	0.414466	0.200066
O11	O	1.048468	-0.085528	-0.401829
O12	O	1.548468	0.414472	0.098171
O13	O	1.343105	-0.085521	-0.462542
O14	O	1.843105	0.414479	0.037458
Cu15	Cu	1.195785	-0.101150	-0.432185
Cu16	Cu	1.695785	0.398850	0.067815
Cu17	Cu	1.195804	0.101235	-0.432199
Cu18	Cu	1.695804	0.601235	0.067801
O19	O	1.187974	-0.085515	-0.564437
O20	O	1.687974	0.414485	-0.064437
C21	C	1.010768	0.000038	-0.391580
C22	C	1.510768	0.500038	0.108420
C23	C	0.898411	0.000035	-0.361010
C24	C	1.398411	0.500035	0.138990
N25	N	1.195779	-0.243498	-0.432176
N26	N	1.695779	0.256502	0.067824
C27	C	0.534048	0.000067	-0.598702
C28	C	1.034048	0.500067	-0.098702
C29	C	0.639613	0.000073	-0.627426
C30	C	1.139613	0.500073	-0.127426
C31	C	0.704317	0.000063	-0.560825
C32	C	1.204317	0.500063	-0.060825
C33	C	0.663447	0.000048	-0.465494
C34	C	1.163447	0.500048	0.034506
C35	C	0.557872	0.000050	-0.436767
C36	C	1.057872	0.500050	0.063233
C37	C	0.728141	0.000046	-0.398889
C38	C	1.228141	0.500046	0.101111
C39	C	0.687271	0.000030	-0.303559
C40	C	1.187271	0.500030	0.196441
C41	C	0.581706	0.000032	-0.274836
C42	C	1.081706	0.500032	0.225164
C43	C	0.517002	0.000042	-0.341438
C44	C	1.017002	0.500042	0.158562
C45	C	0.833716	0.000044	-0.427617
C46	C	1.333716	0.500044	0.072383
C47	C	0.857541	0.000027	-0.265682
C48	C	1.357541	0.500027	0.234318
C49	C	0.751976	0.000020	-0.236957
C50	C	1.251976	0.500020	0.263043
C51	C	1.195802	-0.663312	-0.432199
C52	C	1.695802	-0.163312	0.067801
C53	C	1.195793	-0.546507	-0.432195
C54	C	1.695793	-0.046507	0.067805
C55	C	1.195791	-0.453408	-0.432188
C56	C	1.695791	0.046592	0.067812
C57	C	1.195780	-0.336596	-0.432183
C58	C	1.695780	0.163404	0.067817
C59	C	1.380820	0.000049	-0.472804
C60	C	1.880820	0.500049	0.027196
C61	C	1.493178	0.000059	-0.503373
C62	C	1.993178	0.500059	-0.003373
C63	C	1.202878	0.000033	-0.265395
C64	C	1.702878	0.500033	0.234605
C65	C	1.200696	0.000032	-0.162459
C66	C	1.700696	0.500032	0.337541
N67	N	1.195818	0.243582	-0.432202
N68	N	1.695818	0.743582	0.067798
C69	C	1.188711	0.000054	-0.598988
C70	C	1.688711	0.500054	-0.098988
C71	C	1.190892	0.000061	-0.701924
C72	C	1.690892	0.500061	-0.201924
C73	C	1.192663	0.000059	0.214480
C74	C	1.692663	0.500059	0.714480
C75	C	1.194894	0.000051	0.109605
C76	C	1.694894	0.500051	0.609605
C77	C	1.196679	0.000045	0.026014
C78	C	1.696679	0.500045	0.526014
C79	C	1.198911	0.000039	-0.078868
C80	C	1.698911	0.500039	0.421132
H81	H	0.866982	0.000052	-0.505235
H82	H	1.366982	0.500052	-0.005235
C83	C	0.684569	0.000092	-0.732279
C84	C	1.184569	0.500092	-0.232279
H85	H	0.756708	0.000102	-0.739849
H86	H	1.256708	0.500102	-0.239849
H87	H	0.662367	-0.059579	-0.760842
H88	H	1.162367	0.440421	-0.260842
H89	H	0.662378	0.059785	-0.760834
H90	H	1.162378	0.559785	-0.260834
H91	H	0.790272	0.000071	-0.584218
H92	H	1.290272	0.500071	-0.084218
C93	C	0.400879	0.000035	-0.309843
C94	C	0.900879	0.500035	0.190157
H95	H	0.368202	0.000044	-0.363164
H96	H	0.868202	0.500044	0.136836
H97	H	0.381391	-0.059645	-0.273437
H98	H	0.881391	0.440355	0.226563
H99	H	0.381401	0.059719	-0.273449
H100	H	0.881401	0.559719	0.226551
C101	C	0.707011	0.000015	-0.132099
C102	C	1.207011	0.500015	0.367901
H103	H	0.634872	0.000025	-0.124535
H104	H	1.134872	0.500025	0.375465
H105	H	0.729196	-0.059665	-0.103531
H106	H	1.229196	0.440335	0.396469
H107	H	0.729212	0.059699	-0.103545
H108	H	1.229212	0.559699	0.396455
H109	H	0.481357	0.000084	-0.652918
H110	H	0.981357	0.500084	-0.152918
C111	C	0.536746	0.000033	-0.169977
C112	C	1.036746	0.500033	0.330023
H113	H	0.464607	0.000047	-0.162408
H114	H	0.964607	0.500047	0.337592
H115	H	0.558930	-0.059645	-0.141406
H116	H	1.058930	0.440355	0.358594
H117	H	0.558953	0.059719	-0.141429
H118	H	1.058953	0.559719	0.358571
H119	H	0.910224	0.000023	-0.211449
H120	H	1.410224	0.500023	0.288551
