data_functionalizedCrystal
_audit_creation_method	'MofGen! by Chris Wilmer'
_symmetry_space_group_name_H-M	'P1'
_symmetry_Int_Tables_number	1
_symmetry_cell_setting	triclinic
loop_
_symmetry_equiv_pos_as_xyz
  x,y,z
_cell_length_a	6.817900
_cell_length_b	11.102294
_cell_length_c	17.110486
_cell_angle_alpha	95.183698
_cell_angle_beta	99.060439
_cell_angle_gamma	108.605785
loop_
_atom_site_label
_atom_site_type_symbol
_atom_site_fract_x
_atom_site_fract_y
_atom_site_fract_z
V1	V	-4.002964	-0.175460	-0.246719
O2	O	-3.964063	0.008821	-0.242024
O3	O	-3.980483	-0.348283	-0.245031
O4	O	-3.932395	-0.172591	-0.354322
O5	O	-4.012484	-0.168088	-0.131976
V6	V	-4.486106	-0.153438	-0.232995
O7	O	-4.265058	-0.223767	-0.276824
O8	O	-4.674209	-0.105131	-0.202890
O9	O	-4.285380	0.019384	-0.234683
O10	O	-4.642403	-0.337720	-0.237691
O11	O	-4.593982	-0.160811	-0.347739
O12	O	-4.333468	-0.156308	-0.125392
C13	C	-3.832507	-0.390419	-0.241139
C14	C	-3.895266	-0.531703	-0.240476
C15	C	-4.165982	-0.737307	-0.243500
C16	C	-4.107025	-0.604554	-0.244114
C17	C	-3.742451	-0.591608	-0.236215
C18	C	-3.801406	-0.724357	-0.235595
C19	C	-3.771165	-0.166304	-0.380550
C20	C	-3.794922	-0.165101	-0.468516
C21	C	-3.988322	-0.170879	-0.513874
C22	C	-4.010632	-0.169748	-0.596527
C23	C	-3.839545	-0.162848	-0.633822
C24	C	-3.646128	-0.157066	-0.588457
C25	C	-3.623816	-0.158188	-0.505805
C26	C	-3.897793	-0.159135	-0.883177
C27	C	-3.920123	-0.158018	-0.965836
C28	C	-4.284625	-0.170697	-0.973899
C29	C	-4.262299	-0.171826	-0.891245
C30	C	-4.068882	-0.166037	-0.845888
C31	C	-3.862348	-0.161696	-0.718307
C32	C	-4.046078	-0.167180	-0.761403
C33	C	-4.096699	0.061513	-0.238574
C34	C	-4.013178	0.202796	-0.239242
C35	C	-4.158042	-0.162599	-0.099160
C36	C	-4.113522	-0.163795	-0.011194
H37	H	-3.570026	-0.532280	-0.233248
C38	C	-4.398930	-0.817432	-0.247502
N39	N	-4.574390	-0.877778	-0.250513
H40	H	-4.442097	-0.175408	-1.010838
C41	C	-4.275136	-0.538679	-0.248819
N42	N	-4.401768	-0.489065	-0.252370
C43	C	-3.457867	-0.149341	-0.629471
N44	N	-3.316043	-0.143479	-0.660358
H45	H	-3.676963	-0.773126	-0.232127
C46	C	-3.731899	-0.150420	-1.006857
N47	N	-3.590137	-0.144699	-1.037755
H48	H	-3.740326	-0.154467	-0.846261
H49	H	-4.127648	-0.176506	-0.483516
H50	H	-4.401620	-0.177443	-0.860886
H51	H	-4.168112	-0.174446	-0.633453
C52	C	-3.411065	-0.151837	-0.455912
N53	N	-3.250813	-0.147050	-0.418333
C54	C	-3.674078	-0.153934	-0.759323
N55	N	-3.532243	-0.148022	-0.790212
H56	H	-4.185372	-0.172794	-0.731034
