data_functionalizedCrystal
_audit_creation_method	'MofGen! by Chris Wilmer'
_symmetry_space_group_name_H-M	'P1'
_symmetry_Int_Tables_number	1
_symmetry_cell_setting	triclinic
loop_
_symmetry_equiv_pos_as_xyz
  x,y,z
_cell_length_a	12.827892
_cell_length_b	19.805407
_cell_length_c	12.827893
_cell_angle_alpha	89.986780
_cell_angle_beta	90.007453
_cell_angle_gamma	89.985991
loop_
_atom_site_label
_atom_site_type_symbol
_atom_site_fract_x
_atom_site_fract_y
_atom_site_fract_z
Zn1	Zn	-0.416251	-1.034702	0.591111
Zn2	Zn	-0.082918	-0.701368	0.924445
Zn3	Zn	0.250415	-0.368035	1.257778
Zn4	Zn	-0.590961	-1.034664	0.416372
Zn5	Zn	-0.257627	-0.701330	0.749705
Zn6	Zn	0.075706	-0.367997	1.083038
Zn7	Zn	-0.416230	-0.921542	0.416356
Zn8	Zn	-0.082897	-0.588208	0.749690
Zn9	Zn	0.250437	-0.254875	1.083023
Zn10	Zn	-0.590947	-0.921502	0.591043
Zn11	Zn	-0.257613	-0.588168	0.924376
Zn12	Zn	0.075720	-0.254835	1.257709
O13	O	-0.503597	-0.978102	0.503720
O14	O	-0.170264	-0.644769	0.837054
O15	O	0.163070	-0.311435	1.170387
O16	O	-0.439442	-1.129413	0.567967
O17	O	-0.106108	-0.796080	0.901300
O18	O	0.227225	-0.462746	1.234633
O19	O	-0.567779	-1.019659	0.270134
O20	O	-0.234446	-0.686325	0.603467
O21	O	0.098888	-0.352992	0.936800
O22	O	-0.269997	-0.936585	0.439560
O23	O	0.063337	-0.603252	0.772893
O24	O	0.396670	-0.269919	1.106227
O25	O	-0.567800	-1.129385	0.439586
O26	O	-0.234466	-0.796052	0.772920
O27	O	0.098867	-0.462719	1.106253
O28	O	-0.270012	-1.019723	0.567952
O29	O	0.063321	-0.686390	0.901285
O30	O	0.396654	-0.353057	1.234618
O31	O	-0.439405	-0.936548	0.270122
O32	O	-0.106072	-0.603215	0.603456
O33	O	0.227262	-0.269882	0.936789
O34	O	-0.439392	-0.826820	0.439494
O35	O	-0.106058	-0.493486	0.772827
O36	O	0.227275	-0.160153	1.106160
O37	O	-0.567776	-0.936517	0.737288
O38	O	-0.234443	-0.603184	1.070621
O39	O	0.098890	-0.269850	1.403954
O40	O	-0.567756	-0.826790	0.567835
O41	O	-0.234422	-0.493457	0.901168
O42	O	0.098911	-0.160124	1.234502
O43	O	-0.439428	-1.019684	0.737338
O44	O	-0.106095	-0.686351	1.070671
O45	O	0.227238	-0.353018	1.404005
O46	O	-0.737195	-1.019620	0.439520
O47	O	-0.403861	-0.686286	0.772853
O48	O	-0.070528	-0.352953	1.106187
O49	O	-0.737185	-0.936480	0.567850
O50	O	-0.403851	-0.603147	0.901183
O51	O	-0.070518	-0.269813	1.234517
C52	C	-0.503571	-0.802246	0.503656
C53	C	-0.170237	-0.468913	0.836989
C54	C	0.163096	-0.135579	1.170323
C55	C	-0.503584	-0.727014	0.503653
C56	C	-0.170251	-0.393681	0.836986
C57	C	0.163082	-0.060347	1.170320
C58	C	-0.570550	-0.265225	0.570474
C59	C	-0.237216	0.068108	0.903807
C60	C	0.096117	0.401441	1.237140
C61	C	-0.570549	-0.335914	0.570455
C62	C	-0.237216	-0.002581	0.903789
C63	C	0.096118	0.330753	1.237122
C64	C	-0.503612	-0.371252	0.503731
C65	C	-0.170279	-0.037919	0.837064
C66	C	0.163055	0.295414	1.170397
C67	C	-0.436679	-0.335899	0.437013
C68	C	-0.103345	-0.002565	0.770346
C69	C	0.229988	0.330768	1.103679
C70	C	-0.436685	-0.265212	0.437027
C71	C	-0.103352	0.068122	0.770360
C72	C	0.229981	0.401455	1.103693
C73	C	-0.436652	-0.620972	0.436954
C74	C	-0.103318	-0.287639	0.770287
C75	C	0.230015	0.045695	1.103620
C76	C	-0.436648	-0.691664	0.436947
C77	C	-0.103315	-0.358331	0.770280
C78	C	0.230019	-0.024997	1.103614
C79	C	-0.570515	-0.691674	0.570382
C80	C	-0.237182	-0.358341	0.903715
C81	C	0.096151	-0.025008	1.237049
C82	C	-0.570522	-0.620987	0.570396
C83	C	-0.237189	-0.287654	0.903729
C84	C	0.096145	0.045679	1.237063
C85	C	-0.503593	-0.585640	0.503675
C86	C	-0.170260	-0.252306	0.837008
C87	C	0.163074	0.081027	1.170341
C88	C	-0.503596	-0.508991	0.503694
C89	C	-0.170262	-0.175658	0.837028
C90	C	0.163071	0.157675	1.170361
C91	C	-0.503603	-0.447899	0.503716
C92	C	-0.170270	-0.114566	0.837049
C93	C	0.163063	0.218767	1.170382
C94	C	-0.775107	-0.978060	0.503702
C95	C	-0.441774	-0.644726	0.837035
C96	C	-0.108440	-0.311393	1.170369
C97	C	-0.891260	-0.978104	0.503729
C98	C	-0.557927	-0.644770	0.837062
C99	C	-0.224594	-0.311437	1.170396
C100	C	-0.943015	-1.019293	0.440298
C101	C	-0.609682	-0.685959	0.773631
C102	C	-0.276349	-0.352626	1.106964
C103	C	-1.063066	-1.019339	0.440324
C104	C	-0.729732	-0.686005	0.773658
C105	C	-0.396399	-0.352672	1.106991
C106	C	-0.231027	-0.978163	0.503762
C107	C	0.102306	-0.644830	0.837095
C108	C	0.435640	-0.311496	1.170429
C109	C	-0.114874	-0.978189	0.503779
C110	C	0.218459	-0.644856	0.837113
C111	C	0.551793	-0.311522	1.170446
C112	C	-0.503603	-0.978100	0.776291
C113	C	-0.170270	-0.644767	1.109624
C114	C	0.163064	-0.311434	1.442957
C115	C	-0.503606	-0.978100	0.892444
C116	C	-0.170272	-0.644766	1.225777
C117	C	0.163061	-0.311433	1.559110
C118	C	-0.503620	-0.154645	0.503773
C119	C	-0.170287	0.178689	0.837107
C120	C	0.163046	0.512022	1.170440
C121	C	-0.503619	-0.229877	0.503763
C122	C	-0.170286	0.103457	0.837097
C123	C	0.163047	0.436790	1.170430
C124	C	-0.440094	-0.936978	1.064267
C125	C	-0.106761	-0.603645	1.397600
C126	C	0.226573	-0.270312	1.730934
C127	C	-0.440090	-0.936978	0.944217
C128	C	-0.106757	-0.603645	1.277550
C129	C	0.226577	-0.270312	1.610883
C130	C	-0.503615	-0.978099	1.232211
C131	C	-0.170281	-0.644765	1.565544
C132	C	0.163052	-0.311432	1.898877
C133	C	-0.503612	-0.978099	1.116057
C134	C	-0.170279	-0.644766	1.449391
C135	C	0.163055	-0.311433	1.782724
H136	H	-0.625052	-0.236458	0.624815
H137	H	-0.291719	0.096875	0.958148
H138	H	0.041615	0.430209	1.291481
Br139	Br	-0.345809	-0.573009	0.346413
Br140	Br	-0.012476	-0.239676	0.679747
Br141	Br	0.320857	0.093657	1.013080
H142	H	-0.382182	-0.364677	0.382680
H143	H	-0.048849	-0.031344	0.716013
H144	H	0.284485	0.301990	1.049346
Br145	Br	-0.661363	-0.573031	0.660960
Br146	Br	-0.328029	-0.239698	0.994293
Br147	Br	0.005304	0.093635	1.327626
Br148	Br	-0.349448	-0.878303	1.138487
Br149	Br	-0.016115	-0.544970	1.471821
Br150	Br	0.317219	-0.211636	1.805154
H151	H	-0.385713	-0.901771	0.899678
H152	H	-0.052380	-0.568438	1.233012
H153	H	0.280953	-0.235104	1.566345
Br154	Br	-0.965531	-0.919388	0.594290
Br155	Br	-0.632197	-0.586055	0.927623
Br156	Br	-0.298864	-0.252721	1.260956
H157	H	-0.625053	-0.364692	0.624775
H158	H	-0.291720	-0.031358	0.958109
H159	H	0.041614	0.301975	1.291442
H160	H	-0.625015	-0.720463	0.624707
H161	H	-0.291682	-0.387129	0.958040
H162	H	0.041652	-0.053796	1.291374
Br163	Br	-0.345856	-0.217237	0.346479
Br164	Br	-0.012523	0.116096	0.679812
Br165	Br	0.320810	0.449429	1.013145
H166	H	-0.898451	-1.054525	0.385975
H167	H	-0.565117	-0.721192	0.719309
H168	H	-0.231784	-0.387858	1.052642
H169	H	-1.107574	-1.054600	0.386016
H170	H	-0.774241	-0.721267	0.719349
H171	H	-0.440907	-0.387934	1.052682
H172	H	-0.557989	-1.013306	0.936975
H173	H	-0.224656	-0.679973	1.270309
H174	H	0.108677	-0.346639	1.603642
H175	H	-0.382135	-0.720435	0.382610
H176	H	-0.048802	-0.387101	0.715943
H177	H	0.284531	-0.053768	1.049276
H178	H	-1.070373	-0.942921	0.558084
H179	H	-0.737040	-0.609588	0.891418
H180	H	-0.403707	-0.276254	1.224751
Br181	Br	-0.594241	-1.036786	1.041837
Br182	Br	-0.260908	-0.703453	1.375170
Br183	Br	0.072426	-0.370120	1.708504
