data_functionalizedCrystal
_audit_creation_method	'MofGen! by Chris Wilmer'
_symmetry_space_group_name_H-M	'P1'
_symmetry_Int_Tables_number	1
_symmetry_cell_setting	triclinic
loop_
_symmetry_equiv_pos_as_xyz
  x,y,z
_cell_length_a	18.215407
_cell_length_b	19.077432
_cell_length_c	18.215399
_cell_angle_alpha	87.673828
_cell_angle_beta	89.982632
_cell_angle_gamma	87.724520
loop_
_atom_site_label
_atom_site_type_symbol
_atom_site_fract_x
_atom_site_fract_y
_atom_site_fract_z
Zn1	Zn	1.136836	-0.280253	-0.404301
Zn2	Zn	1.141686	-0.397953	-0.276293
Zn3	Zn	1.013770	-0.280270	-0.281253
Zn4	Zn	1.018674	-0.397907	-0.399325
O5	O	1.077741	-0.339096	-0.340293
O6	O	1.240464	-0.295878	-0.387327
O7	O	1.124694	-0.382368	-0.173965
O8	O	1.026013	-0.181778	-0.301733
O9	O	1.244027	-0.382351	-0.293280
O10	O	1.116429	-0.181765	-0.392136
O11	O	1.030715	-0.295906	-0.177609
O12	O	0.911435	-0.295862	-0.296908
O13	O	1.034371	-0.382274	-0.502970
O14	O	0.915038	-0.382290	-0.383656
O15	O	1.121185	-0.295834	-0.506626
O16	O	1.129450	-0.496436	-0.288455
O17	O	1.039073	-0.496403	-0.378846
C18	C	0.886534	-0.339074	-0.340281
C19	C	0.804736	-0.339082	-0.340292
C20	C	0.614689	-0.294147	-0.389333
C21	C	0.537831	-0.294153	-0.389335
C22	C	0.541546	-0.384063	-0.291264
C23	C	0.618403	-0.384053	-0.291259
C24	C	0.654973	-0.339096	-0.340298
C25	C	0.501257	-0.339112	-0.340305
C26	C	0.417924	-0.339119	-0.340307
C27	C	0.738311	-0.339088	-0.340295
C28	C	1.085340	-0.521957	-0.332588
C29	C	1.088658	-0.600186	-0.329317
C30	C	1.043130	-0.636946	-0.374803
C31	C	1.046251	-0.710450	-0.371726
C32	C	1.094903	-0.747193	-0.323167
C33	C	1.140433	-0.710428	-0.277676
C34	C	1.137308	-0.636925	-0.280749
C35	C	1.109296	-0.967023	-0.308929
C36	C	1.112419	-1.040531	-0.305860
C37	C	1.018235	-1.040549	-0.399910
C38	C	1.015118	-0.967044	-0.402982
C39	C	1.060644	-0.930285	-0.357489
N40	N	1.098096	-0.822326	-0.320022
N41	N	1.057448	-0.855153	-0.360630
C42	C	1.269695	-0.339118	-0.340305
C43	C	1.351494	-0.339127	-0.340310
C44	C	1.077784	-0.339047	-0.532248
C45	C	1.077802	-0.339026	-0.614048
C46	C	1.070133	-0.155520	-0.348043
C47	C	1.066891	-0.077291	-0.351346
C48	C	1.123021	-0.293975	-0.804148
C49	C	1.123029	-0.293954	-0.881008
C50	C	1.032631	-0.383969	-0.877189
C51	C	1.032620	-0.383986	-0.800331
C52	C	1.077819	-0.338989	-0.763813
C53	C	1.077838	-0.338952	-0.917530
C54	C	1.077846	-0.338931	-1.000865
C55	C	1.077810	-0.339010	-0.680473
C56	C	1.077739	-0.339093	-0.149087
C57	C	1.077855	-0.338915	-0.067296
H58	H	0.511762	-0.420666	-0.251340
C59	C	0.662111	-0.432977	-0.238104
C60	C	0.646345	-0.502637	-0.251090
C61	C	0.686602	-0.547720	-0.202146
H62	H	0.649101	-0.422713	-0.189081
H63	H	0.713130	-0.426577	-0.245128
H64	H	0.595337	-0.509033	-0.244061
H65	H	0.659358	-0.512922	-0.300104
H66	H	0.737622	-0.541320	-0.209169
H67	H	0.673589	-0.537450	-0.153126
H68	H	0.675916	-0.594989	-0.210955
C69	C	1.165330	-1.080366	-0.253175
C70	C	1.237390	-1.062438	-0.269963
C71	C	1.286136	-1.099128	-0.221442
H72	H	1.160742	-1.129411	-0.257837
H73	H	1.154109	-1.068359	-0.204207
H74	H	1.248608	-1.074450	-0.318918
H75	H	1.242002	-1.013400	-0.265296
H76	H	1.274915	-1.087121	-0.172474
H77	H	1.281542	-1.148171	-0.226108
H78	H	1.335034	-1.086964	-0.232821
H79	H	1.146367	-0.937099	-0.271887
C80	C	0.654486	-0.245293	-0.442451
C81	C	0.696725	-0.200139	-0.402758
C82	C	0.733400	-0.155128	-0.451665
H83	H	0.619565	-0.218456	-0.471673
H84	H	0.685645	-0.272230	-0.473325
H85	H	0.665569	-0.173204	-0.371897
H86	H	0.731659	-0.226956	-0.373538
H87	H	0.764560	-0.182065	-0.482539
H88	H	0.698474	-0.128296	-0.480885
H89	H	0.762069	-0.124490	-0.424741
C90	C	0.990234	-0.597184	-0.427553
C91	C	0.951019	-0.645114	-0.466715
C92	C	0.902277	-0.608514	-0.515308
H93	H	1.017066	-0.568466	-0.460909
H94	H	0.956928	-0.568570	-0.400588
H95	H	0.984321	-0.673717	-0.493678
H96	H	0.924172	-0.673834	-0.433378
H97	H	0.868970	-0.579899	-0.488344
H98	H	0.929115	-0.579796	-0.548659
H99	H	0.875658	-0.641028	-0.541881
H100	H	1.180043	-0.740349	-0.238134
H101	H	1.174380	-0.606995	-0.243709
C102	C	1.172112	-0.245041	-0.764634
C103	C	1.211684	-0.205601	-0.816414
C104	C	1.256906	-0.160506	-0.780044
H105	H	1.205354	-0.271892	-0.733519
H106	H	1.142697	-0.214342	-0.735962
H107	H	1.241097	-0.236296	-0.845074
H108	H	1.178461	-0.178735	-0.847531
H109	H	1.227491	-0.129807	-0.751371
H110	H	1.290143	-0.187363	-0.748930
H111	H	1.283756	-0.133737	-0.815171
H112	H	1.159836	-0.257298	-0.913846
C113	C	0.983643	-0.432797	-0.916974
C114	C	0.993341	-0.423164	-0.992916
C115	C	0.948233	-0.468140	-1.029587
H116	H	0.933738	-0.422540	-0.904894
H117	H	0.996381	-0.480105	-0.902422
H118	H	0.980598	-0.375867	-1.007463
H119	H	1.043236	-0.433426	-1.005018
H120	H	0.960971	-0.515448	-1.015035
H121	H	0.898332	-0.457880	-1.017501
H122	H	0.954812	-0.461615	-1.081117
C123	C	0.494138	-0.245440	-0.442696
C124	C	0.513489	-0.260867	-0.514833
C125	C	0.473248	-0.216011	-0.564011
H126	H	0.504727	-0.198112	-0.434098
H127	H	0.443120	-0.251887	-0.435727
H128	H	0.564496	-0.254414	-0.521800
H129	H	0.502898	-0.308187	-0.523454
H130	H	0.422230	-0.222458	-0.557041
H131	H	0.483840	-0.168685	-0.555406
H132	H	0.486367	-0.226476	-0.612961
C133	C	0.983637	-0.432980	-0.756566
C134	C	1.002565	-0.502616	-0.772302
C135	C	0.957466	-0.547765	-0.731992
H136	H	0.933742	-0.422768	-0.769553
H137	H	0.990112	-0.426591	-0.705553
H138	H	0.996084	-0.509003	-0.823304
H139	H	1.052453	-0.512850	-0.759313
H140	H	0.963941	-0.541375	-0.680979
H141	H	0.907573	-0.537546	-0.744982
H142	H	0.970307	-0.595018	-0.742658
C143	C	0.996738	-0.750402	-0.420992
C144	C	0.951371	-0.792653	-0.377519
C145	C	0.905743	-0.829460	-0.422878
H146	H	1.026010	-0.779089	-0.451892
H147	H	0.967275	-0.718017	-0.450344
H148	H	0.980831	-0.825034	-0.348179
H149	H	0.922083	-0.763983	-0.346619
H150	H	0.876280	-0.797075	-0.452230
H151	H	0.935021	-0.858143	-0.453776
H152	H	0.874952	-0.858127	-0.393388
C153	C	0.968837	-1.080586	-0.449210
C154	C	0.981970	-1.152821	-0.436114
C155	C	0.936467	-1.189725	-0.481509
H156	H	0.979020	-1.068585	-0.499198
H157	H	0.918873	-1.068629	-0.438886
H158	H	1.031923	-1.164774	-0.446444
H159	H	0.971783	-1.164844	-0.386135
H160	H	0.886503	-1.177767	-0.471185
H161	H	0.946654	-1.177718	-0.531494
H162	H	0.945367	-1.238740	-0.472625
H163	H	0.975501	-0.937130	-0.442524
