data_functionalizedCrystal
_audit_creation_method	'MofGen! by Chris Wilmer'
_symmetry_space_group_name_H-M	'P1'
_symmetry_Int_Tables_number	1
_symmetry_cell_setting	triclinic
loop_
_symmetry_equiv_pos_as_xyz
  x,y,z
_cell_length_a	10.489741
_cell_length_b	10.489741
_cell_length_c	8.965430
_cell_angle_alpha	89.999293
_cell_angle_beta	89.994167
_cell_angle_gamma	95.460826
loop_
_atom_site_label
_atom_site_type_symbol
_atom_site_fract_x
_atom_site_fract_y
_atom_site_fract_z
O1	O	1.694053	-0.179958	-0.124108
O2	O	1.322858	-0.196851	-0.124096
O3	O	1.516902	-0.002807	-0.124093
O4	O	1.500009	-0.374003	-0.124110
O5	O	1.516886	-0.002820	0.123986
O6	O	1.322841	-0.196864	0.123983
O7	O	1.694037	-0.179971	0.123971
Cu8	Cu	1.508438	-0.188419	0.146629
Cu9	Cu	1.508457	-0.188404	-0.146753
O10	O	1.499993	-0.374016	0.123968
C11	C	1.275318	-0.195582	-0.000055
C12	C	1.133688	-0.191765	-0.000050
C13	C	1.741577	-0.181241	-0.000073
C14	C	1.883206	-0.185058	-0.000088
C15	C	1.951346	-0.308523	-0.000078
C16	C	2.043481	-0.250193	-0.122386
C17	C	2.043431	-0.250176	0.122200
C18	C	1.973476	-0.126677	-0.122497
C19	C	1.973416	-0.126678	0.122199
C20	C	2.065524	-0.068258	-0.000139
C21	C	1.515618	0.044718	-0.000055
C22	C	1.511801	0.186348	-0.000057
C23	C	1.501277	-0.421541	-0.000073
C24	C	1.505094	-0.563170	-0.000081
N25	N	1.508433	-0.188429	0.352978
C26	C	1.388336	0.254488	-0.000064
C27	C	1.446652	0.346604	0.122250
C28	C	1.446697	0.346591	-0.122337
C29	C	1.570167	0.276599	0.122358
C30	C	1.570195	0.276576	-0.122339
C31	C	1.628600	0.368665	0.000005
N32	N	1.508471	-0.188384	-0.353102
C33	C	1.418666	-0.278138	0.450282
C34	C	1.534163	-0.303949	0.549691
C35	C	1.392986	-0.162629	0.549697
C36	C	1.623988	-0.214298	0.450197
C37	C	1.482735	-0.072927	0.450194
C38	C	1.598314	-0.098690	0.549558
H39	H	1.901698	-0.410035	-0.000207
C40	C	2.085400	-0.320754	-0.262076
H41	H	2.045939	-0.406114	-0.261937
H42	H	2.060292	-0.277708	-0.348937
H43	H	2.175838	-0.321995	-0.261513
C44	C	2.085259	-0.320773	0.261901
H45	H	2.045770	-0.406123	0.261735
H46	H	2.175688	-0.322022	0.261403
H47	H	2.060090	-0.277738	0.348756
C48	C	1.251211	0.187403	0.000103
H49	H	1.207547	0.211216	0.087123
H50	H	1.206911	0.212369	-0.085906
H51	H	1.254586	0.097225	-0.000772
C52	C	1.931848	-0.056168	-0.262356
H53	H	1.841489	-0.054214	-0.261544
H54	H	1.971963	0.028926	-0.262709
H55	H	1.956390	-0.099745	-0.349107
C56	C	1.755929	-0.243922	0.391416
H57	H	1.755095	-0.243805	0.285454
H58	H	1.819741	-0.180566	0.426198
H59	H	1.774333	-0.325698	0.426312
C60	C	1.700987	0.003833	0.608082
H61	H	1.661274	0.064513	0.666407
H62	H	1.760802	-0.035808	0.667738
H63	H	1.744216	0.046060	0.526195
C64	C	2.132304	0.068990	-0.000209
H65	H	2.183713	0.081781	0.086723
H66	H	2.184826	0.081265	-0.086308
H67	H	2.069564	0.128600	-0.001063
C68	C	1.453294	0.058953	0.391088
H69	H	1.523296	0.094998	0.332775
H70	H	1.378235	0.049282	0.331306
H71	H	1.440200	0.113950	0.472730
C72	C	1.261074	-0.133159	0.608723
H73	H	1.197387	-0.196993	0.574710
H74	H	1.262248	-0.132574	0.714668
H75	H	1.242196	-0.051736	0.573172
H76	H	1.622398	0.245537	-0.225755
H77	H	1.342824	-0.354072	0.406693
C78	C	1.376081	0.388504	0.261946
H79	H	1.432416	0.445193	0.319533
H80	H	1.304010	0.430859	0.232549
H81	H	1.348293	0.315296	0.319954
H82	H	1.942361	-0.074487	0.225614
H83	H	1.622355	0.245761	0.225880
C84	C	1.765848	0.435447	0.000090
H85	H	1.809486	0.411489	0.087056
H86	H	1.810043	0.410412	-0.085975
H87	H	1.762682	0.525653	-0.000723
C88	C	1.563555	-0.435866	0.608754
H89	H	1.499683	-0.499530	0.574776
H90	H	1.644964	-0.454803	0.573229
H91	H	1.564120	-0.434655	0.714706
C92	C	1.376115	0.388444	-0.262032
H93	H	1.290764	0.348957	-0.261868
H94	H	1.374867	0.478874	-0.261524
H95	H	1.419158	0.363291	-0.348891
