data_functionalizedCrystal
_audit_creation_method	'MofGen! by Chris Wilmer'
_symmetry_space_group_name_H-M	'P1'
_symmetry_Int_Tables_number	1
_symmetry_cell_setting	triclinic
loop_
_symmetry_equiv_pos_as_xyz
  x,y,z
_cell_length_a	16.992694
_cell_length_b	16.109301
_cell_length_c	15.186229
_cell_angle_alpha	89.999641
_cell_angle_beta	89.998303
_cell_angle_gamma	87.064851
loop_
_atom_site_label
_atom_site_type_symbol
_atom_site_fract_x
_atom_site_fract_y
_atom_site_fract_z
O1	O	1.040346	0.176289	0.073103
O2	O	1.373679	0.509622	0.406437
O3	O	1.707012	0.842955	0.739770
O4	O	0.812061	0.174355	0.073129
O5	O	1.145394	0.507688	0.406463
O6	O	1.478728	0.841021	0.739796
O7	O	0.932474	0.054709	0.073120
O8	O	1.265808	0.388042	0.406454
O9	O	1.599141	0.721376	0.739787
O10	O	0.919932	0.295934	0.073113
O11	O	1.253265	0.629267	0.406446
O12	O	1.586599	0.962601	0.739779
O13	O	0.932465	0.054706	-0.073337
O14	O	1.265799	0.388039	0.259996
O15	O	1.599132	0.721372	0.593330
O16	O	0.812052	0.174351	-0.073328
O17	O	1.145385	0.507684	0.260006
O18	O	1.478718	0.841018	0.593339
O19	O	1.040336	0.176285	-0.073354
O20	O	1.373670	0.509618	0.259979
O21	O	1.707003	0.842952	0.593313
Zn22	Zn	0.926193	0.175317	-0.096594
Zn23	Zn	1.259526	0.508651	0.236739
Zn24	Zn	1.592859	0.841984	0.570073
Zn25	Zn	0.926205	0.175322	0.096370
Zn26	Zn	1.259538	0.508656	0.429703
Zn27	Zn	1.592871	0.841989	0.763036
O28	O	0.919923	0.295931	-0.073345
O29	O	1.253256	0.629264	0.259989
O30	O	1.586589	0.962597	0.593322
C31	C	0.782844	0.171865	-0.000096
C32	C	1.116178	0.505198	0.333238
C33	C	1.449511	0.838531	0.666571
C34	C	0.695802	0.164441	-0.000085
C35	C	1.029135	0.497775	0.333248
C36	C	1.362469	0.831108	0.666581
C37	C	0.645543	0.236067	-0.000088
C38	C	0.978877	0.569401	0.333245
C39	C	1.312210	0.902734	0.666578
C40	C	0.563758	0.229087	-0.000100
C41	C	0.897092	0.562421	0.333233
C42	C	1.230425	0.895754	0.666566
C43	C	0.532234	0.150481	-0.000103
C44	C	0.865567	0.483814	0.333230
C45	C	1.198901	0.817147	0.666564
C46	C	0.582499	0.078849	-0.000103
C47	C	0.915833	0.412182	0.333231
C48	C	1.249166	0.745516	0.666564
C49	C	0.664282	0.085830	-0.000097
C50	C	0.997616	0.419163	0.333236
C51	C	1.330949	0.752497	0.666570
C52	C	0.288644	0.121548	-0.000125
C53	C	0.621977	0.454881	0.333208
C54	C	0.955310	0.788214	0.666541
C55	C	0.206854	0.114572	-0.000128
C56	C	0.540187	0.447906	0.333205
C57	C	0.873521	0.781239	0.666538
C58	C	0.188119	0.264811	-0.000128
C59	C	0.521452	0.598145	0.333206
C60	C	0.854785	0.931478	0.666539
C61	C	0.269904	0.271785	-0.000117
C62	C	0.603238	0.605119	0.333216
C63	C	0.936571	0.938452	0.666550
C64	C	0.320163	0.200154	-0.000121
C65	C	0.653496	0.533487	0.333212
C66	C	0.986829	0.866820	0.666546
N67	N	0.448637	0.143344	-0.000112
N68	N	0.781970	0.476677	0.333221
N69	N	1.115304	0.810011	0.666554
N70	N	0.403758	0.207291	-0.000118
N71	N	0.737091	0.540624	0.333215
N72	N	1.070425	0.873958	0.666549
C73	C	0.931962	0.023699	-0.000105
C74	C	1.265295	0.357032	0.333228
C75	C	1.598628	0.690365	0.666561
C76	C	0.930439	-0.068698	-0.000096
C77	C	1.263772	0.264635	0.333237
C78	C	1.597105	0.597968	0.666571
C79	C	1.069553	0.178775	-0.000127
C80	C	1.402886	0.512108	0.333207
C81	C	1.736220	0.845442	0.666540
C82	C	1.156595	0.186198	-0.000131
C83	C	1.489929	0.519532	0.333202
C84	C	1.823262	0.852865	0.666535
N85	N	0.926190	0.175314	-0.228287
N86	N	1.259523	0.508647	0.105047
N87	N	1.592857	0.841981	0.438380
C88	C	0.920435	0.326941	-0.000117
C89	C	1.253769	0.660274	0.333216
C90	C	1.587102	0.993608	0.666549
C91	C	0.921959	0.419338	-0.000121
C92	C	1.255292	0.752671	0.333213
C93	C	1.588625	1.086005	0.666546
C94	C	0.854049	0.637079	-0.000100
C95	C	1.187383	0.970412	0.333233
C96	C	1.520716	1.303746	0.666566
C97	C	0.855487	0.723895	-0.000094
C98	C	1.188820	1.057229	0.333240
C99	C	1.522153	1.390562	0.666573
C100	C	0.998353	0.713554	-0.000114
C101	C	1.331687	1.046888	0.333219
C102	C	1.665020	1.380221	0.666553
C103	C	0.996915	0.626740	-0.000114
C104	C	1.330249	0.960073	0.333219
C105	C	1.663582	1.293406	0.666553
C106	C	0.924761	0.588504	-0.000112
C107	C	1.258094	0.921838	0.333222
C108	C	1.591428	1.255171	0.666555
C109	C	0.927636	0.762135	-0.000105
C110	C	1.260970	1.095469	0.333228
C111	C	1.594303	1.428802	0.666562
C112	C	0.929195	0.856265	-0.000098
C113	C	1.262529	1.189599	0.333235
C114	C	1.595862	1.522932	0.666569
C115	C	0.923202	0.494368	-0.000117
C116	C	1.256535	0.827702	0.333216
C117	C	1.589868	1.161035	0.666550
C118	C	0.979531	0.122355	-0.546209
C119	C	1.312864	0.455689	-0.212876
C120	C	1.646197	0.789022	0.120457
C121	C	0.979528	0.122356	-0.454020
C122	C	1.312862	0.455689	-0.120686
C123	C	1.646195	0.789022	0.212647
C124	C	0.872870	0.228284	-0.454022
C125	C	1.206204	0.561617	-0.120688
C126	C	1.539537	0.894951	0.212645
C127	C	0.872877	0.228287	-0.546210
C128	C	1.206210	0.561621	-0.212876
C129	C	1.539544	0.894954	0.120457
C130	C	0.926206	0.175318	-0.592301
C131	C	1.259539	0.508652	-0.258968
C132	C	1.592873	0.841985	0.074366
C133	C	0.926197	0.175315	-0.407923
C134	C	1.259531	0.508648	-0.074590
C135	C	1.592864	0.841982	0.258743
C136	C	0.926195	0.175316	-0.307967
C137	C	1.259528	0.508649	0.025366
C138	C	1.592861	0.841982	0.358699
C139	C	0.926210	0.175319	-0.692264
C140	C	1.259543	0.508652	-0.358930
C141	C	1.592877	0.841985	-0.025597
N142	N	0.926214	0.175319	0.228062
N143	N	1.259547	0.508653	0.561396
N144	N	1.592880	0.841986	0.894729
H145	H	0.147190	0.323129	-0.000126
H146	H	0.480524	0.656463	0.333207
H147	H	0.813857	0.989796	0.666541
Br148	Br	0.759517	0.789815	-0.000070
Br149	Br	1.092850	1.123149	0.333263
Br150	Br	1.426183	1.456482	0.666597
H151	H	1.022956	0.079226	-0.583735
H152	H	1.356289	0.412559	-0.250401
H153	H	1.689622	0.745893	0.082932
Br154	Br	1.051904	0.050479	-0.391468
Br155	Br	1.385237	0.383812	-0.058135
Br156	Br	1.718571	0.717145	0.275199
H157	H	0.556826	0.014846	-0.000117
H158	H	0.890159	0.348179	0.333216
H159	H	1.223492	0.681512	0.666549
Br160	Br	1.096272	0.765450	-0.000119
Br161	Br	1.429606	1.098784	0.333214
Br162	Br	1.762939	1.432117	0.666548
Br163	Br	0.164072	0.007884	-0.000151
Br164	Br	0.497405	0.341218	0.333182
Br165	Br	0.830738	0.674551	0.666516
H166	H	1.054501	0.587188	-0.000120
H167	H	1.387834	0.920522	0.333213
H168	H	1.721167	1.253855	0.666546
Br169	Br	0.800496	0.300166	-0.391466
Br170	Br	1.133829	0.633500	-0.058133
Br171	Br	1.467163	0.966833	0.275201
H172	H	0.829453	0.271420	-0.583740
H173	H	1.162787	0.604754	-0.250407
H174	H	1.496120	0.938087	0.082927
Br175	Br	0.756127	0.585190	-0.000095
Br176	Br	1.089460	0.918524	0.333239
Br177	Br	1.422793	1.251857	0.666572
H178	H	0.671204	0.300077	-0.000085
H179	H	1.004537	0.633411	0.333248
H180	H	1.337870	0.966744	0.666581
Br181	Br	0.495552	0.326299	-0.000101
Br182	Br	0.828886	0.659632	0.333232
Br183	Br	1.162219	0.992966	0.666565
H184	H	0.329554	0.063220	-0.000130
H185	H	0.662888	0.396553	0.333204
H186	H	0.996221	0.729887	0.666537
H187	H	0.705203	0.027504	-0.000094
H188	H	1.038536	0.360837	0.333239
H189	H	1.371870	0.694171	0.666573
H190	H	0.295565	0.335795	-0.000105
H191	H	0.628898	0.669128	0.333229
H192	H	0.962232	1.002462	0.666562
