data_functionalizedCrystal
_audit_creation_method	'MofGen! by Chris Wilmer'
_symmetry_space_group_name_H-M	'P1'
_symmetry_Int_Tables_number	1
_symmetry_cell_setting	triclinic
loop_
_symmetry_equiv_pos_as_xyz
  x,y,z
_cell_length_a	10.908937
_cell_length_b	10.654550
_cell_length_c	9.730223
_cell_angle_alpha	90.004253
_cell_angle_beta	89.994794
_cell_angle_gamma	107.714557
loop_
_atom_site_label
_atom_site_type_symbol
_atom_site_fract_x
_atom_site_fract_y
_atom_site_fract_z
O1	O	1.702113	0.193586	-0.114329
O2	O	1.329124	0.095704	-0.114323
O3	O	1.524194	0.329248	-0.114317
O4	O	1.507043	-0.039959	-0.114334
O5	O	1.524182	0.329251	0.114263
O6	O	1.329111	0.095706	0.114257
O7	O	1.702100	0.193588	0.114251
Zn8	Zn	1.515604	0.144648	0.150546
Zn9	Zn	1.515620	0.144644	-0.150618
O10	O	1.507030	-0.039956	0.114246
C11	C	1.281358	0.086558	-0.000032
C12	C	1.139049	0.059316	-0.000030
C13	C	0.942073	0.130574	-0.000051
C14	C	1.089157	0.158732	-0.000033
C15	C	1.522929	0.375774	-0.000028
C16	C	1.519161	0.514398	-0.000030
C17	C	1.749866	0.202734	-0.000043
C18	C	1.892175	0.229976	-0.000054
C19	C	1.508296	-0.086482	-0.000047
C20	C	1.512064	-0.225106	-0.000054
N21	N	1.515602	0.144653	0.356082
C22	C	1.634015	0.618849	-0.000033
C23	C	1.630467	0.749099	-0.000049
C24	C	1.397201	0.670431	-0.000056
C25	C	1.400750	0.540184	-0.000049
N26	N	1.515633	0.144651	-0.356154
C27	C	1.602009	0.248036	0.428011
C28	C	1.602021	0.248039	0.571894
C29	C	1.429216	0.041262	0.571907
C30	C	1.429199	0.041265	0.428027
H31	H	1.072883	-0.046639	-0.000044
H32	H	0.958346	0.335923	-0.000052
H33	H	1.730433	0.597860	-0.000020
H34	H	1.300794	0.691443	-0.000068
C35	C	1.697066	0.361758	0.651016
H36	H	1.684696	0.346961	0.747010
H37	H	1.782722	0.365958	0.627418
H38	H	1.682397	0.442522	0.627445
H39	H	0.875901	0.024627	-0.000070
H40	H	1.307216	0.455132	-0.000051
H41	H	1.155324	0.264687	-0.000030
H42	H	1.358871	-0.042916	0.630499
C43	C	1.756807	0.863990	-0.000043
H44	H	1.827831	0.829972	-0.000021
H45	H	1.760285	0.916429	-0.079757
H46	H	1.760259	0.916439	0.079675
C47	C	1.334158	-0.072466	0.348894
H48	H	1.346517	-0.057649	0.252901
H49	H	1.348821	-0.153228	0.372456
H50	H	1.248495	-0.076665	0.372490
C51	C	1.697036	0.361766	0.348876
H52	H	1.748489	0.423343	0.412327
H53	H	1.750782	0.327791	0.292726
H54	H	1.650452	0.404349	0.292771
