data_functionalizedCrystal
_audit_creation_method	'MofGen! by Chris Wilmer'
_symmetry_space_group_name_H-M	'P1'
_symmetry_Int_Tables_number	1
_symmetry_cell_setting	triclinic
loop_
_symmetry_equiv_pos_as_xyz
  x,y,z
_cell_length_a	14.519709
_cell_length_b	10.868271
_cell_length_c	14.519709
_cell_angle_alpha	90.001060
_cell_angle_beta	83.680144
_cell_angle_gamma	90.001299
loop_
_atom_site_label
_atom_site_type_symbol
_atom_site_fract_x
_atom_site_fract_y
_atom_site_fract_z
O1	O	1.223867	-0.102145	0.120892
O2	O	0.955390	-0.102180	0.135128
O3	O	1.096747	-0.102173	-0.006228
O4	O	1.082510	-0.102152	0.262248
O5	O	1.096735	0.102472	-0.006234
O6	O	0.955379	0.102464	0.135123
O7	O	1.223856	0.102500	0.120886
Zn8	Zn	1.089615	0.134974	0.128004
Zn9	Zn	1.089631	-0.134654	0.128011
O10	O	1.082499	0.102493	0.262243
C11	C	0.921025	0.000137	0.134462
C12	C	0.818643	0.000123	0.132474
N13	N	1.089612	0.318988	0.127998
N14	N	1.089642	-0.318668	0.128009
C15	C	0.443748	0.000178	0.125154
C16	C	0.548056	0.000162	0.127187
C17	C	0.631192	0.000149	0.128814
C18	C	0.735507	0.000136	0.130847
C19	C	1.258221	0.000180	0.121553
C20	C	1.360602	0.000186	0.123541
C21	C	1.096078	0.000144	-0.040591
C22	C	1.094090	0.000127	-0.142972
C23	C	1.089626	0.569994	0.128009
C24	C	1.089615	0.430317	0.128006
C25	C	1.083168	0.000173	0.296605
C26	C	1.085156	0.000182	0.398987
C27	C	1.092476	0.000134	0.773883
C28	C	1.090443	0.000147	0.669575
C29	C	1.088816	0.000159	0.586438
C30	C	1.086783	0.000170	0.482123
