data_functionalizedCrystal
_audit_creation_method	'MofGen! by Chris Wilmer'
_symmetry_space_group_name_H-M	'P1'
_symmetry_Int_Tables_number	1
_symmetry_cell_setting	triclinic
loop_
_symmetry_equiv_pos_as_xyz
  x,y,z
_cell_length_a	14.519731
_cell_length_b	17.000371
_cell_length_c	12.996460
_cell_angle_alpha	89.993316
_cell_angle_beta	89.994327
_cell_angle_gamma	79.644050
loop_
_atom_site_label
_atom_site_type_symbol
_atom_site_fract_x
_atom_site_fract_y
_atom_site_fract_z
O1	O	1.215191	0.104406	-0.085570
O2	O	1.715191	0.604406	0.414430
O3	O	0.945698	0.116674	-0.085571
O4	O	1.445698	0.616674	0.414429
O5	O	1.097178	-0.005301	-0.085563
O6	O	1.597178	0.494699	0.414437
O7	O	1.063711	0.226381	-0.085578
O8	O	1.563711	0.726381	0.414422
O9	O	1.097164	-0.005308	0.085571
O10	O	1.597164	0.494692	0.585571
O11	O	0.945684	0.116667	0.085563
O12	O	1.445684	0.616667	0.585563
O13	O	1.215177	0.104399	0.085564
O14	O	1.715177	0.604399	0.585564
Cu15	Cu	1.080429	0.110533	0.101189
Cu16	Cu	1.580429	0.610533	0.601189
Cu17	Cu	1.080446	0.110541	-0.101196
Cu18	Cu	1.580446	0.610541	0.398804
O19	O	1.063697	0.226375	0.085556
O20	O	1.563697	0.726375	0.585556
C21	C	0.911379	0.116096	-0.000004
C22	C	1.411379	0.616096	0.499996
C23	C	0.809142	0.114373	-0.000005
C24	C	1.309142	0.614373	0.499995
C25	C	0.726114	0.112974	-0.000009
C26	C	1.226114	0.612974	0.499991
C27	C	0.621951	0.111225	-0.000009
C28	C	1.121951	0.611225	0.499991
C29	C	0.538927	0.109837	-0.000009
C30	C	1.038927	0.609837	0.499991
C31	C	0.434756	0.108088	-0.000011
C32	C	0.934756	0.608088	0.499989
C33	C	1.098968	-0.034956	0.000004
C34	C	1.598968	0.465044	0.500004
C35	C	1.104313	-0.123307	0.000003
C36	C	1.604313	0.376693	0.500003
C37	C	1.022057	-0.155455	-0.000002
C38	C	1.522057	0.344545	0.499998
C39	C	1.027085	-0.238470	0.000000
C40	C	1.527085	0.261530	0.500000
C41	C	1.114370	-0.289336	0.000001
C42	C	1.614370	0.210664	0.500001
C43	C	1.196633	-0.257183	0.000009
C44	C	1.696633	0.242817	0.500009
C45	C	1.191604	-0.174169	0.000014
C46	C	1.691604	0.325831	0.500014
C47	C	1.133795	-0.540453	-0.000006
C48	C	1.633795	-0.040453	0.499994
C49	C	1.138817	-0.623472	-0.000014
C50	C	1.638817	-0.123472	0.499986
C51	C	0.969269	-0.604754	-0.000020
C52	C	1.469269	-0.104754	0.499980
C53	C	0.964248	-0.521739	-0.000022
C54	C	1.464248	-0.021739	0.499978
C55	C	1.046511	-0.489593	-0.000008
C56	C	1.546511	0.010407	0.499992
C57	C	1.119512	-0.374191	0.000001
C58	C	1.619512	0.125809	0.500001
C59	C	1.041368	-0.404739	-0.000001
C60	C	1.541368	0.095261	0.499999
C61	C	1.249495	0.104978	-0.000005
C62	C	1.749495	0.604978	0.499995
C63	C	1.351733	0.106700	-0.000011
C64	C	1.851733	0.606700	0.499989
C65	C	1.061906	0.256029	-0.000013
C66	C	1.561906	0.756029	0.499987
C67	C	1.056561	0.344380	-0.000019
C68	C	1.556561	0.844380	0.499981
N69	N	1.080424	0.110526	0.243536
N70	N	1.580424	0.610526	0.743536
N71	N	1.080459	0.110540	-0.243543
N72	N	1.580459	0.610540	0.256457
C73	C	1.080444	0.110541	0.663351
C74	C	1.580444	0.610541	1.163351
C75	C	1.080436	0.110540	0.546546
C76	C	1.580436	0.610540	1.046546
C77	C	1.080435	0.110535	0.453447
C78	C	1.580435	0.610535	0.953447
C79	C	1.080425	0.110532	0.336635
C80	C	1.580425	0.610532	0.836635
H81	H	0.950980	-0.114044	-0.000008
H82	H	1.450980	0.385956	0.499992
H83	H	0.893172	-0.480328	-0.000025
H84	H	1.393172	0.019672	0.499975
Br85	Br	0.857634	-0.648385	-0.000039
Br86	Br	1.357634	-0.148385	0.499961
Br87	Br	1.315092	-0.326215	0.000026
Br88	Br	1.815092	0.173785	0.500026
Br89	Br	0.915446	-0.282096	-0.000005
Br90	Br	1.415446	0.217904	0.499995
H91	H	1.258585	-0.147996	0.000019
H92	H	1.758585	0.352004	0.500019
Br93	Br	1.257284	-0.692506	-0.000024
Br94	Br	1.757284	-0.192506	0.499976
Br95	Br	1.237967	-0.443230	0.000010
Br96	Br	1.737967	0.056770	0.500010
H97	H	1.200779	-0.514290	0.000002
H98	H	1.700779	-0.014290	0.500002
H99	H	0.970301	-0.363320	0.000005
H100	H	1.470301	0.136680	0.500005
