data_functionalizedCrystal
_audit_creation_method	'MofGen! by Chris Wilmer'
_symmetry_space_group_name_H-M	'P1'
_symmetry_Int_Tables_number	1
_symmetry_cell_setting	triclinic
loop_
_symmetry_equiv_pos_as_xyz
  x,y,z
_cell_length_a	12.594517
_cell_length_b	12.594516
_cell_length_c	19.076919
_cell_angle_alpha	87.724265
_cell_angle_beta	87.720211
_cell_angle_gamma	90.011248
loop_
_atom_site_label
_atom_site_type_symbol
_atom_site_fract_x
_atom_site_fract_y
_atom_site_fract_z
Zn1	Zn	1.603080	-0.447962	0.397993
Zn2	Zn	1.610145	-0.618805	0.280307
Zn3	Zn	1.432245	-0.440840	0.280310
Zn4	Zn	1.425081	-0.625895	0.397960
O5	O	1.517638	-0.533375	0.339143
O6	O	1.752962	-0.470638	0.382395
O7	O	1.592501	-0.589251	0.181818
O8	O	1.454948	-0.292840	0.295935
O9	O	1.758153	-0.596156	0.295931
O10	O	1.580459	-0.298072	0.382397
O11	O	1.461799	-0.458500	0.181820
O12	O	1.282349	-0.465374	0.295903
O13	O	1.442738	-0.608239	0.496454
O14	O	1.277086	-0.601333	0.382341
O15	O	1.573513	-0.477512	0.496478
O16	O	1.585555	-0.768691	0.295899
O17	O	1.449589	-0.773899	0.382338
C18	C	1.241098	-0.533351	0.339119
C19	C	1.122792	-0.533367	0.339126
C20	C	0.985601	-0.459347	0.292220
C21	C	1.052549	-0.437325	0.356443
C22	C	1.057415	-0.555342	0.274909
C23	C	0.978950	-0.511341	0.403435
C24	C	0.983812	-0.629401	0.321857
C25	C	1.050726	-0.607418	0.386125
C26	C	1.517589	-0.809916	0.339130
C27	C	1.517664	-0.928222	0.339149
C28	C	1.591695	-0.994607	0.292185
C29	C	1.613797	-1.069215	0.356424
C30	C	1.495693	-1.064415	0.274950
C31	C	1.539813	-1.001274	0.403422
C32	C	1.421667	-0.996465	0.321904
C33	C	1.443729	-1.071045	0.386188
C34	C	1.795257	-0.533401	0.339167
C35	C	1.913562	-0.533412	0.339177
C36	C	1.506538	-0.544461	0.522717
C37	C	1.501808	-0.549185	0.600946
C38	C	1.517714	-0.255756	0.339170
C39	C	1.517747	-0.137452	0.339182
C40	C	1.528755	-0.522256	0.156282
C41	C	1.533691	-0.517233	0.078054
C42	C	1.567670	-0.483345	0.637711
C43	C	1.563212	-0.487779	0.711215
C44	C	1.492898	-0.558060	0.747952
C45	C	1.427029	-0.623903	0.711181
C46	C	1.431482	-0.619462	0.637679
C47	C	1.472275	-0.578634	0.967780
C48	C	1.467830	-0.583072	1.041288
C49	C	1.604012	-0.446947	1.041317
C50	C	1.608463	-0.442517	0.967813
C51	C	1.542590	-0.508356	0.931049
N52	N	1.488343	-0.562597	0.823085
N53	N	1.547141	-0.503813	0.855917
H54	H	0.956912	-0.396690	0.252581
H55	H	1.082757	-0.356127	0.371084
C56	C	1.565102	-0.963822	0.476804
H57	H	1.564956	-0.888365	0.476337
H58	H	1.512861	-0.990632	0.510204
H59	H	1.633112	-0.989350	0.489135
C60	C	1.311982	-0.953300	0.302156
H61	H	1.282412	-0.914072	0.339694
H62	H	1.319567	-0.908271	0.261120
H63	H	1.266288	-1.010936	0.293477
C64	C	0.932744	-0.486123	0.476849
H65	H	0.857341	-0.486256	0.476413
H66	H	0.955536	-0.538402	0.510213
H67	H	0.956838	-0.418133	0.489205
H68	H	1.079214	-0.670036	0.425859
C69	C	1.723509	-1.112351	0.376153
H70	H	1.776004	-1.086111	0.342728
H71	H	1.739656	-1.089768	0.421448
H72	H	1.722557	-1.187791	0.376438
H73	H	1.418652	-0.632261	0.937856
C74	C	1.359202	-1.116009	0.439918
H75	H	1.375016	-1.094352	0.485493
H76	H	1.291163	-1.090025	0.428046
H77	H	1.359300	-1.191401	0.439372
C78	C	1.470533	-1.102049	0.201590
H79	H	1.523171	-1.075794	0.168270
H80	H	1.470099	-1.177504	0.202228
H81	H	1.402813	-1.076042	0.189006
C82	C	0.942936	-0.739050	0.302065
H83	H	0.969857	-0.754542	0.256381
H84	H	0.966243	-0.791797	0.334936
H85	H	0.867479	-0.738446	0.302648
C86	C	1.103796	-0.580437	0.201517
H87	H	1.081550	-0.527763	0.168232
H88	H	1.179177	-0.580886	0.202122
H89	H	1.079251	-0.648137	0.188911
C90	C	1.635685	-0.415384	0.751658
H91	H	1.622964	-0.428091	0.800695
H92	H	1.707916	-0.430266	0.739613
H93	H	1.620877	-0.343129	0.739624
H94	H	1.624931	-0.426118	0.607805
H95	H	1.654309	-0.961140	0.252504
C96	C	1.685810	-0.365209	0.927407
H97	H	1.724393	-0.326626	0.959832
H98	H	1.733908	-0.404201	0.898737
H99	H	1.646841	-0.317092	0.898733
C100	C	1.676457	-0.374524	1.081759
H101	H	1.663732	-0.387225	1.130796
H102	H	1.748697	-0.389376	1.069721
H103	H	1.661619	-0.302277	1.069718
C104	C	1.390477	-0.660382	1.081698
H105	H	1.351877	-0.698951	1.049276
H106	H	1.429443	-0.708495	1.110370
H107	H	1.342379	-0.621383	1.110371
H108	H	1.369773	-0.681123	0.741099
C109	C	1.359060	-0.691912	0.597236
H110	H	1.316559	-0.734419	0.629642
H111	H	1.314426	-0.649481	0.568553
H112	H	1.401527	-0.736557	0.568572
