data_functionalizedCrystal
_audit_creation_method	'MofGen! by Chris Wilmer'
_symmetry_space_group_name_H-M	'P1'
_symmetry_Int_Tables_number	1
_symmetry_cell_setting	triclinic
loop_
_symmetry_equiv_pos_as_xyz
  x,y,z
_cell_length_a	12.759394
_cell_length_b	10.685976
_cell_length_c	10.686551
_cell_angle_alpha	89.651515
_cell_angle_beta	85.593446
_cell_angle_gamma	85.651593
loop_
_atom_site_label
_atom_site_type_symbol
_atom_site_fract_x
_atom_site_fract_y
_atom_site_fract_z
Zn1	Zn	-0.508034	1.972206	-0.561873
Zn2	Zn	-0.696121	1.955978	-0.352115
Zn3	Zn	-0.506061	1.746334	-0.368248
Zn4	Zn	-0.669270	1.762416	-0.577943
O5	O	-0.594871	1.859233	-0.465045
O6	O	-0.545047	2.145588	-0.520571
O7	O	-0.681321	1.914646	-0.178713
O8	O	-0.359303	1.776358	-0.393959
O9	O	-0.683234	2.133665	-0.366463
O10	O	-0.360753	1.942305	-0.536215
O11	O	-0.541684	1.760622	-0.190566
O12	O	-0.515648	1.572933	-0.409542
O13	O	-0.637470	1.803767	-0.751353
O14	O	-0.635557	1.584748	-0.563603
O15	O	-0.519010	1.957899	-0.739547
O16	O	-0.839578	1.930240	-0.382045
O17	O	-0.819851	1.788031	-0.547960
C18	C	-0.572475	1.533326	-0.490067
C19	C	-0.562917	1.393904	-0.500802
C20	C	-0.867835	1.859156	-0.465020
C21	C	-0.984616	1.859240	-0.465043
C22	C	-1.005106	2.007452	-0.292387
C23	C	-1.070213	2.081592	-0.206071
C24	C	-1.179938	2.081668	-0.206100
C25	C	-1.224557	2.007600	-0.292455
C26	C	-1.159450	1.933460	-0.378771
C27	C	-1.049724	1.933389	-0.378731
C28	C	-1.138960	1.785257	-0.551431
C29	C	-1.029235	1.785172	-0.551399
C30	C	-1.183579	1.711188	-0.637787
C31	C	-1.118471	1.637039	-0.724099
C32	C	-1.008740	1.636965	-0.724066
C33	C	-0.964128	1.711032	-0.637714
C34	C	-0.320842	1.859348	-0.465094
C35	C	-0.204067	1.859396	-0.465115
C36	C	-0.575465	1.884437	-0.792239
C37	C	-0.567195	1.895177	-0.931669
C38	C	-0.617356	2.186413	-0.439925
C39	C	-0.626937	2.325838	-0.429220
C40	C	-0.614131	1.834200	-0.139118
C41	C	-0.622122	1.823703	0.000331
H42	H	-0.689070	1.374232	-0.359722
O43	O	-0.685867	1.740871	-0.942069
C44	C	-0.735256	1.676555	-1.033286
H45	H	-0.736937	1.735043	-1.122778
H46	H	-0.819342	1.660262	-0.996350
H47	H	-0.689429	1.582355	-1.054491
O48	O	-0.898541	2.007558	-0.292216
C49	C	-0.873120	2.088797	-0.197467
H50	H	-0.942377	2.160796	-0.174344
H51	H	-0.800680	2.139232	-0.231672
H52	H	-0.855745	2.032056	-0.109771
H53	H	-0.500797	1.345517	-0.570306
O54	O	-0.503415	1.977810	-0.989529
C55	C	-0.426226	1.912193	-1.070843
H56	H	-0.415270	1.810388	-1.038868
H57	H	-0.348394	1.957714	-1.068987
H58	H	-0.452594	1.915420	-1.170425
O59	O	-0.945346	1.565059	-0.807866
C60	C	-0.838930	1.580841	-0.789305
H61	H	-0.832970	1.674502	-0.740848
H62	H	-0.791038	1.579475	-0.883908
H63	H	-0.806732	1.501309	-0.728153
H64	H	-1.033875	2.141901	-0.135763
O65	O	-1.243035	2.153717	-0.122134
C66	C	-1.180133	2.219104	-0.045932
H67	H	-1.098683	2.167346	-0.045467
H68	H	-1.218655	2.224963	0.053916
H69	H	-1.172196	2.317876	-0.084623
H70	H	-1.313901	2.007680	-0.292481
O71	O	-1.290160	1.711393	-0.638013
C72	C	-1.321819	1.752782	-0.755816
H73	H	-1.259202	1.811386	-0.803497
H74	H	-1.399848	1.812299	-0.742280
H75	H	-1.332008	1.668133	-0.816927
O76	O	-1.161765	1.565247	-0.808146
C77	C	-1.129318	1.602160	-0.931086
H78	H	-1.105574	1.702833	-0.929789
H79	H	-1.197041	1.596143	-0.993908
H80	H	-1.059105	1.537353	-0.968972
O81	O	-0.857556	1.710939	-0.637450
C82	C	-0.825891	1.669492	-0.519668
H83	H	-0.894898	1.685445	-0.445798
H84	H	-0.757664	1.724328	-0.493039
H85	H	-0.799504	1.565191	-0.524923
