data_functionalizedCrystal
_audit_creation_method	'MofGen! by Chris Wilmer'
_symmetry_space_group_name_H-M	'P1'
_symmetry_Int_Tables_number	1
_symmetry_cell_setting	triclinic
loop_
_symmetry_equiv_pos_as_xyz
  x,y,z
_cell_length_a	21.395362
_cell_length_b	21.395361
_cell_length_c	21.395356
_cell_angle_alpha	90.030681
_cell_angle_beta	90.047076
_cell_angle_gamma	90.048968
loop_
_atom_site_label
_atom_site_type_symbol
_atom_site_fract_x
_atom_site_fract_y
_atom_site_fract_z
Zn1	Zn	-0.957854	0.249149	-0.354641
Zn2	Zn	-0.457854	0.749149	0.145359
Zn3	Zn	-0.957758	0.353926	-0.249858
Zn4	Zn	-0.457758	0.853926	0.250142
Zn5	Zn	-0.853070	0.249199	-0.249835
Zn6	Zn	-0.353070	0.749199	0.250165
Zn7	Zn	-0.853038	0.353926	-0.354555
Zn8	Zn	-0.353038	0.853926	0.145445
O9	O	-0.905430	0.301550	-0.302222
O10	O	-0.405430	0.801550	0.197778
O11	O	-1.045519	0.263027	-0.340787
O12	O	-0.545519	0.763027	0.159213
O13	O	-0.943844	0.340054	-0.162177
O14	O	-0.443844	0.840054	0.337823
O15	O	-0.867024	0.161515	-0.263764
O16	O	-0.367024	0.661515	0.236236
O17	O	-1.045449	0.340005	-0.263803
O18	O	-0.545449	0.840005	0.236197
O19	O	-0.944008	0.161478	-0.340765
O20	O	-0.444008	0.661478	0.159235
O21	O	-0.866931	0.263112	-0.162160
O22	O	-0.366931	0.763112	0.337840
O23	O	-0.765388	0.263113	-0.263681
O24	O	-0.265388	0.763113	0.236319
O25	O	-0.866968	0.340006	-0.442245
O26	O	-0.366968	0.840006	0.057755
O27	O	-0.765364	0.340055	-0.340618
O28	O	-0.265364	0.840055	0.159382
O29	O	-0.943976	0.263027	-0.442308
O30	O	-0.443976	0.763027	0.057692
O31	O	-0.943813	0.441604	-0.263720
O32	O	-0.443813	0.941604	0.236280
O33	O	-0.866875	0.441604	-0.340641
O34	O	-0.366875	0.941604	0.159359
C35	C	-0.742642	0.301590	-0.302138
C36	C	-0.242642	0.801590	0.197862
C37	C	-0.673001	0.301622	-0.302117
C38	C	-0.173001	0.801622	0.197883
C39	C	-0.640292	0.341740	-0.342116
C40	C	-0.140292	0.841740	0.157884
C41	C	-0.574856	0.341728	-0.342139
C42	C	-0.074856	0.841728	0.157861
C43	C	-0.542133	0.301603	-0.302152
C44	C	-0.042133	0.801603	0.197848
C45	C	-0.574850	0.261477	-0.262150
C46	C	-0.074850	0.761477	0.237850
C47	C	-0.640284	0.261487	-0.262133
C48	C	-0.140284	0.761487	0.237867
C49	C	-0.438409	0.296569	-0.245740
C50	C	0.061591	0.796569	0.254260
C51	C	-0.372976	0.296564	-0.245756
C52	C	0.127024	0.796564	0.254244
C53	C	-0.340312	0.301571	-0.302207
C54	C	0.159688	0.801571	0.197793
C55	C	-0.373089	0.306596	-0.358643
C56	C	0.126911	0.806596	0.141357
C57	C	-0.438523	0.306605	-0.358625
C58	C	0.061477	0.806605	0.141375
C59	C	-0.471180	0.301588	-0.302167
C60	C	0.028820	0.801588	0.197833
C61	C	-0.236650	0.341678	-0.342235
C62	C	0.263350	0.841678	0.157765
C63	C	-0.171214	0.341661	-0.342259
C64	C	0.328786	0.841661	0.157741
C65	C	-0.171208	0.261413	-0.262264
C66	C	0.328792	0.761413	0.237736
C67	C	-0.236644	0.261427	-0.262246
C68	C	0.263356	0.761427	0.237754
C69	C	-0.269361	0.301563	-0.302230
C70	C	0.230639	0.801563	0.197770
C71	C	-0.905347	0.464338	-0.302187
C72	C	-0.405347	0.964338	0.197813
C73	C	-0.905369	0.533979	-0.302194
C74	C	-0.405369	1.033979	0.197806
C75	C	-0.068853	0.301521	-0.302289
C76	C	0.431147	0.801521	0.197711
C77	C	-0.138494	0.301535	-0.302272
C78	C	0.361506	0.801535	0.197728
C79	C	-0.905479	0.301511	-0.465646
C80	C	-0.405479	0.801511	0.034354
C81	C	-0.905500	0.301495	-0.535287
C82	C	-0.405500	0.801495	-0.035287
C83	C	-0.905530	0.138127	-0.302271
C84	C	-0.405530	0.638127	0.197729
C85	C	-0.905573	0.068485	-0.302292
C86	C	-0.405573	0.568485	0.197708
C87	C	-0.945466	0.566671	-0.262182
C88	C	-0.445466	1.066671	0.237818
C89	C	-0.945495	0.632106	-0.262196
C90	C	-0.445495	1.132106	0.237804
C91	C	-0.905416	0.664847	-0.302215
C92	C	-0.405416	1.164847	0.197785
C93	C	-0.865317	0.632147	-0.342234
C94	C	-0.365317	1.132147	0.157766
C95	C	-0.865293	0.566713	-0.342224
C96	C	-0.365293	1.066713	0.157776
C97	C	-0.849001	0.768580	-0.307102
C98	C	-0.349001	1.268580	0.192898
C99	C	-0.849024	0.834012	-0.307108
C100	C	-0.349024	1.334012	0.192892
C101	C	-0.905489	0.866668	-0.302252
C102	C	-0.405489	1.366668	0.197748
C103	C	-0.961934	0.833882	-0.297376
C104	C	-0.461934	1.333882	0.202624
C105	C	-0.961910	0.768448	-0.297365
C106	C	-0.461910	1.268448	0.202635
C107	C	-0.905438	0.735799	-0.302231
C108	C	-0.405438	1.235799	0.197769
C109	C	-0.945621	0.970312	-0.262253
C110	C	-0.445621	1.470312	0.237747
C111	C	-0.945651	1.035749	-0.262272
C112	C	-0.445651	1.535749	0.237728
C113	C	-0.865467	1.035789	-0.342307
C114	C	-0.365467	1.535789	0.157693
C115	C	-0.865443	0.970353	-0.342292
C116	C	-0.365443	1.470353	0.157708
C117	C	-0.905519	0.937619	-0.302262
C118	C	-0.405519	1.437619	0.197738
C119	C	-0.865462	0.261426	-0.567981
C120	C	-0.365462	0.761426	-0.067981
C121	C	-0.865460	0.261415	-0.633417
C122	C	-0.365460	0.761415	-0.133417
C123	C	-0.905507	0.301465	-0.666155
C124	C	-0.405507	0.801465	-0.166155
C125	C	-0.945548	0.341541	-0.633453
C126	C	-0.445548	0.841541	-0.133453
C127	C	-0.945545	0.341556	-0.568019
C128	C	-0.445545	0.841556	-0.068019
C129	C	-0.961959	0.306373	-0.769865
C130	C	-0.461959	0.806373	-0.269865
C131	C	-0.961964	0.306353	-0.835298
C132	C	-0.461964	0.806353	-0.335298
C133	C	-0.905517	0.301422	-0.867976
C134	C	-0.405517	0.801422	-0.367976
C135	C	-0.849065	0.296498	-0.835214
C136	C	-0.349065	0.796498	-0.335214
C137	C	-0.849062	0.296513	-0.769780
C138	C	-0.349062	0.796513	-0.269780
C139	C	-0.905515	0.301453	-0.737108
C140	C	-0.405515	0.801453	-0.237108
C141	C	-0.865474	0.261340	-0.971623
C142	C	-0.365474	0.761340	-0.471623
C143	C	-0.865470	0.261332	-1.037060
C144	C	-0.365470	0.761332	-0.537060
C145	C	-0.945564	0.341455	-1.037095
C146	C	-0.445564	0.841455	-0.537095
C147	C	-0.945562	0.341465	-0.971660
C148	C	-0.445562	0.841465	-0.471660
C149	C	-0.905517	0.301404	-0.938928
C150	C	-0.405517	0.801404	-0.438928
C151	C	-0.905417	0.301543	-0.139435
C152	C	-0.405417	0.801543	0.360565
C153	C	-0.905517	0.301383	-0.069794
C154	C	-0.405517	0.801383	0.430206
H155	H	-0.465208	0.310694	-0.404577
H156	H	0.034792	0.810694	0.095423
H157	H	-0.978155	0.374150	-0.660113
H158	H	-0.478155	0.874150	-0.160113
N159	N	-0.988730	0.384775	-0.532752
N160	N	-0.488730	0.884775	-0.032752
H161	H	-1.014099	0.410147	-0.563419
H162	H	-0.514099	0.910147	-0.063419
H163	H	-1.017741	0.359269	-0.505635
H164	H	-0.517741	0.859269	-0.005635
H165	H	-0.803017	0.741998	-0.311059
H166	H	-0.303017	1.241998	0.188941
N167	N	-0.822090	0.667456	-0.385400
N168	N	-0.322090	1.167456	0.114600
H169	H	-0.828187	0.713869	-0.379334
H170	H	-0.328187	1.213869	0.120666
H171	H	-0.777343	0.656078	-0.375588
H172	H	-0.277343	1.156078	0.124412
H173	H	-0.832867	0.228720	-0.944972
H174	H	-0.332867	0.728720	-0.444972
H175	H	-0.666926	0.374421	-0.374675
H176	H	-0.166926	0.874421	0.125325
N177	N	-1.022841	0.869093	-0.292138
N178	N	-0.522841	1.369093	0.207862
H179	H	-1.044175	0.857710	-0.251614
H180	H	-0.544175	1.357710	0.248386
H181	H	-1.014244	0.915508	-0.292915
H182	H	-0.514244	1.415508	0.207085
H183	H	-0.978149	0.658729	-0.229614
H184	H	-0.478149	1.158729	0.270386
N185	N	-0.675565	0.218221	-0.218981
N186	N	-0.175565	0.718221	0.281019
H187	H	-0.721983	0.224318	-0.225035
H188	H	-0.221983	0.724318	0.274965
H189	H	-0.664187	0.173483	-0.228818
H190	H	-0.164187	0.673483	0.271182
N191	N	-0.822279	0.218119	-1.072327
N192	N	-0.322279	0.718119	-0.572327
H193	H	-0.796914	0.192744	-1.041659
H194	H	-0.296914	0.692744	-0.541659
H195	H	-0.847803	0.189114	-1.099508
H196	H	-0.347803	0.689114	-0.599508
H197	H	-0.978255	0.943659	-0.229660
H198	H	-0.478255	1.443659	0.270340
H199	H	-0.263276	0.228761	-0.229671
H200	H	0.236724	0.728761	0.270329
N201	N	-0.539566	0.384998	-0.385284
N202	N	-0.039566	0.884998	0.114716
H203	H	-0.570222	0.410424	-0.410611
H204	H	-0.070222	0.910424	0.089389
H205	H	-0.512361	0.413953	-0.359728
H206	H	-0.012361	0.913953	0.140272
N207	N	-0.988699	0.531365	-0.219019
N208	N	-0.488699	1.031365	0.280981
H209	H	-0.979000	0.542795	-0.174239
H210	H	-0.479000	1.042795	0.325761
H211	H	-1.033445	0.542712	-0.228871
H212	H	-0.533445	1.042712	0.271129
N213	N	-0.271944	0.384962	-0.385359
N214	N	0.228056	0.884962	0.114641
H215	H	-0.241291	0.410372	-0.410707
H216	H	0.258709	0.910372	0.089293
H217	H	-0.299153	0.359500	-0.414393
H218	H	0.200847	0.859500	0.085607
H219	H	-0.978307	1.062366	-0.229691
H220	H	-0.478307	1.562366	0.270309
H221	H	-0.978173	0.374063	-1.063750
H222	H	-0.478173	0.874063	-0.563750
N223	N	-0.822237	1.071087	-0.385475
N224	N	-0.322237	1.571087	0.114525
H225	H	-0.847695	1.098184	-0.414550
H226	H	-0.347695	1.598184	0.085450
H227	H	-0.793231	1.098254	-0.359937
H228	H	-0.293231	1.598254	0.140063
H229	H	-0.832789	0.943734	-0.374870
H230	H	-0.332789	1.443734	0.125130
N231	N	-0.788148	0.869372	-0.312357
N232	N	-0.288148	1.369372	0.187643
H233	H	-0.752374	0.838757	-0.315438
H234	H	-0.252374	1.338757	0.184562
H235	H	-0.789039	0.896496	-0.350966
H236	H	-0.289039	1.396496	0.149034
N237	N	-0.988752	0.384672	-0.936387
N238	N	-0.488752	0.884672	-0.436387
H239	H	-0.963270	0.413719	-0.909209
H240	H	-0.463270	0.913719	-0.409209
H241	H	-1.014117	0.410002	-0.967089
H242	H	-0.514117	0.910002	-0.467089
N243	N	-0.822043	0.531447	-0.385379
N244	N	-0.322043	1.031447	0.114621
H245	H	-0.796657	0.562115	-0.410736
H246	H	-0.296657	1.062115	0.089264
H247	H	-0.793050	0.504354	-0.359830
H248	H	-0.293050	1.004354	0.140170
H249	H	-0.346495	0.310671	-0.404610
H250	H	0.153505	0.810671	0.095390
H251	H	-1.007931	0.310360	-0.861968
H252	H	-0.507931	0.810360	-0.361968
N253	N	-0.822273	0.218212	-0.532687
N254	N	-0.322273	0.718212	-0.032687
H255	H	-0.777500	0.227946	-0.544039
H256	H	-0.277500	0.727946	-0.044039
H257	H	-0.828395	0.224312	-0.486283
H258	H	-0.328395	0.724312	0.013717
N259	N	-0.135931	0.384935	-0.385401
N260	N	0.364069	0.884935	0.114599
H261	H	-0.166589	0.410363	-0.410723
H262	H	0.333411	0.910363	0.089277
H263	H	-0.108726	0.413887	-0.359842
H264	H	0.391274	0.913887	0.140158
H265	H	-1.007928	0.310383	-0.743263
H266	H	-0.507928	0.810383	-0.243263
N267	N	-0.135926	0.218136	-0.219131
N268	N	0.364074	0.718136	0.280869
H269	H	-0.147370	0.173384	-0.228942
H270	H	0.352630	0.673384	0.271058
H271	H	-0.089520	0.224268	-0.225229
H272	H	0.410480	0.724268	0.274771
N273	N	-0.788172	0.291191	-0.870441
N274	N	-0.288172	0.791191	-0.370441
H275	H	-0.760120	0.327433	-0.859005
H276	H	-0.260120	0.827433	-0.359005
H277	H	-0.766924	0.250631	-0.859035
H278	H	-0.266924	0.750631	-0.359035
H279	H	-0.346294	0.292477	-0.199803
H280	H	0.153706	0.792477	0.300197
H281	H	-0.464998	0.292490	-0.199768
H282	H	0.035002	0.792490	0.300232
N283	N	-0.822274	0.218198	-0.668691
N284	N	-0.322274	0.718198	-0.168691
H285	H	-0.796905	0.192823	-0.638026
H286	H	-0.296905	0.692823	-0.138026
H287	H	-0.847803	0.189194	-0.695868
H288	H	-0.347803	0.689194	-0.195868
N289	N	-0.788180	0.291194	-0.734442
N290	N	-0.288180	0.791194	-0.234442
H291	H	-0.752420	0.288064	-0.765068
H292	H	-0.252420	0.788064	-0.265068
H293	H	-0.782334	0.329374	-0.707273
H294	H	-0.282334	0.829374	-0.207273
N295	N	-0.539558	0.218208	-0.219014
N296	N	-0.039558	0.718208	0.280986
H297	H	-0.512459	0.189204	-0.244531
H298	H	-0.012459	0.689204	0.255469
H299	H	-0.512394	0.243683	-0.189949
H300	H	-0.012394	0.743683	0.310051
N301	N	-1.022784	0.733085	-0.292109
N302	N	-0.522784	1.233085	0.207891
H303	H	-1.058560	0.763696	-0.289034
H304	H	-0.558560	1.263696	0.210966
H305	H	-1.028569	0.705903	-0.330288
H306	H	-0.528569	1.205903	0.169712
