data_functionalizedCrystal
_audit_creation_method	'MofGen! by Chris Wilmer'
_symmetry_space_group_name_H-M	'P1'
_symmetry_Int_Tables_number	1
_symmetry_cell_setting	triclinic
loop_
_symmetry_equiv_pos_as_xyz
  x,y,z
_cell_length_a	15.995350
_cell_length_b	10.540510
_cell_length_c	9.016244
_cell_angle_alpha	89.992396
_cell_angle_beta	89.999993
_cell_angle_gamma	84.002843
loop_
_atom_site_label
_atom_site_type_symbol
_atom_site_fract_x
_atom_site_fract_y
_atom_site_fract_z
O1	O	0.117876	1.684295	-0.123341
O2	O	0.129019	1.314724	-0.123342
O3	O	0.001620	1.509612	-0.123340
O4	O	0.245275	1.489407	-0.123343
O5	O	0.001622	1.509583	0.123341
O6	O	0.129022	1.314695	0.123339
O7	O	0.117878	1.684266	0.123339
Cu8	Cu	0.123451	1.499478	0.145863
Cu9	Cu	0.123447	1.499512	-0.145865
O10	O	0.245278	1.489378	0.123338
C11	C	0.128190	1.267417	-0.000001
C12	C	0.125706	1.126502	-0.000002
C13	C	0.214210	0.907830	-0.000569
C14	C	0.216860	1.054389	-0.000005
C15	C	0.079045	1.082367	0.140862
C16	C	0.077041	0.935634	0.140971
C17	C	0.075139	0.935886	-0.139551
C18	C	0.079463	1.082168	-0.141404
C19	C	-0.029579	1.508762	-0.000003
C20	C	-0.122544	1.506258	-0.000011
C21	C	-0.460345	1.497265	-0.000006
C22	C	-0.413731	1.358469	-0.000559
C23	C	-0.317026	1.360974	-0.000003
C24	C	-0.292758	1.501726	-0.000009
C25	C	-0.333429	1.570168	0.140855
C26	C	-0.430085	1.566682	0.140973
C27	C	-0.430430	1.569581	-0.139549
C28	C	-0.333485	1.569548	-0.141411
C29	C	-0.198045	1.504254	-0.000006
C30	C	-0.555057	1.494740	0.000001
C31	C	0.276477	1.490228	-0.000003
C32	C	0.369442	1.492732	-0.000004
C33	C	0.118707	1.731573	-0.000004
C34	C	0.121192	1.872489	-0.000014
N35	N	0.123452	1.499464	0.351049
N36	N	0.123439	1.499537	-0.351052
C37	C	0.191374	1.394898	0.586081
C38	C	0.191629	1.395124	0.414190
C39	C	0.143318	1.631916	0.413387
C40	C	0.143799	1.631343	0.585332
C41	C	0.035442	1.472899	0.585594
C42	C	0.036013	1.469846	0.413640
H43	H	0.253588	1.082276	0.101141
Br44	Br	-0.482835	1.736516	0.151637
Br45	Br	0.010911	1.307450	0.345741
H46	H	-0.015123	1.549207	0.626247
H47	H	-0.432591	1.303006	-0.101576
H48	H	0.111452	1.112764	0.245693
Br49	Br	0.003940	1.315402	0.657956
Br50	Br	-0.447330	1.266130	0.166357
H51	H	-0.305327	1.522608	0.245685
H52	H	-0.318692	1.673574	0.146089
Br53	Br	0.123056	0.864345	-0.317507
H54	H	-0.289480	1.306787	0.101146
Br55	Br	-0.031463	1.165465	-0.155581
H56	H	0.206792	1.655942	0.370309
Br57	Br	0.277706	1.102491	-0.168308
H58	H	-0.016970	1.541102	0.370664
Br59	Br	-0.461083	1.483454	0.316479
H60	H	0.179606	1.296133	0.627475
Br61	Br	0.250802	1.670466	0.652158
Br62	Br	0.273405	0.837114	-0.168949
H63	H	0.256291	1.411673	0.629273
H64	H	0.256915	1.412126	0.373043
H65	H	0.113413	1.110331	-0.245614
Br66	Br	-0.306865	1.740628	-0.155610
Br67	Br	0.064441	1.764889	0.654650
H68	H	0.249519	0.863826	0.099879
H69	H	0.006701	0.914673	-0.140502
Br70	Br	-0.270181	1.271302	-0.168306
Br71	Br	0.063097	1.764790	0.345227
Br72	Br	-0.288020	1.486845	-0.315128
Br73	Br	-0.032809	1.162868	0.149593
Br74	Br	-0.465100	1.493956	-0.317504
H75	H	0.108931	0.894967	0.246268
H76	H	0.008863	0.913575	0.147371
H77	H	-0.461586	1.671915	-0.140500
Br78	Br	0.171766	1.231003	0.343938
