data_functionalizedCrystal
_audit_creation_method	'MofGen! by Chris Wilmer'
_symmetry_space_group_name_H-M	'P1'
_symmetry_Int_Tables_number	1
_symmetry_cell_setting	triclinic
loop_
_symmetry_equiv_pos_as_xyz
  x,y,z
_cell_length_a	19.121102
_cell_length_b	10.686285
_cell_length_c	10.685880
_cell_angle_alpha	90.361115
_cell_angle_beta	83.363106
_cell_angle_gamma	96.989635
loop_
_atom_site_label
_atom_site_type_symbol
_atom_site_fract_x
_atom_site_fract_y
_atom_site_fract_z
Zn1	Zn	1.133523	0.646816	-0.750751
Zn2	Zn	1.132087	0.840435	-0.524823
Zn3	Zn	1.005592	0.620298	-0.532003
Zn4	Zn	1.023625	0.847500	-0.726917
O5	O	1.073707	0.738762	-0.633624
O6	O	1.232263	0.680641	-0.727751
O7	O	1.107160	0.797179	-0.349651
O8	O	1.015616	0.447700	-0.574001
O9	O	1.231209	0.822892	-0.561762
O10	O	1.109606	0.467183	-0.734714
O11	O	1.014225	0.635445	-0.354927
O12	O	0.909053	0.642295	-0.550889
O13	O	1.046351	0.834933	-0.906203
O14	O	0.922302	0.809220	-0.694092
O15	O	1.127092	0.687491	-0.923714
O16	O	1.124646	1.017488	-0.538651
O17	O	1.044959	1.022678	-0.687129
C18	C	0.890026	0.723648	-0.620684
C19	C	0.811449	0.717214	-0.615176
C20	C	1.086624	1.065751	-0.609553
C21	C	1.092216	1.205647	-0.599302
C22	C	1.088893	0.764958	-0.961902
C23	C	1.095365	0.776121	-1.101795
C24	C	0.781449	0.801212	-0.687011
C25	C	0.707617	0.795151	-0.681843
C26	C	0.663787	0.705097	-0.604833
C27	C	0.693792	0.621091	-0.532995
C28	C	0.767622	0.627147	-0.538171
C29	C	0.440520	0.682453	-0.585488
C30	C	0.366685	0.676406	-0.580315
C31	C	0.380515	0.850465	-0.729166
C32	C	0.454347	0.856518	-0.734329
C33	C	0.484345	0.772507	-0.662496
C34	C	0.588319	0.698902	-0.599545
C35	C	0.559812	0.778697	-0.667791
C36	C	1.258105	0.753937	-0.646614
C37	C	1.336685	0.760403	-0.652150
C38	C	1.060760	0.410500	-0.657817
C39	C	1.055243	0.270614	-0.668127
C40	C	1.058617	0.712581	-0.306632
C41	C	1.052268	0.701074	-0.166775
H42	H	0.817131	0.874547	-0.749717
H43	H	1.010415	0.628285	-1.115384
H44	H	1.128146	1.257056	-0.532522
H45	H	1.137218	0.848920	-1.153192
C46	C	0.800624	0.534749	-0.459149
C47	C	0.848946	0.585392	-0.359803
C48	C	0.881945	0.492985	-0.280783
C49	C	0.866623	0.349935	-0.301110
C50	C	0.818299	0.299284	-0.400461
C51	C	0.785299	0.391691	-0.479480
H52	H	0.860290	0.691293	-0.344751
H53	H	0.917718	0.530481	-0.207237
H54	H	0.891052	0.281529	-0.242615
H55	H	0.806955	0.193383	-0.415512
H56	H	0.749527	0.354195	-0.553026
H57	H	0.658099	0.547763	-0.470297
C58	C	0.674620	0.887561	-0.760856
C59	C	0.625228	0.977752	-0.695326
C60	C	0.592233	1.070168	-0.774342
C61	C	0.608630	1.072394	-0.918889
C62	C	0.658025	0.982199	-0.984427
C63	C	0.691020	0.889783	-0.905410
H64	H	0.613087	0.976107	-0.588317
H65	H	0.555668	1.136936	-0.725826
H66	H	0.584206	1.140806	-0.977382
H67	H	0.670166	0.983844	-1.091436
H68	H	0.727585	0.823015	-0.953926
C69	C	0.347516	0.942861	-0.808189
C70	C	0.266306	0.936205	-0.802509
C71	C	0.233307	1.028602	-0.881542
C72	C	0.281518	1.127655	-0.966255
C73	C	0.362733	1.134315	-0.971938
C74	C	0.395732	1.041918	-0.892906
H75	H	0.230613	0.862877	-0.739797
H76	H	0.173186	1.023672	-0.877334
H77	H	0.257091	1.196053	-1.024760
H78	H	0.398426	1.207643	-1.034651
H79	H	0.455852	1.046849	-0.897113
H80	H	0.552624	0.625583	-0.536840
C81	C	0.318463	0.577326	-0.495626
C82	C	0.323440	0.435943	-0.517410
C83	C	0.275214	0.336867	-0.432733
C84	C	0.222013	0.379174	-0.326273
C85	C	0.217034	0.520564	-0.304483
C86	C	0.265259	0.619640	-0.389160
H87	H	0.362825	0.404618	-0.596223
H88	H	0.278900	0.232200	-0.448864
H89	H	0.186314	0.305832	-0.263590
H90	H	0.177649	0.551889	-0.225670
H91	H	0.261573	0.724307	-0.373029
C92	C	0.473504	0.590064	-0.506437
C93	C	0.458177	0.447008	-0.526722
C94	C	0.491160	0.354621	-0.447651
C95	C	0.539469	0.405290	-0.348295
C96	C	0.554798	0.548354	-0.328005
C97	C	0.521815	0.640741	-0.407076
H98	H	0.422414	0.409493	-0.600275
H99	H	0.479812	0.248715	-0.462671
H100	H	0.563884	0.336900	-0.289762
H101	H	0.590561	0.585869	-0.254452
H102	H	0.533163	0.746646	-0.392056
C103	C	1.006702	1.201182	-0.758336
C104	C	0.945131	1.101955	-0.706355
C105	C	0.896590	1.032514	-0.796566
C106	C	0.909619	1.062300	-0.938758
C107	C	0.971192	1.161532	-0.990746
C108	C	1.019734	1.230973	-0.900535
H109	H	0.935484	1.079902	-0.601090
H110	H	0.851009	0.959056	-0.758080
H111	H	0.873685	1.010895	-1.005537
H112	H	0.980839	1.183585	-1.096011
H113	H	1.065315	1.304431	-0.939021
H114	H	0.490029	0.929851	-0.797036
H115	H	0.595502	0.852013	-0.730499
