data_functionalizedCrystal
_audit_creation_method	'MofGen! by Chris Wilmer'
_symmetry_space_group_name_H-M	'P1'
_symmetry_Int_Tables_number	1
_symmetry_cell_setting	triclinic
loop_
_symmetry_equiv_pos_as_xyz
  x,y,z
_cell_length_a	14.044191
_cell_length_b	23.532357
_cell_length_c	22.010155
_cell_angle_alpha	90.010083
_cell_angle_beta	90.013322
_cell_angle_gamma	88.010034
loop_
_atom_site_label
_atom_site_type_symbol
_atom_site_fract_x
_atom_site_fract_y
_atom_site_fract_z
O1	O	1.256391	0.137254	0.050510
O2	O	0.980469	0.132297	0.050517
O3	O	1.126775	0.052294	0.050501
O4	O	1.110085	0.217257	0.050526
O5	O	1.126731	0.052292	-0.050550
O6	O	0.980426	0.132295	-0.050533
O7	O	1.256347	0.137251	-0.050541
Cu8	Cu	1.118382	0.134773	-0.059764
Cu9	Cu	1.118434	0.134776	0.059740
O10	O	1.110041	0.217254	-0.050524
C11	C	0.945154	0.130128	-0.000007
C12	C	0.839991	0.123660	-0.000005
C13	C	1.126336	0.031054	-0.000026
C14	C	1.125081	-0.032233	-0.000032
C15	C	0.589374	0.157706	-0.000006
C16	C	0.647448	0.111845	-0.000012
C17	C	0.754589	0.118421	-0.000008
C18	C	0.482223	0.151131	-0.000010
C19	C	1.117225	-0.424670	0.055083
C20	C	1.116032	-0.484134	0.055087
O21	O	1.115403	-0.514885	0.101933
N22	N	1.115416	-0.513879	0.000005
C23	C	1.115984	-0.484156	-0.055084
O24	O	1.115350	-0.514916	-0.101935
C25	C	1.117170	-0.424692	-0.055087
C26	C	1.117796	-0.394951	-0.000001
C27	C	1.117849	-0.394929	0.110164
C28	C	1.119044	-0.335469	0.110161
C29	C	1.119615	-0.305750	0.055076
C30	C	1.118990	-0.335491	-0.000005
C31	C	1.117732	-0.394970	-0.110175
C32	C	1.118917	-0.335503	-0.110173
C33	C	1.119542	-0.305762	-0.055087
C34	C	1.120756	-0.246313	-0.055093
N35	N	1.121372	-0.216568	-0.000011
C36	C	1.120801	-0.246287	0.055073
C37	C	1.113491	-0.609032	-0.055073
C38	C	1.112312	-0.668495	-0.055071
C39	C	1.112357	-0.668469	0.055100
C40	C	1.113544	-0.609006	0.055097
C41	C	1.114107	-0.579288	0.000008
C42	C	1.123311	-0.121417	0.055061
C43	C	1.124510	-0.061951	0.055053
C44	C	1.124459	-0.061982	-0.055118
C45	C	1.123265	-0.121442	-0.055110
C46	C	1.122688	-0.151158	-0.000015
O47	O	1.121382	-0.215524	-0.101915
O48	O	1.121422	-0.215519	0.101916
C49	C	1.291662	0.139421	-0.000015
C50	C	1.396825	0.145888	-0.000013
C51	C	1.110481	0.238495	0.000004
C52	C	1.111736	0.301781	0.000014
N53	N	1.118353	0.134771	-0.143816
C54	C	1.175559	0.172234	-0.563592
C55	C	1.175570	0.172233	-0.627199
O56	O	1.224174	0.204080	-0.660087
N57	N	1.118453	0.134770	-0.659023
C58	C	1.061328	0.097301	-0.627236
O59	O	1.012747	0.065436	-0.660146
C60	C	1.061322	0.097300	-0.563630
C61	C	1.118436	0.134770	-0.531809
C62	C	1.232668	0.209700	-0.531771
C63	C	1.232656	0.209702	-0.468168
C64	C	1.175533	0.172237	-0.436385
C65	C	1.118423	0.134771	-0.468206
C66	C	1.004203	0.059829	-0.531844
C67	C	1.004204	0.059830	-0.468233
C68	C	1.061317	0.097300	-0.436413
C69	C	1.061288	0.097308	-0.372820
N70	N	1.118405	0.134771	-0.340996
C71	C	1.175528	0.172236	-0.372779
C72	C	1.061345	0.097307	-0.760814
C73	C	1.061344	0.097311	-0.824419
C74	C	1.175588	0.172242	-0.824378
C75	C	1.175583	0.172241	-0.760771
C76	C	1.118462	0.134770	-0.728990
C77	C	1.175496	0.172236	-0.239207
C78	C	1.175475	0.172236	-0.175599
C79	C	1.061236	0.097303	-0.175646
C80	C	1.061253	0.097305	-0.239249
C81	C	1.118390	0.134773	-0.271028
O82	O	1.012711	0.065475	-0.339892
O83	O	1.224110	0.204091	-0.339861
N84	N	1.118471	0.134774	0.143793
H85	H	0.616702	0.067645	0.000024
H86	H	0.620118	0.201903	0.000003
H87	H	1.113952	-0.584840	-0.099936
H88	H	1.279168	0.240211	-0.442265
H89	H	1.122836	-0.145604	0.099924
H90	H	1.125021	-0.037739	0.099912
H91	H	0.957689	0.029316	-0.442360
H92	H	1.119549	-0.311259	0.155017
H93	H	1.014726	0.066801	-0.149757
H94	H	1.117381	-0.419119	0.155023
H95	H	1.114051	-0.584794	0.099952
F96	F	1.000535	0.057428	-0.726996
F97	F	1.111744	-0.700108	0.113726
H98	H	0.957697	0.029316	-0.557742
H99	H	1.014734	0.066800	-0.265159
F100	F	1.111663	-0.700142	-0.113701
H101	H	1.279189	0.240209	-0.557641
H102	H	1.222099	0.202749	-0.850267
F103	F	1.236373	0.212119	-0.726911
F104	F	1.117062	-0.426610	-0.168805
H105	H	1.119361	-0.311310	-0.155034
F106	F	1.122617	-0.153097	-0.113737
H107	H	1.124928	-0.037775	-0.099966
F108	F	1.000543	0.057438	-0.858279
H109	H	1.221984	0.202751	-0.149693
F110	F	1.236308	0.212114	-0.273020
