data_functionalizedCrystal
_audit_creation_method	'MofGen! by Chris Wilmer'
_symmetry_space_group_name_H-M	'P1'
_symmetry_Int_Tables_number	1
_symmetry_cell_setting	triclinic
loop_
_symmetry_equiv_pos_as_xyz
  x,y,z
_cell_length_a	16.120490
_cell_length_b	13.032721
_cell_length_c	13.032268
_cell_angle_alpha	103.289627
_cell_angle_beta	94.644414
_cell_angle_gamma	94.673435
loop_
_atom_site_label
_atom_site_type_symbol
_atom_site_fract_x
_atom_site_fract_y
_atom_site_fract_z
Zn1	Zn	1.140844	-0.582304	-0.737171
Zn2	Zn	1.474177	-0.248971	-0.403837
Zn3	Zn	1.807511	0.084363	-0.070504
Zn4	Zn	1.140754	-0.737382	-0.582112
Zn5	Zn	1.474088	-0.404048	-0.248779
Zn6	Zn	1.807421	-0.070715	0.084555
Zn7	Zn	1.023440	-0.551234	-0.551052
Zn8	Zn	1.356773	-0.217901	-0.217719
Zn9	Zn	1.690107	0.115432	0.115614
Zn10	Zn	0.983450	-0.748380	-0.748214
Zn11	Zn	1.316783	-0.415047	-0.414881
Zn12	Zn	1.650117	-0.081714	-0.081547
O13	O	1.072122	-0.654825	-0.654637
O14	O	1.405455	-0.321492	-0.321304
O15	O	1.738789	0.011842	0.012029
O16	O	1.255798	-0.611275	-0.724979
O17	O	1.589132	-0.277942	-0.391646
O18	O	1.922465	0.055392	-0.058312
O19	O	1.141891	-0.695083	-0.430586
O20	O	1.475224	-0.361750	-0.097253
O21	O	1.808557	-0.028416	0.236080
O22	O	1.055788	-0.407949	-0.558121
O23	O	1.389121	-0.074616	-0.224788
O24	O	1.722454	0.258718	0.108546
O25	O	1.255732	-0.725210	-0.611058
O26	O	1.589066	-0.391877	-0.277725
O27	O	1.922399	-0.058543	0.055609
O28	O	1.142044	-0.430776	-0.694862
O29	O	1.475377	-0.097442	-0.361528
O30	O	1.808710	0.235891	-0.028195
O31	O	1.055701	-0.558322	-0.407767
O32	O	1.389034	-0.224988	-0.074434
O33	O	1.722367	0.108345	0.258900
O34	O	0.903169	-0.568987	-0.568829
O35	O	1.236502	-0.235653	-0.235496
O36	O	1.569836	0.097680	0.097838
O37	O	0.987630	-0.743956	-0.894155
O38	O	1.320963	-0.410622	-0.560821
O39	O	1.654297	-0.077289	-0.227488
O40	O	0.873789	-0.713829	-0.713683
O41	O	1.207122	-0.380496	-0.380350
O42	O	1.540455	-0.047162	-0.047016
O43	O	1.103267	-0.621940	-0.886041
O44	O	1.436600	-0.288607	-0.552708
O45	O	1.769933	0.044727	-0.219375
O46	O	1.103114	-0.886248	-0.621766
O47	O	1.436447	-0.552914	-0.288433
O48	O	1.769781	-0.219581	0.044901
O49	O	0.987543	-0.894328	-0.743800
O50	O	1.320876	-0.560995	-0.410467
O51	O	1.654210	-0.227662	-0.077134
C52	C	1.040999	-0.928513	-0.687377
C53	C	1.374332	-0.595180	-0.354043
C54	C	1.707666	-0.261847	-0.020710
C55	C	1.027756	-1.045608	-0.701423
C56	C	1.361089	-0.712275	-0.368090
C57	C	1.694422	-0.378941	-0.034757
C58	C	0.858669	-0.639231	-0.639085
C59	C	1.192003	-0.305897	-0.305751
C60	C	1.525336	0.027436	0.027582
C61	C	0.767347	-0.632588	-0.632459
C62	C	1.100681	-0.299254	-0.299126
C63	C	1.434014	0.034079	0.034208
C64	C	1.079072	-1.093789	-0.647357
C65	C	1.412406	-0.760455	-0.314023
C66	C	1.745739	-0.427122	0.019310
C67	C	1.065386	-1.214812	-0.661873
C68	C	1.398719	-0.881479	-0.328540
C69	C	1.732052	-0.548145	0.004793
C70	C	0.544932	-0.689275	-0.689005
C71	C	0.878266	-0.355942	-0.355672
C72	C	1.211599	-0.022609	-0.022339
C73	C	0.600144	-0.620469	-0.620362
C74	C	0.933477	-0.287135	-0.287029
C75	C	1.266811	0.046198	0.046304
C76	C	0.693184	-0.627214	-0.627095
C77	C	1.026518	-0.293880	-0.293762
C78	C	1.359851	0.039453	0.039572
C79	C	0.451883	-0.682532	-0.682274
C80	C	0.785216	-0.349199	-0.348941
C81	C	1.118550	-0.015865	-0.015608
C82	C	1.286408	-0.670481	-0.670251
C83	C	1.619742	-0.337148	-0.336918
C84	C	1.953075	-0.003815	-0.003585
C85	C	1.377724	-0.677153	-0.676905
C86	C	1.711058	-0.343820	-0.343572
C87	C	2.044391	-0.010486	-0.010239
C88	C	1.040998	-0.687641	-0.929387
C89	C	1.374331	-0.354307	-0.596054
C90	C	1.707664	-0.020974	-0.262720
C91	C	1.027734	-0.701624	-1.046469
C92	C	1.361068	-0.368291	-0.713136
C93	C	1.694401	-0.034958	-0.379802
C94	C	1.103386	-0.380073	-0.621795
C95	C	1.436720	-0.046739	-0.288461
C96	C	1.770053	0.286594	0.044872
C97	C	1.116709	-0.262989	-0.607799
C98	C	1.450043	0.070344	-0.274466
C99	C	1.783376	0.403677	0.058867
C100	C	1.079036	-0.647488	-1.094654
C101	C	1.412369	-0.314155	-0.761320
C102	C	1.745702	0.019179	-0.427987
C103	C	1.065329	-0.661940	-1.215664
C104	C	1.398662	-0.328606	-0.882331
C105	C	1.731995	0.004727	-0.548997
C106	C	1.103181	-0.622065	-0.380951
C107	C	1.436515	-0.288731	-0.047617
C108	C	1.769848	0.044602	0.285716
C109	C	1.116637	-0.607796	-0.263845
C110	C	1.449971	-0.274462	0.069488
C111	C	1.783304	0.058871	0.402821
H112	H	1.133142	-1.045444	-0.590325
H113	H	1.466475	-0.712111	-0.256992
H114	H	1.799808	-0.378777	0.076342
H115	H	0.567538	-0.753244	-0.752823
H116	H	0.900871	-0.419911	-0.419490
H117	H	1.234205	-0.086577	-0.086157
O118	O	1.143448	-0.579358	-1.036869
O119	O	1.476781	-0.246025	-0.703535
O120	O	1.810115	0.087308	-0.370202
C121	C	1.111575	-0.500343	-0.961707
C122	C	1.444908	-0.167009	-0.628374
C123	C	1.778241	0.166324	-0.295040
H124	H	1.046926	-0.530999	-0.945241
H125	H	1.380260	-0.197666	-0.611908
H126	H	1.713593	0.135667	-0.278575
H127	H	1.155350	-0.479498	-0.885051
H128	H	1.488683	-0.146164	-0.551717
H129	H	1.822016	0.187169	-0.218384
H130	H	1.106675	-0.426638	-0.994049
H131	H	1.440009	-0.093305	-0.660715
H132	H	1.773342	0.240029	-0.327382
H133	H	1.170783	-1.214647	-0.550764
H134	H	1.504116	-0.881314	-0.217430
H135	H	1.837449	-0.547980	0.115903
H136	H	0.973692	-1.093957	-0.758463
H137	H	1.307025	-0.760623	-0.425130
H138	H	1.640359	-0.427290	-0.091797
H139	H	1.011252	-0.718984	-1.263994
H140	H	1.344585	-0.385650	-0.930661
H141	H	1.677918	-0.052317	-0.597327
O142	O	1.181237	-0.539803	-1.206318
O143	O	1.514571	-0.206470	-0.872984
O144	O	1.847904	0.126863	-0.539651
C145	C	1.257493	-0.571990	-1.241808
C146	C	1.590826	-0.238657	-0.908475
C147	C	1.924160	0.094677	-0.575141
H148	H	1.245613	-0.622080	-1.326679
H149	H	1.578947	-0.288747	-0.993345
H150	H	1.912280	0.044587	-0.660012
H151	H	1.302570	-0.499086	-1.239044
H152	H	1.635903	-0.165753	-0.905711
H153	H	1.969236	0.167581	-0.572377
H154	H	1.285959	-0.620829	-1.188401
H155	H	1.619293	-0.287496	-0.855068
H156	H	1.952626	0.045838	-0.521735
O157	O	1.000899	-1.272630	-0.729846
O158	O	1.334232	-0.939297	-0.396513
O159	O	1.667566	-0.605963	-0.063180
C160	C	1.001599	-1.380596	-0.729224
C161	C	1.334932	-1.047263	-0.395890
C162	C	1.668265	-0.713929	-0.062557
H163	H	1.036087	-1.387779	-0.651701
H164	H	1.369421	-1.054446	-0.318368
H165	H	1.702754	-0.721113	0.014965
H166	H	0.934543	-1.418908	-0.736820
H167	H	1.267876	-1.085575	-0.403486
H168	H	1.601209	-0.752242	-0.070153
H169	H	1.034730	-1.422404	-0.798645
H170	H	1.368063	-1.089071	-0.465312
H171	H	1.701397	-0.755738	-0.131979
O172	O	0.963329	-0.769814	-1.104190
O173	O	1.296663	-0.436480	-0.770857
O174	O	1.629996	-0.103147	-0.437523
C175	C	0.995206	-0.848796	-1.179385
C176	C	1.328539	-0.515462	-0.846051
C177	C	1.661872	-0.182129	-0.512718
H178	H	1.062908	-0.856085	-1.151657
H179	H	1.396242	-0.522752	-0.818324
H180	H	1.729575	-0.189418	-0.484991
H181	H	0.956118	-0.927854	-1.188265
H182	H	1.289452	-0.594521	-0.854932
H183	H	1.622785	-0.261187	-0.521599
H184	H	0.992366	-0.826317	-1.259034
H185	H	1.325699	-0.492984	-0.925701
H186	H	1.659033	-0.159650	-0.592368
H187	H	0.577537	-0.556496	-0.556539
H188	H	0.910870	-0.223162	-0.223205
H189	H	1.244204	0.110171	0.110128
