data_functionalizedCrystal
_audit_creation_method	'MofGen! by Chris Wilmer'
_symmetry_space_group_name_H-M	'P1'
_symmetry_Int_Tables_number	1
_symmetry_cell_setting	triclinic
loop_
_symmetry_equiv_pos_as_xyz
  x,y,z
_cell_length_a	10.686220
_cell_length_b	12.645329
_cell_length_c	10.686551
_cell_angle_alpha	94.405448
_cell_angle_beta	89.691918
_cell_angle_gamma	94.399598
loop_
_atom_site_label
_atom_site_type_symbol
_atom_site_fract_x
_atom_site_fract_y
_atom_site_fract_z
Zn1	Zn	1.972271	-0.258450	0.562387
Zn2	Zn	1.956030	-0.450326	0.352630
Zn3	Zn	1.746388	-0.285568	0.368705
Zn4	Zn	1.762461	-0.448177	0.578407
O5	O	1.859288	-0.360630	0.465532
O6	O	2.145660	-0.273452	0.521130
O7	O	1.914698	-0.440719	0.179217
O8	O	1.776423	-0.133618	0.394420
O9	O	2.133727	-0.414423	0.367022
O10	O	1.942378	-0.113694	0.536718
O11	O	1.760674	-0.319672	0.191027
O12	O	1.572978	-0.317589	0.409954
O13	O	1.803816	-0.410761	0.751828
O14	O	1.584786	-0.437057	0.564022
O15	O	1.957963	-0.271369	0.740058
O16	O	1.930282	-0.598394	0.382556
O17	O	1.788067	-0.596816	0.548434
C18	C	1.533366	-0.380033	0.490472
C19	C	1.393937	-0.388357	0.501170
C20	C	1.859193	-0.636067	0.465514
C21	C	1.859270	-0.753891	0.465539
C22	C	1.769753	-0.797831	0.569840
C23	C	1.770187	-0.920337	0.570230
C24	C	1.994444	-0.911290	0.491018
C25	C	1.993818	-0.788686	0.491733
C26	C	1.815000	-0.810432	0.335494
C27	C	1.812256	-0.933156	0.336456
C28	C	2.186482	-0.341152	0.440496
C29	C	2.325913	-0.332852	0.429828
C30	C	1.884494	-0.337801	0.792732
C31	C	1.895235	-0.328072	0.932166
C32	C	1.859419	-0.084114	0.465575
C33	C	1.859476	0.033721	0.465594
C34	C	1.834252	-0.383290	0.139600
C35	C	1.823753	-0.392706	0.000148
H36	H	1.345502	-0.442256	0.570433
H37	H	1.670433	-0.957912	0.555519
H38	H	1.374342	-0.278964	0.360562
H39	H	1.964661	-0.265294	0.980639
H40	H	1.669652	-0.775849	0.555401
C41	C	2.042235	-0.738959	0.617974
C42	C	2.042210	-0.628122	0.619952
C43	C	2.086817	-0.582284	0.736221
H44	H	1.989468	-0.764033	0.682916
H45	H	2.125294	-0.757964	0.630551
H46	H	1.959164	-0.609127	0.607389
H47	H	2.094981	-0.603019	0.555036
H48	H	2.169877	-0.601289	0.748798
H49	H	2.034046	-0.607366	0.801154
H50	H	2.086817	-0.507077	0.737574
H51	H	1.871908	-0.965148	0.255442
C52	C	1.809492	-0.746040	0.697986
C53	C	1.839968	-0.824566	0.775666
C54	C	1.876572	-0.776897	0.893725
H55	H	1.880654	-0.697396	0.689041
H56	H	1.742468	-0.709094	0.734335
H57	H	1.906985	-0.861494	0.739325
H58	H	1.768824	-0.873214	0.784648
H59	H	1.809548	-0.739951	0.930074
H60	H	1.947731	-0.728254	0.884766
H61	H	1.897243	-0.830170	0.946448
H62	H	1.800421	-0.941407	0.666796
C63	C	2.086639	-0.749587	0.394067
C64	C	2.143035	-0.836358	0.334674
C65	C	2.228558	-0.800385	0.244713
H66	H	2.043759	-0.714618	0.333527
H67	H	2.149298	-0.701302	0.433881
H68	H	2.080386	-0.884625	0.294861
H69	H	2.185939	-0.871336	0.395182
H70	H	2.291217	-0.752099	0.284527
H71	H	2.185668	-0.765416	0.184182
H72	H	2.266841	-0.859251	0.204413
H73	H	2.063465	-0.940723	0.416959
H74	H	1.754341	-0.455487	0.951681
C75	C	1.901858	-0.772988	0.232017
C76	C	1.957512	-0.860253	0.172875
C77	C	2.037544	-0.825789	0.077566
H78	H	1.854980	-0.740517	0.172283
H79	H	1.965293	-0.722894	0.267226
H80	H	1.894086	-0.910328	0.137665
H81	H	2.004412	-0.892733	0.232574
H82	H	2.100980	-0.775696	0.112775
H83	H	1.990657	-0.793318	0.017842
H84	H	2.075324	-0.884991	0.037434
C85	C	2.043653	-0.941004	0.615790
C86	C	2.154037	-0.992766	0.595625
C87	C	2.199387	-1.020155	0.710539
H88	H	2.060783	-0.878447	0.669900
H89	H	1.982409	-0.987048	0.653301
H90	H	2.215268	-0.946723	0.558132
H91	H	2.136940	-1.055334	0.541535
H92	H	2.138144	-1.066200	0.748051
H93	H	2.216510	-0.957594	0.764641
H94	H	2.274280	-1.055287	0.696872
H95	H	1.717665	-0.787518	0.310313
H96	H	1.712877	-0.970009	0.317091
