data_functionalizedCrystal
_audit_creation_method	'MofGen! by Chris Wilmer'
_symmetry_space_group_name_H-M	'P1'
_symmetry_Int_Tables_number	1
_symmetry_cell_setting	triclinic
loop_
_symmetry_equiv_pos_as_xyz
  x,y,z
_cell_length_a	16.992695
_cell_length_b	16.109301
_cell_length_c	14.586319
_cell_angle_alpha	90.005214
_cell_angle_beta	89.998424
_cell_angle_gamma	92.935148
loop_
_atom_site_label
_atom_site_type_symbol
_atom_site_fract_x
_atom_site_fract_y
_atom_site_fract_z
O1	O	1.040345	-0.176288	-0.076209
O2	O	1.540345	0.323712	0.423791
O3	O	0.812060	-0.174354	-0.076219
O4	O	1.312060	0.325646	0.423781
O5	O	0.932474	-0.054709	-0.076204
O6	O	1.432474	0.445291	0.423796
O7	O	0.919932	-0.295934	-0.076223
O8	O	1.419932	0.204066	0.423777
O9	O	0.932466	-0.054706	0.076277
O10	O	1.432466	0.445294	0.576277
O11	O	0.812052	-0.174352	0.076262
O12	O	1.312052	0.325648	0.576262
O13	O	1.040337	-0.176286	0.076272
O14	O	1.540337	0.323714	0.576272
Cu15	Cu	0.926194	-0.175318	0.090190
Cu16	Cu	1.426194	0.324682	0.590190
Cu17	Cu	0.926204	-0.175321	-0.090136
Cu18	Cu	1.426204	0.324679	0.409864
O19	O	0.919923	-0.295931	0.076257
O20	O	1.419923	0.204069	0.576257
C21	C	0.782844	-0.171865	0.000021
C22	C	1.282844	0.328135	0.500021
C23	C	0.695802	-0.164441	0.000017
C24	C	1.195802	0.335559	0.500017
C25	C	0.931962	-0.023699	0.000037
C26	C	1.431962	0.476301	0.500037
C27	C	0.930439	0.068698	0.000038
C28	C	1.430439	0.568698	0.500038
C29	C	1.069553	-0.178775	0.000031
C30	C	1.569553	0.321225	0.500031
C31	C	1.156595	-0.186198	0.000028
C32	C	1.656595	0.313802	0.500028
C33	C	1.206854	-0.114572	0.000031
C34	C	1.706854	0.385428	0.500031
C35	C	1.288639	-0.121552	0.000033
C36	C	1.788639	0.378448	0.500033
C37	C	1.320163	-0.200159	0.000027
C38	C	1.820163	0.299841	0.500027
C39	C	1.269898	-0.271791	0.000027
C40	C	1.769898	0.228209	0.500027
C41	C	1.188115	-0.264810	0.000031
C42	C	1.688115	0.235190	0.500031
C43	C	1.563754	-0.229092	0.000021
C44	C	2.063754	0.270908	0.500021
C45	C	1.645543	-0.236067	0.000015
C46	C	2.145543	0.263933	0.500015
C47	C	1.664278	-0.085828	0.000023
C48	C	2.164278	0.414172	0.500023
C49	C	1.582493	-0.078854	0.000021
C50	C	2.082493	0.421146	0.500021
C51	C	1.532235	-0.150486	0.000026
C52	C	2.032235	0.349514	0.500026
N53	N	1.403760	-0.207296	0.000027
N54	N	1.903760	0.292704	0.500027
N55	N	1.448639	-0.143349	0.000032
N56	N	1.948639	0.356651	0.500032
C57	C	0.920435	-0.326941	0.000015
C58	C	1.420435	0.173059	0.500015
C59	C	0.921959	-0.419338	0.000007
C60	C	1.421959	0.080662	0.500007
N61	N	0.926192	-0.175316	0.217021
N62	N	1.426192	0.324684	0.717021
C63	C	0.998348	0.286439	0.000026
C64	C	1.498348	0.786439	0.500026
C65	C	0.996911	0.373256	0.000019
C66	C	1.496911	0.873256	0.500019
C67	C	0.854044	0.362915	0.000016
C68	C	1.354044	0.862915	0.500016
C69	C	0.855482	0.276100	0.000017
C70	C	1.355482	0.776100	0.500017
C71	C	0.927636	0.237865	0.000027
C72	C	1.427636	0.737865	0.500027
C73	C	0.924761	0.411496	0.000018
C74	C	1.424761	0.911496	0.500018
C75	C	0.923202	0.505626	0.000010
C76	C	1.423202	1.005626	0.500010
C77	C	0.929196	0.143729	0.000033
C78	C	1.429196	0.643729	0.500033
N79	N	0.926211	-0.175317	-0.216968
N80	N	1.426211	0.324683	0.283032
C81	C	0.979529	-0.122357	0.452034
C82	C	1.479529	0.377643	0.952034
C83	C	0.979531	-0.122355	0.548016
C84	C	1.479531	0.377645	1.048016
C85	C	0.872869	-0.228278	0.548012
C86	C	1.372869	0.271722	1.048012
C87	C	0.872863	-0.228276	0.452033
C88	C	1.372863	0.271724	0.952033
C89	C	0.926198	-0.175316	0.404046
C90	C	1.426198	0.324684	0.904046
C91	C	0.926206	-0.175317	0.596007
C92	C	1.426206	0.324683	1.096007
C93	C	0.926208	-0.175316	0.700074
C94	C	1.426208	0.324684	1.200074
C95	C	0.926195	-0.175316	0.299972
C96	C	1.426195	0.324684	0.799972
H97	H	1.329557	-0.063227	0.000039
H98	H	1.829557	0.436773	0.500039
H99	H	0.795298	0.394057	0.000010
H100	H	1.295298	0.894057	0.500010
C101	C	1.086205	-0.111405	0.344038
C102	C	1.586205	0.388595	0.844038
C103	C	1.038112	-0.064117	0.399263
C104	C	1.538112	0.435883	0.899263
H105	H	1.122362	-0.075439	0.311460
H106	H	1.622362	0.424561	0.811460
H107	H	1.054442	-0.142958	0.301742
H108	H	1.554442	0.357042	0.801742
H109	H	1.114437	-0.147881	0.381466
H110	H	1.614437	0.352119	0.881466
H111	H	1.009875	-0.027646	0.361834
H112	H	1.509875	0.472354	0.861834
H113	H	1.069879	-0.032550	0.441564
H114	H	1.569879	0.467450	0.941564
H115	H	1.054491	0.412802	0.000016
H116	H	1.554491	0.912802	0.500016
H117	H	1.022958	-0.079231	0.587085
H118	H	1.522958	0.420769	1.087085
H119	H	0.797897	0.236549	0.000015
H120	H	1.297897	0.736549	0.500015
C121	C	0.766172	-0.239172	0.655970
C122	C	1.266172	0.260828	1.155970
C123	C	0.814252	-0.286494	0.600767
C124	C	1.314252	0.213506	1.100767
H125	H	0.729989	-0.275115	0.688541
H126	H	1.229989	0.224885	1.188541
H127	H	0.737975	-0.202682	0.618536
H128	H	1.237975	0.297318	1.118536
H129	H	0.797945	-0.207634	0.698282
H130	H	1.297945	0.292366	1.198282
H131	H	0.782479	-0.318027	0.558450
H132	H	1.282479	0.181973	1.058450
H133	H	0.842451	-0.322998	0.638204
H134	H	1.342451	0.177002	1.138204
C135	C	1.233596	0.033229	0.000046
C136	C	1.733596	0.533229	0.500046
C137	C	1.172207	-0.028164	0.000039
C138	C	1.672207	0.471836	0.500039
H139	H	1.212206	0.086574	0.000059
H140	H	1.712206	0.586574	0.500059
H141	H	1.265102	0.027382	-0.053126
H142	H	1.765102	0.527382	0.446874
H143	H	1.265105	0.027374	0.053222
H144	H	1.765105	0.527374	0.553222
H145	H	1.140701	-0.022313	-0.053141
H146	H	1.640701	0.477687	0.446859
H147	H	1.140687	-0.022314	0.053216
H148	H	1.640687	0.477686	0.553216
C149	C	1.609230	0.068950	0.000049
C150	C	2.109230	0.568950	0.500049
C151	C	1.547844	0.007553	0.000040
C152	C	2.047844	0.507553	0.500040
H153	H	1.587837	0.122293	0.000066
H154	H	2.087837	0.622293	0.500066
H155	H	1.640735	0.063107	-0.053125
H156	H	2.140735	0.563107	0.446875
H157	H	1.640741	0.063094	0.053223
H158	H	2.140741	0.563094	0.553223
H159	H	1.516336	0.013405	-0.053137
H160	H	2.016336	0.513405	0.446863
H161	H	1.516325	0.013399	0.053219
H162	H	2.016325	0.513399	0.553219
C163	C	1.797965	-0.029817	0.000029
C164	C	2.297965	0.470183	0.500029
C165	C	1.719524	-0.007095	0.000030
C166	C	2.219524	0.492905	0.500030
H167	H	1.832069	0.018794	0.000041
H168	H	2.332069	0.518794	0.500041
H169	H	1.807516	-0.061816	-0.053146
H170	H	2.307516	0.438184	0.446854
H171	H	1.807510	-0.061827	0.053201
H172	H	2.307510	0.438173	0.553201
H173	H	1.709977	0.024910	-0.053147
H174	H	2.209977	0.524910	0.446853
H175	H	1.709969	0.024919	0.053210
H176	H	2.209969	0.524919	0.553210
H177	H	0.829431	-0.271401	0.412958
H178	H	1.329431	0.228599	0.912958
H179	H	1.522843	-0.287420	0.000021
H180	H	2.022843	0.212580	0.500021
C181	C	1.654762	-0.366288	-0.078362
C182	C	2.154762	0.133712	0.421638
C183	C	1.680201	-0.322476	0.000016
C184	C	2.180201	0.177524	0.500016
H185	H	1.676158	-0.419631	-0.078356
H186	H	2.176158	0.080369	0.421644
H187	H	1.672011	-0.336572	-0.131528
H188	H	2.172011	0.163428	0.368472
H189	H	1.598862	-0.372386	-0.078347
H190	H	2.098862	0.127614	0.421653
H191	H	1.736102	-0.316373	-0.000002
H192	H	2.236102	0.183627	0.499998
H193	H	1.662956	-0.352199	0.053196
H194	H	2.162956	0.147801	0.553196
C195	C	1.386945	-0.349201	0.000013
C196	C	1.886945	0.150799	0.500013
C197	C	1.304548	-0.358198	0.000021
C198	C	1.804548	0.141802	0.500021
H199	H	1.408333	-0.402548	0.000002
H200	H	1.908333	0.097452	0.500002
H201	H	1.404194	-0.319485	0.053184
H202	H	1.904194	0.180515	0.553184
H203	H	1.404189	-0.319481	-0.053163
H204	H	1.904189	0.180519	0.446837
H205	H	1.287304	-0.387913	0.053201
H206	H	1.787304	0.112087	0.553201
H207	H	1.287292	-0.387927	-0.053155
H208	H	1.787292	0.112073	0.446845
C209	C	1.082855	0.194821	0.078413
C210	C	1.582855	0.694821	0.578413
C211	C	1.077660	0.244412	0.000027
C212	C	1.577660	0.744412	0.500027
H213	H	1.131823	0.168883	0.078412
H214	H	1.631823	0.668883	0.578412
H215	H	1.040955	0.153467	0.078409
H216	H	1.540955	0.653467	0.578409
H217	H	1.079323	0.228488	0.131580
H218	H	1.579323	0.728488	0.631580
H219	H	1.081185	0.210745	-0.053140
H220	H	1.581185	0.710745	0.446860
H221	H	1.119571	0.285771	0.000023
H222	H	1.619571	0.785771	0.500023
C223	C	1.177805	-0.414014	0.000009
C224	C	1.677805	0.085986	0.500009
C225	C	1.132867	-0.343543	0.000021
C226	C	1.632867	0.156457	0.500021
H227	H	1.143696	-0.462621	-0.000001
H228	H	1.643696	0.037379	0.499999
H229	H	1.210092	-0.413613	0.053178
H230	H	1.710092	0.086387	0.553178
H231	H	1.210096	-0.413606	-0.053170
H232	H	1.710096	0.086394	0.446830
H233	H	1.100581	-0.343948	0.053203
H234	H	1.600581	0.156052	0.553203
H235	H	1.100567	-0.343945	-0.053154
H236	H	1.600567	0.156055	0.446846
