data_functionalizedCrystal
_audit_creation_method	'MofGen! by Chris Wilmer'
_symmetry_space_group_name_H-M	'P1'
_symmetry_Int_Tables_number	1
_symmetry_cell_setting	triclinic
loop_
_symmetry_equiv_pos_as_xyz
  x,y,z
_cell_length_a	16.974829
_cell_length_b	16.992695
_cell_length_c	16.053802
_cell_angle_alpha	87.258926
_cell_angle_beta	83.771117
_cell_angle_gamma	92.974284
loop_
_atom_site_label
_atom_site_type_symbol
_atom_site_fract_x
_atom_site_fract_y
_atom_site_fract_z
O1	O	1.061820	-0.093240	-0.141172
O2	O	0.831718	-0.106701	-0.125627
O3	O	0.945846	0.014168	-0.133331
O4	O	0.947691	-0.214109	-0.133469
O5	O	0.939562	0.007542	0.005952
O6	O	0.825434	-0.113327	0.013656
O7	O	1.055536	-0.099865	-0.001889
Zn8	Zn	0.939487	-0.107648	0.027998
Zn9	Zn	0.947766	-0.098919	-0.155514
O10	O	0.941408	-0.220735	0.005814
C11	C	0.798997	-0.109624	-0.053987
C12	C	0.710860	-0.108453	-0.048033
C13	C	0.214374	-0.102275	-0.006365
C14	C	0.297188	-0.103375	-0.011962
C15	C	0.342021	-0.100308	-0.090685
C16	C	0.304035	-0.096148	-0.163816
C17	C	0.221222	-0.095053	-0.158218
C18	C	0.590062	-0.103199	-0.115566
C19	C	0.672880	-0.104291	-0.121158
C20	C	0.666027	-0.111520	0.030696
C21	C	0.583213	-0.110421	0.036287
C22	C	0.545235	-0.106265	-0.036844
N23	N	0.426670	-0.101430	-0.096407
N24	N	0.460586	-0.105149	-0.031121
C25	C	0.940331	0.040057	-0.063529
C26	C	0.933250	0.127071	-0.063051
C27	C	1.088257	-0.096942	-0.073531
C28	C	1.176394	-0.098113	-0.079491
N29	N	0.933843	-0.113605	0.153239
C30	C	0.946923	-0.246624	-0.063989
C31	C	0.954004	-0.333638	-0.064473
C32	C	1.001573	0.177603	-0.067666
C33	C	0.994915	0.259362	-0.067224
C34	C	0.919933	0.290587	-0.062161
C35	C	0.851605	0.240049	-0.057548
C36	C	0.858263	0.158292	-0.057996
C37	C	0.892335	0.534067	-0.060308
C38	C	0.885681	0.615830	-0.059858
C39	C	1.028992	0.635138	-0.069535
C40	C	1.035645	0.553378	-0.069978
C41	C	0.967316	0.502848	-0.065369
N42	N	0.913126	0.374157	-0.061707
N43	N	0.974125	0.419280	-0.065830
N44	N	0.953417	-0.092955	-0.280756
C45	C	0.982425	-0.062194	0.193654
C46	C	0.978484	-0.066368	0.281326
C47	C	0.925965	-0.121959	0.328583
C48	C	0.877378	-0.173373	0.288162
C49	C	0.881315	-0.169194	0.200491
C50	C	0.908767	-0.140191	0.591153
C51	C	0.904835	-0.144367	0.678830
C52	C	1.005940	-0.037361	0.671988
C53	C	1.009876	-0.033190	0.584315
C54	C	0.961286	-0.084601	0.543903
N55	N	0.921938	-0.126229	0.418198
N56	N	0.965310	-0.080327	0.454289
H57	H	0.546717	-0.112902	0.100391
C58	C	0.769126	0.274394	-0.051977
H59	H	0.774944	0.330322	-0.052362
H60	H	0.742964	0.259337	-0.098632
H61	H	0.738587	0.254718	-0.001484
H62	H	0.836697	0.492934	-0.056555
C63	C	0.179440	-0.090475	-0.238654
H64	H	0.123699	-0.090271	-0.224046
H65	H	0.197565	-0.043461	-0.270978
H66	H	0.191272	-0.134885	-0.270556
C67	C	0.847017	-0.205478	0.730814
H68	H	0.818624	-0.235482	0.694191
H69	H	0.876035	-0.239653	0.762958
H70	H	0.810699	-0.178981	0.767355
H71	H	1.052641	0.012077	0.545841
C72	C	0.783108	0.102707	-0.052918
H73	H	0.737497	0.133011	-0.049831
H74	H	0.784919	0.072720	-0.101463
H75	H	0.780534	0.068105	-0.004314
H76	H	0.559150	-0.099812	-0.175115
C77	C	1.059377	0.019194	0.716444
H78	H	1.049507	0.008750	0.775426
H79	H	1.113490	0.011565	0.698450
H80	H	1.048086	0.072165	0.702892
C81	C	0.707805	-0.116102	0.111132
H82	H	0.763545	-0.116321	0.096528
H83	H	0.695974	-0.071702	0.143043
H84	H	0.689676	-0.163125	0.143448
H85	H	1.050552	0.300502	-0.070980
H86	H	0.328107	-0.106763	0.047585
C87	C	1.040195	-0.001042	0.141679
H88	H	1.068558	0.028984	0.178309
H89	H	1.076531	-0.027485	0.105113
H90	H	1.011129	0.033117	0.109562
C91	C	0.353345	-0.092777	-0.250411
H92	H	0.318862	-0.090149	-0.293160
H93	H	0.388941	-0.047345	-0.255961
H94	H	0.382643	-0.138769	-0.255540
C95	C	1.031933	-0.009822	0.325778
H96	H	1.063783	0.023875	0.285077
H97	H	0.999810	0.021079	0.362060
H98	H	1.065195	-0.039541	0.357612
C99	C	0.855327	-0.196748	0.546709
H100	H	0.823493	-0.230459	0.587412
H101	H	0.822060	-0.167045	0.514873
H102	H	0.887462	-0.227647	0.510430
C103	C	0.827879	-0.225750	0.156035
H104	H	0.796042	-0.259462	0.196733
H105	H	0.794616	-0.196044	0.124198
H106	H	0.860015	-0.256649	0.119755
C107	C	0.819610	-0.234523	0.340141
H108	H	0.824229	-0.229655	0.398143
H109	H	0.766787	-0.225523	0.329402
H110	H	0.832189	-0.286125	0.324952
H111	H	0.709381	-0.101800	-0.185267
C112	C	0.165065	-0.105652	0.080231
H113	H	0.199548	-0.108296	0.122979
H114	H	0.135763	-0.059668	0.085368
H115	H	0.129472	-0.151091	0.085775
C116	C	1.118125	0.519037	-0.075558
H117	H	1.157864	0.560843	-0.078252
H118	H	1.121514	0.485236	-0.027365
H119	H	1.125888	0.489855	-0.124513
H120	H	1.084621	0.676288	-0.073288
H121	H	1.062631	0.152186	-0.071783
C122	C	0.803198	0.650177	-0.054303
H123	H	0.763457	0.608374	-0.051633
H124	H	0.795422	0.679363	-0.005357
H125	H	0.799827	0.683976	-0.102507
