data_functionalizedCrystal
_audit_creation_method	'MofGen! by Chris Wilmer'
_symmetry_space_group_name_H-M	'P1'
_symmetry_Int_Tables_number	1
_symmetry_cell_setting	triclinic
loop_
_symmetry_equiv_pos_as_xyz
  x,y,z
_cell_length_a	19.805405
_cell_length_b	19.805407
_cell_length_c	19.805399
_cell_angle_alpha	89.978275
_cell_angle_beta	90.029301
_cell_angle_gamma	89.972362
loop_
_atom_site_label
_atom_site_type_symbol
_atom_site_fract_x
_atom_site_fract_y
_atom_site_fract_z
Zn1	Zn	-0.269457	-1.034736	0.382750
Zn2	Zn	0.230543	-0.534736	0.882750
Zn3	Zn	-0.382645	-1.034651	0.269559
Zn4	Zn	0.117355	-0.534651	0.769559
Zn5	Zn	-0.269478	-0.921550	0.269571
Zn6	Zn	0.230522	-0.421550	0.769571
Zn7	Zn	-0.382611	-0.921514	0.382701
Zn8	Zn	0.117389	-0.421514	0.882701
O9	O	-0.326048	-0.978113	0.326145
O10	O	0.173952	-0.478113	0.826145
O11	O	-0.284477	-1.129441	0.367751
O12	O	0.215523	-0.629441	0.867751
O13	O	-0.367656	-1.019627	0.174844
O14	O	0.132344	-0.519627	0.674844
O15	O	-0.174758	-0.936616	0.284610
O16	O	0.325242	-0.436616	0.784610
O17	O	-0.367636	-1.129378	0.284589
O18	O	0.132364	-0.629378	0.784589
O19	O	-0.174743	-1.019772	0.367762
O20	O	0.325257	-0.519772	0.867762
O21	O	-0.284513	-0.936533	0.174853
O22	O	0.215487	-0.436533	0.674853
O23	O	-0.284480	-0.826829	0.284562
O24	O	0.215520	-0.326829	0.784562
O25	O	-0.367578	-0.936553	0.477424
O26	O	0.132422	-0.436553	0.977424
O27	O	-0.367599	-0.826802	0.367679
O28	O	0.132401	-0.326802	0.867679
O29	O	-0.284444	-1.019737	0.477461
O30	O	0.215556	-0.519737	0.977461
O31	O	-0.477357	-1.019592	0.284542
O32	O	0.022643	-0.519592	0.784542
O33	O	-0.477333	-0.936471	0.367667
O34	O	0.022667	-0.436471	0.867667
C35	C	-0.326039	-0.802257	0.326117
C36	C	0.173961	-0.302257	0.826117
C37	C	-0.326051	-0.727025	0.326121
C38	C	0.173949	-0.227025	0.826121
C39	C	-0.282819	-0.265270	0.369524
C40	C	0.217181	0.234730	0.869524
C41	C	-0.282821	-0.335958	0.369520
C42	C	0.217179	0.164042	0.869520
C43	C	-0.326050	-0.371263	0.326153
C44	C	0.173950	0.128737	0.826153
C45	C	-0.369285	-0.335876	0.282791
C46	C	0.130715	0.164124	0.782791
C47	C	-0.369286	-0.265188	0.282799
C48	C	0.130714	0.234812	0.782799
C49	C	-0.369284	-0.620949	0.282762
C50	C	0.130716	-0.120949	0.782762
C51	C	-0.369278	-0.691641	0.282757
C52	C	0.130722	-0.191641	0.782757
C53	C	-0.282819	-0.691719	0.369484
C54	C	0.217181	-0.191719	0.869484
C55	C	-0.282819	-0.621031	0.369491
C56	C	0.217181	-0.121031	0.869491
C57	C	-0.326057	-0.585650	0.326132
C58	C	0.173943	-0.085650	0.826132
C59	C	-0.326055	-0.509002	0.326137
C60	C	0.173945	-0.009002	0.826137
C61	C	-0.326049	-0.447910	0.326144
C62	C	0.173951	0.052090	0.826144
C63	C	-0.501904	-0.978036	0.326113
C64	C	-0.001904	-0.478036	0.826113
C65	C	-0.577136	-0.978066	0.326121
C66	C	-0.077136	-0.478066	0.826121
C67	C	-0.612470	-1.021389	0.282883
C68	C	-0.112470	-0.521389	0.782883
C69	C	-0.683159	-1.021418	0.282898
C70	C	-0.183159	-0.521418	0.782898
C71	C	-0.718511	-0.978119	0.326148
C72	C	-0.218511	-0.478119	0.826148
C73	C	-0.683172	-0.934794	0.369391
C74	C	-0.183172	-0.434794	0.869391
C75	C	-0.612485	-0.934769	0.369379
C76	C	-0.112485	-0.434769	0.869379
C77	C	-0.968245	-0.934894	0.369441
C78	C	-0.468245	-0.434894	0.869441
C79	C	-1.038937	-0.934921	0.369448
C80	C	-0.538937	-0.434921	0.869448
C81	C	-1.038919	-1.021542	0.282960
C82	C	-0.538919	-0.521542	0.782960
C83	C	-0.968232	-1.021518	0.282948
C84	C	-0.468232	-0.521518	0.782948
C85	C	-0.932899	-0.978195	0.326193
C86	C	-0.432899	-0.478195	0.826193
C87	C	-0.856250	-0.978166	0.326177
C88	C	-0.356250	-0.478166	0.826177
C89	C	-0.795158	-0.978145	0.326161
C90	C	-0.295158	-0.478145	0.826161
C91	C	-0.149505	-0.978207	0.326193
C92	C	0.350495	-0.478207	0.826193
C93	C	-0.074273	-0.978248	0.326213
C94	C	0.425727	-0.478248	0.826213
C95	C	-0.326005	-0.978151	0.502688
C96	C	0.173995	-0.478151	1.002688
C97	C	-0.325987	-0.978167	0.577920
C98	C	0.174013	-0.478167	1.077920
C99	C	-0.326054	-0.154655	0.326169
C100	C	0.173946	0.345345	0.826169
C101	C	-0.326049	-0.229887	0.326164
C102	C	0.173951	0.270113	0.826164
C103	C	-0.326041	-0.978114	0.150289
C104	C	0.173959	-0.478114	0.650289
C105	C	-0.325869	-0.978229	0.075058
C106	C	0.174131	-0.478229	0.575058
C107	C	-0.282697	-1.021481	0.613284
C108	C	0.217303	-0.521481	1.113284
C109	C	-0.282677	-1.021488	0.683973
C110	C	0.217323	-0.521488	1.183973
C111	C	-0.325952	-0.978184	0.719296
C112	C	0.174048	-0.478184	1.219296
C113	C	-0.369244	-0.934864	0.683927
C114	C	0.130756	-0.434864	1.183927
C115	C	-0.369259	-0.934854	0.613240
C116	C	0.130741	-0.434854	1.113240
C117	C	-0.369181	-0.934902	0.969000
C118	C	0.130819	-0.434902	1.469000
C119	C	-0.369163	-0.934917	1.039692
C120	C	0.130837	-0.434917	1.539692
C121	C	-0.282598	-1.021536	1.039733
C122	C	0.217402	-0.521536	1.539733
C123	C	-0.282614	-1.021527	0.969046
C124	C	0.217386	-0.521527	1.469046
C125	C	-0.325903	-0.978205	0.933683
C126	C	0.174097	-0.478205	1.433683
C127	C	-0.325923	-0.978197	0.857035
C128	C	0.174077	-0.478197	1.357035
C129	C	-0.325936	-0.978194	0.795943
C130	C	0.174064	-0.478194	1.295943
H131	H	-0.404486	-0.364626	0.247484
H132	H	0.095514	0.135374	0.747484
H133	H	-0.583691	-1.056644	0.247661
H134	H	-0.083691	-0.556644	0.747661
H135	H	-0.939450	-1.056773	0.247728
H136	H	-0.439450	-0.556773	0.747728
C137	C	-0.235912	-0.582579	0.416504
C138	C	0.264088	-0.082579	0.916504
C139	C	-0.245155	-0.513101	0.407218
C140	C	0.254845	-0.013101	0.907218
C141	C	-0.201952	-0.477659	0.450512
C142	C	0.298048	0.022341	0.950512
H143	H	-0.245837	-0.594100	0.461989
H144	H	0.254163	-0.094100	0.961989
H145	H	-0.190406	-0.594139	0.406677
H146	H	0.309594	-0.094139	0.906677
H147	H	-0.290651	-0.501546	0.417051
H148	H	0.209349	-0.001546	0.917051
H149	H	-0.235225	-0.501560	0.361743
H150	H	0.264775	-0.001560	0.861743
H151	H	-0.156445	-0.489219	0.440685
H152	H	0.343555	0.010781	0.940685
H153	H	-0.211880	-0.489185	0.495995
H154	H	0.288120	0.010815	0.995995
H155	H	-0.208212	-0.430515	0.444213
H156	H	0.291788	0.069485	0.944213
C157	C	-0.416108	-0.730009	0.235591
C158	C	0.083892	-0.230009	0.735591
C159	C	-0.377729	-0.770573	0.192259
C160	C	0.122271	-0.270573	0.692259
C161	C	-0.420841	-0.805921	0.148797
C162	C	0.079159	-0.305921	0.648797
H163	H	-0.445641	-0.757639	0.261352
H164	H	0.054359	-0.257639	0.761352
H165	H	-0.441849	-0.698835	0.209730
H166	H	0.058151	-0.198835	0.709730
H167	H	-0.352000	-0.801744	0.218116
H168	H	0.148000	-0.301744	0.718116
H169	H	-0.348198	-0.742960	0.166482
H170	H	0.151802	-0.242960	0.666482
H171	H	-0.446582	-0.774747	0.122937
H172	H	0.053418	-0.274747	0.622937
H173	H	-0.450372	-0.833547	0.174564
H174	H	0.049628	-0.333547	0.674564
H175	H	-0.394807	-0.833443	0.119387
H176	H	0.105193	-0.333443	0.619387
C177	C	-0.416332	-0.226857	0.235760
C178	C	0.083668	0.273143	0.735760
C179	C	-0.483317	-0.244041	0.250365
C180	C	0.016683	0.255959	0.750365
C181	C	-0.526677	-0.208751	0.207043
C182	C	-0.026677	0.291249	0.707043
H183	H	-0.410235	-0.179692	0.241933
H184	H	0.089765	0.320308	0.741933
H185	H	-0.406408	-0.238437	0.190287
H186	H	0.093592	0.261563	0.690287
H187	H	-0.493237	-0.232457	0.295827
H188	H	0.006763	0.267543	0.795827
H189	H	-0.489436	-0.291200	0.244188
H190	H	0.010564	0.208800	0.744188
H191	H	-0.516754	-0.220332	0.161570
H192	H	-0.016754	0.279668	0.661570
H193	H	-0.520574	-0.161588	0.213220
H194	H	-0.020574	0.338412	0.713220
H195	H	-0.572131	-0.220411	0.216943
H196	H	-0.072131	0.279589	0.716943
C197	C	-0.574081	-0.887845	0.416406
C198	C	-0.074081	-0.387845	0.916406
C199	C	-0.533453	-0.926135	0.459829
C200	C	-0.033453	-0.426135	0.959829
C201	C	-0.498073	-0.882934	0.503170
C202	C	0.001927	-0.382934	1.003170
H203	H	-0.546491	-0.858347	0.390562
H204	H	-0.046491	-0.358347	0.890562
H205	H	-0.605236	-0.862072	0.442207
H206	H	-0.105236	-0.362072	0.942207
H207	H	-0.502303	-0.951897	0.434031
H208	H	-0.002303	-0.451897	0.934031
H209	H	-0.561027	-0.955632	0.485689
H210	H	-0.061027	-0.455632	0.985689
H211	H	-0.529228	-0.857161	0.528970
H212	H	-0.029228	-0.357161	1.028970
H213	H	-0.470487	-0.853438	0.477319
H214	H	0.029513	-0.353438	0.977319
H215	H	-0.470508	-0.908907	0.532641
H216	H	0.029492	-0.408907	1.032641
C217	C	-0.235858	-0.227064	0.416684
C218	C	0.264142	0.272936	0.916684
C219	C	-0.198014	-0.273184	0.454670
C220	C	0.301986	0.226816	0.954670
C221	C	-0.154754	-0.238016	0.498131
C222	C	0.345246	0.261984	0.998131
H223	H	-0.206272	-0.199487	0.390927
H224	H	0.293728	0.300513	0.890927
H225	H	-0.261775	-0.199506	0.446167
H226	H	0.238225	0.300494	0.946167
H227	H	-0.172099	-0.300730	0.425191
H228	H	0.327901	0.199270	0.925191
H229	H	-0.227582	-0.300762	0.480441
H230	H	0.272418	0.199238	0.980441
H231	H	-0.180671	-0.210458	0.527614
H232	H	0.319329	0.289542	1.027614
H233	H	-0.125173	-0.210441	0.472368
H234	H	0.374827	0.289559	0.972368
H235	H	-0.129076	-0.269303	0.523914
H236	H	0.370924	0.230697	1.023914
C237	C	-0.721400	-1.068478	0.235877
C238	C	-0.221400	-0.568478	0.735877
C239	C	-0.675310	-1.106375	0.197982
C240	C	-0.175310	-0.606375	0.697982
C241	C	-0.710513	-1.149730	0.154651
C242	C	-0.210513	-0.649730	0.654651
H243	H	-0.748934	-1.098027	0.261724
H244	H	-0.248934	-0.598027	0.761724
H245	H	-0.749003	-1.042627	0.206331
H246	H	-0.249003	-0.542627	0.706331
H247	H	-0.647719	-1.132224	0.227524
H248	H	-0.147719	-0.632224	0.727524
H249	H	-0.647775	-1.076844	0.172121
H250	H	-0.147775	-0.576844	0.672121
H251	H	-0.738116	-1.123879	0.125105
H252	H	-0.238116	-0.623879	0.625105
H253	H	-0.738046	-1.179274	0.180504
H254	H	-0.238046	-0.679274	0.680504
H255	H	-0.679246	-1.175444	0.128930
H256	H	-0.179246	-0.675444	0.628930
C257	C	-0.235615	-1.068493	1.078251
C258	C	0.264385	-0.568493	1.578251
C259	C	-0.244845	-1.059221	1.147716
C260	C	0.255155	-0.559221	1.647716
C261	C	-0.201572	-1.102459	1.183217
C262	C	0.298428	-0.602459	1.683217
H263	H	-0.245484	-1.113990	1.066757
H264	H	0.254516	-0.613990	1.566757
H265	H	-0.190126	-1.058604	1.066712
H266	H	0.309874	-0.558604	1.566712
H267	H	-0.290324	-1.069115	1.159250
H268	H	0.209676	-0.569115	1.659250
H269	H	-0.234971	-1.013733	1.159230
H270	H	0.265029	-0.513733	1.659230
H271	H	-0.156083	-1.092570	1.171678
H272	H	0.343917	-0.592570	1.671678
H273	H	-0.211445	-1.147954	1.171717
H274	H	0.288555	-0.647954	1.671717
H275	H	-0.207824	-1.096170	1.230353
H276	H	0.292176	-0.596170	1.730353
H277	H	-0.711962	-0.899543	0.404609
H278	H	-0.211962	-0.399543	0.904609
C279	C	-0.416243	-0.887833	0.930734
C280	C	0.083757	-0.387833	1.430734
C281	C	-0.454144	-0.849922	0.976801
C282	C	0.045856	-0.349922	1.476801
C283	C	-0.497508	-0.806554	0.941572
C284	C	0.002492	-0.306554	1.441572
H285	H	-0.390420	-0.858295	0.903166
H286	H	0.109580	-0.358295	1.403166
H287	H	-0.445784	-0.913675	0.903163
H288	H	0.054216	-0.413675	1.403163
H289	H	-0.424607	-0.824082	1.004361
H290	H	0.075393	-0.324082	1.504361
H291	H	-0.479982	-0.879443	1.004371
H292	H	0.020018	-0.379443	1.504371
H293	H	-0.527049	-0.832396	0.914001
H294	H	-0.027049	-0.332396	1.414001
H295	H	-0.471679	-0.777019	0.914005
H296	H	0.028321	-0.277019	1.414005
H297	H	-0.523234	-0.780830	0.972823
H298	H	-0.023234	-0.280830	1.472823
H299	H	-0.247615	-0.720534	0.404791
H300	H	0.252385	-0.220534	0.904791
H301	H	-0.247621	-0.364763	0.404831
H302	H	0.252379	0.135237	0.904831
H303	H	-0.247378	-1.056792	0.940290
H304	H	0.252622	-0.556792	1.440290
H305	H	-0.404488	-0.592150	0.247455
H306	H	0.095512	-0.092150	0.747455
C307	C	-1.077189	-1.068701	0.236052
C308	C	-0.577189	-0.568701	0.736052
C309	C	-1.059903	-1.135650	0.250845
C310	C	-0.559903	-0.635650	0.750845
C311	C	-1.095131	-1.179110	0.207641
C312	C	-0.595131	-0.679110	0.707641
H313	H	-1.124362	-1.062618	0.242205
H314	H	-0.624362	-0.562618	0.742205
H315	H	-1.065626	-1.058858	0.190552
H316	H	-0.565626	-0.558858	0.690552
H317	H	-1.071469	-1.145490	0.296333
H318	H	-0.571469	-0.645490	0.796333
H319	H	-1.012735	-1.141755	0.244687
H320	H	-0.512735	-0.641755	0.744687
H321	H	-1.083569	-1.169267	0.162141
H322	H	-0.583569	-0.669267	0.662141
H323	H	-1.142303	-1.173021	0.213797
H324	H	-0.642303	-0.673021	0.713797
H325	H	-1.083403	-1.224539	0.217667
H326	H	-0.583403	-0.724539	0.717667
C327	C	-1.077200	-0.887887	0.416487
C328	C	-0.577200	-0.387887	0.916487
C329	C	-1.031128	-0.849955	0.454372
C330	C	-0.531128	-0.349955	0.954372
C331	C	-1.066350	-0.806630	0.497714
C332	C	-0.566350	-0.306630	0.997714
H333	H	-1.104819	-0.858359	0.390648
H334	H	-0.604819	-0.358359	0.890648
H335	H	-1.104720	-0.913761	0.446039
H336	H	-0.604720	-0.413761	0.946039
H337	H	-1.003620	-0.824083	0.424823
H338	H	-0.503620	-0.324083	0.924823
H339	H	-1.003507	-0.879466	0.480224
H340	H	-0.503507	-0.379466	0.980224
H341	H	-1.093870	-0.832504	0.527266
H342	H	-0.593870	-0.332504	1.027266
H343	H	-1.093969	-0.777107	0.471869
H344	H	-0.593969	-0.277107	0.971869
H345	H	-1.035096	-0.780893	0.523428
H346	H	-0.535096	-0.280893	1.023428
H347	H	-0.939482	-0.899618	0.404651
H348	H	-0.439482	-0.399618	0.904651
H349	H	-0.247460	-1.056747	0.584529
H350	H	0.252540	-0.556747	1.084529
H351	H	-0.404476	-0.899602	0.712693
H352	H	0.095524	-0.399602	1.212693
H353	H	-0.247427	-1.056761	0.712763
H354	H	0.252573	-0.556761	1.212763
H355	H	-0.404404	-0.899650	1.068451
H356	H	0.095596	-0.399650	1.568451
H357	H	-0.404504	-0.899576	0.584447
H358	H	0.095496	-0.399576	1.084447
