data_functionalizedCrystal
_audit_creation_method	'MofGen! by Chris Wilmer'
_symmetry_space_group_name_H-M	'P1'
_symmetry_Int_Tables_number	1
_symmetry_cell_setting	triclinic
loop_
_symmetry_equiv_pos_as_xyz
  x,y,z
_cell_length_a	16.625546
_cell_length_b	19.077241
_cell_length_c	19.076919
_cell_angle_alpha	90.113904
_cell_angle_beta	92.269917
_cell_angle_gamma	87.685699
loop_
_atom_site_label
_atom_site_type_symbol
_atom_site_fract_x
_atom_site_fract_y
_atom_site_fract_z
Zn1	Zn	-0.292710	-1.058300	-0.440558
Zn2	Zn	0.207290	-0.558300	0.059442
Zn3	Zn	-0.421926	-1.062944	-0.323048
Zn4	Zn	0.078074	-0.562944	0.176952
Zn5	Zn	-0.292285	-0.945515	-0.318335
Zn6	Zn	0.207715	-0.445515	0.181665
Zn7	Zn	-0.432681	-0.940763	-0.435783
Zn8	Zn	0.067319	-0.440763	0.064217
O9	O	-0.359900	-1.001880	-0.379431
O10	O	0.140100	-0.501880	0.120569
O11	O	-0.305528	-1.157249	-0.428940
O12	O	0.194472	-0.657249	0.071060
O13	O	-0.400050	-1.051299	-0.224092
O14	O	0.099950	-0.551299	0.275908
O15	O	-0.179508	-0.960521	-0.334574
O16	O	0.320492	-0.460521	0.165426
O17	O	-0.400462	-1.160661	-0.342606
O18	O	0.099538	-0.660661	0.157394
O19	O	-0.179820	-1.043384	-0.424371
O20	O	0.320180	-0.543384	0.075629
O21	O	-0.304804	-0.965025	-0.220630
O22	O	0.195196	-0.465025	0.279370
O23	O	-0.315232	-0.846551	-0.329945
O24	O	0.184768	-0.346551	0.170055
O25	O	-0.418792	-0.952423	-0.534747
O26	O	0.081208	-0.452423	-0.034747
O27	O	-0.418380	-0.843060	-0.416233
O28	O	0.081620	-0.343060	0.083767
O29	O	-0.315956	-1.038776	-0.538255
O30	O	0.184044	-0.538776	-0.038255
O31	O	-0.536186	-1.046691	-0.337977
O32	O	-0.036186	-0.546691	0.162023
O33	O	-0.544087	-0.956926	-0.420803
O34	O	-0.044087	-0.456926	0.079197
C35	C	-0.367928	-0.819309	-0.372060
C36	C	0.132072	-0.319309	0.127940
C37	C	-0.371382	-0.741203	-0.368923
C38	C	0.128618	-0.241203	0.131077
C39	C	-0.323662	-0.702731	-0.412467
C40	C	0.176338	-0.202731	0.087533
C41	C	-0.326904	-0.629343	-0.409514
C42	C	0.173096	-0.129343	0.090486
C43	C	-0.377869	-0.594428	-0.363019
C44	C	0.122131	-0.094428	0.136981
C45	C	-0.425591	-0.632906	-0.319470
C46	C	0.074409	-0.132906	0.180530
C47	C	-0.422344	-0.706293	-0.322420
C48	C	0.077656	-0.206293	0.177580
C49	C	-0.392865	-0.375136	-0.349364
C50	C	0.107135	0.124864	0.150636
C51	C	-0.396110	-0.301743	-0.346419
C52	C	0.103890	0.198257	0.153581
C53	C	-0.297421	-0.298185	-0.436462
C54	C	0.202579	0.201815	0.063538
C55	C	-0.294183	-0.371573	-0.439411
C56	C	0.205817	0.128427	0.060589
C57	C	-0.341901	-0.410045	-0.395860
C58	C	0.158099	0.089955	0.104140
N59	N	-0.381186	-0.519414	-0.360001
N60	N	0.118814	-0.019414	0.139999
N61	N	-0.338580	-0.485058	-0.398875
N62	N	0.161420	0.014942	0.101125
C63	C	-0.569393	-1.001815	-0.379399
C64	C	-0.069393	-0.501815	0.120601
C65	C	-0.659013	-1.001851	-0.379411
C66	C	-0.159013	-0.501851	0.120589
C67	C	-0.987187	-1.001970	-0.379489
C68	C	-0.487187	-0.501970	0.120511
C69	C	-0.895879	-1.001935	-0.379469
C70	C	-0.395879	-0.501935	0.120531
C71	C	-0.823103	-1.001910	-0.379450
C72	C	-0.323103	-0.501910	0.120550
C73	C	-0.731789	-1.001875	-0.379431
C74	C	-0.231789	-0.501875	0.120569
C75	C	-0.149590	-1.001965	-0.379479
C76	C	0.350410	-0.501965	0.120521
C77	C	-0.059968	-1.002000	-0.379500
C78	C	0.440032	-0.502000	0.120500
C79	C	-0.368621	-0.994551	-0.562710
C80	C	0.131379	-0.494551	-0.062710
C81	C	-0.372337	-0.991428	-0.640812
C82	C	0.127663	-0.491428	-0.140812
C83	C	-0.351838	-0.185165	-0.386826
C84	C	0.148162	0.314835	0.113174
C85	C	-0.348390	-0.263271	-0.389963
C86	C	0.151610	0.236729	0.110037
C87	C	-0.320545	-1.034918	-0.679333
C88	C	0.179455	-0.534918	-0.179333
C89	C	-0.324034	-1.031975	-0.752718
C90	C	0.175966	-0.531975	-0.252718
C91	C	-0.379320	-0.985544	-0.787582
C92	C	0.120680	-0.485544	-0.287582
C93	C	-0.431115	-0.942050	-0.749056
C94	C	0.068885	-0.442050	-0.249056
C95	C	-0.427621	-0.944990	-0.675672
C96	C	0.072379	-0.444990	-0.175672
C97	C	-0.395506	-0.971927	-1.006861
C98	C	0.104494	-0.471927	-0.506861
C99	C	-0.398997	-0.968991	-1.080250
C100	C	0.101003	-0.468991	-0.580250
C101	C	-0.291914	-1.058915	-1.083906
C102	C	0.208086	-0.558915	-0.583906
C103	C	-0.288429	-1.061854	-1.010521
C104	C	0.211571	-0.561854	-0.510521
C105	C	-0.340221	-1.018357	-0.972002
C106	C	0.159779	-0.518357	-0.472002
N107	N	-0.382889	-0.982536	-0.862593
N108	N	0.117111	-0.482536	-0.362593
N109	N	-0.336647	-1.021362	-0.896991
N110	N	0.163353	-0.521362	-0.396991
C111	C	-0.351154	-1.009222	-0.196867
C112	C	0.148846	-0.509222	0.303133
C113	C	-0.347204	-1.012481	-0.118770
C114	C	0.152796	-0.512481	0.381230
H115	H	-0.258571	-0.266853	-0.471918
H116	H	0.241429	0.233147	0.028082
N117	N	-0.264059	-1.082344	-0.643734
N118	N	0.235941	-0.582344	-0.143734
N119	N	-0.190253	-1.077381	-0.651764
N120	N	0.309747	-0.577381	-0.151764
H121	H	-0.150355	-1.110876	-0.626625
H122	H	0.349645	-0.610876	-0.126625
H123	H	-0.437616	-0.273318	-0.308557
H124	H	0.062384	0.226682	0.191443
H125	H	-0.431721	-0.406450	-0.313902
H126	H	0.068279	0.093550	0.186098
N127	N	-0.242115	-0.407246	-0.486891
N128	N	0.257885	0.092754	0.013109
N129	N	-0.239220	-0.472770	-0.489515
N130	N	0.260780	0.027230	0.010485
H131	H	-0.202447	-0.497966	-0.523048
H132	H	0.297553	0.002034	-0.023048
N133	N	-0.448403	-0.927488	-0.967525
N134	N	0.051597	-0.427488	-0.467525
N135	N	-0.446291	-0.862322	-0.973110
N136	N	0.053709	-0.362322	-0.473110
H137	H	-0.483652	-0.830933	-0.945328
H138	H	0.016348	-0.330933	-0.445328
H139	H	-0.282163	-0.731152	-0.450330
H140	H	0.217837	-0.231152	0.049670
N141	N	-0.477640	-0.597234	-0.271975
N142	N	0.022360	-0.097234	0.228025
N143	N	-0.480534	-0.531710	-0.269346
N144	N	0.019466	-0.031710	0.230654
H145	H	-0.517296	-0.506516	-0.235803
H146	H	-0.017296	-0.006516	0.264197
H147	H	-0.461202	-0.737617	-0.286961
H148	H	0.038798	-0.237617	0.213039
H149	H	-0.469789	-0.909569	-0.644310
H150	H	0.030211	-0.409569	-0.144310
H151	H	-0.281860	-1.067390	-0.784078
H152	H	0.218140	-0.567390	-0.284078
H153	H	-0.243411	-1.099665	-0.982140
H154	H	0.256589	-0.599665	-0.482140
N155	N	-0.239020	-1.103340	-1.123264
N156	N	0.260980	-0.603340	-0.623264
N157	N	-0.242145	-1.100712	-1.188785
N158	N	0.257855	-0.600712	-0.688785
H159	H	-0.204785	-1.132087	-1.216582
H160	H	0.295215	-0.632087	-0.716582
N161	N	-0.455454	-0.921535	-1.115852
N162	N	0.044546	-0.421535	-0.615852
N163	N	-0.501675	-0.882686	-1.081452
N164	N	-0.001675	-0.382686	-0.581452
H165	H	-0.541536	-0.849163	-1.106595
H166	H	-0.041536	-0.349163	-0.606595
N167	N	-0.487578	-0.894620	-0.784677
N168	N	0.012422	-0.394620	-0.284677
N169	N	-0.490691	-0.892001	-0.850198
N170	N	0.009309	-0.392001	-0.350198
H171	H	-0.530570	-0.858503	-0.875356
H172	H	-0.030570	-0.358503	-0.375356
H173	H	-0.288047	-0.598021	-0.444974
H174	H	0.211953	-0.098021	0.055026
