data_functionalizedCrystal
_audit_creation_method	'MofGen! by Chris Wilmer'
_symmetry_space_group_name_H-M	'P1'
_symmetry_Int_Tables_number	1
_symmetry_cell_setting	triclinic
loop_
_symmetry_equiv_pos_as_xyz
  x,y,z
_cell_length_a	10.489741
_cell_length_b	26.210047
_cell_length_c	10.489741
_cell_angle_alpha	89.995802
_cell_angle_beta	95.460826
_cell_angle_gamma	90.013751
loop_
_atom_site_label
_atom_site_type_symbol
_atom_site_fract_x
_atom_site_fract_y
_atom_site_fract_z
O1	O	1.694076	0.042397	-0.179965
O2	O	1.322880	0.042405	-0.196858
O3	O	1.516925	0.042398	-0.002814
O4	O	1.500032	0.042404	-0.374010
O5	O	1.516863	-0.042460	-0.002813
O6	O	1.322819	-0.042453	-0.196857
O7	O	1.694014	-0.042461	-0.179964
Cu8	Cu	1.508411	-0.050205	-0.188411
Cu9	Cu	1.508484	0.050149	-0.188412
O10	O	1.499970	-0.042454	-0.374009
C11	C	1.275318	-0.000023	-0.195582
C12	C	1.133688	-0.000020	-0.191765
C13	C	1.065548	-0.000027	-0.068300
C14	C	0.973452	0.041812	-0.126624
C15	C	0.973425	-0.041851	-0.126652
C16	C	1.043457	0.041854	-0.250139
C17	C	1.043440	-0.041847	-0.250151
C18	C	0.951371	0.000003	-0.308564
N19	N	1.508369	-0.120789	-0.188409
C20	C	1.586542	-0.473304	-0.266519
C21	C	1.586580	-0.686962	-0.266519
O22	O	1.653017	-0.714584	-0.332916
N23	N	1.508514	-0.713683	-0.188399
C24	C	1.430439	-0.686986	-0.110268
O25	O	1.364050	-0.714616	-0.043813
C26	C	1.430409	-0.473328	-0.110263
C27	C	1.508471	-0.446610	-0.188397
C28	C	1.664599	-0.446585	-0.344646
C29	C	1.664583	-0.393174	-0.344650
C30	C	1.586512	-0.366481	-0.266528
C31	C	1.508455	-0.393199	-0.188402
C32	C	1.352342	-0.446632	-0.032126
C33	C	1.352344	-0.393214	-0.032129
C34	C	1.430405	-0.366496	-0.110263
C35	C	1.430368	-0.313094	-0.110284
N36	N	1.508434	-0.286373	-0.188403
C37	C	1.586506	-0.313066	-0.266525
C38	C	1.430459	-0.799159	-0.110278
C39	C	1.430464	-0.852573	-0.110281
C40	C	1.586607	-0.852546	-0.266530
C41	C	1.586594	-0.799131	-0.266533
C42	C	1.508525	-0.772438	-0.188398
C43	C	1.586467	-0.200899	-0.266530
C44	C	1.586441	-0.147482	-0.266531
C45	C	1.430303	-0.147515	-0.110278
C46	C	1.430324	-0.200926	-0.110281
C47	C	1.508416	-0.227617	-0.188411
O48	O	1.363977	-0.285439	-0.043911
O49	O	1.652907	-0.285427	-0.332950
C50	C	1.586558	-0.526715	-0.266515
C51	C	1.508501	-0.553433	-0.188388
C52	C	1.430430	-0.526740	-0.110266
C53	C	1.508507	-0.606847	-0.188391
C54	C	1.586579	-0.633541	-0.266513
C55	C	1.664645	-0.606820	-0.344632
C56	C	1.664630	-0.553408	-0.344637
C57	C	1.352364	-0.553461	-0.032146
C58	C	1.352384	-0.606872	-0.032149
C59	C	1.430456	-0.633566	-0.110271
C60	C	1.741577	-0.000032	-0.181241
C61	C	1.883206	-0.000031	-0.185058
C62	C	1.515618	-0.000031	0.044718
C63	C	1.511801	-0.000030	0.186348
N64	N	1.508536	0.120733	-0.188403
C65	C	1.501277	-0.000024	-0.421541
C66	C	1.505094	-0.000022	-0.563170
C67	C	1.388336	-0.000023	0.254488
C68	C	1.446629	-0.041864	0.346611
C69	C	1.446719	0.041799	0.346584
C70	C	1.570145	-0.041905	0.276605
C71	C	1.570218	0.041796	0.276569
C72	C	1.628600	-0.000055	0.368665
H73	H	0.942421	-0.077223	-0.074389
H74	H	0.901947	0.000027	-0.410168
H75	H	1.286824	-0.000063	0.204837
N76	N	1.666339	-0.879815	-0.346354
N77	N	1.617300	-0.909622	-0.430208
H78	H	1.673609	-0.928883	-0.486580
H79	H	1.650007	-0.125731	-0.330163
N80	N	1.082348	-0.086225	-0.315625
N81	N	1.060258	-0.129638	-0.273555
H82	H	1.087738	-0.160984	-0.319788
H83	H	0.942463	0.077183	-0.074384
N84	N	1.635724	0.086174	0.237633
N85	N	1.593686	0.129587	0.259695
H86	H	1.639941	0.160934	0.232194
N87	N	1.350697	-0.879854	-0.030483
N88	N	1.280999	-0.856008	0.039259
H89	H	1.224663	-0.875273	0.095623
N90	N	1.350690	-0.771906	-0.030460
N91	N	1.280993	-0.795776	0.039269
H92	H	1.224648	-0.776531	0.095636
H93	H	1.115238	0.000024	0.033196
N94	N	1.381176	0.086169	0.385449
N95	N	1.266916	0.093614	0.344319
H96	H	1.220616	0.124948	0.371764
N97	N	1.635579	-0.086338	0.237960
N98	N	1.679303	-0.117980	0.319924
H99	H	1.725511	-0.149361	0.292630
N100	N	1.272617	-0.365938	0.047686
N101	N	1.321664	-0.336127	0.131527
H102	H	1.265360	-0.316862	0.187895
H103	H	1.650058	-0.222624	-0.330150
N104	N	1.272593	-0.473907	0.047694
N105	N	1.202908	-0.450057	0.117441
H106	H	1.146581	-0.469319	0.173821
H107	H	1.366744	-0.222681	-0.046674
H108	H	1.728181	-0.468313	-0.408263
N109	N	1.082169	0.086270	-0.315650
N110	N	1.197927	0.093448	-0.329131
H111	H	1.225271	0.124814	-0.375405
H112	H	1.728155	-0.371425	-0.408270
H113	H	1.650158	-0.777380	-0.330158
H114	H	1.366735	-0.125771	-0.046676
N115	N	1.744394	-0.526129	-0.424441
N116	N	1.863123	-0.532088	-0.410324
H117	H	1.919465	-0.512826	-0.466688
N118	N	1.756064	-0.000089	0.430656
N119	N	1.830373	-0.036046	0.412191
H120	H	1.920395	-0.036072	0.455972
H121	H	1.728208	-0.628563	-0.408249
N122	N	1.272621	-0.634153	0.047666
N123	N	1.202924	-0.610307	0.117409
H124	H	1.146598	-0.629571	0.173783
N125	N	1.272598	-0.526207	0.047661
N126	N	1.202905	-0.550076	0.117395
H127	H	1.146557	-0.530831	0.173758
N128	N	1.381063	-0.086231	0.385550
N129	N	1.368473	-0.093511	0.501450
H130	H	1.322160	-0.124844	0.528950
