data_functionalizedCrystal
_audit_creation_method	'MofGen! by Chris Wilmer'
_symmetry_space_group_name_H-M	'P1'
_symmetry_Int_Tables_number	1
_symmetry_cell_setting	triclinic
loop_
_symmetry_equiv_pos_as_xyz
  x,y,z
_cell_length_a	12.594510
_cell_length_b	12.759401
_cell_length_c	12.759399
_cell_angle_alpha	90.016641
_cell_angle_beta	90.035177
_cell_angle_gamma	90.019001
loop_
_atom_site_label
_atom_site_type_symbol
_atom_site_fract_x
_atom_site_fract_y
_atom_site_fract_z
Zn1	Zn	-0.601794	-1.606243	0.418128
Zn2	Zn	-0.423813	-1.606139	0.593857
Zn3	Zn	-0.423829	-1.430548	0.418197
Zn4	Zn	-0.601749	-1.430533	0.593771
O5	O	-0.512796	-1.518366	0.505988
O6	O	-0.578196	-1.753250	0.441447
O7	O	-0.274869	-1.582809	0.570621
O8	O	-0.447462	-1.453904	0.271167
O9	O	-0.447434	-1.753174	0.570554
O10	O	-0.578212	-1.582987	0.271117
O11	O	-0.274881	-1.453803	0.441564
O12	O	-0.447419	-1.283525	0.441480
O13	O	-0.750701	-1.453878	0.570406
O14	O	-0.578136	-1.283514	0.570473
O15	O	-0.750734	-1.582972	0.441363
O16	O	-0.447391	-1.582794	0.740867
O17	O	-0.578120	-1.453777	0.740803
C18	C	-0.512775	-1.245398	0.505976
C19	C	-0.512791	-1.128622	0.505995
C20	C	-0.512772	-1.518301	0.778956
C21	C	-0.512797	-1.518370	0.895732
C22	C	-0.790417	-1.518435	0.505867
C23	C	-0.908723	-1.518465	0.505815
C24	C	-0.977994	-1.588700	0.435624
C25	C	-1.048789	-1.492878	0.409910
C26	C	-1.048727	-1.614343	0.531455
C27	C	-0.977960	-1.422592	0.480053
C28	C	-0.977892	-1.544121	0.601642
C29	C	-1.048655	-1.448233	0.575965
C30	C	-0.236255	-1.518357	0.506033
C31	C	-0.117950	-1.518531	0.505789
C32	C	-0.512818	-1.792399	0.506002
C33	C	-0.512827	-1.909176	0.506008
C34	C	-0.580749	-1.073781	0.573264
C35	C	-0.580770	-0.964057	0.573268
C36	C	-0.444867	-0.964024	0.438732
C37	C	-0.444852	-1.073746	0.438723
C38	C	-0.706252	-0.814157	0.610957
C39	C	-0.774199	-0.759313	0.678243
C40	C	-0.790355	-0.794909	0.780772
C41	C	-0.738548	-0.885348	0.816038
C42	C	-0.670592	-0.940186	0.748758
C43	C	-0.654456	-0.904592	0.646214
C44	C	-0.319369	-1.223648	0.401045
C45	C	-0.251407	-1.278488	0.333770
C46	C	-0.235240	-1.242894	0.231238
C47	C	-0.287029	-1.152452	0.195977
C48	C	-0.354991	-1.097612	0.263252
C49	C	-0.371160	-1.133213	0.365782
C50	C	-0.512844	-1.518459	0.231955
C51	C	-0.512864	-1.518499	0.115178
C52	C	-0.444804	-1.585626	0.950592
C53	C	-0.444840	-1.585693	1.060317
C54	C	-0.580865	-1.451240	1.060311
C55	C	-0.580834	-1.451178	0.950589
C56	C	-0.406963	-1.709703	1.210195
C57	C	-0.338953	-1.776950	1.265059
C58	C	-0.235100	-1.793116	1.229526
C59	C	-0.199237	-1.742020	1.139131
C60	C	-0.267241	-1.674766	1.084272
C61	C	-0.371108	-1.658619	1.119804
C62	C	-0.618700	-1.327167	0.800708
C63	C	-0.686700	-1.259907	0.745848
C64	C	-0.790554	-1.243730	0.781379
C65	C	-0.826413	-1.294807	0.871778
C66	C	-0.758414	-1.362068	0.926638
C67	C	-0.654561	-1.378246	0.891099
H68	H	-0.946964	-1.647991	0.376230
H69	H	-0.389552	-0.919330	0.383963
H70	H	-1.079816	-1.695397	0.553151
Cl71	Cl	-1.096280	-1.356471	0.667583
H72	H	-0.845917	-1.188957	0.736703
H73	H	-0.368163	-1.818553	1.338658
H74	H	-0.636072	-1.118458	0.628039
Cl75	Cl	-0.488136	-1.347506	0.756031
Cl76	Cl	-0.420093	-0.983907	0.218924
H77	H	-0.238043	-1.633166	1.010673
H78	H	-0.816382	-0.685678	0.649520
H79	H	-0.946729	-1.565828	0.682670
Cl80	Cl	-0.605464	-1.053872	0.793082
H81	H	-1.079931	-1.471200	0.328860
Cl82	Cl	-0.930174	-1.297408	0.446421
Cl83	Cl	-0.758847	-0.930082	0.944946
H84	H	-0.845681	-0.750248	0.835556
Cl85	Cl	-0.685963	-0.769411	0.482051
Cl86	Cl	-0.186284	-1.392178	0.378107
Cl87	Cl	-0.149605	-1.877655	1.298500
H88	H	-0.273849	-1.123458	0.112493
H89	H	-0.179891	-1.287550	0.176467
H90	H	-0.332536	-1.252644	0.484532
H91	H	-0.910980	-1.281636	0.900707
Cl92	Cl	-0.666388	-1.366772	1.129280
Cl93	Cl	-0.537531	-1.689400	1.254862
H94	H	-0.389406	-1.640339	0.905931
Cl95	Cl	-0.068667	-1.762336	1.094474
H96	H	-0.787621	-1.403662	1.000242
H97	H	-0.657496	-1.218323	0.672236
