data_functionalizedCrystal
_audit_creation_method	'MofGen! by Chris Wilmer'
_symmetry_space_group_name_H-M	'P1'
_symmetry_Int_Tables_number	1
_symmetry_cell_setting	triclinic
loop_
_symmetry_equiv_pos_as_xyz
  x,y,z
_cell_length_a	13.032831
_cell_length_b	13.033768
_cell_length_c	13.033109
_cell_angle_alpha	90.915089
_cell_angle_beta	103.334486
_cell_angle_gamma	74.827794
loop_
_atom_site_label
_atom_site_type_symbol
_atom_site_fract_x
_atom_site_fract_y
_atom_site_fract_z
Zn1	Zn	-1.782994	0.734668	-0.723743
Zn2	Zn	-1.282994	1.234668	-0.223743
Zn3	Zn	-1.777173	0.884003	-0.529323
Zn4	Zn	-1.277173	1.384003	-0.029323
Zn5	Zn	-1.577084	0.683838	-0.529356
Zn6	Zn	-1.077084	1.183838	-0.029356
Zn7	Zn	-1.622177	0.883911	-0.684377
Zn8	Zn	-1.122177	1.383911	-0.184377
O9	O	-1.689857	0.796605	-0.616700
O10	O	-1.189857	1.296605	-0.116700
O11	O	-1.933262	0.775789	-0.714414
O12	O	-1.433262	1.275789	-0.214414
O13	O	-1.729322	0.836217	-0.383085
O14	O	-1.229322	1.336217	0.116915
O15	O	-1.587962	0.544353	-0.571630
O16	O	-1.087962	1.044353	-0.071630
O17	O	-1.928985	0.885505	-0.571574
O18	O	-1.428985	1.385505	-0.071574
O19	O	-1.739244	0.581697	-0.714446
O20	O	-1.239244	1.081697	-0.214446
O21	O	-1.582318	0.689157	-0.383109
O22	O	-1.082318	1.189157	0.116891
O23	O	-1.432025	0.689067	-0.533459
O24	O	-0.932025	1.189067	-0.033459
O25	O	-1.664818	0.885348	-0.835842
O26	O	-1.164818	1.385348	-0.335842
O27	O	-1.465155	0.836060	-0.647352
O28	O	-0.965155	1.336060	-0.147352
O29	O	-1.782969	0.775700	-0.864764
O30	O	-1.282969	1.275700	-0.364764
O31	O	-1.773048	1.030219	-0.533403
O32	O	-1.273048	1.530219	-0.033403
O33	O	-1.659173	1.030152	-0.647321
O34	O	-1.159173	1.530152	-0.147321
C35	C	-1.409427	0.757039	-0.586138
C36	C	-0.909427	1.257039	-0.086138
C37	C	-1.289465	0.740141	-0.573085
C38	C	-0.789465	1.240141	-0.073085
C39	C	-1.720405	1.068108	-0.586112
C40	C	-1.220405	1.568108	-0.086112
C41	C	-1.733577	1.184278	-0.573073
C42	C	-1.233577	1.684278	-0.073073
C43	C	-1.729573	0.836183	-0.889282
C44	C	-1.229573	1.336183	-0.389282
C45	C	-1.746497	0.853049	-1.005440
C46	C	-1.246497	1.353049	-0.505440
C47	C	-1.971382	0.836327	-0.647382
C48	C	-1.471382	1.336327	-0.147382
C49	C	-2.091351	0.853254	-0.660456
C50	C	-1.591351	1.353254	-0.160456
C51	C	-1.252399	0.805424	-0.623512
C52	C	-0.752399	1.305424	-0.123512
C53	C	-1.128412	0.787961	-0.610023
C54	C	-0.628412	1.287961	-0.110023
C55	C	-1.696648	1.356120	-0.610078
C56	C	-1.196648	1.856120	-0.110078
C57	C	-1.683041	1.236055	-0.623564
C58	C	-1.183041	1.736055	-0.123564
C59	C	-1.659210	1.524049	-0.647441
C60	C	-1.159210	2.024049	-0.147441
C61	C	-1.646118	1.407900	-0.660562
C62	C	-1.146118	1.907900	-0.160562
C63	C	-1.681308	0.787806	-1.057239
C64	C	-1.181308	1.287806	-0.557239
C65	C	-1.698799	0.805236	-1.177295
C66	C	-1.198799	1.305236	-0.677295
C67	C	-1.650349	0.757114	-0.345193
C68	C	-1.150349	1.257114	0.154807
C69	C	-1.633600	0.739984	-0.229091
C70	C	-1.133600	1.239984	0.270909
H71	H	-1.312457	0.874241	-0.676674
H72	H	-0.812457	1.374241	-0.176674
C73	C	-1.768703	1.416303	-0.538204
C74	C	-1.268703	1.916303	-0.038204
H75	H	-1.768403	1.489107	-0.538575
H76	H	-1.268403	1.989107	-0.038575
H77	H	-1.740737	1.386085	-0.468244
H78	H	-1.240737	1.886085	0.031756
H79	H	-1.841437	1.410859	-0.563467
H80	H	-1.341437	1.910859	-0.063467
H81	H	-1.629698	1.191502	-0.676769
H82	H	-1.129698	1.691502	-0.176769
H83	H	-1.786913	1.228828	-0.519861
H84	H	-1.286913	1.728828	-0.019861
C85	C	-1.574070	1.347719	-0.732442
C86	C	-1.074070	1.847719	-0.232442
H87	H	-1.574383	1.274918	-0.732083
H88	H	-1.074383	1.774918	-0.232083
H89	H	-1.501340	1.353164	-0.707197
H90	H	-1.001340	1.853164	-0.207197
H91	H	-1.602054	1.377941	-0.802406
H92	H	-1.102054	1.877941	-0.302406
C93	C	-1.588419	0.694912	-0.997089
C94	C	-1.088419	1.194912	-0.497089
H95	H	-1.588854	0.695379	-0.924290
H96	H	-1.088854	1.195379	-0.424290
H97	H	-1.520196	0.702539	-1.005297
H98	H	-1.020196	1.202539	-0.505297
H99	H	-1.598914	0.629500	-1.024565
H100	H	-1.098914	1.129500	-0.524565
C101	C	-1.791696	0.898131	-1.237443
C102	C	-1.291696	1.398131	-0.737443
H103	H	-1.791271	0.897655	-1.310244
H104	H	-1.291271	1.397655	-0.810244
H105	H	-1.781217	0.963543	-1.209969
H106	H	-1.281217	1.463543	-0.709969
H107	H	-1.859920	0.890489	-1.229236
H108	H	-1.359920	1.390489	-0.729236
H109	H	-1.068357	0.719133	-0.556865
H110	H	-0.568357	1.219133	-0.056865
H111	H	-1.151405	0.922074	-0.713626
H112	H	-0.651405	1.422074	-0.213626
H113	H	-1.564833	0.671219	-1.184563
H114	H	-1.064833	1.171219	-0.684563
C115	C	-1.208346	0.647166	-0.501273
C116	C	-0.708346	1.147166	-0.001273
H117	H	-1.247679	0.608467	-0.471391
H118	H	-0.747679	1.108467	0.028609
H119	H	-1.162217	0.674294	-0.446428
H120	H	-0.662217	1.174294	0.053572
H121	H	-1.165109	0.601360	-0.541707
H122	H	-0.665109	1.101360	-0.041707
H123	H	-1.815256	0.921811	-1.049974
H124	H	-1.315256	1.421811	-0.549974
