data_functionalizedCrystal
_audit_creation_method	'MofGen! by Chris Wilmer'
_symmetry_space_group_name_H-M	'P1'
_symmetry_Int_Tables_number	1
_symmetry_cell_setting	triclinic
loop_
_symmetry_equiv_pos_as_xyz
  x,y,z
_cell_length_a	10.723023
_cell_length_b	9.198806
_cell_length_c	8.559649
_cell_angle_alpha	89.998257
_cell_angle_beta	102.876894
_cell_angle_gamma	90.003500
loop_
_atom_site_label
_atom_site_type_symbol
_atom_site_fract_x
_atom_site_fract_y
_atom_site_fract_z
O1	O	1.634237	0.120870	-0.223864
O2	O	1.268888	0.120876	-0.245294
O3	O	1.483750	0.120871	-0.002330
O4	O	1.419375	0.120875	-0.466828
O5	O	1.483735	-0.120914	-0.002328
O6	O	1.268873	-0.120909	-0.245292
O7	O	1.634222	-0.120915	-0.223862
Cu8	Cu	1.451546	-0.142989	-0.234577
Cu9	Cu	1.451564	0.142950	-0.234579
O10	O	1.419360	-0.120910	-0.466826
C11	C	1.222540	-0.000016	-0.243734
C12	C	1.084464	-0.000014	-0.239068
C13	C	0.880212	0.125238	-0.232168
C14	C	1.022921	0.125239	-0.236990
N15	N	1.451543	-0.344103	-0.234574
C16	C	1.514819	-0.416301	-0.327129
C17	C	1.514838	-0.583713	-0.327127
C18	C	1.680569	-0.000020	-0.225422
C19	C	1.818645	-0.000013	-0.230087
C20	C	1.488621	-0.000019	0.057148
C21	C	1.503143	-0.000011	0.234369
N22	N	1.451578	0.344064	-0.234569
C23	C	1.414489	-0.000017	-0.526303
C24	C	1.399967	-0.000015	-0.703524
H25	H	0.827272	0.232469	-0.230370
H26	H	1.075865	0.232470	-0.238789
C27	C	1.588022	-0.667572	-0.434185
H28	H	1.627699	-0.600542	-0.492263
H29	H	1.651513	-0.726943	-0.369209
H30	H	1.529990	-0.726952	-0.507160
H31	H	1.397396	-0.593857	-0.155333
C32	C	1.637494	-0.000022	0.345685
H33	H	1.700273	-0.000027	0.282958
H34	H	1.647557	0.084286	0.411391
H35	H	1.647541	-0.084356	0.411367
C36	C	1.378367	-0.428012	-0.127528
H37	H	1.338670	-0.361006	-0.069455
H38	H	1.314892	-0.487400	-0.192515
H39	H	1.436404	-0.487379	-0.054548
C40	C	1.265623	-0.000007	0.185167
H41	H	1.202842	-0.000022	0.247891
H42	H	1.255573	0.084311	0.119474
H43	H	1.255565	-0.084332	0.119472
C44	C	1.012962	-0.144890	-0.236655
H45	H	1.070085	-0.223471	-0.238597
H46	H	0.980761	-0.150297	-0.142031
H47	H	0.943929	-0.150290	-0.327879
C48	C	1.587982	-0.332385	-0.434185
H49	H	1.578363	-0.230874	-0.420151
H50	H	1.676112	-0.357239	-0.405259
H51	H	1.554586	-0.357260	-0.543207
H52	H	0.871589	-0.107244	-0.231868
