data_functionalizedCrystal
_audit_creation_method	'MofGen! by Chris Wilmer'
_symmetry_space_group_name_H-M	'P1'
_symmetry_Int_Tables_number	1
_symmetry_cell_setting	triclinic
loop_
_symmetry_equiv_pos_as_xyz
  x,y,z
_cell_length_a	21.295411
_cell_length_b	21.295418
_cell_length_c	21.295417
_cell_angle_alpha	90.046319
_cell_angle_beta	90.021644
_cell_angle_gamma	90.043738
loop_
_atom_site_label
_atom_site_type_symbol
_atom_site_fract_x
_atom_site_fract_y
_atom_site_fract_z
Zn1	Zn	-0.356234	-0.962356	0.250415
Zn2	Zn	0.143766	-0.462356	0.750415
Zn3	Zn	-0.250959	-0.962258	0.355667
Zn4	Zn	0.249041	-0.462258	0.855667
Zn5	Zn	-0.250943	-0.857079	0.250445
Zn6	Zn	0.249057	-0.357079	0.750445
Zn7	Zn	-0.356155	-0.857048	0.355680
Zn8	Zn	0.143845	-0.357048	0.855680
O9	O	-0.303573	-0.909685	0.303052
O10	O	0.196427	-0.409685	0.803052
O11	O	-0.342308	-1.050432	0.264360
O12	O	0.157692	-0.550432	0.764360
O13	O	-0.162867	-0.948278	0.341716
O14	O	0.337133	-0.448278	0.841716
O15	O	-0.264937	-0.871098	0.162351
O16	O	0.235063	-0.371098	0.662351
O17	O	-0.264963	-1.050361	0.341688
O18	O	0.235037	-0.550361	0.841688
O19	O	-0.342293	-0.948444	0.162330
O20	O	0.157707	-0.448444	0.662330
O21	O	-0.162856	-0.871003	0.264410
O22	O	0.337144	-0.371003	0.764410
O23	O	-0.264861	-0.768985	0.264422
O24	O	0.235139	-0.268985	0.764422
O25	O	-0.444255	-0.871046	0.341709
O26	O	0.055745	-0.371046	0.841709
O27	O	-0.342160	-0.768963	0.341738
O28	O	0.157840	-0.268963	0.841738
O29	O	-0.444313	-0.948415	0.264372
O30	O	0.055687	-0.448415	0.764372
O31	O	-0.264887	-0.948248	0.443758
O32	O	0.235113	-0.448248	0.943758
O33	O	-0.342175	-0.870951	0.443767
O34	O	0.157825	-0.370951	0.943767
C35	C	-0.303500	-0.746134	0.303085
C36	C	0.196500	-0.246134	0.803085
C37	C	-0.303484	-0.676166	0.303114
C38	C	0.196516	-0.176166	0.803114
C39	C	-0.303538	-0.909603	0.466603
C40	C	0.196462	-0.409603	0.966603
C41	C	-0.303544	-0.909625	0.536571
C42	C	0.196456	-0.409625	1.036571
C43	C	-0.467763	-0.909738	0.303038
C44	C	0.032237	-0.409738	0.803038
C45	C	-0.537731	-0.909760	0.303033
C46	C	-0.037731	-0.409760	0.803033
C47	C	-0.570629	-0.950044	0.262761
C48	C	-0.070629	-0.450044	0.762761
C49	C	-0.636371	-0.950043	0.262734
C50	C	-0.136371	-0.450043	0.762734
C51	C	-0.669214	-0.909765	0.302989
C52	C	-0.169214	-0.409765	0.802989
C53	C	-0.636308	-0.869473	0.343263
C54	C	-0.136308	-0.369473	0.843263
C55	C	-0.570567	-0.869470	0.343285
C56	C	-0.070567	-0.369470	0.843285
N57	N	-0.772428	-0.904908	0.358058
N58	N	-0.272428	-0.404908	0.858058
N59	N	-0.834879	-0.904914	0.358036
N60	N	-0.334879	-0.404914	0.858036
C61	C	-0.867289	-0.909769	0.302926
C62	C	-0.367289	-0.409769	0.802926
N63	N	-0.834888	-0.914629	0.247837
N64	N	-0.334888	-0.414629	0.747837
N65	N	-0.772430	-0.914627	0.247860
N66	N	-0.272430	-0.414627	0.747860
C67	C	-0.740499	-0.909763	0.302970
C68	C	-0.240499	-0.409763	0.802970
C69	C	-0.971472	-0.950054	0.262621
C70	C	-0.471472	-0.450054	0.762621
C71	C	-1.037216	-0.950049	0.262593
C72	C	-0.537216	-0.450049	0.762593
C73	C	-1.037151	-0.869482	0.343128
C74	C	-0.537151	-0.369482	0.843128
C75	C	-0.971409	-0.869484	0.343151
C76	C	-0.471409	-0.369484	0.843151
C77	C	-0.938573	-0.909773	0.302898
C78	C	-0.438573	-0.409773	0.802898
C79	C	-0.140021	-0.909670	0.303019
C80	C	0.359979	-0.409670	0.803019
C81	C	-0.070054	-0.909769	0.302848
C82	C	0.429946	-0.409769	0.802848
C83	C	-0.303646	-1.073876	0.303019
C84	C	0.196354	-0.573876	0.803019
C85	C	-0.303677	-1.143844	0.303005
C86	C	0.196323	-0.643844	0.803005
C87	C	-0.343674	-0.643304	0.343426
C88	C	0.156326	-0.143304	0.843426
C89	C	-0.343702	-0.577561	0.343410
C90	C	0.156298	-0.077561	0.843410
C91	C	-0.303530	-0.544683	0.303090
C92	C	0.196470	-0.044683	0.803090
C93	C	-0.263337	-0.577553	0.262770
C94	C	0.236663	-0.077553	0.762770
C95	C	-0.263315	-0.643294	0.262783
C96	C	0.236685	-0.143294	0.762783
N97	N	-0.248472	-0.441407	0.298163
N98	N	0.251528	0.058593	0.798163
N99	N	-0.248495	-0.378956	0.298155
N100	N	0.251505	0.121044	0.798155
C101	C	-0.303596	-0.346608	0.303050
C102	C	0.196404	0.153392	0.803050
N103	N	-0.358675	-0.379072	0.307965
N104	N	0.141325	0.120928	0.807965
N105	N	-0.358650	-0.441529	0.307976
N106	N	0.141350	0.058471	0.807976
C107	C	-0.303550	-0.473398	0.303072
C108	C	0.196450	0.026602	0.803072
C109	C	-0.343820	-0.242461	0.343346
C110	C	0.156180	0.257539	0.843346
C111	C	-0.343849	-0.176717	0.343326
C112	C	0.156151	0.323283	0.843326
C113	C	-0.263479	-0.176710	0.262690
C114	C	0.236521	0.323290	0.762690
C115	C	-0.263455	-0.242453	0.262707
C116	C	0.236545	0.257547	0.762707
C117	C	-0.303625	-0.275324	0.303038
C118	C	0.196375	0.224676	0.803038
C119	C	-0.303622	-0.909785	0.138861
C120	C	0.196378	-0.409785	0.638861
C121	C	-0.303642	-0.909828	0.068893
C122	C	0.196358	-0.409828	0.568893
C123	C	-0.263342	-0.949910	0.569412
C124	C	0.236658	-0.449910	1.069412
C125	C	-0.263356	-0.949939	0.635155
C126	C	0.236644	-0.449939	1.135155
C127	C	-0.303566	-0.909673	0.668054
C128	C	0.196434	-0.409673	1.168054
C129	C	-0.343776	-0.869386	0.635205
C130	C	0.156224	-0.369386	1.135205
C131	C	-0.343765	-0.869362	0.569464
C132	C	0.156235	-0.369362	1.069464
N133	N	-0.308340	-0.854606	0.771336
N134	N	0.191660	-0.354606	1.271336
N135	N	-0.308347	-0.854630	0.833787
N136	N	0.191653	-0.354630	1.333787
C137	C	-0.303602	-0.909743	0.866129
C138	C	0.196398	-0.409743	1.366129
N139	N	-0.298838	-0.964832	0.833659
N140	N	0.201162	-0.464832	1.333659
N141	N	-0.298828	-0.964807	0.771202
N142	N	0.201172	-0.464807	1.271202
C143	C	-0.303582	-0.909695	0.739339
C144	C	0.196418	-0.409695	1.239339
C145	C	-0.263413	-0.950063	0.970255
C146	C	0.236587	-0.450063	1.470255
C147	C	-0.263431	-0.950094	1.035999
C148	C	0.236569	-0.450094	1.535999
C149	C	-0.343848	-0.869535	1.036048
C150	C	0.156152	-0.369535	1.536048
C151	C	-0.343833	-0.869510	0.970305
C152	C	0.156167	-0.369510	1.470305
C153	C	-0.303612	-0.909773	0.937413
C154	C	0.196388	-0.409773	1.437413
H155	H	-0.663162	-0.982846	0.229937
H156	H	-0.163162	-0.482846	0.729937
O157	O	-0.387119	-0.825897	0.534042
O158	O	0.112881	-0.325897	1.034042
H159	H	-0.436542	-0.836665	0.546621
H160	H	0.063458	-0.336665	1.046621
H161	H	-0.230664	-0.982850	0.943473
H162	H	0.269336	-0.482850	1.443473
H163	H	-0.376431	-0.550800	0.376236
H164	H	0.123569	-0.050800	0.876236
O165	O	-0.535087	-0.826004	0.386714
O166	O	-0.035087	-0.326004	0.886714
H167	H	-0.547705	-0.836759	0.436117
H168	H	-0.047705	-0.336759	0.936117
O169	O	-0.220067	-0.993544	1.071425
O170	O	0.279933	-0.493544	1.571425
H171	H	-0.192095	-1.021531	1.037506
H172	H	0.307905	-0.521531	1.537506
H173	H	-0.376516	-0.836602	0.661996
H174	H	0.123484	-0.336602	1.161996
H175	H	-0.663053	-0.836676	0.376038
H176	H	-0.163053	-0.336676	0.876038
O177	O	-0.387215	-0.826100	1.071524
O178	O	0.112785	-0.326100	1.571524
H179	H	-0.419279	-0.854268	1.101429
H180	H	0.080721	-0.354268	1.601429
O181	O	-0.535211	-0.993495	0.219346
O182	O	-0.035211	-0.493495	0.719346
H183	H	-0.569137	-1.021504	0.191335
H184	H	-0.069137	-0.521504	0.691335
O185	O	-0.936048	-0.993499	0.219202
O186	O	-0.436048	-0.493499	0.719202
H187	H	-0.969972	-1.021504	0.191185
H188	H	-0.469972	-0.521504	0.691185
O189	O	-0.387192	-0.826054	0.934882
O190	O	0.112808	-0.326054	1.434882
H191	H	-0.380433	-0.832805	0.883642
H192	H	0.119567	-0.332805	1.383642
O193	O	-0.219964	-0.993340	0.533939
O194	O	0.280036	-0.493340	1.033939
H195	H	-0.226705	-0.986554	0.482707
H196	H	0.273295	-0.486554	0.982707
H197	H	-0.376384	-0.670063	0.376266
H198	H	0.123616	-0.170063	0.876266
O199	O	-1.072569	-0.826034	0.386542
O200	O	-0.572569	-0.326034	0.886542
H201	H	-1.038644	-0.798018	0.414547
H202	H	-0.538644	-0.298018	0.914547
O203	O	-0.219995	-0.993402	0.670575
O204	O	0.280005	-0.493402	1.170575
H205	H	-0.248219	-1.025431	0.700465
H206	H	0.251781	-0.525431	1.200465
H207	H	-0.230773	-0.149942	0.229857
H208	H	0.269227	0.350058	0.729857
H209	H	-0.944623	-0.836683	0.375948
H210	H	-0.444623	-0.336683	0.875948
O211	O	-1.072703	-0.993501	0.219157
O212	O	-0.572703	-0.493501	0.719157
H213	H	-1.038823	-1.021519	0.191177
H214	H	-0.538823	-0.521519	0.691177
H215	H	-0.230630	-0.550779	0.229940
H216	H	0.269370	-0.050779	0.729940
H217	H	-0.230726	-0.269209	0.229884
H218	H	0.269274	0.230791	0.729884
O219	O	-0.219954	-0.678745	0.219314
O220	O	0.280046	-0.178745	0.719314
H221	H	-0.192019	-0.644841	0.191277
H222	H	0.307981	-0.144841	0.691277
O223	O	-0.387153	-0.277929	0.386827
O224	O	0.112847	0.222071	0.886827
H225	H	-0.376285	-0.265253	0.436218
H226	H	0.123715	0.234747	0.936218
O227	O	-0.387115	-0.141268	0.386890
O228	O	0.112885	0.358732	0.886890
H229	H	-0.415006	-0.175173	0.414970
H230	H	0.084994	0.324827	0.914970
