data_functionalizedCrystal
_audit_creation_method	'MofGen! by Chris Wilmer'
_symmetry_space_group_name_H-M	'P1'
_symmetry_Int_Tables_number	1
_symmetry_cell_setting	triclinic
loop_
_symmetry_equiv_pos_as_xyz
  x,y,z
_cell_length_a	19.805407
_cell_length_b	19.805405
_cell_length_c	21.395355
_cell_angle_alpha	89.980090
_cell_angle_beta	89.973672
_cell_angle_gamma	90.028350
loop_
_atom_site_label
_atom_site_type_symbol
_atom_site_fract_x
_atom_site_fract_y
_atom_site_fract_z
Zn1	Zn	1.034775	-0.269507	-0.354285
Zn2	Zn	1.034678	-0.382676	-0.249505
Zn3	Zn	0.921578	-0.269510	-0.249519
Zn4	Zn	0.921553	-0.382663	-0.354242
O5	O	0.978146	-0.326089	-0.301888
O6	O	1.129479	-0.284523	-0.340398
O7	O	1.019645	-0.367672	-0.161829
O8	O	0.936645	-0.174793	-0.263440
O9	O	1.129408	-0.367668	-0.263417
O10	O	1.019810	-0.174790	-0.340411
O11	O	0.936551	-0.284530	-0.161839
O12	O	0.826858	-0.284516	-0.263398
O13	O	0.936603	-0.367645	-0.441926
O14	O	0.826840	-0.367649	-0.340338
O15	O	1.019786	-0.284510	-0.441957
O16	O	1.019621	-0.477391	-0.263375
O17	O	0.936509	-0.477381	-0.340325
C18	C	0.802290	-0.326082	-0.301865
C19	C	0.727058	-0.326095	-0.301870
C20	C	0.265308	-0.282876	-0.342057
C21	C	0.335996	-0.282877	-0.342053
C22	C	0.371297	-0.326099	-0.301908
C23	C	0.335905	-0.369328	-0.261769
C24	C	0.265218	-0.369329	-0.261777
C25	C	0.620978	-0.369322	-0.261736
C26	C	0.691670	-0.369316	-0.261730
C27	C	0.691757	-0.282871	-0.342012
C28	C	0.621069	-0.282872	-0.342020
C29	C	0.585684	-0.326103	-0.301884
C30	C	0.509035	-0.326102	-0.301890
C31	C	0.447944	-0.326097	-0.301898
C32	C	0.978070	-0.501945	-0.301857
C33	C	0.978099	-0.577177	-0.301865
C34	C	1.021418	-0.612504	-0.261840
C35	C	1.021447	-0.683192	-0.261853
C36	C	0.978153	-0.718553	-0.301890
C37	C	0.934832	-0.683221	-0.341921
C38	C	0.934808	-0.612534	-0.341909
C39	C	0.934932	-0.968294	-0.341967
C40	C	0.934959	-1.038986	-0.341974
C41	C	1.021572	-1.038953	-0.261911
C42	C	1.021547	-0.968266	-0.261900
C43	C	0.978229	-0.932940	-0.301932
C44	C	0.978199	-0.856292	-0.301917
C45	C	0.978179	-0.795200	-0.301902
C46	C	1.154689	-0.326097	-0.301911
C47	C	1.229921	-0.326100	-0.301921
C48	C	0.978202	-0.326075	-0.465311
C49	C	0.978226	-0.326069	-0.534952
C50	C	0.978241	-0.149546	-0.301932
C51	C	0.978282	-0.074314	-0.301951
C52	C	1.021538	-0.282779	-0.567683
C53	C	1.021537	-0.282750	-0.633118
C54	C	0.978232	-0.326023	-0.665821
C55	C	0.934911	-0.369317	-0.633082
C56	C	0.934909	-0.369340	-0.567648
C57	C	0.972861	-0.386968	-0.769485
C58	C	0.972868	-0.386946	-0.834918
C59	C	0.978236	-0.325952	-0.867642
C60	C	0.983610	-0.264978	-0.834924
C61	C	0.983608	-0.265001	-0.769490
C62	C	0.978229	-0.326003	-0.736773
C63	C	1.021549	-0.282626	-0.971325
C64	C	1.021543	-0.282596	-1.036761
C65	C	0.934921	-0.369169	-1.036724
C66	C	0.934923	-0.369193	-0.971289
C67	C	0.978241	-0.325923	-0.938593
C68	C	0.978129	-0.326054	-0.139100
C69	C	0.978236	-0.325869	-0.069459
H70	H	0.236571	-0.247676	-0.374745
H71	H	1.056810	-0.247544	-0.541066
C72	C	0.887290	-0.416773	-1.072688
H73	H	0.893498	-0.410564	-1.116347
H74	H	0.841816	-0.406876	-1.061948
H75	H	0.897181	-0.462256	-1.061966
H76	H	0.364805	-0.247683	-0.374739
C77	C	0.582063	-0.416866	-0.217581
H78	H	0.613212	-0.442599	-0.193666
H79	H	0.554488	-0.446399	-0.241497
H80	H	0.554485	-0.390925	-0.190326
H81	H	0.987982	-0.215354	-0.742854
C82	C	0.730503	-0.416864	-0.217573
H83	H	0.777669	-0.410665	-0.223313
H84	H	0.718906	-0.462357	-0.226670
H85	H	0.718897	-0.406893	-0.175490
H86	H	1.056817	-0.247389	-0.944702
C87	C	0.374733	-0.416869	-0.217609
H88	H	0.421900	-0.410673	-0.223347
H89	H	0.363135	-0.462362	-0.226702
H90	H	0.363125	-0.406891	-0.175528
H91	H	0.968496	-0.436595	-0.861551
C92	C	0.226292	-0.416874	-0.217625
H93	H	0.257438	-0.442611	-0.193711
H94	H	0.198718	-0.446403	-0.241547
H95	H	0.198712	-0.390936	-0.190370
C96	C	0.887285	-0.416818	-0.935283
H97	H	0.861496	-0.442590	-0.964129
H98	H	0.857807	-0.390935	-0.909745
H99	H	0.913164	-0.446323	-0.909768
C100	C	1.069043	-0.573614	-0.217799
H101	H	1.094851	-0.604780	-0.193968
H102	H	1.043159	-0.546075	-0.190471
H103	H	1.098514	-0.546002	-0.241793
H104	H	1.056721	-0.711952	-0.229260
H105	H	0.899660	-0.939537	-0.374561
H106	H	1.056812	-0.247340	-1.063410
H107	H	0.968309	-0.436624	-0.742846
H108	H	0.899650	-0.404548	-0.659713
C109	C	0.887273	-0.416971	-0.531643
H110	H	0.861484	-0.442744	-0.560488
H111	H	0.857795	-0.391094	-0.506100
H112	H	0.913160	-0.446474	-0.506133
H113	H	1.056798	-0.939477	-0.229296
H114	H	1.056846	-1.067723	-0.229317
H115	H	0.899705	-1.067774	-0.374581
C116	C	0.887211	-0.722112	-0.385964
H117	H	0.861413	-0.690947	-0.409805
H118	H	0.857741	-0.749726	-0.361977
H119	H	0.913104	-0.749649	-0.413292
C120	C	0.582243	-0.235331	-0.386181
H121	H	0.613443	-0.209593	-0.410090
H122	H	0.554664	-0.205802	-0.362269
H123	H	0.554675	-0.261274	-0.413441
C124	C	0.989514	-0.197879	-0.870908
H125	H	0.992719	-0.161572	-0.842052
H126	H	0.950727	-0.191917	-0.896418
H127	H	1.028753	-0.198751	-0.896451
C128	C	0.887158	-0.573674	-0.385939
H129	H	0.861374	-0.604856	-0.409782
H130	H	0.913029	-0.546063	-0.413255
H131	H	0.857666	-0.546136	-0.361940
H132	H	1.056806	-0.247494	-0.659773
C133	C	0.730683	-0.235325	-0.386168
H134	H	0.777837	-0.241517	-0.380421
H135	H	0.719115	-0.189833	-0.377077
H136	H	0.719116	-0.245302	-0.428252
