data_functionalizedCrystal
_audit_creation_method	'MofGen! by Chris Wilmer'
_symmetry_space_group_name_H-M	'P1'
_symmetry_Int_Tables_number	1
_symmetry_cell_setting	triclinic
loop_
_symmetry_equiv_pos_as_xyz
  x,y,z
_cell_length_a	11.792241
_cell_length_b	12.503552
_cell_length_c	14.044190
_cell_angle_alpha	86.163821
_cell_angle_beta	88.692597
_cell_angle_gamma	93.543175
loop_
_atom_site_label
_atom_site_type_symbol
_atom_site_fract_x
_atom_site_fract_y
_atom_site_fract_z
O1	O	1.525110	0.089228	0.124544
O2	O	2.025110	0.589228	0.624544
O3	O	1.196029	0.089254	0.137939
O4	O	1.696029	0.589254	0.637939
O5	O	1.355624	0.089220	-0.006768
O6	O	1.855624	0.589220	0.493232
O7	O	1.365514	0.089262	0.269250
O8	O	1.865514	0.589262	0.769250
O9	O	1.343607	-0.089420	0.004125
O10	O	1.843607	0.410580	0.504125
O11	O	1.184012	-0.089386	0.148831
O12	O	1.684012	0.410614	0.648831
O13	O	1.513093	-0.089412	0.135436
O14	O	2.013093	0.410588	0.635436
Cu15	Cu	1.347455	-0.105710	0.143128
Cu16	Cu	1.847455	0.394290	0.643128
Cu17	Cu	1.361666	0.105552	0.130247
Cu18	Cu	1.861666	0.605552	0.630247
O19	O	1.353498	-0.089378	0.280142
O20	O	1.853498	0.410622	0.780142
C21	C	1.147650	-0.000063	0.142543
C22	C	1.647650	0.499937	0.642543
C23	C	1.021401	-0.000054	0.140024
C24	C	1.521401	0.499946	0.640024
C25	C	0.790252	-0.000085	0.135394
C26	C	1.290252	0.499915	0.635394
C27	C	0.918880	-0.000068	0.137967
C28	C	1.418880	0.499932	0.637967
N29	N	1.337468	-0.254301	0.152188
N30	N	1.837468	0.245699	0.652188
C31	C	1.386347	-0.526744	0.107850
C32	C	1.886347	-0.026744	0.607850
C33	C	1.322786	-0.473407	0.165514
C34	C	1.822786	0.026593	0.665514
C35	C	1.330957	-0.351485	0.158097
C36	C	1.830957	0.148515	0.658097
C37	C	1.378177	-0.648677	0.115265
C38	C	1.878177	-0.148677	0.615265
C39	C	1.561471	-0.000093	0.130831
C40	C	2.061471	0.499907	0.630831
C41	C	1.687721	-0.000095	0.133350
C42	C	2.187721	0.499905	0.633350
C43	C	1.345290	-0.000102	-0.036658
C44	C	1.845290	0.499898	0.463342
C45	C	1.332387	-0.000111	-0.141950
C46	C	1.832387	0.499889	0.358050
N47	N	1.371662	0.254143	0.121180
N48	N	1.871662	0.754143	0.621180
C49	C	1.400307	-0.000074	-0.391890
C50	C	1.900307	0.499926	0.108110
C51	C	1.308820	-0.000074	-0.334731
C52	C	1.808820	0.499926	0.165269
C53	C	1.321936	-0.000095	-0.227458
C54	C	1.821936	0.499905	0.272542
C55	C	1.387193	-0.000054	-0.499173
C56	C	1.887193	0.499946	0.000827
C57	C	1.363832	-0.000053	0.310033
C58	C	1.863832	0.499947	0.810033
C59	C	1.376735	-0.000038	0.415324
C60	C	1.876735	0.499962	0.915324
H61	H	1.446896	-0.480847	0.052915
H62	H	1.946896	0.019153	0.552915
H63	H	1.220645	-0.000061	-0.366360
H64	H	1.720645	0.499939	0.133640
O65	O	1.505443	0.000043	-0.354059
O66	O	2.005443	0.500043	0.145941
C67	C	1.643930	0.092574	-0.260332
C68	C	2.143930	0.592574	0.239668
C69	C	1.524833	0.092568	-0.303117
C70	C	2.024833	0.592568	0.196883
H71	H	1.659653	0.167384	-0.219152
H72	H	2.159653	0.667384	0.280848
H73	H	1.649611	0.017852	-0.209938
H74	H	2.149611	0.517852	0.290062
H75	H	1.710731	0.092520	-0.320297
H76	H	2.210731	0.592520	0.179703
H77	H	1.457962	0.092659	-0.243216
H78	H	1.957962	0.592659	0.256784
H79	H	1.519248	0.167283	-0.353535
H80	H	2.019248	0.667283	0.146465
O81	O	1.250646	-0.528325	0.231037
O82	O	1.750646	-0.028325	0.731037
C83	C	1.176547	-0.701685	0.298203
C84	C	1.676547	-0.201685	0.798203
C85	C	1.258304	-0.639619	0.223973
C86	C	1.758304	-0.139619	0.723973
H87	H	1.182694	-0.791677	0.292503
H88	H	1.682694	-0.291677	0.792503
H89	H	1.200550	-0.679721	0.372937
H90	H	1.700550	-0.179721	0.872937
H91	H	1.085801	-0.679595	0.284076
H92	H	1.585801	-0.179595	0.784076
H93	H	1.349076	-0.661676	0.238010
H94	H	1.849076	-0.161676	0.738010
H95	H	1.234204	-0.661589	0.149263
H96	H	1.734204	-0.161589	0.649263
