data_functionalizedCrystal
_audit_creation_method	'MofGen! by Chris Wilmer'
_symmetry_space_group_name_H-M	'P1'
_symmetry_Int_Tables_number	1
_symmetry_cell_setting	triclinic
loop_
_symmetry_equiv_pos_as_xyz
  x,y,z
_cell_length_a	10.686285
_cell_length_b	10.686220
_cell_length_c	10.686551
_cell_angle_alpha	90.307919
_cell_angle_beta	80.915481
_cell_angle_gamma	90.345594
loop_
_atom_site_label
_atom_site_type_symbol
_atom_site_fract_x
_atom_site_fract_y
_atom_site_fract_z
Zn1	Zn	-0.307891	1.994012	-0.537155
Zn2	Zn	0.025442	2.327345	-0.203822
Zn3	Zn	0.358775	2.660679	0.129511
Zn4	Zn	-0.536478	1.993911	-0.308660
Zn5	Zn	-0.203145	2.327244	0.024673
Zn6	Zn	0.130188	2.660578	0.358007
Zn7	Zn	-0.340199	1.770410	-0.340824
Zn8	Zn	-0.006866	2.103743	-0.007491
Zn9	Zn	0.326468	2.437076	0.325843
Zn10	Zn	-0.533920	1.800161	-0.534647
Zn11	Zn	-0.200586	2.133494	-0.201313
Zn12	Zn	0.132747	2.466827	0.132020
O13	O	-0.429622	1.889623	-0.430322
O14	O	-0.096289	2.222957	-0.096988
O15	O	0.237045	2.556290	0.236345
O16	O	-0.325764	2.168662	-0.494434
O17	O	0.007569	2.501995	-0.161101
O18	O	0.340903	2.835329	0.172233
O19	O	-0.525033	1.951770	-0.136185
O20	O	-0.191700	2.285103	0.197148
O21	O	0.141633	2.618437	0.530482
O22	O	-0.159176	1.787663	-0.381378
O23	O	0.174157	2.120996	-0.048045
O24	O	0.507491	2.454329	0.285289
O25	O	-0.493706	2.168588	-0.326560
O26	O	-0.160372	2.501921	0.006774
O27	O	0.172961	2.835254	0.340107
O28	O	-0.135440	1.951942	-0.525622
O29	O	0.197894	2.285275	-0.192289
O30	O	0.531227	2.618609	0.141045
O31	O	-0.380828	1.787565	-0.159816
O32	O	-0.047494	2.120898	0.173518
O33	O	0.285839	2.454231	0.506851
O34	O	-0.378347	1.599693	-0.378946
O35	O	-0.045013	1.933026	-0.045612
O36	O	0.288320	2.266360	0.287721
O37	O	-0.489345	1.838368	-0.711721
O38	O	-0.156012	2.171702	-0.378388
O39	O	0.177322	2.505035	-0.045055
O40	O	-0.520672	1.621551	-0.521347
O41	O	-0.187339	1.954884	-0.188013
O42	O	0.145994	2.288217	0.145320
O43	O	-0.323283	1.980790	-0.713564
O44	O	0.010051	2.314123	-0.380231
O45	O	0.343384	2.647457	-0.046897
O46	O	-0.712876	1.980618	-0.324127
O47	O	-0.379543	2.313951	0.009206
O48	O	-0.046210	2.647285	0.342539
O49	O	-0.710996	1.838270	-0.490159
O50	O	-0.377663	2.171604	-0.156825
O51	O	-0.044330	2.504937	0.176508
C52	C	-0.452739	1.565334	-0.453365
C53	C	-0.119405	1.898667	-0.120032
C54	C	0.213928	2.232000	0.213302
C55	C	-0.462656	1.426605	-0.463250
C56	C	-0.129322	1.759939	-0.129917
C57	C	0.204011	2.093272	0.203416
C58	C	-0.757758	1.912697	-0.403406
C59	C	-0.424424	2.246031	-0.070072
C60	C	-0.091091	2.579364	0.263261
C61	C	-0.898124	1.922686	-0.391925
C62	C	-0.564790	2.256019	-0.058592
C63	C	-0.231457	2.589353	0.274742
C64	C	-0.100201	1.866495	-0.457368
C65	C	0.233133	2.199828	-0.124034
C66	C	0.566466	2.533162	0.209299
C67	C	0.040179	1.856639	-0.468893
C68	C	0.373513	2.189972	-0.135560
C69	C	0.706846	2.523306	0.197774
C70	C	-0.406416	2.215179	-0.407189
C71	C	-0.073083	2.548513	-0.073855
C72	C	0.260250	2.881846	0.259478
C73	C	-0.396527	2.353912	-0.397331
C74	C	-0.063194	2.687245	-0.063998
C75	C	0.270139	3.020579	0.269336
C76	C	-0.402425	1.912909	-0.759751
C77	C	-0.069091	2.246242	-0.426418
C78	C	0.264242	2.579576	-0.093084
C79	C	-0.390835	1.922832	-0.900134
C80	C	-0.057501	2.256165	-0.566801
C81	C	0.275832	2.589499	-0.233468
C82	C	-0.456618	1.866493	-0.102176
C83	C	-0.123284	2.199827	0.231157
C84	C	0.210049	2.533160	0.564491
C85	C	-0.467835	1.856787	0.038195
C86	C	-0.134501	2.190121	0.371528
C87	C	0.198832	2.523454	0.704861
H88	H	-0.332328	1.397813	-0.333321
H89	H	0.001005	1.731147	0.000013
H90	H	0.334339	2.064480	0.333346
H91	H	-0.542628	1.792656	-0.907206
H92	H	-0.209294	2.125989	-0.573873
H93	H	0.124039	2.459322	-0.240540
H94	H	-0.905259	1.792453	-0.543574
H95	H	-0.571926	2.125786	-0.210240
H96	H	-0.238592	2.459120	0.123093
N97	N	-0.970396	2.007715	-0.292995
N98	N	-0.637063	2.341048	0.040338
N99	N	-0.303730	2.674382	0.373671
H100	H	-0.909283	2.050371	-0.243267
H101	H	-0.575950	2.383705	0.090066
H102	H	-0.242617	2.717038	0.423399
H103	H	-1.033633	1.956674	-0.233676
H104	H	-0.700300	2.290007	0.099657
H105	H	-0.366967	2.623340	0.432991
H106	H	-0.526860	1.382710	-0.527248
H107	H	-0.193526	1.716043	-0.193915
H108	H	0.139807	2.049376	0.139419
N109	N	-0.291746	2.007780	-0.972456
N110	N	0.041587	2.341113	-0.639122
N111	N	0.374920	2.674447	-0.305789
H112	H	-0.242007	2.050438	-0.911359
H113	H	0.091326	2.383772	-0.578025
H114	H	0.424659	2.717105	-0.244692
H115	H	-0.334563	2.072981	-1.018866
H116	H	-0.001229	2.406314	-0.685533
H117	H	0.332104	2.739647	-0.352200
