data_functionalizedCrystal
_audit_creation_method	'MofGen! by Chris Wilmer'
_symmetry_space_group_name_H-M	'P1'
_symmetry_Int_Tables_number	1
_symmetry_cell_setting	triclinic
loop_
_symmetry_equiv_pos_as_xyz
  x,y,z
_cell_length_a	10.654554
_cell_length_b	10.540558
_cell_length_c	9.730223
_cell_angle_alpha	90.005446
_cell_angle_beta	90.000354
_cell_angle_gamma	95.490071
loop_
_atom_site_label
_atom_site_type_symbol
_atom_site_fract_x
_atom_site_fract_y
_atom_site_fract_z
O1	O	1.667905	-0.178321	0.114272
O2	O	1.302435	-0.195302	0.114271
O3	O	1.493496	-0.002104	0.114286
O4	O	1.476844	-0.371519	0.114257
O5	O	1.493494	-0.002108	-0.114294
O6	O	1.302432	-0.195307	-0.114308
O7	O	1.667903	-0.178326	-0.114308
Zn8	Zn	1.485167	-0.186817	-0.150600
Zn9	Zn	1.485170	-0.186811	0.150564
O10	O	1.476842	-0.371524	-0.114323
C11	C	1.255635	-0.194056	-0.000018
C12	C	1.116191	-0.190322	-0.000017
C13	C	0.905728	-0.300571	-0.000023
C14	C	1.036751	-0.304080	-0.000023
C15	C	1.064601	-0.073048	0.000003
C16	C	0.933581	-0.069540	0.000013
C17	C	0.889650	-0.433955	-0.000044
C18	C	1.020673	-0.437465	-0.000044
C19	C	1.492241	0.045196	0.000003
C20	C	1.488490	0.186142	0.000023
C21	C	1.345107	0.369518	0.000552
C22	C	1.348909	0.222902	0.000025
C23	C	1.555656	0.247819	-0.130502
C24	C	1.550883	0.394361	-0.130599
C25	C	1.553724	0.394886	0.129339
C26	C	1.555019	0.247905	0.131052
C27	C	1.714703	-0.179571	-0.000015
C28	C	1.854147	-0.183305	-0.000007
N29	N	1.485175	-0.186821	-0.356137
C30	C	1.478080	0.581174	-0.000014
C31	C	1.481781	0.440222	0.000041
C32	C	1.569798	-0.101302	-0.428056
C33	C	1.569795	-0.101286	-0.571939
C34	C	1.400540	-0.272320	-0.571970
C35	C	1.400538	-0.272328	-0.428090
C36	C	1.667520	-0.002560	-0.428039
C37	C	1.667517	-0.002545	-0.571922
N38	N	1.485173	-0.186797	0.356100
H39	H	0.847927	-0.484218	0.095609
H40	H	1.654537	0.442146	0.130221
H41	H	1.636965	0.089661	-0.616530
O42	O	1.067906	-0.493738	0.130677
H43	H	1.171916	-0.494244	0.125291
O44	O	1.278437	0.167562	-0.124147
H45	H	1.179078	0.190762	-0.119609
O46	O	1.788326	-0.043504	-0.368930
H47	H	1.766645	-0.129883	-0.304767
O48	O	1.493857	0.191369	-0.259179
H49	H	1.456499	0.268128	-0.320605
H50	H	1.129292	0.019575	0.000021
H51	H	1.501237	0.422541	-0.228171
O52	O	1.493887	0.436645	0.260401
H53	H	1.412193	0.490186	0.234840
H54	H	1.050055	-0.489612	-0.095720
O55	O	0.877951	0.056943	0.000050
H56	H	0.773499	0.040274	0.000068
O57	O	1.689824	0.215886	0.141500
H58	H	1.711611	0.155187	0.053066
O59	O	1.272367	0.409480	-0.122752
H60	H	1.266079	0.513930	-0.119088
O61	O	1.683837	0.457962	-0.138472
H62	H	1.751254	0.384012	-0.142203
O63	O	1.272068	0.407395	0.124541
H64	H	1.243391	0.321553	0.187285
O65	O	1.691429	0.218244	-0.136958
H66	H	1.742071	0.256699	-0.043980
O67	O	1.309261	-0.364559	-0.350513
H68	H	1.250420	-0.424021	-0.424722
H69	H	1.296059	0.180283	0.093591
O70	O	1.490025	0.193665	0.258971
H71	H	1.410672	0.123004	0.229367
O72	O	1.309266	-0.364555	-0.649575
H73	H	1.323487	-0.350189	-0.761707
O74	O	0.829182	-0.487343	-0.130765
H75	H	0.903081	-0.518490	-0.200075
O76	O	1.795358	-0.031366	-0.623673
H77	H	1.857944	-0.045501	-0.534902
H78	H	1.646037	0.095013	-0.388977
