data_functionalizedCrystal
_audit_creation_method	'MofGen! by Chris Wilmer'
_symmetry_space_group_name_H-M	'P1'
_symmetry_Int_Tables_number	1
_symmetry_cell_setting	triclinic
loop_
_symmetry_equiv_pos_as_xyz
  x,y,z
_cell_length_a	6.817900
_cell_length_b	17.253796
_cell_length_c	12.200875
_cell_angle_alpha	97.956249
_cell_angle_beta	107.143593
_cell_angle_gamma	102.657420
loop_
_atom_site_label
_atom_site_type_symbol
_atom_site_fract_x
_atom_site_fract_y
_atom_site_fract_z
V1	V	-4.070537	-0.111483	-0.368570
O2	O	-4.054936	0.005169	-0.350347
O3	O	-4.023947	-0.220871	-0.376828
O4	O	-4.040227	-0.109850	-0.524398
O5	O	-4.038544	-0.106620	-0.201754
V6	V	-4.551586	-0.097520	-0.347308
O7	O	-4.337222	-0.142111	-0.415209
O8	O	-4.735098	-0.066892	-0.300668
O9	O	-4.374969	0.011868	-0.339050
O10	O	-4.684583	-0.214172	-0.365531
O11	O	-4.700976	-0.102383	-0.514123
O12	O	-4.358689	-0.099152	-0.191479
C13	C	-3.868803	-0.247535	-0.373794
C14	C	-3.912118	-0.336961	-0.381585
C15	C	-3.889569	-0.105916	-0.562034
C16	C	-3.946083	-0.105305	-0.689496
C17	C	-4.161708	-0.841578	-0.436818
C18	C	-4.120999	-0.757553	-0.429499
C19	C	-4.047947	-0.703996	-0.319658
C20	C	-4.015622	-0.734469	-0.217130
C21	C	-4.056345	-0.818494	-0.224451
C22	C	-3.920516	-0.451459	-0.286378
C23	C	-3.879789	-0.367429	-0.279064
C24	C	-3.985173	-0.390519	-0.491435
C25	C	-4.025880	-0.474544	-0.498745
C26	C	-3.993562	-0.505010	-0.396218
N27	N	-4.006328	-0.618107	-0.312174
N28	N	-4.035195	-0.590897	-0.403704
C29	C	-4.049512	-0.104188	-0.922861
C30	C	-3.991949	-0.104809	-0.792999
C31	C	-4.193454	0.038528	-0.342081
C32	C	-4.129378	0.127953	-0.334298
C33	C	-4.172689	-0.103089	-0.153838
C34	C	-4.095413	-0.103696	-0.026375
H35	H	-4.221177	-0.885179	-0.526263
H36	H	-3.894195	-0.476254	-0.202892
H37	H	-3.820284	-0.323824	-0.189613
H38	H	-4.085366	-0.518145	-0.588190
C39	C	-3.935255	-0.675554	-0.096302
N40	N	-3.874711	-0.631179	-0.005292
C41	C	-4.156533	-0.724042	-0.542279
N42	N	-4.183290	-0.698802	-0.627231
C43	C	-4.020771	-0.852008	-0.111669
N44	N	-3.993980	-0.877249	-0.026719
H45	H	-4.011482	-0.365703	-0.574907
