data_functionalizedCrystal
_audit_creation_method	'MofGen! by Chris Wilmer'
_symmetry_space_group_name_H-M	'P1'
_symmetry_Int_Tables_number	1
_symmetry_cell_setting	triclinic
loop_
_symmetry_equiv_pos_as_xyz
  x,y,z
_cell_length_a	12.759395
_cell_length_b	18.050589
_cell_length_c	12.759387
_cell_angle_alpha	90.029987
_cell_angle_beta	90.020509
_cell_angle_gamma	90.029758
loop_
_atom_site_label
_atom_site_type_symbol
_atom_site_fract_x
_atom_site_fract_y
_atom_site_fract_z
Zn1	Zn	1.606170	-0.295590	0.594011
Zn2	Zn	1.606019	-0.419799	0.418334
Zn3	Zn	1.430468	-0.295630	0.418348
Zn4	Zn	1.430419	-0.419746	0.593973
O5	O	1.518269	-0.357691	0.506166
O6	O	1.753171	-0.312072	0.570717
O7	O	1.582689	-0.403367	0.271315
O8	O	1.453859	-0.191700	0.441672
O9	O	1.753060	-0.403327	0.441648
O10	O	1.582946	-0.191671	0.570731
O11	O	1.453713	-0.312141	0.271325
O12	O	1.283441	-0.312089	0.441635
O13	O	1.453775	-0.403237	0.740999
O14	O	1.283405	-0.403277	0.570666
O15	O	1.582899	-0.312020	0.741027
O16	O	1.582642	-0.523716	0.441611
O17	O	1.453629	-0.523677	0.570652
C18	C	1.245302	-0.357682	0.506148
C19	C	1.128525	-0.357696	0.506166
C20	C	1.128526	-0.452803	0.640308
C21	C	1.073666	-0.500362	0.707383
C22	C	0.963944	-0.500371	0.707395
C23	C	0.909080	-0.452814	0.640329
C24	C	0.963940	-0.405255	0.573255
C25	C	1.073665	-0.405253	0.573247
C26	C	0.963939	-0.310146	0.439119
C27	C	1.073661	-0.310139	0.439099
C28	C	0.909076	-0.262589	0.372052
C29	C	0.963936	-0.215032	0.304971
C30	C	1.073664	-0.215026	0.304960
C31	C	1.128521	-0.262580	0.372025
C32	C	1.518142	-0.550643	0.506149
C33	C	1.518184	-0.633189	0.506177
C34	C	1.448096	-0.832646	0.576325
C35	C	1.422480	-0.882094	0.480456
C36	C	1.518287	-0.784319	0.506190
C37	C	1.543955	-0.881953	0.602070
C38	C	1.518385	-0.930304	0.506212
C39	C	1.492621	-0.832681	0.410271
C40	C	1.614141	-0.832535	0.531950
C41	C	1.588561	-0.881961	0.436015
C42	C	1.518228	-0.700221	0.506179
C43	C	1.518444	-1.014401	0.506212
C44	C	1.792302	-0.357701	0.506185
C45	C	1.909079	-0.357705	0.506193
C46	C	1.518348	-0.357618	0.780200
C47	C	1.518382	-0.357587	0.896977
C48	C	1.518425	-0.163986	0.506207
C49	C	1.518492	-0.081440	0.506224
C50	C	1.518251	-0.357710	0.233199
C51	C	1.518420	-0.357532	0.116423
C52	C	1.652848	-0.262609	0.897026
C53	C	1.720095	-0.215109	0.951911
C54	C	1.720121	-0.215082	1.061633
C55	C	1.652889	-0.262559	1.116472
C56	C	1.585642	-0.310059	1.061586
C57	C	1.585626	-0.310082	0.951862
C58	C	1.451173	-0.405032	1.061538
C59	C	1.451151	-0.405064	0.951816
C60	C	1.383942	-0.452509	1.116376
C61	C	1.316698	-0.500013	1.061491
C62	C	1.316676	-0.500039	0.951763
C63	C	1.383904	-0.452564	0.896931
H64	H	0.919257	-0.176312	0.250376
H65	H	1.261958	-0.538661	1.106150
H66	H	1.565626	-0.903596	0.683146
H67	H	1.261904	-0.538712	0.907082
C68	C	1.133096	-0.552115	0.780135
C69	C	1.106328	-0.625573	0.757091
C70	C	1.161039	-0.673265	0.824100
H71	H	1.206316	-0.545403	0.770591
H72	H	1.115129	-0.541354	0.850772
H73	H	1.124303	-0.636330	0.686471
H74	H	1.033118	-0.632308	0.766641
H75	H	1.143071	-0.662505	0.894737
H76	H	1.234256	-0.666547	0.814551
H77	H	1.142877	-0.723112	0.808480
C78	C	1.652946	-0.262508	0.777899
C79	C	1.726198	-0.210755	0.741621
C80	C	1.726309	-0.210633	0.631887
H81	H	1.671099	-0.310397	0.752941
H82	H	1.585174	-0.249626	0.753027
H83	H	1.793954	-0.223641	0.766481
H84	H	1.708061	-0.162858	0.766550
H85	H	1.658538	-0.197752	0.607016
H86	H	1.744461	-0.258526	0.606940
H87	H	1.776003	-0.175515	0.607258
H88	H	1.118325	-0.176292	0.250347
H89	H	1.341466	-0.903879	0.458688
H90	H	1.774831	-0.176454	0.907249
C91	C	1.383776	-0.452565	1.235503
C92	C	1.310490	-0.504295	1.271778
C93	C	1.310300	-0.504365	1.381511
H94	H	1.451505	-0.465439	1.260460
H95	H	1.365610	-0.404646	1.260378
H96	H	1.328663	-0.552204	1.246914
H97	H	1.242751	-0.491434	1.246850
H98	H	1.292133	-0.456446	1.406386
H99	H	1.378032	-0.517237	1.406458
H100	H	1.260570	-0.539458	1.406138
H101	H	1.774873	-0.176399	1.106320
H102	H	1.470856	-0.811126	0.329173
C103	C	1.667610	-0.910765	0.356780
C104	C	1.615990	-0.954492	0.282209
C105	C	1.688771	-0.981047	0.209208
H106	H	1.700639	-0.870168	0.322837
H107	H	1.718964	-0.939728	0.391791
H108	H	1.564655	-0.925529	0.247202
H109	H	1.582966	-0.995099	0.316121
H110	H	1.740125	-1.010011	0.244218
H111	H	1.721795	-0.940446	0.175273
H112	H	1.653759	-1.010724	0.158608
H113	H	1.695137	-0.810752	0.553763
C114	C	1.653100	-0.262442	1.235598
C115	C	1.726393	-0.210691	1.271927
C116	C	1.726624	-0.210570	1.381661
H117	H	1.585379	-0.249561	1.260539
H118	H	1.671281	-0.310348	1.260453
H119	H	1.708206	-0.162795	1.247083
H120	H	1.794125	-0.223560	1.247016
H121	H	1.744805	-0.258477	1.406516
H122	H	1.658899	-0.197690	1.406591
H123	H	1.776359	-0.175463	1.406324
C124	C	1.368672	-0.803805	0.655159
C125	C	1.268506	-0.828906	0.627703
C126	C	1.195311	-0.802344	0.700287
H127	H	1.386062	-0.821383	0.723130
H128	H	1.369565	-0.751176	0.655033
H129	H	1.267615	-0.881525	0.627840
H130	H	1.251082	-0.811330	0.559744
H131	H	1.196205	-0.749715	0.700161
H132	H	1.212712	-0.819924	0.768253
H133	H	1.127340	-0.819366	0.681663
H134	H	1.383897	-0.452583	0.807589
H135	H	0.919277	-0.539094	0.762019
C136	C	1.247653	-0.452887	0.640472
C137	C	1.283958	-0.504704	0.713570
C138	C	1.393692	-0.504799	0.713758
H139	H	1.272554	-0.465694	0.572696
H140	H	1.272563	-0.404993	0.658811
H141	H	1.259058	-0.552587	0.695225
H142	H	1.259086	-0.491909	0.781356
H143	H	1.418602	-0.456905	0.732096
H144	H	1.418582	-0.517604	0.645978
H145	H	1.418339	-0.539950	0.763360
H146	H	0.819739	-0.452819	0.640355
C147	C	1.247648	-0.262490	0.371823
C148	C	1.283955	-0.210674	0.298714
C149	C	1.393689	-0.210578	0.298495
H150	H	1.272636	-0.249683	0.439592
H151	H	1.272470	-0.310384	0.353478
H152	H	1.259144	-0.162791	0.317066
H153	H	1.258997	-0.223470	0.230935
H154	H	1.418511	-0.258472	0.280150
H155	H	1.418666	-0.197772	0.366267
H156	H	1.418338	-0.175427	0.248885
H157	H	0.819735	-0.262596	0.372072
