data_functionalizedCrystal
_audit_creation_method	'MofGen! by Chris Wilmer'
_symmetry_space_group_name_H-M	'P1'
_symmetry_Int_Tables_number	1
_symmetry_cell_setting	triclinic
loop_
_symmetry_equiv_pos_as_xyz
  x,y,z
_cell_length_a	10.654550
_cell_length_b	19.188930
_cell_length_c	9.130313
_cell_angle_alpha	89.993647
_cell_angle_beta	89.996220
_cell_angle_gamma	83.814841
loop_
_atom_site_label
_atom_site_type_symbol
_atom_site_fract_x
_atom_site_fract_y
_atom_site_fract_z
O1	O	1.665759	0.098059	-0.121938
O2	O	1.300083	0.107401	-0.121916
O3	O	1.493474	0.001143	-0.121899
O4	O	1.472368	0.204317	-0.121955
O5	O	1.493471	0.001146	0.121700
O6	O	1.300081	0.107404	0.121682
O7	O	1.665757	0.098062	0.121661
Cu8	Cu	1.482918	0.102733	0.143914
Cu9	Cu	1.482921	0.102730	-0.144170
O10	O	1.472366	0.204320	0.121644
C11	C	1.253298	0.106717	-0.000114
C12	C	1.113898	0.104664	-0.000104
C13	C	1.492789	-0.024871	-0.000096
C14	C	1.490737	-0.102389	-0.000083
C15	C	1.033089	0.167227	-0.000143
C16	C	0.902109	0.165295	-0.000168
C17	C	0.932761	0.038231	-0.000121
C18	C	1.063738	0.040164	-0.000086
C19	C	1.083249	0.231728	-0.000161
C20	C	1.002438	0.294296	-0.000201
C21	C	0.871458	0.292363	-0.000226
C22	C	0.821289	0.227863	-0.000211
C23	C	1.604213	-0.146570	-0.000083
C24	C	1.602285	-0.219407	-0.000106
C25	C	1.486876	-0.248058	-0.000100
C26	C	1.373386	-0.203867	-0.000109
C27	C	1.375316	-0.131032	-0.000100
N28	N	1.398658	-0.356639	0.082806
N29	N	1.396832	-0.425830	0.082801
C30	C	1.481052	-0.467505	-0.000129
N31	N	1.567186	-0.437377	-0.083037
N32	N	1.569016	-0.368180	-0.083025
C33	C	1.484770	-0.327034	-0.000110
C34	C	1.592445	-0.590665	-0.000157
C35	C	1.590513	-0.663502	-0.000189
C36	C	1.361610	-0.647960	-0.000177
C37	C	1.363545	-0.575125	-0.000159
C38	C	1.478966	-0.546481	-0.000142
C39	C	1.712541	0.098746	-0.000145
C40	C	1.851941	0.100798	-0.000164
C41	C	1.473051	0.230334	-0.000163
C42	C	1.475102	0.307852	-0.000186
N43	N	1.482926	0.102735	0.346537
N44	N	1.482924	0.102722	-0.346792
C45	C	1.568581	0.055700	0.423196
C46	C	1.568577	0.055692	0.576533
C47	C	1.397260	0.149759	0.576537
C48	C	1.397258	0.149764	0.423203
C49	C	1.654248	0.008672	0.346530
C50	C	1.739911	-0.038367	0.423189
C51	C	1.739908	-0.038375	0.576526
C52	C	1.654241	0.008655	0.653203
H53	H	1.043295	0.346810	-0.000201
H54	H	1.271141	-0.539151	-0.000151
H55	H	1.327515	0.188050	0.638978
H56	H	0.805665	0.343309	-0.000244
C57	C	1.909242	-0.131353	0.438588
C58	C	1.834066	-0.090064	0.338914
H59	H	1.967363	-0.163272	0.386559
H60	H	1.954244	-0.102060	0.498387
H61	H	1.857097	-0.156739	0.498399
H62	H	1.886210	-0.064674	0.279109
H63	H	1.789060	-0.119361	0.279089
C64	C	1.226654	-0.720839	-0.125407
C65	C	1.234748	-0.679445	-0.000176
H66	H	1.148334	-0.740281	-0.125405
H67	H	1.232163	-0.692738	-0.210333
H68	H	1.293967	-0.757577	-0.125399
H69	H	1.167439	-0.642704	-0.000191
H70	H	1.229226	-0.707547	0.084771
H71	H	0.714635	0.226294	-0.000208
H72	H	1.327509	0.188063	0.360787
H73	H	0.891902	-0.014283	-0.000133
H74	H	1.189898	0.233309	-0.000147
H75	H	1.654261	0.008675	0.221675
H76	H	1.698197	-0.123254	-0.000074
H77	H	1.129536	-0.010780	-0.000058
C78	C	1.767698	-0.133268	0.748955
C79	C	1.834059	-0.090081	0.660791
H80	H	1.825831	-0.165191	0.800965
H81	H	1.716698	-0.105262	0.816557
H82	H	1.715576	-0.158649	0.689124
H83	H	1.886175	-0.064696	0.720624
H84	H	1.885082	-0.118091	0.593181
C85	C	1.828740	-0.227461	-0.000078
C86	C	1.727026	-0.267983	-0.000095
H87	H	1.905747	-0.257450	-0.000062
H88	H	1.824746	-0.198727	-0.085021
H89	H	1.824716	-0.198732	0.084876
H90	H	1.731044	-0.296709	-0.085056
H91	H	1.731021	-0.296729	0.084856
H92	H	1.279418	-0.227199	-0.000107
C93	C	1.148864	-0.122987	-0.000088
C94	C	1.250575	-0.082462	-0.000086
H95	H	1.071855	-0.093000	-0.000068
H96	H	1.152871	-0.151707	-0.085039
H97	H	1.152879	-0.151730	0.084858
H98	H	1.246565	-0.053722	-0.085038
H99	H	1.246567	-0.053730	0.084874
C100	C	1.788129	-0.581463	-0.125411
C101	C	1.719308	-0.559170	-0.000169
H102	H	1.866444	-0.562016	-0.125424
H103	H	1.803223	-0.631158	-0.125410
H104	H	1.741399	-0.566323	-0.210339
H105	H	1.766034	-0.574315	0.084759
H106	H	1.704217	-0.509464	-0.000157
H107	H	1.682922	-0.699475	-0.000197
H108	H	1.654238	0.008639	0.778061
