data_functionalizedCrystal
_audit_creation_method	'MofGen! by Chris Wilmer'
_symmetry_space_group_name_H-M	'P1'
_symmetry_Int_Tables_number	1
_symmetry_cell_setting	triclinic
loop_
_symmetry_equiv_pos_as_xyz
  x,y,z
_cell_length_a	11.026607
_cell_length_b	11.026607
_cell_length_c	10.065918
_cell_angle_alpha	82.291637
_cell_angle_beta	97.653451
_cell_angle_gamma	71.413983
loop_
_atom_site_label
_atom_site_type_symbol
_atom_site_fract_x
_atom_site_fract_y
_atom_site_fract_z
O1	O	0.553904	-1.747087	0.113491
O2	O	0.493141	-1.380508	0.113493
O3	O	0.340232	-1.533415	0.113487
O4	O	0.706814	-1.594180	0.113497
O5	O	0.299659	-1.492688	-0.113502
O6	O	0.452569	-1.339781	-0.113496
O7	O	0.513332	-1.706360	-0.113498
Zn8	Zn	0.476508	-1.516604	-0.149536
Zn9	Zn	0.529965	-1.570264	0.149532
O10	O	0.666241	-1.553453	-0.113492
C11	C	0.461645	-1.312485	-0.000001
C12	C	0.428228	-1.170471	-0.000000
C13	C	0.272286	-1.501842	-0.000005
C14	C	0.130273	-1.468426	-0.000000
N15	N	0.440027	-1.479992	-0.353642
C16	C	0.076624	-1.560696	0.000001
C17	C	-0.070153	-1.526161	0.000006
C18	C	0.734187	-1.585027	0.000004
C19	C	0.876202	-1.618444	0.000008
C20	C	0.544828	-1.774384	-0.000001
C21	C	0.578247	-1.916399	0.000007
C22	C	0.520499	-1.116822	0.000003
C23	C	0.485963	-0.970043	0.000004
C24	C	0.517270	-1.557517	-0.421420
C25	C	0.489184	-1.529347	-0.578588
N26	N	0.566438	-1.606884	0.353637
H27	H	0.139356	-1.665257	-0.000008
Cl28	Cl	0.681941	-1.213667	0.000004
Cl29	Cl	-0.026960	-1.779895	0.000013
Cl30	Cl	0.354964	-1.394672	-0.668625
H31	H	-0.132881	-1.421593	0.000016
H32	H	0.381399	-0.907320	0.000036
Cl33	Cl	0.266784	-1.073623	-0.000014
H34	H	0.604190	-1.644748	-0.363092
Cl35	Cl	0.033431	-1.306986	0.000014
Cl36	Cl	0.700647	-1.741572	-0.556329
Cl37	Cl	0.305813	-1.345322	-0.443685
H38	H	0.682816	-0.979125	0.000001
