data_functionalizedCrystal
_audit_creation_method	'MofGen! by Chris Wilmer'
_symmetry_space_group_name_H-M	'P1'
_symmetry_Int_Tables_number	1
_symmetry_cell_setting	triclinic
loop_
_symmetry_equiv_pos_as_xyz
  x,y,z
_cell_length_a	12.759401
_cell_length_b	11.169416
_cell_length_c	11.169409
_cell_angle_alpha	90.030874
_cell_angle_beta	90.021365
_cell_angle_gamma	90.011865
loop_
_atom_site_label
_atom_site_type_symbol
_atom_site_fract_x
_atom_site_fract_y
_atom_site_fract_z
Zn1	Zn	1.606303	-0.477661	0.678604
Zn2	Zn	2.106303	0.022339	1.178604
Zn3	Zn	1.606206	-0.678402	0.477926
Zn4	Zn	2.106206	-0.178402	0.977926
Zn5	Zn	1.430600	-0.477737	0.477933
Zn6	Zn	1.930600	0.022263	0.977933
Zn7	Zn	1.430607	-0.678306	0.678566
Zn8	Zn	1.930607	-0.178306	1.178566
O9	O	1.518429	-0.578026	0.578257
O10	O	2.018429	-0.078026	1.078257
O11	O	1.753311	-0.504298	0.651997
O12	O	2.253311	-0.004298	1.151997
O13	O	1.582868	-0.651854	0.309977
O14	O	2.082868	-0.151854	0.809977
O15	O	1.453945	-0.309777	0.504572
O16	O	1.953945	0.190223	1.004572
O17	O	1.753240	-0.651781	0.504560
O18	O	2.253240	-0.151781	1.004560
O19	O	1.583033	-0.309721	0.652004
O20	O	2.083033	0.190279	1.152004
O21	O	1.453851	-0.504427	0.309983
O22	O	1.953851	-0.004427	0.809983
O23	O	1.283580	-0.504334	0.504534
O24	O	1.783580	-0.004334	1.004534
O25	O	1.453956	-0.651619	0.846521
O26	O	1.953956	-0.151619	1.346521
O27	O	1.283585	-0.651692	0.651938
O28	O	1.783585	-0.151692	1.151938
O29	O	1.583039	-0.504206	0.846549
O30	O	2.083039	-0.004206	1.346549
O31	O	1.582874	-0.846339	0.504523
O32	O	2.082874	-0.346339	1.004523
O33	O	1.453862	-0.846269	0.651932
O34	O	1.953862	-0.346269	1.151932
C35	C	1.245461	-0.578012	0.578234
C36	C	1.745461	-0.078012	1.078234
C37	C	1.128685	-0.578034	0.578252
C38	C	1.628685	-0.078034	1.078252
C39	C	1.518387	-0.889851	0.578248
C40	C	2.018387	-0.389851	1.078248
C41	C	1.518465	-1.023251	0.578285
C42	C	2.018465	-0.523251	1.078285
C43	C	1.073853	-0.654880	0.654884
C44	C	1.573853	-0.154880	1.154884
C45	C	0.964129	-0.654885	0.654908
C46	C	1.464129	-0.154885	1.154908
C47	C	0.964078	-0.501194	0.501657
C48	C	1.464078	-0.001194	1.001657
C49	C	1.073800	-0.501184	0.501640
C50	C	1.573800	-0.001184	1.001640
C51	C	1.792462	-0.578042	0.578282
C52	C	2.292462	-0.078042	1.078282
C53	C	1.909239	-0.578049	0.578293
C54	C	2.409239	-0.078049	1.078293
C55	C	1.518509	-0.577893	0.891300
C56	C	2.018509	-0.077893	1.391300
C57	C	1.518544	-0.577836	1.024700
C58	C	2.018544	-0.077836	1.524700
C59	C	1.518499	-0.264984	0.578293
C60	C	2.018499	0.235016	1.078293
C61	C	1.518529	-0.131584	0.578308
C62	C	2.018529	0.368416	1.078308
C63	C	1.518409	-0.578073	0.266433
C64	C	2.018409	-0.078073	0.766433
C65	C	1.518578	-0.577791	0.133033
C66	C	2.018578	-0.077791	0.633033
H67	H	1.118537	-0.717453	0.717270
H68	H	1.618537	-0.217453	1.217270
H69	H	0.919490	-0.717459	0.717312
H70	H	1.419490	-0.217459	1.217312
C71	C	0.903695	-0.416670	0.417382
C72	C	1.403695	0.083330	0.917382
N73	N	0.858216	-0.353008	0.353901
N74	N	1.358216	0.146992	0.853901
C75	C	1.134119	-0.416644	0.417334
C76	C	1.634119	0.083356	0.917334
N77	N	1.179551	-0.352969	0.353838
N78	N	1.679551	0.147031	0.853838
