data_functionalizedCrystal
_audit_creation_method	'MofGen! by Chris Wilmer'
_symmetry_space_group_name_H-M	'P1'
_symmetry_Int_Tables_number	1
_symmetry_cell_setting	triclinic
loop_
_symmetry_equiv_pos_as_xyz
  x,y,z
_cell_length_a	12.811439
_cell_length_b	12.837942
_cell_length_c	11.295483
_cell_angle_alpha	85.469583
_cell_angle_beta	88.711249
_cell_angle_gamma	89.411061
loop_
_atom_site_label
_atom_site_type_symbol
_atom_site_fract_x
_atom_site_fract_y
_atom_site_fract_z
O1	O	-1.403249	-0.143339	0.052498
O2	O	-0.903249	0.356661	0.552498
O3	O	-1.101287	-0.156245	0.019890
O4	O	-0.601287	0.343755	0.519890
O5	O	-1.245572	0.001190	0.035478
O6	O	-0.745572	0.501190	0.535478
O7	O	-1.258964	-0.300774	0.036910
O8	O	-0.758964	0.199226	0.536910
O9	O	-1.232897	-0.012616	0.232160
O10	O	-0.732897	0.487384	0.732160
O11	O	-1.088612	-0.170051	0.216571
O12	O	-0.588612	0.329949	0.716571
O13	O	-1.390574	-0.157145	0.249180
O14	O	-0.890574	0.342855	0.749180
Cu15	Cu	-1.238436	-0.164859	0.250834
Cu16	Cu	-0.738436	0.335141	0.750834
Cu17	Cu	-1.253425	-0.148531	0.018235
Cu18	Cu	-0.753425	0.351469	0.518235
O19	O	-1.246289	-0.314580	0.233591
O20	O	-0.746289	0.185420	0.733591
C21	C	-1.056031	-0.162002	0.114028
C22	C	-0.556031	0.337998	0.614028
C23	C	-0.940066	-0.158577	0.101505
C24	C	-0.440066	0.341423	0.601505
C25	C	-0.708334	-0.167174	0.292420
C26	C	-0.208334	0.332826	0.792420
C27	C	-0.599374	-0.163956	0.280660
C28	C	-0.099374	0.336044	0.780660
C29	C	-0.613184	-0.148915	0.066226
C30	C	-0.113184	0.351085	0.566226
C31	C	-0.722144	-0.152133	0.077986
C32	C	-0.222144	0.347867	0.577986
C33	C	-0.769715	-0.161264	0.191087
C34	C	-0.269715	0.338736	0.691087
C35	C	-0.878677	-0.164490	0.202846
C36	C	-0.378677	0.335510	0.702846
C37	C	-0.892485	-0.149442	-0.011587
C38	C	-0.392485	0.350558	0.488413
C39	C	-0.783525	-0.146223	-0.023347
C40	C	-0.283525	0.353777	0.476653
C41	C	-1.234710	0.032962	0.133330
C42	C	-0.734710	0.532962	0.633330
C43	C	-1.221218	0.148200	0.131871
C44	C	-0.721218	0.648200	0.631871
N45	N	-1.227900	-0.176342	0.414432
N46	N	-0.727900	0.323658	0.914432
C47	C	-0.435830	-0.151391	0.155042
C48	C	0.064170	0.348609	0.655042
C49	C	-0.551794	-0.154828	0.167566
C50	C	-0.051794	0.345172	0.667566
C51	C	-1.257150	-0.346351	0.135737
C52	C	-0.757150	0.153649	0.635737
C53	C	-1.270643	-0.461588	0.137188
C54	C	-0.770643	0.038412	0.637188
C55	C	-1.383420	0.387229	0.149362
C56	C	-0.883420	0.887229	0.649362
C57	C	-1.370748	0.495506	0.147991
C58	C	-0.870748	0.995506	0.647991
C59	C	-1.183204	0.473033	0.127751
C60	C	-0.683204	0.973033	0.627751
C61	C	-1.195876	0.364756	0.129122
C62	C	-0.695876	0.864756	0.629122
C63	C	-1.295987	0.321858	0.139929
C64	C	-0.795987	0.821858	0.639929
C65	C	-1.308658	0.213579	0.141308
C66	C	-0.808658	0.713579	0.641308
C67	C	-1.121115	0.191108	0.121059
C68	C	-0.621115	0.691108	0.621059
C69	C	-1.108443	0.299385	0.119689
C70	C	-0.608443	0.799385	0.619689
N71	N	-1.263968	-0.137039	-0.145362
N72	N	-0.763968	0.362961	0.354638
C73	C	-1.339802	-0.054318	0.675811
C74	C	-0.839802	0.445682	1.175811
C75	C	-1.331848	-0.063003	0.799616
C76	C	-0.831848	0.436997	1.299616
C77	C	-1.204035	-0.202393	0.785847
C78	C	-0.704035	0.297607	1.285847
C79	C	-1.211988	-0.193707	0.662043
C80	C	-0.711988	0.306293	1.162043
C81	C	-1.279875	-0.119668	0.607029
C82	C	-0.779875	0.380332	1.107029
C83	C	-1.287834	-0.110989	0.483223
C84	C	-0.787834	0.389011	0.983223
C85	C	-1.160015	-0.250372	0.469456
C86	C	-0.660015	0.249628	0.969456
C87	C	-1.152061	-0.259058	0.593261
C88	C	-0.652061	0.240942	1.093261
H89	H	-0.744777	-0.138784	-0.115430
H90	H	-0.244777	0.361216	0.384570
Cl91	Cl	-1.118684	-0.295454	0.855018
Cl92	Cl	-0.618684	0.204546	1.355018
Cl93	Cl	-0.982596	0.353325	0.106093
Cl94	Cl	-0.482596	0.853325	0.606093
H95	H	-1.343113	-0.050705	0.438433
H96	H	-0.843113	0.449295	0.938433
Cl97	Cl	-1.011191	0.108920	0.109215
Cl98	Cl	-0.511191	0.608920	0.609215
Cl99	Cl	-0.938479	-0.175973	0.345027
Cl100	Cl	-0.438479	0.324027	0.845027
H101	H	-0.747066	-0.174623	0.384511
H102	H	-0.247066	0.325377	0.884511
H103	H	-1.464934	0.352301	0.158173
H104	H	-0.964934	0.852301	0.658173
H105	H	-1.380645	-0.009787	0.855615
H106	H	-0.880645	0.490213	1.355615
H107	H	-1.111222	-0.303588	0.413440
H108	H	-0.611222	0.196412	0.913440
H109	H	-1.395086	0.005961	0.631020
H110	H	-0.895086	0.505961	1.131020
Cl111	Cl	-1.066719	-0.352129	0.662429
Cl112	Cl	-0.566719	0.147871	1.162429
H113	H	-0.549401	-0.168774	0.363176
H114	H	-0.049401	0.331226	0.863176
H115	H	-0.574433	-0.141462	-0.025855
H116	H	-0.074433	0.358538	0.474145
Cl117	Cl	-0.969655	-0.142030	-0.138985
Cl118	Cl	-0.469655	0.357970	0.361015
H119	H	-1.390173	0.178653	0.150112
H120	H	-0.890173	0.678653	0.650112
Cl121	Cl	-1.480670	0.577684	0.159847
Cl122	Cl	-0.980670	1.077684	0.659847
H123	H	-1.101698	0.507980	0.118940
H124	H	-0.601698	1.007980	0.618940
