data_functionalizedCrystal
_audit_creation_method	'MofGen! by Chris Wilmer'
_symmetry_space_group_name_H-M	'P1'
_symmetry_Int_Tables_number	1
_symmetry_cell_setting	triclinic
loop_
_symmetry_equiv_pos_as_xyz
  x,y,z
_cell_length_a	14.044220
_cell_length_b	15.944493
_cell_length_c	12.503572
_cell_angle_alpha	93.528588
_cell_angle_beta	86.164750
_cell_angle_gamma	88.331960
loop_
_atom_site_label
_atom_site_type_symbol
_atom_site_fract_x
_atom_site_fract_y
_atom_site_fract_z
O1	O	1.263130	0.198065	-0.089180
O2	O	0.987164	0.190756	-0.089208
O3	O	1.132712	0.072699	-0.089202
O4	O	1.117582	0.316123	-0.089186
O5	O	1.121766	0.081593	0.089439
O6	O	0.976218	0.199651	0.089433
O7	O	1.252184	0.206960	0.089461
Cu8	Cu	1.113201	0.204117	0.105759
Cu9	Cu	1.126146	0.193598	-0.105506
O10	O	1.106636	0.325017	0.089455
C11	C	0.946377	0.192005	0.000109
C12	C	0.841154	0.182463	0.000097
C13	C	1.126621	0.045805	0.000114
C14	C	1.124768	-0.047584	0.000100
C15	C	0.648494	0.165020	0.000117
C16	C	0.590849	0.232692	0.000126
C17	C	0.483646	0.222986	0.000138
C18	C	0.755707	0.174724	0.000106
C19	C	1.210440	-0.276927	0.000129
C20	C	1.169636	-0.335340	-0.087955
C21	C	1.121332	-0.218561	0.000113
C22	C	1.158824	-0.326548	0.088172
C23	C	1.118020	-0.383718	0.000130
C24	C	1.080557	-0.275748	-0.088044
C25	C	1.069753	-0.266948	0.088162
C26	C	1.028886	-0.325334	0.000057
C27	C	1.123243	-0.123419	0.000102
C28	C	1.116102	-0.478858	0.000133
C29	C	1.292971	0.205711	0.000142
C30	C	1.398195	0.215253	0.000146
C31	C	1.112727	0.351911	0.000137
C32	C	1.114580	0.445299	0.000144
N33	N	1.104103	0.211516	0.254351
N34	N	1.135252	0.186194	-0.254097
C35	C	1.090720	0.222407	0.473465
C36	C	1.148632	0.175306	0.526795
C37	C	1.141186	0.181366	0.648718
C38	C	1.098166	0.216348	0.351531
H39	H	0.622009	0.297917	0.000126
Cl40	Cl	0.600388	0.064323	0.000112
H41	H	1.027591	-0.237095	0.162626
Cl42	Cl	1.328949	-0.243926	0.000009
Cl43	Cl	1.234178	0.106370	0.455918
Cl44	Cl	1.005544	0.291690	0.544341
Cl45	Cl	1.234779	-0.381407	-0.202916
H46	H	1.047515	-0.253456	-0.162591
Cl47	Cl	0.910296	-0.358102	-0.000026
Cl48	Cl	1.209905	-0.361137	0.203139
