data_functionalizedCrystal
_audit_creation_method	'MofGen! by Chris Wilmer'
_symmetry_space_group_name_H-M	'P1'
_symmetry_Int_Tables_number	1
_symmetry_cell_setting	triclinic
loop_
_symmetry_equiv_pos_as_xyz
  x,y,z
_cell_length_a	18.215407
_cell_length_b	16.120444
_cell_length_c	18.215399
_cell_angle_alpha	92.870532
_cell_angle_beta	89.982632
_cell_angle_gamma	92.923925
loop_
_atom_site_label
_atom_site_type_symbol
_atom_site_fract_x
_atom_site_fract_y
_atom_site_fract_z
Zn1	Zn	1.110204	-0.331974	-0.430919
Zn2	Zn	1.443538	0.001360	-0.097586
Zn3	Zn	1.776871	0.334693	0.235748
Zn4	Zn	1.103869	-0.471396	-0.314090
Zn5	Zn	1.437202	-0.138062	0.019244
Zn6	Zn	1.770535	0.195271	0.352577
Zn7	Zn	0.987136	-0.331994	-0.307872
Zn8	Zn	1.320469	0.001340	0.025461
Zn9	Zn	1.653803	0.334673	0.358794
Zn10	Zn	0.980861	-0.471342	-0.437118
Zn11	Zn	1.314194	-0.138008	-0.103784
Zn12	Zn	1.647528	0.195325	0.229549
O13	O	1.045517	-0.401676	-0.372500
O14	O	1.378851	-0.068343	-0.039166
O15	O	1.712184	0.264990	0.294167
O16	O	1.212347	-0.350483	-0.415429
O17	O	1.545681	-0.017149	-0.082096
O18	O	1.879014	0.316184	0.251238
O19	O	1.088358	-0.452934	-0.210282
O20	O	1.421692	-0.119601	0.123051
O21	O	1.755025	0.213732	0.456385
O22	O	1.008739	-0.215325	-0.318999
O23	O	1.342072	0.118008	0.014335
O24	O	1.675405	0.451342	0.347668
O25	O	1.207693	-0.452915	-0.329595
O26	O	1.541026	-0.119582	0.003738
O27	O	1.874359	0.213752	0.337071
O28	O	1.099157	-0.215310	-0.409400
O29	O	1.432490	0.118023	-0.076067
O30	O	1.765823	0.451356	0.257266
O31	O	1.002595	-0.350517	-0.205714
O32	O	1.335929	-0.017183	0.127619
O33	O	1.669262	0.316150	0.460952
O34	O	0.883320	-0.350464	-0.325009
O35	O	1.216653	-0.017131	0.008324
O36	O	1.549987	0.316202	0.341657
O37	O	0.998044	-0.452824	-0.539278
O38	O	1.331377	-0.119490	-0.205945
O39	O	1.664711	0.213843	0.127388
O40	O	0.878710	-0.452843	-0.419965
O41	O	1.212043	-0.119510	-0.086632
O42	O	1.545376	0.213824	0.246702
O43	O	1.093072	-0.350430	-0.534724
O44	O	1.426405	-0.017097	-0.201391
O45	O	1.759739	0.316236	0.131943
O46	O	1.082274	-0.588055	-0.335606
O47	O	1.415607	-0.254721	-0.002273
O48	O	1.748940	0.078612	0.331061
O49	O	0.991901	-0.588015	-0.425994
O50	O	1.325234	-0.254682	-0.092661
O51	O	1.658567	0.078652	0.240673
C52	C	0.854312	-0.401651	-0.372486
C53	C	1.187646	-0.068317	-0.039152
C54	C	1.520979	0.265016	0.294181
C55	C	0.772513	-0.401660	-0.372498
C56	C	1.105846	-0.068326	-0.039165
C57	C	1.439180	0.265007	0.294169
C58	C	0.586737	-0.348433	-0.417271
C59	C	0.920070	-0.015100	-0.083938
C60	C	1.253404	0.318234	0.249396
C61	C	0.509878	-0.348440	-0.417274
C62	C	0.843211	-0.015107	-0.083940
C63	C	1.176544	0.318227	0.249393
C64	C	0.505049	-0.454943	-0.327742
C65	C	0.838382	-0.121610	0.005591
C66	C	1.171716	0.211724	0.338924
C67	C	0.581907	-0.454931	-0.327736
C68	C	0.915240	-0.121598	0.005597
C69	C	1.248573	0.211736	0.338930
C70	C	0.622749	-0.401677	-0.372505
C71	C	0.956082	-0.068344	-0.039171
C72	C	1.289415	0.264989	0.294162
C73	C	0.469032	-0.401696	-0.372514
C74	C	0.802365	-0.068363	-0.039180
C75	C	1.135698	0.264970	0.294153
C76	C	0.385698	-0.401704	-0.372516
C77	C	0.719031	-0.068371	-0.039183
C78	C	1.052364	0.264962	0.294150
C79	C	0.706088	-0.401668	-0.372501
C80	C	1.039421	-0.068334	-0.039168
C81	C	1.372755	0.264999	0.294165
C82	C	1.035739	-0.618285	-0.382163
C83	C	1.369072	-0.284952	-0.048830
C84	C	1.702405	0.048382	0.284503
C85	C	1.031623	-0.710951	-0.386322
C86	C	1.364956	-0.377618	-0.052989
C87	C	1.698289	-0.044285	0.280345
C88	C	1.067050	-0.921893	-0.351084
C89	C	1.400383	-0.588560	-0.017751
C90	C	1.733716	-0.255227	0.315582
C91	C	1.024121	-0.880608	-0.393923
C92	C	1.357455	-0.547275	-0.060589
C93	C	1.690788	-0.213941	0.272744
C94	C	1.028296	-0.786202	-0.389692
C95	C	1.361630	-0.452869	-0.056359
C96	C	1.694963	-0.119535	0.276974
C97	C	1.062876	-1.016308	-0.355314
C98	C	1.396209	-0.682974	-0.021980
C99	C	1.729542	-0.349641	0.311353
C100	C	1.237469	-0.401703	-0.372514
C101	C	1.570802	-0.068369	-0.039181
C102	C	1.904136	0.264964	0.294152
C103	C	1.319267	-0.401714	-0.372520
C104	C	1.652601	-0.068380	-0.039187
C105	C	1.985934	0.264953	0.294146
C106	C	1.045565	-0.401619	-0.564450
C107	C	1.378898	-0.068285	-0.231117
C108	C	1.712231	0.265048	0.102217
C109	C	1.045585	-0.401594	-0.646248
C110	C	1.378918	-0.068261	-0.312915
C111	C	1.712252	0.265072	0.020419
C112	C	1.055354	-0.184222	-0.362814
C113	C	1.388688	0.149112	-0.029481
C114	C	1.722021	0.482445	0.303852
C115	C	1.059546	-0.091555	-0.358687
C116	C	1.392880	0.241778	-0.025354
C117	C	1.726213	0.575111	0.307980
C118	C	1.095085	-0.348228	-0.832070
C119	C	1.428419	-0.014895	-0.498736
C120	C	1.761752	0.318438	-0.165403
C121	C	1.095095	-0.348204	-0.908927
C122	C	1.428428	-0.014871	-0.575594
C123	C	1.761762	0.318463	-0.242261
C124	C	0.996143	-0.454831	-0.913659
C125	C	1.329476	-0.121498	-0.580325
C126	C	1.662809	0.211835	-0.246992
C127	C	0.996130	-0.454851	-0.836802
C128	C	1.329463	-0.121517	-0.503469
C129	C	1.662796	0.211816	-0.170135
C130	C	1.045605	-0.401551	-0.796010
C131	C	1.378939	-0.068217	-0.462676
C132	C	1.712272	0.265116	-0.129343
C133	C	1.045628	-0.401507	-0.949724
C134	C	1.378961	-0.068173	-0.616390
C135	C	1.712295	0.265160	-0.283057
C136	C	1.045638	-0.401481	-1.033056
C137	C	1.378972	-0.068147	-0.699723
C138	C	1.712305	0.265186	-0.366390
C139	C	1.045594	-0.401575	-0.712672
C140	C	1.378928	-0.068242	-0.379338
C141	C	1.712261	0.265092	-0.046005
C142	C	1.045515	-0.401673	-0.181293
C143	C	1.378849	-0.068340	0.152040
C144	C	1.712182	0.264993	0.485373
C145	C	1.045648	-0.401463	-0.099485
C146	C	1.378981	-0.068130	0.233848
C147	C	1.712315	0.265204	0.567181
H148	H	0.480561	-0.305082	-0.453726
H149	H	0.813894	0.028252	-0.120392
H150	H	1.147227	0.361585	0.212941
Cl151	Cl	1.128628	-0.867001	-0.289557
Cl152	Cl	1.461961	-0.533668	0.043776
Cl153	Cl	1.795294	-0.200334	0.377110
H154	H	0.471786	-0.498301	-0.291294
H155	H	0.805119	-0.164968	0.042039
H156	H	1.138453	0.168366	0.375372
H157	H	0.984234	-0.916164	-0.433775
H158	H	1.317567	-0.582830	-0.100441
H159	H	1.650900	-0.249497	0.232892
H160	H	0.955832	-0.498271	-0.807441
H161	H	1.289165	-0.164938	-0.474108
H162	H	1.622499	0.168395	-0.140775
H163	H	1.135369	-0.304826	-0.798858
H164	H	1.468703	0.028508	-0.465525
H165	H	1.802036	0.361841	-0.132192
H166	H	0.611228	-0.498290	-0.291278
H167	H	0.944561	-0.164956	0.042055
H168	H	1.277895	0.168377	0.375388
H169	H	1.135386	-0.304782	-0.938284
H170	H	1.468719	0.028551	-0.604950
H171	H	1.802052	0.361884	-0.271617
H172	H	0.619988	-0.305068	-0.453722
H173	H	0.953322	0.028266	-0.120389
H174	H	1.286655	0.361599	0.212945
Cl175	Cl	0.933952	-0.521838	-0.964946
Cl176	Cl	1.267286	-0.188505	-0.631612
Cl177	Cl	1.600619	0.144829	-0.298279
