data_functionalizedCrystal
_audit_creation_method	'MofGen! by Chris Wilmer'
_symmetry_space_group_name_H-M	'P1'
_symmetry_Int_Tables_number	1
_symmetry_cell_setting	triclinic
loop_
_symmetry_equiv_pos_as_xyz
  x,y,z
_cell_length_a	31.640172
_cell_length_b	20.875652
_cell_length_c	20.875641
_cell_angle_alpha	64.820057
_cell_angle_beta	90.005689
_cell_angle_gamma	57.587875
loop_
_atom_site_label
_atom_site_type_symbol
_atom_site_fract_x
_atom_site_fract_y
_atom_site_fract_z
Zr1	Zr	0.391667	0.697906	-0.056430
O2	O	0.323387	0.824818	-0.150750
O3	O	0.414928	0.565961	-0.030807
O4	O	0.414926	0.690632	-0.155479
O5	O	0.320742	0.707640	0.076010
O6	O	0.484483	0.690620	-0.155466
O7	O	0.323390	0.700147	-0.026078
O8	O	0.484487	0.467605	0.067550
O9	O	0.320737	0.930654	-0.147006
O10	O	0.473944	0.622087	-0.015893
O11	O	0.420058	0.627688	0.060284
O12	O	0.420055	0.774472	-0.086502
O13	O	0.366169	0.780073	-0.010325
Zr14	Zr	0.498379	0.709837	0.106409
Zr15	Zr	0.502602	0.697886	-0.056409
Zr16	Zr	0.387444	0.709856	0.106388
Zr17	Zr	0.387441	0.866702	-0.050459
Zr18	Zr	0.502606	0.541041	0.100438
O19	O	0.475118	0.841782	0.080786
O20	O	0.481123	0.824790	-0.150720
O21	O	0.317382	0.841810	0.080756
O22	O	0.566659	0.582924	0.200729
O23	O	0.572664	0.565933	-0.030777
O24	O	0.408923	0.582952	0.200699
O25	O	0.569304	0.700103	-0.026031
O26	O	0.475121	0.717110	0.205458
O27	O	0.405564	0.717123	0.205445
O28	O	0.566656	0.707596	0.076056
O29	O	0.408916	0.930638	-0.146989
O30	O	0.481130	0.477104	0.196968
O31	O	0.569309	0.477089	0.196985
O32	O	0.572666	0.467590	0.067566
O33	O	0.317380	0.940153	-0.017587
O34	O	0.405559	0.940137	-0.017571
O35	O	0.469991	0.633270	0.136480
O36	O	0.523877	0.627669	0.060303
O37	O	0.469988	0.780055	-0.010305
O38	O	0.416103	0.785656	0.065872
C39	C	0.450310	0.492733	0.017521
C40	C	0.452104	0.421075	0.014986
C41	C	0.465225	0.017412	-0.003579
C42	C	0.463536	0.084744	-0.001195
C43	C	0.434567	0.121326	0.039766
C44	C	0.407280	0.090579	0.078339
C45	C	0.408966	0.023252	0.075950
C46	C	0.426504	0.323001	0.051170
C47	C	0.424821	0.390331	0.053558
C48	C	0.481077	0.384492	-0.025978
C49	C	0.482763	0.317161	-0.028359
C50	C	0.455474	0.286423	0.010211
N51	N	0.432841	0.190148	0.042206
N52	N	0.457197	0.217606	0.007766
C53	C	0.306260	0.703896	0.024963
C54	C	0.259165	0.703904	0.024954
C55	C	-0.004712	0.624320	0.061861
C56	C	-0.181697	0.624305	0.061876
O57	O	-0.180661	0.556658	0.093249
N58	N	-0.231956	0.703848	0.025018
C59	C	-0.237968	0.783401	-0.011842
O60	O	-0.284778	0.851057	-0.043185
C61	C	-0.060984	0.783415	-0.011852
C62	C	-0.010725	0.703867	0.025002
C63	C	0.045545	0.544778	0.098713
C64	C	0.089788	0.544782	0.098706
C65	C	0.083775	0.624329	0.061847
C66	C	0.033518	0.703871	0.024995
C67	C	-0.066997	0.862967	-0.048707
C68	C	-0.022745	0.862964	-0.048705
C69	C	0.027513	0.783415	-0.011850
C70	C	0.071749	0.783421	-0.011872
N71	N	0.122008	0.703878	0.024986
C72	C	0.128021	0.624332	0.061845
C73	C	-0.330886	0.783388	-0.011836
C74	C	-0.375132	0.783385	-0.011835
C75	C	-0.318857	0.624289	0.061885
C76	C	-0.274611	0.624293	0.061879
C77	C	-0.280627	0.703845	0.025022
C78	C	0.220933	0.624347	0.061827
C79	C	0.265178	0.624358	0.061813
C80	C	0.208900	0.783453	-0.011902
C81	C	0.164659	0.783443	-0.011893
C82	C	0.170679	0.703882	0.024977
O83	O	0.070752	0.851034	-0.043221
O84	O	0.174834	0.556687	0.093198
C85	C	-0.048955	0.624316	0.061869
C86	C	-0.099212	0.703858	0.025017
C87	C	-0.105225	0.783404	-0.011842
C88	C	-0.143458	0.703855	0.025018
C89	C	-0.137445	0.624308	0.061877
C90	C	-0.087186	0.544765	0.098735
C91	C	-0.042942	0.544770	0.098728
C92	C	-0.155484	0.862947	-0.048700
C93	C	-0.199725	0.862937	-0.048690
C94	C	-0.193712	0.783390	-0.011831
C95	C	0.583786	0.703847	0.025016
C96	C	0.630881	0.703838	0.025025
C97	C	0.450306	0.688923	-0.178671
C98	C	0.452099	0.683850	-0.247791
C99	C	0.439736	0.915009	0.032458
C100	C	0.437942	0.986668	0.034993
C101	C	0.424813	0.761008	-0.317121
C102	C	0.426504	0.756236	-0.382065
C103	C	0.455479	0.674305	-0.377677
C104	C	0.482768	0.597141	-0.308339
C105	C	0.481080	0.601914	-0.243397
C106	C	0.463548	0.651501	-0.567951
C107	C	0.465234	0.646734	-0.632900
C108	C	0.408970	0.805830	-0.706621
C109	C	0.407281	0.810595	-0.641674
C110	C	0.434573	0.733432	-0.572343
N111	N	0.457207	0.669426	-0.444059
N112	N	0.432847	0.738312	-0.505963
C113	C	0.439740	0.718819	0.228650
C114	C	0.437948	0.723892	0.297770
C115	C	0.589073	0.492709	0.017547
C116	C	0.637962	0.421042	0.015021
C117	C	0.445027	0.507681	0.221181
C118	C	0.445029	0.441096	0.287766
C119	C	0.583790	0.507657	0.221207
C120	C	0.630887	0.441063	0.287801
C121	C	0.306256	0.900086	-0.171228
C122	C	0.259159	0.966679	-0.237822
C123	C	0.300973	0.915034	0.032432
C124	C	0.252084	0.986700	0.034958
C125	C	0.445019	0.900061	-0.171202
C126	C	0.445018	0.966646	-0.237787
C127	C	0.634857	0.384472	-0.025946
C128	C	0.680789	0.317142	-0.028334
C129	C	0.729827	0.286379	0.010249
C130	C	0.732931	0.322955	0.051217
C131	C	0.686999	0.390289	0.053601
C132	C	0.471094	0.412742	0.358816
C133	C	0.471093	0.350188	0.421387
C134	C	0.445029	0.315985	0.412906
C135	C	0.418961	0.344345	0.341849
C136	C	0.418959	0.406903	0.279280
C137	C	0.681136	0.406866	0.279311
C138	C	0.725392	0.344304	0.341878
C139	C	0.719398	0.315934	0.412934
C140	C	0.669143	0.350138	0.421423
C141	C	0.624888	0.412704	0.358857
C142	C	0.208910	1.000884	-0.229332
C143	C	0.164653	1.063468	-0.291898
C144	C	0.170647	1.091841	-0.362954
C145	C	0.220902	1.057633	-0.371443
C146	C	0.265158	0.995056	-0.308877
C147	C	0.255189	1.023277	0.075919
C148	C	0.209257	1.090625	0.078290
C149	C	0.160219	1.121390	0.039704
C150	C	0.157115	1.084810	-0.001261
C151	C	0.203047	1.017468	-0.003636
C152	C	0.471086	1.000830	-0.229283
C153	C	0.471095	1.063385	-0.291841
C154	C	0.445032	1.091760	-0.362903
C155	C	0.418963	1.057571	-0.371406
C156	C	0.418957	0.995012	-0.308849
H157	H	0.506352	0.287377	-0.061713
H158	H	0.134607	1.142796	-0.413892
H159	H	0.204019	0.977786	-0.171480
N160	N	0.397081	0.289841	0.092780
H161	H	0.422591	0.225186	0.130407
H162	H	0.370463	0.298948	0.056668
N163	N	0.308076	0.990103	0.117539
H164	H	0.303066	1.023505	0.143840
H165	H	0.328269	0.999136	0.081438
H166	H	0.583975	0.440539	0.365780
N167	N	0.376033	0.130028	0.122521
H168	H	0.348018	0.194944	0.088439
H169	H	0.400179	0.121173	0.162131
H170	H	-0.002023	0.479993	0.128740
N171	N	0.212612	1.130069	0.122476
H172	H	0.250648	1.100350	0.146563
H173	H	0.194688	1.121294	0.162039
N174	N	0.499206	1.100264	-0.282657
H175	H	0.495259	1.144199	-0.333065
H176	H	0.537640	1.050940	-0.255738
N177	N	0.110452	0.869245	-0.051645
H178	H	0.089855	0.875596	-0.015034
H179	H	0.091866	0.869938	-0.091535
N180	N	0.492965	0.117897	-0.042801
H181	H	0.531617	0.068051	-0.023749
H182	H	0.487461	0.166116	-0.035068
N183	N	0.390831	0.958155	-0.318023
H184	H	0.416715	0.892411	-0.295241
H185	H	0.374320	0.985693	-0.372545
H186	H	0.755438	0.264988	0.463873
N187	N	0.499221	0.319595	0.498019
H188	H	0.495269	0.274777	0.536375
H189	H	0.483556	0.371464	0.505845
H190	H	0.397741	0.316488	0.334954
N191	N	0.110454	1.100353	-0.282733
H192	H	0.113377	1.072873	-0.228225
H193	H	0.091858	1.086796	-0.308367
H194	H	0.689535	0.420056	0.086965
H195	H	0.445040	1.142701	-0.413835
H196	H	0.678251	0.287369	-0.061695
H197	H	0.397743	1.080684	-0.429273
N198	N	0.397081	0.839441	-0.456853
H199	H	0.422596	0.840986	-0.485422
H200	H	0.378463	0.892037	-0.449739
N201	N	0.496475	-0.022047	-0.047754
H202	H	0.513501	0.007651	-0.071828
H203	H	0.472338	-0.013256	-0.087326
H204	H	0.386748	-0.001777	0.107358
N205	N	0.227363	1.088239	-0.448083
H206	H	0.191700	1.133068	-0.486424
H207	H	0.248368	1.036377	-0.455921
H208	H	0.306072	0.967206	-0.315800
H209	H	0.225843	0.559561	0.091850
N210	N	0.779588	0.307415	0.332701
H211	H	0.800195	0.241672	0.355488
H212	H	0.798174	0.321041	0.358268
N213	N	0.510503	0.417652	-0.067583
H214	H	0.505038	0.465857	-0.059859
H215	H	0.497013	0.441462	-0.122215
N216	N	0.499209	0.449619	0.367981
H217	H	0.483547	0.479666	0.397651
H218	H	0.495251	0.493516	0.317541
N219	N	0.393574	0.429789	0.097739
H220	H	0.376542	0.400102	0.121810
H221	H	0.365590	0.494704	0.063611
N222	N	-0.429335	0.869187	-0.051590
H223	H	-0.449936	0.875540	-0.014985
H224	H	-0.447917	0.869881	-0.091485
N225	N	0.510512	0.518694	-0.168617
H226	H	0.529124	0.466066	-0.175690
H227	H	0.484978	0.517211	-0.140070
N228	N	0.110680	1.194023	0.042269
H229	H	0.120094	1.212520	0.074076
H230	H	0.089402	1.172206	0.064053
N231	N	0.319385	0.538551	0.101563
H232	H	0.322996	0.506581	0.155925
H233	H	0.346474	0.550684	0.095911
N234	N	0.143993	0.458983	0.138453
H235	H	0.141080	0.408597	0.161801
H236	H	0.162590	0.458318	0.178309
H237	H	0.767224	0.231550	0.008302
H238	H	0.686027	0.429955	0.221459
N239	N	0.785823	0.289772	0.092829
H240	H	0.814446	0.241565	0.085100
H241	H	0.789183	0.265958	0.147461
N242	N	0.514022	0.508775	-0.303609
H243	H	0.489917	0.503252	-0.328915
H244	H	0.531051	0.460670	-0.249818
H245	H	0.050450	0.479998	0.128732
N246	N	0.445034	0.248511	0.480394
H247	H	0.465505	0.235741	0.526689
H248	H	0.461844	0.192680	0.478390
N249	N	0.199697	0.978006	-0.047804
H250	H	0.217590	0.986774	-0.087412
H251	H	0.161650	1.007734	-0.071834
H252	H	0.397735	0.429980	0.221430
H253	H	0.664271	0.327030	0.479285
N254	N	0.376034	0.898966	-0.646411
H255	H	0.379105	0.890281	-0.594750
H256	H	0.337985	0.932873	-0.673866
N257	N	-0.220405	0.538495	0.101626
H258	H	-0.223315	0.488107	0.124972
H259	H	-0.201810	0.537831	0.141484
N260	N	0.104223	1.117983	-0.042863
H261	H	0.075600	1.166186	-0.035130
H262	H	0.100875	1.068089	-0.023785
N263	N	0.499201	0.970225	-0.152640
H264	H	0.483549	1.022040	-0.144738
H265	H	0.537644	0.942708	-0.147588
N266	N	-0.312380	0.538494	0.101638
H267	H	-0.330477	0.537767	0.141525
H268	H	-0.273820	0.488144	0.124947
N269	N	-0.337379	0.869195	-0.051599
H270	H	-0.375933	0.919577	-0.074950
H271	H	-0.319257	0.869851	-0.091456
H272	H	-0.107913	0.927744	-0.078717
N273	N	-0.029235	0.948769	-0.088457
H274	H	-0.067788	0.999155	-0.111801
H275	H	-0.011116	0.949433	-0.128316
H276	H	0.204013	0.848218	-0.041915
N277	N	-0.080704	0.458967	0.138483
H278	H	-0.116362	0.471044	0.132890
H279	H	-0.061674	0.427033	0.192828
H280	H	0.386751	0.868652	-0.763076
N281	N	0.581971	0.417642	-0.067565
H282	H	0.561752	0.408598	-0.031508
H283	H	0.587027	0.384234	-0.093876
N284	N	-0.253934	0.948739	-0.088441
H285	H	-0.257548	0.980716	-0.142804
H286	H	-0.259482	0.986246	-0.066244
N287	N	-0.161975	0.948748	-0.088464
H288	H	-0.200528	0.999130	-0.111812
H289	H	-0.143855	0.949402	-0.128322
H290	H	0.401215	0.827726	-0.320703
H291	H	0.485771	0.588669	-0.511507
N292	N	0.496479	0.558362	-0.628168
H293	H	0.513510	0.510202	-0.574393
H294	H	0.524463	0.552908	-0.653506
