data_functionalizedCrystal
_audit_creation_method	'MofGen! by Chris Wilmer'
_symmetry_space_group_name_H-M	'P1'
_symmetry_Int_Tables_number	1
_symmetry_cell_setting	triclinic
loop_
_symmetry_equiv_pos_as_xyz
  x,y,z
_cell_length_a	12.759395
_cell_length_b	12.594516
_cell_length_c	12.759387
_cell_angle_alpha	89.969834
_cell_angle_beta	89.979491
_cell_angle_gamma	90.013352
loop_
_atom_site_label
_atom_site_type_symbol
_atom_site_fract_x
_atom_site_fract_y
_atom_site_fract_z
Zn1	Zn	1.606290	-0.423642	-0.594010
Zn2	Zn	1.606189	-0.601660	-0.418332
Zn3	Zn	1.430588	-0.423700	-0.418347
Zn4	Zn	1.430589	-0.601584	-0.593971
O5	O	1.518414	-0.512647	-0.506165
O6	O	1.753297	-0.447264	-0.570716
O7	O	1.582853	-0.578109	-0.271313
O8	O	1.453937	-0.274747	-0.441671
O9	O	1.753224	-0.578053	-0.441646
O10	O	1.583024	-0.274704	-0.570730
O11	O	1.453839	-0.447363	-0.271323
O12	O	1.283567	-0.447290	-0.441634
O13	O	1.453939	-0.577924	-0.740998
O14	O	1.283568	-0.577980	-0.570664
O15	O	1.583025	-0.447191	-0.741026
O16	O	1.582854	-0.750595	-0.441609
O17	O	1.453841	-0.750540	-0.570650
C18	C	1.245447	-0.512634	-0.506147
C19	C	1.128670	-0.512654	-0.506164
C20	C	1.518365	-0.789188	-0.506147
C21	C	1.518441	-0.907493	-0.506174
C22	C	1.128709	-0.648962	-0.640306
C23	C	1.073868	-0.717124	-0.707380
C24	C	0.964147	-0.717137	-0.707393
C25	C	0.909264	-0.648978	-0.640327
C26	C	0.964105	-0.580816	-0.573253
C27	C	1.073829	-0.580812	-0.573245
C28	C	0.964065	-0.444504	-0.439118
C29	C	1.073787	-0.444495	-0.439098
C30	C	0.909182	-0.376345	-0.372051
C31	C	0.964023	-0.308186	-0.304970
C32	C	1.073751	-0.308177	-0.304959
C33	C	1.128628	-0.376332	-0.372024
C34	C	1.588692	-0.976738	-0.436063
C35	C	1.614370	-1.047430	-0.531956
C36	C	1.492894	-1.047600	-0.410342
C37	C	1.544167	-0.976627	-0.602117
C38	C	1.422647	-0.976791	-0.480438
C39	C	1.448289	-1.047451	-0.576397
C40	C	1.792447	-0.512660	-0.506184
C41	C	1.909224	-0.512666	-0.506192
C42	C	1.518493	-0.512542	-0.780199
C43	C	1.518527	-0.512498	-0.896975
C44	C	1.518491	-0.235026	-0.506206
C45	C	1.518525	-0.116720	-0.506224
C46	C	1.652954	-0.376374	-0.897025
C47	C	1.720182	-0.308297	-0.951910
C48	C	1.720208	-0.308258	-1.061632
C49	C	1.652996	-0.376302	-1.116470
C50	C	1.585768	-0.444380	-1.061585
C51	C	1.585752	-0.444413	-0.951861
C52	C	1.451337	-0.580496	-1.061536
C53	C	1.451315	-0.580542	-0.951814
C54	C	1.384125	-0.648540	-1.116375
C55	C	1.316901	-0.716624	-1.061489
C56	C	1.316879	-0.716661	-0.951761
C57	C	1.384087	-0.648619	-0.896929
C58	C	1.518395	-0.512674	-0.233197
C59	C	1.518565	-0.512418	-0.116421
H60	H	1.218050	-0.648966	-0.640295
Cl61	Cl	1.384070	-0.648664	-0.758992
H62	H	1.648111	-0.945687	-0.376826
Cl63	Cl	1.384157	-0.648491	-1.254311
H64	H	1.341624	-0.945736	-0.458614
H65	H	1.262177	-0.772014	-1.106147
H66	H	1.695416	-1.078461	-0.553752
Cl67	Cl	1.577742	-0.928707	-0.727308
H68	H	1.217969	-0.376334	-0.372018
H69	H	1.118566	-0.772616	-0.761986
H70	H	1.262122	-0.772087	-0.907079
Cl71	Cl	1.356621	-1.095093	-0.668071
Cl72	Cl	1.804647	-0.222735	-0.882965
H73	H	1.471253	-1.078774	-0.329278
Cl74	Cl	1.652942	-0.376433	-0.759088
H75	H	1.774944	-0.252817	-1.106319
Cl76	Cl	0.895201	-0.802821	-0.791721
Cl77	Cl	1.653021	-0.376241	-1.254407
H78	H	0.819922	-0.648985	-0.640353
H79	H	0.919329	-0.252692	-0.250375
Cl80	Cl	1.142685	-0.222476	-0.220638
Cl81	Cl	0.771245	-0.376355	-0.372073
