data_functionalizedCrystal
_audit_creation_method	'MofGen! by Chris Wilmer'
_symmetry_space_group_name_H-M	'P1'
_symmetry_Int_Tables_number	1
_symmetry_cell_setting	triclinic
loop_
_symmetry_equiv_pos_as_xyz
  x,y,z
_cell_length_a	14.044220
_cell_length_b	12.503567
_cell_length_c	8.559649
_cell_angle_alpha	93.025499
_cell_angle_beta	81.483771
_cell_angle_gamma	86.159795
loop_
_atom_site_label
_atom_site_type_symbol
_atom_site_fract_x
_atom_site_fract_y
_atom_site_fract_z
O1	O	1.236026	-0.089199	0.372906
O2	O	1.736026	0.410801	0.872906
O3	O	0.961060	-0.089227	0.359145
O4	O	1.461060	0.410773	0.859145
O5	O	1.122768	-0.089210	0.136877
O6	O	1.622768	0.410790	0.636877
O7	O	1.074319	-0.089217	0.595174
O8	O	1.574319	0.410783	1.095174
O9	O	1.110592	0.089432	0.153610
O10	O	1.610592	0.589432	0.653610
O11	O	0.948884	0.089414	0.375879
O12	O	1.448884	0.589414	0.875879
O13	O	1.223850	0.089442	0.389639
O14	O	1.723850	0.589442	0.889639
Cu15	Cu	1.085255	0.105739	0.384287
Cu16	Cu	1.585255	0.605739	0.884287
Cu17	Cu	1.099655	-0.105525	0.364498
Cu18	Cu	1.599655	0.394475	0.864498
O19	O	1.062142	0.089425	0.611908
O20	O	1.562142	0.589425	1.111908
C21	C	0.920096	0.000090	0.361489
C22	C	1.420096	0.500090	0.861489
C23	C	0.816179	0.000080	0.343524
C24	C	1.316179	0.500080	0.843524
C25	C	1.120352	0.000109	0.086237
C26	C	1.620352	0.500109	0.586237
C27	C	1.131281	0.000104	-0.089586
C28	C	1.631281	0.500104	0.410414
N29	N	1.075134	0.254331	0.398206
N30	N	1.575134	0.754331	0.898206
C31	C	0.625907	0.000101	0.310685
C32	C	1.125907	0.500101	0.810685
C33	C	0.558999	0.000104	0.438092
C34	C	1.058999	0.500104	0.938092
C35	C	0.453125	0.000116	0.419819
C36	C	0.953125	0.500116	0.919819
C37	C	0.731791	0.000089	0.328955
C38	C	1.231791	0.500089	0.828955
C39	C	1.264814	0.000122	0.387295
C40	C	1.764814	0.500122	0.887295
C41	C	1.368732	0.000126	0.405259
C42	C	1.868732	0.500126	0.905259
C43	C	1.124662	0.526769	0.330105
C44	C	1.624662	1.026769	0.830105
C45	C	1.060254	0.473439	0.418681
C46	C	1.560254	0.973439	0.918681
C47	C	1.068535	0.351516	0.407286
C48	C	1.568535	0.851516	0.907286
C49	C	1.116382	0.648703	0.341499
C50	C	1.616382	1.148703	0.841499
N51	N	1.109778	0.745884	0.350586
N52	N	1.609778	1.245884	0.850586
C53	C	1.064559	0.000103	0.662547
C54	C	1.564559	0.500103	1.162547
C55	C	1.053630	0.000101	0.838370
C56	C	1.553630	0.500101	1.338370
H57	H	0.581231	0.000097	0.560891
H58	H	1.081231	0.500097	1.060891
O59	O	0.596461	0.000107	0.148033
O60	O	1.096461	0.500107	0.648033
H61	H	0.661805	0.000109	0.057509
H62	H	1.161805	0.500109	0.557509
H63	H	0.998893	0.519348	0.503073
H64	H	1.498893	1.019348	1.003073
O65	O	1.205925	0.465972	0.218289
O66	O	1.705925	0.965972	0.718289
H67	H	1.199752	0.378363	0.226766
H68	H	1.699752	0.878363	0.726766
O69	O	1.230429	0.000122	-0.186045
O70	O	1.730429	0.500122	0.313955
H71	H	1.223747	0.000122	-0.313639
H72	H	1.723747	0.500122	0.186361
H73	H	0.978788	0.000097	-0.088801
H74	H	1.478788	0.500097	0.411199
