data_functionalizedCrystal
_audit_creation_method	'MofGen! by Chris Wilmer'
_symmetry_space_group_name_H-M	'P1'
_symmetry_Int_Tables_number	1
_symmetry_cell_setting	triclinic
loop_
_symmetry_equiv_pos_as_xyz
  x,y,z
_cell_length_a	19.288840
_cell_length_b	19.288864
_cell_length_c	18.366186
_cell_angle_alpha	89.971967
_cell_angle_beta	90.016271
_cell_angle_gamma	96.868870
loop_
_atom_site_label
_atom_site_type_symbol
_atom_site_fract_x
_atom_site_fract_y
_atom_site_fract_z
O1	O	-0.921364	0.086566	-0.060706
O2	O	-0.671364	0.336566	0.189294
O3	O	-0.421364	0.586566	0.439294
O4	O	-0.171364	0.836566	0.689294
O5	O	-0.719101	0.098273	-0.060685
O6	O	-0.469101	0.348273	0.189315
O7	O	-0.219101	0.598273	0.439315
O8	O	0.030899	0.848273	0.689315
O9	O	-0.826077	-0.008712	-0.060651
O10	O	-0.576077	0.241288	0.189349
O11	O	-0.326077	0.491288	0.439349
O12	O	-0.076077	0.741288	0.689349
O13	O	-0.814388	0.193550	-0.060740
O14	O	-0.564388	0.443550	0.189260
O15	O	-0.314388	0.693550	0.439260
O16	O	-0.064388	0.943550	0.689260
O17	O	-0.826059	-0.008717	0.060448
O18	O	-0.576059	0.241283	0.310448
O19	O	-0.326059	0.491283	0.560448
O20	O	-0.076059	0.741283	0.810448
O21	O	-0.719083	0.098268	0.060414
O22	O	-0.469083	0.348268	0.310414
O23	O	-0.219083	0.598268	0.560414
O24	O	0.030917	0.848268	0.810414
O25	O	-0.921346	0.086561	0.060394
O26	O	-0.671346	0.336561	0.310394
O27	O	-0.421346	0.586561	0.560394
O28	O	-0.171346	0.836561	0.810394
Zn29	Zn	-0.820211	0.092413	0.079631
Zn30	Zn	-0.570211	0.342413	0.329631
Zn31	Zn	-0.320211	0.592413	0.579631
Zn32	Zn	-0.070211	0.842413	0.829631
Zn33	Zn	-0.820235	0.092420	-0.079923
Zn34	Zn	-0.570235	0.342420	0.170077
Zn35	Zn	-0.320235	0.592420	0.420077
Zn36	Zn	-0.070235	0.842420	0.670077
O37	O	-0.814370	0.193545	0.060359
O38	O	-0.564370	0.443545	0.310359
O39	O	-0.314370	0.693545	0.560359
O40	O	-0.064370	0.943545	0.810359
C41	C	-0.693215	0.097896	-0.000132
C42	C	-0.443215	0.347896	0.249868
C43	C	-0.193215	0.597896	0.499868
C44	C	0.056785	0.847896	0.749868
C45	C	-0.616110	0.096774	-0.000122
C46	C	-0.366110	0.346774	0.249878
C47	C	-0.116110	0.596774	0.499878
C48	C	0.133890	0.846774	0.749878
N49	N	-0.820200	0.092408	0.188522
N50	N	-0.570200	0.342408	0.438522
N51	N	-0.320200	0.592408	0.688522
N52	N	-0.070200	0.842408	0.938522
C53	C	-0.825692	-0.034591	-0.000091
C54	C	-0.575692	0.215409	0.249909
C55	C	-0.325692	0.465409	0.499909
C56	C	-0.075692	0.715409	0.749909
C57	C	-0.824563	-0.111694	-0.000061
C58	C	-0.574563	0.138306	0.249939
C59	C	-0.324563	0.388306	0.499939
C60	C	-0.074563	0.638306	0.749939
C61	C	-0.947232	0.086937	-0.000161
C62	C	-0.697232	0.336937	0.249839
C63	C	-0.447232	0.586937	0.499839
C64	C	-0.197232	0.836937	0.749839
C65	C	-1.024336	0.088059	-0.000176
C66	C	-0.774336	0.338059	0.249824
C67	C	-0.524336	0.588059	0.499824
C68	C	-0.274336	0.838059	0.749824
C69	C	-0.579917	0.096238	-0.066135
C70	C	-0.329917	0.346238	0.183865
C71	C	-0.079917	0.596238	0.433865
C72	C	0.170083	0.846238	0.683865
C73	C	-0.507470	0.095176	-0.066143
C74	C	-0.257470	0.345176	0.183857
C75	C	-0.007470	0.595176	0.433857
C76	C	0.242530	0.845176	0.683857
C77	C	-0.471221	0.094636	-0.000135
C78	C	-0.221221	0.344636	0.249865
C79	C	0.028779	0.594636	0.499865
C80	C	0.278779	0.844636	0.749865
C81	C	-0.507423	0.095176	0.065886
C82	C	-0.257423	0.345176	0.315886
C83	C	-0.007423	0.595176	0.565886
C84	C	0.242577	0.845176	0.815886
C85	C	-0.579868	0.096245	0.065893
C86	C	-0.329868	0.346245	0.315893
C87	C	-0.079868	0.596245	0.565893
C88	C	0.170132	0.846245	0.815893
C89	C	-0.361886	0.052256	0.050445
C90	C	-0.111886	0.302256	0.300445
C91	C	0.138114	0.552256	0.550445
C92	C	0.388114	0.802256	0.800445
C93	C	-0.289443	0.051183	0.050435
C94	C	-0.039443	0.301183	0.300435
C95	C	0.210557	0.551183	0.550435
C96	C	0.460557	0.801183	0.800435
C97	C	-0.247778	0.091342	-0.000153
C98	C	0.002222	0.341342	0.249847
C99	C	0.252222	0.591342	0.499847
C100	C	0.502222	0.841342	0.749847
C101	C	-0.278565	0.132566	-0.050744
C102	C	-0.028565	0.382566	0.199256
C103	C	0.221435	0.632566	0.449256
C104	C	0.471435	0.882566	0.699256
C105	C	-0.351009	0.133635	-0.050737
C106	C	-0.101009	0.383635	0.199263
C107	C	0.148991	0.633635	0.449263
C108	C	0.398991	0.883635	0.699263
C109	C	-0.392667	0.093477	-0.000135
C110	C	-0.142667	0.343477	0.249865
C111	C	0.107333	0.593477	0.499865
C112	C	0.357333	0.843477	0.749865
C113	C	-0.133029	0.089655	-0.066179
C114	C	0.116971	0.339655	0.183821
C115	C	0.366971	0.589655	0.433821
C116	C	0.616971	0.839655	0.683821
C117	C	-0.060580	0.088598	-0.066185
C118	C	0.189420	0.338598	0.183815
C119	C	0.439420	0.588598	0.433815
C120	C	0.689420	0.838598	0.683815
C121	C	-0.060535	0.088591	0.065847
C122	C	0.189465	0.338591	0.315847
C123	C	0.439465	0.588591	0.565847
C124	C	0.689465	0.838591	0.815847
C125	C	-0.132982	0.089656	0.065851
C126	C	0.117018	0.339656	0.315851
C127	C	0.367018	0.589656	0.565851
C128	C	0.617018	0.839656	0.815851
C129	C	-0.169225	0.090185	-0.000164
C130	C	0.080775	0.340185	0.249836
C131	C	0.330775	0.590185	0.499836
C132	C	0.580775	0.840185	0.749836
C133	C	-0.814755	0.219424	-0.000202
C134	C	-0.564755	0.469424	0.249798
C135	C	-0.314755	0.719424	0.499798
C136	C	-0.064755	0.969424	0.749798
C137	C	-0.815884	0.296527	-0.000237
C138	C	-0.565884	0.546527	0.249763
C139	C	-0.315884	0.796527	0.499763
C140	C	-0.065884	1.046527	0.749763
C141	C	-0.753115	0.341229	-0.000216
C142	C	-0.503115	0.591229	0.249784
C143	C	-0.253115	0.841229	0.499784
C144	C	-0.003115	1.091229	0.749784
C145	C	-0.754176	0.413676	-0.000199
C146	C	-0.504176	0.663676	0.249801
C147	C	-0.254176	0.913676	0.499801
C148	C	-0.004176	1.163676	0.749801
C149	C	-0.818009	0.441418	-0.000189
C150	C	-0.568009	0.691418	0.249811
C151	C	-0.318009	0.941418	0.499811
C152	C	-0.068009	1.191418	0.749811
C153	C	-0.880786	0.396706	-0.000215
C154	C	-0.630786	0.646706	0.249785
C155	C	-0.380786	0.896706	0.499785
C156	C	-0.130786	1.146706	0.749785
C157	C	-0.879723	0.324261	-0.000238
C158	C	-0.629723	0.574261	0.249762
C159	C	-0.379723	0.824261	0.499762
C160	C	-0.129723	1.074261	0.749762
C161	C	-0.868182	0.549662	0.042271
C162	C	-0.618182	0.799662	0.292271
C163	C	-0.368182	1.049662	0.542271
C164	C	-0.118182	1.299662	0.792271
C165	C	-0.869242	0.622106	0.042299
C166	C	-0.619242	0.872106	0.292299
C167	C	-0.369242	1.122106	0.542299
C168	C	-0.119242	1.372106	0.792299
C169	C	-0.821289	0.664863	-0.000120
C170	C	-0.571289	0.914863	0.249880
C171	C	-0.321289	1.164863	0.499880
C172	C	-0.071289	1.414863	0.749880
C173	C	-0.772263	0.635169	-0.042557
C174	C	-0.522263	0.885169	0.207443
C175	C	-0.272263	1.135169	0.457443
C176	C	-0.022263	1.385169	0.707443
C177	C	-0.771201	0.562724	-0.042580
C178	C	-0.521201	0.812724	0.207420
C179	C	-0.271201	1.062724	0.457420
C180	C	-0.021201	1.312724	0.707420
C181	C	-0.819168	0.519972	-0.000164
C182	C	-0.569168	0.769972	0.249836
C183	C	-0.319168	1.019972	0.499836
C184	C	-0.069168	1.269972	0.749836
C185	C	-0.759666	0.788121	-0.000082
C186	C	-0.509666	1.038121	0.249918
C187	C	-0.259666	1.288121	0.499918
C188	C	-0.009666	1.538121	0.749918
C189	C	-0.760729	0.860569	-0.000070
C190	C	-0.510729	1.110569	0.249930
C191	C	-0.260729	1.360569	0.499930
C192	C	-0.010729	1.610569	0.749930
C193	C	-0.887341	0.843598	-0.000078
C194	C	-0.637341	1.093598	0.249922
C195	C	-0.387341	1.343598	0.499922
C196	C	-0.137341	1.593598	0.749922
C197	C	-0.886276	0.771151	-0.000097
C198	C	-0.636276	1.021151	0.249903
C199	C	-0.386276	1.271151	0.499903
C200	C	-0.136276	1.521151	0.749903
C201	C	-0.822436	0.743418	-0.000096
C202	C	-0.572436	0.993418	0.249904
C203	C	-0.322436	1.243418	0.499904
C204	C	-0.072436	1.493418	0.749904
N205	N	-0.820252	0.092420	-0.188814
N206	N	-0.570252	0.342420	0.061186
N207	N	-0.320252	0.592420	0.311186
N208	N	-0.070252	0.842420	0.561186
C209	C	-0.867584	0.045059	0.226638
C210	C	-0.617584	0.295059	0.476638
C211	C	-0.367584	0.545059	0.726638
C212	C	-0.117584	0.795059	0.976638
C213	C	-0.867589	0.045055	0.302865
C214	C	-0.617589	0.295055	0.552865
C215	C	-0.367589	0.545055	0.802865
C216	C	-0.117589	0.795055	1.052865
C217	C	-0.820215	0.092414	0.340975
C218	C	-0.570215	0.342414	0.590975
C219	C	-0.320215	0.592414	0.840975
C220	C	-0.070215	0.842414	1.090975
C221	C	-0.772822	0.139767	0.302850
C222	C	-0.522822	0.389767	0.552850
C223	C	-0.272822	0.639767	0.802850
C224	C	-0.022822	0.889767	1.052850
C225	C	-0.772815	0.139764	0.226624
C226	C	-0.522815	0.389764	0.476624
C227	C	-0.272815	0.639764	0.726624
C228	C	-0.022815	0.889764	0.976624
C229	C	-0.810917	0.155703	0.461708
C230	C	-0.560917	0.405703	0.711708
C231	C	-0.310917	0.655703	0.961708
C232	C	-0.060917	0.905703	1.211708
C233	C	-0.810930	0.155706	0.537933
C234	C	-0.560930	0.405706	0.787933
C235	C	-0.310930	0.655706	1.037933
C236	C	-0.060930	0.905706	1.287933
C237	C	-0.820235	0.092423	0.576082
C238	C	-0.570235	0.342423	0.826082
C239	C	-0.320235	0.592423	1.076082
C240	C	-0.070235	0.842423	1.326082
C241	C	-0.829543	0.029132	0.537997
C242	C	-0.579543	0.279132	0.787997
C243	C	-0.329543	0.529132	1.037997
C244	C	-0.079543	0.779132	1.287997
C245	C	-0.829535	0.029129	0.461771
C246	C	-0.579535	0.279129	0.711771
C247	C	-0.329535	0.529129	0.961771
C248	C	-0.079535	0.779129	1.211771
C249	C	-0.820218	0.092422	0.423630
C250	C	-0.570218	0.342422	0.673630
C251	C	-0.320218	0.592422	0.923630
C252	C	-0.070218	0.842422	1.173630
C253	C	-0.867627	0.045066	0.696853
C254	C	-0.617627	0.295066	0.946853
C255	C	-0.367627	0.545066	1.196853
C256	C	-0.117627	0.795066	1.446853
C257	C	-0.867627	0.045062	0.773082
C258	C	-0.617627	0.295062	1.023082
C259	C	-0.367627	0.545062	1.273082
C260	C	-0.117627	0.795062	1.523082
C261	C	-0.772863	0.139779	0.773065
C262	C	-0.522863	0.389779	1.023065
C263	C	-0.272863	0.639779	1.273065
C264	C	-0.022863	0.889779	1.523065
C265	C	-0.772860	0.139777	0.696838
C266	C	-0.522860	0.389777	0.946838
C267	C	-0.272860	0.639777	1.196838
C268	C	-0.022860	0.889777	1.446838
C269	C	-0.820246	0.092421	0.658736
C270	C	-0.570246	0.342421	0.908736
C271	C	-0.320246	0.592421	1.158736
C272	C	-0.070246	0.842421	1.408736
H273	H	-0.609421	0.096669	-0.119890
H274	H	-0.359421	0.346669	0.130110
H275	H	-0.109421	0.596669	0.380110
H276	H	0.140579	0.846669	0.630110
H277	H	-0.477995	0.094741	-0.119901
H278	H	-0.227995	0.344741	0.130099
H279	H	0.022005	0.594741	0.380099
H280	H	0.272005	0.844741	0.630099
H281	H	-0.734288	0.178336	0.804093
H282	H	-0.484288	0.428336	1.054093
H283	H	-0.234288	0.678336	1.304093
H284	H	0.015712	0.928336	1.554093
H285	H	-0.803355	0.207241	0.568936
H286	H	-0.553355	0.457241	0.818936
H287	H	-0.303355	0.707241	1.068936
H288	H	-0.053355	0.957241	1.318936
H289	H	-0.244641	0.165270	-0.091935
H290	H	0.005359	0.415270	0.158065
H291	H	0.255359	0.665270	0.408065
H292	H	0.505359	0.915270	0.658065
H293	H	-0.709613	0.896966	-0.000058
H294	H	-0.459613	1.146966	0.249942
H295	H	-0.209613	1.396966	0.499942
H296	H	0.040387	1.646966	0.749942
H297	H	-0.906209	0.006503	0.665829
H298	H	-0.656209	0.256503	0.915829
H299	H	-0.406209	0.506503	1.165829
H300	H	-0.156209	0.756503	1.415829
H301	H	-0.477905	0.094739	0.119631
H302	H	-0.227905	0.344739	0.369631
H303	H	0.022095	0.594739	0.619631
H304	H	0.272095	0.844739	0.869631
H305	H	-0.376073	0.167202	-0.091928
H306	H	-0.126073	0.417202	0.158072
H307	H	0.123927	0.667202	0.408072
H308	H	0.373927	0.917202	0.658072
H309	H	-0.162452	0.090088	0.119605
H310	H	0.087548	0.340088	0.369605
H311	H	0.337548	0.590088	0.619605
H312	H	0.587548	0.840088	0.869605
H313	H	-0.906176	0.006496	0.333905
H314	H	-0.656176	0.256496	0.583905
H315	H	-0.406176	0.506496	0.833905
H316	H	-0.156176	0.756496	1.083905
H317	H	-0.939315	0.866184	-0.000123
H318	H	-0.689315	1.116184	0.249877
H319	H	-0.439315	1.366184	0.499877
H320	H	-0.189315	1.616184	0.749877
H321	H	-0.162538	0.090093	-0.119933
H322	H	0.087462	0.340093	0.130067
H323	H	0.337462	0.590093	0.380067
H324	H	0.587462	0.840093	0.630067
H325	H	-0.907237	0.514853	0.076812
H326	H	-0.657237	0.764853	0.326812
H327	H	-0.407237	1.014853	0.576812
H328	H	-0.157237	1.264853	0.826812
H329	H	-0.837120	-0.022400	0.569057
H330	H	-0.587120	0.227600	0.819057
H331	H	-0.337120	0.477600	1.069057
H332	H	-0.087120	0.727600	1.319057
H333	H	-0.733211	0.669981	-0.077093
H334	H	-0.483211	0.919981	0.172907
H335	H	-0.233211	1.169981	0.422907
H336	H	0.016789	1.419981	0.672907
H337	H	-0.909158	0.646278	0.076856
H338	H	-0.659158	0.896278	0.326856
H339	H	-0.409158	1.146278	0.576856
H340	H	-0.159158	1.396278	0.826856
H341	H	-0.803327	0.207239	0.430653
H342	H	-0.553327	0.457239	0.680653
H343	H	-0.303327	0.707239	0.930653
H344	H	-0.053327	0.957239	1.180653
H345	H	-0.734228	0.178322	0.195589
H346	H	-0.484228	0.428322	0.445589
H347	H	-0.234228	0.678322	0.695589
H348	H	0.015772	0.928322	0.945589
H349	H	-0.031022	0.088156	0.119592
H350	H	0.218978	0.338156	0.369592
H351	H	0.468978	0.588156	0.619592
H352	H	0.718978	0.838156	0.869592
H353	H	-0.932759	0.419298	-0.000220
H354	H	-0.682759	0.669298	0.249780
H355	H	-0.432759	0.919298	0.499780
H356	H	-0.182759	1.169298	0.749780
H357	H	-0.906211	0.006500	0.804116
H358	H	-0.656211	0.256500	1.054116
H359	H	-0.406211	0.506500	1.304116
H360	H	-0.156211	0.756500	1.554116
H361	H	-0.734249	0.178326	0.333883
H362	H	-0.484249	0.428326	0.583883
H363	H	-0.234249	0.678326	0.833883
H364	H	0.015751	0.928326	1.083883
H365	H	-0.031112	0.088165	-0.119943
H366	H	0.218888	0.338165	0.130057
H367	H	0.468888	0.588165	0.380057
H368	H	0.718888	0.838165	0.630057
H369	H	-0.734278	0.178336	0.665802
H370	H	-0.484278	0.428336	0.915802
H371	H	-0.234278	0.678336	1.165802
H372	H	0.015722	0.928336	1.415802
H373	H	-0.701132	0.318654	-0.000221
H374	H	-0.451132	0.568654	0.249779
H375	H	-0.201132	0.818654	0.499779
H376	H	0.048868	1.068654	0.749779
H377	H	-0.837112	-0.022404	0.430765
H378	H	-0.587112	0.227596	0.680765
H379	H	-0.337112	0.477596	0.930765
H380	H	-0.087112	0.727596	1.180765
H381	H	-0.930839	0.287864	-0.000256
H382	H	-0.680839	0.537864	0.249744
H383	H	-0.430839	0.787864	0.499744
H384	H	-0.180839	1.037864	0.749744
H385	H	-0.707684	0.765539	-0.000076
H386	H	-0.457684	1.015539	0.249924
H387	H	-0.207684	1.265539	0.499924
H388	H	0.042316	1.515539	0.749924
H389	H	-0.395805	0.019552	0.091643
H390	H	-0.145805	0.269552	0.341643
H391	H	0.104195	0.519552	0.591643
H392	H	0.354195	0.769552	0.841643
H393	H	-0.609336	0.096683	0.119650
H394	H	-0.359336	0.346683	0.369650
H395	H	-0.109336	0.596683	0.619650
H396	H	0.140664	0.846683	0.869650
H397	H	-0.264383	0.017613	0.091626
H398	H	-0.014383	0.267613	0.341626
H399	H	0.235617	0.517613	0.591626
H400	H	0.485617	0.767613	0.841626
H401	H	-0.703061	0.450080	-0.000180
H402	H	-0.453061	0.700080	0.249820
H403	H	-0.203061	0.950080	0.499820
H404	H	0.046939	1.200080	0.749820
H405	H	-0.906167	0.006497	0.195617
H406	H	-0.656167	0.256497	0.445617
H407	H	-0.406167	0.506497	0.695617
H408	H	-0.156167	0.756497	0.945617
H409	H	-0.731284	0.538549	-0.077135
H410	H	-0.481284	0.788549	0.172865
H411	H	-0.231284	1.038549	0.422865
H412	H	0.018716	1.288549	0.672865
H413	H	-0.937389	0.734754	-0.000110
H414	H	-0.687389	0.984754	0.249890
H415	H	-0.437389	1.234754	0.499890
H416	H	-0.187389	1.484754	0.749890
