data_functionalizedCrystal
_audit_creation_method	'MofGen! by Chris Wilmer'
_symmetry_space_group_name_H-M	'P1'
_symmetry_Int_Tables_number	1
_symmetry_cell_setting	triclinic
loop_
_symmetry_equiv_pos_as_xyz
  x,y,z
_cell_length_a	10.489741
_cell_length_b	11.026607
_cell_length_c	10.065918
_cell_angle_alpha	82.346549
_cell_angle_beta	80.223350
_cell_angle_gamma	96.562595
loop_
_atom_site_label
_atom_site_type_symbol
_atom_site_fract_x
_atom_site_fract_y
_atom_site_fract_z
O1	O	-1.752188	-0.187553	0.113403
O2	O	-1.384538	-0.203659	0.113424
O3	O	-1.537892	-0.018686	0.113410
O4	O	-1.598834	-0.372526	0.113417
O5	O	-1.497046	0.013346	-0.113577
O6	O	-1.343692	-0.171627	-0.113563
O7	O	-1.711342	-0.155521	-0.113584
Zn8	Zn	-1.521032	-0.158488	-0.149613
Zn9	Zn	-1.574848	-0.200692	0.149452
O10	O	-1.557988	-0.340493	-0.113570
C11	C	-1.316316	-0.186427	-0.000067
C12	C	-1.173888	-0.182789	-0.000059
C13	C	-1.506227	0.042639	-0.000081
C14	C	-1.472713	0.177645	-0.000074
C15	C	-1.779564	-0.172753	-0.000090
C16	C	-1.921994	-0.176392	-0.000089
C17	C	-1.079856	-0.065096	-0.000074
C18	C	-1.020098	-0.136485	0.111840
C19	C	-0.979867	-0.104932	-0.111951
C20	C	-1.116022	-0.254241	0.111948
C21	C	-1.075779	-0.222657	-0.111944
C22	C	-1.016072	-0.294136	-0.000002
C23	C	-1.589654	-0.401819	-0.000076
C24	C	-1.623169	-0.536826	-0.000074
N25	N	-1.484313	-0.129684	-0.353717
C26	C	-1.565252	0.250642	-0.000078
C27	C	-1.530617	0.390178	-0.000071
C28	C	-1.562064	-0.190671	-0.421499
C29	C	-1.533813	-0.168491	-0.578665
N30	N	-1.611575	-0.229486	0.353556
H31	H	-0.995156	-0.100040	0.206456
O32	O	-1.748350	0.414538	0.000157
C33	C	-1.830684	0.437088	0.117694
H34	H	-1.770665	0.452561	0.199868
H35	H	-1.878259	0.522801	0.091112
C36	C	-2.011147	0.306033	0.070062
C37	C	-1.937432	0.325026	0.170993
H38	H	-2.076998	0.236912	0.102937
H39	H	-1.955679	0.290844	-0.009128
H40	H	-2.050781	0.377468	0.047919
H41	H	-1.897787	0.253598	0.193121
H42	H	-1.992896	0.340201	0.250188
H43	H	-1.174841	-0.317367	0.206670
H44	H	-1.367846	0.218450	-0.000060
O45	O	-1.405421	0.438724	-0.000241
C46	C	-1.323093	0.416237	-0.117814
H47	H	-1.370948	0.333447	-0.157018
H48	H	-1.306335	0.501113	-0.200128
C49	C	-1.132383	0.490538	-0.033944
C50	C	-1.191153	0.388847	-0.082088
H51	H	-1.050993	0.473648	-0.011910
H52	H	-1.187847	0.505693	0.045266
H53	H	-1.118429	0.561258	-0.102547
H54	H	-1.205121	0.318133	-0.013479
H55	H	-1.135687	0.373679	-0.161285
H56	H	-1.100744	-0.259061	-0.206564
O57	O	-1.666371	-0.272704	-0.352081
C58	C	-1.653412	-0.390977	-0.386870
H59	H	-1.586513	-0.381302	-0.490661
H60	H	-1.609642	-0.446574	-0.306487
C61	C	-1.870919	-0.470024	-0.265771
C62	C	-1.788761	-0.458140	-0.393255
H63	H	-1.954408	-0.511457	-0.269704
H64	H	-1.879649	-0.390343	-0.242328
H65	H	-1.834428	-0.516351	-0.198799
H66	H	-1.825244	-0.411801	-0.460221
H67	H	-1.780040	-0.537816	-0.416709
O68	O	-1.690286	0.201780	-0.000147
C69	C	-1.697037	0.073334	-0.000115
H70	H	-1.596350	0.050612	-0.043082
H71	H	-1.730885	0.022592	0.108781
C72	C	-1.918364	0.060174	-0.036367
C73	C	-1.794701	0.032267	-0.089150
H74	H	-1.978612	0.034839	-0.091282
H75	H	-1.913819	0.146709	-0.036383
H76	H	-1.946553	0.017886	0.054379
H77	H	-1.766507	0.074566	-0.179887
H78	H	-1.799244	-0.054263	-0.089151
O79	O	-1.715889	-0.311527	-0.577039
C80	C	-1.702924	-0.429796	-0.611837
H81	H	-1.636018	-0.420113	-0.715625
H82	H	-1.659160	-0.485398	-0.531453
C83	C	-1.920437	-0.508851	-0.490758
C84	C	-1.838270	-0.496958	-0.618238
H85	H	-2.003924	-0.550283	-0.494701
H86	H	-1.929171	-0.429172	-0.467309
H87	H	-1.883951	-0.555182	-0.423785
H88	H	-1.874748	-0.450614	-0.685205
H89	H	-1.829545	-0.576631	-0.641699
H90	H	-1.108289	0.031635	0.000064
O91	O	-0.909666	-0.029420	-0.224789
C92	C	-0.941853	0.091240	-0.224339
H93	H	-1.042685	0.087037	-0.158821
H94	H	-0.866386	0.148734	-0.180654
C95	C	-0.818906	0.156217	-0.451831
C96	C	-0.942754	0.151054	-0.371370
H97	H	-0.819456	0.193117	-0.542527
H98	H	-0.797216	0.074928	-0.452134
H99	H	-0.756030	0.204126	-0.415411
H100	H	-1.005624	0.103133	-0.407781
H101	H	-0.964454	0.232337	-0.371077
H102	H	-0.987964	-0.390997	0.000061
H103	H	-1.446328	-0.099850	-0.636983
H104	H	-1.396834	-0.061047	-0.412041
