data_functionalizedCrystal
_audit_creation_method	'MofGen! by Chris Wilmer'
_symmetry_space_group_name_H-M	'P1'
_symmetry_Int_Tables_number	1
_symmetry_cell_setting	triclinic
loop_
_symmetry_equiv_pos_as_xyz
  x,y,z
_cell_length_a	29.839133
_cell_length_b	18.050591
_cell_length_c	18.050582
_cell_angle_alpha	89.979078
_cell_angle_beta	90.015179
_cell_angle_gamma	89.974391
loop_
_atom_site_label
_atom_site_type_symbol
_atom_site_fract_x
_atom_site_fract_y
_atom_site_fract_z
Zn1	Zn	-0.178930	-1.135285	0.420070
Zn2	Zn	0.321070	-0.635285	0.920070
Zn3	Zn	-0.254052	-1.135193	0.295896
Zn4	Zn	0.245948	-0.635193	0.795896
Zn5	Zn	-0.178931	-1.011105	0.295881
Zn6	Zn	0.321069	-0.511105	0.795881
Zn7	Zn	-0.254028	-1.011050	0.420031
Zn8	Zn	0.245972	-0.511050	0.920031
O9	O	-0.216485	-1.073158	0.357969
O10	O	0.283515	-0.573158	0.857969
O11	O	-0.188904	-1.239198	0.403620
O12	O	0.311096	-0.739198	0.903620
O13	O	-0.244098	-1.118717	0.191969
O14	O	0.255902	-0.618717	0.691969
O15	O	-0.116064	-1.027639	0.312364
O16	O	0.383936	-0.527639	0.812364
O17	O	-0.244096	-1.239130	0.312390
O18	O	0.255904	-0.739130	0.812390
O19	O	-0.116063	-1.118874	0.403606
O20	O	0.383937	-0.618874	0.903606
O21	O	-0.188907	-1.027550	0.191958
O22	O	0.311093	-0.527550	0.691958
O23	O	-0.188884	-0.907173	0.312327
O24	O	0.311116	-0.407173	0.812327
O25	O	-0.244055	-1.027545	0.523961
O26	O	0.255945	-0.527545	1.023961
O27	O	-0.244057	-0.907132	0.403540
O28	O	0.255943	-0.407132	0.903540
O29	O	-0.188881	-1.118821	0.523989
O30	O	0.311119	-0.618821	1.023989
O31	O	-0.316916	-1.118664	0.312353
O32	O	0.183084	-0.618664	0.812353
O33	O	-0.316898	-1.027456	0.403554
O34	O	0.183102	-0.527456	0.903554
C35	C	-0.216469	-0.880206	0.357928
C36	C	0.283531	-0.380206	0.857928
C37	C	-0.216472	-0.797660	0.357928
C38	C	0.283528	-0.297660	0.857928
C39	C	-0.216465	-1.073187	0.551675
C40	C	0.283535	-0.573187	1.051675
C41	C	-0.216457	-1.073200	0.634221
C42	C	0.283543	-0.573200	1.134221
C43	C	-0.333208	-1.073064	0.357967
C44	C	0.166792	-0.573064	0.857967
C45	C	-0.383142	-1.073091	0.357991
C46	C	0.116858	-0.573091	0.857991
C47	C	-0.739694	-1.120692	0.405533
C48	C	-0.239694	-0.620692	0.905533
C49	C	-0.552021	-1.120621	0.405532
C50	C	-0.052021	-0.620621	0.905532
O51	O	-0.527726	-1.160996	0.445943
O52	O	-0.027726	-0.660996	0.945943
N53	N	-0.528587	-1.073150	0.357989
N54	N	-0.028587	-0.573150	0.857989
C55	C	-0.552075	-1.025697	0.310440
C56	C	-0.052075	-0.525697	0.810440
O57	O	-0.527838	-0.985323	0.269996
O58	O	-0.027838	-0.485323	0.769996
C59	C	-0.739747	-1.025771	0.310438
C60	C	-0.239747	-0.525771	0.810438
C61	C	-0.763178	-1.073240	0.357989
C62	C	-0.263178	-0.573240	0.857989
C63	C	-0.763125	-1.168157	0.453080
C64	C	-0.263125	-0.668157	0.953080
C65	C	-0.810040	-1.168171	0.453082
C66	C	-0.310040	-0.668171	0.953082
C67	C	-0.833525	-1.120720	0.405538
C68	C	-0.333525	-0.620720	0.905538
C69	C	-0.810094	-1.073254	0.357991
C70	C	-0.310094	-0.573254	0.857991
C71	C	-0.763234	-0.978322	0.262885
C72	C	-0.263234	-0.478322	0.762885
C73	C	-0.810155	-0.978346	0.262887
C74	C	-0.310155	-0.478346	0.762887
C75	C	-0.833586	-1.025815	0.310439
C76	C	-0.333586	-0.525815	0.810439
C77	C	-0.880494	-1.025817	0.310450
C78	C	-0.380494	-0.525817	0.810450
N79	N	-0.903927	-1.073288	0.357993
N80	N	-0.403927	-0.573288	0.857993
C81	C	-0.880443	-1.120740	0.405537
C82	C	-0.380443	-0.620740	0.905537
C83	C	-0.453545	-1.025660	0.310445
C84	C	0.046455	-0.525660	0.810445
C85	C	-0.406627	-1.025640	0.310447
C86	C	0.093373	-0.525640	0.810447
C87	C	-0.406576	-1.120566	0.405538
C88	C	0.093424	-0.620566	0.905538
C89	C	-0.453494	-1.120581	0.405540
C90	C	0.046506	-0.620581	0.905540
C91	C	-0.476978	-1.073131	0.357988
C92	C	0.023022	-0.573131	0.857988
C93	C	-0.978968	-1.120766	0.405539
C94	C	-0.478968	-0.620766	0.905539
C95	C	-1.025888	-1.120773	0.405540
C96	C	-0.525888	-0.620773	0.905540
C97	C	-1.025935	-1.025851	0.310446
C98	C	-0.525935	-0.525851	0.810446
C99	C	-0.979020	-1.025840	0.310448
C100	C	-0.479020	-0.525840	0.810448
C101	C	-0.955537	-1.073303	0.357997
C102	C	-0.455537	-0.573303	0.857997
O103	O	-0.904818	-0.985469	0.270054
O104	O	-0.404818	-0.485469	0.770054
O105	O	-0.904688	-1.161119	0.445963
O106	O	-0.404688	-0.661119	0.945963
C107	C	-0.692778	-1.120677	0.405530
C108	C	-0.192778	-0.620677	0.905530
C109	C	-0.669347	-1.073212	0.357984
C110	C	-0.169347	-0.573212	0.857984
C111	C	-0.692832	-1.025760	0.310439
C112	C	-0.192832	-0.525760	0.810439
C113	C	-0.622430	-1.073192	0.357985
C114	C	-0.122430	-0.573192	0.857985
C115	C	-0.598945	-1.120643	0.405529
C116	C	-0.098945	-0.620643	0.905529
C117	C	-0.622378	-1.168114	0.453072
C118	C	-0.122378	-0.668114	0.953072
C119	C	-0.669294	-1.168129	0.453074
C120	C	-0.169294	-0.668129	0.953074
C121	C	-0.669399	-0.978289	0.262897
C122	C	-0.169399	-0.478289	0.762897
C123	C	-0.622483	-0.978278	0.262899
C124	C	-0.122483	-0.478278	0.762899
C125	C	-0.598999	-1.025730	0.310443
C126	C	-0.098999	-0.525730	0.810443
C127	C	-0.099307	-1.073273	0.357988
C128	C	0.400693	-0.573273	0.857988
C129	C	-0.049373	-1.073322	0.357995
C130	C	0.450627	-0.573322	0.857995
C131	C	-0.216502	-1.266864	0.358011
C132	C	0.283498	-0.766864	0.858011
C133	C	-0.216510	-1.349410	0.358029
C134	C	0.283490	-0.849410	0.858029
C135	C	-0.186434	-0.598210	0.308441
C136	C	0.313566	-0.098210	0.808441
C137	C	-0.227410	-0.548789	0.290174
C138	C	0.272590	-0.048789	0.790174
C139	C	-0.216486	-0.646530	0.357962
C140	C	0.283514	-0.146530	0.857962
C141	C	-0.175525	-0.548870	0.376227
C142	C	0.324475	-0.048870	0.876227
C143	C	-0.216495	-0.500545	0.357993
C144	C	0.283505	-0.000545	0.857993
C145	C	-0.257483	-0.598196	0.339659
C146	C	0.242517	-0.098196	0.839659
C147	C	-0.205570	-0.598281	0.425744
C148	C	0.294430	-0.098281	0.925744
C149	C	-0.246574	-0.548882	0.407503
C150	C	0.253426	-0.048882	0.907503
C151	C	-0.216480	-0.730628	0.357942
C152	C	0.283520	-0.230628	0.857942
C153	C	-0.216506	-0.416448	0.358013
C154	C	0.283494	0.083552	0.858013
C155	C	-0.216473	-1.073172	0.165017
C156	C	0.283527	-0.573172	0.665017
C157	C	-0.216355	-1.073303	0.082472
C158	C	0.283645	-0.573303	0.582472
C159	C	-0.246420	-1.023602	0.833656
C160	C	0.253580	-0.523602	1.333656
C161	C	-0.257404	-1.091357	0.883057
C162	C	0.242596	-0.591357	1.383057
C163	C	-0.216423	-1.073236	0.785351
C164	C	0.283577	-0.573236	1.285351
C165	C	-0.205426	-1.005519	0.883032
C166	C	0.294574	-0.505519	1.383032
C167	C	-0.216390	-1.073266	0.931336
C168	C	0.283610	-0.573266	1.431336
C169	C	-0.227429	-1.141027	0.833665
C170	C	0.272571	-0.641027	1.333665
C171	C	-0.175431	-1.055143	0.833636
C172	C	0.324569	-0.555143	1.333636
C173	C	-0.186400	-1.122944	0.883014
C174	C	0.313600	-0.622944	1.383014
C175	C	-0.216442	-1.073218	0.701253
C176	C	0.283558	-0.573218	1.201253
C177	C	-0.216371	-1.073291	1.015433
C178	C	0.283629	-0.573291	1.515433
H179	H	-1.044963	-1.159427	0.444266
H180	H	-0.544963	-0.659427	0.944266
H181	H	-0.603409	-0.939617	0.224178
H182	H	-0.103409	-0.439617	0.724178
F183	F	-0.302779	-0.626396	0.319396
F184	F	0.197221	-0.126396	0.819396
H185	H	-0.161018	-1.164980	0.904549
H186	H	0.338982	-0.664980	1.404549
H187	H	-0.236756	-1.198324	0.812070
H188	H	0.263244	-0.698324	1.312070
F189	F	-0.279834	-0.520748	0.462259
F190	F	0.220166	-0.020748	0.962259
H191	H	-0.472661	-0.987018	0.271721
H192	H	0.027339	-0.487018	0.771721
F193	F	-0.193478	-0.626716	0.500631
F194	F	0.306522	-0.126716	1.000631
F195	F	-0.130151	-1.035091	0.805238
F196	F	0.369849	-0.535091	1.305238
F197	F	-0.381695	-0.975106	0.259847
F198	F	0.118305	-0.475106	0.759847
H199	H	-0.959942	-0.987179	0.271735
H200	H	-0.459942	-0.487179	0.771735
H201	H	-0.292056	-1.106678	0.904765
H202	H	0.207944	-0.606678	1.404765
H203	H	-0.744164	-0.939669	0.224164
H204	H	-0.244164	-0.439669	0.724164
F205	F	-0.153252	-0.626522	0.253646
F206	F	0.346748	-0.126522	0.753646
F207	F	-0.193285	-0.930650	0.911378
F208	F	0.306715	-0.430650	1.411378
H209	H	-0.271821	-0.981667	0.811985
H210	H	0.228179	-0.481667	1.311985
F211	F	-0.953983	-1.171282	0.456146
F212	F	-0.453983	-0.671282	0.956146
H213	H	-0.829273	-0.939706	0.224163
H214	H	-0.329273	-0.439706	0.724163
F215	F	-0.130243	-0.520543	0.396402
F216	F	0.369757	-0.020543	0.896402
F217	F	-1.050937	-0.975347	0.259854
F218	F	-0.550937	-0.475347	0.759854
F219	F	-0.694225	-1.218651	0.503687
F220	F	-0.194225	-0.718651	1.003687
H221	H	-0.829113	-1.206831	0.491798
H222	H	-0.329113	-0.706831	0.991798
F223	F	-0.478427	-1.171105	0.456148
F224	F	0.021573	-0.671105	0.956148
F225	F	-0.738138	-1.218667	0.503687
F226	F	-0.238138	-0.718667	1.003687
F227	F	-0.239487	-0.520374	0.215268
F228	F	0.260513	-0.020374	0.715268
F229	F	-0.381574	-1.171069	0.456137
F230	F	0.118426	-0.671069	0.956137
H231	H	-0.603250	-1.206749	0.491787
H232	H	-0.103250	-0.706749	0.991787
F233	F	-0.694386	-0.927782	0.212291
F234	F	-0.194386	-0.427782	0.712291
