data_functionalizedCrystal
_audit_creation_method	'MofGen! by Chris Wilmer'
_symmetry_space_group_name_H-M	'P1'
_symmetry_Int_Tables_number	1
_symmetry_cell_setting	triclinic
loop_
_symmetry_equiv_pos_as_xyz
  x,y,z
_cell_length_a	19.188930
_cell_length_b	16.992695
_cell_length_c	16.053802
_cell_angle_alpha	92.741074
_cell_angle_beta	87.413631
_cell_angle_gamma	86.906501
loop_
_atom_site_label
_atom_site_type_symbol
_atom_site_fract_x
_atom_site_fract_y
_atom_site_fract_z
O1	O	0.934644	0.094549	-0.069701
O2	O	1.434644	0.594549	0.430299
O3	O	0.732101	0.107727	-0.069644
O4	O	1.232101	0.607727	0.430356
O5	O	0.832560	-0.013002	-0.069666
O6	O	1.332560	0.486998	0.430334
O7	O	0.834185	0.215277	-0.069679
O8	O	1.334185	0.715277	0.430321
O9	O	0.827029	-0.006384	0.069194
O10	O	1.327029	0.493616	0.569194
O11	O	0.726570	0.114345	0.069216
O12	O	1.226570	0.614345	0.569216
O13	O	0.929113	0.101167	0.069159
O14	O	1.429113	0.601167	0.569159
Zn15	Zn	0.826963	0.108807	0.091235
Zn16	Zn	1.326963	0.608807	0.591235
Zn17	Zn	0.834250	0.100087	-0.091720
Zn18	Zn	1.334250	0.600087	0.408280
O19	O	0.828653	0.221895	0.069181
O20	O	1.328653	0.721895	0.569181
C21	C	0.827705	-0.038898	-0.000235
C22	C	1.327705	0.461102	0.499765
C23	C	0.821472	-0.125921	-0.000234
C24	C	1.321472	0.374079	0.499766
C25	C	0.703299	0.110610	-0.000207
C26	C	1.203299	0.610610	0.499793
C27	C	0.625719	0.109330	-0.000185
C28	C	1.125719	0.609330	0.499815
C29	C	0.881613	-0.176368	-0.000250
C30	C	1.381613	0.323632	0.499750
C31	C	0.875752	-0.258135	-0.000256
C32	C	1.375752	0.241865	0.499744
C33	C	0.809751	-0.289453	-0.000240
C34	C	1.309751	0.210547	0.499760
C35	C	0.749606	-0.238999	-0.000227
C36	C	1.249606	0.261001	0.499773
C37	C	0.755467	-0.157234	-0.000226
C38	C	1.255467	0.342766	0.499774
C39	C	0.785458	-0.532967	-0.000245
C40	C	1.285458	-0.032967	0.499755
C41	C	0.779601	-0.614738	-0.000243
C42	C	1.279601	-0.114738	0.499757
C43	C	0.905748	-0.633869	-0.000273
C44	C	1.405748	-0.133869	0.499727
C45	C	0.911603	-0.552102	-0.000268
C46	C	1.411603	-0.052102	0.499732
C47	C	0.851459	-0.501655	-0.000259
C48	C	1.351459	-0.001655	0.499741
N49	N	0.803759	-0.373031	-0.000244
N50	N	1.303759	0.126969	0.499756
N51	N	0.857452	-0.418079	-0.000261
N52	N	1.357452	0.081921	0.499739
C53	C	0.584941	0.180168	-0.000202
C54	C	1.084941	0.680168	0.499798
C55	C	0.512047	0.178964	-0.000211
C56	C	1.012047	0.678964	0.499789
C57	C	0.479935	0.106918	-0.000220
C58	C	0.979935	0.606918	0.499780
C59	C	0.520722	0.036070	-0.000198
C60	C	1.020722	0.536070	0.499802
C61	C	0.593614	0.037276	-0.000180
C62	C	1.093614	0.537276	0.499820
N63	N	0.370616	0.049593	-0.047510
N64	N	0.870616	0.549593	0.452490
N65	N	0.301371	0.048452	-0.047528
N66	N	0.801371	0.548452	0.452472
C67	C	0.260316	0.103279	-0.000271
C68	C	0.760316	0.603279	0.499729
N69	N	0.291120	0.159302	0.046996
N70	N	0.791120	0.659302	0.546996
N71	N	0.360371	0.160445	0.047011
N72	N	0.860371	0.660445	0.547011
C73	C	0.400896	0.105602	-0.000238
C74	C	0.900896	0.605602	0.499762
C75	C	0.140497	0.172817	-0.000297
C76	C	0.640497	0.672817	0.499703
C77	C	0.067602	0.171611	-0.000300
C78	C	0.567602	0.671611	0.499700
C79	C	0.076279	0.028714	-0.000295
C80	C	0.576279	0.528714	0.499705
C81	C	0.149172	0.029923	-0.000283
C82	C	0.649172	0.529923	0.499717
C83	C	0.181277	0.101977	-0.000288
C84	C	0.681277	0.601977	0.499712
C85	C	0.957914	0.098284	-0.000280
C86	C	1.457914	0.598284	0.499720
C87	C	1.035495	0.099564	-0.000308
C88	C	1.535495	0.599564	0.499692
C89	C	0.833508	0.247792	-0.000252
C90	C	1.333508	0.747792	0.499748
C91	C	0.839741	0.334814	-0.000259
C92	C	1.339741	0.834814	0.499741
N93	N	0.821995	0.114757	0.216096
N94	N	1.321995	0.614757	0.716096
N95	N	0.839224	0.094131	-0.216581
N96	N	1.339224	0.594131	0.283419
C97	C	0.864758	0.063405	0.259781
C98	C	1.364758	0.563405	0.759781
C99	C	0.861289	0.067575	0.347188
C100	C	1.361289	0.567575	0.847188
C101	C	0.815061	0.123101	0.390909
C102	C	1.315061	0.623101	0.890909
C103	C	0.772293	0.174455	0.347219
C104	C	1.272293	0.674455	0.847219
C105	C	0.775758	0.170281	0.259813
C106	C	1.275758	0.670281	0.759813
C107	C	0.799922	0.141311	0.652322
C108	C	1.299922	0.641311	1.152322
C109	C	0.796461	0.145483	0.739734
C110	C	1.296461	0.645483	1.239734
C111	C	0.885457	0.038601	0.739698
C112	C	1.385457	0.538601	1.239698
C113	C	0.888921	0.034435	0.652290
C114	C	1.388921	0.534435	1.152290
C115	C	0.846151	0.085786	0.608607
C116	C	1.346151	0.585786	1.108607
N117	N	0.811516	0.127366	0.480254
N118	N	1.311516	0.627366	0.980254
N119	N	0.849693	0.081517	0.519264
N120	N	1.349693	0.581517	1.019264
H121	H	0.935358	-0.150876	-0.000257
H122	H	1.435358	0.349124	0.499743
H123	H	0.611076	0.238839	-0.000207
H124	H	1.111076	0.738839	0.499793
H125	H	0.920278	-0.003208	0.775273
H126	H	1.420278	0.496792	1.275273
H127	H	0.765098	0.183125	0.616762
H128	H	1.265098	0.683125	1.116762
H129	H	0.166638	0.231488	-0.000288
H130	H	0.666638	0.731488	0.499712
H131	H	0.902405	0.018193	0.224189
H132	H	1.402405	0.518193	0.724189
H133	H	0.965348	-0.526610	-0.000281
H134	H	1.465348	-0.026610	0.499719
H135	H	0.896110	0.025759	0.382756
H136	H	1.396110	0.525759	0.882756
H137	H	0.926564	-0.010779	0.616694
H138	H	1.426564	0.489221	1.116694
H139	H	0.494572	-0.022591	-0.000216
H140	H	0.994572	0.477409	0.499784
H141	H	0.034401	0.229298	-0.000310
H142	H	0.534401	0.729298	0.499690
H143	H	0.740935	0.212096	0.224245
H144	H	1.240935	0.712096	0.724245
H145	H	0.182375	-0.027761	-0.000273
H146	H	0.682375	0.472239	0.499727
H147	H	0.736484	-0.491903	-0.000237
H148	H	1.236484	0.008097	0.499763
H149	H	0.734649	0.219663	0.382821
H150	H	1.234649	0.719663	0.882821
H151	H	0.706495	-0.116159	-0.000213
H152	H	1.206495	0.383841	0.499787
H153	H	0.954714	-0.674951	-0.000282
H154	H	1.454714	-0.174951	0.499718
H155	H	0.626816	-0.020410	-0.000166
H156	H	1.126816	0.479590	0.499834
H157	H	0.695866	-0.264504	-0.000219
H158	H	1.195866	0.235496	0.499781
H159	H	0.924725	-0.299207	-0.000267
H160	H	1.424725	0.200793	0.499733
H161	H	0.758814	0.190702	0.775328
H162	H	1.258814	0.690702	1.275328
H163	H	0.725852	-0.640233	-0.000216
H164	H	1.225852	-0.140233	0.499784
H165	H	0.478839	0.236651	-0.000223
H166	H	0.978839	0.736651	0.499777
H167	H	0.050136	-0.029950	-0.000354
H168	H	0.550136	0.470050	0.499646
