data_functionalizedCrystal
_audit_creation_method	'MofGen! by Chris Wilmer'
_symmetry_space_group_name_H-M	'P1'
_symmetry_Int_Tables_number	1
_symmetry_cell_setting	triclinic
loop_
_symmetry_equiv_pos_as_xyz
  x,y,z
_cell_length_a	14.044220
_cell_length_b	13.101039
_cell_length_c	14.519709
_cell_angle_alpha	93.367554
_cell_angle_beta	91.565489
_cell_angle_gamma	93.659868
loop_
_atom_site_label
_atom_site_type_symbol
_atom_site_fract_x
_atom_site_fract_y
_atom_site_fract_z
O1	O	1.263284	0.085109	-0.217712
O2	O	1.596617	0.418443	0.115621
O3	O	1.929950	0.751776	0.448954
O4	O	0.987302	0.085135	-0.209687
O5	O	1.320636	0.418469	0.123647
O6	O	1.653969	0.751802	0.456980
O7	O	1.132610	0.085112	-0.080052
O8	O	1.465943	0.418446	0.253282
O9	O	1.799276	0.751779	0.586615
O10	O	1.117976	0.085132	-0.347347
O11	O	1.451310	0.418466	-0.014014
O12	O	1.784643	0.751799	0.319319
O13	O	1.122184	-0.085316	-0.089370
O14	O	1.455518	0.248018	0.243964
O15	O	1.788851	0.581351	0.577297
O16	O	0.976877	-0.085293	-0.219005
O17	O	1.310210	0.248040	0.114329
O18	O	1.643544	0.581374	0.447662
O19	O	1.252858	-0.085319	-0.227030
O20	O	1.586191	0.248015	0.106303
O21	O	1.919525	0.581348	0.439636
Zn22	Zn	1.113212	-0.112365	-0.224497
Zn23	Zn	1.446546	0.220968	0.108836
Zn24	Zn	1.779879	0.554302	0.442170
Zn25	Zn	1.126948	0.112181	-0.212220
Zn26	Zn	1.460282	0.445515	0.121113
Zn27	Zn	1.793615	0.778848	0.454447
O28	O	1.107551	-0.085296	-0.356665
O29	O	1.440884	0.248037	-0.023332
O30	O	1.774217	0.581371	0.310001
C31	C	0.946769	-0.000076	-0.210833
C32	C	1.280103	0.333258	0.122500
C33	C	1.613436	0.666591	0.455834
C34	C	0.841527	-0.000066	-0.200355
C35	C	1.174860	0.333267	0.132978
C36	C	1.508193	0.666600	0.466311
C37	C	0.648831	-0.000088	-0.181202
C38	C	0.982165	0.333245	0.152131
C39	C	1.315498	0.666579	0.485465
C40	C	0.591324	-0.000087	-0.255510
C41	C	0.924658	0.333247	0.077823
C42	C	1.257991	0.666580	0.411156
C43	C	0.484102	-0.000099	-0.244853
C44	C	0.817435	0.333235	0.088480
C45	C	1.150769	0.666568	0.421814
C46	C	0.756064	-0.000076	-0.191858
C47	C	1.089397	0.333258	0.141475
C48	C	1.422730	0.666591	0.474809
N49	N	1.103845	-0.265612	-0.232875
N50	N	1.437178	0.067721	0.100458
N51	N	1.770511	0.401055	0.433791
C52	C	1.091099	-0.474653	-0.244283
C53	C	1.424433	-0.141319	0.089050
C54	C	1.757766	0.192014	0.422383
C55	C	1.149066	-0.525537	-0.192430
C56	C	1.482399	-0.192204	0.140904
C57	C	1.815732	0.141129	0.474237
C58	C	1.141974	-0.641855	-0.198777
C59	C	1.475307	-0.308522	0.134556
C60	C	1.808641	0.024812	0.467889
C61	C	1.098190	-0.358325	-0.237937
C62	C	1.431523	-0.024992	0.095396
C63	C	1.764856	0.308342	0.428730
C64	C	1.293391	-0.000106	-0.225884
C65	C	1.626725	0.333228	0.107450
C66	C	1.960058	0.666561	0.440783
C67	C	1.398635	-0.000108	-0.236361
C68	C	1.731968	0.333225	0.096972
C69	C	2.065301	0.666558	0.430306
C70	C	1.126715	-0.000102	-0.050296
C71	C	1.460048	0.333231	0.283037
C72	C	1.793382	0.666565	0.616371
C73	C	1.124671	-0.000102	0.052250
C74	C	1.458004	0.333231	0.385583
C75	C	1.791338	0.666564	0.718917
N76	N	1.136324	0.265428	-0.203835
N77	N	1.469657	0.598762	0.129499
N78	N	1.802990	0.932095	0.462832
C79	C	1.113446	-0.000080	-0.386421
C80	C	1.446779	0.333254	-0.053088
C81	C	1.780112	0.666587	0.280246
C82	C	1.115490	-0.000072	-0.488967
C83	C	1.448823	0.333261	-0.155633
C84	C	1.782157	0.666594	0.177700
C85	C	1.117149	-0.000075	0.427754
C86	C	1.450482	0.333258	0.761088
C87	C	1.783815	0.666592	1.094421
C88	C	1.119238	-0.000083	0.323277
C89	C	1.452571	0.333251	0.656611
C90	C	1.785904	0.666584	0.989944
C91	C	1.120910	-0.000090	0.240005
C92	C	1.454243	0.333244	0.573339
C93	C	1.787576	0.666577	0.906672
C94	C	1.122999	-0.000096	0.135522
C95	C	1.456332	0.333238	0.468855
C96	C	1.789666	0.666571	0.802189
H97	H	1.204018	-0.481744	-0.143270
H98	H	1.537352	-0.148410	0.190063
H99	H	1.870685	0.184923	0.523397
H100	H	0.622617	-0.000076	-0.327131
H101	H	0.955951	0.333257	0.006202
H102	H	1.289284	0.666590	0.339536
H103	H	0.617540	-0.000099	-0.109587
H104	H	0.950873	0.333235	0.223746
H105	H	1.284207	0.666568	0.557080
H106	H	1.036152	-0.518441	-0.293441
H107	H	1.369485	-0.185108	0.039892
H108	H	1.702818	0.148225	0.373226
