data_functionalizedCrystal
_audit_creation_method	'MofGen! by Chris Wilmer'
_symmetry_space_group_name_H-M	'P1'
_symmetry_Int_Tables_number	1
_symmetry_cell_setting	triclinic
loop_
_symmetry_equiv_pos_as_xyz
  x,y,z
_cell_length_a	10.723023
_cell_length_b	11.892095
_cell_length_c	10.723022
_cell_angle_alpha	86.072570
_cell_angle_beta	84.467387
_cell_angle_gamma	93.935983
loop_
_atom_site_label
_atom_site_type_symbol
_atom_site_fract_x
_atom_site_fract_y
_atom_site_fract_z
O1	O	1.665098	0.093997	0.167114
O2	O	1.301946	0.094000	0.183868
O3	O	1.491899	0.093994	-0.006085
O4	O	1.475145	0.094003	0.357067
O5	O	1.476061	-0.094013	0.009728
O6	O	1.286108	-0.094007	0.199681
O7	O	1.649260	-0.094010	0.182927
Zn8	Zn	1.465169	-0.123859	0.193815
Zn9	Zn	1.486037	0.123849	0.172980
O10	O	1.459307	-0.094004	0.372880
C11	C	1.247527	-0.000003	0.190555
C12	C	1.108973	-0.000002	0.186908
N13	N	1.450937	-0.292912	0.208033
C14	C	0.895801	-0.097391	0.189704
C15	C	1.039004	-0.097395	0.193474
C16	C	1.599314	-0.529565	0.059741
C17	C	1.589375	-0.647906	0.069689
C18	C	1.421114	-0.647939	0.237870
C19	C	1.431053	-0.529598	0.227922
C20	C	1.520157	-0.470414	0.138856
C21	C	1.530102	-0.352071	0.128915
C22	C	1.361836	-0.352106	0.297089
C23	C	1.351897	-0.470448	0.307036
C24	C	1.703679	-0.000004	0.176239
C25	C	1.842234	0.000002	0.179886
C26	C	1.482762	-0.000008	-0.044678
C27	C	1.479115	-0.000004	-0.183233
N28	N	1.500279	0.292902	0.158752
C29	C	1.581632	0.000001	-0.401412
C30	C	1.585403	-0.000003	-0.258209
C31	C	1.468445	0.000000	0.411473
C32	C	1.472092	0.000004	0.550027
H33	H	0.835644	-0.180771	0.195325
H34	H	1.062884	0.083384	0.178493
Cl35	Cl	0.935100	0.128741	0.171226
H36	H	1.085102	-0.180777	0.201880
H37	H	1.381103	-0.000004	-0.385530
H38	H	1.602658	-0.303885	0.056397
Cl39	Cl	1.711340	-0.455161	-0.052211
H40	H	1.653830	-0.696063	0.005265
H41	H	1.348559	-0.696142	0.310376
H42	H	1.279347	-0.518648	0.379549
H43	H	1.672620	-0.000005	-0.465854
Cl44	Cl	1.262329	-0.277735	0.396558
H45	H	1.679194	0.000035	-0.216400
Cl46	Cl	1.334303	0.000008	-0.247772
