data_functionalizedCrystal
_audit_creation_method	'MofGen! by Chris Wilmer'
_symmetry_space_group_name_H-M	'P1'
_symmetry_Int_Tables_number	1
_symmetry_cell_setting	triclinic
loop_
_symmetry_equiv_pos_as_xyz
  x,y,z
_cell_length_a	8.597226
_cell_length_b	8.597304
_cell_length_c	13.448316
_cell_angle_alpha	82.293562
_cell_angle_beta	97.710212
_cell_angle_gamma	95.704897
loop_
_atom_site_label
_atom_site_type_symbol
_atom_site_fract_x
_atom_site_fract_y
_atom_site_fract_z
O1	O	-2.086087	0.234370	-0.281531
O2	O	-1.629419	0.252331	-0.243938
O3	O	-1.866738	0.015020	-0.243940
O4	O	-1.848768	0.471681	-0.281529
O5	O	-1.866707	0.015005	-0.078553
O6	O	-1.629388	0.252316	-0.078550
O7	O	-2.086056	0.234355	-0.116143
Cu8	Cu	-1.857719	0.243334	-0.082246
Cu9	Cu	-1.857755	0.243352	-0.277836
O10	O	-1.848737	0.471665	-0.116141
C11	C	-1.570901	0.250392	-0.156066
C12	C	-1.396582	0.244616	-0.140633
C13	C	-1.864791	-0.043489	-0.156071
C14	C	-1.859019	-0.217805	-0.140646
C15	C	-1.144574	0.236290	-0.204013
C16	C	-1.318895	0.242054	-0.219436
C17	C	-1.850683	0.530175	-0.204013
C18	C	-1.856456	0.704491	-0.219444
N19	N	-1.857705	0.243320	0.055321
N20	N	-1.857782	0.243353	-0.415402
C21	C	-1.962824	0.138283	0.107354
C22	C	-1.962834	0.138282	0.211456
C23	C	-1.857731	0.243327	0.263523
C24	C	-1.752602	0.348369	0.211483
C25	C	-1.752585	0.348361	0.107384
C26	C	-1.752645	0.348380	0.428459
C27	C	-1.752663	0.348390	0.532565
C28	C	-1.962894	0.138301	0.532531
C29	C	-1.962878	0.138294	0.428432
C30	C	-1.857749	0.243338	0.376399
H31	H	-1.858674	-0.228676	-0.298712
H32	H	-1.385752	0.244281	-0.298708
H33	H	-2.048417	0.052751	0.064967
H34	H	-1.856778	-0.284643	-0.061371
F35	F	-1.309206	0.241729	-0.037025
H36	H	-2.048428	0.052752	0.253821
F37	F	-2.074747	0.026504	0.373016
F38	F	-2.074780	0.026508	0.587911
F39	F	-1.640796	0.460191	0.587971
H40	H	-1.667033	0.433913	0.386098
H41	H	-1.667017	0.433893	0.253883
H42	H	-1.666985	0.433891	0.065021
