data_functionalizedCrystal
_audit_creation_method	'MofGen! by Chris Wilmer'
_symmetry_space_group_name_H-M	'P1'
_symmetry_Int_Tables_number	1
_symmetry_cell_setting	triclinic
loop_
_symmetry_equiv_pos_as_xyz
  x,y,z
_cell_length_a	29.839134
_cell_length_b	29.839131
_cell_length_c	18.215398
_cell_angle_alpha	89.971652
_cell_angle_beta	89.970953
_cell_angle_gamma	90.036281
loop_
_atom_site_label
_atom_site_type_symbol
_atom_site_fract_x
_atom_site_fract_y
_atom_site_fract_z
Zn1	Zn	0.686751	-0.178931	-0.416289
Zn2	Zn	0.686674	-0.254057	-0.293216
Zn3	Zn	0.611624	-0.178935	-0.293216
Zn4	Zn	0.611581	-0.254028	-0.416221
O5	O	0.649158	-0.216487	-0.354735
O6	O	0.749608	-0.188907	-0.399992
O7	O	0.676704	-0.244105	-0.190232
O8	O	0.621640	-0.116067	-0.309570
O9	O	0.749551	-0.244101	-0.309571
O10	O	0.676836	-0.116064	-0.399991
O11	O	0.621566	-0.188914	-0.190232
O12	O	0.548752	-0.188886	-0.309504
O13	O	0.621567	-0.244052	-0.519214
O14	O	0.548720	-0.244056	-0.399875
O15	O	0.676794	-0.188879	-0.519264
O16	O	0.676662	-0.316920	-0.309505
O17	O	0.621492	-0.316899	-0.399876
C18	C	0.532435	-0.216468	-0.354682
C19	C	0.482501	-0.216471	-0.354677
C20	C	0.172850	-0.245257	-0.401734
C21	C	-0.014823	-0.245270	-0.401767
O22	O	-0.039093	-0.269724	-0.441745
N23	N	-0.038284	-0.216504	-0.354791
C24	C	-0.014825	-0.187731	-0.307807
O25	O	-0.039087	-0.163261	-0.267857
C26	C	0.172847	-0.187716	-0.307778
C27	C	0.196307	-0.216487	-0.354752
C28	C	0.196310	-0.274025	-0.448705
C29	C	0.243225	-0.274024	-0.448693
C30	C	0.266681	-0.245254	-0.401711
C31	C	0.243222	-0.216485	-0.354741
C32	C	0.196306	-0.158941	-0.260799
C33	C	0.243227	-0.158939	-0.260797
C34	C	0.266686	-0.187710	-0.307771
C35	C	0.313594	-0.187714	-0.307747
N36	N	0.337055	-0.216480	-0.354723
C37	C	0.313599	-0.245250	-0.401705
C38	C	-0.113356	-0.187741	-0.307824
C39	C	-0.160273	-0.187745	-0.307830
C40	C	-0.160268	-0.245284	-0.401791
C41	C	-0.113349	-0.245282	-0.401781
C42	C	-0.089894	-0.216507	-0.354800
C43	C	0.412125	-0.245244	-0.401677
C44	C	0.459045	-0.245241	-0.401659
C45	C	0.459035	-0.187701	-0.307701
C46	C	0.412120	-0.187705	-0.307716
C47	C	0.388666	-0.216478	-0.354710
O48	O	0.337893	-0.163269	-0.267796
O49	O	0.337869	-0.269709	-0.441660
C50	C	0.125935	-0.245259	-0.401746
C51	C	0.102476	-0.216491	-0.354775
C52	C	0.125932	-0.187721	-0.307793
C53	C	0.055558	-0.216495	-0.354781
C54	C	0.032102	-0.245265	-0.401763
C55	C	0.055563	-0.274031	-0.448739
C56	C	0.102479	-0.274029	-0.448728
C57	C	0.102470	-0.158955	-0.260817
C58	C	0.055555	-0.158959	-0.260832
C59	C	0.032098	-0.187729	-0.307814
C60	C	0.649077	-0.333210	-0.354699
C61	C	0.649083	-0.383144	-0.354708
C62	C	0.677937	-0.692786	-0.307748
C63	C	0.677992	-0.880459	-0.307777
O64	O	0.702461	-0.904723	-0.267822
N65	N	0.649251	-0.903929	-0.354791
C66	C	0.620495	-0.880479	-0.401805
O67	O	0.596054	-0.904748	-0.441799
C68	C	0.620443	-0.692806	-0.401779
C69	C	0.649183	-0.669339	-0.354757
C70	C	0.706675	-0.669318	-0.260730
C71	C	0.706659	-0.622403	-0.260721
C72	C	0.677905	-0.598955	-0.307729
C73	C	0.649167	-0.622423	-0.354747
C74	C	0.591690	-0.669356	-0.448796
C75	C	0.591680	-0.622435	-0.448787
C76	C	0.620420	-0.598967	-0.401765
C77	C	0.620397	-0.552060	-0.401746
N78	N	0.649139	-0.528590	-0.354732
C79	C	0.677893	-0.552038	-0.307724
C80	C	0.620525	-0.979009	-0.401814
C81	C	0.620537	-1.025927	-0.401819
C82	C	0.678035	-1.025905	-0.307792
C83	C	0.678020	-0.978986	-0.307783
C84	C	0.649266	-0.955539	-0.354800
C85	C	0.677857	-0.453512	-0.307707
C86	C	0.677837	-0.406592	-0.307699
C87	C	0.620341	-0.406619	-0.401729
C88	C	0.620359	-0.453534	-0.401734
C89	C	0.649121	-0.476980	-0.354721
O90	O	0.595945	-0.527768	-0.441686
O91	O	0.702338	-0.527760	-0.267747
C92	C	0.677953	-0.739702	-0.307758
C93	C	0.649215	-0.763169	-0.354776
C94	C	0.620460	-0.739722	-0.401785
C95	C	0.649227	-0.810087	-0.354781
C96	C	0.677981	-0.833535	-0.307773
C97	C	0.706723	-0.810065	-0.260759
C98	C	0.706707	-0.763149	-0.260749
C99	C	0.591719	-0.763192	-0.448799
C100	C	0.591737	-0.810107	-0.448804
C101	C	0.620491	-0.833555	-0.401795
C102	C	0.766336	-0.216507	-0.354789
C103	C	0.816270	-0.216515	-0.354812
C104	C	0.649184	-0.216462	-0.546688
C105	C	0.649196	-0.216451	-0.628487
C106	C	0.649251	-0.099309	-0.354788
C107	C	0.649291	-0.049375	-0.354811
C108	C	0.677927	-0.245134	-0.893550
C109	C	0.677920	-0.245149	-0.816691
C110	C	0.620499	-0.187681	-0.816674
C111	C	0.620503	-0.187668	-0.893531
C112	C	0.649220	-0.216394	-0.931967
C113	C	0.649208	-0.216422	-0.778251
C114	C	0.649201	-0.216439	-0.694917
C115	C	0.649227	-0.216378	-1.015306
C116	C	0.649157	-0.216481	-0.163529
C117	C	0.649233	-0.216365	-0.081731
H118	H	0.262321	-0.297451	-0.486945
Cl119	Cl	0.714014	-0.482979	-0.248602
H120	H	0.568284	-0.688456	-0.487084
Cl121	Cl	0.742870	-0.839551	-0.201661
H122	H	0.701423	-0.959881	-0.269494
H123	H	0.597109	-0.959922	-0.440101
Cl124	Cl	0.742799	-0.592908	-0.201614
H125	H	0.036457	-0.297458	-0.486991
Cl126	Cl	0.714026	-0.281247	-0.941867
Cl127	Cl	0.714009	-0.281282	-0.768398
H128	H	0.478143	-0.268672	-0.439911
H129	H	0.701448	-1.045004	-0.269516
Cl130	Cl	0.584400	-1.055423	-0.460927
H131	H	0.121575	-0.297457	-0.486979
H132	H	0.597119	-0.164293	-0.785370
H133	H	0.597125	-0.164264	-0.924811
H134	H	0.393034	-0.268673	-0.439946
H135	H	0.568329	-0.829211	-0.487095
Cl136	Cl	0.131951	-0.122782	-0.201749
H137	H	0.177217	-0.297454	-0.486967
H138	H	0.701241	-0.387486	-0.269405
H139	H	0.568304	-0.744105	-0.487080
Cl140	Cl	0.555531	-0.592962	-0.507898
H141	H	-0.094252	-0.268709	-0.440032
H142	H	-0.179374	-0.268710	-0.440046
Cl143	Cl	0.382627	-0.151543	-0.248651
H144	H	-0.179370	-0.164321	-0.269572
H145	H	0.036458	-0.135531	-0.222574
Cl146	Cl	0.584219	-0.483037	-0.460834
H147	H	-0.094262	-0.164309	-0.269563
Cl148	Cl	0.742842	-0.733654	-0.201635
Cl149	Cl	0.166826	-0.122766	-0.201747
Cl150	Cl	0.272711	-0.122762	-0.201732
Cl151	Cl	0.742828	-0.698787	-0.201625
H152	H	0.596929	-0.387520	-0.440001
Cl153	Cl	0.488532	-0.151534	-0.248642
