data_functionalizedCrystal
_audit_creation_method	'MofGen! by Chris Wilmer'
_symmetry_space_group_name_H-M	'P1'
_symmetry_Int_Tables_number	1
_symmetry_cell_setting	triclinic
loop_
_symmetry_equiv_pos_as_xyz
  x,y,z
_cell_length_a	31.640172
_cell_length_b	20.919099
_cell_length_c	20.919311
_cell_angle_alpha	115.455333
_cell_angle_beta	90.003370
_cell_angle_gamma	61.844739
loop_
_atom_site_label
_atom_site_type_symbol
_atom_site_fract_x
_atom_site_fract_y
_atom_site_fract_z
Zr1	Zr	0.432403	0.660648	0.045682
O2	O	0.371640	0.780432	0.137685
O3	O	0.447943	0.535810	0.022173
O4	O	0.455366	0.653348	0.144463
O5	O	0.361873	0.670415	-0.086410
O6	O	0.524922	0.653337	0.144468
O7	O	0.364217	0.662895	0.015396
O8	O	0.511643	0.443084	-0.074286
O9	O	0.375152	0.880668	0.132344
O10	O	0.510209	0.589021	0.006478
O11	O	0.456551	0.594641	-0.069503
O12	O	0.465291	0.733027	0.074478
O13	O	0.411633	0.738647	-0.001502
Zr14	Zr	0.539598	0.672625	-0.116680
Zr15	Zr	0.543336	0.660631	0.045689
Zr16	Zr	0.428665	0.672642	-0.116687
Zr17	Zr	0.438004	0.820512	0.037162
Zr18	Zr	0.533998	0.512760	-0.108160
O19	O	0.524059	0.797462	-0.093171
O20	O	0.529374	0.780408	0.137696
O21	O	0.366325	0.797487	-0.093182
O22	O	0.600361	0.552840	-0.208683
O23	O	0.605676	0.535786	0.022184
O24	O	0.442628	0.552864	-0.208694
O25	O	0.610128	0.662857	0.015412
O26	O	0.516635	0.679925	-0.215461
O27	O	0.447079	0.679936	-0.215466
O28	O	0.607784	0.670378	-0.086394
O29	O	0.463329	0.880655	0.132349
O30	O	0.508672	0.452618	-0.203347
O31	O	0.596849	0.452604	-0.203342
O32	O	0.599820	0.443071	-0.074280
O33	O	0.372181	0.890202	0.003282
O34	O	0.460358	0.890189	0.003288
O35	O	0.506711	0.600246	-0.145476
O36	O	0.560368	0.594626	-0.069496
O37	O	0.515450	0.738631	-0.001495
O38	O	0.461792	0.744251	-0.077476
C39	C	0.478995	0.466670	-0.024842
C40	C	0.476617	0.398803	-0.021226
C41	C	0.461407	0.017429	0.001686
C42	C	0.463640	0.081211	-0.001681
C43	C	0.499854	0.062033	-0.056504
C44	C	0.533833	-0.020934	-0.107968
C45	C	0.531597	-0.084715	-0.104603
C46	C	0.508360	0.252055	-0.069325
C47	C	0.510595	0.315844	-0.072684
C48	C	0.440401	0.417985	0.033602
C49	C	0.438170	0.354198	0.036965
C50	C	0.472147	0.271237	-0.014501
C51	C	0.502139	0.127228	-0.059946
C52	C	0.469859	0.206045	-0.011062
C53	C	0.347239	0.666657	-0.035508
C54	C	0.300145	0.666665	-0.035511
C55	C	0.009430	0.662478	0.020586
C56	C	-0.167557	0.662467	0.020592
O57	O	-0.189333	0.658906	0.068275
N58	N	-0.190979	0.666611	-0.035493
C59	C	-0.170150	0.670754	-0.091586
O60	O	-0.194130	0.674270	-0.139294
C61	C	0.006838	0.670759	-0.091594
C62	C	0.030255	0.666622	-0.035502
C63	C	0.032847	0.658341	0.076674
C64	C	0.077089	0.658348	0.076674
C65	C	0.097915	0.662493	0.020586
C66	C	0.074498	0.666630	-0.035502
C67	C	0.027668	0.674895	-0.147690
C68	C	0.071919	0.674894	-0.147688
C69	C	0.095336	0.670758	-0.091595
C70	C	0.139566	0.670782	-0.091589
N71	N	0.162987	0.666637	-0.035504
C72	C	0.142162	0.662492	0.020583
C73	C	-0.263071	0.670752	-0.091577
C74	C	-0.307319	0.670753	-0.091574
C75	C	-0.304722	0.662464	0.020603
C76	C	-0.260476	0.662470	0.020603
C77	C	-0.239650	0.666608	-0.035492
C78	C	0.235074	0.662509	0.020580
C79	C	0.279320	0.662520	0.020576
C80	C	0.276721	0.670804	-0.091603
C81	C	0.232478	0.670798	-0.091598
C82	C	0.211657	0.666647	-0.035503
O83	O	0.161373	0.674331	-0.139251
O84	O	0.166155	0.658958	0.068275
C85	C	-0.034813	0.662470	0.020586
C86	C	-0.058230	0.666608	-0.035502
C87	C	-0.037405	0.670752	-0.091589
C88	C	-0.102477	0.666608	-0.035499
C89	C	-0.123303	0.662463	0.020589
C90	C	-0.099881	0.658318	0.076674
C91	C	-0.055638	0.658326	0.076674
C92	C	-0.060827	0.674897	-0.147674
C93	C	-0.105069	0.674890	-0.147669
C94	C	-0.125895	0.670746	-0.091582
C95	C	0.624762	0.666615	-0.035490
C96	C	0.671856	0.666608	-0.035487
C97	C	0.490676	0.651633	0.167599
C98	C	0.492263	0.646541	0.236529
C99	C	0.493006	0.866603	-0.046156
C100	C	0.495384	0.934470	-0.049772
C101	C	0.469563	0.719317	0.304408
C102	C	0.471060	0.714527	0.369173
C103	C	0.495256	0.636962	0.366057
C104	C	0.517959	0.564181	0.298170
C105	C	0.516464	0.568971	0.233408
C106	C	0.500945	0.618738	0.559823
C107	C	0.502436	0.613954	0.624593
C108	C	0.455538	0.764301	0.695591
C109	C	0.454043	0.769084	0.630823
C110	C	0.476749	0.696303	0.562943
C111	C	0.496786	0.632065	0.432255
C112	C	0.475222	0.701201	0.496746
C113	C	0.481324	0.681639	0.761402
C114	C	0.479736	0.686729	0.692472
C115	C	0.617756	0.466649	-0.024833
C116	C	0.662473	0.398775	-0.021213
C117	C	0.474319	0.481673	-0.227941
C118	C	0.470354	0.418898	-0.293254
C119	C	0.613080	0.481652	-0.227932
C120	C	0.656210	0.418870	-0.293242
C121	C	0.358921	0.851621	0.156934
C122	C	0.315791	0.914403	0.222244
C123	C	0.354245	0.866624	-0.046165
C124	C	0.309529	0.934498	-0.049785
C125	C	0.497682	0.851600	0.156943
C126	C	0.501647	0.914375	0.222256
C127	C	0.657289	0.363974	0.020151
C128	C	0.699302	0.300207	0.023567
C129	C	0.746497	0.271238	-0.014386
C130	C	0.751679	0.306044	-0.055752
C131	C	0.709667	0.369814	-0.059163
C132	C	0.494675	0.392344	-0.363590
C133	C	0.490948	0.333370	-0.424965
C134	C	0.462903	0.300946	-0.416003
C135	C	0.438579	0.327505	-0.345660
C136	C	0.442304	0.386483	-0.284286
C137	C	0.704478	0.386453	-0.284251
C138	C	0.745007	0.327471	-0.345611
C139	C	0.737268	0.300902	-0.415960
C140	C	0.688995	0.333325	-0.424950
C141	C	0.648467	0.392311	-0.363591
C142	C	0.267524	0.946828	0.213253
C143	C	0.226995	1.005830	0.274611
C144	C	0.234734	1.032401	0.344961
C145	C	0.283007	0.999974	0.353950
C146	C	0.323535	0.940978	0.292592
C147	C	0.314712	0.969305	-0.091142
C148	C	0.272701	1.033088	-0.094541
C149	C	0.225506	1.062060	-0.056586
C150	C	0.220324	1.027250	-0.015224
C151	C	0.262335	0.963472	-0.011821
C152	C	0.529696	0.946780	0.213270
C153	C	0.533431	1.005756	0.274633
C154	C	0.509113	1.032329	0.344981
C155	C	0.481063	0.999918	0.353965
C156	C	0.477331	0.940939	0.292603
H157	H	0.540084	0.300219	-0.117332
C158	C	0.564282	1.041408	0.264739
C159	C	0.591021	1.012186	0.187356
C160	C	0.621871	1.047837	0.177459
C161	C	0.625983	1.112710	0.244946
C162	C	0.599244	1.141935	0.322335
C163	C	0.568394	1.106284	0.332231
H164	H	0.587978	0.964160	0.137393
H165	H	0.641666	1.026202	0.120171
H166	H	0.648821	1.139100	0.237620
H167	H	0.602287	1.189961	0.372297
H168	H	0.548599	1.127919	0.389520
H169	H	0.459875	0.252923	-0.465983
H170	H	0.609166	0.418697	-0.370921
C171	C	0.168407	1.059120	0.026519
C172	C	0.162695	1.020839	0.072013
C173	C	0.110777	1.052707	0.113751
C174	C	0.064570	1.122854	0.109995
C175	C	0.070280	1.161139	0.064499
C176	C	0.122198	1.129271	0.022761
H177	H	0.196901	0.968908	0.074796
H178	H	0.106550	1.024366	0.147430
H179	H	0.026137	1.146444	0.140892
H180	H	0.036074	1.213070	0.061717
H181	H	0.126425	1.157612	-0.010918
C182	C	0.291515	1.029201	0.431338
C183	C	0.344606	0.993538	0.441243
C184	C	0.353112	1.022761	0.518633
C185	C	0.308528	1.087647	0.586118
C186	C	0.255434	1.123314	0.576216
C187	C	0.246927	1.094091	0.498826
H188	H	0.377613	0.945503	0.391284
H189	H	0.392417	0.996358	0.525962
H190	H	0.314825	1.109280	0.643407
H191	H	0.222427	1.171349	0.626175
H192	H	0.207623	1.120494	0.491496
H193	H	0.408680	0.369824	0.081607
H194	H	0.516485	0.568911	0.429726
H195	H	0.563318	-0.036545	-0.152609
C196	C	0.568974	-0.175974	-0.161206
C197	C	0.624915	-0.212154	-0.167725
C198	C	0.662292	-0.303414	-0.224332
C199	C	0.643726	-0.358493	-0.274421
C200	C	0.587782	-0.322313	-0.267904
C201	C	0.550406	-0.231053	-0.211297
H202	H	0.638661	-0.171381	-0.130645
H203	H	0.703705	-0.330197	-0.229156
H204	H	0.671394	-0.426049	-0.316325
H205	H	0.574036	-0.363086	-0.304984
H206	H	0.508992	-0.204270	-0.206473
H207	H	-0.043874	0.678271	-0.193348
H208	H	0.790111	0.282448	-0.086651
C209	C	0.545738	0.160803	-0.125928
C210	C	0.527178	0.105717	-0.176021
C211	C	0.564558	0.014458	-0.232624
C212	C	0.620499	-0.021716	-0.239134
C213	C	0.639061	0.033371	-0.189040
C214	C	0.601681	0.124630	-0.132436
H215	H	0.485765	0.132494	-0.171203
H216	H	0.550816	-0.026320	-0.269707
H217	H	0.648170	-0.089271	-0.281036
H218	H	0.680474	0.006594	-0.193858
H219	H	0.615423	0.165408	-0.095353
C220	C	0.605378	0.395836	0.061908
C221	C	0.599688	0.357552	0.107411
C222	C	0.547779	0.389412	0.149176
C223	C	0.501560	0.459558	0.145436
C224	C	0.507249	0.497846	0.099931
C225	C	0.559158	0.465985	0.058166
H226	H	0.633903	0.305622	0.110181
H227	H	0.543567	0.361068	0.182862
H228	H	0.463134	0.483143	0.176353
H229	H	0.473034	0.549775	0.097161
H230	H	0.563370	0.494329	0.024480
H231	H	0.512156	1.080355	0.394939
H232	H	0.713894	0.398141	-0.092850
H233	H	0.261213	0.925196	0.155976
C234	C	0.366624	0.937449	-0.132892
C235	C	0.372316	0.975755	-0.178374
C236	C	0.424226	0.943909	-0.220123
C237	C	0.470444	0.873758	-0.216390
C238	C	0.464753	0.835449	-0.170906
C239	C	0.412843	0.867294	-0.129157
H240	H	0.338101	1.027689	-0.181140
H241	H	0.428438	0.972269	-0.253793
H242	H	0.508871	0.850184	-0.247294
H243	H	0.498968	0.783515	-0.168140
H244	H	0.408631	0.838935	-0.095487
C245	C	0.173899	1.041483	0.264711
C246	C	0.158214	1.088372	0.220727
C247	C	0.105120	1.124022	0.210825
C248	C	0.067711	1.112784	0.244907
C249	C	0.083395	1.065893	0.288894
C250	C	0.136489	1.030243	0.298796
H251	H	0.185908	1.096693	0.195494
H252	H	0.093510	1.158733	0.178262
H253	H	0.028408	1.139174	0.237577
H254	H	0.055702	1.057572	0.314127
H255	H	0.148099	0.995531	0.331359
C256	C	0.278410	1.071362	-0.140050
C257	C	0.308875	1.113640	-0.121688
C258	C	0.314585	1.151909	-0.167198
C259	C	0.289830	1.147901	-0.231070
C260	C	0.259362	1.105621	-0.249435
C261	C	0.253652	1.067351	-0.203925
H262	H	0.327203	1.116609	-0.074404
H263	H	0.337140	1.183207	-0.153602
H264	H	0.294057	1.176230	-0.264759
H265	H	0.241035	1.102652	-0.296719
H266	H	0.231098	1.036053	-0.217520
H267	H	0.531626	0.111620	-0.104581
H268	H	0.440373	0.221656	0.033573
H269	H	0.710789	0.408075	-0.226974
H270	H	0.298384	0.659154	0.066256
C271	C	0.179296	1.132212	-0.060339
C272	C	0.138714	1.117025	-0.091032
C273	C	0.092506	1.187175	-0.094790
C274	C	0.086879	1.272511	-0.067854
C275	C	0.127461	1.287702	-0.037158
C276	C	0.173670	1.217552	-0.033400
H277	H	0.142878	1.053851	-0.110974
H278	H	0.062464	1.175929	-0.117513
H279	H	0.052672	1.324440	-0.070636
H280	H	0.123297	1.350876	-0.017217
H281	H	0.203712	1.228798	-0.010677
H282	H	0.695072	0.271875	0.057250
H283	H	0.517512	0.418738	-0.370901
C284	C	0.556452	0.917551	0.135893
C285	C	0.613228	0.875454	0.114425
C286	C	0.639989	0.846224	0.037050
C287	C	0.609975	0.859090	-0.018858
C288	C	0.553196	0.901189	0.002608
C289	C	0.526435	0.930420	0.079983
H290	H	0.635449	0.865928	0.155813
H291	H	0.682020	0.815059	0.021159
H292	H	0.629786	0.837452	-0.076136
H293	H	0.530975	0.910716	-0.038780
H294	H	0.484404	0.961584	0.095874
C295	C	0.415554	0.415680	-0.206916
C296	C	0.376249	0.508030	-0.156610
C297	C	0.349498	0.537224	-0.079241
C298	C	0.362052	0.474069	-0.052179
C299	C	0.401359	0.381714	-0.102486
C300	C	0.428110	0.352520	-0.179855
H301	H	0.366954	0.554786	-0.176643
H302	H	0.320400	0.605591	-0.042001
H303	H	0.342249	0.495680	0.005095
H304	H	0.410653	0.334957	-0.082453
H305	H	0.457208	0.284152	-0.217095
H306	H	0.461265	1.021563	0.411250
C307	C	0.427430	0.854410	0.634259
C308	C	0.456455	0.878375	0.599501
C309	C	0.429840	0.963704	0.602939
C310	C	0.374198	1.025067	0.641135
C311	C	0.345169	1.001103	0.675896
C312	C	0.371785	0.915774	0.672458
H313	H	0.497648	0.832950	0.571224
H314	H	0.451329	0.981443	0.577207
H315	H	0.354495	1.088232	0.643680
H316	H	0.303977	1.046529	0.704173
H317	H	0.350295	0.898035	0.698190
H318	H	0.362836	0.914577	0.299922
C319	C	0.529055	0.528627	0.621165
C320	C	0.554032	0.448570	0.546501
C321	C	0.580648	0.363248	0.543075
C322	C	0.582288	0.357983	0.614314
C323	C	0.557310	0.438042	0.688983
C324	C	0.530694	0.523364	0.692409
H325	H	0.552819	0.452465	0.493761
H326	H	0.599139	0.303982	0.487799
H327	H	0.601991	0.294822	0.611778
H328	H	0.558523	0.434148	0.741723
H329	H	0.512204	0.582630	0.747684
C330	C	-0.122794	0.653757	0.138370
C331	C	-0.130615	0.581101	0.119955
C332	C	-0.153529	0.576535	0.181646
C333	C	-0.168620	0.644624	0.261751
C334	C	-0.160799	0.717285	0.280169
C335	C	-0.137885	0.721852	0.218479
H336	H	-0.119444	0.530693	0.060653
H337	H	-0.159319	0.522746	0.168010
H338	H	-0.185582	0.641244	0.307418
H339	H	-0.171971	0.767694	0.339471
H340	H	-0.132096	0.775641	0.232114
C341	C	0.102850	0.653785	0.138370
C342	C	0.120154	0.578769	0.150838
C343	C	0.145913	0.574201	0.212535
C344	C	0.154368	0.644651	0.261765
C345	C	0.137063	0.719673	0.249299
C346	C	0.111304	0.724240	0.187602
H347	H	0.113896	0.526613	0.114394
H348	H	0.158724	0.518665	0.221763
H349	H	0.173436	0.641270	0.307437
H350	H	0.143321	0.771829	0.285743
H351	H	0.098493	0.779777	0.178374
H352	H	0.258107	0.935134	0.021855
C353	C	0.407733	0.291829	-0.335811
C354	C	0.432641	0.197860	-0.364305
C355	C	0.401798	0.162178	-0.354460
C356	C	0.346046	0.220465	-0.316120
C357	C	0.321134	0.314440	-0.287623
C358	C	0.351978	0.350123	-0.297468
H359	H	0.473915	0.154707	-0.392689
H360	H	0.420239	0.092611	-0.375555
H361	H	0.323213	0.194051	-0.308832
H362	H	0.279861	0.357593	-0.259239
H363	H	0.333537	0.419690	-0.276373
H364	H	0.519433	0.559475	0.504560
H365	H	0.015896	0.654963	0.122348
H366	H	0.431919	0.033054	0.046332
H367	H	0.454489	0.914561	0.299929
C368	C	0.798103	0.291809	-0.335711
C369	C	0.806611	0.321027	-0.258326
C370	C	0.859705	0.285368	-0.248424
C371	C	0.904291	0.220490	-0.315907
C372	C	0.895784	0.191268	-0.393298
C373	C	0.842690	0.226927	-0.403200
H374	H	0.773604	0.369057	-0.208365
H375	H	0.866002	0.307000	-0.191134
H376	H	0.943594	0.194092	-0.308578
H377	H	0.928791	0.143238	-0.443259
H378	H	0.836393	0.205295	-0.460490
C379	C	-0.327634	0.657898	0.082298
C380	C	-0.335494	0.585278	0.063872
C381	C	-0.358406	0.580706	0.125559
C382	C	-0.373458	0.648753	0.205672
C383	C	-0.365598	0.721378	0.224102
C384	C	-0.342686	0.725951	0.162415
H385	H	-0.324351	0.534901	0.004564
H386	H	-0.364224	0.526943	0.111916
H387	H	-0.390418	0.645368	0.251336
H388	H	-0.376740	0.771756	0.283409
H389	H	-0.336868	0.779713	0.176058
H390	H	0.770273	0.252872	-0.465917
H391	H	0.435977	0.148758	0.040229
H392	H	0.510758	0.311752	-0.482235
C393	C	0.001918	0.679438	-0.209396
C394	C	-0.006511	0.608961	-0.258636
C395	C	-0.032261	0.613501	-0.320348
C396	C	-0.049580	0.688518	-0.332819
C397	C	-0.041151	0.759000	-0.283578
C398	C	-0.015402	0.754460	-0.221867
H399	H	0.006310	0.553424	-0.249405
H400	H	-0.038500	0.561325	-0.356799
H401	H	-0.068641	0.691878	-0.378502
H402	H	-0.053972	0.814537	-0.292809
H403	H	-0.009162	0.806636	-0.185415
C404	C	0.403024	0.509241	0.090206
C405	C	0.421584	0.564328	0.140296
C406	C	0.384204	0.655587	0.196901
C407	C	0.328264	0.691759	0.203416
C408	C	0.309700	0.636671	0.153324
C409	C	0.347080	0.545413	0.096720
H410	H	0.462998	0.537552	0.135475
H411	H	0.397946	0.696366	0.233982
H412	H	0.300592	0.759314	0.245318
H413	H	0.268287	0.663447	0.158146
H414	H	0.333338	0.504634	0.059639
H415	H	0.537662	0.501026	0.295638
H416	H	0.218127	0.659127	0.066257
H417	H	0.682701	0.311685	-0.482236
H418	H	0.201730	1.080440	0.394916
H419	H	-0.246118	0.674123	-0.137257
C420	C	0.206716	0.675355	-0.153297
C421	C	0.234077	0.607165	-0.233381
C422	C	0.208323	0.611714	-0.295086
C423	C	0.155207	0.684451	-0.276707
C424	C	0.127843	0.752646	-0.196619
C425	C	0.153598	0.748098	-0.134914
H426	H	0.273400	0.553316	-0.246990
H427	H	0.228580	0.561231	-0.354373
H428	H	0.136142	0.687818	-0.322385
H429	H	0.088521	0.806496	-0.183011
H430	H	0.133341	0.798581	-0.075628
C431	C	-0.029881	0.653768	0.138374
C432	C	-0.012567	0.578747	0.150836
C433	C	0.013188	0.574187	0.212539
C434	C	0.021630	0.644649	0.261778
C435	C	0.004316	0.719676	0.249317
C436	C	-0.021439	0.724236	0.187614
H437	H	-0.018816	0.526582	0.114385
H438	H	0.026005	0.518647	0.221763
H439	H	0.040695	0.641274	0.307454
H440	H	0.010565	0.771841	0.285768
H441	H	-0.034256	0.779776	0.178390
C442	C	0.299635	0.675359	-0.153300
C443	C	0.314825	0.607162	-0.233384
C444	C	0.337742	0.611710	-0.295085
C445	C	0.345468	0.684455	-0.276703
C446	C	0.330277	0.752657	-0.196616
C447	C	0.307360	0.748110	-0.134914
H448	H	0.309106	0.553307	-0.246995
H449	H	0.348987	0.561221	-0.354372
H450	H	0.362432	0.687821	-0.322378
H451	H	0.335996	0.806512	-0.183005
H452	H	0.296115	0.798598	-0.075628
H453	H	-0.241412	0.659101	0.066278
C454	C	0.792707	0.201084	-0.010635
C455	C	0.804479	0.213061	0.063678
C456	C	0.850687	0.142904	0.067430
C457	C	0.885121	0.060771	-0.003131
C458	C	0.873350	0.048791	-0.077449
C459	C	0.827142	0.118947	-0.081201
H460	H	0.778988	0.273864	0.115916
H461	H	0.859401	0.151773	0.122445
H462	H	0.919327	0.008837	-0.000353
H463	H	0.898841	-0.012012	-0.129687
H464	H	0.818428	0.110078	-0.136216
C465	C	-0.130826	0.679441	-0.209377
C466	C	-0.103463	0.611244	-0.289458
C467	C	-0.129215	0.615785	-0.351167
C468	C	-0.182329	0.688523	-0.332794
C469	C	-0.209695	0.756725	-0.252709
C470	C	-0.183943	0.752184	-0.191000
H471	H	-0.064142	0.557394	-0.303062
H472	H	-0.108957	0.565297	-0.410452
H473	H	-0.201393	0.691885	-0.378475
H474	H	-0.249016	0.810575	-0.239105
H475	H	-0.204201	0.802672	-0.131715
H476	H	-0.326386	0.674134	-0.137244
H477	H	0.088874	0.678262	-0.193369
H478	H	0.534949	0.509710	0.178138
H479	H	0.452576	0.773789	0.424440
H480	H	0.449857	0.782479	0.306954
H481	H	0.437053	0.823554	0.750864
H482	H	0.455524	0.764354	0.499280
