data_functionalizedCrystal
_audit_creation_method	'MofGen! by Chris Wilmer'
_symmetry_space_group_name_H-M	'P1'
_symmetry_Int_Tables_number	1
_symmetry_cell_setting	triclinic
loop_
_symmetry_equiv_pos_as_xyz
  x,y,z
_cell_length_a	11.792241
_cell_length_b	11.792241
_cell_length_c	10.268362
_cell_angle_alpha	90.001054
_cell_angle_beta	89.994782
_cell_angle_gamma	95.806584
loop_
_atom_site_label
_atom_site_type_symbol
_atom_site_fract_x
_atom_site_fract_y
_atom_site_fract_z
O1	O	0.155568	-1.506910	-0.108174
O2	O	0.488902	-1.173577	0.225159
O3	O	0.822235	-0.840243	0.558492
O4	O	0.171601	-1.176569	-0.108205
O5	O	0.504934	-0.843236	0.225129
O6	O	0.838268	-0.509902	0.558462
O7	O	-0.001586	-1.349756	-0.108180
O8	O	0.331747	-1.016423	0.225154
O9	O	0.665081	-0.683089	0.558487
O10	O	0.328755	-1.333723	-0.108199
O11	O	0.662089	-1.000390	0.225134
O12	O	0.995422	-0.667056	0.558467
O13	O	-0.001592	-1.349738	0.108421
O14	O	0.331741	-1.016405	0.441754
O15	O	0.665075	-0.683072	0.775088
O16	O	0.171595	-1.176551	0.108396
O17	O	0.504928	-0.843218	0.441729
O18	O	0.838262	-0.509885	0.775063
O19	O	0.155562	-1.506892	0.108426
O20	O	0.488895	-1.173559	0.441760
O21	O	0.822229	-0.840226	0.775093
Cu22	Cu	0.163578	-1.341720	0.128188
Cu23	Cu	0.496911	-1.008387	0.461522
Cu24	Cu	0.830244	-0.675054	0.794855
Cu25	Cu	0.163585	-1.341741	-0.127967
Cu26	Cu	0.496919	-1.008408	0.205366
Cu27	Cu	0.830252	-0.675074	0.538700
O28	O	0.328749	-1.333705	0.108401
O29	O	0.662082	-1.000372	0.441735
O30	O	0.995416	-0.667039	0.775068
C31	C	0.170591	-1.134269	0.000092
C32	C	0.503924	-0.800936	0.333425
C33	C	0.837258	-0.467603	0.666758
C34	C	0.167576	-1.008255	0.000080
C35	C	0.500910	-0.674922	0.333414
C36	C	0.834243	-0.341589	0.666747
C37	C	-0.043880	-1.348740	0.000120
C38	C	0.289453	-1.015407	0.333454
C39	C	0.622787	-0.682073	0.666787
C40	C	-0.169894	-1.345726	0.000119
C41	C	0.163440	-1.012392	0.333452
C42	C	0.496773	-0.679059	0.666785
C43	C	-0.400606	-1.340183	0.000096
C44	C	-0.067272	-1.006849	0.333430
C45	C	0.266061	-0.673516	0.666763
C46	C	-0.272221	-1.343262	0.000108
C47	C	0.061113	-1.009929	0.333442
C48	C	0.394446	-0.676596	0.666775
C49	C	0.156572	-1.549192	0.000127
C50	C	0.489905	-1.215859	0.333460
C51	C	0.823239	-0.882525	0.666794
C52	C	0.159587	-1.675206	0.000130
C53	C	0.492920	-1.341873	0.333463
C54	C	0.826253	-1.008539	0.666796
C55	C	0.371043	-1.334721	0.000099
C56	C	0.704376	-1.001388	0.333432
C57	C	1.037710	-0.668055	0.666765
C58	C	0.497057	-1.337736	0.000092
C59	C	0.830390	-1.004402	0.333425
C60	C	1.163723	-0.671069	0.666758
N61	N	0.163572	-1.341714	0.308354
N62	N	0.496905	-1.008381	0.641688
N63	N	0.830239	-0.675047	0.975021
C64	C	0.162034	-0.777543	0.000118
C65	C	0.495367	-0.444210	0.333451
C66	C	0.828700	-0.110877	0.666785
C67	C	0.165113	-0.905928	0.000097
C68	C	0.498447	-0.572595	0.333431
C69	C	0.831780	-0.239262	0.666764
C70	C	0.163586	-1.341728	0.574025
C71	C	0.496919	-1.008394	0.907358
C72	C	0.830253	-0.675061	1.240692
C73	C	0.163581	-1.341716	0.426187
C74	C	0.496915	-1.008383	0.759520
C75	C	0.830248	-0.675050	1.092854
N76	N	0.163586	-1.341745	0.691867
N77	N	0.496920	-1.008412	1.025201
N78	N	0.830253	-0.675079	1.358534
