data_functionalizedCrystal
_audit_creation_method	'MofGen! by Chris Wilmer'
_symmetry_space_group_name_H-M	'P1'
_symmetry_Int_Tables_number	1
_symmetry_cell_setting	triclinic
loop_
_symmetry_equiv_pos_as_xyz
  x,y,z
_cell_length_a	19.288859
_cell_length_b	19.288865
_cell_length_c	17.766277
_cell_angle_alpha	89.989546
_cell_angle_beta	90.010268
_cell_angle_gamma	96.865014
loop_
_atom_site_label
_atom_site_type_symbol
_atom_site_fract_x
_atom_site_fract_y
_atom_site_fract_z
O1	O	0.921356	-0.086627	0.062618
O2	O	1.421356	0.413373	0.562618
O3	O	0.719095	-0.098320	0.062617
O4	O	1.219095	0.401680	0.562617
O5	O	0.826070	0.008657	0.062602
O6	O	1.326070	0.508657	0.562602
O7	O	0.814381	-0.193604	0.062632
O8	O	1.314381	0.306396	0.562632
O9	O	0.826051	0.008660	-0.062586
O10	O	1.326051	0.508660	0.437414
O11	O	0.719076	-0.098317	-0.062571
O12	O	1.219076	0.401683	0.437429
O13	O	0.921337	-0.086624	-0.062571
O14	O	1.421337	0.413376	0.437429
Cu15	Cu	0.820204	-0.092470	-0.074002
Cu16	Cu	1.320204	0.407530	0.425998
Cu17	Cu	0.820227	-0.092474	0.074048
Cu18	Cu	1.320227	0.407526	0.574048
O19	O	0.814362	-0.193601	-0.062556
O20	O	1.314362	0.306399	0.437444
C21	C	0.693209	-0.097943	0.000022
C22	C	1.193209	0.402057	0.500022
C23	C	0.616105	-0.096816	0.000022
C24	C	1.116105	0.403184	0.500022
C25	C	0.052064	-0.151959	0.000031
C26	C	0.552064	0.348041	0.500031
C27	C	0.124511	-0.153025	0.000035
C28	C	0.624511	0.346975	0.500035
C29	C	0.169217	-0.090255	0.000024
C30	C	0.669217	0.409745	0.500024
C31	C	0.141472	-0.026416	0.000029
C32	C	0.641472	0.473584	0.500029
C33	C	0.069027	-0.025353	0.000032
C34	C	0.569027	0.474647	0.500032
C35	C	0.290481	-0.043441	-0.043845
C36	C	0.790481	0.456559	0.456155
C37	C	0.362925	-0.044507	-0.043853
C38	C	0.862925	0.455493	0.456147
C39	C	0.392663	-0.093533	0.000017
C40	C	0.892663	0.406467	0.500017
C41	C	0.349948	-0.141504	0.043885
C42	C	0.849948	0.358496	0.543885
C43	C	0.277502	-0.140440	0.043888
C44	C	0.777502	0.359560	0.543888
C45	C	0.247773	-0.091401	0.000021
C46	C	0.747773	0.408599	0.500021
C47	C	0.498955	-0.158523	0.000022
C48	C	0.998955	0.341477	0.500022
C49	C	0.571403	-0.159586	0.000031
C50	C	1.071403	0.340414	0.500031
C51	C	0.588364	-0.032976	0.000017
C52	C	1.088364	0.467024	0.500017
C53	C	0.515917	-0.031915	0.000016
C54	C	1.015917	0.468085	0.500016
C55	C	0.471216	-0.094691	0.000015
C56	C	0.971216	0.405309	0.500015
C57	C	0.825684	0.034535	0.000006
C58	C	1.325684	0.534535	0.500006
C59	C	0.824555	0.111638	-0.000001
C60	C	1.324555	0.611638	0.499999
C61	C	0.947223	-0.087001	0.000025
C62	C	1.447223	0.412999	0.500025
C63	C	1.024327	-0.088128	0.000031
C64	C	1.524327	0.411872	0.500031
N65	N	0.820194	-0.092467	-0.178132
N66	N	1.320194	0.407533	0.321868
C67	C	0.814747	-0.219479	0.000042
C68	C	1.314747	0.280521	0.500042
C69	C	0.815876	-0.296583	0.000053
C70	C	1.315876	0.203417	0.500053
C71	C	0.887323	0.156336	-0.000004
C72	C	1.387323	0.656336	0.499996
C73	C	0.886262	0.228783	0.000008
C74	C	1.386262	0.728783	0.500008
C75	C	0.822430	0.256529	0.000008
C76	C	1.322430	0.756529	0.500008
C77	C	0.759654	0.211822	0.000016
C78	C	1.259654	0.711822	0.500016
C79	C	0.760716	0.139376	0.000011
C80	C	1.260716	0.639376	0.500011
C81	C	0.772244	0.364816	-0.043843
C82	C	1.272244	0.864816	0.456157
C83	C	0.771184	0.437261	-0.043843
C84	C	1.271184	0.937261	0.456157
C85	C	0.819150	0.479975	0.000025
C86	C	1.319150	0.979975	0.500025
C87	C	0.868189	0.450237	0.043883
C88	C	1.368189	0.950237	0.543883
C89	C	0.869251	0.377791	0.043879
C90	C	1.369251	0.877791	0.543879
C91	C	0.821271	0.335083	0.000013
C92	C	1.321271	0.835083	0.500013
C93	C	0.880773	0.603228	0.000035
C94	C	1.380773	1.103228	0.500035
C95	C	0.879709	0.675676	0.000052
C96	C	1.379709	1.175676	0.500052
C97	C	0.753099	0.658713	0.000052
C98	C	1.253099	1.158713	0.500052
C99	C	0.754164	0.586267	0.000043
C100	C	1.254164	1.086267	0.500043
C101	C	0.818003	0.558529	0.000031
C102	C	1.318003	1.058529	0.500031
C103	C	0.862181	-0.134490	-0.217506
C104	C	1.362181	0.365510	0.282494
C105	C	0.862192	-0.134488	-0.296308
C106	C	1.362192	0.365512	0.203692
C107	C	0.820203	-0.092472	-0.335733
C108	C	1.320203	0.407528	0.164267
C109	C	0.778212	-0.050440	-0.296349
C110	C	1.278212	0.449560	0.203651
C111	C	0.778208	-0.050438	-0.217549
C112	C	1.278208	0.449562	0.282451
C113	C	0.757590	-0.090716	-0.460593
C114	C	1.257590	0.409284	0.039407
C115	C	0.757593	-0.090723	-0.539392
C116	C	1.257593	0.409277	-0.039392
C117	C	0.820217	-0.092474	-0.578779
C118	C	1.320217	0.407526	-0.078779
C119	C	0.882839	-0.094232	-0.539358
C120	C	1.382839	0.405768	-0.039358
C121	C	0.882835	-0.094230	-0.460558
C122	C	1.382835	0.405770	0.039442
C123	C	0.820203	-0.092469	-0.421179
C124	C	1.320203	0.407531	0.078821
C125	C	0.862220	-0.134497	-0.703599
C126	C	1.362220	0.365503	-0.203599
C127	C	0.862232	-0.134490	-0.782402
C128	C	1.362232	0.365510	-0.282402
C129	C	0.778246	-0.050445	-0.782442
C130	C	1.278246	0.449555	-0.282442
C131	C	0.778240	-0.050448	-0.703640
C132	C	1.278240	0.449552	-0.203640
C133	C	0.820226	-0.092478	-0.664224
C134	C	1.320226	0.407522	-0.164224
N135	N	0.820243	-0.092471	0.178178
N136	N	1.320243	0.407529	0.678178
H137	H	0.593984	-0.211567	0.000037
H138	H	1.093984	0.288433	0.500037
Br139	Br	0.672606	-0.088347	-0.592884
Br140	Br	1.172606	0.411653	-0.092884
Br141	Br	0.971454	0.289456	0.000006
Br142	Br	1.471454	0.789456	0.500006
Br143	Br	0.721270	0.006590	-0.835939
Br144	Br	1.221270	0.506590	-0.335939
H145	H	0.744047	-0.016232	-0.671582
H146	H	1.244047	0.483768	-0.171582
Br147	Br	0.649029	0.052213	0.000019
Br148	Br	1.149029	0.552213	0.500019
Br149	Br	0.672602	-0.088274	-0.407147
Br150	Br	1.172602	0.411726	0.092853
H151	H	0.744025	-0.016229	-0.328454
H152	H	1.244025	0.483771	0.171546
Br153	Br	0.438286	-0.243716	0.000021
Br154	Br	0.938286	0.256284	0.500021
Br155	Br	0.967816	-0.096616	-0.407059
Br156	Br	1.467816	0.403384	0.092941
H157	H	0.703051	0.549873	0.000042
H158	H	1.203051	1.049873	0.500042
H159	H	0.015673	-0.203077	0.000034
H160	H	0.515673	0.296923	0.500034
Br161	Br	0.721217	0.006594	-0.164109
Br162	Br	1.221217	0.506594	0.335891
H163	H	0.731251	0.461467	-0.079551
H164	H	1.231251	0.961467	0.420449
Br165	Br	0.707140	0.306855	-0.103384
Br166	Br	1.207140	0.806855	0.396616
H167	H	0.907247	0.485013	0.079606
H168	H	1.407247	0.985013	0.579606
Br169	Br	0.967835	-0.096610	-0.592801
Br170	Br	1.467835	0.403390	-0.092801
Br171	Br	0.919182	-0.191521	-0.349756
Br172	Br	1.419182	0.308479	0.150244
Br173	Br	0.935796	0.337433	0.103402
Br174	Br	1.435796	0.837433	0.603402
H175	H	0.896408	-0.168719	-0.671504
H176	H	1.396408	0.331281	-0.171504
H177	H	0.896429	-0.168708	-0.814459
H178	H	1.396429	0.331292	-0.314459
Br179	Br	0.031381	0.061282	0.000037
Br180	Br	0.531381	0.561282	0.500037
H181	H	0.147099	-0.205005	0.000028
H182	H	0.647099	0.294995	0.500028
Br183	Br	0.478270	0.054718	0.000023
Br184	Br	0.978270	0.554718	0.500023
H185	H	0.932754	0.580643	0.000029
H186	H	1.432754	1.080643	0.500029
H187	H	0.930825	0.712069	0.000053
H188	H	1.430825	1.212069	0.500053
H189	H	0.701125	0.681303	0.000056
H190	H	1.201125	1.181303	0.500056
Br191	Br	0.219534	-0.205537	0.103424
Br192	Br	0.719534	0.294463	0.603424
Br193	Br	0.673023	0.249475	0.000026
Br194	Br	1.173023	0.749475	0.500026
H195	H	0.374158	-0.181427	0.079606
H196	H	0.874158	0.318573	0.579606
Br197	Br	0.919145	-0.191547	-0.164015
Br198	Br	1.419145	0.308453	0.335985
H199	H	0.709601	0.102982	0.000014
H200	H	1.209601	0.602982	0.500014
Br201	Br	0.973961	0.118695	0.000000
Br202	Br	1.473961	0.618695	0.500000
Br203	Br	0.420887	0.020587	-0.103396
Br204	Br	0.920887	0.520587	0.396604
H205	H	0.266275	-0.003515	-0.079570
H206	H	0.766275	0.496485	0.420430
H207	H	0.177877	0.024691	0.000022
H208	H	0.677877	0.524691	0.500022
