data_functionalizedCrystal
_audit_creation_method	'MofGen! by Chris Wilmer'
_symmetry_space_group_name_H-M	'P1'
_symmetry_Int_Tables_number	1
_symmetry_cell_setting	triclinic
loop_
_symmetry_equiv_pos_as_xyz
  x,y,z
_cell_length_a	19.902436
_cell_length_b	18.760492
_cell_length_c	18.760490
_cell_angle_alpha	90.015487
_cell_angle_beta	60.027017
_cell_angle_gamma	59.993066
loop_
_atom_site_label
_atom_site_type_symbol
_atom_site_fract_x
_atom_site_fract_y
_atom_site_fract_z
Zr1	Zr	0.735753	-0.093538	0.686561
O2	O	0.875889	-0.207382	0.572778
O3	O	0.595587	-0.058629	0.721440
O4	O	0.735767	-0.207351	0.721451
O5	O	0.735709	0.058642	0.572761
O6	O	0.735813	-0.207337	0.838729
O7	O	0.735709	-0.058661	0.572767
O8	O	0.485056	0.058699	0.838710
O9	O	0.986466	-0.207394	0.572780
O10	O	0.653285	-0.043743	0.823842
O11	O	0.653251	0.043789	0.736314
O12	O	0.818295	-0.131312	0.736326
O13	O	0.818261	-0.043780	0.648798
Zr14	Zr	0.735826	0.093568	0.873597
Zr15	Zr	0.735826	-0.093517	0.873607
Zr16	Zr	0.735753	0.093546	0.686552
Zr17	Zr	0.912110	-0.093556	0.686565
Zr18	Zr	0.559469	0.093586	0.873594
O19	O	0.875993	0.058659	0.838719
O20	O	0.875993	-0.207352	0.838733
O21	O	0.875889	0.058628	0.572764
O22	O	0.595690	0.207412	0.987381
O23	O	0.595691	-0.058598	0.987395
O24	O	0.595586	0.207381	0.721426
O25	O	0.735871	-0.058613	0.987398
O26	O	0.735812	0.207380	0.838708
O27	O	0.735767	0.207367	0.721429
O28	O	0.735871	0.058690	0.987392
O29	O	0.986524	-0.207376	0.721457
O30	O	0.485056	0.207406	0.838702
O31	O	0.485114	0.207423	0.987379
O32	O	0.485114	0.058716	0.987386
O33	O	0.986465	-0.058686	0.572772
O34	O	0.986523	-0.058669	0.721449
O35	O	0.653285	0.131341	0.823833
O36	O	0.653319	0.043809	0.911361
O37	O	0.818329	-0.043760	0.823845
O38	O	0.818295	0.043772	0.736317
C39	C	0.515194	0.000037	0.780075
C40	C	0.440326	0.000045	0.780073
C41	C	0.735698	-0.000012	0.546114
C42	C	0.735667	-0.000022	0.466708
C43	C	0.735789	0.234029	0.780067
C44	C	0.735789	0.313451	0.780063
C45	C	0.168316	0.000004	0.780082
C46	C	0.196533	0.055488	0.725134
C47	C	0.274652	0.055259	0.724836
C48	C	0.303263	0.000025	0.780077
C49	C	0.338811	-0.095111	0.739817
C50	C	0.260973	-0.094819	0.739403
C51	C	0.133838	0.038894	0.875317
C52	C	0.210890	0.040831	0.875178
C53	C	0.379532	0.000032	0.780075
C54	C	0.092052	-0.000009	0.780080
C55	C	0.956385	-0.000008	0.780084
C56	C	1.031253	-0.000016	0.780086
C57	C	0.735790	-0.233999	0.780092
C58	C	0.735790	-0.313422	0.780096
C59	C	0.649653	0.694978	0.825777
C60	C	0.821926	0.603550	0.734409
C61	C	0.821928	0.528928	0.734401
C62	C	0.735790	0.537329	0.780082
C63	C	0.649652	0.620351	0.825772
C64	C	0.908065	0.445901	0.688719
C65	C	0.908070	0.371273	0.688709
C66	C	0.821931	0.379672	0.734386
C67	C	0.735789	0.462701	0.780077
C68	C	0.649652	0.471101	0.825758
C69	C	0.563509	0.554129	0.871445
C70	C	0.563513	0.628750	0.871449
C71	C	0.821927	0.305051	0.734382
C72	C	0.649651	0.396473	0.825753
C73	C	0.735887	-0.064583	0.130724
C74	C	0.735887	0.064670	0.130833
C75	C	0.735840	0.064656	0.205479
C76	C	0.735815	0.000022	0.242752
C77	C	0.735837	-0.064597	0.205378
C78	C	0.735808	0.129279	0.242864
C79	C	0.735759	0.129268	0.317515
C80	C	0.735741	0.064630	0.354786
C81	C	0.735765	0.000007	0.317407
C82	C	0.735740	-0.064626	0.354680
C83	C	0.735770	-0.129253	0.317299
C84	C	0.735819	-0.129235	0.242649
C85	C	0.735692	0.064612	0.429435
C86	C	0.735690	-0.064641	0.429334
C87	C	0.735881	0.000042	1.014045
C88	C	0.735912	0.000051	1.093451
C89	C	0.515286	0.000064	1.014040
C90	C	0.440449	0.000081	1.093444
C91	C	0.515194	0.234052	0.780062
C92	C	0.440326	0.313482	0.780057
C93	C	0.515285	0.234079	1.014028
C94	C	0.440448	0.313518	1.093428
C95	C	0.956294	-0.234049	0.546131
C96	C	1.031131	-0.313488	0.466731
C97	C	0.956294	-0.000035	0.546119
C98	C	1.031131	-0.000052	0.466715
C99	C	0.956385	-0.234022	0.780097
C100	C	1.031254	-0.313452	0.780102
C101	C	0.405287	-0.045620	1.085049
C102	C	0.334979	-0.045621	1.159651
C103	C	0.299830	0.000084	1.242646
C104	C	0.334999	0.045786	1.251040
C105	C	0.405310	0.045782	1.176439
C106	C	0.405185	0.396492	0.825738
C107	C	0.334848	0.471132	0.825729
C108	C	0.299649	0.462760	0.780044
C109	C	0.334797	0.379741	0.734357
C110	C	0.405137	0.305103	0.734361
C111	C	0.405322	0.305133	1.176412
C112	C	0.335014	0.379767	1.251024
C113	C	0.299829	0.462786	1.242650
C114	C	0.334963	0.471169	1.159658
C115	C	0.405274	0.396536	1.085048
C116	C	1.066266	-0.305103	0.383747
C117	C	1.136596	-0.379738	0.309135
C118	C	1.171784	-0.462756	0.317509
C119	C	1.136646	-0.471140	0.400501
C120	C	1.066323	-0.396506	0.475111
C121	C	1.066300	0.045641	0.475110
C122	C	1.136627	0.045622	0.400508
C123	C	1.171779	-0.000085	0.317512
C124	C	1.136607	-0.045784	0.309119
C125	C	1.066286	-0.045770	0.383720
C126	C	1.066430	-0.305052	0.825797
C127	C	1.136768	-0.379678	0.825819
C128	C	1.171932	-0.462703	0.780142
C129	C	1.136748	-0.471101	0.734446
C130	C	1.066407	-0.396476	0.734429
H131	H	0.132038	0.125719	0.751997
H132	H	0.433836	0.403325	0.862941
H133	H	1.165389	-0.538710	0.697256
N134	N	1.028409	0.094938	0.564617
H135	H	1.040663	0.053026	0.597608
H136	H	0.957820	0.140942	0.597540
N137	N	0.735894	0.134389	0.090647
H138	H	0.735923	0.124596	0.037688
H139	H	0.794461	0.131527	0.072680
H140	H	0.226514	0.004622	0.919567
N141	N	1.174513	-0.095068	0.219600
H142	H	1.120837	-0.071083	0.212610
H143	H	1.203712	-0.158991	0.212651
N144	N	0.556744	0.784521	0.875056
H145	H	0.569810	0.830524	0.868132
H146	H	0.519155	0.791432	0.938944
H147	H	0.359719	-0.138241	0.777916
H148	H	0.306239	0.538722	0.862936
H149	H	0.242373	0.523542	0.780047
N150	N	0.735660	0.134311	0.469747
H151	H	0.794216	0.106104	0.469689
H152	H	0.677025	0.168247	0.531734
N153	N	0.735811	0.198999	0.202678
H154	H	0.735847	0.189201	0.149715
H155	H	0.794372	0.196146	0.184717
H156	H	0.433904	-0.082849	1.017477
N157	N	0.470610	0.718297	0.920736
H158	H	0.466747	0.751308	0.878845
H159	H	0.466860	0.751209	0.966710
N160	N	1.028471	-0.405543	0.685140
H161	H	1.061427	-0.469464	0.656208
H162	H	1.040704	-0.376587	0.639201
N163	N	0.296996	0.560715	1.150636
H164	H	0.329911	0.554712	1.086746
H165	H	0.309247	0.593669	1.179604
N166	N	1.174707	-0.370597	0.875102
H167	H	1.245306	-0.399535	0.833207
H168	H	1.162410	-0.399486	0.921093
N169	N	0.296823	0.370718	0.685090
H170	H	0.246926	0.430601	0.692030
H171	H	0.267688	0.337734	0.709089
H172	H	0.433865	0.403375	1.017481
H173	H	0.306353	-0.082838	1.152800
H174	H	0.735675	-0.117276	0.459675
N175	N	0.914830	0.594482	0.685136
H176	H	0.952507	0.561507	0.709099
H177	H	0.901687	0.654380	0.692085
N178	N	0.443232	0.095075	1.185500
H179	H	0.430979	0.141065	1.156586
H180	H	0.513824	0.053097	1.156599
H181	H	0.978193	0.439070	0.651535
H182	H	0.433740	0.237515	0.697165
N183	N	1.000975	0.281727	0.639463
H184	H	1.055541	0.287731	0.610535
H185	H	1.004735	0.248753	0.593523
H186	H	1.229046	-0.523521	0.256749
N187	N	0.239380	0.148051	0.760607
H188	H	0.172828	0.189473	0.776710
H189	H	0.282769	0.161363	0.714855
N190	N	0.230854	0.020099	0.632637
H191	H	0.228205	-0.031718	0.626171
H192	H	0.298435	0.001369	0.591015
N193	N	0.735865	-0.198935	0.202313
H194	H	0.677312	-0.170726	0.202366
H195	H	0.735886	-0.239873	0.237264
N196	N	0.443254	0.215597	1.185456
H197	H	0.410326	0.221623	1.249353
H198	H	0.513860	0.182628	1.156490
N199	N	1.174484	-0.370684	0.219630
H200	H	1.141509	-0.306766	0.225653
H201	H	1.162236	-0.399662	0.186678
N202	N	0.735943	-0.134297	0.090400
H203	H	0.735988	-0.124490	0.037448
H204	H	0.677362	-0.131447	0.134448
H205	H	0.493376	0.560959	0.908642
N206	N	1.028335	-0.215569	0.374699
H207	H	0.978452	-0.169552	0.434551
H208	H	0.999197	-0.208658	0.341697
N209	N	1.174603	-0.560683	0.409526
H210	H	1.224480	-0.606684	0.349665
H211	H	1.120896	-0.567594	0.442507
N212	N	0.297108	0.370721	1.340532
H213	H	0.309365	0.399634	1.373533
H214	H	0.330073	0.306789	1.334442
H215	H	0.892063	0.237454	0.697189
H216	H	1.037717	-0.403344	0.542678
N217	N	1.174553	0.094915	0.409572
H218	H	1.141603	0.123878	0.473471
H219	H	1.162305	0.140852	0.380602
N220	N	1.028356	-0.095056	0.374659
H221	H	1.061299	-0.124009	0.310760
H222	H	0.957753	-0.053088	0.403611
N223	N	1.028514	-0.215510	0.875065
H224	H	1.061477	-0.221525	0.904015
H225	H	0.957915	-0.182545	0.920989
N226	N	0.223979	0.543284	1.323122
H227	H	0.248448	0.579208	1.323168
H228	H	0.207090	0.525302	1.376919
H229	H	0.339083	0.028296	0.654588
N230	N	0.297085	0.095079	1.340559
H231	H	0.247206	0.088144	1.386537
H232	H	0.267943	0.158991	1.347473
H233	H	0.735744	-0.181875	0.347658
H234	H	1.229039	-0.000090	0.256775
H235	H	0.290488	-0.125951	0.669323
H236	H	1.229208	-0.523460	0.780162
H237	H	0.405788	-0.126458	0.670407
N238	N	0.239861	-0.152552	0.788988
H239	H	0.281116	-0.178082	0.811014
H240	H	0.253550	-0.201320	0.749009
N241	N	0.735713	0.198975	0.357838
H242	H	0.735730	0.239925	0.322901
H243	H	0.794267	0.170707	0.357784
H244	H	0.065804	0.107874	0.908956
H245	H	0.114998	-0.001326	0.916449
N246	N	0.172875	0.133651	0.915026
H247	H	0.157343	0.169376	0.878465
H248	H	0.222394	0.134116	0.917110
N249	N	0.556744	0.405536	0.875027
H250	H	0.502178	0.469456	0.903968
H251	H	0.553012	0.376568	0.920957
H252	H	0.242577	0.000081	1.303384
