data_functionalizedCrystal
_audit_creation_method	'MofGen! by Chris Wilmer'
_symmetry_space_group_name_H-M	'P1'
_symmetry_Int_Tables_number	1
_symmetry_cell_setting	triclinic
loop_
_symmetry_equiv_pos_as_xyz
  x,y,z
_cell_length_a	21.295417
_cell_length_b	13.897449
_cell_length_c	13.897441
_cell_angle_alpha	90.018596
_cell_angle_beta	89.964549
_cell_angle_gamma	89.968214
loop_
_atom_site_label
_atom_site_type_symbol
_atom_site_fract_x
_atom_site_fract_y
_atom_site_fract_z
Zn1	Zn	-0.250574	-1.474596	-0.545342
Zn2	Zn	-0.355851	-1.474460	-0.384027
Zn3	Zn	-0.250602	-1.313292	-0.384060
Zn4	Zn	-0.355811	-1.313231	-0.545280
O5	O	-0.303209	-1.393895	-0.464677
O6	O	-0.264544	-1.609560	-0.523955
O7	O	-0.341918	-1.453049	-0.249050
O8	O	-0.162509	-1.334771	-0.405495
O9	O	-0.341890	-1.609460	-0.405438
O10	O	-0.162488	-1.453281	-0.523988
O11	O	-0.264592	-1.334639	-0.249074
O12	O	-0.264553	-1.178302	-0.405434
O13	O	-0.341823	-1.334668	-0.680270
O14	O	-0.341850	-1.178258	-0.523881
O15	O	-0.264505	-1.453223	-0.680316
O16	O	-0.443935	-1.452991	-0.405378
O17	O	-0.443906	-1.334536	-0.523849
C18	C	-0.303201	-1.143281	-0.464655
C19	C	-0.303213	-1.036067	-0.464669
C20	C	-0.466761	-1.393768	-0.464624
C21	C	-0.536729	-1.393803	-0.464633
C22	C	-0.303157	-1.393954	-0.716270
C23	C	-0.303134	-1.393979	-0.823484
C24	C	-0.569590	-1.455537	-0.403008
C25	C	-0.635333	-1.455582	-0.403030
C26	C	-0.668212	-1.393876	-0.464667
C27	C	-0.635343	-1.332137	-0.526304
C28	C	-0.569602	-1.332101	-0.526287
N29	N	-0.771478	-1.309494	-0.472013
N30	N	-0.833930	-1.309532	-0.472023
C31	C	-0.866286	-1.393984	-0.464722
N32	N	-0.833832	-1.478398	-0.457392
N33	N	-0.771375	-1.478360	-0.457376
C34	C	-0.739497	-1.393909	-0.464692
C35	C	-0.970433	-1.455772	-0.403117
C36	C	-1.036176	-1.455819	-0.403146
C37	C	-1.036185	-1.332366	-0.526414
C38	C	-0.970443	-1.332328	-0.526391
C39	C	-0.937571	-1.394029	-0.464737
C40	C	-0.139019	-1.394048	-0.464752
C41	C	-0.069051	-1.394113	-0.464784
C42	C	-0.303218	-1.645488	-0.464700
C43	C	-0.303222	-1.752702	-0.464710
C44	C	-0.303215	-0.839771	-0.464694
C45	C	-0.303212	-0.949004	-0.464677
C46	C	-0.303116	-1.393999	-0.910554
C47	C	-0.303088	-1.394026	-1.019787
C48	C	-0.303217	-1.393892	-0.214063
C49	C	-0.303062	-1.394053	-0.106850
H50	H	-0.542827	-1.505780	-0.352809
C51	C	-0.671504	-1.264262	-0.594105
H52	H	-0.642515	-1.227494	-0.630811
H53	H	-0.697194	-1.222268	-0.557178
H54	H	-0.697105	-1.301159	-0.636174
C55	C	-0.671487	-1.523484	-0.335233
H56	H	-0.642494	-1.560220	-0.298508
H57	H	-0.697092	-1.565507	-0.372167
H58	H	-0.697173	-1.486606	-0.293180
C59	C	-0.533450	-1.264189	-0.594072
H60	H	-0.489589	-1.273008	-0.585237
H61	H	-0.544271	-1.199393	-0.579905
H62	H	-0.544180	-1.278284	-0.658902
H63	H	-0.943667	-1.506016	-0.352918
C64	C	-1.072327	-1.523717	-0.335345
H65	H	-1.116188	-1.514907	-0.344188
H66	H	-1.061592	-1.509614	-0.270524
H67	H	-1.061509	-1.588521	-0.349506
C68	C	-1.072344	-1.264495	-0.594218
H69	H	-1.116205	-1.273355	-0.585401
H70	H	-1.061526	-1.278570	-0.659036
H71	H	-1.061619	-1.199682	-0.580036
C72	C	-0.934294	-1.264407	-0.594167
H73	H	-0.963290	-1.227657	-0.630873
H74	H	-0.908603	-1.301262	-0.636222
H75	H	-0.908696	-1.222384	-0.557213
