data_functionalizedCrystal
_audit_creation_method	'MofGen! by Chris Wilmer'
_symmetry_space_group_name_H-M	'P1'
_symmetry_Int_Tables_number	1
_symmetry_cell_setting	triclinic
loop_
_symmetry_equiv_pos_as_xyz
  x,y,z
_cell_length_a	19.805407
_cell_length_b	19.121063
_cell_length_c	19.805399
_cell_angle_alpha	92.411105
_cell_angle_beta	89.979591
_cell_angle_gamma	92.471006
loop_
_atom_site_label
_atom_site_type_symbol
_atom_site_fract_x
_atom_site_fract_y
_atom_site_fract_z
Zn1	Zn	1.023235	-0.279595	-0.394216
Zn2	Zn	1.018319	-0.397047	-0.285851
Zn3	Zn	0.910049	-0.279618	-0.281040
Zn4	Zn	0.905184	-0.397014	-0.398995
O5	O	0.964197	-0.338318	-0.340026
O6	O	1.117299	-0.295179	-0.379855
O7	O	1.003935	-0.381494	-0.190497
O8	O	0.929157	-0.181330	-0.292040
O9	O	1.113687	-0.381471	-0.300240
O10	O	1.012314	-0.181313	-0.375190
O11	O	0.924390	-0.295219	-0.186963
O12	O	0.814687	-0.295187	-0.296674
O13	O	0.920865	-0.381414	-0.493077
O14	O	0.811113	-0.381437	-0.383334
O15	O	1.007597	-0.295147	-0.489566
O16	O	0.999218	-0.495328	-0.304873
O17	O	0.916098	-0.495303	-0.388000
C18	C	0.788341	-0.338311	-0.340001
C19	C	0.713108	-0.338325	-0.340007
C20	C	0.253198	-0.293470	-0.381577
C21	C	0.323887	-0.293472	-0.381572
C22	C	0.357347	-0.338329	-0.340048
C23	C	0.320114	-0.383193	-0.298531
C24	C	0.249427	-0.383195	-0.298540
C25	C	0.605187	-0.383188	-0.298495
C26	C	0.675880	-0.383181	-0.298487
C27	C	0.679648	-0.293464	-0.381528
C28	C	0.608960	-0.293466	-0.381536
C29	C	0.571734	-0.338333	-0.340022
C30	C	0.495085	-0.338332	-0.340029
C31	C	0.433994	-0.338327	-0.340037
C32	C	0.956615	-0.520800	-0.347492
C33	C	0.953433	-0.598866	-0.350708
C34	C	0.995248	-0.635531	-0.308976
C35	C	0.992259	-0.708882	-0.312005
C36	C	0.947452	-0.745567	-0.356764
C37	C	0.905635	-0.708897	-0.398501
C38	C	0.908628	-0.635547	-0.395475
C39	C	0.936254	-0.967038	-0.368068
C40	C	0.933263	-1.040393	-0.371090
C41	C	1.019889	-1.040374	-0.284595
C42	C	1.022874	-0.967022	-0.281570
C43	C	0.981060	-0.930358	-0.323309
C44	C	0.944395	-0.820544	-0.359860
C45	C	0.984121	-0.855382	-0.320216
C46	C	1.140739	-0.338326	-0.340051
C47	C	1.215971	-0.338330	-0.340062
C48	C	0.964236	-0.338274	-0.516567
C49	C	0.964253	-0.338255	-0.591798
C50	C	0.971827	-0.155125	-0.332545
C51	C	0.975078	-0.077058	-0.329357
C52	C	1.009416	-0.293334	-0.625315
C53	C	1.009424	-0.293313	-0.696003
C54	C	0.964272	-0.338219	-0.733172
C55	C	0.919104	-0.383142	-0.699650
C56	C	0.919094	-0.383159	-0.628964
C57	C	0.919145	-0.383077	-0.984721
C58	C	0.919161	-0.383059	-1.055412
C59	C	1.009475	-0.293232	-1.051760
C60	C	1.009465	-0.293248	-0.981073
C61	C	0.964295	-0.338169	-0.947557
C62	C	0.964286	-0.338189	-0.870910
C63	C	0.964283	-0.338202	-0.809819
C64	C	0.964198	-0.338312	-0.164169
C65	C	0.964320	-0.338133	-0.088930
H66	H	0.709966	-0.256934	-0.415333
F67	F	0.711488	-0.430927	-0.254289
H68	H	1.046186	-0.256769	-0.595057
H69	H	1.046201	-0.256735	-0.723289
F70	F	0.871101	-0.430855	-1.094970
H71	H	1.046252	-0.256652	-1.079057
F72	F	1.031809	-0.816338	-0.272585
H73	H	0.219117	-0.419726	-0.264735
H74	H	0.907911	-0.850422	-0.396301
H75	H	0.869155	-0.738772	-0.434947
F76	F	1.070572	-0.927984	-0.233939
F77	F	0.871072	-0.430886	-0.949060
H78	H	0.882311	-0.419731	-0.601675
F79	F	0.871048	-0.430931	-0.739210
H80	H	0.354194	-0.256945	-0.415381
F81	F	1.057523	-0.245456	-0.941519
H82	H	1.053932	-1.070233	-0.250614
F83	F	0.217595	-0.245722	-0.425770
H84	H	0.874578	-0.605695	-0.429458
H85	H	0.896784	-1.070260	-0.407549
H86	H	0.581721	-0.256936	-0.415347
F87	F	0.565578	-0.430923	-0.254295
F88	F	0.355726	-0.430938	-0.254340
H89	H	1.031732	-0.605667	-0.272526
H90	H	1.026309	-0.738732	-0.278022
F91	F	0.891750	-0.928027	-0.412491
