data_functionalizedCrystal
_audit_creation_method	'MofGen! by Chris Wilmer'
_symmetry_space_group_name_H-M	'P1'
_symmetry_Int_Tables_number	1
_symmetry_cell_setting	triclinic
loop_
_symmetry_equiv_pos_as_xyz
  x,y,z
_cell_length_a	18.215407
_cell_length_b	18.050589
_cell_length_c	18.215399
_cell_angle_alpha	90.025811
_cell_angle_beta	89.985640
_cell_angle_gamma	89.967859
loop_
_atom_site_label
_atom_site_type_symbol
_atom_site_fract_x
_atom_site_fract_y
_atom_site_fract_z
Zn1	Zn	1.125000	0.295700	-0.416091
Zn2	Zn	1.625000	0.795700	0.083909
Zn3	Zn	1.124894	0.419900	-0.293034
Zn4	Zn	1.624894	0.919900	0.206966
Zn5	Zn	1.001939	0.295723	-0.293043
Zn6	Zn	1.501939	0.795723	0.206957
Zn7	Zn	1.001877	0.419847	-0.416064
Zn8	Zn	1.501877	0.919847	0.083936
O9	O	1.063427	0.357793	-0.354558
O10	O	1.563427	0.857793	0.145442
O11	O	1.227970	0.312188	-0.399774
O12	O	1.727970	0.812188	0.100226
O13	O	1.108565	0.403460	-0.190051
O14	O	1.608565	0.903460	0.309949
O15	O	1.018333	0.191795	-0.309381
O16	O	1.518333	0.691795	0.190619
O17	O	1.227892	0.403437	-0.309365
O18	O	1.727892	0.903437	0.190635
O19	O	1.108746	0.191779	-0.399783
O20	O	1.608746	0.691779	0.100217
O21	O	1.018230	0.312227	-0.190058
O22	O	1.518230	0.812227	0.309942
O23	O	0.898946	0.312176	-0.309355
O24	O	1.398946	0.812176	0.190645
O25	O	1.018228	0.403347	-0.519052
O26	O	1.518228	0.903347	-0.019052
O27	O	0.898901	0.403369	-0.399738
O28	O	1.398901	0.903369	0.100262
O29	O	1.108686	0.312137	-0.519072
O30	O	1.608686	0.812137	-0.019072
O31	O	1.108505	0.523818	-0.309340
O32	O	1.608505	1.023818	0.190660
O33	O	1.018125	0.523779	-0.399729
O34	O	1.518125	1.023779	0.100271
C35	C	0.872221	0.357770	-0.354545
C36	C	1.372221	0.857770	0.145455
C37	C	0.790422	0.357778	-0.354557
C38	C	1.290422	0.857778	0.145443
C39	C	0.602268	0.310362	-0.401708
C40	C	1.102268	0.810362	0.098292
C41	C	0.525409	0.310369	-0.401710
C42	C	1.025409	0.810369	0.098290
C43	C	0.525339	0.405244	-0.307422
C44	C	1.025339	0.905244	0.192578
C45	C	0.602196	0.405233	-0.307416
C46	C	1.102196	0.905233	0.192584
C47	C	0.640659	0.357794	-0.354563
C48	C	1.140659	0.857794	0.145437
C49	C	0.486943	0.357811	-0.354571
C50	C	0.986943	0.857811	0.145429
C51	C	0.403609	0.357818	-0.354574
C52	C	0.903609	0.857818	0.145426
C53	C	0.723998	0.357785	-0.354560
C54	C	1.223998	0.857785	0.145440
C55	C	1.063317	0.550745	-0.354547
C56	C	1.563317	1.050745	0.145453
C57	C	1.063337	0.633291	-0.354566
C58	C	1.563337	1.133291	0.145434
C59	C	1.014215	0.832747	-0.403704
C60	C	1.514215	1.332747	0.096296
C61	C	0.996273	0.882189	-0.336550
C62	C	1.496273	1.382189	0.163450
C63	C	1.063392	0.784421	-0.354576
C64	C	1.563392	1.284421	0.145424
C65	C	1.081354	0.882060	-0.421738
C66	C	1.581354	1.382060	0.078262
C67	C	1.063445	0.930406	-0.354592
C68	C	1.563445	1.430406	0.145408
C69	C	1.045416	0.832776	-0.287388
C70	C	1.545416	1.332776	0.212612
C71	C	1.130528	0.832643	-0.372620
C72	C	1.630528	1.332643	0.127380
C73	C	1.112611	0.882063	-0.305421
C74	C	1.612611	1.382063	0.194579
C75	C	1.063361	0.700323	-0.354568
C76	C	1.563361	1.200323	0.145432
C77	C	1.063477	1.014503	-0.354593
C78	C	1.563477	1.514503	0.145407
C79	C	1.255380	0.357816	-0.354572
C80	C	1.755380	0.857816	0.145428
C81	C	1.337179	0.357826	-0.354577
C82	C	1.837179	0.857826	0.145423
C83	C	1.063462	0.357733	-0.546511
C84	C	1.563462	0.857733	-0.046511
C85	C	1.063477	0.357708	-0.628310
C86	C	1.563477	0.857708	-0.128310
C87	C	1.063530	1.164087	-0.354587
C88	C	1.563530	1.664087	0.145413
C89	C	1.063502	1.081541	-0.354601
C90	C	1.563502	1.581541	0.145399
C91	C	1.016480	0.310171	-0.816509
C92	C	1.516480	0.810171	-0.316509
C93	C	1.016493	0.310156	-0.893367
C94	C	1.516493	0.810156	-0.393367
C95	C	1.110562	0.405156	-0.893350
C96	C	1.610562	0.905156	-0.393350
C97	C	1.110545	0.405174	-0.816492
C98	C	1.610545	0.905174	-0.316492
C99	C	1.063505	0.357678	-0.778074
C100	C	1.563505	0.857678	-0.278074
C101	C	1.063535	0.357645	-0.931790
C102	C	1.563535	0.857645	-0.431790
C103	C	1.063549	0.357629	-1.015124
C104	C	1.563549	0.857629	-0.515124
C105	C	1.063490	0.357694	-0.694735
C106	C	1.563490	0.857694	-0.194735
C107	C	1.063435	0.357798	-0.163352
C108	C	1.563435	0.857798	0.336648
C109	C	1.063563	0.357614	-0.081553
C110	C	1.563563	0.857614	0.418447
H111	H	0.494013	0.443868	-0.269037
H112	H	0.994013	0.943868	0.230963
O113	O	1.198269	0.806747	-0.390761
O114	O	1.698269	1.306747	0.109239
C115	C	1.250227	0.832952	-0.339616
C116	C	1.750227	1.332952	0.160384
H117	H	1.228444	0.885372	-0.312290
H118	H	1.728444	1.385372	0.187710
H119	H	1.303901	0.845918	-0.369121
H120	H	1.803901	1.345918	0.130879
H121	H	1.260350	0.788758	-0.296082
H122	H	1.760350	1.288758	0.203918
H123	H	0.494155	0.271744	-0.440099
H124	H	0.994155	0.771744	0.059901
O125	O	1.099501	0.907763	-0.489522
O126	O	1.599501	1.407763	0.010478
C127	C	1.111503	0.847426	-0.537229
C128	C	1.611503	1.347426	-0.037229
H129	H	1.126109	0.796157	-0.503744
H130	H	1.626109	1.296157	-0.003744
H131	H	1.158565	0.861042	-0.576212
H132	H	1.658565	1.361042	-0.076212
H133	H	1.059542	0.836289	-0.570307
H134	H	1.559542	1.336289	-0.070307
O135	O	0.970914	0.263975	-0.930786
O136	O	1.470914	0.763975	-0.430786
C137	C	1.012849	0.215991	-0.975248
C138	C	1.512849	0.715991	-0.475248
H139	H	1.068607	0.242184	-0.986758
H140	H	1.568607	0.742184	-0.486758
H141	H	0.982889	0.206030	-1.029295
H142	H	1.482889	0.706030	-0.529295
H143	H	1.020962	0.160960	-0.945645
H144	H	1.520962	0.660960	-0.445645
O145	O	0.970886	0.263961	-0.779156
O146	O	1.470886	0.763961	-0.279156
C147	C	1.012800	0.216018	-0.734696
C148	C	1.512800	0.716018	-0.234696
H149	H	1.070771	0.211426	-0.757858
H150	H	1.570771	0.711426	-0.257858
H151	H	0.986216	0.158864	-0.733837
H152	H	1.486216	0.658864	-0.233837
H153	H	1.015307	0.238992	-0.676442
H154	H	1.515307	0.738992	-0.176442
O155	O	1.156235	0.451219	-0.930785
O156	O	1.656235	0.951219	-0.430785
C157	C	1.146155	0.441029	-1.006863
C158	C	1.646155	0.941029	-0.506863
H159	H	1.122093	0.383712	-1.017372
H160	H	1.622093	0.883712	-0.517372
H161	H	1.201283	0.446065	-1.036073
H162	H	1.701283	0.946065	-0.536073
H163	H	1.106941	0.485071	-1.028664
H164	H	1.606941	0.985071	-0.528664
H165	H	0.633455	0.443858	-0.269021
H166	H	1.133455	0.943858	0.230979
H167	H	0.972572	0.811093	-0.445190
H168	H	1.472572	1.311093	0.054810
O169	O	0.928525	0.908121	-0.318465
O170	O	1.428525	1.408121	0.181535
C171	C	0.876811	0.882985	-0.370377
C172	C	1.376811	1.382985	0.129623
H173	H	0.906038	0.869068	-0.423988
H174	H	1.406038	1.369068	0.076012
H175	H	0.834337	0.928211	-0.380661
H176	H	1.334337	1.428211	0.119339
H177	H	0.848239	0.831351	-0.348459
H178	H	1.348239	1.331351	0.151541
H179	H	1.030179	0.811217	-0.230581
H180	H	1.530179	1.311217	0.269419
H181	H	0.633582	0.271731	-0.440096
H182	H	1.133582	0.771731	0.059904
H183	H	1.154222	0.903580	-0.263834
H184	H	1.654222	1.403580	0.236166
O185	O	1.156298	0.451349	-0.779265
O186	O	1.656298	0.951349	-0.279265
C187	C	1.197812	0.493275	-0.829654
C188	C	1.697812	0.993275	-0.329654
H189	H	1.200396	0.462845	-0.884447
H190	H	1.700396	0.962845	-0.384447
H191	H	1.255784	0.501209	-0.807443
H192	H	1.755784	1.001209	-0.307443
H193	H	1.170827	0.549674	-0.837815
H194	H	1.670827	1.049674	-0.337815
