data_functionalizedCrystal
_audit_creation_method	'MofGen! by Chris Wilmer'
_symmetry_space_group_name_H-M	'P1'
_symmetry_Int_Tables_number	1
_symmetry_cell_setting	triclinic
loop_
_symmetry_equiv_pos_as_xyz
  x,y,z
_cell_length_a	14.519731
_cell_length_b	22.610064
_cell_length_c	14.519731
_cell_angle_alpha	89.996905
_cell_angle_beta	96.311147
_cell_angle_gamma	89.990644
loop_
_atom_site_label
_atom_site_type_symbol
_atom_site_fract_x
_atom_site_fract_y
_atom_site_fract_z
O1	O	-1.223871	0.049201	0.120971
O2	O	-0.723871	0.549201	0.620971
O3	O	-0.955398	0.049199	0.135187
O4	O	-0.455398	0.549199	0.635187
O5	O	-1.096742	0.049195	-0.006158
O6	O	-0.596742	0.549195	0.493842
O7	O	-1.082527	0.049205	0.262316
O8	O	-0.582527	0.549205	0.762316
O9	O	-1.096717	-0.049174	-0.006137
O10	O	-0.596717	0.450826	0.493863
O11	O	-0.955373	-0.049170	0.135208
O12	O	-0.455373	0.450830	0.635208
O13	O	-1.223846	-0.049168	0.120992
O14	O	-0.723846	0.450832	0.620992
Zn15	Zn	-1.089605	-0.064787	0.128103
Zn16	Zn	-0.589605	0.435213	0.628103
Zn17	Zn	-1.089638	0.064818	0.128076
Zn18	Zn	-0.589638	0.564818	0.628076
O19	O	-1.082502	-0.049164	0.262336
O20	O	-0.582502	0.450836	0.762336
C21	C	-0.921026	0.000014	0.134531
C22	C	-0.421026	0.500014	0.634531
C23	C	-0.818645	0.000013	0.132535
C24	C	-0.318645	0.500013	0.632535
C25	C	-0.735501	0.000015	0.130913
C26	C	-0.235501	0.500015	0.630913
C27	C	-0.631192	0.000014	0.128887
C28	C	-0.131192	0.500014	0.628887
C29	C	-0.548053	0.000013	0.127278
C30	C	-0.048053	0.500013	0.627278
C31	C	-0.443738	0.000013	0.125252
C32	C	0.056262	0.500013	0.625252
N33	N	-1.089590	-0.153240	0.128121
N34	N	-0.589590	0.346760	0.628121
C35	C	-1.152229	-0.561883	0.065498
C36	C	-0.652229	-0.061883	0.565498
C37	C	-1.152233	-0.623803	0.065491
C38	C	-0.652233	-0.123803	0.565491
O39	O	-1.205452	-0.655823	0.012261
O40	O	-0.705452	-0.155823	0.512261
N41	N	-1.089638	-0.654777	0.128057
N42	N	-0.589638	-0.154777	0.628057
C43	C	-1.027027	-0.623828	0.190626
C44	C	-0.527027	-0.123828	0.690626
O45	O	-0.973784	-0.655859	0.243842
O46	O	-0.473784	-0.155859	0.743842
C47	C	-1.027019	-0.561909	0.190628
C48	C	-0.527019	-0.061909	0.690628
C49	C	-1.089625	-0.530938	0.128065
C50	C	-0.589625	-0.030938	0.628065
C51	C	-1.214829	-0.530912	0.002939
C52	C	-0.714829	-0.030912	0.502939
C53	C	-1.214825	-0.468997	0.002947
C54	C	-0.714825	0.031003	0.502947
C55	C	-1.152221	-0.438052	0.065514
C56	C	-0.652221	0.061948	0.565514
C57	C	-1.089621	-0.469023	0.128073
C58	C	-0.589621	0.030977	0.628073
C59	C	-0.964404	-0.530961	0.253192
C60	C	-0.464404	-0.030961	0.753192
C61	C	-0.964401	-0.469038	0.253188
C62	C	-0.464401	0.030962	0.753188
C63	C	-1.027007	-0.438067	0.190625
C64	C	-0.527007	0.061933	0.690625
C65	C	-1.027013	-0.376162	0.190648
C66	C	-0.527013	0.123838	0.690648
N67	N	-1.089609	-0.345188	0.128082
N68	N	-0.589609	0.154812	0.628082
C69	C	-1.152213	-0.376133	0.065516
C70	C	-0.652213	0.123867	0.565516
C71	C	-1.027048	-0.753861	0.190617
C72	C	-0.527048	-0.253861	0.690617
C73	C	-1.027060	-0.815779	0.190621
C74	C	-0.527060	-0.315779	0.690621
C75	C	-1.152266	-0.815750	0.065485
C76	C	-0.652266	-0.315750	0.565485
C77	C	-1.152257	-0.753831	0.065486
C78	C	-0.652257	-0.253831	0.565486
C79	C	-1.089644	-0.722887	0.128052
C80	C	-0.589644	-0.222887	0.628052
C81	C	-1.152201	-0.246106	0.065538
C82	C	-0.652201	0.253894	0.565538
C83	C	-1.152194	-0.184185	0.065554
C84	C	-0.652194	0.315815	0.565554
C85	C	-1.026985	-0.184219	0.190687
C86	C	-0.526985	0.315781	0.690687
C87	C	-1.026995	-0.246135	0.190674
C88	C	-0.526995	0.253865	0.690674
C89	C	-1.089606	-0.277077	0.128092
C90	C	-0.589606	0.222923	0.628092
O91	O	-0.973819	-0.344102	0.243849
O92	O	-0.473819	0.155898	0.743849
O93	O	-1.205438	-0.344094	0.012301
O94	O	-0.705438	0.155906	0.512301
C95	C	-0.258218	0.000015	0.121648
C96	C	0.241782	0.500015	0.621648
C97	C	-0.360598	0.000012	0.123643
C98	C	0.139402	0.500012	0.623643
C99	C	-1.096064	0.000010	-0.040507
C100	C	-0.596064	0.500010	0.459493
C101	C	-1.094068	0.000010	-0.142887
C102	C	-0.594068	0.500010	0.357113
N103	N	-1.089661	0.153271	0.128050
N104	N	-0.589661	0.653271	0.628050
C105	C	-1.092446	0.000011	-0.226031
C106	C	-0.592446	0.500011	0.273969
C107	C	-1.090419	0.000016	-0.330340
C108	C	-0.590419	0.500016	0.169660
C109	C	-1.088811	0.000019	-0.413479
C110	C	-0.588811	0.500019	0.086521
C111	C	-1.086785	0.000023	-0.517795
C112	C	-0.586785	0.500023	-0.017795
C113	C	-1.083180	0.000022	0.296685
C114	C	-0.583180	0.500022	0.796685
C115	C	-1.085176	0.000027	0.399066
C116	C	-0.585176	0.500027	0.899066
H117	H	-1.203178	-0.158970	0.014608
H118	H	-0.703178	0.341030	0.514608
N119	N	-1.219739	-0.279473	-0.001949
N120	N	-0.719739	0.220527	0.498051
H121	H	-1.184448	-0.305166	-0.042878
H122	H	-0.684448	0.194834	0.457122
H123	H	-1.259377	-0.250413	-0.041507
H124	H	-0.759377	0.249587	0.458493
N125	N	-0.959537	-0.849180	0.258100
N126	N	-0.459537	-0.349180	0.758100
H127	H	-0.994837	-0.874869	0.299019
H128	H	-0.494837	-0.374869	0.799019
H129	H	-0.919896	-0.820137	0.297669
H130	H	-0.419896	-0.320137	0.797669
N131	N	-0.959486	-0.279549	0.258157
N132	N	-0.459486	0.220451	0.758157
H133	H	-0.970218	-0.268780	0.323637
H134	H	-0.470218	0.231220	0.823637
H135	H	-0.894047	-0.268767	0.247309
H136	H	-0.394047	0.231233	0.747309
N137	N	-1.282346	-0.435597	-0.064535
N138	N	-0.782346	0.064403	0.435465
H139	H	-1.321999	-0.464604	-0.104169
H140	H	-0.821999	0.035396	0.395831
H141	H	-1.246972	-0.409911	-0.105389
H142	H	-0.746972	0.090089	0.394611
N143	N	-1.282372	-0.564279	-0.064540
N144	N	-0.782372	-0.064279	0.435460
H145	H	-1.247090	-0.589976	-0.105472
H146	H	-0.747090	-0.089976	0.394528
H147	H	-1.322003	-0.535214	-0.104095
H148	H	-0.822003	-0.035214	0.395905
N149	N	-1.219781	-0.720429	-0.001992
N150	N	-0.719781	-0.220429	0.498008
H151	H	-1.259440	-0.749434	-0.041622
H152	H	-0.759440	-0.249434	0.458378
H153	H	-1.184409	-0.694744	-0.042849
H154	H	-0.684409	-0.194744	0.457151
H155	H	-0.976063	-0.728670	0.241574
H156	H	-0.476063	-0.228670	0.741574
H157	H	-0.913424	-0.556169	0.304136
H158	H	-0.413424	-0.056169	0.804136
N159	N	-0.896862	-0.435663	0.320667
N160	N	-0.396862	0.064337	0.820667
H161	H	-0.857207	-0.464682	0.360295
H162	H	-0.357207	0.035318	0.860295
H163	H	-0.932225	-0.409970	0.361528
H164	H	-0.432225	0.090030	0.861528
N165	N	-1.219798	-0.849132	-0.001996
N166	N	-0.719798	-0.349132	0.498004
H167	H	-1.209077	-0.838357	-0.067478
H168	H	-0.709077	-0.338357	0.432522
H169	H	-1.285230	-0.838331	0.008868
H170	H	-0.785230	-0.338331	0.508868
H171	H	-0.976016	-0.159014	0.241631
H172	H	-0.476016	0.340986	0.741631
