data_functionalizedCrystal
_audit_creation_method	'MofGen! by Chris Wilmer'
_symmetry_space_group_name_H-M	'P1'
_symmetry_Int_Tables_number	1
_symmetry_cell_setting	triclinic
loop_
_symmetry_equiv_pos_as_xyz
  x,y,z
_cell_length_a	12.827893
_cell_length_b	12.827892
_cell_length_c	12.827885
_cell_angle_alpha	89.972731
_cell_angle_beta	89.978811
_cell_angle_gamma	90.015160
loop_
_atom_site_label
_atom_site_type_symbol
_atom_site_fract_x
_atom_site_fract_y
_atom_site_fract_z
Zn1	Zn	-1.597657	0.416036	0.590922
Zn2	Zn	-1.597546	0.590814	0.416190
Zn3	Zn	-1.422898	0.416081	0.416190
Zn4	Zn	-1.422878	0.590729	0.590884
O5	O	-1.510245	0.503415	0.503547
O6	O	-1.743878	0.439237	0.567759
O7	O	-1.574340	0.567689	0.269954
O8	O	-1.446135	0.269839	0.439383
O9	O	-1.743796	0.567645	0.439385
O10	O	-1.574530	0.269806	0.567758
O11	O	-1.446028	0.439314	0.269954
O12	O	-1.276660	0.439232	0.439347
O13	O	-1.446101	0.567502	0.737126
O14	O	-1.276645	0.567546	0.567695
O15	O	-1.574510	0.439155	0.737153
O16	O	-1.574321	0.737038	0.439349
O17	O	-1.445993	0.736977	0.567696
C18	C	-1.238735	0.503386	0.503518
C19	C	-1.122582	0.503398	0.503530
C20	C	-1.070817	0.566989	0.566941
C21	C	-0.950767	0.567004	0.566955
C22	C	-1.510171	0.774925	0.503541
C23	C	-1.510235	0.891078	0.503573
C24	C	-1.510316	0.503314	0.776117
C25	C	-1.510346	0.503271	0.892270
C26	C	-0.782815	0.503437	0.503568
C27	C	-0.898968	0.503424	0.503555
C28	C	-1.573874	1.062903	0.440172
C29	C	-1.573809	0.942853	0.440136
C30	C	-1.510339	1.230845	0.503588
C31	C	-1.510357	1.114692	0.503638
C32	C	-1.510234	0.503440	0.232037
C33	C	-1.510406	0.503189	0.115884
C34	C	-1.573846	0.566769	0.944055
C35	C	-1.573879	0.566726	1.064106
H36	H	-1.078022	0.448962	0.449257
O37	O	-0.952176	0.438614	0.438731
C38	C	-1.075418	0.424494	0.297719
C39	C	-1.015234	0.498006	0.371082
H40	H	-1.126398	0.472483	0.242992
H41	H	-1.126623	0.369966	0.345770
H42	H	-1.017721	0.376602	0.250035
H43	H	-1.072856	0.545965	0.418782
H44	H	-0.964013	0.552464	0.322972
O45	O	-1.638537	0.889683	0.375198
C46	C	-1.652495	0.766372	0.234241
C47	C	-1.579071	0.826542	0.307704
H48	H	-1.604448	0.715292	0.179669
H49	H	-1.700352	0.823985	0.186407
H50	H	-1.707059	0.715237	0.282323
H51	H	-1.524444	0.877678	0.259704
H52	H	-1.531287	0.768873	0.355543
H53	H	-1.455857	0.935608	0.557916
H54	H	-1.456035	0.448826	1.071357
O55	O	-1.638526	0.631777	0.890877
C56	C	-1.652380	0.772752	0.767449
C57	C	-1.579011	0.699211	0.827624
H58	H	-1.604293	0.827276	0.716278
H59	H	-1.700179	0.820635	0.825059
H60	H	-1.707001	0.724730	0.716406
H61	H	-1.524328	0.747153	0.878669
H62	H	-1.531285	0.651324	0.769957
O63	O	-0.897717	0.632104	0.631616
C64	C	-0.864168	0.809890	0.682078
C65	C	-0.924294	0.736283	0.608763
H66	H	-0.885650	0.894132	0.663642
H67	H	-0.776796	0.798422	0.670549
H68	H	-0.885601	0.791595	0.766381
H69	H	-0.902949	0.754532	0.524433
H70	H	-1.011652	0.747765	0.620383
H71	H	-1.115377	0.621417	0.621222
O72	O	-1.445400	0.438525	0.945443
C73	C	-1.304500	0.424522	1.068833
C74	C	-1.377974	0.497966	1.008667
H75	H	-1.249982	0.472549	1.119981
H76	H	-1.256607	0.376740	1.011217
H77	H	-1.352576	0.369889	1.119899
H78	H	-1.329979	0.552662	0.957600
H79	H	-1.425871	0.545674	1.066340
O80	O	-1.638758	1.116188	0.375458
C81	C	-1.697882	1.284424	0.316388
C82	C	-1.624374	1.224212	0.389760
H83	H	-1.686263	1.371771	0.327910
H84	H	-1.782176	1.263036	0.334771
H85	H	-1.679575	1.263027	0.232102
H86	H	-1.642588	1.245576	0.474071
H87	H	-1.540103	1.245605	0.371287
H88	H	-1.455925	1.070154	0.557944
H89	H	-1.628243	0.621090	1.108639
