data_functionalizedCrystal
_audit_creation_method	'MofGen! by Chris Wilmer'
_symmetry_space_group_name_H-M	'P1'
_symmetry_Int_Tables_number	1
_symmetry_cell_setting	triclinic
loop_
_symmetry_equiv_pos_as_xyz
  x,y,z
_cell_length_a	14.044202
_cell_length_b	12.503572
_cell_length_c	16.992695
_cell_angle_alpha	86.236993
_cell_angle_beta	88.069538
_cell_angle_gamma	86.162225
loop_
_atom_site_label
_atom_site_type_symbol
_atom_site_fract_x
_atom_site_fract_y
_atom_site_fract_z
O1	O	-1.277252	0.089268	0.185905
O2	O	-1.000764	0.089282	0.179039
O3	O	-1.137899	0.089266	0.068252
O4	O	-1.140117	0.089283	0.296692
O5	O	-1.127587	-0.089375	0.076599
O6	O	-0.990451	-0.089359	0.187386
O7	O	-1.266940	-0.089373	0.194252
Cu8	Cu	-1.127754	-0.105677	0.191581
Cu9	Cu	-1.139950	0.105586	0.181710
O10	O	-1.129805	-0.089358	0.305039
C11	C	-0.960066	-0.000037	0.180210
C12	C	-0.854162	-0.000032	0.171252
C13	C	-0.607446	-0.000039	0.218397
C14	C	-0.660264	-0.000042	0.154890
C15	C	-0.768159	-0.000036	0.163996
C16	C	-0.499542	-0.000044	0.209292
N17	N	-1.119183	-0.254269	0.198524
C18	C	-1.106576	-0.473383	0.208744
C19	C	-1.161132	-0.526716	0.164544
C20	C	-1.154117	-0.648638	0.170230
C21	C	-1.113590	-0.351449	0.203058
C22	C	-0.307638	-0.000052	0.193080
C23	C	-0.413543	-0.000048	0.202032
C24	C	-1.129891	-0.000054	0.043014
C25	C	-1.121383	-0.000053	-0.044626
N26	N	-1.148527	0.254177	0.174761
C27	C	-1.203479	-0.000058	-0.089122
C28	C	-1.195479	-0.000048	-0.171469
C29	C	-1.105382	-0.000040	-0.209318
C30	C	-1.023279	-0.000031	-0.164816
C31	C	-1.031280	-0.000034	-0.082471
C32	C	-1.072220	-0.000023	-0.455237
C33	C	-1.064225	-0.000024	-0.537588
C34	C	-1.236426	-0.000038	-0.544235
C35	C	-1.244419	-0.000048	-0.461887
C36	C	-1.162317	-0.000033	-0.417393
N37	N	-1.097202	-0.000032	-0.293489
N38	N	-1.170498	-0.000033	-0.333224
C39	C	-1.137813	-0.000035	0.330277
C40	C	-1.146322	-0.000029	0.417917
H41	H	-0.624457	0.000030	0.093677
H42	H	-0.643257	-0.000031	0.279601
H43	H	-1.213107	-0.480809	0.122433
H44	H	-1.262331	-0.000055	-0.207694
N45	N	-1.041380	-0.530978	0.261565
N46	N	-1.035706	-0.631375	0.266166
H47	H	-0.989664	-0.672065	0.303471
H48	H	-1.276846	-0.000072	-0.058311
H49	H	-1.317786	-0.000054	-0.431077
H50	H	-1.303269	-0.000048	-0.580471
H51	H	-0.990852	-0.000034	-0.568401
H52	H	-1.005366	-0.000012	-0.419019
N53	N	-0.931254	-0.000010	-0.203488
N54	N	-0.924120	-0.000007	-0.277010
H55	H	-0.859125	0.000006	-0.304323
H56	H	-0.964428	-0.000030	-0.046243
