data_functionalizedCrystal
_audit_creation_method	'MofGen! by Chris Wilmer'
_symmetry_space_group_name_H-M	'P1'
_symmetry_Int_Tables_number	1
_symmetry_cell_setting	triclinic
loop_
_symmetry_equiv_pos_as_xyz
  x,y,z
_cell_length_a	25.639242
_cell_length_b	13.897449
_cell_length_c	13.897449
_cell_angle_alpha	90.005980
_cell_angle_beta	89.998465
_cell_angle_gamma	89.992535
loop_
_atom_site_label
_atom_site_type_symbol
_atom_site_fract_x
_atom_site_fract_y
_atom_site_fract_z
Zn1	Zn	0.208221	1.474639	0.545439
Zn2	Zn	0.295633	1.474607	0.384165
Zn3	Zn	0.208215	1.313370	0.384158
Zn4	Zn	0.295629	1.313343	0.545418
O5	O	0.251924	1.393990	0.464795
O6	O	0.219820	1.609617	0.524058
O7	O	0.284035	1.453217	0.249183
O8	O	0.135051	1.334788	0.405558
O9	O	0.284041	1.609593	0.405571
O10	O	0.135055	1.453271	0.524051
O11	O	0.219810	1.334756	0.249177
O12	O	0.219807	1.178385	0.405537
O13	O	0.284036	1.334741	0.680402
O14	O	0.284030	1.178365	0.524014
O15	O	0.219817	1.453245	0.680418
O16	O	0.368797	1.453190	0.405550
O17	O	0.368795	1.334710	0.524022
C18	C	0.251918	1.143375	0.464773
C19	C	0.251927	1.036161	0.464787
C20	C	0.115551	1.394036	0.464806
C21	C	0.057437	1.394056	0.464810
C22	C	0.251929	0.839866	0.464812
C23	C	0.251926	0.949099	0.464795
C24	C	-0.302934	1.332347	0.403142
C25	C	-0.357538	1.332346	0.403147
O26	O	-0.385781	1.279862	0.350708
N27	N	-0.384845	1.394037	0.464838
C28	C	-0.357545	1.455726	0.526536
O29	O	-0.385786	1.508199	0.579010
C30	C	-0.302942	1.455722	0.526535
C31	C	-0.275637	1.394034	0.464833
C32	C	-0.275629	1.270663	0.341446
C33	C	-0.221029	1.270666	0.341440
C34	C	-0.193733	1.332352	0.403131
C35	C	-0.221037	1.394036	0.464827
C36	C	-0.275643	1.517406	0.588237
C37	C	-0.221036	1.517395	0.588232
C38	C	-0.193731	1.455707	0.526530
C39	C	-0.139140	1.455725	0.526513
N40	N	-0.111833	1.394034	0.464821
C41	C	-0.139129	1.332348	0.403130
C42	C	-0.472216	1.455730	0.526533
C43	C	-0.526818	1.455740	0.526530
C44	C	-0.526807	1.332358	0.403142
C45	C	-0.472204	1.332353	0.403141
C46	C	-0.444909	1.394039	0.464842
C47	C	-0.024464	1.332358	0.403123
C48	C	0.030141	1.332369	0.403120
C49	C	0.030126	1.455747	0.526511
C50	C	-0.024475	1.455740	0.526511
C51	C	-0.051769	1.394038	0.464813
O52	O	-0.110862	1.508180	0.578928
O53	O	-0.110882	1.279875	0.350674
C54	C	0.387767	1.393970	0.464805
C55	C	0.445881	1.394049	0.464842
C56	C	0.251927	1.393993	0.716388
C57	C	0.251928	1.393995	0.823602
C58	C	0.251932	1.645583	0.464818
C59	C	0.251935	1.752797	0.464827
C60	C	0.251930	1.393971	1.019897
C61	C	0.251930	1.393981	0.910665
C62	C	0.251933	1.393977	1.214181
C63	C	0.251929	1.393969	1.106967
H64	H	0.052370	1.282134	0.352871
H65	H	-0.297849	1.220426	0.291210
O66	O	-0.553396	1.515537	0.586508
C67	C	-0.615012	1.528519	0.716796
C68	C	-0.584957	1.460695	0.648909
H69	H	-0.640528	1.484206	0.767278
H70	H	-0.640616	1.578944	0.672576
H71	H	-0.586107	1.572627	0.760838
H72	H	-0.613824	1.416525	0.604852
H73	H	-0.559346	1.410334	0.693185
H74	H	-0.046707	1.505982	0.576744
O75	O	-0.445784	1.515754	0.586497
C76	C	-0.451569	1.638089	0.708922
C77	C	-0.481564	1.570182	0.641045
H78	H	-0.480484	1.682097	0.753056
H79	H	-0.426022	1.688593	0.664692
H80	H	-0.425990	1.593792	0.759318
H81	H	-0.507171	1.614401	0.590635
H82	H	-0.507078	1.519675	0.685335
H83	H	-0.549042	1.282128	0.352911
O84	O	0.056727	1.515574	0.586405
C85	C	0.140849	1.570271	0.641039
C86	C	0.110786	1.502459	0.573169
H87	H	0.184561	1.559705	0.630346
H88	H	0.130156	1.553325	0.718838
H89	H	0.130081	1.648043	0.624129
H90	H	0.121538	1.424664	0.589992
H91	H	0.121482	1.519488	0.495390
O92	O	-0.445763	1.272334	0.343179
C93	C	-0.451531	1.150000	0.220754
C94	C	-0.481535	1.217912	0.288628
H95	H	-0.480439	1.105997	0.176618
H96	H	-0.425981	1.099491	0.264986
H97	H	-0.425953	1.194293	0.170360
H98	H	-0.507142	1.173697	0.339036
H99	H	-0.507052	1.268423	0.244336
O100	O	-0.050891	1.272392	0.343099
C101	C	-0.045103	1.149979	0.220753
C102	C	-0.015110	1.217852	0.288667
H103	H	-0.016187	1.105852	0.176741
H104	H	-0.070656	1.194212	0.170253
H105	H	-0.070676	1.099577	0.265045
H106	H	0.010491	1.268268	0.244452
H107	H	0.010410	1.173559	0.339169
H108	H	-0.297866	1.567637	0.638481
H109	H	-0.198802	1.220430	0.291198
H110	H	-0.198815	1.567620	0.638485
