data_functionalizedCrystal
_audit_creation_method	'MofGen! by Chris Wilmer'
_symmetry_space_group_name_H-M	'P1'
_symmetry_Int_Tables_number	1
_symmetry_cell_setting	triclinic
loop_
_symmetry_equiv_pos_as_xyz
  x,y,z
_cell_length_a	19.121102
_cell_length_b	14.908520
_cell_length_c	14.908308
_cell_angle_alpha	83.639235
_cell_angle_beta	90.980789
_cell_angle_gamma	88.983788
loop_
_atom_site_label
_atom_site_type_symbol
_atom_site_fract_x
_atom_site_fract_y
_atom_site_fract_z
Zn1	Zn	1.026920	0.449678	-0.592224
Zn2	Zn	1.026841	0.592318	-0.449589
Zn3	Zn	0.917235	0.434592	-0.434510
Zn4	Zn	0.902901	0.593773	-0.593698
O5	O	0.968474	0.517590	-0.517505
O6	O	1.124682	0.474303	-0.578997
O7	O	1.018267	0.564473	-0.321275
O8	O	0.937817	0.310280	-0.448503
O9	O	1.124624	0.579101	-0.474204
O10	O	1.018402	0.321363	-0.564374
O11	O	0.937741	0.448593	-0.310196
O12	O	0.817562	0.450004	-0.449933
O13	O	0.913387	0.581581	-0.719817
O14	O	0.807030	0.566954	-0.566888
O15	O	1.004503	0.475714	-0.718733
O16	O	1.004368	0.718825	-0.475634
O17	O	0.913310	0.719894	-0.581510
C18	C	0.786945	0.507000	-0.506934
C19	C	0.709283	0.502493	-0.502435
C20	C	0.957355	0.530493	-0.752943
C21	C	0.952616	0.535991	-0.853272
C22	C	0.957293	0.752113	-0.530389
C23	C	0.952572	0.852448	-0.535935
C24	C	0.667333	0.561347	-0.561127
C25	C	0.594363	0.557100	-0.556903
C26	C	0.563343	0.494003	-0.493982
C27	C	0.605299	0.435143	-0.435286
C28	C	0.678268	0.439386	-0.439516
C29	C	0.343297	0.478136	-0.478174
C30	C	0.270322	0.473899	-0.473948
C31	C	0.259391	0.595856	-0.595566
C32	C	0.332362	0.600097	-0.599786
C33	C	0.374311	0.541234	-0.541094
C34	C	0.488756	0.489662	-0.489660
C35	C	0.448897	0.545571	-0.545420
C36	C	1.150713	0.528222	-0.528118
C37	C	1.228372	0.532753	-0.532640
C38	C	0.979718	0.282154	-0.504592
C39	C	0.984509	0.181825	-0.499089
C40	C	1.038606	1.039825	-0.436205
C41	C	1.034173	1.134099	-0.441413
C42	C	0.939276	1.135272	-0.551563
C43	C	0.943709	1.040998	-0.546355
C44	C	0.993375	0.993278	-0.488673
C45	C	0.997805	0.899002	-0.483461
C46	C	0.902911	0.900177	-0.593615
C47	C	0.898478	0.994451	-0.598823
C48	C	1.038590	0.436063	-1.040674
C49	C	1.034141	0.441226	-1.134942
C50	C	0.939264	0.551475	-1.136078
C51	C	0.943714	0.546312	-1.041810
C52	C	0.993379	0.488605	-0.994111
C53	C	0.997832	0.483447	-0.899841
C54	C	0.902953	0.593691	-0.900979
C55	C	0.898503	0.598854	-0.995247
C56	C	0.979594	0.504675	-0.282983
C57	C	0.984480	0.498931	-0.182648
H58	H	0.692583	0.612730	-0.612362
Br59	Br	1.095498	0.369912	-1.198132
Br60	Br	1.105996	0.975055	-0.357908
Br61	Br	0.490996	0.631198	-0.630813
H62	H	0.463492	0.438290	-0.438428
H63	H	0.866140	0.636477	-0.863058
H64	H	1.079033	0.389080	-1.001837
Br65	Br	0.871860	0.629775	-1.200827
H66	H	1.038273	0.436460	-0.861006
Br67	Br	1.065204	0.834238	-0.405174
H68	H	0.377443	0.430212	-0.430377
Br69	Br	0.563202	0.349501	-0.349900
Br70	Br	0.374455	0.685737	-0.685178
H71	H	1.071006	1.171994	-0.398690
Br72	Br	0.871888	1.200052	-0.629854
H73	H	0.858043	1.033318	-0.645788
Br74	Br	0.841511	0.837000	-0.664809
H75	H	0.858065	0.645835	-1.034096
Br76	Br	0.202457	0.675740	-0.675212
H77	H	0.560210	0.605026	-0.604696
H78	H	0.712423	0.391456	-0.391726
Br79	Br	0.228225	0.388271	-0.388539
