data_functionalizedCrystal
_audit_creation_method	'MofGen! by Chris Wilmer'
_symmetry_space_group_name_H-M	'P1'
_symmetry_Int_Tables_number	1
_symmetry_cell_setting	triclinic
loop_
_symmetry_equiv_pos_as_xyz
  x,y,z
_cell_length_a	10.654559
_cell_length_b	12.837943
_cell_length_c	11.295483
_cell_angle_alpha	85.461227
_cell_angle_beta	85.865338
_cell_angle_gamma	90.341257
loop_
_atom_site_label
_atom_site_type_symbol
_atom_site_fract_x
_atom_site_fract_y
_atom_site_fract_z
O1	O	-0.319124	1.384738	-0.099006
O2	O	-0.302982	1.082816	-0.099013
O3	O	-0.129072	1.240713	-0.099000
O4	O	-0.493034	1.226840	-0.099018
O5	O	-0.144321	1.226845	0.099049
O6	O	-0.318231	1.068947	0.099037
O7	O	-0.334373	1.370869	0.099044
Cu8	Cu	-0.327694	1.218642	0.117124
Cu9	Cu	-0.309661	1.235043	-0.117093
O10	O	-0.508283	1.212972	0.099031
C11	C	-0.305154	1.037222	0.000011
C12	C	-0.288891	0.922028	0.000009
C13	C	-0.484396	0.682479	0.000016
C14	C	-0.469122	0.574243	0.000015
C15	C	-0.243070	0.597317	0.000013
C16	C	-0.258345	0.705553	0.000015
C17	C	-0.379011	0.748130	0.000014
C18	C	-0.394284	0.856369	0.000007
C19	C	-0.168234	0.879440	0.000014
C20	C	-0.152960	0.771204	0.000013
C21	C	-0.547567	1.220927	0.000004
C22	C	-0.687343	1.223981	-0.000003
C23	C	-0.744711	1.232967	-0.107954
C24	C	-0.876047	1.235833	-0.107942
C25	C	-0.892634	1.220721	0.107983
C26	C	-0.761301	1.217863	0.107969
C27	C	-0.670753	1.239086	-0.215926
C28	C	-0.728121	1.248072	-0.323886
C29	C	-0.859456	1.250937	-0.323874
C30	C	-0.933424	1.244817	-0.215901
C31	C	-0.089787	1.232758	0.000024
C32	C	0.049989	1.229705	0.000024
C33	C	-0.332201	1.416463	0.000017
C34	C	-0.348463	1.531658	0.000012
N35	N	-0.340378	1.207114	0.281859
N36	N	-0.296968	1.246579	-0.281828
C37	C	-0.205592	1.329565	0.531158
C38	C	-0.215187	1.320861	0.655821
C39	C	-0.369156	1.180996	0.655850
C40	C	-0.359561	1.189700	0.531187
C41	C	-0.277778	1.263989	0.468846
C42	C	-0.268190	1.272698	0.344181
C43	C	-0.422152	1.132828	0.344212
C44	C	-0.431747	1.124123	0.468875
H45	H	-0.054717	0.736521	0.000027
C46	C	-0.457949	1.100230	0.723333
C47	C	-0.519089	1.044636	0.642084
C48	C	-0.600875	0.970211	0.704205
H49	H	-0.518609	1.134398	0.771972
H50	H	-0.411282	1.053271	0.771937
H51	H	-0.565754	1.091587	0.593500
H52	H	-0.458461	1.010445	0.593442
H53	H	-0.554208	0.923253	0.752809
H54	H	-0.661527	1.004388	0.752842
H55	H	-0.642360	0.932475	0.649087
C56	C	-0.500683	1.061563	0.276772
C57	C	-0.574378	0.994664	0.358056
C58	C	-0.646751	0.929015	0.295975
H59	H	-0.446669	1.021347	0.228144
H60	H	-0.553822	1.102633	0.228161
H61	H	-0.521245	0.953597	0.406647
H62	H	-0.628416	1.034851	0.406687
H63	H	-0.699889	0.970085	0.247363
H64	H	-0.592727	0.888807	0.247349
H65	H	-0.696770	0.883623	0.351116
C66	C	-0.698933	1.208326	0.225139
C67	C	-0.620596	1.295365	0.231443
C68	C	-0.563137	1.286631	0.339372
H69	H	-0.650286	1.146565	0.229745
H70	H	-0.761753	1.205140	0.289477
H71	H	-0.557785	1.298540	0.167123
H72	H	-0.669213	1.357138	0.226858
H73	H	-0.625957	1.283444	0.403709
H74	H	-0.514496	1.224866	0.343968
H75	H	-0.509988	1.345688	0.343668
H76	H	-0.952869	1.215737	0.195889
H77	H	-0.492537	0.891033	0.000009
C78	C	-0.921643	1.260463	-0.441139
C79	C	-0.888133	1.175192	-0.506217
C80	C	-0.945388	1.183910	-0.614253
H81	H	-0.894398	1.323426	-0.485653
H82	H	-1.010468	1.261236	-0.425762
H83	H	-0.799327	1.174429	-0.521598
H84	H	-0.915379	1.112217	-0.461739
H85	H	-1.034213	1.184683	-0.598876
H86	H	-0.918139	1.246876	-0.658757
H87	H	-0.922669	1.126052	-0.658417
C88	C	-0.615506	0.728510	0.000067
C89	C	-0.704534	0.647846	0.000090
C90	C	-0.825327	0.690207	0.000151
H91	H	-0.621021	0.775074	-0.068978
H92	H	-0.631548	0.765387	0.069159
H93	H	-0.688497	0.610987	-0.068996
H94	H	-0.699060	0.601276	0.069130
H95	H	-0.841370	0.727084	0.069243
H96	H	-0.830829	0.736771	-0.068896
H97	H	-0.885748	0.635483	0.000177
C98	C	-0.053711	0.950586	0.000198
C99	C	0.010375	0.924073	0.102074
C100	C	0.115884	0.989582	0.102270
H101	H	-0.079919	1.021175	0.000257
H102	H	0.000611	0.942402	-0.068831
H103	H	-0.043937	0.932266	0.171085
H104	H	0.036613	0.853495	0.102037
H105	H	0.170206	0.981398	0.033240
H106	H	0.089665	1.060168	0.102325
H107	H	0.159386	0.971596	0.171385
H108	H	-0.201601	1.333189	0.293423
H109	H	-0.554938	0.520793	0.000020
H110	H	-0.498330	1.063636	0.519648
H111	H	-0.156405	1.374259	0.706553
H112	H	-0.144837	0.562624	0.000112
C113	C	-0.116747	1.410080	0.463296
C114	C	-0.027662	1.359285	0.391699
C115	C	0.054177	1.433430	0.329150
H116	H	-0.075003	1.447947	0.518112
H117	H	-0.163412	1.456960	0.414596
H118	H	0.018997	1.312424	0.440395
H119	H	-0.069371	1.321424	0.336861
H120	H	0.007513	1.480310	0.280450
H121	H	0.095913	1.471292	0.383975
H122	H	0.114624	1.398977	0.280556
H123	H	-0.563812	1.236749	-0.215949
H124	H	-0.667888	1.253062	-0.411793
H125	H	-1.040365	1.247161	-0.215900
