data_functionalizedCrystal
_audit_creation_method	'MofGen! by Chris Wilmer'
_symmetry_space_group_name_H-M	'P1'
_symmetry_Int_Tables_number	1
_symmetry_cell_setting	triclinic
loop_
_symmetry_equiv_pos_as_xyz
  x,y,z
_cell_length_a	21.606444
_cell_length_b	20.016444
_cell_length_c	20.016444
_cell_angle_alpha	90.003392
_cell_angle_beta	59.998822
_cell_angle_gamma	60.004280
loop_
_atom_site_label
_atom_site_type_symbol
_atom_site_fract_x
_atom_site_fract_y
_atom_site_fract_z
Zr1	Zr	0.677423	-0.087615	0.643599
O2	O	0.806540	-0.194288	0.536920
O3	O	0.548305	-0.054918	0.676303
O4	O	0.677417	-0.194286	0.676301
O5	O	0.677433	0.055020	0.536923
O6	O	0.677413	-0.194281	0.786245
O7	O	0.677428	-0.054920	0.536922
O8	O	0.446455	0.055024	0.786249
O9	O	0.908391	-0.194285	0.536919
O10	O	0.601410	-0.040964	0.772299
O11	O	0.601417	0.041078	0.690249
O12	O	0.753430	-0.123010	0.690247
O13	O	0.753436	-0.040967	0.608197
Zr14	Zr	0.677425	0.087735	0.818948
Zr15	Zr	0.677417	-0.087607	0.818948
Zr16	Zr	0.677430	0.087726	0.643600
Zr17	Zr	0.839863	-0.087610	0.643597
Zr18	Zr	0.514985	0.087729	0.818950
O19	O	0.806543	0.055037	0.786244
O20	O	0.806532	-0.194276	0.786244
O21	O	0.806551	0.055025	0.536921
O22	O	0.548308	0.194408	0.925627
O23	O	0.548297	-0.054905	0.925626
O24	O	0.548316	0.194395	0.676304
O25	O	0.677415	-0.054901	0.925624
O26	O	0.677431	0.194405	0.786246
O27	O	0.677434	0.194400	0.676302
O28	O	0.677420	0.055039	0.925625
O29	O	0.908386	-0.194278	0.676298
O30	O	0.446461	0.194397	0.786249
O31	O	0.446457	0.194404	0.925628
O32	O	0.446451	0.055031	0.925627
O33	O	0.908397	-0.054912	0.536920
O34	O	0.908392	-0.054905	0.676298
O35	O	0.601418	0.123129	0.772300
O36	O	0.601411	0.041086	0.854350
O37	O	0.753431	-0.040959	0.772298
O38	O	0.753437	0.041084	0.690248
C39	C	0.474236	0.000053	0.731276
C40	C	0.405276	0.000050	0.731277
C41	C	0.677431	0.000049	0.511939
C42	C	0.677433	0.000045	0.437499
C43	C	0.677433	0.219385	0.731274
C44	C	0.677437	0.293822	0.731275
C45	C	0.372875	-0.042777	0.774104
C46	C	0.308075	-0.042771	0.774107
C47	C	0.275681	0.000057	0.731277
C48	C	0.308085	0.042889	0.688448
C49	C	0.372879	0.042888	0.688451
C50	C	0.046775	0.042896	0.688439
C51	C	-0.018022	0.042892	0.688438
C52	C	-0.018029	-0.042763	0.774095
C53	C	0.046765	-0.042764	0.774097
C54	C	0.079160	0.000071	0.731272
C55	C	0.149422	0.000066	0.731271
C56	C	0.205424	0.000058	0.731273
C57	C	0.880612	0.000067	0.731271
C58	C	0.949572	0.000069	0.731270
C59	C	0.677414	-0.219266	0.731273
C60	C	0.677411	-0.293703	0.731272
C61	C	0.756779	0.422262	0.688441
C62	C	0.756775	0.492207	0.688439
C63	C	0.598062	0.577855	0.774107
C64	C	0.598067	0.507911	0.774105
C65	C	0.677428	0.430115	0.731273
C66	C	0.677420	0.570004	0.731274
C67	C	0.677415	0.645842	0.731271
C68	C	0.677433	0.354272	0.731274
C69	C	0.677420	-0.060510	0.266243
C70	C	0.677415	-0.060504	0.196303
C71	C	0.677424	0.060635	0.196310
C72	C	0.677424	0.060632	0.266253
C73	C	0.677426	0.000055	0.301215
C74	C	0.677421	0.000064	0.161332
C75	C	0.677415	0.000070	0.085500
C76	C	0.677431	0.000050	0.377053
C77	C	0.677417	0.000070	0.950608
C78	C	0.677414	0.000074	1.025048
C79	C	0.474229	0.000063	0.950610
C80	C	0.405266	0.000065	1.025051
C81	C	0.474245	0.219378	0.731277
C82	C	0.405289	0.293812	0.731278
C83	C	0.474238	0.219389	0.950611
C84	C	0.405279	0.293827	1.025052
C85	C	0.880609	-0.219269	0.511936
C86	C	0.949568	-0.293708	0.437495
C87	C	0.880619	0.000056	0.511937
C88	C	0.949581	0.000055	0.437496
C89	C	0.880602	-0.219259	0.731270
C90	C	0.949559	-0.293693	0.731269
C91	C	0.372880	-0.042772	1.017180
C92	C	0.308091	-0.042787	1.087118
C93	C	0.275685	0.000039	1.164927
C94	C	0.308078	0.042877	1.172797
C95	C	0.372870	0.042887	1.102859
C96	C	0.372906	0.371605	0.774108
C97	C	0.308123	0.441551	0.774106
C98	C	0.275719	0.433703	0.731278
C99	C	0.308108	0.355902	0.688442
C100	C	0.372894	0.285958	0.688440
C101	C	0.372892	0.285958	1.102847
C102	C	0.308106	0.355894	1.172799
C103	C	0.275705	0.433698	1.164955
C104	C	0.308098	0.441565	1.087152
C105	C	0.372887	0.371630	1.017201
C106	C	0.981964	-0.285839	0.359700
C107	C	1.046769	-0.355775	0.289748
C108	C	1.079174	-0.433579	0.297592
C109	C	1.046776	-0.441446	0.375396
C110	C	0.981976	-0.371511	0.445346
C111	C	0.981974	0.042884	0.445367
C112	C	1.046781	0.042880	0.375429
C113	C	1.079189	0.000051	0.297620
C114	C	1.046794	-0.042784	0.289750
C115	C	0.981993	-0.042784	0.359688
C116	C	0.981942	-0.285819	0.774106
C117	C	1.046726	-0.355751	0.774121
C118	C	1.079130	-0.433557	0.731294
C119	C	1.046740	-0.441430	0.688457
C120	C	0.981953	-0.371499	0.688447
H121	H	0.399249	-0.077656	0.808977
H122	H	0.399264	-0.077656	0.953830
O123	O	0.081726	0.089078	0.642234
H124	H	0.069289	0.136423	0.685469
H125	H	1.073146	0.077764	0.381853
H126	H	0.533446	0.514311	0.808983
O127	O	0.273132	0.347459	0.642268
H128	H	0.327502	0.313508	0.576432
H129	H	1.131938	-0.490518	0.240628
H130	H	0.399249	0.378048	0.953860
O131	O	1.081688	-0.347270	0.205842
H132	H	1.153160	-0.377059	0.171920
O133	O	0.677427	0.125960	0.303982
H134	H	0.677437	0.168077	0.267916
H135	H	0.955583	-0.222494	0.353297
O136	O	0.407780	0.089109	1.111360
H137	H	0.479254	0.045890	1.081554
H138	H	0.399283	0.378011	0.808984
H139	H	0.955620	-0.077658	0.353267
O140	O	1.081724	-0.525364	0.383853
H141	H	1.132217	-0.572665	0.322137
O142	O	0.273123	0.089066	1.256722
H143	H	0.243602	0.154892	1.263842
H144	H	1.131884	-0.490494	0.731308
H145	H	0.281760	0.504892	0.808990
O146	O	0.842364	0.483734	0.642241
H147	H	0.846162	0.513539	0.594897
O148	O	0.946990	-0.201903	0.820310
H149	H	0.980391	-0.208190	0.850106
H150	H	0.222949	0.490637	1.221919
O151	O	1.081664	-0.525346	0.642283
H152	H	1.111184	-0.532478	0.576452
H153	H	0.399261	0.077759	0.653574
H154	H	0.222927	0.000025	1.221868
O155	O	1.081657	-0.347252	0.820323
H156	H	1.048247	-0.281398	0.850086
H157	H	0.399264	0.222613	1.109250
H158	H	0.399251	0.222618	0.653566
O159	O	0.205827	0.509145	0.731298
H160	H	0.188748	0.564555	0.768289
O161	O	0.273135	-0.088972	0.820289
H162	H	0.306556	-0.118765	0.850060
O163	O	1.081749	-0.088971	0.205824
H164	H	1.111277	-0.154799	0.198695
H165	H	0.955601	-0.377927	0.508688
H166	H	0.955593	0.077766	0.508717
O167	O	0.677412	-0.125836	0.303961
H168	H	0.677399	-0.167944	0.267895
H169	H	0.821400	0.358920	0.653563
H170	H	0.281738	0.349474	1.236144
O171	O	0.512467	0.661762	0.820364
H172	H	0.525793	0.709081	0.813198
O173	O	0.273154	-0.088985	1.078622
H174	H	0.306564	-0.118747	1.012765
H175	H	0.281708	0.504922	1.080776
O176	O	1.149072	0.000076	0.222199
H177	H	1.208127	-0.063692	0.185258
O178	O	0.947037	-0.379996	0.642231
H179	H	0.980466	-0.445850	0.612448
H180	H	0.073141	-0.077642	0.808970
H181	H	-0.044395	0.077770	0.653559
O182	O	-0.052970	-0.088964	0.820291
H183	H	-0.103474	-0.081765	0.813102
H184	H	0.281701	0.077765	0.653580
H185	H	0.677409	-0.109820	0.167831
H186	H	0.677424	0.109954	0.167836
