data_functionalizedCrystal
_audit_creation_method	'MofGen! by Chris Wilmer'
_symmetry_space_group_name_H-M	'P1'
_symmetry_Int_Tables_number	1
_symmetry_cell_setting	triclinic
loop_
_symmetry_equiv_pos_as_xyz
  x,y,z
_cell_length_a	9.065218
_cell_length_b	10.654550
_cell_length_c	9.730223
_cell_angle_alpha	90.004253
_cell_angle_beta	90.005456
_cell_angle_gamma	84.750441
loop_
_atom_site_label
_atom_site_type_symbol
_atom_site_fract_x
_atom_site_fract_y
_atom_site_fract_z
O1	O	-1.959392	-0.184160	-0.114360
O2	O	-1.530025	-0.199265	-0.114347
O3	O	-1.754580	-0.009012	-0.114345
O4	O	-1.734837	-0.374413	-0.114362
O5	O	-1.754566	-0.009007	0.114235
O6	O	-1.530010	-0.199260	0.114233
O7	O	-1.959378	-0.184155	0.114220
Zn8	Zn	-1.744692	-0.191706	0.150518
Zn9	Zn	-1.744711	-0.191713	-0.150646
O10	O	-1.734822	-0.374407	0.114218
C11	C	-1.475039	-0.197811	-0.000056
C12	C	-1.311220	-0.193470	-0.000051
C13	C	-1.753123	0.037794	-0.000056
C14	C	-1.748786	0.177254	-0.000058
C15	C	-1.014364	-0.185609	-0.000066
C16	C	-1.178183	-0.189949	-0.000055
C17	C	-1.736279	-0.421214	-0.000074
C18	C	-1.740616	-0.560674	-0.000081
N19	N	-1.744689	-0.191701	0.356055
C20	C	-1.881001	0.256216	-0.000062
C21	C	-1.876917	0.387253	-0.000079
C22	C	-1.608391	0.360354	-0.000081
C23	C	-1.612477	0.229319	-0.000074
N24	N	-1.744725	-0.191709	-0.356182
C25	C	-1.844157	-0.107493	0.427981
C26	C	-1.844171	-0.107494	0.571864
C27	C	-1.645247	-0.275921	0.571881
C28	C	-1.645226	-0.275913	0.428001
H29	H	-1.991992	0.213830	-0.000052
H30	H	-1.984580	0.451540	-0.000086
C31	C	-1.535806	-0.368549	0.348868
C32	C	-1.426463	-0.461235	0.427997
C33	C	-1.317045	-0.553861	0.348863
C34	C	-1.316970	-0.553800	0.190601
C35	C	-1.426317	-0.461111	0.111463
C36	C	-1.535735	-0.368485	0.190597
H37	H	-1.426515	-0.461283	0.545161
H38	H	-1.236099	-0.622476	0.407447
H39	H	-1.235972	-0.622368	0.132021
H40	H	-1.426265	-0.461063	-0.005700
H41	H	-1.616681	-0.299870	0.132013
H42	H	-1.925165	-0.038923	0.630423
C43	C	-1.467030	0.142451	-0.000066
C44	C	-1.355713	0.149358	-0.118760
C45	C	-1.210274	0.062491	-0.118757
C46	C	-1.176151	-0.031283	-0.000060
C47	C	-1.287471	-0.038194	0.118643
C48	C	-1.432910	0.048673	0.118640
H49	H	-1.380970	0.218779	-0.206635
H50	H	-1.127868	0.067607	-0.206630
H51	H	-1.068488	-0.095588	-0.000058
H52	H	-1.262214	-0.107615	0.206518
H53	H	-1.515317	0.043557	0.206513
C54	C	-1.953552	-0.014853	0.348840
C55	C	-2.062957	0.077779	0.427966
C56	C	-2.172352	0.170426	0.348830
C57	C	-2.172343	0.170441	0.190567
C58	C	-2.062933	0.077806	0.111432
C59	C	-1.953538	-0.014841	0.190568
H60	H	-2.062968	0.077771	0.545130
H61	H	-2.253344	0.239001	0.407412
H62	H	-2.253323	0.239024	0.131986
H63	H	-2.062922	0.077814	-0.005731
H64	H	-1.872546	-0.083416	0.131986
H65	H	-1.497413	0.402761	-0.000092
H66	H	-1.564268	-0.344486	0.630474
