data_functionalizedCrystal
_audit_creation_method	'MofGen! by Chris Wilmer'
_symmetry_space_group_name_H-M	'P1'
_symmetry_Int_Tables_number	1
_symmetry_cell_setting	triclinic
loop_
_symmetry_equiv_pos_as_xyz
  x,y,z
_cell_length_a	17.038272
_cell_length_b	10.654550
_cell_length_c	9.730223
_cell_angle_alpha	90.000193
_cell_angle_beta	90.005285
_cell_angle_gamma	92.201770
loop_
_atom_site_label
_atom_site_type_symbol
_atom_site_fract_x
_atom_site_fract_y
_atom_site_fract_z
O1	O	1.038886	-0.272859	-0.114112
O2	O	0.811231	-0.268526	-0.114153
O3	O	0.930293	-0.088439	-0.114126
O4	O	0.919825	-0.452946	-0.114139
O5	O	0.930292	-0.088444	0.114453
O6	O	0.811230	-0.268531	0.114427
O7	O	1.038885	-0.272864	0.114468
Zn8	Zn	0.925057	-0.270698	0.150739
Zn9	Zn	0.925059	-0.270692	-0.150424
O10	O	0.919823	-0.452950	0.114441
C11	C	0.782081	-0.264588	0.000132
C12	C	0.695222	-0.252831	0.000117
N13	N	0.925062	-0.270702	0.356276
C14	C	0.929524	-0.041572	0.000162
C15	C	0.927224	0.098084	0.000156
C16	C	0.645711	-0.360775	0.000114
C17	C	0.564098	-0.349720	0.000133
C18	C	0.531999	-0.230720	0.000145
C19	C	0.581517	-0.122768	0.000152
C20	C	0.663127	-0.133824	0.000143
C21	C	0.286023	-0.191663	0.000183
C22	C	0.204406	-0.180615	0.000189
C23	C	0.186993	-0.407568	0.000173
C24	C	0.268606	-0.418614	0.000155
C25	C	0.318117	-0.310661	0.000169
C26	C	0.448578	-0.219418	0.000161
C27	C	0.401536	-0.321965	0.000163
C28	C	1.068036	-0.276802	0.000180
C29	C	1.154895	-0.288559	0.000186
C30	C	0.920593	-0.499817	0.000150
C31	C	0.922892	-0.639474	0.000146
C32	C	0.997326	0.171061	0.000173
C33	C	0.995160	0.302283	0.000163
C34	C	0.852785	0.287540	0.000126
C35	C	0.854952	0.156320	0.000126
C36	C	1.069598	0.112825	0.000204
C37	C	1.139706	0.185802	0.000222
C38	C	1.137540	0.317024	0.000212
C39	C	1.065267	0.375269	0.000184
N40	N	0.925061	-0.270678	-0.355961
C41	C	0.977796	-0.190990	0.428213
C42	C	0.977794	-0.190974	0.572096
C43	C	0.872321	-0.350394	0.572091
C44	C	0.872320	-0.350402	0.428211
C45	C	1.030538	-0.111290	0.356278
C46	C	1.083277	-0.031572	0.428216
C47	C	1.083275	-0.031556	0.572099
C48	C	1.030534	-0.111259	0.644044
H49	H	0.523789	-0.437620	0.000130
H50	H	1.126213	0.033327	0.369631
N51	N	0.815443	-0.436382	0.350619
H52	H	0.845634	-0.495242	0.290927
H53	H	0.780563	-0.384539	0.290997
H54	H	0.178274	-0.083706	0.000197
N55	N	1.217653	0.122990	0.000260
H56	H	1.248403	0.149039	-0.084468
H57	H	1.208323	0.028805	0.000321
N58	N	0.303214	-0.546972	0.000126
H59	H	0.285212	-0.594668	0.084856
H60	H	0.362422	-0.537504	0.000060
N61	N	1.140158	0.054416	0.649688
H62	H	1.132156	0.042333	0.751752
H63	H	1.130647	0.144531	0.624528
N64	N	0.339417	-0.075234	0.000207
H65	H	0.306696	0.001826	0.000214
H66	H	0.373655	-0.074864	-0.084528
N67	N	0.774838	0.350354	0.000099
H68	H	0.784104	0.444555	0.000105
H69	H	0.744130	0.324198	0.084830
H70	H	1.194625	0.376439	0.000213
H71	H	0.146673	-0.495456	0.000164
N72	N	1.030521	-0.111247	0.799232
H73	H	1.018680	-0.024643	0.833880
H74	H	1.083777	-0.135309	0.833799
H75	H	0.829382	-0.415286	0.630678
H76	H	0.671839	-0.457677	0.000103
H77	H	0.555375	-0.025876	0.000181
N78	N	0.716533	-0.017400	0.000156
H79	H	0.683816	0.059665	0.000164
H80	H	0.750769	-0.017036	-0.084582
H81	H	0.427675	-0.418854	0.000161
H82	H	1.071370	0.005979	0.000216
N83	N	1.062921	0.516800	0.000165
H84	H	1.090348	0.551300	-0.084566
H85	H	1.090331	0.551209	0.084959
H86	H	0.422434	-0.122528	0.000209
H87	H	0.797869	0.096901	0.000114
H88	H	1.030546	-0.111297	0.239122
