data_functionalizedCrystal
_audit_creation_method	'MofGen! by Chris Wilmer'
_symmetry_space_group_name_H-M	'P1'
_symmetry_Int_Tables_number	1
_symmetry_cell_setting	triclinic
loop_
_symmetry_equiv_pos_as_xyz
  x,y,z
_cell_length_a	10.654541
_cell_length_b	17.699083
_cell_length_c	16.176319
_cell_angle_alpha	89.998611
_cell_angle_beta	89.993456
_cell_angle_gamma	83.883472
loop_
_atom_site_label
_atom_site_type_symbol
_atom_site_fract_x
_atom_site_fract_y
_atom_site_fract_z
O1	O	0.158809	1.005088	-0.068630
O2	O	0.179471	0.784840	-0.068657
O3	O	-0.013688	0.900029	-0.068638
O4	O	0.351968	0.889899	-0.068649
O5	O	-0.013701	0.900013	0.068855
O6	O	0.179458	0.784824	0.068836
O7	O	0.158797	1.005072	0.068863
Cu8	Cu	0.169126	0.894946	0.081404
Cu9	Cu	0.169141	0.894965	-0.081198
O10	O	0.351956	0.889883	0.068844
C11	C	0.178724	0.756631	0.000086
C12	C	0.176503	0.672599	0.000076
C13	C	0.289883	0.624698	0.000072
C14	C	0.287789	0.545741	0.000083
C15	C	0.172313	0.514687	0.000091
C16	C	0.058924	0.562594	0.000097
C17	C	0.061020	0.641549	0.000092
C18	C	0.050470	0.244177	0.000118
C19	C	0.048383	0.165216	0.000120
C20	C	0.277239	0.148369	0.000109
C21	C	0.279335	0.227324	0.000104
C22	C	0.165946	0.275224	0.000114
C23	C	0.168219	0.360838	0.000104
C24	C	0.170039	0.429075	0.000096
C25	C	-0.060480	0.899277	0.000108
C26	C	-0.199884	0.897053	0.000106
C27	C	-0.230266	1.034792	0.000134
C28	C	-0.310947	1.102614	0.000149
C29	C	-0.441929	1.100519	0.000146
C30	C	-0.492230	1.030596	0.000126
C31	C	-0.411549	0.962775	0.000110
C32	C	-0.280566	0.964876	0.000116
C33	C	-0.381167	0.825037	0.000077
C34	C	-0.250185	0.827130	0.000086
C35	C	-0.431468	0.755114	0.000056
C36	C	-0.350786	0.687291	0.000047
C37	C	-0.219798	0.689388	0.000051
C38	C	-0.169504	0.759308	0.000071
C39	C	0.398747	0.890634	0.000096
C40	C	0.538151	0.892859	0.000092
C41	C	0.159543	1.033281	0.000118
C42	C	0.161764	1.117313	0.000123
N43	N	0.169115	0.894939	0.195769
N44	N	0.169142	0.894979	-0.195563
C45	C	0.083620	0.945960	0.239042
C46	C	0.083618	0.945964	0.325589
C47	C	0.169120	0.894949	0.368862
C48	C	0.254620	0.843923	0.325583
C49	C	0.254614	0.843916	0.239037
C50	C	0.254643	0.843949	0.674611
C51	C	0.254645	0.843961	0.761163
C52	C	0.083647	0.945997	0.761162
C53	C	0.083642	0.945990	0.674617
C54	C	0.169137	0.894961	0.631346
C55	C	0.169136	0.894956	0.537502
C56	C	0.169128	0.894957	0.462704
H57	H	-0.041858	0.283168	0.000127
H58	H	-0.123616	1.036505	0.000147
Cl59	Cl	0.419787	0.088147	0.000100
Cl60	Cl	-0.086247	0.523554	0.000112
H61	H	0.014023	0.987533	0.639387
H62	H	-0.031306	0.680549	0.000094
Cl63	Cl	-0.023869	1.010100	0.184651
Cl64	Cl	-0.023839	1.010146	0.815565
H65	H	-0.391753	0.630364	0.000025
H66	H	-0.269977	1.159544	0.000173
Cl67	Cl	-0.004843	0.761951	0.000081
H68	H	-0.045657	0.139935	0.000128
Cl69	Cl	-0.543361	1.185781	0.000158
Cl70	Cl	-0.656894	1.027965	0.000066
H71	H	-0.538121	0.753413	0.000049
H72	H	-0.154113	0.634159	0.000035
H73	H	0.324258	0.802401	0.639386
H74	H	0.324273	0.802416	0.796394
H75	H	0.324233	0.802382	0.360820
H76	H	0.014000	0.987508	0.360821
H77	H	0.324232	0.802368	0.203805
Cl78	Cl	0.430331	0.485526	0.000074
Cl79	Cl	0.424510	0.266359	0.000089
Cl80	Cl	0.435062	0.663729	0.000057
