data_functionalizedCrystal
_audit_creation_method	'MofGen! by Chris Wilmer'
_symmetry_space_group_name_H-M	'P1'
_symmetry_Int_Tables_number	1
_symmetry_cell_setting	triclinic
loop_
_symmetry_equiv_pos_as_xyz
  x,y,z
_cell_length_a	19.121112
_cell_length_b	29.839131
_cell_length_c	19.120904
_cell_angle_alpha	92.409150
_cell_angle_beta	90.088845
_cell_angle_gamma	87.595571
loop_
_atom_site_label
_atom_site_type_symbol
_atom_site_fract_x
_atom_site_fract_y
_atom_site_fract_z
Zn1	Zn	1.054748	-0.219753	-0.442024
Zn2	Zn	1.554748	0.280247	0.057976
Zn3	Zn	1.059636	-0.291815	-0.324779
Zn4	Zn	1.559636	0.208185	0.175221
Zn5	Zn	0.942520	-0.213363	-0.319810
Zn6	Zn	1.442520	0.286637	0.180190
Zn7	Zn	0.937447	-0.291513	-0.436983
Zn8	Zn	1.437447	0.208487	0.063017
O9	O	0.998588	-0.254111	-0.380899
O10	O	1.498588	0.245889	0.119101
O11	O	1.153501	-0.232113	-0.430661
O12	O	1.653501	0.267887	0.069339
O13	O	1.048269	-0.278861	-0.226015
O14	O	1.548269	0.221139	0.273985
O15	O	0.957484	-0.151347	-0.336052
O16	O	1.457484	0.348653	0.163948
O17	O	1.157092	-0.285057	-0.344521
O18	O	1.657092	0.214943	0.155479
O19	O	1.039938	-0.156041	-0.425842
O20	O	1.539938	0.343959	0.074158
O21	O	0.962224	-0.221222	-0.222364
O22	O	1.462224	0.278778	0.277636
O23	O	0.843743	-0.220930	-0.331164
O24	O	1.343743	0.279070	0.168836
O25	O	0.948839	-0.284542	-0.535756
O26	O	1.448839	0.215458	-0.035756
O27	O	0.840016	-0.278346	-0.417250
O28	O	1.340016	0.221654	0.082750
O29	O	1.035020	-0.231820	-0.539460
O30	O	1.535020	0.268180	-0.039460
O31	O	1.043350	-0.354639	-0.339633
O32	O	1.543350	0.145361	0.160367
O33	O	0.953579	-0.354418	-0.422068
O34	O	1.453579	0.145582	0.077932
C35	C	0.816442	-0.248912	-0.373121
C36	C	1.316442	0.251088	0.126879
C37	C	0.738519	-0.246699	-0.369810
C38	C	1.238519	0.253301	0.130190
C39	C	0.297896	-0.232660	-0.348841
C40	C	0.797896	0.267340	0.151159
C41	C	0.371113	-0.234742	-0.351956
C42	C	0.871113	0.265258	0.148044
C43	C	0.405800	-0.265722	-0.398261
C44	C	0.905800	0.234278	0.101739
C45	C	0.367267	-0.294619	-0.441459
C46	C	0.867267	0.205381	0.058541
C47	C	0.294051	-0.292534	-0.438348
C48	C	0.794051	0.207466	0.061652
C49	C	0.626769	-0.273511	-0.409897
C50	C	1.126769	0.226489	0.090103
C51	C	0.699990	-0.275595	-0.413004
C52	C	1.199990	0.224405	0.086996
C53	C	0.703832	-0.215717	-0.323501
C54	C	1.203832	0.284283	0.176499
C55	C	0.630614	-0.213637	-0.320391
C56	C	1.130614	0.286363	0.179609
C57	C	0.592087	-0.242532	-0.363592
C58	C	1.092087	0.257468	0.136408
C59	C	0.480640	-0.267852	-0.401444
C60	C	0.980640	0.232148	0.098556
C61	C	0.517248	-0.240400	-0.360412
C62	C	1.017248	0.259600	0.139588
C63	C	0.998463	-0.370829	-0.380859
C64	C	1.498463	0.129171	0.119141
C65	C	0.998472	-0.420764	-0.380868
C66	C	1.498472	0.079236	0.119132
C67	C	1.045410	-0.730519	-0.338044
C68	C	1.545410	-0.230519	0.161956
C69	C	1.045496	-0.918195	-0.338075
C70	C	1.545496	-0.418195	0.161925
O71	O	1.085305	-0.942550	-0.301633
O72	O	1.585305	-0.442550	0.198367
N73	N	0.998731	-0.941559	-0.380958
N74	N	1.498731	-0.441559	0.119042
C75	C	0.951945	-0.918001	-0.423840
C76	C	1.451945	-0.418001	0.076160
O77	O	0.912175	-0.942180	-0.460321
O78	O	1.412175	-0.442180	0.039679
C79	C	0.951863	-0.730326	-0.423812
C80	C	1.451863	-0.230326	0.076188
C81	C	0.998626	-0.706964	-0.380921
C82	C	1.498626	-0.206964	0.119079
C83	C	1.092170	-0.707157	-0.295156
C84	C	1.592170	-0.207157	0.204844
C85	C	1.092146	-0.660240	-0.295146
C86	C	1.592146	-0.160240	0.204854
C87	C	1.045362	-0.636686	-0.338023
C88	C	1.545362	-0.136686	0.161977
C89	C	0.998602	-0.660048	-0.380911
C90	C	1.498602	-0.160048	0.119089
C91	C	0.905081	-0.706769	-0.466698
C92	C	1.405081	-0.206769	0.033302
C93	C	0.905066	-0.659848	-0.466688
C94	C	1.405066	-0.159848	0.033312
C95	C	0.951829	-0.636486	-0.423797
C96	C	1.451829	-0.136486	0.076203
C97	C	0.951793	-0.589577	-0.423778
C98	C	1.451793	-0.089577	0.076222
N99	N	0.998558	-0.566213	-0.380895
N100	N	1.498558	-0.066213	0.119105
C101	C	1.045342	-0.589767	-0.338017
C102	C	1.545342	-0.089767	0.161983
C103	C	0.951990	-1.016533	-0.423851
C104	C	1.451990	-0.516533	0.076149
C105	C	0.952009	-1.063452	-0.423857
C106	C	1.452009	-0.563452	0.076143
C107	C	1.045561	-1.063642	-0.338092
C108	C	1.545561	-0.563642	0.161908
C109	C	1.045538	-1.016723	-0.338083
C110	C	1.545538	-0.516723	0.161917
C111	C	0.998755	-0.993169	-0.380967
C112	C	1.498755	-0.493169	0.119033
C113	C	1.045287	-0.491239	-0.337999
C114	C	1.545287	0.008761	0.162001
C115	C	1.045257	-0.444319	-0.337990
C116	C	1.545257	0.055681	0.162010
C117	C	0.951707	-0.444133	-0.423758
C118	C	1.451707	0.055867	0.076242
C119	C	0.951735	-0.491049	-0.423764
C120	C	1.451735	0.008951	0.076236
C121	C	0.998531	-0.514601	-0.380882
C122	C	1.498531	-0.014601	0.119118
O123	O	0.912010	-0.565193	-0.460206
O124	O	1.412010	-0.065193	0.039794
O125	O	1.085116	-0.565581	-0.301553
O126	O	1.585116	-0.065581	0.198447
C127	C	1.045435	-0.777435	-0.338054
C128	C	1.545435	-0.277435	0.161946
C129	C	0.998675	-0.800797	-0.380941
C130	C	1.498675	-0.300797	0.119059
C131	C	0.951891	-0.777242	-0.423818
C132	C	1.451891	-0.277242	0.076182
C133	C	0.998694	-0.847715	-0.380947
C134	C	1.498694	-0.347715	0.119053
C135	C	1.045479	-0.871270	-0.338070
C136	C	1.545479	-0.371270	0.161930
C137	C	1.092243	-0.847906	-0.295187
C138	C	1.592243	-0.347906	0.204813
C139	C	1.092219	-0.800989	-0.295176
C140	C	1.592219	-0.300989	0.204824
C141	C	0.905126	-0.800607	-0.466702
C142	C	1.405126	-0.300607	0.033298
C143	C	0.905154	-0.847523	-0.466708
C144	C	1.405154	-0.347523	0.033292
C145	C	0.951938	-0.871077	-0.423831
C146	C	1.451938	-0.371077	0.076169
C147	C	1.181445	-0.259331	-0.388707
C148	C	1.681445	0.240669	0.111293
C149	C	1.259367	-0.261556	-0.392035
C150	C	1.759367	0.238444	0.107965
C151	C	0.990818	-0.258860	-0.563757
C152	C	1.490818	0.241140	-0.063757
C153	C	0.987508	-0.260884	-0.641680
C154	C	1.487508	0.239116	-0.141680
C155	C	0.998732	-0.136938	-0.380955
C156	C	1.498732	0.363062	0.119045
C157	C	0.998793	-0.087006	-0.380979
C158	C	1.498793	0.412994	0.119021
C159	C	1.030819	-0.234386	-0.680218
C160	C	1.530819	0.265614	-0.180218
C161	C	1.027700	-0.236286	-0.753434
C162	C	1.527700	0.263714	-0.253434
C163	C	0.981272	-0.264685	-0.788112
C164	C	1.481272	0.235315	-0.288112
C165	C	0.937955	-0.291184	-0.749569
C166	C	1.437955	0.208816	-0.249569
C167	C	0.941072	-0.289282	-0.676353
C168	C	1.441072	0.210718	-0.176353
C169	C	0.969614	-0.271800	-1.009079
C170	C	1.469614	0.228200	-0.509079
C171	C	0.966502	-0.273701	-1.082299
C172	C	1.466502	0.226299	-0.582299
C173	C	1.056246	-0.218802	-1.086160
C174	C	1.556246	0.281198	-0.586160
C175	C	1.059362	-0.216904	-1.012943
C176	C	1.559362	0.283096	-0.512943
C177	C	1.016043	-0.243401	-0.974406
C178	C	1.516043	0.256599	-0.474406
C179	C	0.978084	-0.266629	-0.862951
C180	C	1.478084	0.233371	-0.362951
C181	C	1.019228	-0.241455	-0.899568
C182	C	1.519228	0.258545	-0.399568
C183	C	1.006367	-0.249350	-0.198754
C184	C	1.506367	0.250650	0.301246
C185	C	1.009814	-0.247203	-0.120837
C186	C	1.509814	0.252797	0.379163
H187	H	0.395515	-0.319842	-0.479165
H188	H	0.895515	0.180158	0.020835
F189	F	0.917082	-0.303927	-1.119204
F190	F	1.417082	0.196073	-0.619204
F191	F	0.260986	-0.199689	-0.299553
F192	F	0.760986	0.300311	0.200447
H193	H	1.057026	-0.218330	-0.871330
H194	H	1.557026	0.281670	-0.371330
F195	F	0.480330	-0.207428	-0.311135
F196	F	0.980330	0.292572	0.188865
H197	H	0.934351	-0.293382	-0.977711
H198	H	1.434351	0.206618	-0.477711
F199	F	0.253046	-0.323288	-0.484323
F200	F	0.753046	0.176712	0.015677
F201	F	0.894972	-0.317483	-0.635339
F202	F	1.394972	0.182517	-0.135339
H203	H	0.867029	-0.781432	-0.501619
H204	H	1.367029	-0.281432	-0.001619
H205	H	0.508891	-0.293077	-0.439144
H206	H	1.008891	0.206923	0.060856
F207	F	0.736906	-0.308570	-0.462290
F208	F	1.236906	0.191430	0.037710
F209	F	0.593703	-0.180662	-0.271110
F210	F	1.093703	0.319338	0.228890
F211	F	1.095030	-0.419458	-0.292337
F212	F	1.595030	0.080542	0.207663
F213	F	1.080238	-0.204162	-0.643318
F214	F	1.580238	0.295838	-0.143318
F215	F	0.585774	-0.304266	-0.455873
F216	F	1.085774	0.195734	0.044127
F217	F	1.141926	-0.635383	-0.249503
F218	F	1.641926	-0.135383	0.250497
H219	H	0.402480	-0.211214	-0.316780
H220	H	0.902480	0.288786	0.183220
F221	F	1.073822	-0.208100	-0.794447
F222	F	1.573822	0.291900	-0.294447
F223	F	1.095092	-0.516299	-0.292359
F224	F	1.595092	-0.016299	0.207641
H225	H	1.130271	-0.726330	-0.260240
H226	H	1.630271	-0.226330	0.239760
F227	F	1.108777	-0.186678	-0.976042
F228	F	1.608777	0.313322	-0.476042
H229	H	0.913658	-0.510071	-0.458692
H230	H	1.413658	-0.010071	0.041308
H231	H	0.900150	-0.314306	-0.777809
H232	H	1.400150	0.185694	-0.277809
H233	H	1.091513	-0.197229	-1.117544
H234	H	1.591513	0.302771	-0.617544
F235	F	1.095310	-0.991863	-0.292433
F236	F	1.595310	-0.491863	0.207567
H237	H	0.940285	-0.289754	-0.891194
H238	H	1.440285	0.210246	-0.391194
F239	F	1.095351	-1.088718	-0.292457
F240	F	1.595351	-0.588718	0.207543
F241	F	0.744840	-0.184966	-0.277529
F242	F	1.244840	0.315034	0.222471
F243	F	0.902192	-0.991472	-0.469497
F244	F	1.402192	-0.491472	0.030503
F245	F	0.902230	-1.088310	-0.469499
F246	F	1.402230	-0.588310	0.030501
F247	F	0.855314	-0.731623	-0.512356
F248	F	1.355314	-0.231623	-0.012356
H249	H	0.866969	-0.640673	-0.501612
H250	H	1.366969	-0.140673	-0.001612
F251	F	1.141993	-0.776132	-0.249527
F252	F	1.641993	-0.276132	0.250473
F253	F	0.901920	-0.419056	-0.469390
F254	F	1.401920	0.080944	0.030610
F255	F	1.142033	-0.872982	-0.249551
F256	F	1.642033	-0.372982	0.250449
F257	F	0.855376	-0.872381	-0.512360
F258	F	1.355376	-0.372381	-0.012360
