data_functionalizedCrystal
_audit_creation_method	'MofGen! by Chris Wilmer'
_symmetry_space_group_name_H-M	'P1'
_symmetry_Int_Tables_number	1
_symmetry_cell_setting	triclinic
loop_
_symmetry_equiv_pos_as_xyz
  x,y,z
_cell_length_a	16.109301
_cell_length_b	14.586319
_cell_length_c	16.109301
_cell_angle_alpha	89.998390
_cell_angle_beta	83.461481
_cell_angle_gamma	89.996867
loop_
_atom_site_label
_atom_site_type_symbol
_atom_site_fract_x
_atom_site_fract_y
_atom_site_fract_z
O1	O	-1.103134	0.076185	-0.106861
O2	O	-0.769801	0.409519	0.226472
O3	O	-0.436467	0.742852	0.559805
O4	O	-0.861072	0.076200	-0.120161
O5	O	-0.527739	0.409534	0.213173
O6	O	-0.194406	0.742867	0.546506
O7	O	-0.988753	0.076183	0.007520
O8	O	-0.655419	0.409516	0.340853
O9	O	-0.322086	0.742850	0.674187
O10	O	-0.975454	0.076203	-0.234542
O11	O	-0.642120	0.409536	0.098791
O12	O	-0.308787	0.742869	0.432125
O13	O	-0.988737	-0.076298	0.007512
O14	O	-0.655404	0.257036	0.340846
O15	O	-0.322071	0.590369	0.674179
O16	O	-0.861057	-0.076281	-0.120168
O17	O	-0.527723	0.257053	0.213165
O18	O	-0.194390	0.590386	0.546498
O19	O	-1.103119	-0.076295	-0.106869
O20	O	-0.769785	0.257038	0.226464
O21	O	-0.436452	0.590371	0.559798
Cu22	Cu	-0.982086	-0.090211	-0.113519
Cu23	Cu	-0.648753	0.243123	0.219814
Cu24	Cu	-0.315419	0.576456	0.553147
Cu25	Cu	-0.982105	0.090115	-0.113510
Cu26	Cu	-0.648771	0.423449	0.219823
Cu27	Cu	-0.315438	0.756782	0.553156
O28	O	-0.975438	-0.076278	-0.234550
O29	O	-0.642105	0.257055	0.098784
O30	O	-0.308771	0.590388	0.432117
C31	C	-0.830090	-0.000038	-0.119626
C32	C	-0.496756	0.333295	0.213708
C33	C	-0.163423	0.666628	0.547041
C34	C	-0.737794	-0.000033	-0.118011
C35	C	-0.404461	0.333300	0.215323
C36	C	-0.071128	0.666634	0.548656
N37	N	-0.982079	-0.217042	-0.113525
N38	N	-0.648746	0.116291	0.219808
N39	N	-0.315413	0.449624	0.553142
C40	C	-0.988206	-0.000058	0.038491
C41	C	-0.654873	0.333276	0.371824
C42	C	-0.321540	0.666609	0.705158
C43	C	-0.986591	-0.000059	0.130786
C44	C	-0.653258	0.333274	0.464120
C45	C	-0.319925	0.666608	0.797453
C46	C	-1.134101	-0.000055	-0.107404
C47	C	-0.800768	0.333278	0.225929
C48	C	-0.467435	0.666612	0.559263
C49	C	-1.226397	-0.000054	-0.109019
C50	C	-0.893063	0.333279	0.224314
C51	C	-0.559730	0.666612	0.557648
C52	C	-0.515522	-0.000038	-0.190018
C53	C	-0.182188	0.333296	0.143315
C54	C	0.151145	0.666629	0.476648
C55	C	-0.428801	-0.000044	-0.188494
C56	C	-0.095468	0.333290	0.144839
C57	C	0.237865	0.666623	0.478172
C58	C	-0.448676	-0.000052	-0.037006
C59	C	-0.115342	0.333281	0.296328
C60	C	0.217991	0.666614	0.629661
C61	C	-0.535394	-0.000053	-0.038530
C62	C	-0.202061	0.333281	0.294803
C63	C	0.131272	0.666614	0.628136
C64	C	-0.568815	-0.000041	-0.115039
C65	C	-0.235482	0.333292	0.218294
C66	C	0.097852	0.666626	0.551627
C67	C	-0.395376	-0.000046	-0.111990
C68	C	-0.062042	0.333287	0.221343
C69	C	0.271291	0.666620	0.554676
C70	C	-0.301350	-0.000053	-0.110337
C71	C	0.031984	0.333280	0.222996
C72	C	0.365317	0.666614	0.556329
C73	C	-0.662847	-0.000036	-0.116693
C74	C	-0.329514	0.333297	0.216641
C75	C	0.003820	0.666631	0.549974
C76	C	-1.032502	-0.452048	-0.163954
C77	C	-0.699169	-0.118715	0.169380
C78	C	-0.365835	0.214619	0.502713
C79	C	-1.032511	-0.548029	-0.163948
C80	C	-0.699177	-0.214696	0.169385
C81	C	-0.365844	0.118638	0.502719
C82	C	-0.931693	-0.548041	-0.063064
C83	C	-0.598360	-0.214707	0.270270
C84	C	-0.265027	0.118626	0.603603
C85	C	-0.931690	-0.452061	-0.063066
C86	C	-0.598356	-0.118728	0.270268
C87	C	-0.265023	0.214605	0.603601
C88	C	-0.982093	-0.404067	-0.113515
C89	C	-0.648759	-0.070734	0.219818
C90	C	-0.315426	0.262599	0.553151
C91	C	-0.982105	-0.596028	-0.113508
C92	C	-0.648771	-0.262695	0.219826
C93	C	-0.315438	0.070639	0.553159
C94	C	-0.982114	-0.700095	-0.113501
C95	C	-0.648781	-0.366762	0.219832
C96	C	-0.315447	-0.033428	0.553166
C97	C	-0.982085	-0.299993	-0.113521
C98	C	-0.648752	0.033340	0.219812
C99	C	-0.315418	0.366673	0.553146
N100	N	-0.982118	0.216947	-0.113498
N101	N	-0.648785	0.550281	0.219835
N102	N	-0.315451	0.883614	0.553169
C103	C	-0.975984	-0.000035	-0.265521
C104	C	-0.642651	0.333298	0.067813
C105	C	-0.309318	0.666631	0.401146
C106	C	-0.977600	-0.000028	-0.357816
C107	C	-0.644266	0.333305	-0.024483
C108	C	-0.310933	0.666638	0.308851
C109	C	-1.058599	-0.000049	0.353059
C110	C	-0.725266	0.333284	0.686392
C111	C	-0.391932	0.666618	1.019725
C112	C	-1.057075	-0.000041	0.439779
C113	C	-0.723742	0.333292	0.773112
C114	C	-0.390408	0.666625	1.106446
C115	C	-0.905586	-0.000036	0.419905
C116	C	-0.572253	0.333298	0.753238
C117	C	-0.238919	0.666631	1.086571
C118	C	-0.907111	-0.000037	0.333186
C119	C	-0.573778	0.333297	0.666519
C120	C	-0.240444	0.666630	0.999853
C121	C	-0.983620	-0.000048	0.299766
C122	C	-0.650287	0.333285	0.633099
C123	C	-0.316953	0.666619	0.966432
C124	C	-0.980571	-0.000039	0.473205
C125	C	-0.647238	0.333294	0.806538
C126	C	-0.313904	0.666627	1.139871
C127	C	-0.978918	-0.000031	0.567231
C128	C	-0.645585	0.333302	0.900564
C129	C	-0.312251	0.666636	1.233897
C130	C	-0.985273	-0.000055	0.205734
C131	C	-0.651940	0.333279	0.539067
C132	C	-0.318607	0.666612	0.872400
H133	H	-0.385413	-0.000043	-0.249550
H134	H	-0.052080	0.333290	0.083783
H135	H	0.281254	0.666624	0.417117
H136	H	-0.421454	-0.000067	0.025285
H137	H	-0.088121	0.333266	0.358619
H138	H	0.245213	0.666599	0.691952
N139	N	-0.877319	-0.400309	-0.008655
N140	N	-0.543986	-0.066975	0.324678
N141	N	-0.210652	0.266358	0.658011
H142	H	-0.816825	-0.417013	-0.025036
H143	H	-0.483492	-0.083680	0.308297
H144	H	-0.150158	0.249654	0.641631
H145	H	-0.885038	-0.332240	-0.016331
H146	H	-0.551705	0.001093	0.317003
H147	H	-0.218371	0.334427	0.650336
N148	N	-1.086865	-0.400281	-0.218361
N149	N	-0.753532	-0.066947	0.114972
N150	N	-0.420199	0.266386	0.448305
H151	H	-1.118802	-0.445244	-0.250311
H152	H	-0.785469	-0.111911	0.083023
H153	H	-0.452135	0.221422	0.416356
H154	H	-1.127515	-0.360454	-0.182121
H155	H	-0.794182	-0.027121	0.151212
H156	H	-0.460848	0.306212	0.484545
H157	H	-1.120897	-0.000056	0.325851
H158	H	-0.787564	0.333277	0.659184
H159	H	-0.454231	0.666610	0.992518
H160	H	-0.542730	-0.000035	-0.252317
H161	H	-0.209396	0.333298	0.081017
H162	H	0.123937	0.666632	0.414350
N163	N	-0.592883	-0.000067	0.042343
N164	N	-0.259550	0.333267	0.375677
N165	N	0.073784	0.666600	0.709010
H166	H	-0.558554	-0.000069	0.091043
H167	H	-0.225221	0.333264	0.424376
H168	H	0.108113	0.666597	0.757709
H169	H	-0.629303	0.056456	0.045013
H170	H	-0.295970	0.389790	0.378347
H171	H	0.037363	0.723123	0.711680
H172	H	-1.073560	-0.587091	-0.205019
H173	H	-0.740227	-0.253757	0.128315
H174	H	-0.406894	0.079576	0.461648
N175	N	-1.137945	-0.000042	0.497261
N176	N	-0.804611	0.333292	0.830594
N177	N	-0.471278	0.666625	1.163927
H178	H	-1.186640	-0.000050	0.462927
H179	H	-0.853307	0.333284	0.796260
H180	H	-0.519974	0.666617	1.129593
H181	H	-1.140605	-0.056567	0.533677
H182	H	-0.807272	0.276766	0.867010
H183	H	-0.473939	0.610100	1.200343
H184	H	-0.843295	-0.000028	0.447127
H185	H	-0.509962	0.333305	0.780460
H186	H	-0.176628	0.666639	1.113793
N187	N	-0.826237	-0.000029	0.275698
N188	N	-0.492904	0.333304	0.609031
N189	N	-0.159570	0.666638	0.942364
H190	H	-0.777538	-0.000028	0.310026
H191	H	-0.444204	0.333305	0.643360
H192	H	-0.110871	0.666639	0.976693
H193	H	-0.823567	-0.056554	0.239284
H194	H	-0.490233	0.276779	0.572617
H195	H	-0.156900	0.610112	0.905951
N196	N	-0.877332	-0.599806	-0.008653
N197	N	-0.543998	-0.266472	0.324681
N198	N	-0.210665	0.066861	0.658014
H199	H	-0.884981	-0.667889	-0.016305
H200	H	-0.551647	-0.334556	0.317028
H201	H	-0.218314	-0.001223	0.650361
H202	H	-0.816862	-0.583034	-0.025062
H203	H	-0.483529	-0.249701	0.308271
H204	H	-0.150196	0.083633	0.641605
