data_functionalizedCrystal
_audit_creation_method	'MofGen! by Chris Wilmer'
_symmetry_space_group_name_H-M	'P1'
_symmetry_Int_Tables_number	1
_symmetry_cell_setting	triclinic
loop_
_symmetry_equiv_pos_as_xyz
  x,y,z
_cell_length_a	13.897449
_cell_length_b	19.121063
_cell_length_c	13.897449
_cell_angle_alpha	87.574651
_cell_angle_beta	90.005980
_cell_angle_gamma	92.470221
loop_
_atom_site_label
_atom_site_type_symbol
_atom_site_fract_x
_atom_site_fract_y
_atom_site_fract_z
Zn1	Zn	1.458104	-0.279712	0.561734
Zn2	Zn	1.791437	0.053621	0.895067
Zn3	Zn	2.124771	0.386954	1.228400
Zn4	Zn	1.451130	-0.397136	0.407300
Zn5	Zn	1.784464	-0.063802	0.740634
Zn6	Zn	2.117797	0.269531	1.073967
Zn7	Zn	1.296835	-0.279704	0.400452
Zn8	Zn	1.630169	0.053629	0.733785
Zn9	Zn	1.963502	0.386963	1.067118
Zn10	Zn	1.289866	-0.397131	0.568552
Zn11	Zn	1.623199	-0.063798	0.901886
Zn12	Zn	1.956533	0.269535	1.235219
O13	O	1.373984	-0.338421	0.484510
O14	O	1.707317	-0.005088	0.817843
O15	O	2.040651	0.328246	1.151176
O16	O	1.592160	-0.295294	0.541260
O17	O	1.925494	0.038039	0.874594
O18	O	2.258827	0.371373	1.207927
O19	O	1.430661	-0.381557	0.271410
O20	O	1.763994	-0.048223	0.604743
O21	O	2.097328	0.285110	0.938077
O22	O	1.324063	-0.181419	0.416126
O23	O	1.657396	0.151914	0.749460
O24	O	1.990730	0.485247	1.082793
O25	O	1.587037	-0.381565	0.427799
O26	O	1.920370	-0.048231	0.761132
O27	O	2.253703	0.285102	1.094465
O28	O	1.442546	-0.181425	0.534620
O29	O	1.775880	0.151908	0.867953
O30	O	2.109213	0.485241	1.201286
O31	O	1.317301	-0.295280	0.266379
O32	O	1.650634	0.038053	0.599712
O33	O	1.983968	0.371387	0.933045
O34	O	1.160929	-0.295276	0.422738
O35	O	1.494263	0.038058	0.756072
O36	O	1.827596	0.371391	1.089405
O37	O	1.312185	-0.381557	0.702630
O38	O	1.645518	-0.048224	1.035963
O39	O	1.978852	0.285110	1.369296
O40	O	1.155809	-0.381549	0.546241
O41	O	1.489143	-0.048216	0.879574
O42	O	1.822476	0.285118	1.212908
O43	O	1.435789	-0.295290	0.697620
O44	O	1.769122	0.038044	1.030953
O45	O	2.102455	0.371377	1.364287
O46	O	1.423903	-0.495421	0.434410
O47	O	1.757237	-0.162088	0.767744
O48	O	2.090570	0.171246	1.101077
O49	O	1.305423	-0.495418	0.552882
O50	O	1.638756	-0.162085	0.886215
O51	O	1.972090	0.171249	1.219548
C52	C	1.123370	-0.338411	0.484487
C53	C	1.456704	-0.005078	0.817820
C54	C	1.790037	0.328255	1.151154
C55	C	1.016155	-0.338424	0.484501
C56	C	1.349489	-0.005091	0.817835
C57	C	1.682822	0.328242	1.151168
C58	C	1.363176	-0.520904	0.495150
C59	C	1.696510	-0.187571	0.828484
C60	C	2.029843	0.145763	1.161817
C61	C	1.358641	-0.598971	0.499735
C62	C	1.691974	-0.265638	0.833068
C63	C	2.025308	0.067696	1.166401
C64	C	0.819860	-0.338427	0.484527
C65	C	1.153194	-0.005094	0.817860
C66	C	1.486527	0.328240	1.151193
C67	C	0.929093	-0.338423	0.484510
C68	C	1.262426	-0.005090	0.817843
C69	C	1.595760	0.328243	1.151176
C70	C	1.418245	-0.635625	0.440258
C71	C	1.751578	-0.302292	0.773591
C72	C	2.084911	0.031041	1.106925
C73	C	1.413985	-0.708978	0.444575
C74	C	1.747318	-0.375644	0.777908
C75	C	2.080652	-0.042311	1.111242
C76	C	1.350116	-0.745674	0.508365
C77	C	1.683450	-0.412341	0.841698
C78	C	2.016783	-0.079007	1.175032
C79	C	1.290510	-0.709015	0.567848
C80	C	1.623844	-0.375681	0.901182
C81	C	1.957177	-0.042348	1.234515
C82	C	1.294775	-0.635664	0.563535
C83	C	1.628109	-0.302330	0.896869
C84	C	1.961442	0.031003	1.230202
C85	C	1.334154	-0.967148	0.524476
C86	C	1.667487	-0.633814	0.857809
C87	C	2.000821	-0.300481	1.191142
C88	C	1.329891	-1.040504	0.528782
C89	C	1.663224	-0.707170	0.862115
C90	C	1.996558	-0.373837	1.195449
C91	C	1.453368	-1.040462	0.405510
C92	C	1.786701	-0.707128	0.738843
C93	C	2.120034	-0.373795	1.072176
C94	C	1.457623	-0.967109	0.401198
C95	C	1.790957	-0.633776	0.734531
C96	C	2.124290	-0.300443	1.067865
C97	C	1.398021	-0.930456	0.460685
C98	C	1.731354	-0.597123	0.794018
C99	C	2.064688	-0.263790	1.127352
C100	C	1.345758	-0.820652	0.512777
C101	C	1.679092	-0.487319	0.846111
C102	C	2.012425	-0.153985	1.179444
C103	C	1.402384	-0.855480	0.456277
C104	C	1.735717	-0.522146	0.789610
C105	C	2.069051	-0.188813	1.122943
C106	C	1.625576	-0.338431	0.484533
C107	C	1.958910	-0.005097	0.817866
C108	C	2.292243	0.328236	1.151199
C109	C	1.732790	-0.338435	0.484543
C110	C	2.066123	-0.005102	0.817876
C111	C	2.399457	0.328232	1.151209
C112	C	1.373987	-0.338424	0.736103
C113	C	1.707321	-0.005090	1.069436
C114	C	2.040654	0.328243	1.402769
C115	C	1.373989	-0.338425	0.843317
C116	C	1.707322	-0.005092	1.176650
C117	C	2.040656	0.328242	1.509983
C118	C	1.384860	-0.155225	0.473848
C119	C	1.718193	0.178108	0.807182
C120	C	2.051527	0.511441	1.140515
C121	C	1.389495	-0.077158	0.469305
C122	C	1.722828	0.256175	0.802639
C123	C	2.056161	0.589508	1.135972
C124	C	1.373964	-0.338428	1.039612
C125	C	1.707298	-0.005095	1.372945
C126	C	2.040631	0.328238	1.706279
C127	C	1.373975	-0.338428	0.930379
C128	C	1.707308	-0.005095	1.263713
C129	C	2.040642	0.328238	1.597046
C130	C	1.373970	-0.338432	1.233896
C131	C	1.707304	-0.005099	1.567229
C132	C	2.040637	0.328234	1.900563
C133	C	1.373963	-0.338427	1.126682
C134	C	1.707297	-0.005093	1.460015
C135	C	2.040630	0.328240	1.793348
H136	H	1.470249	-0.605752	0.388309
H137	H	1.803583	-0.272419	0.721642
H138	H	2.136916	0.060915	1.054976
H139	H	1.462520	-0.738819	0.396142
H140	H	1.795853	-0.405485	0.729475
H141	H	2.129187	-0.072152	1.062809
H142	H	1.509630	-0.937233	0.349255
H143	H	1.842964	-0.603899	0.682589
H144	H	2.176297	-0.270566	1.015922
H145	H	1.246241	-0.605820	0.611969
H146	H	1.579574	-0.272487	0.945302
H147	H	1.912908	0.060846	1.278635
H148	H	1.501894	-1.070313	0.357080
H149	H	1.835227	-0.736979	0.690414
H150	H	2.168561	-0.403646	1.023747
H151	H	1.238511	-0.738899	0.619792
H152	H	1.571844	-0.405565	0.953125
H153	H	1.905178	-0.072232	1.286458
O154	O	1.269839	-0.927629	0.588614
O155	O	1.603172	-0.594296	0.921947
O156	O	1.936506	-0.260963	1.255280
H157	H	1.285482	-0.941681	0.665162
H158	H	1.618816	-0.608348	0.998495
H159	H	1.952149	-0.275014	1.331829
O160	O	1.261009	-1.080088	0.597594
O161	O	1.594342	-0.746755	0.930927
O162	O	1.927675	-0.413421	1.264261
H163	H	1.220287	-1.042278	0.638243
H164	H	1.553620	-0.708945	0.971576
H165	H	1.886953	-0.375612	1.304909
O166	O	1.471282	-0.815900	0.387491
O167	O	1.804615	-0.482567	0.720825
O168	O	2.137949	-0.149234	1.054158
H169	H	1.430092	-0.782521	0.336415
H170	H	1.763426	-0.449187	0.669748
H171	H	2.096759	-0.115854	1.003081
O172	O	1.276857	-0.860238	0.581558
O173	O	1.610190	-0.526905	0.914891
O174	O	1.943523	-0.193572	1.248225
H175	H	1.318043	-0.893624	0.632630
H176	H	1.651377	-0.560290	0.965964
H177	H	1.984710	-0.226957	1.299297
