data_functionalizedCrystal
_audit_creation_method	'MofGen! by Chris Wilmer'
_symmetry_space_group_name_H-M	'P1'
_symmetry_Int_Tables_number	1
_symmetry_cell_setting	triclinic
loop_
_symmetry_equiv_pos_as_xyz
  x,y,z
_cell_length_a	19.188930
_cell_length_b	19.188924
_cell_length_c	17.666332
_cell_angle_alpha	89.991448
_cell_angle_beta	89.976766
_cell_angle_gamma	83.143372
loop_
_atom_site_label
_atom_site_type_symbol
_atom_site_fract_x
_atom_site_fract_y
_atom_site_fract_z
O1	O	0.926147	0.087169	-0.063195
O2	O	1.426147	0.587169	0.436805
O3	O	0.722836	0.098903	-0.063144
O4	O	1.222836	0.598903	0.436856
O5	O	0.830361	-0.008620	-0.063162
O6	O	1.330361	0.491380	0.436838
O7	O	0.818622	0.194692	-0.063177
O8	O	1.318622	0.694692	0.436823
O9	O	0.830343	-0.008625	0.062735
O10	O	1.330343	0.491375	0.562735
O11	O	0.722817	0.098898	0.062753
O12	O	1.222817	0.598898	0.562753
O13	O	0.926129	0.087163	0.062702
O14	O	1.426129	0.587163	0.562702
Cu15	Cu	0.824471	0.093030	0.074223
Cu16	Cu	1.324471	0.593030	0.574223
Cu17	Cu	0.824493	0.093037	-0.074665
Cu18	Cu	1.324493	0.593037	0.425335
O19	O	0.818603	0.194687	0.062720
O20	O	1.318603	0.694687	0.562720
C21	C	0.696815	0.098521	-0.000189
C22	C	1.196815	0.598521	0.499811
C23	C	0.619311	0.097380	-0.000169
C24	C	1.119311	0.597380	0.499831
C25	C	0.829973	-0.034634	-0.000213
C26	C	1.329973	0.465366	0.499787
C27	C	0.828834	-0.112138	-0.000210
C28	C	1.328834	0.387862	0.499790
C29	C	0.574386	0.160471	-0.000185
C30	C	1.074386	0.660471	0.499815
C31	C	0.501562	0.159399	-0.000193
C32	C	1.001562	0.659399	0.499807
C33	C	0.473667	0.095233	-0.000200
C34	C	0.973667	0.595233	0.499800
C35	C	0.518602	0.032134	-0.000180
C36	C	1.018602	0.532134	0.499820
C37	C	0.591424	0.033207	-0.000164
C38	C	1.091424	0.533207	0.499836
N39	N	0.365694	0.046188	-0.043075
N40	N	0.865694	0.546188	0.456925
N41	N	0.296516	0.045172	-0.043092
N42	N	0.796516	0.545172	0.456908
C43	C	0.254258	0.091995	-0.000246
C44	C	0.754258	0.591995	0.499754
N45	N	0.283791	0.139882	0.042607
N46	N	0.783791	0.639882	0.542607
N47	N	0.352976	0.140899	0.042620
N48	N	0.852976	0.640899	0.542620
C49	C	0.394704	0.094062	-0.000217
C50	C	0.894704	0.594062	0.499783
C51	C	0.130368	0.153928	-0.000271
C52	C	0.630368	0.653928	0.499729
C53	C	0.057543	0.152854	-0.000274
C54	C	0.557543	0.652854	0.499726
C55	C	0.074585	0.025586	-0.000268
C56	C	0.574585	0.525586	0.499732
C57	C	0.147409	0.026663	-0.000257
C58	C	0.647409	0.526663	0.499743
C59	C	0.175295	0.090835	-0.000262
C60	C	0.675295	0.590835	0.499738
C61	C	0.828313	-0.148534	-0.068837
C62	C	1.328313	0.351466	0.431163
C63	C	0.827233	-0.221357	-0.068842
C64	C	1.327233	0.278643	0.431158
C65	C	0.826688	-0.257783	-0.000217
C66	C	1.326688	0.242217	0.499783
C67	C	0.827205	-0.221378	0.068418
C68	C	1.327205	0.278622	0.568418
C69	C	0.828278	-0.148556	0.068421
C70	C	1.328278	0.351444	0.568421
N71	N	0.864728	-0.377448	0.050849
N72	N	1.364728	0.122552	0.550849
N73	N	0.863710	-0.446627	0.050841
N74	N	1.363710	0.053373	0.550841
C75	C	0.823454	-0.477192	-0.000224
C76	C	1.323454	0.022808	0.499776
N77	N	0.784262	-0.435967	-0.051292
N78	N	1.284262	0.064033	0.448708
N79	N	0.785283	-0.366783	-0.051286
N80	N	1.285283	0.133217	0.448714
C81	C	0.825524	-0.336746	-0.000214
C82	C	1.325524	0.163254	0.499786
C83	C	0.821761	-0.592550	-0.068861
C84	C	1.321761	-0.092550	0.431139
C85	C	0.820676	-0.665374	-0.068864
C86	C	1.320676	-0.165374	0.431136
C87	C	0.820656	-0.665394	0.068399
C88	C	1.320656	-0.165394	0.568399
C89	C	0.821734	-0.592571	0.068399
C90	C	1.321734	-0.092571	0.568399
C91	C	0.822289	-0.556154	-0.000233
C92	C	1.322289	-0.056154	0.499767
C93	C	0.952149	0.087546	-0.000255
C94	C	1.452149	0.587546	0.499745
C95	C	1.029654	0.088687	-0.000280
C96	C	1.529654	0.588687	0.499720
C97	C	0.818992	0.220700	-0.000231
C98	C	1.318992	0.720700	0.499769
C99	C	0.820131	0.298205	-0.000238
C100	C	1.320131	0.798205	0.499762
N101	N	0.824461	0.093025	0.178942
N102	N	1.324461	0.593025	0.678942
N103	N	0.824509	0.093036	-0.179384
N104	N	1.324509	0.593036	0.320616
C105	C	0.872088	0.045437	0.218544
C106	C	1.372088	0.545437	0.718544
C107	C	0.872092	0.045433	0.297791
C108	C	1.372092	0.545433	0.797791
C109	C	0.824475	0.093030	0.337434
C110	C	1.324475	0.593030	0.837434
C111	C	0.776839	0.140622	0.297823
C112	C	1.276839	0.640622	0.797823
C113	C	0.776831	0.140619	0.218577
C114	C	1.276831	0.640619	0.718577
N115	N	0.815398	0.154838	0.461850
N116	N	1.315398	0.654838	0.961850
N117	N	0.815409	0.154838	0.537130
N118	N	1.315409	0.654838	1.037130
C119	C	0.824494	0.093040	0.576198
C120	C	1.324494	0.593040	1.076198
N121	N	0.833581	0.031239	0.537142
N122	N	1.333581	0.531239	1.037142
N123	N	0.833573	0.031240	0.461855
N124	N	1.333573	0.531240	0.961855
C125	C	0.824478	0.093038	0.423363
C126	C	1.324478	0.593038	0.923363
C127	C	0.872128	0.045444	0.701729
C128	C	1.372128	0.545444	1.201729
C129	C	0.872128	0.045440	0.780978
C130	C	1.372128	0.545440	1.280978
C131	C	0.776878	0.140634	0.781009
C132	C	1.276878	0.640634	1.281009
C133	C	0.776875	0.140633	0.701761
C134	C	1.276875	0.640633	1.201761
C135	C	0.824504	0.093038	0.662126
C136	C	1.324504	0.593038	1.162126
H137	H	0.597086	0.212725	-0.000191
H138	H	1.097086	0.712725	0.499809
Br139	Br	0.036736	-0.061498	-0.000265
Br140	Br	0.536736	0.438502	0.499735
H141	H	0.738067	0.179375	0.330104
H142	H	1.238067	0.679375	0.830104
H143	H	0.183988	-0.024713	-0.000248
H144	H	0.683988	0.475287	0.499752
Br145	Br	0.819910	-0.714821	0.161534
Br146	Br	1.319910	-0.214821	0.661534
Br147	Br	0.652399	-0.052423	-0.000140
Br148	Br	1.152399	0.447577	0.499860
Br149	Br	0.826522	-0.270762	-0.161985
Br150	Br	1.326522	0.229238	0.338015
Br151	Br	0.712189	0.205207	0.164827
Br152	Br	1.212189	0.705207	0.664827
H153	H	0.910909	0.006688	0.669457
H154	H	1.410909	0.506688	1.169457
H155	H	0.826760	-0.251040	0.124293
H156	H	1.326760	0.248960	0.624293
Br157	Br	0.936723	-0.019156	0.164753
Br158	Br	1.436723	0.480844	0.664753
H159	H	0.910910	0.006684	0.813223
H160	H	1.410910	0.506684	1.313223
Br161	Br	0.168219	0.241017	-0.000272
Br162	Br	0.668219	0.741017	0.499728
H163	H	0.828700	-0.118922	0.124307
H164	H	1.328700	0.381078	0.624307
H165	H	0.020965	0.204232	-0.000283
H166	H	0.520965	0.704232	0.499717
H167	H	0.828763	-0.118888	-0.124722
H168	H	1.328763	0.381112	0.375278
Br169	Br	0.440579	0.245029	-0.000211
Br170	Br	0.940579	0.745029	0.499789
Br171	Br	0.822438	-0.543173	0.161540
Br172	Br	1.322438	-0.043173	0.661540
Br173	Br	0.936734	-0.019157	0.351546
Br174	Br	1.436734	0.480843	0.851546
H175	H	0.738104	0.179386	0.813285
H176	H	1.238104	0.679386	1.313285
Br177	Br	0.822511	-0.543122	-0.162001
Br178	Br	1.322511	-0.043122	0.337999
H179	H	0.495885	-0.020111	-0.000196
H180	H	0.995885	0.479889	0.499804
Br181	Br	0.819961	-0.714769	-0.162008
Br182	Br	1.319961	-0.214769	0.337992
Br183	Br	0.712237	0.205221	0.648010
Br184	Br	1.212237	0.705221	1.148010
