data_functionalizedCrystal
_audit_creation_method	'MofGen! by Chris Wilmer'
_symmetry_space_group_name_H-M	'P1'
_symmetry_Int_Tables_number	1
_symmetry_cell_setting	triclinic
loop_
_symmetry_equiv_pos_as_xyz
  x,y,z
_cell_length_a	14.044220
_cell_length_b	9.065218
_cell_length_c	7.540329
_cell_angle_alpha	89.998243
_cell_angle_beta	90.001925
_cell_angle_gamma	89.102381
loop_
_atom_site_label
_atom_site_type_symbol
_atom_site_fract_x
_atom_site_fract_y
_atom_site_fract_z
O1	O	1.260762	0.356074	-0.147280
O2	O	1.760762	0.856074	0.352720
O3	O	0.984682	0.343225	-0.147326
O4	O	1.484682	0.843225	0.352674
O5	O	1.128428	0.135640	-0.147298
O6	O	1.628428	0.635640	0.352702
O7	O	1.117015	0.563660	-0.147308
O8	O	1.617015	1.063660	0.352692
O9	O	1.128420	0.135636	0.147667
O10	O	1.628420	0.635636	0.647667
O11	O	0.984673	0.343221	0.147639
O12	O	1.484673	0.843221	0.647639
O13	O	1.260753	0.356071	0.147685
O14	O	1.760753	0.856071	0.647685
Cu15	Cu	1.122712	0.349646	0.174595
Cu16	Cu	1.622712	0.849646	0.674595
Cu17	Cu	1.122723	0.349650	-0.174236
Cu18	Cu	1.622723	0.849650	0.325764
O19	O	1.117007	0.563656	0.147657
O20	O	1.617007	1.063656	0.647657
C21	C	1.127327	0.080530	0.000181
C22	C	1.627327	0.580530	0.500181
C23	C	1.124048	-0.083677	0.000172
C24	C	1.624048	0.416323	0.500172
C25	C	0.949315	0.337599	0.000151
C26	C	1.449315	0.837599	0.500151
C27	C	0.843945	0.320822	0.000133
C28	C	1.343945	0.820822	0.500133
C29	C	0.651021	0.290150	0.000169
C30	C	1.151021	0.790150	0.500169
C31	C	0.594409	0.409139	0.000174
C32	C	1.094409	0.909139	0.500174
C33	C	0.487059	0.392073	0.000194
C34	C	0.987059	0.892073	0.500194
C35	C	0.758381	0.307214	0.000149
C36	C	1.258381	0.807214	0.500149
C37	C	1.296120	0.361697	0.000204
C38	C	1.796120	0.861697	0.500204
C39	C	1.401490	0.378474	0.000210
C40	C	1.901490	0.878474	0.500210
C41	C	1.118108	0.618766	0.000174
C42	C	1.618108	1.118766	0.500174
C43	C	1.121388	0.782972	0.000171
C44	C	1.621388	1.282972	0.500171
N45	N	1.122712	0.349642	0.419943
N46	N	1.622712	0.849642	0.919943
N47	N	1.122730	0.349643	-0.419584
N48	N	1.622730	0.849643	0.080416
H49	H	0.626565	0.523826	0.000163
H50	H	1.126565	1.023826	0.500163
H51	H	0.618867	0.175472	0.000181
H52	H	1.118867	0.675472	0.500181
