data_functionalizedCrystal
_audit_creation_method	'MofGen! by Chris Wilmer'
_symmetry_space_group_name_H-M	'P1'
_symmetry_Int_Tables_number	1
_symmetry_cell_setting	triclinic
loop_
_symmetry_equiv_pos_as_xyz
  x,y,z
_cell_length_a	12.759395
_cell_length_b	16.120484
_cell_length_c	12.759387
_cell_angle_alpha	92.862335
_cell_angle_beta	89.981185
_cell_angle_gamma	92.926975
loop_
_atom_site_label
_atom_site_type_symbol
_atom_site_fract_x
_atom_site_fract_y
_atom_site_fract_z
Zn1	Zn	1.584970	-0.331818	-0.615166
Zn2	Zn	1.575922	-0.471257	-0.448379
Zn3	Zn	1.409270	-0.331867	-0.439506
Zn4	Zn	1.400321	-0.471195	-0.624014
O5	O	1.492621	-0.401534	-0.531766
O6	O	1.730790	-0.350321	-0.593052
O7	O	1.553774	-0.452813	-0.300184
O8	O	1.440108	-0.215195	-0.455391
O9	O	1.724143	-0.452766	-0.470514
O10	O	1.569194	-0.215159	-0.584448
O11	O	1.431335	-0.350403	-0.293665
O12	O	1.261062	-0.350343	-0.463971
O13	O	1.424856	-0.452660	-0.769858
O14	O	1.254487	-0.452707	-0.599528
O15	O	1.560517	-0.350261	-0.763358
O16	O	1.545097	-0.587914	-0.479093
O17	O	1.416083	-0.587869	-0.608132
C18	C	1.219654	-0.401524	-0.531747
C19	C	1.102876	-0.401540	-0.531766
C20	C	1.096057	-0.508304	-0.672715
C21	C	1.037787	-0.561693	-0.743193
C22	C	0.928065	-0.561703	-0.743207
C23	C	0.876611	-0.508317	-0.672737
C24	C	0.934881	-0.454928	-0.602258
C25	C	1.044606	-0.454926	-0.602250
C26	C	0.941700	-0.348161	-0.461316
C27	C	1.051422	-0.348154	-0.461296
C28	C	0.890247	-0.294775	-0.390846
C29	C	0.948517	-0.241389	-0.320361
C30	C	1.058246	-0.241382	-0.320349
C31	C	1.109693	-0.294765	-0.390817
C32	C	1.478666	-0.618142	-0.545558
C33	C	1.472792	-0.710807	-0.551494
C34	C	1.462074	-0.880468	-0.562352
C35	C	1.523355	-0.921760	-0.501197
C36	C	1.517392	-1.016165	-0.507239
C37	C	1.468036	-0.786054	-0.556312
C38	C	1.766653	-0.401545	-0.531786
C39	C	1.883430	-0.401550	-0.531794
C40	C	1.492697	-0.401448	-0.805794
C41	C	1.492730	-0.401412	-0.922569
C42	C	1.506659	-0.184081	-0.517943
C43	C	1.512641	-0.091416	-0.512052
C44	C	1.365244	-0.294765	-0.915799
C45	C	1.301521	-0.241425	-0.967274
C46	C	1.301554	-0.241395	-1.076994
C47	C	1.365315	-0.294712	-1.135242
C48	C	1.429038	-0.348052	-1.083767
C49	C	1.429000	-0.348075	-0.974044
C50	C	1.556517	-0.454702	-1.090537
C51	C	1.556491	-0.454729	-0.980817
C52	C	1.620278	-0.508019	-1.148784
C53	C	1.684008	-0.561356	-1.097309
C54	C	1.683973	-0.561383	-0.987583
C55	C	1.620214	-0.508069	-0.929342
C56	C	1.492609	-0.401560	-0.258800
C57	C	1.492794	-0.401362	-0.142011
H58	H	1.079693	-0.605158	-0.800570
H59	H	1.580298	-0.886211	-0.444303
O60	O	1.394164	-0.922999	-0.630126
C61	C	1.403268	-1.009154	-0.621148
H62	H	1.437001	-1.020965	-0.540843
H63	H	1.322511	-1.042376	-0.630275
H64	H	1.457650	-1.033787	-0.685065
O65	O	0.871613	-0.613637	-0.811712
C66	C	0.940549	-0.660735	-0.873932
H67	H	1.018563	-0.663583	-0.831070
H68	H	0.904614	-0.726431	-0.889192
H69	H	0.954215	-0.630276	-0.951847
H70	H	1.365219	-0.294778	-0.826459
O71	O	1.365249	-0.294821	-1.241831
C72	C	1.333145	-0.374718	-1.283559
H73	H	1.285090	-0.409195	-1.222517
H74	H	1.283182	-0.368728	-1.356586
H75	H	1.405199	-0.410838	-1.305315
O76	O	1.745778	-0.613172	-0.937419
C77	C	1.732104	-0.601752	-0.828085
H78	H	1.652788	-0.574440	-0.811358
H79	H	1.735177	-0.664212	-0.790351
H80	H	1.797287	-0.557373	-0.794137
O81	O	1.239686	-0.189660	-0.910531
C82	C	1.253297	-0.201134	-0.802652
H83	H	1.332605	-0.228453	-0.789401
H84	H	1.250200	-0.138695	-0.756990
H85	H	1.188097	-0.245529	-0.774330
H86	H	1.199034	-0.294767	-0.390812
H87	H	1.249664	-0.197962	-1.118904
O88	O	1.620413	-0.507853	-1.255357
C89	C	1.652552	-0.427938	-1.286934
H90	H	1.700563	-0.393499	-1.221515
H91	H	1.702568	-0.433891	-1.360718
H92	H	1.580516	-0.391803	-1.304106
O93	O	0.783663	-0.294785	-0.391048
C94	C	0.748410	-0.273463	-0.490424
H95	H	0.810743	-0.287759	-0.551817
H96	H	0.672593	-0.311097	-0.511412
H97	H	0.733388	-0.204293	-0.488401
H98	H	1.735913	-0.604766	-1.144743
O99	O	0.770028	-0.508324	-0.672560
C100	C	0.731948	-0.529658	-0.573192
H101	H	0.796072	-0.515356	-0.511788
H102	H	0.660960	-0.492037	-0.552212
H103	H	0.708019	-0.598831	-0.575226
H104	H	0.906615	-0.197923	-0.262995
H105	H	1.185398	-0.508308	-0.672704
H106	H	1.620183	-0.508083	-0.840001
H107	H	1.105684	-0.197900	-0.262964
