data_functionalizedCrystal
_audit_creation_method	'MofGen! by Chris Wilmer'
_symmetry_space_group_name_H-M	'P1'
_symmetry_Int_Tables_number	1
_symmetry_cell_setting	triclinic
loop_
_symmetry_equiv_pos_as_xyz
  x,y,z
_cell_length_a	23.532361
_cell_length_b	27.732048
_cell_length_c	22.610064
_cell_angle_alpha	89.999096
_cell_angle_beta	89.996103
_cell_angle_gamma	82.736162
loop_
_atom_site_label
_atom_site_type_symbol
_atom_site_fract_x
_atom_site_fract_y
_atom_site_fract_z
O1	O	0.755156	0.058565	-0.049132
O2	O	0.589270	0.067079	-0.049147
O3	O	0.677365	-0.007568	-0.049127
O4	O	0.667061	0.133211	-0.049151
O5	O	0.677349	-0.007557	0.049242
O6	O	0.589255	0.067090	0.049223
O7	O	0.755140	0.058576	0.049238
Zn8	Zn	0.672195	0.062834	0.064848
Zn9	Zn	0.672215	0.062820	-0.064757
O10	O	0.667045	0.133222	0.049218
C11	C	0.568046	0.066871	0.000036
C12	C	0.504829	0.066230	0.000031
C13	C	0.231600	0.063420	-0.053586
C14	C	0.290999	0.064027	-0.053588
O15	O	0.321731	0.064319	-0.099189
N16	N	0.320695	0.064339	0.000034
C17	C	0.290991	0.064040	0.053660
O18	O	0.321704	0.064361	0.099269
C19	C	0.231594	0.063430	0.053661
C20	C	0.201900	0.063122	0.000036
C21	C	0.201906	0.063112	-0.107206
C22	C	0.142511	0.062506	-0.107205
C23	C	0.112811	0.062208	-0.053583
C24	C	0.142505	0.062516	0.000038
C25	C	0.201892	0.063127	0.107286
C26	C	0.142491	0.062516	0.107283
C27	C	0.112796	0.062209	0.053658
C28	C	0.053410	0.061613	0.053662
N29	N	0.023714	0.061300	0.000041
C30	C	0.053414	0.061598	-0.053582
C31	C	0.415728	0.065321	0.053654
C32	C	0.475123	0.065935	0.053653
C33	C	0.475127	0.065920	-0.053594
C34	C	0.415730	0.065310	-0.053593
C35	C	0.386032	0.065008	0.000033
C36	C	-0.071319	0.060326	-0.053574
C37	C	-0.130719	0.059722	-0.053567
C38	C	-0.130717	0.059734	0.053680
C39	C	-0.071322	0.060340	0.053674
C40	C	-0.041624	0.060635	0.000042
O41	O	0.022641	0.061318	0.099240
O42	O	0.022695	0.061271	-0.099183
C43	C	0.677141	-0.025570	0.000059
C44	C	0.676490	-0.079225	0.000064
C45	C	0.724448	-0.417973	0.000038
C46	C	0.722031	-0.619636	0.000029
O47	O	0.765885	-0.650831	0.000007
N48	N	0.669795	-0.638833	0.000025
C49	C	0.618158	-0.607611	0.000019
O50	O	0.573673	-0.628566	0.000009
C51	C	0.620576	-0.405949	0.000023
C52	C	0.672815	-0.386755	0.000033
C53	C	0.776683	-0.398779	0.000047
C54	C	0.777287	-0.348366	0.000052
C55	C	0.725655	-0.317148	0.000048
C56	C	0.673419	-0.336342	0.000039
C57	C	0.568940	-0.374727	0.000013
C58	C	0.569549	-0.324309	0.000013
C59	C	0.621789	-0.305115	0.000023
C60	C	0.622391	-0.254711	0.000040
N61	N	0.674627	-0.235514	0.000044
C62	C	0.726259	-0.266733	0.000048
C63	C	0.616893	-0.713486	0.000018
C64	C	0.616289	-0.763902	0.000018
C65	C	0.720162	-0.775924	0.000027
C66	C	0.720765	-0.725508	0.000031
C67	C	0.669130	-0.694290	0.000022
C68	C	0.727523	-0.160862	0.000060
C69	C	0.728122	-0.110444	0.000068
C70	C	0.624249	-0.098426	0.000056
C71	C	0.623650	-0.148839	0.000051
C72	C	0.675291	-0.180056	0.000051
O73	O	0.578560	-0.223488	0.000055
O74	O	0.770738	-0.245768	0.000045
C75	C	0.723844	-0.468386	0.000032
C76	C	0.671608	-0.487580	0.000023
C77	C	0.619976	-0.456362	0.000019
C78	C	0.671004	-0.537996	0.000023
C79	C	0.722636	-0.569214	0.000027
C80	C	0.774873	-0.550018	0.000031
C81	C	0.775476	-0.499605	0.000036
C82	C	0.567740	-0.475559	0.000014
C83	C	0.567140	-0.525972	0.000010
C84	C	0.618772	-0.557190	0.000014
C85	C	0.776364	0.058784	0.000053
C86	C	0.839581	0.059425	0.000055
N87	N	0.672185	0.062844	0.153301
C88	C	0.667269	0.151224	0.000031
C89	C	0.667921	0.204880	0.000022
N90	N	0.672230	0.062807	-0.153210
C91	C	0.711225	0.029772	0.561951
C92	C	0.711228	0.029768	0.623871
O93	O	0.744398	0.001656	0.655897
N94	N	0.672215	0.062810	0.654838
C95	C	0.633192	0.095854	0.623882
O96	O	0.600008	0.123958	0.655908
C97	C	0.633187	0.095855	0.561963
C98	C	0.672207	0.062814	0.530999
C99	C	0.750242	-0.003267	0.530987
C100	C	0.750239	-0.003263	0.469071
C101	C	0.711221	0.029780	0.438119
C102	C	0.672205	0.062819	0.469084
C103	C	0.594162	0.128897	0.531009
C104	C	0.594160	0.128895	0.469086
C105	C	0.633180	0.095854	0.438122
C106	C	0.633184	0.095866	0.376216
N107	N	0.672197	0.062824	0.345249
C108	C	0.711216	0.029781	0.376201
C109	C	0.633206	0.095850	0.753916
C110	C	0.633213	0.095851	0.815833
C111	C	0.711248	0.029764	0.815818
C112	C	0.711243	0.029765	0.753899
C113	C	0.672219	0.062808	0.722948
C114	C	0.711208	0.029793	0.246173
C115	C	0.711204	0.029801	0.184252
C116	C	0.633166	0.095886	0.184273
C117	C	0.633172	0.095880	0.246189
C118	C	0.672195	0.062829	0.277138
O119	O	0.600030	0.123962	0.344151
O120	O	0.744389	0.001677	0.344167
H121	H	0.391557	0.065060	-0.097259
H122	H	0.499294	0.066193	0.097320
F123	F	0.831642	-0.431998	0.000051
F124	F	0.560688	-0.784323	0.000018
F125	F	0.752772	-0.005402	0.720950
H126	H	0.742983	0.002879	0.271365
F127	F	0.569302	-0.065192	0.000051
F128	F	0.752775	-0.005403	0.848770
F129	F	0.552632	0.164063	0.563952
H130	H	0.762202	-0.801351	0.000031
H131	H	0.118340	0.062254	-0.150872
F132	F	0.561931	-0.680267	0.000008
H133	H	-0.047146	0.060600	0.097339
F134	F	-0.162337	0.059419	0.110746
F135	F	0.591672	0.131023	0.720981
H136	H	0.499320	0.066163	-0.097256
F137	F	0.782485	-0.194078	0.000060
H138	H	0.770664	-0.094820	0.000078
H139	H	0.391550	0.065081	0.097325
F140	F	0.591690	0.131024	0.848782
F141	F	0.552622	0.164063	0.436150
F142	F	0.591649	0.131051	0.279142
F143	F	0.832888	-0.327946	0.000051
H144	H	0.818015	-0.483982	0.000045
H145	H	0.601400	0.122791	0.159063
H146	H	0.526401	-0.390345	0.000001
F147	F	0.776365	-0.705085	0.000042
F148	F	0.233482	0.063454	0.164362
H149	H	0.118313	0.062275	0.150952
H150	H	0.581112	-0.164467	0.000059
F151	F	-0.162318	0.059396	-0.110645
F152	F	0.233506	0.063428	-0.164284
F153	F	0.514589	-0.291087	0.000002
F154	F	0.511535	-0.546393	0.000003
F155	F	-0.039720	0.060640	-0.110655
F156	F	0.829823	-0.583252	0.000039
F157	F	0.512783	-0.442339	0.000008
H158	H	0.782011	-0.030169	0.443863
F159	F	0.752736	-0.005366	0.151301
F160	F	0.791773	-0.038439	0.563919
