data_functionalizedCrystal
_audit_creation_method	'MofGen! by Chris Wilmer'
_symmetry_space_group_name_H-M	'P1'
_symmetry_Int_Tables_number	1
_symmetry_cell_setting	triclinic
loop_
_symmetry_equiv_pos_as_xyz
  x,y,z
_cell_length_a	13.339070
_cell_length_b	14.044190
_cell_length_c	12.376457
_cell_angle_alpha	102.316217
_cell_angle_beta	75.589755
_cell_angle_gamma	104.410535
loop_
_atom_site_label
_atom_site_type_symbol
_atom_site_fract_x
_atom_site_fract_y
_atom_site_fract_z
O1	O	1.404430	0.473358	-0.094098
O2	O	1.104133	0.409470	-0.094085
O3	O	1.249766	0.302246	-0.094069
O4	O	1.258797	0.580582	-0.094114
O5	O	1.213368	0.329005	0.093939
O6	O	1.067735	0.436229	0.093924
O7	O	1.368032	0.500117	0.093910
Zn8	Zn	1.212104	0.472421	0.123767
Zn9	Zn	1.260061	0.437165	-0.123942
O10	O	1.222399	0.607341	0.093894
C11	C	1.047270	0.412058	-0.000078
C12	C	0.932064	0.379890	-0.000072
C13	C	0.589860	0.630010	-0.000130
C14	C	0.698103	0.660236	-0.000140
C15	C	0.756598	0.590152	-0.000122
C16	C	0.706840	0.489837	-0.000097
C17	C	0.598588	0.459606	-0.000096
C18	C	0.765327	0.419749	-0.000088
C19	C	0.715569	0.319433	-0.000062
C20	C	0.607327	0.289208	-0.000061
C21	C	0.548832	0.359292	-0.000078
C22	C	0.873579	0.449979	-0.000089
C23	C	0.882307	0.279575	-0.000054
C24	C	0.774064	0.249349	-0.000045
C25	C	1.227619	0.279273	-0.000061
C26	C	1.215844	0.170952	-0.000051
C27	C	1.277829	-0.063041	-0.000098
C28	C	1.194343	-0.027367	-0.000086
C29	C	1.206309	0.082989	-0.000067
C30	C	1.265864	-0.173406	-0.000118
C31	C	1.424895	0.497529	-0.000099
C32	C	1.540103	0.529696	-0.000112
C33	C	1.244546	0.630313	-0.000116
C34	C	1.256323	0.738633	-0.000134
N35	N	1.179382	0.496484	0.292822
N36	N	1.292790	0.413097	-0.292997
C37	C	1.368746	0.357220	0.647827
C38	C	1.391642	0.340377	0.529490
C39	C	1.338579	0.379402	0.470317
C40	C	1.262616	0.435274	0.529493
C41	C	1.239724	0.452125	0.647842
C42	C	1.209556	0.474307	0.470332
C43	C	1.133594	0.530179	0.529508
C44	C	1.110704	0.547027	0.647846
C45	C	1.163768	0.508002	0.707018
C46	C	1.232449	0.457456	0.351983
C47	C	1.103427	0.552361	0.351998
C48	C	1.080530	0.569204	0.470336
H49	H	0.914080	0.531656	-0.000105
Cl50	Cl	0.711499	0.123242	-0.000014
H51	H	1.113881	-0.079704	-0.000089
H52	H	1.294298	0.411965	0.303812
H53	H	1.357224	0.365686	0.373961
Cl54	Cl	0.985038	0.639442	0.544740
H55	H	0.566820	0.207524	-0.000052
Cl56	Cl	0.892676	0.628153	-0.000130
H57	H	1.145123	0.521712	0.803379
H58	H	0.542225	0.687060	-0.000154
H59	H	0.738610	0.741911	-0.000170
H60	H	1.453491	0.294888	0.481313
H61	H	1.048860	0.592530	0.696027
Cl62	Cl	1.036719	0.601428	0.277617
Cl63	Cl	1.402046	0.017760	-0.000086
H64	H	1.411949	0.325457	0.696013
H65	H	0.460691	0.334687	-0.000070
H66	H	0.929935	0.222506	-0.000045
