data_functionalizedCrystal
_audit_creation_method	'MofGen! by Chris Wilmer'
_symmetry_space_group_name_H-M	'P1'
_symmetry_Int_Tables_number	1
_symmetry_cell_setting	triclinic
loop_
_symmetry_equiv_pos_as_xyz
  x,y,z
_cell_length_a	10.489741
_cell_length_b	14.853567
_cell_length_c	13.930277
_cell_angle_alpha	90.000757
_cell_angle_beta	89.990801
_cell_angle_gamma	95.912948
loop_
_atom_site_label
_atom_site_type_symbol
_atom_site_fract_x
_atom_site_fract_y
_atom_site_fract_z
O1	O	1.692631	-0.127194	-0.079867
O2	O	1.321301	-0.139134	-0.079858
O3	O	1.516885	-0.001990	-0.079865
O4	O	1.497048	-0.264338	-0.079859
O5	O	1.516858	-0.001987	0.079796
O6	O	1.321274	-0.139131	0.079804
O7	O	1.692604	-0.127191	0.079795
Zn8	Zn	1.506935	-0.133160	0.105149
Zn9	Zn	1.506971	-0.133165	-0.105212
O10	O	1.497020	-0.264335	0.079803
C11	C	1.515973	0.031605	-0.000037
C12	C	1.513279	0.131704	-0.000046
C13	C	1.273766	-0.138230	-0.000026
C14	C	1.132167	-0.135533	-0.000023
C15	C	1.740139	-0.128095	-0.000039
C16	C	1.881738	-0.130793	-0.000048
C17	C	1.948899	-0.218053	-0.000036
C18	C	2.041502	-0.176834	-0.078755
C19	C	2.041441	-0.176810	0.078659
C20	C	1.972476	-0.089537	-0.078832
C21	C	1.972406	-0.089525	0.078652
C22	C	2.064982	-0.048243	-0.000086
C23	C	1.497933	-0.297930	-0.000028
C24	C	1.500626	-0.398029	-0.000026
N25	N	1.506920	-0.133157	0.248715
C26	C	1.385712	0.544953	-0.000024
C27	C	1.618070	0.564931	-0.000030
C28	C	1.620602	0.470883	-0.000035
C29	C	1.505688	0.413866	-0.000034
C30	C	1.388241	0.450896	-0.000027
C31	C	1.738047	0.433846	-0.000033
C32	C	1.740585	0.339793	-0.000037
C33	C	1.625669	0.282773	-0.000043
C34	C	1.508217	0.319809	-0.000037
C35	C	1.393303	0.262791	-0.000036
C36	C	1.275850	0.299825	-0.000036
C37	C	1.273325	0.393877	-0.000033
C38	C	1.628193	0.188722	-0.000047
C39	C	1.395832	0.168735	-0.000038
N40	N	1.506996	-0.133161	-0.248778
C41	C	1.420363	-0.193868	0.700988
C42	C	1.593614	-0.072455	0.700951
C43	C	1.593598	-0.072452	0.600455
C44	C	1.506965	-0.133159	0.550221
C45	C	1.420348	-0.193869	0.600483
C46	C	1.680223	-0.011749	0.550186
C47	C	1.680213	-0.011744	0.449684
C48	C	1.593572	-0.072448	0.399448
C49	C	1.506950	-0.133159	0.449716
C50	C	1.420317	-0.193866	0.399482
C51	C	1.333688	-0.254574	0.449748
C52	C	1.333707	-0.254572	0.550247
C53	C	1.593553	-0.072450	0.298949
C54	C	1.420302	-0.193867	0.298977
H55	H	2.072119	-0.213758	-0.145304
O56	O	1.764540	0.047140	0.598929
C57	C	1.986217	0.098509	0.629592
C58	C	1.890874	0.031739	0.574348
H59	H	2.088377	0.086093	0.609723
H60	H	1.971458	0.088097	0.710069
H61	H	1.969386	0.170819	0.609831
H62	H	1.907646	-0.040597	0.594028
H63	H	1.905655	0.042230	0.493884
H64	H	1.750749	0.037688	0.408763
H65	H	1.942073	-0.052651	-0.145464
O66	O	1.935870	-0.045644	0.158146
C67	C	1.929236	-0.041995	0.331001
C68	C	1.970660	-0.091781	0.241045
H69	H	1.957371	-0.079265	0.398047
H70	H	1.820926	-0.039815	0.329913
H71	H	1.978827	0.030000	0.331632
H72	H	1.921159	-0.163797	0.240355
H73	H	2.078982	-0.093888	0.242168
O74	O	1.849630	0.489270	-0.000199
C75	C	1.981594	0.607103	-0.082882
C76	C	1.855190	0.544365	-0.082824
H77	H	1.986119	0.651677	-0.149667
H78	H	2.066026	0.564530	-0.082940
H79	H	1.986175	0.651594	-0.016034
H80	H	1.850484	0.499863	-0.149661
H81	H	1.770817	0.586992	-0.082717
H82	H	1.836222	0.309648	-0.000038
H83	H	1.182287	0.253390	-0.000029
H84	H	2.115204	0.023570	-0.000126
H85	H	1.302253	0.122316	-0.000042
H86	H	2.071991	-0.213746	0.145213
O87	O	1.677568	-0.013372	0.250153
C88	C	1.752122	0.142864	0.219401
C89	C	1.656879	0.076059	0.274711
H90	H	1.735446	0.215182	0.239251
H91	H	1.737216	0.132503	0.138934
H92	H	1.854287	0.130352	0.239121
H93	H	1.554676	0.088530	0.255072
H94	H	1.671897	0.086435	0.355164
H95	H	1.177701	0.424039	-0.000032
O96	O	1.742191	0.152638	-0.000174
C97	C	1.879948	0.058095	-0.082924
C98	C	1.750783	0.098881	-0.082887
H99	H	1.886948	0.014639	-0.149801
H100	H	1.886943	0.014497	-0.016155
H101	H	1.961626	0.115015	-0.082872
H102	H	1.669031	0.042019	-0.082973
H103	H	1.743900	0.142502	-0.149650
H104	H	1.263178	-0.303999	0.591180
H105	H	1.290084	0.575111	-0.000029
H106	H	1.349827	-0.243293	0.741917
H107	H	1.711628	0.611360	-0.000023
O108	O	1.336096	-0.252927	0.250332
C109	C	1.164198	-0.373313	0.260976
C110	C	1.259509	-0.306492	0.316185
H111	H	1.102234	-0.416625	0.314193
H112	H	1.219266	-0.418798	0.213943
H113	H	1.100470	-0.333932	0.213908
H114	H	1.323260	-0.345799	0.363305
H115	H	1.204361	-0.261006	0.363157
H116	H	1.263156	-0.304006	0.408836
H117	H	1.898445	-0.289799	-0.000114
O118	O	1.677875	-0.013446	0.749595
C119	C	1.849630	0.107044	0.738960
C120	C	1.754299	0.040240	0.683746
H121	H	1.911425	0.150479	0.685745
H122	H	1.913518	0.067738	0.785975
H123	H	1.794449	0.152413	0.786045
H124	H	1.809375	-0.005145	0.636609
H125	H	1.690411	0.079602	0.636791
