data_functionalizedCrystal
_audit_creation_method	'MofGen! by Chris Wilmer'
_symmetry_space_group_name_H-M	'P1'
_symmetry_Int_Tables_number	1
_symmetry_cell_setting	triclinic
loop_
_symmetry_equiv_pos_as_xyz
  x,y,z
_cell_length_a	18.050590
_cell_length_b	25.639239
_cell_length_c	18.050582
_cell_angle_alpha	90.024638
_cell_angle_beta	89.999233
_cell_angle_gamma	90.027853
loop_
_atom_site_label
_atom_site_type_symbol
_atom_site_fract_x
_atom_site_fract_y
_atom_site_fract_z
Zn1	Zn	1.135238	-0.208335	0.419591
Zn2	Zn	1.635238	0.291665	0.919591
Zn3	Zn	1.135126	-0.295763	0.295396
Zn4	Zn	1.635126	0.204237	0.795396
Zn5	Zn	1.011058	-0.208327	0.295449
Zn6	Zn	1.511058	0.291673	0.795449
Zn7	Zn	1.010983	-0.295725	0.419579
Zn8	Zn	1.510983	0.204275	0.919579
O9	O	1.073101	-0.252037	0.357504
O10	O	1.573101	0.247963	0.857504
O11	O	1.239148	-0.219952	0.403099
O12	O	1.739148	0.280048	0.903099
O13	O	1.118653	-0.284177	0.191479
O14	O	1.618653	0.215823	0.691479
O15	O	1.027609	-0.135163	0.311944
O16	O	1.527609	0.364837	0.811944
O17	O	1.239066	-0.284185	0.311854
O18	O	1.739066	0.215815	0.811854
O19	O	1.118844	-0.135169	0.403150
O20	O	1.618844	0.364831	0.903150
O21	O	1.027500	-0.219938	0.191517
O22	O	1.527500	0.280062	0.691517
O23	O	0.907123	-0.219901	0.311932
O24	O	1.407123	0.280099	0.811932
O25	O	1.027481	-0.284120	0.523505
O26	O	1.527481	0.215880	1.023505
O27	O	0.907068	-0.284112	0.403130
O28	O	1.407068	0.215888	0.903130
O29	O	1.118771	-0.219915	0.523514
O30	O	1.618771	0.280085	1.023514
O31	O	1.118580	-0.368923	0.311843
O32	O	1.618580	0.131077	0.811843
O33	O	1.027373	-0.368895	0.403079
O34	O	1.527373	0.131105	0.903079
C35	C	0.880149	-0.252002	0.357536
C36	C	1.380149	0.247998	0.857536
C37	C	0.797603	-0.251999	0.357567
C38	C	1.297603	0.248001	0.857567
C39	C	0.598144	-0.287017	0.407043
C40	C	1.098144	0.212983	0.907043
C41	C	0.548764	-0.239344	0.425320
C42	C	1.048764	0.260656	0.925320
C43	C	0.646473	-0.252028	0.357531
C44	C	1.146473	0.247972	0.857531
C45	C	0.548772	-0.299728	0.339253
C46	C	1.048772	0.200272	0.839253
C47	C	0.500488	-0.252061	0.357497
C48	C	1.000488	0.247939	0.857497
C49	C	0.598180	-0.204330	0.375844
C50	C	1.098180	0.295670	0.875844
C51	C	0.598192	-0.264747	0.289745
C52	C	1.098192	0.235253	0.789745
C53	C	0.548834	-0.217041	0.307997
C54	C	1.048834	0.282959	0.807997
C55	C	0.730571	-0.252010	0.357552
C56	C	1.230571	0.247990	0.857552
C57	C	0.416391	-0.252073	0.357476
C58	C	0.916391	0.247927	0.857476
C59	C	1.072976	-0.387880	0.357470
C60	C	1.572976	0.112120	0.857470
C61	C	1.072991	-0.445994	0.357480
C62	C	1.572991	0.054006	0.857480
C63	C	1.120717	-0.806359	0.310078
C64	C	1.620717	-0.306359	0.810078
C65	C	1.120746	-0.860963	0.310088
C66	C	1.620746	-0.360963	0.810088
O67	O	1.161195	-0.889202	0.269748
O68	O	1.661195	-0.389202	0.769748
N69	N	1.073232	-0.888277	0.357553
N70	N	1.573232	-0.388277	0.857553
C71	C	1.025691	-0.860982	0.405017
C72	C	1.525691	-0.360982	0.905017
O73	O	0.985280	-0.889228	0.445391
O74	O	1.485280	-0.389228	0.945391
C75	C	1.025667	-0.806379	0.405010
C76	C	1.525667	-0.306379	0.905010
C77	C	1.073179	-0.779069	0.357536
C78	C	1.573179	-0.279069	0.857536
C79	C	1.168226	-0.779049	0.262609
C80	C	1.668226	-0.279049	0.762609
C81	C	1.168196	-0.724448	0.262598
C82	C	1.668196	-0.224448	0.762598
C83	C	1.120657	-0.697158	0.310057
C84	C	1.620657	-0.197158	0.810057
C85	C	1.073149	-0.724468	0.357526
C86	C	1.573149	-0.224468	0.857526
C87	C	0.978131	-0.779086	0.452477
C88	C	1.478131	-0.279086	0.952477
C89	C	0.978111	-0.724479	0.452466
C90	C	1.478111	-0.224479	0.952466
C91	C	1.025622	-0.697169	0.404993
C92	C	1.525622	-0.197169	0.904993
C93	C	1.025580	-0.642578	0.404973
C94	C	1.525580	-0.142578	0.904973
N95	N	1.073094	-0.615265	0.357508
N96	N	1.573094	-0.115265	0.857508
C97	C	1.120633	-0.642555	0.310050
C98	C	1.620633	-0.142555	0.810050
C99	C	1.025747	-0.975653	0.405028
C100	C	1.525747	-0.475653	0.905028
C101	C	1.025767	-1.030255	0.405032
C102	C	1.525767	-0.530255	0.905032
C103	C	1.120823	-1.030233	0.310104
C104	C	1.620823	-0.530233	0.810104
C105	C	1.120799	-0.975629	0.310097
C106	C	1.620799	-0.475629	0.810097
C107	C	1.073261	-0.948340	0.357563
C108	C	1.573261	-0.448340	0.857563
C109	C	1.120566	-0.527890	0.310030
C110	C	1.620566	-0.027890	0.810030
C111	C	1.120529	-0.473284	0.310022
C112	C	1.620529	0.026716	0.810022
C113	C	1.025477	-0.473312	0.404952
C114	C	1.525477	0.026688	0.904952
C115	C	1.025510	-0.527913	0.404958
C116	C	1.525510	-0.027913	0.904958
C117	C	1.073061	-0.555200	0.357495
C118	C	1.573061	-0.055200	0.857495
O119	O	0.985154	-0.614305	0.445295
O120	O	1.485154	-0.114305	0.945295
O121	O	1.161044	-0.614302	0.269689
O122	O	1.661044	-0.114302	0.769689
C123	C	1.266807	-0.252074	0.357472
C124	C	1.766807	0.247926	0.857472
C125	C	1.349353	-0.252089	0.357459
C126	C	1.849353	0.247911	0.857459
C127	C	1.073130	-0.252014	0.551210
C128	C	1.573130	0.247986	1.051210
C129	C	1.073143	-0.252004	0.633755
C130	C	1.573143	0.247996	1.133755
C131	C	1.073247	-0.115664	0.357554
C132	C	1.573247	0.384336	0.857554
C133	C	1.073309	-0.057550	0.357576
C134	C	1.573309	0.442450	0.857576
C135	C	1.073115	-0.252023	0.164552
C136	C	1.573115	0.247977	0.664552
C137	C	1.073247	-0.251885	0.082006
C138	C	1.573247	0.248115	0.582006
C139	C	1.023537	-0.286871	0.833201
C140	C	1.523537	0.213129	1.333201
C141	C	1.091289	-0.299661	0.882573
C142	C	1.591289	0.200339	1.382573
C143	C	1.073179	-0.251965	0.784886
C144	C	1.573179	0.248035	1.284886
C145	C	1.005465	-0.239161	0.882595
C146	C	1.505465	0.260839	1.382595
C147	C	1.073209	-0.251927	0.930871
C148	C	1.573209	0.248073	1.430871
C149	C	1.140967	-0.264779	0.833171
C150	C	1.640967	0.235221	1.333171
C151	C	1.055097	-0.204257	0.833188
C152	C	1.555097	0.295743	1.333188
C153	C	1.122895	-0.217028	0.882538
C154	C	1.622895	0.282972	1.382538
C155	C	1.073162	-0.251988	0.700787
C156	C	1.573162	0.248012	1.200787
C157	C	1.073234	-0.251904	1.014968
C158	C	1.573234	0.248096	1.514968
H159	H	0.619799	-0.316554	0.448960
H160	H	1.119799	0.183446	0.948960
H161	H	0.527066	-0.340054	0.323809
H162	H	1.027066	0.159946	0.823809
Br163	Br	1.192964	-0.167799	0.918422
Br164	Br	1.692964	0.332201	1.418422
Br165	Br	1.232753	-0.816075	0.198194
Br166	Br	1.732753	-0.316075	0.698194
Br167	Br	1.029543	-0.137056	0.797002
Br168	Br	1.529543	0.362944	1.297002
Br169	Br	0.512577	-0.221430	0.520841
Br170	Br	1.012577	0.278570	1.020841
H171	H	1.206886	-0.702215	0.223943
H172	H	1.706886	-0.202215	0.723943
Br173	Br	1.185280	-0.938571	0.245666
Br174	Br	1.685280	-0.438571	0.745666
Br175	Br	0.634379	-0.282671	0.194232
Br176	Br	1.134379	0.217329	0.694232
Br177	Br	0.953631	-0.336133	0.797092
Br178	Br	1.453631	0.163867	1.297092
Br179	Br	1.236461	-0.282885	0.797144
Br180	Br	1.736461	0.217115	1.297144
Br181	Br	0.634194	-0.137097	0.401696
Br182	Br	1.134194	0.362903	0.901696
Br183	Br	0.961221	-0.938623	0.469448
Br184	Br	1.461221	-0.438623	0.969448
Br185	Br	1.185337	-1.067280	0.245692
Br186	Br	1.685337	-0.567280	0.745692
Br187	Br	0.961274	-1.067313	0.469452
Br188	Br	1.461274	-0.567313	0.969452
Br189	Br	0.910000	-0.221136	0.918783
Br190	Br	1.410000	0.278864	1.418783
H191	H	0.527319	-0.187432	0.266112
H192	H	1.027319	0.312568	0.766112
Br193	Br	1.185013	-0.436224	0.245588
Br194	Br	1.685013	0.063776	0.745588
H195	H	1.159288	-0.550101	0.271383
H196	H	1.659288	-0.050101	0.771383
Br197	Br	0.913654	-0.816136	0.516917
Br198	Br	1.413654	-0.316136	1.016917
Br199	Br	0.913594	-0.687447	0.516891
Br200	Br	1.413594	-0.187447	1.016891
H201	H	0.986824	-0.550150	0.443618
H202	H	1.486824	-0.050150	0.943618
H203	H	0.986769	-0.451084	0.443590
H204	H	1.486769	0.048916	0.943590
H205	H	1.106602	-0.339990	0.904266
H206	H	1.606602	0.160010	1.404266
