data_functionalizedCrystal
_audit_creation_method	'MofGen! by Chris Wilmer'
_symmetry_space_group_name_H-M	'P1'
_symmetry_Int_Tables_number	1
_symmetry_cell_setting	triclinic
loop_
_symmetry_equiv_pos_as_xyz
  x,y,z
_cell_length_a	10.654546
_cell_length_b	14.853559
_cell_length_c	9.130313
_cell_angle_alpha	90.000938
_cell_angle_beta	89.998822
_cell_angle_gamma	84.057469
loop_
_atom_site_label
_atom_site_type_symbol
_atom_site_fract_x
_atom_site_fract_y
_atom_site_fract_z
O1	O	1.666516	0.126607	-0.121824
O2	O	1.300911	0.138675	-0.121819
O3	O	1.493485	0.001463	-0.121820
O4	O	1.473942	0.263819	-0.121823
O5	O	1.493482	0.001467	0.121779
O6	O	1.300909	0.138679	0.121780
O7	O	1.666514	0.126611	0.121775
Cu8	Cu	1.483711	0.132645	0.144020
Cu9	Cu	1.483714	0.132641	-0.144064
O10	O	1.473940	0.263823	0.121776
C11	C	1.254121	0.137791	-0.000019
C12	C	1.114705	0.135142	-0.000017
C13	C	1.049225	0.133887	-0.132810
C14	C	0.918230	0.131391	-0.132821
C15	C	0.918208	0.131402	0.132763
C16	C	1.049200	0.133905	0.132774
C17	C	1.049237	0.133876	-0.286143
C18	C	0.918242	0.131380	-0.286155
C19	C	1.492600	-0.032129	-0.000023
C20	C	1.489952	-0.132227	-0.000031
C21	C	1.478721	-0.555464	-0.132817
C22	C	1.478718	-0.555455	0.132764
C23	C	1.481216	-0.461408	0.132765
C24	C	1.482465	-0.414385	-0.000027
C25	C	1.481215	-0.461408	-0.132820
C26	C	1.482453	-0.414376	0.265556
C27	C	1.484950	-0.320324	0.265562
C28	C	1.486208	-0.273300	0.132769
C29	C	1.484960	-0.320329	-0.000030
C30	C	1.486208	-0.273306	-0.132822
C31	C	1.484969	-0.320334	-0.265622
C32	C	1.482473	-0.414384	-0.265613
C33	C	1.488704	-0.179250	0.132761
C34	C	1.488703	-0.179250	-0.132824
C35	C	1.713304	0.127495	-0.000028
C36	C	1.852719	0.130144	-0.000039
C37	C	1.474824	0.297415	-0.000024
C38	C	1.477472	0.397513	-0.000025
N39	N	1.483718	0.132648	0.346643
N40	N	1.483716	0.132631	-0.346686
C41	C	1.569011	0.071911	0.423294
C42	C	1.569008	0.071900	0.576631
C43	C	1.398414	0.193371	0.576651
C44	C	1.398412	0.193376	0.423317
C45	C	1.667506	0.001784	0.423284
C46	C	1.667503	0.001773	0.576621
H47	H	1.489725	-0.140971	-0.240961
N48	N	1.795123	0.022238	0.631751
H49	H	1.785087	0.079056	0.693233
H50	H	1.833640	-0.030061	0.693137
N51	N	1.481118	-0.465088	0.408776
H52	H	1.559339	-0.455533	0.466820
H53	H	1.403712	-0.441874	0.466717
H54	H	0.894092	0.067719	-0.345026
H55	H	1.758461	0.023741	0.375724
N56	N	0.847554	0.130070	0.275981
H57	H	0.754420	0.129569	0.255835
H58	H	0.879323	0.074068	0.333080
H59	H	1.102507	0.134937	0.240906
N60	N	1.486311	-0.269609	0.408790
H61	H	1.488087	-0.202893	0.388643
H62	H	1.408086	-0.279218	0.466785
N63	N	1.118635	0.048833	-0.349163
H64	H	1.169138	0.064798	-0.437324
H65	H	1.177378	0.018854	-0.272677
N66	N	1.640066	-0.090000	0.368136
H67	H	1.627812	-0.130963	0.454125
H68	H	1.560857	-0.083188	0.306643
N69	N	1.081251	0.218188	-0.364131
H70	H	1.001054	0.254012	-0.398933
H71	H	1.127057	0.256353	-0.294587
H72	H	1.481463	-0.452683	-0.373732
N73	N	1.628007	-0.084967	0.639616
H74	H	1.629447	-0.081805	0.750096
H75	H	1.539849	-0.093398	0.605378
H76	H	1.328959	0.242814	0.639096
N77	N	1.477394	-0.606180	-0.276047
H78	H	1.475629	-0.672897	-0.255904
H79	H	1.400040	-0.582918	-0.334035
N80	N	1.490037	-0.128519	0.275968
H81	H	1.411811	-0.138056	0.334019
H82	H	1.567437	-0.151733	0.333914
H83	H	1.328949	0.242825	0.360909
N84	N	1.477387	-0.606168	0.275983
H85	H	1.475623	-0.672885	0.255834
H86	H	1.555625	-0.596549	0.333945
N87	N	0.848849	0.216412	-0.349222
H88	H	0.868339	0.270376	-0.289231
H89	H	0.876717	0.224273	-0.453763
H90	H	1.485976	-0.282035	-0.373741
