data_functionalizedCrystal
_audit_creation_method	'MofGen! by Chris Wilmer'
_symmetry_space_group_name_H-M	'P1'
_symmetry_Int_Tables_number	1
_symmetry_cell_setting	triclinic
loop_
_symmetry_equiv_pos_as_xyz
  x,y,z
_cell_length_a	14.421503
_cell_length_b	19.288864
_cell_length_c	19.288865
_cell_angle_alpha	96.863755
_cell_angle_beta	90.000948
_cell_angle_gamma	89.978553
loop_
_atom_site_label
_atom_site_type_symbol
_atom_site_fract_x
_atom_site_fract_y
_atom_site_fract_z
O1	O	0.077420	-0.921353	0.086638
O2	O	0.410753	-0.588019	0.419971
O3	O	0.744086	-0.254686	0.753305
O4	O	0.077358	-0.719092	0.098327
O5	O	0.410691	-0.385759	0.431660
O6	O	0.744024	-0.052425	0.764993
O7	O	0.077372	-0.826067	-0.008648
O8	O	0.410705	-0.492733	0.324685
O9	O	0.744039	-0.159400	0.658019
O10	O	0.077405	-0.814378	0.193613
O11	O	0.410738	-0.481045	0.526946
O12	O	0.744072	-0.147711	0.860279
O13	O	-0.076851	-0.826049	-0.008632
O14	O	0.256482	-0.492716	0.324701
O15	O	0.589815	-0.159382	0.658035
O16	O	-0.076866	-0.719074	0.098343
O17	O	0.256467	-0.385741	0.431676
O18	O	0.589801	-0.052408	0.765009
O19	O	-0.076804	-0.921335	0.086654
O20	O	0.256529	-0.588002	0.419987
O21	O	0.589863	-0.254668	0.753321
Cu22	Cu	-0.090917	-0.820203	0.092500
Cu23	Cu	0.242417	-0.486870	0.425833
Cu24	Cu	0.575750	-0.153536	0.759166
Cu25	Cu	0.091470	-0.820224	0.092481
Cu26	Cu	0.424804	-0.486891	0.425814
Cu27	Cu	0.758137	-0.153557	0.759148
O28	O	-0.076818	-0.814360	0.193629
O29	O	0.256515	-0.481027	0.526962
O30	O	0.589848	-0.147693	0.860295
C31	C	0.000238	-0.693207	0.097959
C32	C	0.333571	-0.359873	0.431292
C33	C	0.666904	-0.026540	0.764625
C34	C	0.000213	-0.616103	0.096830
C35	C	0.333547	-0.282770	0.430163
C36	C	0.666880	0.050564	0.763496
N37	N	-0.219198	-0.820193	0.092513
N38	N	0.114135	-0.486860	0.425846
N39	N	0.447469	-0.153527	0.759179
C40	C	0.000257	-0.825682	-0.034516
C41	C	0.333591	-0.492348	0.298817
C42	C	0.666924	-0.159015	0.632150
C43	C	0.000249	-0.824553	-0.111620
C44	C	0.333582	-0.491219	0.221713
C45	C	0.666916	-0.157886	0.555047
C46	C	-0.468858	-0.770720	0.141956
C47	C	-0.135525	-0.437386	0.475289
C48	C	0.197808	-0.104053	0.808622
C49	C	-0.530639	-0.833441	0.155241
C50	C	-0.197305	-0.500107	0.488574
C51	C	0.136028	-0.166774	0.821907
C52	C	-0.408359	-0.820210	0.092496
C53	C	-0.075026	-0.486877	0.425829
C54	C	0.258307	-0.153544	0.759163
C55	C	-0.530673	-0.757505	0.079227
C56	C	-0.197339	-0.424172	0.412560
C57	C	0.135994	-0.090839	0.745894
C58	C	-0.591081	-0.820221	0.092481
C59	C	-0.257747	-0.486888	0.425815
C60	C	0.075586	-0.153554	0.759148
C61	C	-0.468779	-0.882963	0.105812
C62	C	-0.135446	-0.549630	0.439146
C63	C	0.197888	-0.216296	0.772479
C64	C	-0.468808	-0.806986	0.029771
C65	C	-0.135474	-0.473653	0.363105
C66	C	0.197859	-0.140320	0.696438
C67	C	-0.530560	-0.869753	0.043030
C68	C	-0.197227	-0.536419	0.376363
C69	C	0.136106	-0.203086	0.709696
C70	C	-0.303098	-0.820203	0.092506
C71	C	0.030235	-0.486870	0.425839
C72	C	0.363568	-0.153536	0.759173
C73	C	-0.696340	-0.820235	0.092471
C74	C	-0.363006	-0.486902	0.425804
C75	C	-0.029673	-0.153569	0.759137
N76	N	0.219752	-0.820239	0.092463
N77	N	0.553085	-0.486906	0.425796
N78	N	0.886418	-0.153572	0.759129
C79	C	0.000318	-0.947220	0.087022
C80	C	0.333651	-0.613887	0.420355
C81	C	0.666985	-0.280553	0.753689
C82	C	0.000349	-1.024324	0.088151
C83	C	0.333682	-0.690990	0.421484
C84	C	0.667015	-0.357657	0.754818
C85	C	0.000238	-0.571407	0.159598
C86	C	0.333571	-0.238073	0.492931
C87	C	0.666905	0.095260	0.826264
C88	C	0.000248	-0.498960	0.158537
C89	C	0.333581	-0.165626	0.491870
C90	C	0.666915	0.167707	0.825204
C91	C	0.000252	-0.471212	0.094705
C92	C	0.333585	-0.137879	0.428038
C93	C	0.666919	0.195455	0.761371
C94	C	0.000222	-0.515918	0.031929
C95	C	0.333555	-0.182585	0.365262
C96	C	0.666889	0.150748	0.698595
C97	C	0.000202	-0.588364	0.032991
C98	C	0.333536	-0.255030	0.366324
C99	C	0.666869	0.078303	0.699658
C100	C	0.054306	-0.362956	0.044520
C101	C	0.387640	-0.029623	0.377853
C102	C	0.720973	0.303710	0.711187
C103	C	0.054331	-0.290512	0.043460
C104	C	0.387665	0.042821	0.376793
C105	C	0.720998	0.376155	0.710127
C106	C	0.000308	-0.247767	0.091425
C107	C	0.333641	0.085567	0.424758
C108	C	0.666974	0.418900	0.758092
C109	C	-0.053729	-0.277473	0.140462
C110	C	0.279604	0.055860	0.473795
C111	C	0.612937	0.389194	0.807128
C112	C	-0.053749	-0.349919	0.141524
C113	C	0.279585	-0.016585	0.474857
C114	C	0.612918	0.316748	0.808191
C115	C	0.000272	-0.392658	0.093546
C116	C	0.333606	-0.059325	0.426879
C117	C	0.666939	0.274009	0.760212
C118	C	0.000342	-0.124514	0.153047
C119	C	0.333675	0.208819	0.486381
C120	C	0.667009	0.542152	0.819714
C121	C	0.000346	-0.052066	0.151984
C122	C	0.333680	0.281267	0.485317
C123	C	0.667013	0.614600	0.818650
C124	C	0.000329	-0.069026	0.025374
C125	C	0.333663	0.264307	0.358707
C126	C	0.666996	0.597640	0.692040
C127	C	0.000316	-0.141473	0.026439
C128	C	0.333649	0.191860	0.359772
C129	C	0.666982	0.525194	0.693106
C130	C	0.000326	-0.169212	0.090277
C131	C	0.333660	0.164121	0.423611
C132	C	0.666993	0.497454	0.756944
C133	C	0.000264	-0.887321	-0.156316
C134	C	0.333597	-0.553987	0.177017
C135	C	0.666930	-0.220654	0.510350
C136	C	0.000278	-0.886260	-0.228763
C137	C	0.333611	-0.552927	0.104570
C138	C	0.666945	-0.219593	0.437903
C139	C	0.000259	-0.822428	-0.256511
C140	C	0.333592	-0.489094	0.076822
C141	C	0.666926	-0.155761	0.410156
C142	C	0.000250	-0.759652	-0.211805
C143	C	0.333583	-0.426318	0.121529
C144	C	0.666916	-0.092985	0.454862
C145	C	0.000244	-0.760714	-0.139359
C146	C	0.333578	-0.427381	0.193974
C147	C	0.666911	-0.094047	0.527307
C148	C	-0.053778	-0.772242	-0.364793
C149	C	0.279556	-0.438909	-0.031459
C150	C	0.612889	-0.105575	0.301874
C151	C	-0.053778	-0.771182	-0.437237
C152	C	0.279555	-0.437849	-0.103904
C153	C	0.612888	-0.104515	0.229429
C154	C	0.000279	-0.819148	-0.479956
C155	C	0.333612	-0.485815	-0.146623
C156	C	0.666945	-0.152481	0.186710
C157	C	0.054324	-0.868186	-0.450224
C158	C	0.387658	-0.534852	-0.116891
C159	C	0.720991	-0.201519	0.216443
C160	C	0.054319	-0.869248	-0.377778
C161	C	0.387653	-0.535915	-0.044445
C162	C	0.720986	-0.202581	0.288888
C163	C	0.000265	-0.821269	-0.335065
C164	C	0.333598	-0.487935	-0.001732
C165	C	0.666932	-0.154602	0.331602
C166	C	0.000310	-0.880770	-0.603209
C167	C	0.333644	-0.547437	-0.269875
C168	C	0.666977	-0.214104	0.063458
C169	C	0.000330	-0.879707	-0.675657
C170	C	0.333664	-0.546374	-0.342323
C171	C	0.666997	-0.213040	-0.008990
C172	C	0.000293	-0.753097	-0.658697
C173	C	0.333626	-0.419763	-0.325363
C174	C	0.666959	-0.086430	0.007970
C175	C	0.000282	-0.754162	-0.586250
C176	C	0.333615	-0.420829	-0.252917
C177	C	0.666949	-0.087495	0.080417
C178	C	0.000286	-0.818001	-0.558511
C179	C	0.333620	-0.484667	-0.225178
C180	C	0.666953	-0.151334	0.108156
C181	C	0.000298	-0.814745	0.219497
C182	C	0.333632	-0.481412	0.552830
C183	C	0.666965	-0.148078	0.886164
C184	C	0.000313	-0.815874	0.296601
C185	C	0.333646	-0.482541	0.629934
C186	C	0.666980	-0.149207	0.963267
H187	H	-0.441766	-0.728909	0.183815
H188	H	-0.108433	-0.395576	0.517149
H189	H	0.224901	-0.062243	0.850482
Cl190	Cl	-0.572572	-0.850726	0.237126
Cl191	Cl	-0.239239	-0.517393	0.570460
Cl192	Cl	0.094094	-0.184060	0.903793
Cl193	Cl	0.122265	-0.930888	-0.340402
Cl194	Cl	0.455599	-0.597555	-0.007068
Cl195	Cl	0.788932	-0.264221	0.326265
H196	H	0.000270	-0.939303	-0.133736
H197	H	0.333604	-0.605970	0.199597
H198	H	0.666937	-0.272636	0.532931
H199	H	0.000390	-0.046435	-0.026600
H200	H	0.333723	0.286898	0.306734
H201	H	0.667057	0.620231	0.640067
H202	H	-0.097780	-0.731250	-0.461439
H203	H	0.235553	-0.397916	-0.128106
H204	H	0.568887	-0.064583	0.205228
Cl205	Cl	-0.426987	-0.964861	0.123226
Cl206	Cl	-0.093654	-0.631528	0.456559
Cl207	Cl	0.239679	-0.298194	0.789893
H208	H	0.000266	-0.462561	0.209652
H209	H	0.333599	-0.129228	0.542985
H210	H	0.666932	0.204106	0.876318
Cl211	Cl	0.000172	-0.644557	-0.045924
Cl212	Cl	0.333506	-0.311223	0.287409
Cl213	Cl	0.666839	0.022110	0.620743
H214	H	-0.557862	-0.704472	0.068011
H215	H	-0.224528	-0.371139	0.401344
H216	H	0.108805	-0.037806	0.734677
H217	H	0.000301	-0.177866	-0.024674
H218	H	0.333634	0.155467	0.308660
H219	H	0.666967	0.488801	0.641993
Cl220	Cl	0.122272	-0.253173	-0.018179
Cl221	Cl	0.455605	0.080160	0.315155
Cl222	Cl	0.788939	0.413494	0.648488
H223	H	0.000232	-0.709599	-0.102967
H224	H	0.333566	-0.376266	0.230367
H225	H	0.666899	-0.042933	0.563700
Cl226	Cl	0.000297	-0.965174	-0.284963
Cl227	Cl	0.333631	-0.631841	0.048370
Cl228	Cl	0.666964	-0.298507	0.381703
H229	H	0.098343	-0.907244	-0.485005
H230	H	0.431677	-0.573911	-0.151672
H231	H	0.765010	-0.240577	0.181662
Cl232	Cl	-0.572134	-0.934445	-0.021560
Cl233	Cl	-0.238801	-0.601111	0.311774
Cl234	Cl	0.094532	-0.267778	0.645107
Cl235	Cl	-0.121649	-0.223744	0.200765
Cl236	Cl	0.211684	0.109589	0.534099
Cl237	Cl	0.545017	0.442923	0.867432
Cl238	Cl	-0.426838	-0.789672	-0.052090
Cl239	Cl	-0.093505	-0.456338	0.281243
Cl240	Cl	0.239829	-0.123005	0.614577
Cl241	Cl	0.000247	-0.606275	0.239852
Cl242	Cl	0.333581	-0.272942	0.573185
Cl243	Cl	0.666914	0.060391	0.906518
Cl244	Cl	-0.121682	-0.387262	0.203164
Cl245	Cl	0.211652	-0.053929	0.536497
Cl246	Cl	0.544985	0.279404	0.869831
Cl247	Cl	0.000346	-0.159390	0.233300
Cl248	Cl	0.333680	0.173943	0.566633
Cl249	Cl	0.667013	0.507277	0.899966
Cl250	Cl	0.000373	0.004125	0.230900
Cl251	Cl	0.333706	0.337459	0.564233
Cl252	Cl	0.667040	0.670792	0.897566
H253	H	0.098304	-0.397755	0.005460
H254	H	0.431638	-0.064421	0.338793
H255	H	0.764971	0.268912	0.672126
Cl256	Cl	0.000311	-0.961023	-0.568333
Cl257	Cl	0.333644	-0.627689	-0.235000
Cl258	Cl	0.666977	-0.294356	0.098334
H259	H	0.000347	-0.930822	-0.712049
H260	H	0.333681	-0.597489	-0.378715
H261	H	0.667014	-0.264156	-0.045382
H262	H	-0.097802	-0.733180	-0.330016
H263	H	0.235531	-0.399847	0.003318
H264	H	0.568864	-0.066514	0.336651
Cl265	Cl	0.000221	-0.481037	-0.048318
Cl266	Cl	0.333555	-0.147703	0.285016
Cl267	Cl	0.666888	0.185630	0.618349
H268	H	0.000282	-0.701123	-0.681288
H269	H	0.333615	-0.367790	-0.347954
H270	H	0.666948	-0.034457	-0.014621
H271	H	0.000265	-0.703049	-0.549857
H272	H	0.333598	-0.369716	-0.216524
H273	H	0.666931	-0.036383	0.116810
Cl274	Cl	0.000233	-0.679405	-0.246686
Cl275	Cl	0.333566	-0.346072	0.086647
Cl276	Cl	0.666900	-0.012739	0.419980
