data_functionalizedCrystal
_audit_creation_method	'MofGen! by Chris Wilmer'
_symmetry_space_group_name_H-M	'P1'
_symmetry_Int_Tables_number	1
_symmetry_cell_setting	triclinic
loop_
_symmetry_equiv_pos_as_xyz
  x,y,z
_cell_length_a	29.839135
_cell_length_b	12.759394
_cell_length_c	12.759380
_cell_angle_alpha	90.063627
_cell_angle_beta	89.951579
_cell_angle_gamma	89.974982
loop_
_atom_site_label
_atom_site_type_symbol
_atom_site_fract_x
_atom_site_fract_y
_atom_site_fract_z
Zn1	Zn	0.686925	0.417812	-0.594155
Zn2	Zn	0.686839	0.593626	-0.418471
Zn3	Zn	0.611764	0.417969	-0.418474
Zn4	Zn	0.611780	0.593458	-0.594093
O5	O	0.649327	0.505716	-0.506298
O6	O	0.749781	0.441139	-0.570874
O7	O	0.676837	0.570461	-0.271450
O8	O	0.621764	0.270927	-0.441805
O9	O	0.749717	0.570309	-0.441800
O10	O	0.676984	0.270812	-0.570877
O11	O	0.621681	0.441407	-0.271452
O12	O	0.548899	0.441244	-0.441746
O13	O	0.621791	0.570021	-0.741123
O14	O	0.548911	0.570174	-0.570772
O15	O	0.676999	0.440976	-0.741168
O16	O	0.676852	0.740625	-0.441741
O17	O	0.621707	0.740501	-0.570770
C18	C	0.532604	0.505708	-0.506253
C19	C	0.482670	0.505730	-0.506259
C20	C	0.173057	0.438559	-0.573606
C21	C	-0.014616	0.438567	-0.573636
O22	O	-0.038856	0.381432	-0.630847
N23	N	-0.038115	0.505717	-0.506337
C24	C	-0.014693	0.572866	-0.439020
O25	O	-0.038986	0.629975	-0.381771
C26	C	0.172980	0.572853	-0.438986
C27	C	0.196476	0.505705	-0.506297
C28	C	0.196553	0.371416	-0.640911
C29	C	0.243468	0.371419	-0.640907
C30	C	0.266888	0.438565	-0.573598
C31	C	0.243391	0.505708	-0.506293
C32	C	0.196401	0.639996	-0.371665
C33	C	0.243322	0.639985	-0.371661
C34	C	0.266818	0.572837	-0.438972
C35	C	0.313726	0.572857	-0.438980
N36	N	0.337225	0.505706	-0.506279
C37	C	0.313805	0.438560	-0.573588
C38	C	-0.113223	0.572870	-0.439045
C39	C	-0.160141	0.572875	-0.439054
C40	C	-0.160062	0.438573	-0.573669
C41	C	-0.113143	0.438575	-0.573664
C42	C	-0.089725	0.505719	-0.506344
C43	C	0.412331	0.438572	-0.573575
C44	C	0.459251	0.438584	-0.573568
C45	C	0.459167	0.572881	-0.438950
C46	C	0.412252	0.572874	-0.438961
C47	C	0.388835	0.505711	-0.506277
O48	O	0.337994	0.629954	-0.381791
O49	O	0.338107	0.381444	-0.630812
C50	C	0.126141	0.438556	-0.573610
C51	C	0.102645	0.505700	-0.506305
C52	C	0.126064	0.572845	-0.438996
C53	C	0.055727	0.505704	-0.506315
C54	C	0.032308	0.438558	-0.573624
C55	C	0.055807	0.371408	-0.640923
C56	C	0.102722	0.371410	-0.640919
C57	C	0.102565	0.639996	-0.371697
C58	C	0.055650	0.639989	-0.371708
C59	C	0.032231	0.572843	-0.439017
C60	C	0.649284	0.778684	-0.506271
C61	C	0.649307	0.895461	-0.506295
C62	C	0.706765	0.895182	-0.640798
C63	C	0.735504	0.949903	-0.708055
C64	C	0.735524	1.059625	-0.708074
C65	C	0.706800	1.114628	-0.640830
C66	C	0.678061	1.059906	-0.573573
C67	C	0.678045	0.950182	-0.573559
C68	C	0.620602	1.060185	-0.439076
C69	C	0.620584	0.950463	-0.439051
C70	C	0.591878	1.115187	-0.371833
C71	C	0.563140	1.060466	-0.304568
C72	C	0.563122	0.950738	-0.304551
C73	C	0.591844	0.895742	-0.371793
C74	C	0.766505	0.505725	-0.506344
C75	C	0.816440	0.505729	-0.506363
C76	C	0.649407	0.505462	-0.780332
C77	C	0.649440	0.505354	-0.897109
C78	C	0.649366	1.231683	-0.506339
C79	C	0.649341	1.114906	-0.506334
C80	C	0.649274	0.505894	-0.233330
C81	C	0.649327	0.505706	-0.116554
C82	C	0.706507	0.369997	0.102247
C83	C	0.735013	0.302411	0.047065
C84	C	0.734959	0.302588	-0.062656
C85	C	0.706395	0.370356	-0.117198
C86	C	0.677888	0.437943	-0.062015
C87	C	0.677946	0.437761	0.047708
C88	C	0.620820	0.573292	-0.061372
C89	C	0.620876	0.573122	0.048350
C90	C	0.592255	0.641061	-0.115913
C91	C	0.563750	0.708654	-0.060731
C92	C	0.563805	0.708475	0.048997
C93	C	0.592369	0.640709	0.103532
H94	H	-0.094015	0.383895	-0.628472
N95	N	0.764070	0.233535	-0.119032
N96	N	0.760810	0.136623	-0.107036
H97	H	0.781368	0.087852	-0.146853
H98	H	0.393271	0.383879	-0.628387
H99	H	0.177279	0.694674	-0.316852
N100	N	0.706809	1.226705	-0.640842
N101	N	0.671770	1.275713	-0.662728
H102	H	0.671775	1.354870	-0.662732
H103	H	-0.094160	0.627551	-0.384222
N104	N	0.533809	1.116632	-0.235859
N105	N	0.508158	1.067766	-0.175793
H106	H	0.487446	1.107435	-0.127257
N107	N	0.267457	0.302806	-0.709657
N108	N	0.262223	0.205859	-0.702849
H109	H	0.279162	0.157393	-0.751407
H110	H	0.591834	0.806401	-0.371782
N111	N	0.764851	0.893736	-0.776736
N112	N	0.790510	0.942608	-0.836778
H113	H	0.811237	0.902944	-0.885286
H114	H	0.592419	0.640561	0.192873
N115	N	0.706335	0.370556	-0.229274
N116	N	0.680833	0.431070	-0.277959
H117	H	0.680791	0.431214	-0.357115
H118	H	0.592211	0.641196	-0.205254
H119	H	-0.179268	0.627565	-0.384255
H120	H	0.478379	0.383903	-0.628384
N121	N	0.706572	0.369813	0.214324
N122	N	0.732079	0.309309	0.263008
H123	H	0.732126	0.309176	0.342164
H124	H	0.540587	0.763501	0.093920
N125	N	0.706756	0.783105	-0.640781
N126	N	0.732405	0.734009	-0.700815
H127	H	0.732400	0.654852	-0.700806
N128	N	0.764185	0.233191	0.102794
N129	N	0.764231	0.233037	0.200759
H130	H	0.784833	0.184149	0.240116
N131	N	0.764880	1.115511	-0.776788
N132	N	0.790521	1.066397	-0.836824
H133	H	0.811254	1.105866	-0.885354
H134	H	0.177490	0.316732	-0.695722
H135	H	0.539717	0.906189	-0.249786
H136	H	0.540492	0.763820	-0.105147
N137	N	-0.183988	0.369995	-0.642436
N138	N	-0.210149	0.407002	-0.709325
H139	H	-0.227049	0.358568	-0.757886
N140	N	0.267236	0.708573	-0.302879
N141	N	0.246247	0.768511	-0.242788
H142	H	0.263135	0.816952	-0.194210
H143	H	0.478244	0.627552	-0.384151
N144	N	0.388255	0.641480	-0.370211
N145	N	0.409173	0.701430	-0.310123
H146	H	0.392229	0.749879	-0.261560
N147	N	0.126712	0.302816	-0.709686
N148	N	0.105789	0.242876	-0.769773
H149	H	0.122729	0.194426	-0.818344
N150	N	0.126476	0.708592	-0.302929
N151	N	0.105485	0.768536	-0.242850
H152	H	0.122370	0.816990	-0.194280
H153	H	0.036731	0.316738	-0.695732
N154	N	0.031659	0.708600	-0.302948
N155	N	0.052580	0.768542	-0.242859
H156	H	0.035639	0.816993	-0.194293
H157	H	0.591894	1.204528	-0.371857
