data_functionalizedCrystal
_audit_creation_method	'MofGen! by Chris Wilmer'
_symmetry_space_group_name_H-M	'P1'
_symmetry_Int_Tables_number	1
_symmetry_cell_setting	triclinic
loop_
_symmetry_equiv_pos_as_xyz
  x,y,z
_cell_length_a	19.805407
_cell_length_b	29.839131
_cell_length_c	19.805399
_cell_angle_alpha	89.969027
_cell_angle_beta	89.983114
_cell_angle_gamma	90.041420
loop_
_atom_site_label
_atom_site_type_symbol
_atom_site_fract_x
_atom_site_fract_y
_atom_site_fract_z
Zn1	Zn	1.034647	-0.178858	-0.382710
Zn2	Zn	1.534647	0.321142	0.117290
Zn3	Zn	1.034538	-0.253987	-0.269518
Zn4	Zn	1.534538	0.246013	0.230482
Zn5	Zn	0.921467	-0.178872	-0.269535
Zn6	Zn	1.421467	0.321128	0.230465
Zn7	Zn	0.921396	-0.253961	-0.382665
Zn8	Zn	1.421396	0.246039	0.117335
O9	O	0.978012	-0.216419	-0.326107
O10	O	1.478012	0.283581	0.173893
O11	O	1.129349	-0.188828	-0.367707
O12	O	1.629349	0.311172	0.132293
O13	O	1.019523	-0.244039	-0.174804
O14	O	1.519523	0.255961	0.325196
O15	O	0.936556	-0.116003	-0.284574
O16	O	1.436556	0.383997	0.215426
O17	O	1.129269	-0.244026	-0.284545
O18	O	1.629269	0.255974	0.215455
O19	O	1.019709	-0.115992	-0.367723
O20	O	1.519709	0.384008	0.132277
O21	O	0.936450	-0.188853	-0.174816
O22	O	1.436450	0.311147	0.325184
O23	O	0.826741	-0.188828	-0.284530
O24	O	1.326741	0.311172	0.215470
O25	O	0.936435	-0.243982	-0.477388
O26	O	1.436435	0.256018	0.022612
O27	O	0.826689	-0.243996	-0.367646
O28	O	1.326689	0.256004	0.132354
O29	O	1.019640	-0.188803	-0.477421
O30	O	1.519640	0.311197	0.022579
O31	O	1.019453	-0.316851	-0.284501
O32	O	1.519453	0.183149	0.215499
O33	O	0.936328	-0.316832	-0.367630
O34	O	1.436328	0.183168	0.132370
C35	C	0.802156	-0.216411	-0.326085
C36	C	1.302156	0.283589	0.173915
C37	C	0.726924	-0.216418	-0.326092
C38	C	1.226924	0.283582	0.173908
C39	C	0.691570	-0.245187	-0.369300
C40	C	1.191570	0.254813	0.130700
C41	C	0.620882	-0.245188	-0.369310
C42	C	1.120882	0.254812	0.130690
C43	C	0.585548	-0.216421	-0.326107
C44	C	1.085548	0.283579	0.173893
C45	C	0.620907	-0.187649	-0.282897
C46	C	1.120907	0.312351	0.217103
C47	C	0.691594	-0.187646	-0.282891
C48	C	1.191594	0.312354	0.217109
C49	C	0.335834	-0.187659	-0.282919
C50	C	0.835834	0.312341	0.217081
C51	C	0.265142	-0.187665	-0.282927
C52	C	0.765142	0.312335	0.217073
C53	C	0.265121	-0.245201	-0.369338
C54	C	0.765121	0.254799	0.130662
C55	C	0.335808	-0.245198	-0.369332
C56	C	0.835808	0.254802	0.130668
C57	C	0.371161	-0.216424	-0.326125
C58	C	0.871161	0.283576	0.173875
C59	C	0.447809	-0.216423	-0.326116
C60	C	0.947809	0.283577	0.173884
C61	C	0.508901	-0.216424	-0.326112
C62	C	1.008901	0.283576	0.173888
C63	C	0.977890	-0.333142	-0.326073
C64	C	1.477890	0.166858	0.173927
C65	C	0.977899	-0.383076	-0.326082
C66	C	1.477899	0.116924	0.173918
C67	C	1.021374	-0.692717	-0.282885
C68	C	1.521374	-0.192717	0.217115
C69	C	1.021457	-0.880390	-0.282912
C70	C	1.521457	-0.380390	0.217088
O71	O	1.058324	-0.904652	-0.246159
O72	O	1.558324	-0.404652	0.253841
N73	N	0.978152	-0.903861	-0.326158
N74	N	1.478152	-0.403861	0.173842
C75	C	0.934826	-0.880412	-0.369404
C76	C	1.434826	-0.380412	0.130596
O77	O	0.898000	-0.904682	-0.406194
O78	O	1.398000	-0.404682	0.093806
C79	C	0.934747	-0.692740	-0.369381
C80	C	1.434747	-0.192740	0.130619
C81	C	0.978050	-0.669271	-0.326127
C82	C	1.478050	-0.169271	0.173873
C83	C	1.064674	-0.669248	-0.239635
C84	C	1.564674	-0.169248	0.260365
C85	C	1.064650	-0.622332	-0.239626
C86	C	1.564650	-0.122332	0.260374
C87	C	1.021326	-0.598886	-0.282868
C88	C	1.521326	-0.098886	0.217132
C89	C	0.978026	-0.622355	-0.326118
C90	C	1.478026	-0.122355	0.173882
C91	C	0.891425	-0.669291	-0.412630
C92	C	1.391425	-0.169291	0.087370
C93	C	0.891410	-0.622370	-0.412621
C94	C	1.391410	-0.122370	0.087379
C95	C	0.934713	-0.598901	-0.369367
C96	C	1.434713	-0.098901	0.130633
C97	C	0.934678	-0.551993	-0.369351
C98	C	1.434678	-0.051993	0.130649
N99	N	0.977983	-0.528522	-0.326104
N100	N	1.477983	-0.028522	0.173896
C101	C	1.021307	-0.551968	-0.282863
C102	C	1.521307	-0.051968	0.217137
C103	C	0.934870	-0.978942	-0.369412
C104	C	1.434870	-0.478942	0.130588
C105	C	0.934889	-1.025860	-0.369418
C106	C	1.434889	-0.525860	0.130582
C107	C	1.021521	-1.025835	-0.282926
C108	C	1.521521	-0.525835	0.217074
C109	C	1.021498	-0.978916	-0.282918
C110	C	1.521498	-0.478916	0.217082
C111	C	0.978175	-0.955471	-0.326166
C112	C	1.478175	-0.455471	0.173834
C113	C	1.021253	-0.453442	-0.282847
C114	C	1.521253	0.046558	0.217153
C115	C	1.021223	-0.406523	-0.282840
C116	C	1.521223	0.093477	0.217160
C117	C	0.934594	-0.406552	-0.369334
C118	C	1.434594	0.093448	0.130666
C119	C	0.934621	-0.453467	-0.369339
C120	C	1.434621	0.046533	0.130661
C121	C	0.977956	-0.476911	-0.326093
C122	C	1.477956	0.023089	0.173907
O123	O	0.897836	-0.527702	-0.406090
O124	O	1.397836	-0.027702	0.093910
O125	O	1.058139	-0.527690	-0.246090
O126	O	1.558139	-0.027690	0.253910
C127	C	1.021398	-0.739632	-0.282894
C128	C	1.521398	-0.239632	0.217106
C129	C	0.978098	-0.763101	-0.326144
C130	C	1.478098	-0.263101	0.173856
C131	C	0.934774	-0.739655	-0.369386
C132	C	1.434774	-0.239655	0.130614
C133	C	0.978117	-0.810019	-0.326149
C134	C	1.478117	-0.310019	0.173851
C135	C	1.021440	-0.833466	-0.282908
C136	C	1.521440	-0.333466	0.217092
C137	C	1.064746	-0.809994	-0.239661
C138	C	1.564746	-0.309994	0.260339
C139	C	1.064722	-0.763079	-0.239653
C140	C	1.564722	-0.263079	0.260347
C141	C	0.891469	-0.763126	-0.412632
C142	C	1.391469	-0.263126	0.087368
C143	C	0.891496	-0.810042	-0.412637
C144	C	1.391496	-0.310042	0.087363
C145	C	0.934819	-0.833488	-0.369395
C146	C	1.434819	-0.333488	0.130605
C147	C	1.154555	-0.216428	-0.326129
C148	C	1.654555	0.283572	0.173871
C149	C	1.229787	-0.216432	-0.326139
C150	C	1.729787	0.283568	0.173861
C151	C	0.978042	-0.216388	-0.502650
C152	C	1.478042	0.283612	-0.002650
C153	C	0.978054	-0.216375	-0.577882
C154	C	1.478054	0.283625	-0.077882
C155	C	0.978153	-0.099241	-0.326156
C156	C	1.478153	0.400759	0.173844
C157	C	0.978213	-0.049307	-0.326176
C158	C	1.478213	0.450693	0.173824
C159	C	0.934811	-0.187636	-0.613232
C160	C	1.434811	0.312364	-0.113232
C161	C	0.934820	-0.187628	-0.683920
C162	C	1.434820	0.312372	-0.183920
C163	C	0.978077	-0.216355	-0.719258
C164	C	1.478077	0.283645	-0.219258
C165	C	1.021322	-0.245097	-0.683903
C166	C	1.521322	0.254903	-0.183903
C167	C	1.021309	-0.245108	-0.613215
C168	C	1.521309	0.254892	-0.113215
C169	C	1.021376	-0.245055	-0.968976
C170	C	1.521376	0.254945	-0.468976
C171	C	1.021387	-0.245041	-1.039668
C172	C	1.521387	0.254959	-0.539668
C173	C	0.934887	-0.187575	-1.039681
C174	C	1.434887	0.312425	-0.539681
C175	C	0.934874	-0.187586	-0.968994
C176	C	1.434874	0.312414	-0.468994
C177	C	0.978116	-0.216329	-0.933645
C178	C	1.478116	0.283671	-0.433645
C179	C	0.978105	-0.216339	-0.856997
C180	C	1.478105	0.283661	-0.356997
C181	C	0.978092	-0.216344	-0.795905
C182	C	1.478092	0.283656	-0.295905
C183	C	0.978021	-0.216418	-0.150251
C184	C	1.478021	0.283582	0.349749
C185	C	0.978140	-0.216305	-0.075019
C186	C	1.478140	0.283695	0.424981
H187	H	0.720378	-0.164217	-0.247710
H188	H	1.220378	0.335783	0.252290
H189	H	0.592100	-0.268615	-0.404494
H190	H	1.092100	0.231385	0.095506
Cl191	Cl	0.380224	-0.281364	-0.423644
Cl192	Cl	0.880224	0.218636	0.076356
H193	H	0.364609	-0.164233	-0.247732
H194	H	0.864609	0.335767	0.252268
Cl195	Cl	0.220674	-0.281374	-0.423658
Cl196	Cl	0.720674	0.218626	0.076342
H197	H	0.236375	-0.164237	-0.247745
H198	H	0.736375	0.335763	0.252255
Cl199	Cl	0.880399	-0.949474	-0.423786
Cl200	Cl	1.380399	-0.449474	0.076214
Cl201	Cl	0.880494	-0.151468	-0.924574
Cl202	Cl	1.380494	0.348532	-0.424574
H203	H	0.856190	-0.744040	-0.447845
H204	H	1.356190	-0.244040	0.052155
H205	H	1.056760	-0.959811	-0.247697
H206	H	1.556760	-0.459811	0.252303
H207	H	0.899675	-0.164172	-1.068471
H208	H	1.399675	0.335828	-0.568471
H209	H	0.899621	-1.044965	-0.404633
H210	H	1.399621	-0.544965	0.095367
Cl211	Cl	1.075770	-0.281160	-1.084091
Cl212	Cl	1.575770	0.218840	-0.584091
H213	H	1.056539	-0.268490	-0.712680
H214	H	1.556539	0.231510	-0.212680
Cl215	Cl	0.576488	-0.151482	-0.228588
Cl216	Cl	1.076488	0.348518	0.271412
H217	H	0.856132	-0.603282	-0.447842
H218	H	1.356132	-0.103282	0.052158
H219	H	0.899362	-0.472577	-0.404562
H220	H	1.399362	0.027423	0.095438
H221	H	1.056486	-0.387416	-0.247615
H222	H	1.556486	0.112584	0.252385
H223	H	1.099957	-0.688333	-0.204423
H224	H	1.599957	-0.188333	0.295577
Cl225	Cl	1.119208	-0.839479	-0.185300
Cl226	Cl	1.619208	-0.339479	0.314700
H227	H	0.856159	-0.688391	-0.447849
H228	H	1.356159	-0.188391	0.052151
Cl229	Cl	0.880431	-0.151517	-0.568815
Cl230	Cl	1.380431	0.348483	-0.068815
H231	H	1.056579	-0.268464	-0.940203
H232	H	1.556579	0.231536	-0.440203
H233	H	0.899604	-0.164228	-0.712699
H234	H	1.399604	0.335772	-0.212699
H235	H	0.899318	-0.387454	-0.404539
H236	H	1.399318	0.112546	0.095461
H237	H	1.099983	-0.743974	-0.204431
H238	H	1.599983	-0.243974	0.295569
Cl239	Cl	1.075672	-0.281240	-0.568775
Cl240	Cl	1.575672	0.218760	-0.068775
H241	H	1.056542	-0.472525	-0.247634
H242	H	1.556542	0.027475	0.252366
Cl243	Cl	1.075984	-1.055319	-0.228564
Cl244	Cl	1.575984	-0.555319	0.271436
Cl245	Cl	0.735982	-0.281355	-0.423613
Cl246	Cl	1.235982	0.218645	0.076387
Cl247	Cl	1.119101	-0.592836	-0.185257
Cl248	Cl	1.619101	-0.092836	0.314743
H249	H	0.856227	-0.829146	-0.447859
H250	H	1.356227	-0.329146	0.052141
