data_functionalizedCrystal
_audit_creation_method	'MofGen! by Chris Wilmer'
_symmetry_space_group_name_H-M	'P1'
_symmetry_Int_Tables_number	1
_symmetry_cell_setting	triclinic
loop_
_symmetry_equiv_pos_as_xyz
  x,y,z
_cell_length_a	10.686220
_cell_length_b	12.759394
_cell_length_c	10.685314
_cell_angle_alpha	94.337361
_cell_angle_beta	98.357559
_cell_angle_gamma	94.395425
loop_
_atom_site_label
_atom_site_type_symbol
_atom_site_fract_x
_atom_site_fract_y
_atom_site_fract_z
Zn1	Zn	1.885500	-0.333925	-0.569018
Zn2	Zn	1.901647	-0.495072	-0.356791
Zn3	Zn	1.689510	-0.334011	-0.373054
Zn4	Zn	1.673233	-0.524171	-0.585229
O5	O	1.787472	-0.421795	-0.471023
O6	O	2.065256	-0.343087	-0.527276
O7	O	1.887076	-0.461565	-0.181334
O8	O	1.715563	-0.186977	-0.399071
O9	O	2.077120	-0.461481	-0.371353
O10	O	1.859556	-0.186913	-0.543045
O11	O	1.731220	-0.343235	-0.193282
O12	O	1.509736	-0.371451	-0.414790
O13	O	1.687821	-0.511077	-0.760693
O14	O	1.497777	-0.511161	-0.570674
O15	O	1.843772	-0.371303	-0.748783
O16	O	1.871293	-0.645955	-0.387072
O17	O	1.703478	-0.667334	-0.554905
C18	C	1.457703	-0.444474	-0.496256
C19	C	1.316624	-0.454203	-0.507081
C20	C	1.787403	-0.694766	-0.471007
C21	C	1.787487	-0.811539	-0.471034
C22	C	1.937296	-0.811331	-0.621086
C23	C	2.012239	-0.866086	-0.696118
C24	C	2.012313	-0.975804	-0.696140
C25	C	1.937431	-1.030770	-0.621124
C26	C	1.862488	-0.976016	-0.546092
C27	C	1.862425	-0.866295	-0.546075
C28	C	1.712674	-0.976224	-0.396049
C29	C	1.712605	-0.866505	-0.396018
C30	C	1.637792	-1.031191	-0.321033
C31	C	1.562854	-0.976435	-0.245992
C32	C	1.562785	-0.866710	-0.245972
C33	C	1.637662	-0.811750	-0.320986
C34	C	2.118529	-0.399028	-0.445692
C35	C	2.259606	-0.389326	-0.434897
C36	C	1.762180	-0.444426	-0.802079
C37	C	1.751401	-0.454070	-0.943156
C38	C	1.787574	-0.147758	-0.471064
C39	C	1.787617	-0.030979	-0.471081
C40	C	1.812740	-0.399171	-0.141249
C41	C	1.823764	-0.389214	-0.000154
H42	H	1.257504	-0.517200	-0.577161
C43	C	1.657925	-0.537932	-1.022211
C44	C	1.665496	-0.531183	-1.151113
C45	C	1.579422	-0.608428	-1.223974
H46	H	1.574220	-0.527043	-1.007240
H47	H	1.678125	-0.605805	-0.999179
H48	H	1.645289	-0.463326	-1.174137
H49	H	1.749182	-0.542084	-1.166123
H50	H	1.599622	-0.676302	-1.200943
H51	H	1.495723	-0.597533	-1.208993
H52	H	1.584556	-0.603866	-1.311441
H53	H	1.893950	-0.326300	-0.941027
C54	C	1.338587	-0.305488	-0.341364
C55	C	1.420916	-0.354114	-0.254142
C56	C	1.493713	-0.276915	-0.167970
H57	H	1.284058	-0.266048	-0.297396
H58	H	1.386674	-0.259582	-0.386049
H59	H	1.372833	-0.400001	-0.209462
H60	H	1.475472	-0.393548	-0.298073
H61	H	1.541800	-0.231009	-0.212655
H62	H	1.439174	-0.237479	-0.124012
H63	H	1.549590	-0.309896	-0.108788
H64	H	2.073205	-0.821323	-0.757199
C65	C	1.937076	-0.692232	-0.621304
C66	C	1.895334	-0.666405	-0.744590
C67	C	1.895101	-0.556702	-0.744837
H68	H	2.020607	-0.660109	-0.593219
H69	H	1.881676	-0.667460	-0.565936
H70	H	1.950733	-0.691166	-0.799938
H71	H	1.811800	-0.698501	-0.772698
H72	H	1.839701	-0.531930	-0.689469
H73	H	1.978635	-0.524589	-0.716747
H74	H	1.866769	-0.539165	-0.828482
C75	C	2.093575	-1.035151	-0.777822
C76	C	2.056249	-1.018922	-0.905496
C77	C	2.131083	-1.073567	-0.980779
H78	H	2.082950	-1.108388	-0.767250
H79	H	2.180292	-1.009974	-0.752865
H80	H	1.969553	-1.044103	-0.930446
H81	H	2.066879	-0.945697	-0.916107
H82	H	2.217800	-1.048391	-0.955822
H83	H	2.120452	-1.146801	-0.970197
H84	H	2.105775	-1.062555	-1.067413
C85	C	1.937723	-1.149888	-0.621279
C86	C	2.019398	-1.186073	-0.703027
C87	C	2.019709	-1.295797	-0.703187
H88	H	1.854214	-1.182016	-0.649479
H89	H	1.966065	-1.167643	-0.537727
H90	H	1.991049	-1.168328	-0.786561
H91	H	2.102918	-1.153974	-0.674846
H92	H	2.048052	-1.313552	-0.619636
H93	H	1.936196	-1.327915	-0.731386
H94	H	2.075133	-1.320361	-0.758643
H95	H	1.501751	-0.822135	-0.184877
H96	H	1.637852	-1.120530	-0.321061
H97	H	1.501885	-1.021198	-0.184926
H98	H	1.637618	-0.722411	-0.320972
