data_functionalizedCrystal
_audit_creation_method	'MofGen! by Chris Wilmer'
_symmetry_space_group_name_H-M	'P1'
_symmetry_Int_Tables_number	1
_symmetry_cell_setting	triclinic
loop_
_symmetry_equiv_pos_as_xyz
  x,y,z
_cell_length_a	19.077236
_cell_length_b	19.077713
_cell_length_c	19.077174
_cell_angle_alpha	94.475462
_cell_angle_beta	85.294282
_cell_angle_gamma	90.118033
loop_
_atom_site_label
_atom_site_type_symbol
_atom_site_fract_x
_atom_site_fract_y
_atom_site_fract_z
Zn1	Zn	1.104346	-0.254104	-0.452610
Zn2	Zn	1.104254	-0.367254	-0.339459
Zn3	Zn	0.981728	-0.254115	-0.329994
Zn4	Zn	0.991522	-0.376293	-0.452942
O5	O	1.045463	-0.312942	-0.393751
O6	O	1.202829	-0.265326	-0.441423
O7	O	1.083864	-0.348468	-0.239395
O8	O	0.993933	-0.155627	-0.342159
O9	O	1.202761	-0.348457	-0.358291
O10	O	1.084020	-0.155620	-0.432245
O11	O	0.993844	-0.265345	-0.232441
O12	O	0.884532	-0.274109	-0.342481
O13	O	1.010626	-0.363863	-0.551706
O14	O	0.891728	-0.363873	-0.432810
O15	O	1.093517	-0.274091	-0.551463
O16	O	1.093361	-0.466939	-0.358612
O17	O	1.010537	-0.473580	-0.441987
C18	C	0.862592	-0.319974	-0.386654
C19	C	0.784360	-0.323000	-0.383636
C20	C	0.747648	-0.281214	-0.425572
C21	C	0.674141	-0.284053	-0.422730
C22	C	0.637347	-0.328683	-0.377954
C23	C	0.674064	-0.370471	-0.336013
C24	C	0.747569	-0.367627	-0.338853
C25	C	0.417503	-0.341818	-0.364810
C26	C	0.343993	-0.344660	-0.361976
C27	C	0.344075	-0.258241	-0.448692
C28	C	0.417582	-0.255405	-0.451530
C29	C	0.454292	-0.297190	-0.409586
N30	N	0.562211	-0.331589	-0.375049
N31	N	0.529427	-0.294280	-0.412488
C32	C	1.053022	-0.495796	-0.401379
C33	C	1.056321	-0.574020	-0.404668
C34	C	1.079980	-1.014331	-0.428239
C35	C	1.076872	-0.940831	-0.425142
C36	C	1.028449	-0.904149	-0.376662
C37	C	0.983136	-0.940970	-0.331271
C38	C	0.986248	-1.014469	-0.334365
C39	C	1.014120	-0.684340	-0.362372
C40	C	1.011010	-0.610836	-0.359282
C41	C	1.104747	-0.610702	-0.453153
C42	C	1.107852	-0.684202	-0.456246
C43	C	1.062541	-0.721017	-0.410853
N44	N	1.025269	-0.829021	-0.373496
N45	N	1.065725	-0.796144	-0.414015
C46	C	1.229048	-0.305882	-0.400876
C47	C	1.307281	-0.302874	-0.403912
C48	C	1.053174	-0.319984	-0.577921
C49	C	1.056460	-0.322985	-0.656403
C50	C	1.037894	-0.129373	-0.386110
C51	C	1.034669	-0.051147	-0.382853
C52	C	1.011138	-0.281118	-0.689653
C53	C	1.014223	-0.283944	-0.763395
C54	C	1.062635	-0.328633	-0.803886
C55	C	1.107960	-0.370505	-0.770631
C56	C	1.104870	-0.367683	-0.696890
C57	C	1.076897	-0.341719	-1.024817
C58	C	1.079984	-0.344537	-1.098563
C59	C	0.986246	-0.257976	-1.091322
C60	C	0.983164	-0.255154	-1.017580
C61	C	1.028486	-0.297029	-0.984331
N62	N	1.065791	-0.331521	-0.879263
N63	N	1.025326	-0.294144	-0.908956
C64	C	1.037819	-0.305874	-0.210298
C65	C	1.034661	-0.302670	-0.131813
H66	H	0.777459	-0.401654	-0.304703
H67	H	0.943740	-0.218765	-0.984616
C68	C	0.833903	-0.272018	-0.523364
C69	C	0.788089	-0.232156	-0.474793
H70	H	0.858863	-0.241729	-0.553752
H71	H	0.866286	-0.296491	-0.498795
H72	H	0.807625	-0.304861	-0.550492
H73	H	0.814367	-0.199316	-0.447661
H74	H	0.755701	-0.207672	-0.499364
C75	C	1.120130	-1.040128	-0.550107
C76	C	1.133204	-1.054651	-0.481535
H77	H	1.152992	-1.065016	-0.583009
H78	H	1.073779	-1.054433	-0.559070
H79	H	1.124766	-0.991084	-0.554750
H80	H	1.128563	-1.103694	-0.476890
H81	H	1.179566	-1.040350	-0.472569
C82	C	0.894671	-1.100498	-0.324294
C83	C	0.936440	-1.054942	-0.284478
H84	H	0.863926	-1.125487	-0.293492
H85	H	0.867798	-1.074054	-0.352778
H86	H	0.923964	-1.132858	-0.353607
H87	H	0.907147	-1.022579	-0.255168
H88	H	0.963314	-1.081389	-0.255982
H89	H	0.971720	-0.244723	-0.656690
C90	C	0.949353	-0.223872	-1.201146
C91	C	0.936423	-0.211957	-1.127871
H92	H	0.918587	-0.195465	-1.223707
H93	H	0.996718	-0.212211	-1.214635
H94	H	0.941509	-0.272020	-1.214790
H95	H	0.944272	-0.163810	-1.114225
H96	H	0.889047	-0.223613	-1.114376
H97	H	1.113768	-0.910856	-0.462099
H98	H	0.977224	-0.714305	-0.325409
H99	H	0.943711	-0.911099	-0.291794
H100	H	1.119410	-0.380929	-1.131529
C101	C	0.894577	-0.255105	-0.780025
C102	C	0.964399	-0.237918	-0.799934
H103	H	0.863815	-0.226686	-0.802577
H104	H	0.886733	-0.303243	-0.793683
H105	H	0.885827	-0.247030	-0.730310
H106	H	0.973150	-0.245998	-0.849648
H107	H	0.972246	-0.189769	-0.786281
C108	C	0.561498	-0.250042	-0.456884
C109	C	0.633786	-0.238126	-0.468832
H110	H	0.536587	-0.221683	-0.485345
H111	H	0.551847	-0.298198	-0.468643
H112	H	0.547034	-0.238313	-0.408560
H113	H	0.648252	-0.249860	-0.517155
H114	H	0.643442	-0.189959	-0.457078
C115	C	1.200224	-0.676681	-0.548694
C116	C	1.161099	-0.724519	-0.509518
H117	H	1.233102	-0.701572	-0.581575
H118	H	1.169462	-0.650258	-0.573298
H119	H	1.224651	-0.645776	-0.517774
H120	H	1.136667	-0.755421	-0.540437
H121	H	1.191865	-0.750954	-0.484913
C122	C	0.257726	-0.353853	-0.264191
C123	C	0.303547	-0.393718	-0.312751
H124	H	0.232755	-0.384140	-0.233808
H125	H	0.283994	-0.321013	-0.237062
H126	H	0.225346	-0.329379	-0.288773
H127	H	0.335931	-0.418188	-0.288169
H128	H	0.277278	-0.426571	-0.339884
C129	C	1.169876	-0.427546	-1.039392
C130	C	1.126726	-0.387734	-0.988276
H131	H	1.200644	-0.455949	-1.016829
H132	H	1.141526	-0.456750	-1.068079
H133	H	1.196729	-0.396936	-1.067925
H134	H	1.099868	-0.418344	-0.959746
H135	H	1.155079	-0.358527	-0.959577
H136	H	1.141638	-0.580721	-0.490110
H137	H	1.141782	-0.401770	-0.669819
H138	H	0.447384	-0.375843	-0.330658
H139	H	1.147374	-0.406896	-0.803605
H140	H	0.447535	-0.219065	-0.487994
H141	H	0.314177	-0.224221	-0.482839
H142	H	0.644100	-0.406806	-0.299553
H143	H	0.971575	-0.580973	-0.319802
