data_functionalizedCrystal
_audit_creation_method	'MofGen! by Chris Wilmer'
_symmetry_space_group_name_H-M	'P1'
_symmetry_Int_Tables_number	1
_symmetry_cell_setting	triclinic
loop_
_symmetry_equiv_pos_as_xyz
  x,y,z
_cell_length_a	10.540510
_cell_length_b	16.053802
_cell_length_c	16.992695
_cell_angle_alpha	87.258926
_cell_angle_beta	87.590767
_cell_angle_gamma	92.607086
loop_
_atom_site_label
_atom_site_type_symbol
_atom_site_fract_x
_atom_site_fract_y
_atom_site_fract_z
O1	O	1.700517	0.069436	0.107177
O2	O	1.332005	0.069436	0.117618
O3	O	1.514783	0.069429	-0.001753
O4	O	1.517739	0.069442	0.226548
O5	O	1.504720	-0.069429	0.004790
O6	O	1.321942	-0.069422	0.124162
O7	O	1.690454	-0.069423	0.113720
Zn8	Zn	1.504600	-0.091469	0.119980
Zn9	Zn	1.517859	0.091483	0.111359
O10	O	1.507676	-0.069416	0.233091
C11	C	1.279603	0.000007	0.120112
C12	C	1.138451	0.000007	0.117784
N13	N	1.495560	-0.216329	0.125863
C14	C	1.573365	-0.260026	0.075089
C15	C	1.567054	-0.347433	0.079212
C16	C	1.482944	-0.391141	0.134113
C17	C	1.405131	-0.347438	0.184889
C18	C	1.411437	-0.260033	0.180762
C19	C	1.455400	-0.652549	0.152119
C20	C	1.449104	-0.739961	0.156244
C21	C	1.611025	-0.739949	0.050564
C22	C	1.617328	-0.652543	0.046445
C23	C	1.539511	-0.608847	0.097219
N24	N	1.476495	-0.480484	0.138330
N25	N	1.545955	-0.519506	0.092997
C26	C	0.928214	0.000331	0.200696
C27	C	1.075003	0.000013	0.203194
C28	C	1.084150	-0.079289	0.077799
C29	C	0.937222	-0.079350	0.075923
C30	C	0.948705	0.078558	0.066704
C31	C	1.095473	0.079601	0.070706
C32	C	1.742857	0.000008	0.111227
C33	C	1.884009	0.000014	0.113554
C34	C	1.505951	0.000000	-0.027715
C35	C	1.494610	0.000000	-0.114822
N36	N	1.526908	0.216343	0.105470
C37	C	1.604031	-0.000001	-0.164457
C38	C	1.593368	0.000007	-0.246303
C39	C	1.473284	0.000010	-0.278512
C40	C	1.363855	0.000014	-0.228871
C41	C	1.374519	0.000012	-0.147026
C42	C	1.429085	0.000022	-0.522355
C43	C	1.418428	0.000021	-0.604205
C44	C	1.647943	0.000016	-0.621632
C45	C	1.658597	0.000009	-0.539785
C46	C	1.549168	0.000017	-0.490151
N47	N	1.462382	0.000016	-0.362171
N48	N	1.560072	0.000018	-0.406493
C49	C	1.516508	0.000015	0.259053
C50	C	1.527849	0.000020	0.346160
H51	H	1.630408	-0.383010	0.037867
O52	O	1.323243	-0.389858	0.238137
C53	C	1.197767	-0.368507	0.223643
H54	H	1.192517	-0.344490	0.159692
H55	H	1.130796	-0.425997	0.235002
H56	H	1.168524	-0.317772	0.264513
O57	O	1.699059	-0.610217	-0.006959
C58	C	1.766403	-0.667529	-0.050877
H59	H	1.709748	-0.729843	-0.049130
H60	H	1.781251	-0.642282	-0.114610
H61	H	1.862665	-0.676805	-0.024408
O62	O	0.874811	-0.067192	0.243221
C63	C	0.797595	-0.114701	0.194573
H64	H	0.830207	-0.101213	0.130227
H65	H	0.805671	-0.183952	0.210679
H66	H	0.694470	-0.097355	0.203473
H67	H	1.380608	-0.775544	0.200954
O68	O	0.903012	-0.083547	-0.000120
C69	C	0.957525	-0.013899	-0.045120
H70	H	1.044538	0.011866	-0.014993
H71	H	0.987164	-0.033640	-0.106513
H72	H	0.884955	0.036397	-0.050243
O73	O	1.754335	0.000129	-0.669772
C74	C	1.831944	0.072056	-0.658469
H75	H	1.808791	0.096029	-0.597695
H76	H	1.936119	0.055885	-0.662881
H77	H	1.813683	0.122416	-0.705693
H78	H	1.320635	0.000010	-0.630425
H79	H	1.641861	-0.224445	0.030385
O80	O	0.905946	0.150284	0.095412
C81	C	0.847752	0.196137	0.035167
H82	H	0.815376	0.152155	-0.011546
H83	H	0.762023	0.227704	0.061274
H84	H	0.918796	0.245630	0.007060
O85	O	1.322657	-0.000019	-0.474258
C86	C	1.214387	-0.000001	-0.520241
H87	H	1.238533	-0.026286	-0.579900
H88	H	1.134288	-0.040320	-0.488605
H89	H	1.182789	0.066615	-0.529400
H90	H	1.674379	-0.775534	0.009226
O91	O	1.133960	-0.082970	0.002979
C92	C	1.199402	-0.157156	-0.003643
H93	H	1.161174	-0.205227	0.044066
H94	H	1.184782	-0.182789	-0.064188
H95	H	1.305167	-0.143442	0.003836
O96	O	1.335911	-0.217454	0.230005
C97	C	1.359531	-0.130936	0.214603
H98	H	1.401541	-0.119004	0.151944
H99	H	1.266628	-0.097731	0.221195
H100	H	1.429521	-0.106113	0.258213
O101	O	1.720621	0.000108	-0.133084
C102	C	1.738880	0.072034	-0.089664
H103	H	1.642580	0.096008	-0.070963
H104	H	1.793776	0.055859	-0.035039
H105	H	1.795047	0.122394	-0.127877
O106	O	1.148185	0.085273	-0.003900
C107	C	1.281778	0.090213	-0.000921
H108	H	1.310752	0.062154	0.058172
H109	H	1.325094	0.054099	-0.050734
H110	H	1.317516	0.158381	-0.007795
O111	O	1.107480	-0.068004	0.247330
C112	C	1.060920	-0.141124	0.213374
H113	H	1.045987	-0.127265	0.148080
H114	H	1.132513	-0.191828	0.220178
H115	H	0.966612	-0.163408	0.244404
H116	H	1.111436	0.056857	0.234720
O117	O	1.118929	-0.149773	0.117225
C118	C	1.069361	-0.220408	0.080567
H119	H	1.050198	-0.202638	0.016550
H120	H	1.140963	-0.271510	0.082606
H121	H	0.976844	-0.244196	0.112901
H122	H	0.895303	-0.138621	0.108596
H123	H	1.266079	0.000022	-0.255102
O124	O	1.268145	0.000123	-0.098893
C125	C	1.200961	0.072052	-0.116963
H126	H	1.227585	0.096026	-0.179994
H127	H	1.094442	0.055881	-0.111026
H128	H	1.226526	0.122410	-0.074480
H129	H	1.131103	0.138263	0.099753
H130	H	0.921025	0.079090	0.002553
H131	H	1.392040	-0.616980	0.193462
O132	O	1.699786	-0.000037	-0.294403
C133	C	1.808062	-0.000026	-0.248425
H134	H	1.780110	-0.026315	-0.186292
H135	H	1.882312	-0.040346	-0.276270
H136	H	1.849321	0.066588	-0.245534
O137	O	1.775149	-0.000022	-0.508368
C138	C	1.761098	-0.000001	-0.425488
H139	H	1.662029	-0.026293	-0.405583
H140	H	1.835520	-0.040312	-0.398050
H141	H	1.774385	0.066617	-0.405811
H142	H	0.893270	0.057199	0.231291
