data_functionalizedCrystal
_audit_creation_method	'MofGen! by Chris Wilmer'
_symmetry_space_group_name_H-M	'P1'
_symmetry_Int_Tables_number	1
_symmetry_cell_setting	triclinic
loop_
_symmetry_equiv_pos_as_xyz
  x,y,z
_cell_length_a	15.995350
_cell_length_b	13.330367
_cell_length_c	14.853567
_cell_angle_alpha	89.994272
_cell_angle_beta	83.563652
_cell_angle_gamma	89.985824
loop_
_atom_site_label
_atom_site_type_symbol
_atom_site_fract_x
_atom_site_fract_y
_atom_site_fract_z
O1	O	1.111103	0.083330	0.116200
O2	O	0.867345	0.083350	0.130550
O3	O	0.995735	0.083342	-0.007864
O4	O	0.982713	0.083337	0.254613
O5	O	0.995759	-0.083505	-0.007855
O6	O	0.867369	-0.083498	0.130559
O7	O	1.111127	-0.083517	0.116209
Cu8	Cu	0.989250	-0.098742	0.123385
Cu9	Cu	0.989222	0.098574	0.123374
O10	O	0.982737	-0.083510	0.254622
C11	C	0.836161	-0.000071	0.129961
C12	C	0.743209	-0.000064	0.128182
N13	N	0.989202	0.237356	0.123360
C14	C	0.995157	-0.000078	-0.041447
C15	C	0.993389	-0.000069	-0.141528
C16	C	0.405454	-0.000084	0.121795
C17	C	0.452773	-0.000455	0.023220
C18	C	0.549465	-0.000072	0.024999
C19	C	0.573018	-0.000075	0.124963
C20	C	0.531974	0.095198	0.173579
C21	C	0.435335	0.095271	0.171103
C22	C	0.435026	-0.094465	0.173150
C23	C	0.531971	-0.095717	0.173126
C24	C	0.667718	-0.000066	0.126759
C25	C	0.310754	-0.000086	0.120002
C26	C	1.142311	-0.000094	0.116798
C27	C	1.235263	-0.000095	0.118576
N28	N	0.989276	-0.237523	0.123391
C29	C	0.932308	0.709982	0.184554
C30	C	1.046228	0.709943	0.062222
C31	C	1.046216	0.604925	0.062216
C32	C	0.989247	0.552430	0.123379
C33	C	0.932291	0.604954	0.184548
C34	C	1.103165	0.552394	0.001041
C35	C	1.103154	0.447369	0.001032
C36	C	1.046188	0.394872	0.062200
C37	C	0.989231	0.447402	0.123373
C38	C	0.932263	0.394907	0.184536
C39	C	0.875309	0.447435	0.245713
C40	C	0.875326	0.552457	0.245716
C41	C	1.046171	0.289851	0.062197
C42	C	0.932246	0.289879	0.184529
C43	C	0.909648	-0.000082	-0.553949
C44	C	1.062178	-0.000094	-0.575436
C45	C	1.063841	-0.000088	-0.481405
C46	C	0.988406	-0.000081	-0.423641
C47	C	0.911308	-0.000079	-0.459909
C48	C	1.140937	-0.000100	-0.445129
C49	C	1.142603	-0.000096	-0.351093
C50	C	1.067167	-0.000081	-0.293327
C51	C	0.990066	-0.000078	-0.329600
C52	C	0.914631	-0.000071	-0.271837
C53	C	0.837529	-0.000061	-0.308108
C54	C	0.835872	-0.000064	-0.402144
C55	C	1.068824	-0.000077	-0.199292
C56	C	0.916291	-0.000068	-0.177796
C57	C	0.983315	-0.000087	0.288206
C58	C	0.985083	-0.000089	0.388287
H59	H	0.577860	-0.068367	-0.013216
H60	H	0.885859	0.247144	0.234339
F61	F	0.814675	0.391555	0.310800
H62	H	0.577269	0.068344	-0.013482
H63	H	1.131599	-0.000092	-0.169764
H64	H	0.403170	0.099593	0.243475
F65	F	0.411335	0.188361	0.124753
H66	H	0.854861	-0.000057	-0.130770
H67	H	0.403349	-0.095112	0.245829
F68	F	0.757248	-0.000060	-0.246622
F69	F	0.871698	0.765883	0.249665
F70	F	1.164321	0.608263	-0.063467
H71	H	0.414463	-0.166680	0.140927
F72	F	0.753822	-0.000051	-0.440753
H73	H	1.202353	-0.000116	-0.492167
F74	F	0.427087	0.088353	-0.028056
F75	F	0.550566	0.099845	0.269566
H76	H	0.828956	0.595232	0.295524
H77	H	0.846873	-0.000070	-0.583486
F78	F	1.107163	0.765813	-0.002533
H79	H	0.434215	-0.068778	-0.016180
F80	F	1.142457	-0.000116	-0.636914
H81	H	1.149529	0.404607	-0.048781
H82	H	1.092538	0.247087	0.012383
H83	H	1.205384	-0.000102	-0.321569
H84	H	0.560298	0.166105	0.139805
F85	F	0.567552	-0.187843	0.126667
H86	H	0.547422	-0.101474	0.246024
