data_functionalizedCrystal
_audit_creation_method	'MofGen! by Chris Wilmer'
_symmetry_space_group_name_H-M	'P1'
_symmetry_Int_Tables_number	1
_symmetry_cell_setting	triclinic
loop_
_symmetry_equiv_pos_as_xyz
  x,y,z
_cell_length_a	19.805407
_cell_length_b	12.759399
_cell_length_c	12.759393
_cell_angle_alpha	90.030906
_cell_angle_beta	89.976310
_cell_angle_gamma	89.984884
loop_
_atom_site_label
_atom_site_type_symbol
_atom_site_fract_x
_atom_site_fract_y
_atom_site_fract_z
Zn1	Zn	1.034816	0.418215	-0.594094
Zn2	Zn	1.534816	0.918215	-0.094094
Zn3	Zn	1.034745	0.593931	-0.418413
Zn4	Zn	1.534745	1.093931	0.081587
Zn5	Zn	0.921623	0.418267	-0.418421
Zn6	Zn	1.421623	0.918267	0.081579
Zn7	Zn	0.921617	0.593853	-0.594042
Zn8	Zn	1.421617	1.093853	-0.094042
O9	O	0.978200	0.506066	-0.506243
O10	O	1.478200	1.006066	-0.006243
O11	O	1.129523	0.441536	-0.570808
O12	O	1.629523	0.941536	-0.070808
O13	O	1.019712	0.570683	-0.271393
O14	O	1.519712	1.070683	0.228607
O15	O	0.936670	0.271239	-0.441750
O16	O	1.436670	0.771239	0.058250
O17	O	1.129471	0.570633	-0.441736
O18	O	1.629471	1.070633	0.058264
O19	O	1.019833	0.271201	-0.570816
O20	O	1.519833	0.771201	-0.070816
O21	O	0.936602	0.441623	-0.271399
O22	O	1.436602	0.941623	0.228601
O23	O	0.826905	0.441547	-0.441699
O24	O	1.326905	0.941547	0.058301
O25	O	0.936660	0.570500	-0.741070
O26	O	1.436660	1.070500	-0.241070
O27	O	0.826901	0.570550	-0.570727
O28	O	1.326901	1.070550	-0.070727
O29	O	1.019827	0.441460	-0.741108
O30	O	1.519827	0.941460	-0.241108
O31	O	1.019706	0.740942	-0.441685
O32	O	1.519706	1.240942	0.058315
O33	O	0.936591	0.740884	-0.570719
O34	O	1.436591	1.240884	-0.070719
C35	C	0.802344	0.506046	-0.506209
C36	C	1.302344	1.006046	-0.006209
C37	C	0.727112	0.506063	-0.506219
C38	C	1.227112	1.006063	-0.006219
C39	C	0.978159	0.779034	-0.506219
C40	C	1.478159	1.279034	-0.006219
C41	C	0.978203	0.895810	-0.506244
C42	C	1.478203	1.395810	-0.006244
C43	C	0.978251	0.505966	-0.780276
C44	C	1.478251	1.005966	-0.280276
C45	C	0.978273	0.505923	-0.897053
C46	C	1.478273	1.005923	-0.397053
C47	C	0.691784	0.573336	-0.573295
C48	C	1.191784	1.073336	-0.073295
C49	C	0.621095	0.573338	-0.573310
C50	C	1.121095	1.073338	-0.073310
C51	C	0.585737	0.506071	-0.506243
C52	C	1.085737	1.006071	-0.006243
C53	C	0.621070	0.438791	-0.439163
C54	C	1.121070	0.938791	0.060837
C55	C	0.691758	0.438785	-0.439155
C56	C	1.191758	0.938785	0.060845
C57	C	0.335997	0.438814	-0.439198
C58	C	0.835997	0.938814	0.060802
C59	C	0.265305	0.438828	-0.439210
C60	C	0.765305	0.938828	0.060790
C61	C	0.265335	0.573367	-0.573353
C62	C	0.765335	1.073367	-0.073353
C63	C	0.336022	0.573361	-0.573345
C64	C	0.836022	1.073361	-0.073345
C65	C	0.371349	0.506077	-0.506270
C66	C	0.871349	1.006077	-0.006270
C67	C	0.447998	0.506075	-0.506256
C68	C	0.947998	1.006075	-0.006256
C69	C	0.509090	0.506078	-0.506250
C70	C	1.009090	1.006078	-0.006250
C71	C	1.154743	0.506087	-0.506277
C72	C	1.654743	1.006087	-0.006277
C73	C	1.229975	0.506096	-0.506292
C74	C	1.729975	1.006096	-0.006292
C75	C	0.978260	0.232033	-0.506290
C76	C	1.478260	0.732033	-0.006290
C77	C	0.978286	0.115257	-0.506310
C78	C	1.478286	0.615257	-0.006310
C79	C	1.021530	0.950667	-0.439132
C80	C	1.521530	1.450667	0.060868
C81	C	1.021574	1.060391	-0.439167
C82	C	1.521574	1.560391	0.060833
C83	C	0.934957	1.060392	-0.573428
C84	C	1.434957	1.560392	-0.073428
C85	C	0.934917	0.950670	-0.573398
C86	C	1.434917	1.450670	-0.073398
C87	C	1.021581	0.438721	-0.951936
C88	C	1.521581	0.938721	-0.451936
C89	C	1.021592	0.438675	-1.061661
C90	C	1.521592	0.938675	-0.561661
C91	C	0.934985	0.573043	-1.061608
C92	C	1.434985	1.073043	-0.561608
C93	C	0.934971	0.573082	-0.951886
C94	C	1.434971	1.073082	-0.451886
C95	C	0.978189	0.506091	-0.233275
C96	C	1.478189	1.006091	0.266725
C97	C	0.978298	0.505838	-0.116499
C98	C	1.478298	1.005838	0.383501
H99	H	0.720567	0.628116	-0.627906
H100	H	1.220567	1.128116	-0.127906
C101	C	1.069206	0.364839	-0.891619
C102	C	1.569206	0.864839	-0.391619
C103	C	1.063708	0.245397	-0.906724
C104	C	1.563708	0.745397	-0.406724
C105	C	1.111332	0.171511	-0.846409
C106	C	1.611332	0.671511	-0.346409
C107	C	1.164454	0.217066	-0.770989
C108	C	1.664454	0.717066	-0.270989
C109	C	1.169954	0.336514	-0.755881
C110	C	1.669954	0.836514	-0.255881
C111	C	1.122330	0.410401	-0.816195
C112	C	1.622330	0.910401	-0.316195
H113	H	1.024382	0.211669	-0.962557
H114	H	1.524382	0.711669	-0.462557
H115	H	1.107261	0.083087	-0.857594
H116	H	1.607261	0.583087	-0.357594
H117	H	1.199709	0.162371	-0.726341
H118	H	1.699709	0.662371	-0.226341
H119	H	1.209280	0.370243	-0.700047
H120	H	1.709280	0.870243	-0.200047
H121	H	1.126402	0.498824	-0.805010
H122	H	1.626402	0.998824	-0.305010
H123	H	1.056777	0.906003	-0.384453
H124	H	1.556777	1.406003	0.115547
H125	H	0.236563	0.628149	-0.627973
H126	H	0.736563	1.128149	-0.127973
H127	H	0.899699	0.627805	-0.907198
H128	H	1.399699	1.127805	-0.407198
H129	H	1.056857	0.383951	-1.106342
H130	H	1.556857	0.883951	-0.606342
H131	H	0.899635	0.906002	-0.628053
H132	H	1.399635	1.406002	-0.128053
H133	H	0.236518	0.384045	-0.384595
H134	H	0.736518	0.884045	0.115405
H135	H	1.056856	1.105051	-0.384520
H136	H	1.556856	1.605051	0.115480
H137	H	0.592334	0.628119	-0.627929
H138	H	1.092334	1.128119	-0.127929
H139	H	0.899732	0.627724	-1.106266
H140	H	1.399732	1.127724	-0.606266
H141	H	0.899714	1.105072	-0.628101
H142	H	1.399714	1.605072	-0.128101
H143	H	0.364807	0.628140	-0.627954
H144	H	0.864807	1.128140	-0.127954
H145	H	0.364752	0.384036	-0.384574
H146	H	0.864752	0.884036	0.115426
H147	H	0.592276	0.384017	-0.384561
H148	H	1.092276	0.884017	0.115439
H149	H	0.720521	0.383999	-0.384540
H150	H	1.220521	0.883999	0.115460
