data_functionalizedCrystal
_audit_creation_method	'MofGen! by Chris Wilmer'
_symmetry_space_group_name_H-M	'P1'
_symmetry_Int_Tables_number	1
_symmetry_cell_setting	triclinic
loop_
_symmetry_equiv_pos_as_xyz
  x,y,z
_cell_length_a	16.992694
_cell_length_b	10.654550
_cell_length_c	16.053802
_cell_angle_alpha	92.591674
_cell_angle_beta	87.249047
_cell_angle_gamma	87.576563
loop_
_atom_site_label
_atom_site_type_symbol
_atom_site_fract_x
_atom_site_fract_y
_atom_site_fract_z
O1	O	1.045116	0.261481	-0.069321
O2	O	0.816816	0.258556	-0.069346
O3	O	0.936215	0.077733	-0.069330
O4	O	0.925717	0.442304	-0.069337
O5	O	0.929643	0.087643	0.069528
O6	O	0.810244	0.268466	0.069512
O7	O	1.038544	0.271390	0.069537
Zn8	Zn	0.923350	0.271501	0.091571
Zn9	Zn	0.932009	0.258446	-0.091380
O10	O	0.919145	0.452213	0.069521
C11	C	0.784297	0.259751	0.000080
C12	C	0.697192	0.248531	0.000071
C13	C	0.647540	0.356781	0.000069
C14	C	0.565696	0.346233	0.000081
C15	C	0.533505	0.227432	0.000088
C16	C	0.583163	0.119174	0.000092
C17	C	0.665006	0.129724	0.000087
C18	C	0.289668	0.183707	0.000112
C19	C	0.207819	0.173165	0.000115
C20	C	0.190358	0.400225	0.000105
C21	C	0.272203	0.410765	0.000094
C22	C	0.321854	0.302506	0.000103
N23	N	0.449847	0.216647	0.000098
N24	N	0.405510	0.313293	0.000099
C25	C	0.932158	0.035823	0.000098
C26	C	0.929852	-0.103819	0.000095
C27	C	1.000152	-0.177229	0.000105
C28	C	0.997981	-0.308438	0.000099
C29	C	0.855203	-0.292815	0.000076
C30	C	0.857375	-0.161609	0.000077
C31	C	1.072629	-0.119440	0.000124
C32	C	1.142935	-0.192850	0.000135
C33	C	1.140763	-0.324059	0.000129
C34	C	1.068286	-0.381858	0.000112
C35	C	1.071063	0.270196	0.000109
C36	C	1.158168	0.281416	0.000113
C37	C	0.923202	0.494123	0.000091
C38	C	0.925508	0.633766	0.000089
N39	N	0.917446	0.280411	0.216431
N40	N	0.937920	0.249526	-0.216239
C41	C	0.968269	0.203502	0.260132
C42	C	0.964147	0.209747	0.347538
C43	C	0.909204	0.292909	0.391242
C44	C	0.858376	0.369822	0.347535
C45	C	0.862495	0.363569	0.260130
C46	C	0.891210	0.320186	0.652649
C47	C	0.887096	0.326435	0.740060
C48	C	0.992867	0.166359	0.740057
C49	C	0.996985	0.160119	0.652650
C50	C	0.946153	0.237026	0.608951
N51	N	0.904991	0.299298	0.480585
N52	N	0.950364	0.230631	0.519610
H53	H	0.330085	0.095555	0.000119
H54	H	0.149924	0.488363	0.000100
H55	H	0.842353	0.394161	0.775640
C56	C	0.285850	0.602442	-0.071301
C57	C	0.307568	0.541367	0.000083
H58	H	0.307675	0.683076	-0.071309
H59	H	0.305143	0.554068	-0.119712
H60	H	0.229999	0.611620	-0.071286
H61	H	0.363419	0.532180	0.000064
H62	H	0.288279	0.589752	0.048506
C63	C	1.111232	0.069337	0.071523
C64	C	1.075023	0.024785	0.000131
H65	H	1.112714	0.158375	0.071524
H66	H	1.082075	0.045994	0.119928
H67	H	1.163471	0.033871	0.071523
H68	H	1.022782	0.060244	0.000133
H69	H	1.104180	0.048140	-0.048287
C70	C	0.975632	0.047482	0.445832
C71	C	1.020019	0.125207	0.395568
H72	H	1.010129	-0.004717	0.475477
H73	H	0.942329	0.097896	0.484370
H74	H	0.944343	-0.003459	0.411733
H75	H	1.051304	0.176155	0.429667
H76	H	1.053336	0.074788	0.357025
C77	C	0.788479	-0.487010	0.000075
C78	C	0.775539	-0.356344	0.000068
H79	H	0.739296	-0.526226	0.000078
H80	H	0.819740	-0.515169	-0.048341
H81	H	0.815165	-0.508251	0.048505
H82	H	0.748858	-0.335102	-0.048364
H83	H	0.744265	-0.328175	0.048490
H84	H	0.849823	0.382810	0.617076
H85	H	0.556946	0.022444	0.000110
H86	H	0.705432	0.041574	0.000087
H87	H	1.066524	-0.488698	0.000098
H88	H	1.201944	-0.145783	0.000128
C89	C	0.716026	-0.159334	0.000060
C90	C	0.780101	-0.080907	0.000067
H91	H	0.668321	-0.109509	0.000055
H92	H	0.720441	-0.214287	-0.048359
H93	H	0.715857	-0.207381	0.048488
H94	H	0.780274	-0.032867	-0.048365
H95	H	0.775685	-0.025932	0.048490
C96	C	1.072398	0.045893	0.268917
C97	C	1.028663	0.112084	0.212097
H98	H	1.109678	-0.010553	0.239262
H99	H	1.099293	0.103492	0.302996
H100	H	1.037881	-0.000168	0.303019
H101	H	1.063179	0.158152	0.177998
H102	H	1.001767	0.054476	0.178003
H103	H	0.525272	0.434383	0.000079
H104	H	1.198010	-0.383827	0.000129
H105	H	0.813636	0.437530	0.383124
C106	C	1.101113	0.002503	0.661431
C107	C	1.057375	0.068696	0.604614
H108	H	1.138393	-0.053940	0.631773
H109	H	1.128008	0.060102	0.695510
H110	H	1.066599	-0.043561	0.695533
H111	H	1.091889	0.114768	0.570515
H112	H	1.030479	0.011090	0.570520
C113	C	1.004328	0.004107	0.838358
C114	C	1.048730	0.081812	0.788094
H115	H	1.038816	-0.048098	0.868010
H116	H	0.971026	0.054534	0.876890
H117	H	0.973037	-0.046829	0.804259
H118	H	1.080016	0.132755	0.822194
H119	H	1.082045	0.031380	0.749558
C120	C	0.757540	0.522437	0.268907
C121	C	0.806632	0.448117	0.212091
H122	H	0.723054	0.574637	0.239248
H123	H	0.727433	0.469715	0.303005
H124	H	0.788841	0.573380	0.302991
H125	H	0.775331	0.397167	0.178012
H126	H	0.836742	0.500845	0.177979
H127	H	0.673743	0.453521	0.000063
H128	H	0.181613	0.076419	0.000120
