data_functionalizedCrystal
_audit_creation_method	'MofGen! by Chris Wilmer'
_symmetry_space_group_name_H-M	'P1'
_symmetry_Int_Tables_number	1
_symmetry_cell_setting	triclinic
loop_
_symmetry_equiv_pos_as_xyz
  x,y,z
_cell_length_a	11.026607
_cell_length_b	16.109301
_cell_length_c	15.186229
_cell_angle_alpha	90.002208
_cell_angle_beta	90.004485
_cell_angle_gamma	83.976251
loop_
_atom_site_label
_atom_site_type_symbol
_atom_site_fract_x
_atom_site_fract_y
_atom_site_fract_z
O1	O	0.155976	-1.126500	0.073169
O2	O	0.489309	-0.793167	0.406503
O3	O	0.822642	-0.459833	0.739836
O4	O	0.175386	-0.887347	0.073183
O5	O	0.508719	-0.554013	0.406516
O6	O	0.842053	-0.220680	0.739849
O7	O	-0.010964	-0.987103	0.073174
O8	O	0.322369	-0.653769	0.406507
O9	O	0.655702	-0.320436	0.739841
O10	O	0.342326	-1.026744	0.073178
O11	O	0.675659	-0.693411	0.406511
O12	O	1.008993	-0.360077	0.739845
O13	O	-0.010975	-0.987100	-0.073283
O14	O	0.322358	-0.653767	0.260050
O15	O	0.655691	-0.320433	0.593383
O16	O	0.175375	-0.887344	-0.073274
O17	O	0.508708	-0.554011	0.260059
O18	O	0.842042	-0.220677	0.593392
O19	O	0.155965	-1.126497	-0.073288
O20	O	0.489298	-0.793164	0.260045
O21	O	0.822631	-0.459831	0.593379
Zn22	Zn	0.165668	-1.006920	-0.096534
Zn23	Zn	0.499001	-0.673587	0.236799
Zn24	Zn	0.832335	-0.340254	0.570132
Zn25	Zn	0.165683	-1.006924	0.096429
Zn26	Zn	0.499016	-0.673590	0.429763
Zn27	Zn	0.832349	-0.340257	0.763096
O28	O	0.342315	-1.026741	-0.073279
O29	O	0.675648	-0.693408	0.260054
O30	O	1.008982	-0.360075	0.593388
C31	C	0.174594	-0.856253	-0.000044
C32	C	0.507928	-0.522919	0.333289
C33	C	0.841261	-0.189586	0.666623
C34	C	0.172237	-0.763604	-0.000039
C35	C	0.505570	-0.430271	0.333295
C36	C	0.838904	-0.096937	0.666628
N37	N	0.165684	-1.006925	0.228122
N38	N	0.499017	-0.673592	0.561455
N39	N	0.832351	-0.340259	0.894789
C40	C	-0.056178	-0.979788	-0.000053
C41	C	0.277155	-0.646455	0.333280
C42	C	0.610489	-0.313121	0.666613
C43	C	-0.190883	-0.957987	-0.000049
C44	C	0.142450	-0.624654	0.333285
C45	C	0.475783	-0.291320	0.666618
C46	C	-0.264713	-1.018183	-0.000051
C47	C	0.068621	-0.684850	0.333282
C48	C	0.401954	-0.351516	0.666616
C49	C	-0.403938	-0.995652	-0.000046
C50	C	-0.070605	-0.662319	0.333287
C51	C	0.262729	-0.328986	0.666620
C52	C	0.387529	-1.034056	-0.000050
C53	C	0.720862	-0.700723	0.333283
C54	C	1.054195	-0.367389	0.666617
C55	C	0.522234	-1.055857	-0.000049
C56	C	0.855567	-0.722523	0.333285
C57	C	1.188901	-0.389190	0.666618
C58	C	0.156756	-1.157591	-0.000059
C59	C	0.490090	-0.824258	0.333274
C60	C	0.823423	-0.490925	0.666607
C61	C	0.159114	-1.250240	-0.000059
C62	C	0.492447	-0.916907	0.333275
C63	C	0.825780	-0.583573	0.666608
C64	C	0.277333	-0.557080	-0.000048
C65	C	0.610666	-0.223747	0.333286
C66	C	0.943999	0.109586	0.666619
C67	C	0.275108	-0.470027	-0.000053
C68	C	0.608442	-0.136693	0.333280
C69	C	0.941775	0.196640	0.666613
C70	C	0.054010	-0.456769	-0.000052
C71	C	0.387343	-0.123436	0.333281
C72	C	0.720676	0.209897	0.666614
C73	C	0.056235	-0.543821	-0.000053
C74	C	0.389569	-0.210488	0.333280
C75	C	0.722902	0.122845	0.666614
C76	C	0.167900	-0.593975	-0.000046
C77	C	0.501234	-0.260642	0.333287
C78	C	0.834567	0.072692	0.666620
C79	C	0.163450	-0.419869	-0.000051
C80	C	0.496784	-0.086536	0.333282
C81	C	0.830117	0.246798	0.666615
C82	C	0.161038	-0.325481	-0.000057
C83	C	0.494371	0.007852	0.333276
C84	C	0.827704	0.341185	0.666609
C85	C	0.170314	-0.688369	-0.000042
C86	C	0.503647	-0.355035	0.333292
C87	C	0.836980	-0.021702	0.666625
N88	N	0.165657	-1.006924	-0.228227
N89	N	0.498990	-0.673590	0.105106
N90	N	0.832324	-0.340257	0.438440
C91	C	0.083327	-1.051230	0.453841
C92	C	0.416661	-0.717897	0.787174
C93	C	0.749994	-0.384564	1.120508
C94	C	0.083324	-1.051232	0.546031
C95	C	0.416657	-0.717899	0.879364
C96	C	0.749991	-0.384565	1.212697
C97	C	0.248023	-0.962618	0.546047
C98	C	0.581356	-0.629284	0.879381
C99	C	0.914689	-0.295951	1.212714
C100	C	0.248031	-0.962621	0.453859
C101	C	0.581364	-0.629288	0.787193
C102	C	0.914697	-0.295954	1.120526
C103	C	0.165676	-1.006925	0.407759
C104	C	0.499009	-0.673592	0.741092
C105	C	0.832343	-0.340259	1.074425
C106	C	0.165665	-1.006924	0.592136
C107	C	0.498998	-0.673590	0.925470
C108	C	0.832332	-0.340257	1.258803
C109	C	0.165662	-1.006926	0.692092
C110	C	0.498995	-0.673592	1.025426
C111	C	0.832329	-0.340259	1.358759
C112	C	0.165680	-1.006925	0.307796
C113	C	0.499013	-0.673592	0.641129
C114	C	0.832347	-0.340258	0.974463
H115	H	-0.224848	-1.086399	-0.000060
H116	H	0.108485	-0.753065	0.333273
H117	H	0.441818	-0.419732	0.666606
Br118	Br	-0.028434	-1.111368	0.608568
Br119	Br	0.304899	-0.778034	0.941901
Br120	Br	0.638232	-0.444701	1.275235
Br121	Br	0.423630	-0.419959	-0.000060
Br122	Br	0.756963	-0.086625	0.333273
Br123	Br	1.090297	0.246708	0.666607
H124	H	0.315072	-0.926545	0.583592
H125	H	0.648405	-0.593211	0.916925
H126	H	0.981739	-0.259878	1.250259
Br127	Br	-0.092291	-0.593898	-0.000062
Br128	Br	0.241042	-0.260564	0.333271
Br129	Br	0.574376	0.072769	0.666605
H130	H	-0.036904	-0.415924	-0.000063
H131	H	0.296429	-0.082590	0.333270
H132	H	0.629762	0.250743	0.666603
H133	H	0.315095	-0.926543	0.416337
H134	H	0.648428	-0.593210	0.749670
H135	H	0.981761	-0.259876	1.083003
Br136	Br	-0.470362	-0.881946	-0.000027
Br137	Br	-0.137028	-0.548612	0.333306
Br138	Br	0.196305	-0.215279	0.666639
H139	H	-0.230748	-0.889771	-0.000039
H140	H	0.102586	-0.556438	0.333294
H141	H	0.435919	-0.223105	0.666627
H142	H	0.368257	-0.597913	-0.000049
H143	H	0.701591	-0.264580	0.333284
H144	H	1.034924	0.068753	0.666618
H145	H	0.016271	-1.087307	0.416308
H146	H	0.349604	-0.753974	0.749641
H147	H	0.682938	-0.420640	1.082974
H148	H	-0.437909	-1.124077	0.000014
H149	H	-0.104576	-0.790744	0.333347
H150	H	0.228758	-0.457411	0.666680
