data_functionalizedCrystal
_audit_creation_method	'MofGen! by Chris Wilmer'
_symmetry_space_group_name_H-M	'P1'
_symmetry_Int_Tables_number	1
_symmetry_cell_setting	triclinic
loop_
_symmetry_equiv_pos_as_xyz
  x,y,z
_cell_length_a	18.050589
_cell_length_b	19.077241
_cell_length_c	19.076919
_cell_angle_alpha	90.113904
_cell_angle_beta	92.270055
_cell_angle_gamma	87.687629
loop_
_atom_site_label
_atom_site_type_symbol
_atom_site_fract_x
_atom_site_fract_y
_atom_site_fract_z
Zn1	Zn	-0.269601	-1.058308	-0.440558
Zn2	Zn	-0.388616	-1.062956	-0.323049
Zn3	Zn	-0.269210	-0.945524	-0.318336
Zn4	Zn	-0.398521	-0.940776	-0.435784
O5	O	-0.331487	-1.001891	-0.379432
O6	O	-0.281407	-1.157258	-0.428941
O7	O	-0.368467	-1.051311	-0.224093
O8	O	-0.165336	-0.960527	-0.334575
O9	O	-0.368846	-1.160673	-0.342607
O10	O	-0.165624	-1.043389	-0.424371
O11	O	-0.280740	-0.965034	-0.220630
O12	O	-0.290345	-0.846561	-0.329945
O13	O	-0.385729	-0.952435	-0.534748
O14	O	-0.385350	-0.843073	-0.416234
O15	O	-0.291012	-1.038785	-0.538256
O16	O	-0.493855	-1.046707	-0.337978
O17	O	-0.501133	-0.956942	-0.420804
C18	C	-0.338880	-0.819320	-0.372060
C19	C	-0.342062	-0.741214	-0.368924
C20	C	-0.298110	-0.702740	-0.412468
C21	C	-0.301095	-0.629352	-0.409514
C22	C	-0.348037	-0.594439	-0.363020
C23	C	-0.391991	-0.632919	-0.319471
C24	C	-0.389001	-0.706306	-0.322421
C25	C	-0.361849	-0.375147	-0.349365
C26	C	-0.364837	-0.301755	-0.346420
C27	C	-0.273940	-0.298193	-0.436463
C28	C	-0.270958	-0.371582	-0.439412
C29	C	-0.314909	-0.410055	-0.395860
N30	N	-0.351092	-0.519425	-0.360001
N31	N	-0.311850	-0.485068	-0.398876
C32	C	-0.524440	-1.001832	-0.379400
C33	C	-0.606985	-1.001870	-0.379413
C34	C	-0.851824	-1.050803	-0.334454
C35	C	-0.804334	-0.987384	-0.314614
C36	C	-0.904104	-1.001956	-0.379470
C37	C	-0.804512	-1.065331	-0.399249
C38	C	-0.758119	-1.001917	-0.379440
C39	C	-0.857701	-0.938504	-0.359596
C40	C	-0.857883	-1.016493	-0.444262
C41	C	-0.810418	-0.953028	-0.424444
C42	C	-0.988202	-1.001979	-0.379486
C43	C	-0.674023	-1.001887	-0.379425
C44	C	-0.137780	-1.001969	-0.379480
C45	C	-0.055234	-1.002002	-0.379500
C46	C	-0.339519	-0.994562	-0.562711
C47	C	-0.342942	-0.991439	-0.640813
C48	C	-0.324061	-0.185175	-0.386827
C49	C	-0.320885	-0.263281	-0.389964
C50	C	-0.295238	-1.034927	-0.679333
C51	C	-0.298452	-1.031984	-0.752719
C52	C	-0.349373	-0.985556	-0.787583
C53	C	-0.397079	-0.942062	-0.749057
C54	C	-0.393861	-0.945002	-0.675673
C55	C	-0.364281	-0.971938	-1.006861
C56	C	-0.367497	-0.969003	-1.080251
C57	C	-0.268868	-1.058924	-1.083907
C58	C	-0.265658	-1.061863	-1.010521
C59	C	-0.313361	-1.018367	-0.972002
N60	N	-0.352661	-0.982548	-0.862594
N61	N	-0.310069	-1.021372	-0.896992
C62	C	-0.323431	-1.009232	-0.196867
C63	C	-0.319793	-1.012491	-0.118771
H64	H	-0.403067	-0.273331	-0.308558
O65	O	-0.225313	-0.405578	-0.484480
C66	C	-0.173793	-0.449616	-0.446259
H67	H	-0.197115	-0.462721	-0.393403
H68	H	-0.163045	-0.500086	-0.476969
H69	H	-0.119560	-0.421651	-0.437499
H70	H	-0.780881	-0.975066	-0.259808
O71	O	-0.776633	-1.129229	-0.419308
C72	C	-0.736569	-1.121871	-0.480649
H73	H	-0.717850	-1.065701	-0.484565
H74	H	-0.685902	-1.159577	-0.478485
H75	H	-0.773557	-1.134387	-0.528497
O76	O	-0.416935	-0.923953	-1.114230
C77	C	-0.409529	-0.930674	-1.187259
H78	H	-0.383463	-0.984518	-1.199479
H79	H	-0.466570	-0.924756	-1.214946
H80	H	-0.372568	-0.888185	-1.206407
H81	H	-0.792246	-0.911657	-0.462498
H82	H	-0.870136	-1.092080	-0.296367
H83	H	-0.432700	-0.909582	-0.644311
O84	O	-0.252619	-0.736681	-0.457710
C85	C	-0.295229	-0.777331	-0.504719
H86	H	-0.354814	-0.755035	-0.508071
H87	H	-0.270794	-0.776014	-0.558875
H88	H	-0.294533	-0.833815	-0.485225
O89	O	-0.216229	-1.106917	-0.976546
C90	C	-0.223592	-1.100159	-0.903514
H91	H	-0.281410	-1.077560	-0.892539
H92	H	-0.215152	-1.153902	-0.877739
H93	H	-0.180168	-1.063553	-0.881209
H94	H	-0.259608	-1.067399	-0.784079
H95	H	-0.438538	-0.904257	-0.777449
H96	H	-0.265306	-0.598030	-0.444974
H97	H	-0.238157	-0.266861	-0.471919
O98	O	-0.885761	-1.031246	-0.509661
C99	C	-0.826921	-1.042180	-0.555406
H100	H	-0.774040	-1.058021	-0.523721
H101	H	-0.840998	-1.085667	-0.594179
H102	H	-0.818147	-0.991695	-0.585307
H103	H	-0.397638	-0.406463	-0.313903
H104	H	-0.424791	-0.737631	-0.286962
O105	O	-0.437573	-0.598896	-0.274367
C106	C	-0.430777	-0.525872	-0.281087
H107	H	-0.409330	-0.513693	-0.334955
H108	H	-0.487321	-0.498165	-0.275105
H109	H	-0.390185	-0.506709	-0.238639
H110	H	-0.253774	-1.072737	-0.650953
H111	H	-0.230030	-1.094335	-1.115277
H112	H	-0.880909	-0.884880	-0.342793
O113	O	-0.410686	-0.929653	-0.969558
C114	C	-0.456301	-0.888029	-1.016068
H115	H	-0.460016	-0.914725	-1.069536
H116	H	-0.514184	-0.881337	-0.994541
H117	H	-0.431590	-0.834369	-1.021735
