data_functionalizedCrystal
_audit_creation_method	'MofGen! by Chris Wilmer'
_symmetry_space_group_name_H-M	'P1'
_symmetry_Int_Tables_number	1
_symmetry_cell_setting	triclinic
loop_
_symmetry_equiv_pos_as_xyz
  x,y,z
_cell_length_a	12.837943
_cell_length_b	11.892095
_cell_length_c	14.519709
_cell_angle_alpha	93.895429
_cell_angle_beta	90.745458
_cell_angle_gamma	94.310562
loop_
_atom_site_label
_atom_site_type_symbol
_atom_site_fract_x
_atom_site_fract_y
_atom_site_fract_z
O1	O	-1.382515	-0.093988	0.234472
O2	O	-0.882515	0.406012	0.734472
O3	O	-1.080688	-0.093995	0.222627
O4	O	-0.580688	0.406005	0.722627
O5	O	-1.239604	-0.093981	0.095003
O6	O	-0.739604	0.406019	0.595003
O7	O	-1.223600	-0.094002	0.362096
O8	O	-0.723600	0.405998	0.862096
O9	O	-1.226354	0.094025	0.105626
O10	O	-0.726354	0.594025	0.605626
O11	O	-1.067438	0.094012	0.233250
O12	O	-0.567438	0.594012	0.733250
O13	O	-1.369265	0.094018	0.245095
O14	O	-0.869265	0.594018	0.745095
Zn15	Zn	-1.216248	0.123865	0.240859
Zn16	Zn	-0.716248	0.623865	0.740859
Zn17	Zn	-1.233706	-0.123842	0.226863
Zn18	Zn	-0.733706	0.376158	0.726863
O19	O	-1.210350	0.094005	0.372719
O20	O	-0.710350	0.594005	0.872719
C21	C	-1.035435	0.000008	0.223937
C22	C	-0.535435	0.500008	0.723937
C23	C	-0.920336	0.000006	0.212002
C24	C	-0.420336	0.500006	0.712002
C25	C	-1.232233	0.000022	0.065890
C26	C	-0.732233	0.500022	0.565890
C27	C	-1.229998	0.000023	-0.036684
C28	C	-0.729998	0.500023	0.463316
C29	C	-1.414519	0.000013	0.243785
C30	C	-0.914519	0.500013	0.743785
C31	C	-1.529618	0.000008	0.255719
C32	C	-1.029618	0.500008	0.755719
N33	N	-1.204341	0.292918	0.250411
N34	N	-0.704341	0.792918	0.750411
C35	C	-0.679644	0.000011	0.355473
C36	C	-0.179644	0.500011	0.855473
C37	C	-0.571497	0.000010	0.344264
C38	C	-0.071497	0.500010	0.844264
C39	C	-0.595894	0.000010	0.178377
C40	C	-0.095894	0.500010	0.678377
C41	C	-0.704041	0.000012	0.189586
C42	C	-0.204041	0.500012	0.689586
C43	C	-0.745911	0.000010	0.278137
C44	C	-0.245911	0.500010	0.778137
C45	C	-0.854060	0.000003	0.289344
C46	C	-0.354060	0.500003	0.789344
C47	C	-0.878455	0.000012	0.123458
C48	C	-0.378455	0.500012	0.623458
C49	C	-0.770308	0.000011	0.112249
C50	C	-0.270308	0.500011	0.612249
N51	N	-1.245621	-0.292895	0.217304
N52	N	-0.745621	0.207105	0.717304
C53	C	-1.328473	0.529576	0.150784
C54	C	-0.828473	1.029576	0.650784
C55	C	-1.320158	0.647918	0.157468
C56	C	-0.820158	1.147918	0.657468
C57	C	-1.179391	0.647944	0.270458
C58	C	-0.679391	1.147944	0.770458
C59	C	-1.187707	0.529603	0.263774
C60	C	-0.687707	1.029603	0.763774
C61	C	-1.262251	0.470423	0.203936
C62	C	-0.762251	0.970423	0.703936
C63	C	-1.270570	0.352080	0.197257
C64	C	-0.770570	0.852080	0.697257
C65	C	-1.129800	0.352108	0.310242
C66	C	-0.629800	0.852108	0.810242
C67	C	-1.121484	0.470449	0.316926
C68	C	-0.621484	0.970449	0.816926
C69	C	-1.221771	-0.000007	-0.412293
C70	C	-0.721771	0.499993	0.087707
C71	C	-1.224055	0.000002	-0.307787
C72	C	-0.724055	0.500002	0.192213
C73	C	-1.225884	0.000009	-0.224492
C74	C	-0.725884	0.500009	0.275508
C75	C	-1.228169	0.000016	-0.119979
C76	C	-0.728169	0.500016	0.380021
C77	C	-1.217721	-0.000001	0.401831
C78	C	-0.717721	0.499999	0.901831
C79	C	-1.219957	-0.000009	0.504405
C80	C	-0.719957	0.499991	1.004405
H81	H	-0.713735	0.000008	0.427575
H82	H	-0.213735	0.500008	0.927575
H83	H	-0.517545	0.000013	0.407240
H84	H	-0.017545	0.500013	0.907240
C85	C	-1.352568	0.286978	0.131446
C86	C	-0.852568	0.786978	0.631446
H87	H	-1.348047	0.208025	0.135084
H88	H	-0.848047	0.708025	0.635084
H89	H	-1.339837	0.306374	0.069985
H90	H	-0.839837	0.806374	0.569985
H91	H	-1.420417	0.306362	0.148682
H92	H	-0.920417	0.806362	0.648682
C93	C	-1.393005	0.712983	0.099004
C94	C	-0.893005	1.212983	0.599004
H95	H	-1.438593	0.660785	0.062416
H96	H	-0.938593	1.160785	0.562416
H97	H	-1.352396	0.759160	0.059921
H98	H	-0.852396	1.259160	0.559921
H99	H	-1.432985	0.759133	0.138610
H100	H	-0.932985	1.259133	0.638610
H101	H	-1.075880	0.303932	0.353524
H102	H	-0.575880	0.803932	0.853524
H103	H	-0.888149	0.000004	0.361447
H104	H	-0.388149	0.500004	0.861447
H105	H	-1.060789	0.518647	0.365642
H106	H	-0.560789	1.018647	0.865642
H107	H	-1.118692	0.696143	0.319170
H108	H	-0.618692	1.196143	0.819170
H109	H	-1.389177	0.481392	0.102068
H110	H	-0.889177	0.981392	0.602068
H111	H	-0.736201	0.000025	0.040154
H112	H	-0.236201	0.500025	0.540154
C113	C	-0.549822	0.000024	0.080982
C114	C	-0.049822	0.500024	0.580982
H115	H	-0.475923	0.000022	0.085387
H116	H	0.024077	0.500022	0.585387
H117	H	-0.567941	0.065587	0.052443
H118	H	-0.067941	0.565587	0.552443
H119	H	-0.577168	-0.065546	0.045034
H120	H	-0.077168	0.434454	0.545034
H121	H	-0.932423	0.000004	0.060485
H122	H	-0.432423	0.500004	0.560485
