data_functionalizedCrystal
_audit_creation_method	'MofGen! by Chris Wilmer'
_symmetry_space_group_name_H-M	'P1'
_symmetry_Int_Tables_number	1
_symmetry_cell_setting	triclinic
loop_
_symmetry_equiv_pos_as_xyz
  x,y,z
_cell_length_a	15.298206
_cell_length_b	15.299816
_cell_length_c	15.296720
_cell_angle_alpha	69.242954
_cell_angle_beta	69.221745
_cell_angle_gamma	69.257501
loop_
_atom_site_label
_atom_site_type_symbol
_atom_site_fract_x
_atom_site_fract_y
_atom_site_fract_z
Zn1	Zn	1.429649	-0.671612	0.378548
Zn2	Zn	1.762983	-0.338278	0.711881
Zn3	Zn	2.096316	-0.004945	1.045215
Zn4	Zn	1.476443	-0.807091	0.243057
Zn5	Zn	1.809777	-0.473758	0.576390
Zn6	Zn	2.143110	-0.140425	0.909723
Zn7	Zn	1.294162	-0.624797	0.243093
Zn8	Zn	1.627495	-0.291464	0.576427
Zn9	Zn	1.960829	0.041870	0.909760
Zn10	Zn	1.294084	-0.807077	0.425474
Zn11	Zn	1.627417	-0.473743	0.758808
Zn12	Zn	1.960750	-0.140410	1.092141
O13	O	1.373585	-0.727644	0.322543
O14	O	1.706918	-0.394311	0.655876
O15	O	2.040251	-0.060978	0.989210
O16	O	1.568877	-0.709181	0.340920
O17	O	1.902210	-0.375848	0.674254
O18	O	2.235544	-0.042515	1.007587
O19	O	1.471880	-0.763324	0.110031
O20	O	1.805213	-0.429991	0.443364
O21	O	2.138546	-0.096657	0.776698
O22	O	1.292584	-0.498024	0.241438
O23	O	1.625918	-0.164690	0.574772
O24	O	1.959251	0.168643	0.908105
O25	O	1.603256	-0.808718	0.241376
O26	O	1.936590	-0.475385	0.574709
O27	O	2.269923	-0.142051	0.908042
O28	O	1.392126	-0.532418	0.340956
O29	O	1.725459	-0.199085	0.674290
O30	O	2.058793	0.134249	1.007623
O31	O	1.337958	-0.629393	0.110058
O32	O	1.671292	-0.296060	0.443391
O33	O	2.004625	0.037274	0.776725
O34	O	1.161132	-0.629379	0.286941
O35	O	1.494465	-0.296045	0.620274
O36	O	1.827798	0.037288	0.953608
O37	O	1.292450	-0.808693	0.552280
O38	O	1.625784	-0.475360	0.885613
O39	O	1.959117	-0.142026	1.218947
O40	O	1.161074	-0.763299	0.420935
O41	O	1.494407	-0.429965	0.754269
O42	O	1.827741	-0.096632	1.087602
O43	O	1.392050	-0.709167	0.517803
O44	O	1.725383	-0.375834	0.851137
O45	O	2.058717	-0.042500	1.184470
O46	O	1.471804	-0.940073	0.286878
O47	O	1.805137	-0.606740	0.620211
O48	O	2.138470	-0.273406	0.953545
O49	O	1.337825	-0.940062	0.420900
O50	O	1.671158	-0.606729	0.754233
O51	O	2.004491	-0.273396	1.087566
C52	C	1.126612	-0.691258	0.359035
C53	C	1.459946	-0.357925	0.692368
C54	C	1.793279	-0.024591	1.025701
C55	C	1.020956	-0.675718	0.374672
C56	C	1.354290	-0.342385	0.708005
C57	C	1.687623	-0.009051	1.041339
C58	C	1.409906	-0.974556	0.358994
C59	C	1.743239	-0.641222	0.692327
C60	C	2.076573	-0.307889	1.025661
C61	C	1.425527	-1.080203	0.374607
C62	C	1.758860	-0.746869	0.707940
C63	C	2.092194	-0.413536	1.041273
C64	C	0.953425	-0.616703	0.433959
C65	C	1.286759	-0.283369	0.767293
C66	C	1.620092	0.049964	1.100626
C67	C	0.854155	-0.602093	0.448652
C68	C	1.187488	-0.268760	0.781986
C69	C	1.520821	0.064573	1.115319
C70	C	0.822405	-0.646504	0.404066
C71	C	1.155739	-0.313170	0.737399
C72	C	1.489072	0.020163	1.070732
C73	C	0.889937	-0.705526	0.344782
C74	C	1.223270	-0.372193	0.678116
C75	C	1.556603	-0.038859	1.011449
C76	C	0.989217	-0.720131	0.330082
C77	C	1.322550	-0.386797	0.663415
C78	C	1.655884	-0.053464	0.996749
C79	C	0.858197	-0.749932	0.300188
C80	C	1.191530	-0.416599	0.633521
C81	C	1.524864	-0.083265	0.966855
C82	C	0.925728	-0.808954	0.240905
C83	C	1.259062	-0.475621	0.574238
C84	C	1.592395	-0.142287	0.907572
C85	C	1.024999	-0.823557	0.226208
C86	C	1.358332	-0.490223	0.559541
C87	C	1.691665	-0.156890	0.892874
C88	C	1.056748	-0.779146	0.270795
C89	C	1.390081	-0.445813	0.604128
C90	C	1.723415	-0.112479	0.937461
C91	C	0.758917	-0.735327	0.314889
C92	C	1.092250	-0.401994	0.648222
C93	C	1.425583	-0.068660	0.981555
C94	C	0.794708	-0.838755	0.211011
C95	C	1.128042	-0.505422	0.544344
C96	C	1.461375	-0.172089	0.877678
C97	C	0.893979	-0.853365	0.196318
C98	C	1.227312	-0.520031	0.529651
C99	C	1.560646	-0.186698	0.862985
C100	C	1.262516	-1.306689	0.211187
C101	C	1.595850	-0.973356	0.544521
C102	C	1.929183	-0.640023	0.877854
C103	C	1.247835	-1.207428	0.196521
C104	C	1.581168	-0.874095	0.529855
C105	C	1.914501	-0.540761	0.863188
C106	C	1.292257	-1.175617	0.241041
C107	C	1.625590	-0.842283	0.574374
C108	C	1.958923	-0.508950	0.907708
C109	C	1.351362	-1.243077	0.300230
C110	C	1.684696	-0.909743	0.633563
C111	C	2.018029	-0.576410	0.966896
C112	C	1.366040	-1.342348	0.314903
C113	C	1.699373	-1.009014	0.648237
C114	C	2.032706	-0.675681	0.981570
C115	C	1.395780	-1.211275	0.344757
C116	C	1.729113	-0.877942	0.678090
C117	C	2.062446	-0.544608	1.011424
C118	C	1.454886	-1.278735	0.403946
C119	C	1.788219	-0.945402	0.737279
C120	C	2.121552	-0.612068	1.070613
C121	C	1.469560	-1.377996	0.418616
C122	C	1.802894	-1.044662	0.751949
C123	C	2.136227	-0.711329	1.085283
C124	C	1.425139	-1.409807	0.374096
C125	C	1.758472	-1.076474	0.707430
C126	C	2.091805	-0.743140	1.040763
C127	C	1.381103	-1.112004	0.330084
C128	C	1.714436	-0.778671	0.663417
C129	C	2.047769	-0.445337	0.996750
C130	C	1.484626	-1.147662	0.433800
C131	C	1.817959	-0.814329	0.767133
C132	C	2.151293	-0.480996	1.100466
C133	C	1.499308	-1.246923	0.448466
C134	C	1.832641	-0.913590	0.781799
C135	C	2.165974	-0.580257	1.115132
C136	C	1.621522	-0.764173	0.285909
C137	C	1.954855	-0.430840	0.619243
C138	C	2.288188	-0.097507	0.952576
C139	C	1.727177	-0.779740	0.270298
C140	C	2.060511	-0.446407	0.603632
C141	C	2.393844	-0.113073	0.936965
C142	C	1.337022	-0.764150	0.570500
C143	C	1.670355	-0.430817	0.903833
C144	C	2.003688	-0.097484	1.237166
C145	C	1.321441	-0.779707	0.676164
C146	C	1.654774	-0.446374	1.009497
C147	C	1.988108	-0.113040	1.342830
C148	C	1.337144	-0.479776	0.285967
C149	C	1.670478	-0.146442	0.619300
C150	C	2.003811	0.186891	0.952634
C151	C	1.321615	-0.374149	0.270380
C152	C	1.654949	-0.040815	0.603714
C153	C	1.988282	0.292518	0.937047
C154	C	1.410050	-0.691220	0.075533
C155	C	1.743383	-0.357886	0.408866
C156	C	2.076717	-0.024553	0.742200
C157	C	1.425775	-0.675422	-0.030197
C158	C	1.759109	-0.342089	0.303136
C159	C	2.092442	-0.008756	0.636469
C160	C	1.484955	-0.616296	0.902213
C161	C	1.818288	-0.282963	1.235547
C162	C	2.151621	0.050370	1.568880
C163	C	1.499600	-0.601683	0.802936
C164	C	1.832933	-0.268349	1.136269
C165	C	2.166267	0.064984	1.469603
C166	C	1.455061	-0.646187	0.771238
C167	C	1.788395	-0.312854	1.104571
C168	C	2.121728	0.020480	1.437905
C169	C	1.395875	-0.705309	0.838827
C170	C	1.729209	-0.371975	1.172161
C171	C	2.062542	-0.038642	1.505494
C172	C	1.381235	-0.719930	0.938115
C173	C	1.714568	-0.386597	1.271448
C174	C	2.047901	-0.053263	1.604781
C175	C	1.351341	-0.749821	0.807139
C176	C	1.684674	-0.416487	1.140472
C177	C	2.018008	-0.083154	1.473806
C178	C	1.292155	-0.808942	0.874728
C179	C	1.625488	-0.475609	1.208062
C180	C	1.958822	-0.142276	1.541395
C181	C	1.277517	-0.823560	0.974005
C182	C	1.610850	-0.490227	1.307339
C183	C	1.944183	-0.156894	1.640672
C184	C	1.322055	-0.779056	1.005704
C185	C	1.655389	-0.445723	1.339037
C186	C	1.988722	-0.112389	1.672370
C187	C	1.365982	-0.735199	0.707852
C188	C	1.699315	-0.401866	1.041185
C189	C	2.032648	-0.068533	1.374518
C190	C	1.262262	-0.838833	0.743753
C191	C	1.595595	-0.505500	1.077086
C192	C	1.928928	-0.172166	1.410419
C193	C	1.247616	-0.853447	0.843030
C194	C	1.580950	-0.520113	1.176364
C195	C	1.914283	-0.186780	1.509697
H196	H	0.703942	-0.687269	0.363156
H197	H	1.037275	-0.353936	0.696489
H198	H	1.370608	-0.020602	1.029822
H199	H	0.741574	-0.634602	0.416029
H200	H	1.074907	-0.301268	0.749362
H201	H	1.408240	0.032065	1.082695
Cl202	Cl	1.573608	-1.331740	0.522873
Cl203	Cl	1.906941	-0.998407	0.856207
Cl204	Cl	2.240274	-0.665073	1.189540
H205	H	1.280300	-1.094793	0.229095
H206	H	1.613634	-0.761459	0.562429
H207	H	1.946967	-0.428126	0.895762
Cl208	Cl	0.754803	-0.894585	0.154951
Cl209	Cl	1.088136	-0.561252	0.488285
Cl210	Cl	1.421470	-0.227918	0.821618
H211	H	1.229332	-0.871710	1.029036
H212	H	1.562666	-0.538377	1.362369
H213	H	1.895999	-0.205043	1.695702
Cl214	Cl	1.440383	-0.660877	0.622895
Cl215	Cl	1.773717	-0.327543	0.956228
Cl216	Cl	2.107050	0.005790	1.289561
Cl217	Cl	1.206663	-1.346687	0.155244
Cl218	Cl	1.539996	-1.013354	0.488577
Cl219	Cl	1.873329	-0.680020	0.821911
H220	H	1.547792	-0.553548	0.747911
H221	H	1.881125	-0.220215	1.081245
H222	H	2.214459	0.113118	1.414578
Cl223	Cl	1.443821	-1.534596	0.392303
Cl224	Cl	1.777154	-1.201263	0.725637
Cl225	Cl	2.110488	-0.867930	1.058970
H226	H	1.332978	-1.057086	0.281892
H227	H	1.666311	-0.723753	0.615225
H228	H	1.999645	-0.390420	0.948559
H229	H	1.521218	-0.580074	0.928033
H230	H	1.854551	-0.246740	1.261366
H231	H	2.187885	0.086593	1.594700
Cl232	Cl	1.173522	-1.122629	0.122128
Cl233	Cl	1.506856	-0.789296	0.455461
Cl234	Cl	1.840189	-0.455963	0.788794
H235	H	1.079981	-0.871607	0.177926
H236	H	1.413315	-0.538274	0.511260
H237	H	1.746648	-0.204941	0.844593
H238	H	1.517684	-1.432920	0.466816
H239	H	1.851017	-1.099587	0.800150
H240	H	2.184350	-0.766254	1.133483
Cl241	Cl	1.540472	-1.107679	0.489772
Cl242	Cl	1.873806	-0.774346	0.823106
Cl243	Cl	2.207139	-0.441012	1.156439
H244	H	1.466989	-0.634285	0.690401
H245	H	1.800323	-0.300952	1.023734
H246	H	2.133656	0.032382	1.357067
Cl247	Cl	0.769266	-0.527901	0.523179
Cl248	Cl	1.102600	-0.194568	0.856513
Cl249	Cl	1.435933	0.138766	1.189846
Cl250	Cl	0.978885	-0.927560	0.121792
Cl251	Cl	1.312219	-0.594227	0.455125
Cl252	Cl	1.645552	-0.260893	0.788459
Cl253	Cl	0.993345	-0.560874	0.489998
Cl254	Cl	1.326678	-0.227541	0.823331
Cl255	Cl	1.660012	0.105793	1.156665
Cl256	Cl	1.181550	-0.797516	0.252332
Cl257	Cl	1.514883	-0.464183	0.585666
Cl258	Cl	1.848216	-0.130850	0.918999
H259	H	1.310134	-0.790951	1.086542
H260	H	1.643468	-0.457618	1.419875
H261	H	1.976801	-0.124285	1.753209
H262	H	1.199426	-0.901584	0.898075
H263	H	1.532759	-0.568250	1.231409
H264	H	1.866093	-0.234917	1.564742
H265	H	1.225996	-0.875074	0.717946
H266	H	1.559330	-0.541741	1.051279
H267	H	1.892663	-0.208408	1.384612
