data_functionalizedCrystal
_audit_creation_method	'MofGen! by Chris Wilmer'
_symmetry_space_group_name_H-M	'P1'
_symmetry_Int_Tables_number	1
_symmetry_cell_setting	triclinic
loop_
_symmetry_equiv_pos_as_xyz
  x,y,z
_cell_length_a	20.875641
_cell_length_b	18.878441
_cell_length_c	20.875641
_cell_angle_alpha	62.441805
_cell_angle_beta	90.154292
_cell_angle_gamma	57.588372
loop_
_atom_site_label
_atom_site_type_symbol
_atom_site_fract_x
_atom_site_fract_y
_atom_site_fract_z
Zr1	Zr	0.643691	0.718444	-0.058410
O2	O	0.541265	0.866222	-0.160827
O3	O	0.675092	0.570666	-0.027016
O4	O	0.679997	0.707598	-0.155922
O5	O	0.532488	0.737844	0.069765
O6	O	0.789430	0.699043	-0.152051
O7	O	0.536359	0.729289	-0.031921
O8	O	0.780655	0.454096	0.078540
O9	O	0.541263	0.982791	-0.160825
O10	O	0.770151	0.625064	-0.010735
O11	O	0.685593	0.637833	0.062263
O12	O	0.691369	0.799054	-0.089508
O13	O	0.606811	0.811823	-0.016510
Zr14	Zr	0.812050	0.718443	0.109942
Zr15	Zr	0.818224	0.704799	-0.052235
Zr16	Zr	0.637517	0.732088	0.103768
Zr17	Zr	0.643689	0.904359	-0.058406
Zr18	Zr	0.812053	0.532528	0.109939
O19	O	0.780650	0.866221	0.078548
O20	O	0.789428	0.846821	-0.152048
O21	O	0.532486	0.885622	0.069768
O22	O	0.914477	0.570665	0.212360
O23	O	0.923255	0.551265	-0.018236
O24	O	0.666313	0.590066	0.203580
O25	O	0.923254	0.699043	-0.018233
O26	O	0.775744	0.729288	0.207455
O27	O	0.666311	0.737844	0.203583
O28	O	0.919383	0.707598	0.083453
O29	O	0.679994	0.971946	-0.155917
O30	O	0.775748	0.464941	0.207449
O31	O	0.914478	0.454096	0.212357
O32	O	0.919386	0.443250	0.083448
O33	O	0.536356	0.993637	-0.031915
O34	O	0.675086	0.982791	-0.027007
O35	O	0.764373	0.637833	0.141040
O36	O	0.848931	0.625064	0.068042
O37	O	0.770149	0.799053	-0.010731
O38	O	0.685591	0.811823	0.062267
C39	C	0.727874	0.485892	0.025762
C40	C	0.727875	0.406966	0.025760
C41	C	0.772011	0.363222	-0.012345
C42	C	0.772014	0.289058	-0.012339
C43	C	0.727875	0.258645	0.025768
C44	C	0.683737	0.302393	0.063877
C45	C	0.683740	0.376550	0.063876
C46	C	0.683734	0.147827	0.063877
C47	C	0.683730	0.073665	0.063877
C48	C	0.772009	0.060334	-0.012338
C49	C	0.772011	0.134491	-0.012340
C50	C	0.727871	0.178236	0.025769
C51	C	0.509556	0.735511	0.018043
C52	C	0.435462	0.741303	0.015421
C53	C	0.441774	0.653206	0.055305
C54	C	0.372152	0.658655	0.052840
C55	C	0.296220	0.752201	0.010487
C56	C	0.289909	0.840305	-0.029397
C57	C	0.359530	0.834856	-0.026928
C58	C	0.083590	0.778238	-0.001304
C59	C	0.013967	0.783681	-0.003772
C60	C	0.096215	0.602030	0.078466
C61	C	0.165834	0.596588	0.080929
C62	C	0.159518	0.684692	0.041047
N63	N	0.225054	0.757773	0.007965
N64	N	0.230682	0.679120	0.043575
C65	C	0.946185	0.701376	0.033490
C66	C	1.020279	0.695584	0.036111
C67	C	0.735593	0.701377	-0.177093
C68	C	0.738214	0.695584	-0.245942
C69	C	0.727868	0.950995	0.025771
C70	C	0.727867	1.029921	0.025772
C71	C	0.698324	0.783682	-0.319406
C72	C	0.700797	0.778233	-0.384094
C73	C	0.743156	0.684686	-0.375316
C74	C	0.783052	0.596582	-0.301844
C75	C	0.780583	0.602032	-0.237158
C76	C	0.754954	0.658648	-0.564368
C77	C	0.757418	0.653205	-0.629062
C78	C	0.675164	0.834856	-0.711307
C79	C	0.672695	0.840298	-0.646616
C80	C	0.712594	0.752194	-0.573150
N81	N	0.745683	0.679114	-0.441436
N82	N	0.710071	0.757767	-0.507031
C83	C	0.720148	0.735510	0.228626
C84	C	0.717527	0.741302	0.297474
C85	C	0.946188	0.468825	0.033485
C86	C	1.020283	0.384106	0.036105
C87	C	0.720151	0.502959	0.228621
C88	C	0.717531	0.429825	0.297468
C89	C	0.938466	0.485891	0.236345
C90	C	1.009940	0.406965	0.307813
C91	C	0.517276	0.950996	-0.184812
C92	C	0.445802	1.029922	-0.256281
C93	C	0.509553	0.968062	0.018047
C94	C	0.435458	1.052780	0.015427
C95	C	0.735590	0.933928	-0.177089
C96	C	0.738210	1.007062	-0.245936
C97	C	1.013957	0.344321	-0.003792
C98	C	1.083571	0.264729	-0.001346
C99	C	1.159510	0.224918	0.041002
C100	C	1.165835	0.264711	0.080900
C101	C	1.096222	0.344307	0.078449
C102	C	0.757423	0.395481	0.370927
C103	C	0.754958	0.326776	0.435622
C104	C	0.712605	0.292410	0.426857
C105	C	0.672709	0.326761	0.353391
C106	C	0.675170	0.395471	0.288697
C107	C	1.087650	0.363235	0.303271
C108	C	1.154814	0.289085	0.370418
C109	C	1.144266	0.258661	0.442105
C110	C	1.066548	0.302400	0.446644
C111	C	0.999385	0.376553	0.379499
C112	C	0.368092	1.073661	-0.251739
C113	C	0.300927	1.147834	-0.318885
C114	C	0.311475	1.178261	-0.390572
C115	C	0.389194	1.134518	-0.395112
C116	C	0.456356	1.060352	-0.327967
C117	C	0.441785	1.092573	0.055318
C118	C	0.372172	1.172184	0.052854
C119	C	0.296233	1.211997	0.010503
C120	C	0.289908	1.172201	-0.029392
C121	C	0.359520	1.092596	-0.026932
C122	C	0.780570	1.041405	-0.237147
C123	C	0.783048	1.110112	-0.301829
C124	C	0.743160	1.144478	-0.375300
C125	C	0.700799	1.110127	-0.384088
C126	C	0.698327	1.041417	-0.319406
H127	H	0.807954	0.253440	-0.043367
H128	H	0.519630	1.024739	-0.331674
H129	H	0.663824	0.859858	-0.326563
Br130	Br	0.201765	1.320034	0.007173
Br131	Br	1.052246	0.261100	0.543941
Br132	Br	0.615160	0.967263	-0.658537
Br133	Br	0.646657	0.897799	-0.483795
H134	H	0.787443	0.586908	-0.504557
H135	H	0.227659	0.520411	0.115402
H136	H	0.813066	0.530294	-0.177340
Br137	Br	0.220316	1.278919	-0.481692
H138	H	0.101348	0.530300	0.110936
Br139	Br	0.350963	0.954422	-0.081051
Br140	Br	0.621018	0.954419	-0.811011
Br141	Br	1.268902	0.210668	0.138372
H142	H	0.791912	0.577025	-0.621906
H143	H	0.237652	1.183438	-0.315174
Br144	Br	1.235425	0.158022	0.533225
Br145	Br	0.544836	1.038561	0.112797
Br146	Br	0.840537	1.156720	-0.289884
H147	H	0.078437	0.849978	-0.033792
Br148	Br	0.893923	0.435890	0.385677
H149	H	0.817546	0.520414	-0.294702
H150	H	0.377337	1.204573	0.085345
H151	H	0.952130	0.376733	-0.038286
H152	H	0.745179	1.200427	-0.427962
H153	H	0.807947	0.159258	-0.043374
H154	H	0.228069	1.204629	-0.063873
Br155	Br	1.074968	0.210740	-0.055496
H156	H	1.216187	0.160106	0.042992
Br157	Br	0.646662	1.156787	-0.483806
Br158	Br	0.186857	0.967264	-0.086869
Br159	Br	0.353754	1.032382	-0.154458
Br160	Br	1.104822	0.398286	0.132606
Br161	Br	0.814912	0.442100	0.382844
H162	H	0.354358	1.060200	-0.059413
H163	H	0.787450	0.298815	0.495435
H164	H	0.397773	1.159302	-0.453488
H165	H	0.663829	1.013462	-0.326574
Br166	Br	0.615234	0.280111	0.341509
Br167	Br	0.834710	0.994781	-0.137443
H168	H	0.807950	0.387983	-0.043380
Br169	Br	1.260279	0.229739	0.364238
H170	H	0.807948	0.024712	-0.043367
H171	H	0.647788	0.048906	0.094907
H172	H	0.710608	0.236462	0.479542
H173	H	0.647790	0.183443	0.094907
H174	H	0.647803	0.277620	0.094909
Br175	Br	0.544823	0.526243	0.112780
Br176	Br	0.623843	0.435914	0.115597
H177	H	1.096254	0.387994	0.244907
Br178	Br	0.380723	0.539090	0.106981
H179	H	-0.047862	0.859861	-0.038265
Br180	Br	0.621028	0.442067	0.189005
