data_functionalizedCrystal
_audit_creation_method	'MofGen! by Chris Wilmer'
_symmetry_space_group_name_H-M	'P1'
_symmetry_Int_Tables_number	1
_symmetry_cell_setting	triclinic
loop_
_symmetry_equiv_pos_as_xyz
  x,y,z
_cell_length_a	12.759399
_cell_length_b	21.395362
_cell_length_c	21.395340
_cell_angle_alpha	90.089702
_cell_angle_beta	89.901571
_cell_angle_gamma	89.968714
loop_
_atom_site_label
_atom_site_type_symbol
_atom_site_fract_x
_atom_site_fract_y
_atom_site_fract_z
Zn1	Zn	-0.417061	-0.958210	-0.354609
Zn2	Zn	-0.592986	-0.958056	-0.249840
Zn3	Zn	-0.417370	-0.853341	-0.249810
Zn4	Zn	-0.592747	-0.853422	-0.354545
O5	O	-0.505041	-0.905757	-0.302201
O6	O	-0.440368	-1.045867	-0.340750
O7	O	-0.569920	-0.944068	-0.162158
O8	O	-0.270308	-0.867282	-0.263725
O9	O	-0.569619	-1.045755	-0.263777
O10	O	-0.270081	-0.944329	-0.340721
O11	O	-0.440896	-0.867133	-0.162135
O12	O	-0.440664	-0.765674	-0.263664
O13	O	-0.569213	-0.867420	-0.442232
O14	O	-0.569513	-0.765733	-0.340612
O15	O	-0.440137	-0.944407	-0.442278
O16	O	-0.739975	-0.944146	-0.263716
O17	O	-0.739800	-0.867271	-0.340642
C18	C	-0.505097	-0.742969	-0.302128
C19	C	-0.505146	-0.673328	-0.302112
C20	C	-0.778009	-0.905718	-0.302189
C21	C	-0.894785	-0.905758	-0.302205
C22	C	-0.504613	-0.905940	-0.465625
C23	C	-0.504431	-0.906018	-0.535266
C24	C	-1.059428	-0.945876	-0.262212
C25	C	-0.949704	-0.945835	-0.262194
C26	C	-0.949596	-0.865716	-0.342232
C27	C	-1.059318	-0.865754	-0.342246
C28	C	-1.114342	-0.985960	-0.222204
C29	C	-1.059539	-1.026002	-0.182176
C30	C	-0.949815	-1.025961	-0.182158
C31	C	-0.894894	-0.985878	-0.222167
C32	C	-0.231008	-0.905814	-0.302227
C33	C	-0.114231	-0.905838	-0.302238
C34	C	-0.504986	-1.069180	-0.302274
C35	C	-0.504962	-1.138822	-0.302305
C36	C	-0.572327	-0.640662	-0.342119
C37	C	-0.572301	-0.575227	-0.342147
C38	C	-0.505105	-0.542460	-0.302157
C39	C	-0.437912	-0.575134	-0.262147
C40	C	-0.437932	-0.640568	-0.262124
C41	C	-0.496782	-0.438689	-0.245751
C42	C	-0.496769	-0.373256	-0.245772
C43	C	-0.505037	-0.340639	-0.302226
C44	C	-0.513339	-0.373464	-0.358660
C45	C	-0.513360	-0.438898	-0.358638
C46	C	-0.505075	-0.471507	-0.302177
C47	C	-0.572193	-0.237021	-0.342267
C48	C	-0.572160	-0.171584	-0.342296
C49	C	-0.437776	-0.171492	-0.262289
C50	C	-0.437804	-0.236928	-0.262266
C51	C	-0.505018	-0.269688	-0.302254
C52	C	-0.505391	-0.905611	-0.139413
C53	C	-0.505278	-0.905655	-0.069772
C54	C	-0.437791	-0.865657	0.432006
C55	C	-0.437898	-0.865608	0.366570
C56	C	-0.504634	-0.905931	0.333866
C57	C	-0.571287	-0.946295	0.366602
C58	C	-0.571186	-0.946338	0.432036
C59	C	-0.512384	-0.962345	0.230085
C60	C	-0.512478	-0.962303	0.164652
C61	C	-0.504953	-0.905798	0.132045
C62	C	-0.497312	-0.849333	0.164879
C63	C	-0.497210	-0.849376	0.230313
C64	C	-0.504752	-0.905889	0.262914
C65	C	-0.438425	-0.865382	0.028365
C66	C	-0.438540	-0.865332	-0.037072
C67	C	-0.571923	-0.946024	-0.037039
C68	C	-0.571814	-0.946068	0.028396
C69	C	-0.505060	-0.905748	0.061094
H70	H	-1.203684	-0.985999	-0.222216
C71	C	-0.646112	-0.273064	-0.386257
C72	C	-0.728616	-0.317958	-0.359009
C73	C	-0.802533	-0.354000	-0.403001
C74	C	-0.793947	-0.345147	-0.474240
C75	C	-0.711439	-0.300252	-0.501492
C76	C	-0.637522	-0.264210	-0.457501
H77	H	-0.734975	-0.324512	-0.306270
H78	H	-0.863610	-0.387234	-0.382827
H79	H	-0.848665	-0.371828	-0.506805
H80	H	-0.705080	-0.293697	-0.554231
H81	H	-0.576445	-0.230975	-0.477674
C82	C	-0.646211	-0.539284	-0.386153
C83	C	-0.720143	-0.575319	-0.430136
C84	C	-0.794055	-0.539378	-0.474140
C85	C	-0.794035	-0.467403	-0.474161
C86	C	-0.720099	-0.431365	-0.430177
C87	C	-0.646188	-0.467305	-0.386173
H88	H	-0.720161	-0.628602	-0.430122
H89	H	-0.848787	-0.566057	-0.506701
H90	H	-0.848749	-0.440798	-0.506736
H91	H	-0.720082	-0.378081	-0.430191
H92	H	-0.591456	-0.440627	-0.353612
C93	C	-0.364036	-0.676503	-0.218108
C94	C	-0.244596	-0.667572	-0.223343
C95	C	-0.170703	-0.703509	-0.179325
C96	C	-0.216249	-0.748376	-0.130071
C97	C	-0.335696	-0.757309	-0.124834
C98	C	-0.409589	-0.721372	-0.168853
H99	H	-0.210874	-0.634357	-0.259805
H100	H	-0.082280	-0.696896	-0.183202
H101	H	-0.161549	-0.774978	-0.097486
H102	H	-0.369418	-0.790524	-0.088372
H103	H	-0.498012	-0.727985	-0.164976
H104	H	-0.490015	-0.346535	-0.199820
C105	C	-0.646251	-0.676700	-0.386108
C106	C	-0.600741	-0.721798	-0.435330
C107	C	-0.674664	-0.757839	-0.479319
C108	C	-0.794097	-0.748781	-0.474086
C109	C	-0.839614	-0.703681	-0.424862
C110	C	-0.765691	-0.667640	-0.380873
H111	H	-0.512323	-0.728505	-0.439205
H112	H	-0.640968	-0.791225	-0.515758
H113	H	-0.848819	-0.775460	-0.506650
H114	H	-0.928032	-0.696974	-0.420987
H115	H	-0.799387	-0.634254	-0.344434
H116	H	-0.905195	-1.058560	-0.149561
C117	C	-0.487680	-0.474563	-0.183647
C118	C	-0.478558	-0.438462	-0.121573
C119	C	-0.469450	-0.474336	-0.059472
C120	C	-0.469464	-0.546311	-0.059445
C121	C	-0.478586	-0.582416	-0.121521
C122	C	-0.487694	-0.546542	-0.183622
H123	H	-0.478547	-0.385178	-0.121591
H124	H	-0.462697	-0.447608	-0.013519
H125	H	-0.462722	-0.572867	-0.013474
H126	H	-0.478597	-0.635700	-0.121503
H127	H	-0.494447	-0.573270	-0.229575
C128	C	-0.363997	-0.539093	-0.218155
C129	C	-0.363976	-0.467118	-0.218174
C130	C	-0.290055	-0.431078	-0.174184
C131	C	-0.216154	-0.467014	-0.130174
C132	C	-0.216172	-0.538993	-0.130153
C133	C	-0.290094	-0.575032	-0.174144
H134	H	-0.418684	-0.440513	-0.250755
H135	H	-0.290042	-0.377794	-0.174200
H136	H	-0.161433	-0.440335	-0.097609
H137	H	-0.161464	-0.565598	-0.097573
H138	H	-0.290107	-0.628316	-0.174128
C139	C	-1.119609	-0.821713	-0.386275
C140	C	-1.059212	-0.777628	-0.430288
C141	C	-1.119504	-0.733584	-0.474315
C142	C	-1.240194	-0.733625	-0.474328
C143	C	-1.300598	-0.777711	-0.430313
C144	C	-1.240306	-0.821756	-0.386286
H145	H	-0.969864	-0.777596	-0.430280
H146	H	-1.074788	-0.700948	-0.506898
H147	H	-1.284826	-0.701021	-0.506919
H148	H	-1.389946	-0.777743	-0.430321
H149	H	-1.285022	-0.854391	-0.353703
C150	C	-0.522478	-0.475005	-0.420711
C151	C	-0.531570	-0.439138	-0.482813
C152	C	-0.540682	-0.475245	-0.544887
C153	C	-0.540702	-0.547220	-0.544860
C154	C	-0.531608	-0.583092	-0.482756
C155	C	-0.522496	-0.546984	-0.420682
H156	H	-0.531557	-0.385854	-0.482835
H157	H	-0.547414	-0.448691	-0.590861
H158	H	-0.547447	-0.573949	-0.590811
H159	H	-0.531622	-0.636376	-0.482734
H160	H	-0.515765	-0.573539	-0.374708
H161	H	-0.383103	-0.263524	-0.229685
H162	H	-0.383438	-0.832823	0.458624
H163	H	-0.805549	-0.985840	-0.222142
C164	C	-1.119945	-1.070089	-0.138165
C165	C	-1.104699	-1.141312	-0.143364
C166	C	-1.165102	-1.185399	-0.099350
C167	C	-1.240752	-1.158263	-0.050137
C168	C	-1.256001	-1.087037	-0.044936
C169	C	-1.195598	-1.042949	-0.088950
H170	H	-1.048696	-1.161403	-0.179796
H171	H	-1.153813	-1.238126	-0.103200
H172	H	-1.285466	-1.190900	-0.017556
H173	H	-1.312005	-1.066946	-0.008504
H174	H	-1.206887	-0.990222	-0.085099
H175	H	-0.491176	-0.803322	0.138332
H176	H	-0.904872	-0.833082	-0.374806
C177	C	-0.646061	-0.135649	-0.386308
C178	C	-0.719990	-0.171688	-0.430290
C179	C	-0.793892	-0.135752	-0.474303
C180	C	-0.793866	-0.063777	-0.474335
C181	C	-0.719934	-0.027734	-0.430352
C182	C	-0.646032	-0.063670	-0.386338
H183	H	-0.720012	-0.224972	-0.430268
H184	H	-0.848621	-0.162433	-0.506863
H185	H	-0.848573	-0.037175	-0.506916
H186	H	-0.719912	0.025550	-0.430374
H187	H	-0.591303	-0.036988	-0.353779
H188	H	-0.520070	-0.346909	-0.404630
H189	H	-0.626259	-0.978857	-0.063666
H190	H	-0.383059	-0.144814	-0.229731
H191	H	-0.383626	-0.832743	0.339918
C192	C	-0.488819	-0.787269	0.266431
C193	C	-0.480542	-0.725111	0.230575
C194	C	-0.472157	-0.663003	0.266693
C195	C	-0.472048	-0.663053	0.338668
C196	C	-0.480325	-0.725214	0.374528
C197	C	-0.488711	-0.787322	0.338410
H198	H	-0.480623	-0.725072	0.177291
H199	H	-0.466030	-0.616988	0.240146
H200	H	-0.465841	-0.617077	0.365405
H201	H	-0.480245	-0.725253	0.427812
H202	H	-0.494838	-0.833337	0.364957
H203	H	-0.384070	-0.832550	0.054989
C204	C	-0.645111	-0.990472	0.064402
C205	C	-0.718521	-1.034828	0.028432
C206	C	-0.791824	-1.079232	0.064437
C207	C	-0.791716	-1.079282	0.136412
C208	C	-0.718302	-1.034924	0.172386
C209	C	-0.645000	-0.990520	0.136381
H210	H	-0.718604	-1.034793	-0.024852
H211	H	-0.846169	-1.112069	0.037807
H212	H	-0.845979	-1.112153	0.163065
H213	H	-0.718220	-1.034959	0.225670
H214	H	-0.590654	-0.957683	0.163011
C215	C	-0.520862	-1.024413	0.128538
C216	C	-0.529147	-1.086568	0.164401
C217	C	-0.537522	-1.148679	0.128288
C218	C	-0.537613	-1.148637	0.056313
C219	C	-0.529328	-1.086480	0.020447
C220	C	-0.520953	-1.024368	0.056559
H221	H	-0.529081	-1.086601	0.217684
H222	H	-0.543656	-1.194692	0.154839
H223	H	-0.543813	-1.194616	0.029580
H224	H	-0.529394	-1.086446	-0.032837
H225	H	-0.514819	-0.978356	0.030008
C226	C	-0.644697	-0.990650	0.330628
C227	C	-0.727579	-0.963808	0.285830
C228	C	-0.800996	-1.008162	0.249857
C229	C	-0.791530	-1.079358	0.258680
C230	C	-0.708644	-1.106205	0.303480
C231	C	-0.635227	-1.061851	0.339454
H232	H	-0.734590	-0.911100	0.279297
H233	H	-0.862353	-0.988288	0.216693
H234	H	-0.845877	-1.112192	0.232051
H235	H	-0.701633	-1.158912	0.310014
H236	H	-0.573870	-1.081725	0.372617
H237	H	-0.384276	-0.832461	-0.063718
H238	H	-0.518503	-1.008362	0.256628
H239	H	-0.625451	-0.979207	0.458683
