data_functionalizedCrystal
_audit_creation_method	'MofGen! by Chris Wilmer'
_symmetry_space_group_name_H-M	'P1'
_symmetry_Int_Tables_number	1
_symmetry_cell_setting	triclinic
loop_
_symmetry_equiv_pos_as_xyz
  x,y,z
_cell_length_a	19.077105
_cell_length_b	13.897448
_cell_length_c	13.897441
_cell_angle_alpha	89.972960
_cell_angle_beta	92.316997
_cell_angle_gamma	92.283920
loop_
_atom_site_label
_atom_site_type_symbol
_atom_site_fract_x
_atom_site_fract_y
_atom_site_fract_z
Zn1	Zn	1.076014	0.443332	0.604606
Zn2	Zn	1.576014	0.943332	1.104606
Zn3	Zn	1.075937	0.604646	0.443311
Zn4	Zn	1.575937	1.104646	0.943311
Zn5	Zn	0.958316	0.436881	0.436848
Zn6	Zn	1.458316	0.936881	0.936848
Zn7	Zn	0.958294	0.598094	0.598090
Zn8	Zn	1.458294	1.098094	1.098090
O9	O	1.017140	0.520738	0.520714
O10	O	1.517140	1.020738	1.020714
O11	O	1.174495	0.470172	0.588642
O12	O	1.674495	0.970172	1.088642
O13	O	1.060311	0.582434	0.307471
O14	O	1.560311	1.082434	0.807471
O15	O	0.973970	0.302757	0.459124
O16	O	1.473970	0.802757	0.959124
O17	O	1.174439	0.588689	0.470139
O18	O	1.674439	1.088689	0.970139
O19	O	1.060442	0.307496	0.582375
O20	O	1.560442	0.807496	1.082375
O21	O	0.973895	0.459177	0.302723
O22	O	1.473895	0.959177	0.802723
O23	O	0.859821	0.452824	0.452806
O24	O	1.359821	0.952824	0.952806
O25	O	0.973933	0.577523	0.733937
O26	O	1.473933	1.077523	1.233937
O27	O	0.859806	0.571267	0.571269
O28	O	1.359806	1.071267	1.071269
O29	O	1.060421	0.463819	0.738725
O30	O	1.560421	0.963819	1.238725
O31	O	1.060290	0.738757	0.463820
O32	O	1.560290	1.238757	0.963820
O33	O	0.973858	0.733943	0.577536
O34	O	1.473858	1.233943	1.077536
C35	C	0.834276	0.510635	0.510630
C36	C	1.334276	1.010635	1.010630
C37	C	0.756046	0.506337	0.506339
C38	C	1.256046	1.006337	1.006339
C39	C	0.719303	0.566077	0.565903
C40	C	1.219303	1.066077	1.065903
C41	C	0.645798	0.562025	0.561876
C42	C	1.145798	1.062025	1.061876
C43	C	0.609036	0.498237	0.498278
C44	C	1.109036	0.998237	0.998278
C45	C	0.645784	0.438490	0.438711
C46	C	1.145784	0.938490	0.938711
C47	C	0.719288	0.442538	0.442744
C48	C	1.219288	0.942538	0.942744
C49	C	0.389201	0.479504	0.479618
C50	C	0.889201	0.979504	0.979618
C51	C	0.315691	0.475463	0.475588
C52	C	0.815691	0.975463	0.975588
C53	C	0.315710	0.598997	0.598754
C54	C	0.815710	1.098997	1.098754
C55	C	0.389216	0.603043	0.602777
C56	C	0.889216	1.103043	1.102777
C57	C	0.425957	0.543293	0.543214
C58	C	0.925957	1.043293	1.043214
N59	N	0.533901	0.494096	0.494158
N60	N	1.033901	0.994096	0.994158
N61	N	0.501090	0.547430	0.547340
N62	N	1.001090	1.047430	1.047340
C63	C	1.017083	0.771349	0.520694
C64	C	1.517083	1.271349	1.020694
C65	C	1.017123	0.878566	0.520722
C66	C	1.517123	1.378566	1.020722
C67	C	1.017192	1.074864	0.520795
C68	C	1.517192	1.574864	1.020795
C69	C	1.017151	0.965630	0.520757
C70	C	1.517151	1.465630	1.020757
C71	C	1.200719	0.530881	0.530838
C72	C	1.700719	1.030881	1.030838
C73	C	1.278949	0.535203	0.535152
C74	C	1.778949	1.035203	1.035152
C75	C	1.017183	0.520660	0.772309
C76	C	1.517183	1.020660	1.272309
C77	C	1.017202	0.520626	0.879524
C78	C	1.517202	1.020626	1.379524
C79	C	1.017211	1.269149	0.520767
C80	C	1.517211	1.769149	1.020767
C81	C	1.017226	1.161936	0.520818
C82	C	1.517226	1.661936	1.020818
C83	C	1.017138	0.520749	0.270099
C84	C	1.517138	1.020749	0.770099
C85	C	1.017256	0.520518	0.162893
C86	C	1.517256	1.020518	0.662893
C87	C	1.017216	0.520600	0.966595
C88	C	1.517216	1.020600	1.466595
C89	C	1.017236	0.520557	1.075829
C90	C	1.517236	1.020557	1.575829
H91	H	0.419142	0.654989	0.654563
H92	H	0.919142	1.154989	1.154563
C93	C	0.623170	0.273849	0.390770
C94	C	1.123170	0.773849	0.890770
C95	C	0.605378	0.368369	0.368805
C96	C	1.105378	0.868369	0.868805
H97	H	0.598223	0.230561	0.347613
H98	H	1.098223	0.730561	0.847613
H99	H	0.672199	0.267717	0.384646
H100	H	1.172199	0.767717	0.884646
H101	H	0.611141	0.259164	0.454946
H102	H	1.111141	0.759164	0.954946
H103	H	0.617411	0.383057	0.304631
H104	H	1.117411	0.883057	0.804631
H105	H	0.556338	0.374505	0.374920
H106	H	1.056338	0.874505	0.874920
H107	H	0.749229	0.618024	0.617688
H108	H	1.249229	1.118024	1.117688
H109	H	0.285788	0.647641	0.647249
H110	H	0.785788	1.147641	1.147249
H111	H	0.285762	0.423508	0.423805
H112	H	0.785762	0.923508	0.923805
H113	H	0.419107	0.430858	0.431110
H114	H	0.919107	0.930858	0.931110
H115	H	0.749203	0.393886	0.394245
H116	H	1.249203	0.893886	0.894245
H117	H	0.615885	0.610673	0.610379
H118	H	1.115885	1.110673	1.110379
