data_functionalizedCrystal
_audit_creation_method	'MofGen! by Chris Wilmer'
_symmetry_space_group_name_H-M	'P1'
_symmetry_Int_Tables_number	1
_symmetry_cell_setting	triclinic
loop_
_symmetry_equiv_pos_as_xyz
  x,y,z
_cell_length_a	12.759401
_cell_length_b	25.639239
_cell_length_c	25.639234
_cell_angle_alpha	89.975416
_cell_angle_beta	89.983578
_cell_angle_gamma	90.040211
loop_
_atom_site_label
_atom_site_type_symbol
_atom_site_fract_x
_atom_site_fract_y
_atom_site_fract_z
Zn1	Zn	1.606044	-0.208163	-0.295595
Zn2	Zn	2.106044	0.291837	0.204405
Zn3	Zn	1.605876	-0.295591	-0.208159
Zn4	Zn	2.105876	0.204409	0.291841
Zn5	Zn	1.430357	-0.208173	-0.208175
Zn6	Zn	1.930357	0.291827	0.291825
Zn7	Zn	1.430261	-0.295572	-0.295565
Zn8	Zn	1.930261	0.204428	0.204435
O9	O	1.518135	-0.251875	-0.251874
O10	O	2.018135	0.248125	0.248126
O11	O	1.753043	-0.219764	-0.284002
O12	O	2.253043	0.280236	0.215998
O13	O	1.582562	-0.284007	-0.134996
O14	O	2.082562	0.215993	0.365004
O15	O	1.453773	-0.135007	-0.219790
O16	O	1.953773	0.364993	0.280210
O17	O	1.752919	-0.283997	-0.219763
O18	O	2.252919	0.216003	0.280237
O19	O	1.582850	-0.134999	-0.284017
O20	O	2.082850	0.365001	0.215983
O21	O	1.453609	-0.219782	-0.135008
O22	O	1.953609	0.280218	0.364992
O23	O	1.283323	-0.219763	-0.219762
O24	O	1.783323	0.280237	0.280238
O25	O	1.453610	-0.283964	-0.368734
O26	O	1.953610	0.216036	0.131266
O27	O	1.283253	-0.283974	-0.283967
O28	O	1.783253	0.216026	0.216033
O29	O	1.582757	-0.219746	-0.368756
O30	O	2.082757	0.280254	0.131244
O31	O	1.582470	-0.368753	-0.219735
O32	O	2.082470	0.131247	0.280265
O33	O	1.453447	-0.368739	-0.283952
O34	O	1.953447	0.131261	0.216048
C35	C	1.245167	-0.251868	-0.251863
C36	C	1.745167	0.248132	0.248137
C37	C	1.128391	-0.251878	-0.251871
C38	C	1.628391	0.248122	0.248129
C39	C	1.073520	-0.285364	-0.285250
C40	C	1.573520	0.214636	0.214750
C41	C	0.963796	-0.285366	-0.285260
C42	C	1.463796	0.214634	0.214740
C43	C	0.963823	-0.218395	-0.218508
C44	C	1.463823	0.281605	0.281492
C45	C	1.073545	-0.218391	-0.218501
C46	C	1.573545	0.281609	0.281499
C47	C	1.517958	-0.387717	-0.251850
C48	C	2.017958	0.112283	0.248150
C49	C	1.517978	-0.445831	-0.251857
C50	C	2.017978	0.054169	0.248143
C51	C	1.585492	-0.806189	-0.218493
C52	C	2.085492	-0.306189	0.281507
C53	C	1.585533	-0.860793	-0.218500
C54	C	2.085533	-0.360793	0.281500
O55	O	1.642752	-0.889026	-0.190106
O56	O	2.142752	-0.389026	0.309894
N57	N	1.518319	-0.888114	-0.251908
N58	N	2.018319	-0.388114	0.248092
C59	C	1.451068	-0.860827	-0.285315
C60	C	1.951068	-0.360827	0.214685
O61	O	1.393902	-0.889079	-0.313733
O62	O	1.893902	-0.389079	0.186267
C63	C	1.451033	-0.806224	-0.285311
C64	C	1.951033	-0.306224	0.214689
C65	C	1.518244	-0.778906	-0.251896
C66	C	2.018244	-0.278906	0.248104
C67	C	1.652698	-0.778872	-0.185082
C68	C	2.152698	-0.278872	0.314918
C69	C	1.652656	-0.724271	-0.185074
C70	C	2.152656	-0.224271	0.314926
C71	C	1.585408	-0.696988	-0.218478
C72	C	2.085408	-0.196988	0.281522
C73	C	1.518202	-0.724306	-0.251889
C74	C	2.018202	-0.224306	0.248111
C75	C	1.383788	-0.778938	-0.318720
C76	C	1.883788	-0.278938	0.181280
C77	C	1.383760	-0.724331	-0.318713
C78	C	1.883760	-0.224331	0.181287
C79	C	1.450971	-0.697013	-0.285299
C80	C	1.950971	-0.197013	0.214701
C81	C	1.450911	-0.642422	-0.285285
C82	C	1.950911	-0.142422	0.214715
N83	N	1.518125	-0.615102	-0.251877
N84	N	2.018125	-0.115102	0.248123
C85	C	1.585373	-0.642385	-0.218473
C86	C	2.085373	-0.142385	0.281527
C87	C	1.451147	-0.975498	-0.285324
C88	C	1.951147	-0.475498	0.214676
C89	C	1.451176	-1.030100	-0.285326
C90	C	1.951176	-0.530100	0.214674
C91	C	1.585642	-1.030063	-0.218511
C92	C	2.085642	-0.530063	0.281489
C93	C	1.585608	-0.975459	-0.218506
C94	C	2.085608	-0.475459	0.281494
C95	C	1.518361	-0.948177	-0.251915
C96	C	2.018361	-0.448177	0.248085
C97	C	1.585278	-0.527720	-0.218459
C98	C	2.085278	-0.027720	0.281541
C99	C	1.585227	-0.473114	-0.218453
C100	C	2.085227	0.026886	0.281547
C101	C	1.450765	-0.473156	-0.285270
C102	C	1.950765	0.026844	0.214730
C103	C	1.450812	-0.527757	-0.285274
C104	C	1.950812	-0.027757	0.214726
C105	C	1.518077	-0.555037	-0.251867
C106	C	2.018077	-0.055037	0.248133
O107	O	1.393724	-0.614155	-0.313666
O108	O	1.893724	-0.114155	0.186334
O109	O	1.642539	-0.614126	-0.190065
O110	O	2.142539	-0.114126	0.309935
C111	C	1.792168	-0.251881	-0.251884
C112	C	2.292168	0.248119	0.248116
C113	C	1.908945	-0.251884	-0.251889
C114	C	2.408945	0.248116	0.248111
C115	C	1.518192	-0.251852	-0.388247
C116	C	2.018192	0.248148	0.111753
C117	C	1.518216	-0.251842	-0.446361
C118	C	2.018216	0.248158	0.053639
C119	C	1.518341	-0.115502	-0.251909
C120	C	2.018341	0.384498	0.248091
C121	C	1.518428	-0.057388	-0.251924
C122	C	2.018428	0.442612	0.248076
C123	C	1.585389	-0.285241	-0.697541
C124	C	2.085389	0.214759	-0.197541
C125	C	1.585378	-0.285252	-0.642936
C126	C	2.085378	0.214748	-0.142936
O127	O	1.642443	-0.313707	-0.614688
O128	O	2.142443	0.186293	-0.114688
N129	N	1.518239	-0.251816	-0.615635
N130	N	2.018239	0.248184	-0.115635
C131	C	1.451098	-0.218372	-0.642940
C132	C	1.951098	0.281628	-0.142940
O133	O	1.393989	-0.189934	-0.614704
O134	O	1.893989	0.310066	-0.114704
C135	C	1.451105	-0.218364	-0.697543
C136	C	1.951105	0.281636	-0.197543
C137	C	1.518256	-0.251798	-0.724842
C138	C	2.018256	0.248202	-0.224842
C139	C	1.652535	-0.318672	-0.724839
C140	C	2.152535	0.181328	-0.224839
C141	C	1.652547	-0.318661	-0.779440
C142	C	2.152547	0.181339	-0.279440
C143	C	1.585414	-0.285217	-0.806742
C144	C	2.085414	0.214783	-0.306742
C145	C	1.518269	-0.251786	-0.779443
C146	C	2.018269	0.248214	-0.279443
C147	C	1.383960	-0.184922	-0.724848
C148	C	1.883960	0.315078	-0.224848
C149	C	1.383972	-0.184917	-0.779455
C150	C	1.883972	0.315083	-0.279455
C151	C	1.451123	-0.218351	-0.806754
C152	C	1.951123	0.281649	-0.306754
C153	C	1.451148	-0.218331	-0.861345
C154	C	1.951148	0.281669	-0.361345
N155	N	1.518287	-0.251766	-0.888647
N156	N	2.018287	0.248234	-0.388647
C157	C	1.585420	-0.285209	-0.861345
C158	C	2.085420	0.214791	-0.361345
C159	C	1.451088	-0.218392	-0.528269
C160	C	1.951088	0.281608	-0.028269
C161	C	1.451086	-0.218396	-0.473667
C162	C	1.951086	0.281604	0.026333
C163	C	1.585365	-0.285277	-0.473667
C164	C	2.085365	0.214723	0.026333
C165	C	1.585372	-0.285269	-0.528270
C166	C	2.085372	0.214731	-0.028270
C167	C	1.518228	-0.251827	-0.555571
C168	C	2.018228	0.248173	-0.055571
C169	C	1.585441	-0.285182	-0.976010
C170	C	2.085441	0.214818	-0.476010
C171	C	1.585451	-0.285166	-1.030616
C172	C	2.085451	0.214834	-0.530616
C173	C	1.451168	-0.218287	-1.030611
C174	C	1.951168	0.281713	-0.530611
C175	C	1.451163	-0.218301	-0.976010
C176	C	1.951163	0.281699	-0.476010
C177	C	1.518303	-0.251753	-0.948711
C178	C	2.018303	0.248247	-0.448711
O179	O	1.394110	-0.189892	-0.889628
O180	O	1.894110	0.310108	-0.389628
O181	O	1.642510	-0.313648	-0.889588
O182	O	2.142510	0.186352	-0.389588
C183	C	1.518138	-0.251860	-0.116031
C184	C	2.018138	0.248140	0.383969
C185	C	1.518318	-0.251722	-0.057917
C186	C	2.018318	0.248278	0.442083
H187	H	1.640054	-0.549925	-0.191257
H188	H	2.140054	-0.049925	0.308743
H189	H	1.396378	-0.953287	-0.312528
H190	H	1.896378	-0.453287	0.187472
O191	O	1.311303	-0.808394	-0.354764
O192	O	1.811303	-0.308394	0.145236
H193	H	1.264554	-0.780241	-0.377992
H194	H	1.764554	-0.280241	0.122008
H195	H	1.707466	-0.801080	-0.157880
H196	H	2.207466	-0.301080	0.342120
O197	O	1.725163	-0.694809	-0.149042
O198	O	2.225163	-0.194809	0.350958
H199	H	1.771935	-0.722962	-0.125824
H200	H	2.271935	-0.222962	0.374176
O201	O	1.378240	-0.443720	-0.321297
O202	O	1.878240	0.056280	0.178703
H203	H	1.295797	-0.454240	-0.312295
H204	H	1.795797	0.045760	0.187705
O205	O	1.657864	-0.321236	-1.060061
O206	O	2.157864	0.178764	-0.560061
H207	H	1.704529	-0.344498	-1.031899
H208	H	2.204529	0.155502	-0.531899
H209	H	1.118222	-0.191120	-0.191320
H210	H	1.618222	0.308880	0.308680
H211	H	1.329276	-0.157698	-0.702631
H212	H	1.829276	0.342302	-0.202631
O213	O	1.657728	-0.443649	-0.182416
O214	O	2.157728	0.056351	0.317584
H215	H	1.704505	-0.471798	-0.159196
H216	H	2.204505	0.028202	0.340804
O217	O	1.311558	-0.148843	-0.808902
O218	O	1.811558	0.351157	-0.308902
H219	H	1.264875	-0.125595	-0.780742
H220	H	1.764875	0.374405	-0.280742
H221	H	1.640403	-1.052286	-0.191314
H222	H	2.140403	-0.552286	0.308686
H223	H	0.919155	-0.191132	-0.191339
H224	H	1.419155	0.308868	0.308661
H225	H	1.118172	-0.312630	-0.312424
H226	H	1.618172	0.187370	0.187576
O227	O	1.658108	-0.945996	-0.182473
O228	O	2.158108	-0.445996	0.317527
H229	H	1.704877	-0.974146	-0.159250
H230	H	2.204877	-0.474146	0.340750
O231	O	0.904553	-0.321483	-0.321238
O232	O	1.404553	0.178517	0.178762
H233	H	0.854514	-0.348028	-0.297761
H234	H	1.354514	0.151972	0.202239
O235	O	1.378674	-1.059564	-0.321359
O236	O	1.878674	-0.559564	0.178641
H237	H	1.396640	-1.049053	-0.362400
H238	H	1.896640	-0.549053	0.137600
O239	O	1.378669	-0.182328	-0.444229
O240	O	1.878669	0.317672	0.055771
H241	H	1.389937	-0.187946	-0.401672
H242	H	1.889937	0.312054	0.098328
H243	H	1.329001	-0.702120	-0.345920
H244	H	1.829001	-0.202120	0.154080
H245	H	1.396087	-0.550000	-0.312485
H246	H	1.896087	-0.050000	0.187515
H247	H	1.640120	-0.312418	-0.953790
H248	H	2.140120	0.187582	-0.453790
O249	O	1.724945	-0.354736	-0.808881
O250	O	2.224945	0.145264	-0.308881
H251	H	1.771603	-0.377997	-0.780716
H252	H	2.271603	0.122003	-0.280716
O253	O	1.724964	-0.354738	-0.695396
O254	O	2.224964	0.145262	-0.195396
H255	H	1.771657	-0.377975	-0.723561
H256	H	2.271657	0.122025	-0.223561
H257	H	1.640052	-0.312494	-0.550493
H258	H	2.140052	0.187506	-0.050493
O259	O	1.657768	-0.321355	-0.444216
O260	O	2.157768	0.178645	0.055784
H261	H	1.646466	-0.315746	-0.401661
H262	H	2.146466	0.184254	0.098339
H263	H	1.396415	-0.191154	-0.550494
H264	H	1.896415	0.308846	-0.050494
O265	O	1.378741	-0.182241	-0.946561
O266	O	1.878741	0.317759	-0.446561
H267	H	1.332058	-0.158986	-0.974722
H268	H	1.832058	0.341014	-0.474722
H269	H	1.396513	-0.191057	-1.052850
H270	H	1.896513	0.308943	-0.552850
