data_functionalizedCrystal
_audit_creation_method	'MofGen! by Chris Wilmer'
_symmetry_space_group_name_H-M	'P1'
_symmetry_Int_Tables_number	1
_symmetry_cell_setting	triclinic
loop_
_symmetry_equiv_pos_as_xyz
  x,y,z
_cell_length_a	21.395364
_cell_length_b	16.625546
_cell_length_c	21.395356
_cell_angle_alpha	89.972354
_cell_angle_beta	89.976411
_cell_angle_gamma	90.037419
loop_
_atom_site_label
_atom_site_type_symbol
_atom_site_fract_x
_atom_site_fract_y
_atom_site_fract_z
Zn1	Zn	0.957889	-0.320700	-0.354262
Zn2	Zn	0.957808	-0.455537	-0.249484
Zn3	Zn	0.853106	-0.320757	-0.249498
Zn4	Zn	0.853088	-0.455530	-0.354224
O5	O	0.905473	-0.388131	-0.301867
O6	O	1.045556	-0.338566	-0.340372
O7	O	0.943893	-0.437685	-0.161808
O8	O	0.867047	-0.207917	-0.263417
O9	O	1.045497	-0.437630	-0.263393
O10	O	0.944031	-0.207876	-0.340386
O11	O	0.866968	-0.338663	-0.161819
O12	O	0.765426	-0.338656	-0.263381
O13	O	0.867017	-0.437618	-0.441907
O14	O	0.765413	-0.437673	-0.340323
O15	O	0.944014	-0.338559	-0.441935
O16	O	0.943876	-0.568369	-0.263357
O17	O	0.866939	-0.568363	-0.340309
C18	C	0.742685	-0.388170	-0.301850
C19	C	0.673044	-0.388207	-0.301857
C20	C	0.640384	-0.336708	-0.342002
C21	C	0.574949	-0.336687	-0.342005
C22	C	0.542176	-0.388178	-0.301868
C23	C	0.574844	-0.439680	-0.261715
C24	C	0.640278	-0.439694	-0.261710
C25	C	0.438460	-0.460792	-0.296831
C26	C	0.373027	-0.460779	-0.296841
C27	C	0.340355	-0.388134	-0.301882
C28	C	0.373124	-0.315499	-0.306927
C29	C	0.438559	-0.315513	-0.306921
C30	C	0.471223	-0.388168	-0.301870
C31	C	0.236743	-0.336608	-0.342032
C32	C	0.171306	-0.336585	-0.342030
C33	C	0.171202	-0.439585	-0.261744
C34	C	0.236637	-0.439601	-0.261743
C35	C	0.269404	-0.388113	-0.301890
C36	C	0.905414	-0.597622	-0.301841
C37	C	0.905446	-0.687243	-0.301851
C38	C	0.905555	-1.015419	-0.301916
C39	C	0.905523	-0.924110	-0.301900
C40	C	0.905500	-0.851334	-0.301883
C41	C	0.905468	-0.760020	-0.301867
C42	C	1.068896	-0.388092	-0.301885
C43	C	1.138538	-0.388076	-0.301893
C44	C	0.905522	-0.388081	-0.465291
C45	C	0.905543	-0.388060	-0.534932
C46	C	0.905550	-0.177822	-0.301907
C47	C	0.905582	-0.088201	-0.301924
C48	C	0.865499	-0.336493	-0.567640
C49	C	0.865497	-0.336478	-0.633076
C50	C	0.905550	-0.388022	-0.665800
C51	C	0.945597	-0.439598	-0.633084
C52	C	0.945593	-0.439617	-0.567649
C53	C	0.962003	-0.394342	-0.769487
C54	C	0.962007	-0.394317	-0.834920
C55	C	0.905560	-0.387967	-0.867621
C56	C	0.849107	-0.381625	-0.834882
C57	C	0.849104	-0.381644	-0.769447
C58	C	0.905558	-0.388007	-0.736753
C59	C	0.865511	-0.336381	-0.971282
C60	C	0.865508	-0.336372	-1.036719
C61	C	0.945613	-0.439488	-1.036725
C62	C	0.945611	-0.439501	-0.971290
C63	C	0.905560	-0.387944	-0.938572
C64	C	0.905460	-0.388123	-0.139080
C65	C	0.905560	-0.387917	-0.069439
H66	H	0.346351	-0.519922	-0.292736
H67	H	0.978226	-0.481454	-1.063369
H68	H	0.667059	-0.294783	-0.374693
H69	H	0.263229	-0.481540	-0.229055
H70	H	0.548352	-0.294747	-0.374695
H71	H	0.548156	-0.481604	-0.229036
H72	H	0.263422	-0.294679	-0.374719
H73	H	0.144715	-0.294644	-0.374720
H74	H	0.978220	-0.481491	-0.944658
H75	H	0.666869	-0.481632	-0.229018
H76	H	0.832899	-0.294401	-0.944642
H77	H	0.144519	-0.481510	-0.229065
H78	H	1.007973	-0.399506	-0.742866
H79	H	1.007975	-0.399477	-0.861571
H80	H	0.465055	-0.519953	-0.292725
H81	H	0.832885	-0.294514	-0.541006
H82	H	0.832890	-0.294483	-0.659713
H83	H	0.465237	-0.256372	-0.311026
H84	H	0.978208	-0.481565	-0.659732
H85	H	0.803138	-0.376482	-0.742794
H86	H	0.803143	-0.376449	-0.861506
H87	H	0.832895	-0.294383	-1.063349
H88	H	0.346525	-0.256344	-0.311032
H89	H	0.978205	-0.481608	-0.541018
