data_functionalizedCrystal
_audit_creation_method	'MofGen! by Chris Wilmer'
_symmetry_space_group_name_H-M	'P1'
_symmetry_Int_Tables_number	1
_symmetry_cell_setting	triclinic
loop_
_symmetry_equiv_pos_as_xyz
  x,y,z
_cell_length_a	17.077402
_cell_length_b	17.077404
_cell_length_c	17.077396
_cell_angle_alpha	90.016105
_cell_angle_beta	90.029873
_cell_angle_gamma	90.023198
loop_
_atom_site_label
_atom_site_type_symbol
_atom_site_fract_x
_atom_site_fract_y
_atom_site_fract_z
Zn1	Zn	-0.312544	1.200024	0.443816
Zn2	Zn	0.020789	1.533358	0.777149
Zn3	Zn	0.354122	1.866691	1.110482
Zn4	Zn	-0.443821	1.199931	0.312549
Zn5	Zn	-0.110488	1.533265	0.645882
Zn6	Zn	0.222846	1.866598	0.979215
Zn7	Zn	-0.312569	1.068761	0.312566
Zn8	Zn	0.020765	1.402095	0.645900
Zn9	Zn	0.354098	1.735428	0.979233
Zn10	Zn	-0.443767	1.068719	0.443775
Zn11	Zn	-0.110434	1.402052	0.777108
Zn12	Zn	0.222899	1.735385	1.110441
O13	O	-0.378175	1.134359	0.378176
O14	O	-0.044842	1.467692	0.711510
O15	O	0.288491	1.801026	1.044843
O16	O	-0.329971	1.309859	0.426413
O17	O	0.003363	1.643192	0.759746
O18	O	0.336696	1.976526	1.093079
O19	O	-0.426443	1.182510	0.202704
O20	O	-0.093109	1.515843	0.536037
O21	O	0.240224	1.849177	0.869371
O22	O	-0.202718	1.086230	0.330002
O23	O	0.130615	1.419564	0.663335
O24	O	0.463948	1.752897	0.996668
O25	O	-0.426419	1.309790	0.329971
O26	O	-0.093086	1.643124	0.663304
O27	O	0.240248	1.976457	0.996638
O28	O	-0.202700	1.182669	0.426430
O29	O	0.130633	1.516002	0.759763
O30	O	0.463966	1.849335	1.093097
O31	O	-0.330012	1.086140	0.202717
O32	O	0.003321	1.419473	0.536050
O33	O	0.336655	1.752807	0.869384
O34	O	-0.329960	0.958909	0.329962
O35	O	0.003373	1.292242	0.663295
O36	O	0.336707	1.625575	0.996628
O37	O	-0.426328	1.086158	0.553627
O38	O	-0.092994	1.419491	0.886960
O39	O	0.240339	1.752825	1.220294
O40	O	-0.426351	0.958878	0.426360
O41	O	-0.093018	1.292211	0.759693
O42	O	0.240315	1.625544	1.093027
O43	O	-0.329919	1.182628	0.553657
O44	O	0.003415	1.515961	0.886991
O45	O	0.336748	1.849294	1.220324
O46	O	-0.553661	1.182469	0.329931
O47	O	-0.220327	1.515802	0.663265
O48	O	0.113006	1.849136	0.996598
O49	O	-0.553621	1.086068	0.426343
O50	O	-0.220288	1.419401	0.759676
O51	O	0.113045	1.752734	1.093009
C52	C	-0.378153	0.930411	0.378159
C53	C	-0.044820	1.263744	0.711492
C54	C	0.288514	1.597078	1.044825
C55	C	-0.378162	0.843161	0.378170
C56	C	-0.044829	1.176495	0.711503
C57	C	0.288504	1.509828	1.044836
C58	C	-0.328031	0.802207	0.428464
C59	C	0.005302	1.135541	0.761797
C60	C	0.338636	1.468874	1.095130
C61	C	-0.328036	0.720227	0.428467
C62	C	0.005297	1.053560	0.761801
C63	C	0.338631	1.386894	1.095134
C64	C	-0.378177	0.679202	0.378180
C65	C	-0.044844	1.012535	0.711514
C66	C	0.288490	1.345869	1.044847
C67	C	-0.428311	0.720161	0.327881
C68	C	-0.094977	1.053495	0.661214
C69	C	0.238356	1.386828	0.994548
C70	C	-0.428301	0.802140	0.327874
C71	C	-0.094968	1.135474	0.661207
C72	C	0.238366	1.468807	0.994541
C73	C	-0.428329	0.549291	0.327901
C74	C	-0.094995	0.882625	0.661234
C75	C	0.238338	1.215958	0.994567
C76	C	-0.428339	0.467307	0.327908
C77	C	-0.095006	0.800640	0.661242
C78	C	0.238327	1.133973	0.994575
C79	C	-0.328063	0.467378	0.428494
C80	C	0.005270	0.800711	0.761827
C81	C	0.338603	1.134045	1.095160
C82	C	-0.328054	0.549357	0.428487
C83	C	0.005280	0.882690	0.761820
C84	C	0.338613	1.216024	1.095153
C85	C	-0.378189	0.590311	0.378188
C86	C	-0.044855	0.923644	0.711522
C87	C	0.288478	1.256978	1.044855
C88	C	-0.582123	1.134275	0.378148
C89	C	-0.248790	1.467608	0.711481
C90	C	0.084544	1.800941	1.044814
C91	C	-0.669373	1.134311	0.378162
C92	C	-0.336040	1.467644	0.711495
C93	C	-0.002706	1.800977	1.044828
C94	C	-1.045114	1.184660	0.428478
C95	C	-0.711781	1.517994	0.761812
C96	C	-0.378448	1.851327	1.095145
C97	C	-0.963134	1.184625	0.428460
C98	C	-0.629801	1.517959	0.761793
C99	C	-0.296467	1.851292	1.095126
C100	C	-0.922222	1.134435	0.378208
C101	C	-0.588888	1.467768	0.711542
C102	C	-0.255555	1.801101	1.044875
C103	C	-0.963294	1.084282	0.327966
C104	C	-0.629961	1.417615	0.661300
C105	C	-0.296628	1.750949	0.994633
C106	C	-1.045273	1.084322	0.327981
C107	C	-0.711940	1.417655	0.661315
C108	C	-0.378607	1.750988	0.994648
C109	C	-0.792424	1.084201	0.327940
C110	C	-0.459091	1.417534	0.661273
C111	C	-0.125758	1.750868	0.994606
C112	C	-0.710440	1.084160	0.327925
C113	C	-0.377106	1.417493	0.661259
C114	C	-0.043773	1.750827	0.994592
C115	C	-0.710285	1.184505	0.428418
C116	C	-0.376952	1.517838	0.761751
C117	C	-0.043618	1.851171	1.095085
C118	C	-0.792264	1.184544	0.428433
C119	C	-0.458931	1.517878	0.761766
C120	C	-0.125597	1.851211	1.095100
C121	C	-0.833331	1.134390	0.378192
C122	C	-0.499997	1.467724	0.711525
C123	C	-0.166664	1.801057	1.044859
C124	C	-0.173431	1.134465	0.378222
C125	C	0.159902	1.467798	0.711556
C126	C	0.493236	1.801131	1.044889
C127	C	-0.086181	1.134510	0.378242
C128	C	0.247152	1.467843	0.711575
C129	C	0.580486	1.801177	1.044909
C130	C	-0.378114	1.134398	0.582921
C131	C	-0.044781	1.467732	0.916254
C132	C	0.288552	1.801065	1.249587
C133	C	-0.378089	1.134415	0.670171
C134	C	-0.044755	1.467748	1.003504
C135	C	0.288578	1.801082	1.336837
C136	C	-0.378198	1.339103	0.378194
C137	C	-0.044865	1.672436	0.711528
C138	C	0.288469	2.005770	1.044861
C139	C	-0.378208	1.426353	0.378202
C140	C	-0.044875	1.759686	0.711536
C141	C	0.288459	2.093020	1.044869
C142	C	-0.378179	1.134365	0.174229
C143	C	-0.044846	1.467698	0.507562
C144	C	0.288487	1.801031	0.840895
C145	C	-0.377984	1.134500	0.086979
C146	C	-0.044651	1.467833	0.420312
C147	C	0.288683	1.801167	0.753646
C148	C	-0.327871	1.084251	0.711167
C149	C	0.005462	1.417584	1.044500
C150	C	0.338796	1.750917	1.377834
C151	C	-0.327853	1.084263	0.793147
C152	C	0.005480	1.417597	1.126481
C153	C	0.338813	1.750930	1.459814
C154	C	-0.378050	1.134445	0.834130
C155	C	-0.044716	1.467779	1.167463
C156	C	0.288617	1.801112	1.500797
C157	C	-0.428272	1.184612	0.793128
C158	C	-0.094939	1.517945	1.126461
C159	C	0.238394	1.851279	1.459795
C160	C	-0.428294	1.184595	0.711149
C161	C	-0.094960	1.517928	1.044482
C162	C	0.238373	1.851261	1.377816
C163	C	-0.428223	1.184646	0.963998
C164	C	-0.094890	1.517979	1.297331
C165	C	0.238443	1.851313	1.630665
C166	C	-0.428201	1.184665	1.045983
C167	C	-0.094868	1.517998	1.379316
C168	C	0.238465	1.851331	1.712649
C169	C	-0.327783	1.084315	1.045997
C170	C	0.005550	1.417648	1.379330
C171	C	0.338884	1.750981	1.712663
C172	C	-0.327804	1.084297	0.964018
C173	C	0.005529	1.417631	1.297351
C174	C	0.338862	1.750964	1.630684
C175	C	-0.378026	1.134465	0.923021
C176	C	-0.044693	1.467799	1.256354
C177	C	0.288640	1.801132	1.589688
H178	H	-0.469123	0.835484	0.286919
H179	H	-0.135789	1.168817	0.620253
H180	H	0.197544	1.502151	0.953586
H181	H	-0.469180	1.225450	0.677771
H182	H	-0.135847	1.558783	1.011104
H183	H	0.197487	1.892116	1.344437
F184	F	-0.274681	0.676645	0.481998
F185	F	0.058653	1.009978	0.815332
F186	F	0.391986	1.343311	1.148665
F187	F	-0.481671	0.676497	0.274358
F188	F	-0.148337	1.009831	0.607691
F189	F	0.184996	1.343164	0.941024
F190	F	-0.481720	0.423646	0.274403
F191	F	-0.148387	0.756980	0.607736
F192	F	0.184947	1.090313	0.941069
H193	H	-0.469152	0.582633	0.286940
H194	H	-0.135818	0.915967	0.620274
H195	H	0.197515	1.249300	0.953607
F196	F	-0.835804	1.237954	0.481925
F197	F	-0.502471	1.571287	0.815258
F198	F	-0.169137	1.904621	1.148592
H199	H	-1.078419	1.225524	0.469407
H200	H	-0.745086	1.558857	0.802740
H201	H	-0.411752	1.892190	1.136073
H202	H	-0.287202	0.835604	0.469415
H203	H	0.046131	1.168938	0.802748
H204	H	0.379464	1.502271	1.136082
H205	H	-0.286926	1.043438	0.930652
H206	H	0.046407	1.376772	1.263985
H207	H	0.379740	1.710105	1.597318
F208	F	-0.274694	0.593017	0.482013
F209	F	0.058639	0.926351	0.815347
F210	F	0.391972	1.259684	1.148680
F211	F	-0.274331	1.030923	1.089629
F212	F	0.059002	1.364256	1.422962
F213	F	0.392335	1.697590	1.756295
H214	H	-0.676844	1.225342	0.469325
H215	H	-0.343510	1.558675	0.802659
H216	H	-0.010177	1.892008	1.135992
H217	H	-0.287240	0.434029	0.469447
H218	H	0.046093	0.767363	0.802780
H219	H	0.379426	1.100696	1.136114
F220	F	-0.481679	1.238038	0.920368
F221	F	-0.148346	1.571371	1.253702
F222	F	0.184987	1.904704	1.587035
F223	F	-0.919431	1.238002	0.481929
F224	F	-0.586098	1.571336	0.815262
F225	F	-0.252764	1.904669	1.148595
F226	F	-0.666899	1.030751	0.274433
F227	F	-0.333566	1.364085	0.607766
F228	F	-0.000233	1.697418	0.941099
F229	F	-0.836129	1.030824	0.274464
F230	F	-0.502796	1.364157	0.607797
F231	F	-0.169462	1.697491	0.941131
H232	H	-0.929979	1.043419	0.287046
H233	H	-0.596646	1.376752	0.620380
H234	H	-0.263312	1.710085	0.953713
F235	F	-1.088979	1.030947	0.274510
F236	F	-0.755646	1.364280	0.607844
F237	F	-0.422313	1.697614	0.941177
F238	F	-0.274441	1.030843	0.667557
F239	F	0.058893	1.364176	1.000891
F240	F	0.392226	1.697510	1.334224
F241	F	-0.274434	1.030842	0.836775
F242	F	0.058899	1.364176	1.170109
F243	F	0.392233	1.697509	1.503442
F244	F	-0.481622	1.238078	1.089598
F245	F	-0.148288	1.571411	1.422931
F246	F	0.185045	1.904745	1.756265
H247	H	-0.469147	1.225467	0.826503
H248	H	-0.135814	1.558800	1.159836
H249	H	0.197520	1.892134	1.493169
