data_functionalizedCrystal
_audit_creation_method	'MofGen! by Chris Wilmer'
_symmetry_space_group_name_H-M	'P1'
_symmetry_Int_Tables_number	1
_symmetry_cell_setting	triclinic
loop_
_symmetry_equiv_pos_as_xyz
  x,y,z
_cell_length_a	12.477989
_cell_length_b	23.196402
_cell_length_c	23.196401
_cell_angle_alpha	60.007332
_cell_angle_beta	90.013368
_cell_angle_gamma	64.373720
loop_
_atom_site_label
_atom_site_type_symbol
_atom_site_fract_x
_atom_site_fract_y
_atom_site_fract_z
Zr1	Zr	0.973120	0.699331	-0.109806
O2	O	0.811823	0.808264	-0.196189
O3	O	1.022551	0.582541	-0.083328
O4	O	1.022522	0.702802	-0.203593
O5	O	0.811892	0.688004	0.018946
O6	O	1.188742	0.714478	-0.209431
O7	O	0.811852	0.688003	-0.075924
O8	O	1.188794	0.499353	0.005701
O9	O	0.811839	0.903129	-0.196186
O10	O	1.167699	0.642202	-0.076389
O11	O	1.043680	0.633489	-0.001232
O12	O	1.043646	0.775081	-0.142828
O13	O	0.919628	0.766369	-0.067671
Zr14	Zr	1.238285	0.717954	0.032190
Zr15	Zr	1.238221	0.717952	-0.119117
Zr16	Zr	0.973183	0.699333	0.041500
Zr17	Zr	0.973146	0.850630	-0.109802
Zr18	Zr	1.238258	0.566655	0.032185
O19	O	1.188853	0.834744	0.005712
O20	O	1.188763	0.834741	-0.209427
O21	O	0.811913	0.808267	0.018950
O22	O	1.399581	0.609021	0.118572
O23	O	1.399491	0.609018	-0.096566
O24	O	1.022641	0.582544	0.131810
O25	O	1.399513	0.729281	-0.096562
O26	O	1.188882	0.714483	0.125977
O27	O	1.022662	0.702807	0.131814
O28	O	1.399552	0.729282	-0.001692
O29	O	1.022560	0.917930	-0.203586
O30	O	1.188844	0.499355	0.125970
O31	O	1.399565	0.514156	0.118570
O32	O	1.399514	0.514154	-0.001699
O33	O	0.811890	0.903131	-0.075917
O34	O	1.022610	0.917932	-0.083318
O35	O	1.167758	0.642204	0.065212
O36	O	1.291776	0.650916	-0.009945
O37	O	1.167724	0.783796	-0.076384
O38	O	1.043705	0.775083	-0.001228
C39	C	1.105669	0.519390	-0.038814
C40	C	1.105657	0.455160	-0.038816
C41	C	1.197252	0.379164	0.010228
C42	C	1.197261	0.318804	0.010234
C43	C	1.105683	0.334446	-0.038815
C44	C	1.014072	0.410454	-0.087863
C45	C	1.014059	0.470811	-0.087863
C46	C	1.077144	0.276855	-0.101605
C47	C	1.077166	0.216497	-0.101605
C48	C	1.105717	0.148287	-0.038813
C49	C	1.134273	0.140433	0.023982
C50	C	1.134259	0.200790	0.023981
C51	C	1.105687	0.269004	-0.038819
C52	C	1.197326	0.006839	0.010241
C53	C	1.197326	-0.053521	0.010248
C54	C	1.014143	0.038132	-0.087854
C55	C	1.014138	0.098489	-0.087855
C56	C	1.105736	0.082837	-0.038808
C57	C	0.774100	0.685350	-0.027162
C58	C	0.661558	0.677445	-0.023210
C59	C	1.437304	0.731935	-0.050454
C60	C	1.549846	0.739840	-0.054406
C61	C	1.105623	0.708640	-0.228070
C62	C	1.105596	0.708639	-0.292303
C63	C	1.105736	0.897895	-0.038802
C64	C	1.105747	0.962125	-0.038800
C65	C	1.040848	0.777999	-0.357157
C66	C	1.040879	0.778002	-0.417514
C67	C	1.105642	0.708640	-0.413011
C68	C	1.170404	0.639272	-0.348146
C69	C	1.170381	0.639271	-0.287792
C70	C	1.096434	0.651367	-0.480007
C71	C	1.096448	0.651370	-0.540361
C72	C	1.105720	0.708639	-0.599162
C73	C	1.114953	0.765917	-0.597607
C74	C	1.114930	0.765917	-0.537253
C75	C	1.105675	0.708633	-0.478451
C76	C	1.041003	0.778008	-0.729464
C77	C	1.041043	0.778009	-0.789820
C78	C	1.170560	0.639275	-0.720449
C79	C	1.170528	0.639277	-0.660095
C80	C	1.105743	0.708645	-0.664607
C81	C	1.105781	0.708645	0.150453
C82	C	1.105808	0.708646	0.214687
C83	C	1.437270	0.542683	-0.050460
C84	C	1.549801	0.486357	-0.054414
C85	C	1.105748	0.519393	0.150448
C86	C	1.105763	0.455163	0.214679
C87	C	1.437350	0.542685	0.138802
C88	C	1.549908	0.486361	0.199081
C89	C	0.774055	0.874600	-0.216418
C90	C	0.661496	0.930924	-0.276697
C91	C	0.774134	0.874603	-0.027157
C92	C	0.661603	0.930928	-0.023202
C93	C	1.105656	0.897892	-0.228064
C94	C	1.105641	0.962122	-0.292296
C95	C	1.537880	0.455358	-0.090961
C96	C	1.643605	0.402442	-0.094690
C97	C	1.761250	0.380522	-0.061868
C98	C	1.773169	0.411528	-0.025321
C99	C	1.667445	0.464447	-0.021596
C100	C	1.170538	0.429549	0.279532
C101	C	1.170548	0.369207	0.339891
C102	C	1.105790	0.334476	0.335394
C103	C	1.041007	0.360096	0.270534
C104	C	1.040991	0.420441	0.210178
C105	C	1.667514	0.464459	0.188157
C106	C	1.773284	0.411545	0.244790
C107	C	1.761446	0.380530	0.312346
C108	C	1.643828	0.402437	0.323268
C109	C	1.538060	0.455354	0.266636
C110	C	0.543891	0.952834	-0.265774
C111	C	0.438120	1.005766	-0.322406
C112	C	0.449958	1.036784	-0.389962
C113	C	0.567577	1.014873	-0.400885
C114	C	0.673344	0.961946	-0.344253
C115	C	0.673524	0.961934	0.013338
C116	C	0.567799	1.014866	0.017051
C117	C	0.450154	1.036788	-0.015773
C118	C	0.438235	1.005780	-0.052318
C119	C	0.543959	0.952852	-0.056034
C120	C	1.170411	0.996834	-0.287777
C121	C	1.170421	1.057178	-0.348124
C122	C	1.105652	1.082812	-0.412990
C123	C	1.040879	1.048094	-0.417507
C124	C	1.040877	0.987747	-0.357160
H125	H	1.157512	0.084895	0.075113
O126	O	1.240284	0.969194	-0.217822
H127	H	1.229406	0.921402	-0.176610
H128	H	1.442097	0.473204	-0.117697
O129	O	1.240387	0.467001	0.284398
H130	H	1.311960	0.460436	0.256167
O131	O	1.105642	1.147912	-0.478074
H132	H	1.202066	1.131522	-0.481413
O133	O	1.240431	0.341577	0.409841
H134	H	1.311990	0.280028	0.436595
O135	O	1.875534	0.323444	0.373423
H136	H	1.875510	0.346594	0.405300
H137	H	1.271912	-0.115403	0.050190
H138	H	0.534235	0.927607	-0.085787
O139	O	0.800177	0.938338	-0.356058
H140	H	0.851463	0.953533	-0.332142
H141	H	1.633876	0.377202	-0.124451
O142	O	1.240353	0.564471	-0.590136
H143	H	1.202936	0.526399	-0.582692
O144	O	1.680309	0.497905	0.115299
H145	H	1.587012	0.538379	0.077746
O146	O	1.875278	0.323439	-0.065882
H147	H	1.847212	0.305562	-0.096805
H148	H	0.769307	0.944090	0.040072
O149	O	1.240281	1.094621	-0.343245
H150	H	1.285297	1.066662	-0.288000
H151	H	1.105813	0.285340	0.384546
O152	O	0.336120	1.093869	-0.011761
H153	H	0.280291	1.066781	0.013323
O154	O	0.971007	0.950310	-0.362033
H155	H	0.871486	0.993990	-0.387842
H156	H	0.540304	0.799306	-0.084143
O157	O	0.311344	1.029426	-0.087720
H158	H	0.239841	1.071433	-0.078986
O159	O	0.971008	1.075752	-0.487470
H160	H	0.981885	1.123553	-0.528667
H161	H	1.869044	0.393714	0.235884
H162	H	1.442304	0.473179	0.275541
H163	H	1.634207	0.377177	0.378280
O164	O	1.296032	0.362287	0.063132
H165	H	1.359719	0.299296	0.097240
H166	H	0.534228	0.927580	-0.210771
H167	H	1.271905	-0.005907	0.050182
O168	O	0.311269	1.029388	-0.310618
H169	H	0.259973	1.014216	-0.334556
O170	O	1.296066	0.236826	0.063126
H171	H	1.359762	0.236084	0.097227
O172	O	0.335875	1.093879	-0.451042
H173	H	0.252112	1.103897	-0.432090
H174	H	0.988283	0.331809	0.266883
O175	O	0.674203	0.598668	0.016174
H176	H	0.773732	0.554209	0.038397
H177	H	1.053919	0.222898	-0.152736
H178	H	0.939578	0.050869	-0.127790
O179	O	1.680320	0.497864	0.017839
H180	H	1.635255	0.561272	-0.017873
O181	O	0.915366	0.180463	-0.140764
H182	H	0.851694	0.181203	-0.174877
O183	O	1.086717	0.589516	-0.542000
H184	H	1.080374	0.549655	-0.490955
O185	O	0.970980	0.852814	-0.362020
H186	H	0.925967	0.901045	-0.417262
H187	H	0.577201	1.040135	-0.455895
O188	O	0.971030	0.852813	-0.487476
H189	H	0.925971	0.901047	-0.480472
O190	O	0.580667	1.048296	0.056478
H191	H	0.680237	1.024144	0.078688
H192	H	1.053882	0.332397	-0.152741
H193	H	0.988248	0.441287	0.157373
O194	O	1.165037	0.192330	0.091703
H195	H	1.184885	0.134764	0.135369
H196	H	0.939509	0.423186	-0.127798
H197	H	0.939466	0.532693	-0.127800
H198	H	1.122451	0.812553	-0.535990
O199	O	1.900061	0.387877	0.010086
H200	H	1.971563	0.345863	0.001359
H201	H	1.122497	0.812554	-0.645485
H202	H	0.988322	0.834493	-0.842628
O203	O	0.971149	0.852822	-0.734320
H204	H	0.926147	0.901056	-0.789562
H205	H	1.223293	0.582799	-0.716782
H206	H	1.223136	0.582797	-0.344484
O207	O	1.086424	0.589598	-0.416587
H208	H	1.079984	0.549780	-0.427812
O209	O	1.240206	0.564458	-0.217835
H210	H	1.285242	0.516224	-0.224839
