data_functionalizedCrystal
_audit_creation_method	'MofGen! by Chris Wilmer'
_symmetry_space_group_name_H-M	'P1'
_symmetry_Int_Tables_number	1
_symmetry_cell_setting	triclinic
loop_
_symmetry_equiv_pos_as_xyz
  x,y,z
_cell_length_a	14.971482
_cell_length_b	14.971494
_cell_length_c	13.448316
_cell_angle_alpha	89.995115
_cell_angle_beta	89.993798
_cell_angle_gamma	83.615083
loop_
_atom_site_label
_atom_site_type_symbol
_atom_site_fract_x
_atom_site_fract_y
_atom_site_fract_z
O1	O	1.186953	0.116548	-0.082675
O2	O	1.686953	0.616548	0.417325
O3	O	0.926553	0.130511	-0.082679
O4	O	1.426553	0.630511	0.417321
O5	O	1.063728	-0.006670	-0.082675
O6	O	1.563728	0.493330	0.417325
O7	O	1.049777	0.253729	-0.082680
O8	O	1.549777	0.753729	0.417320
O9	O	1.063711	-0.006679	0.082709
O10	O	1.563711	0.493321	0.582709
O11	O	0.926536	0.130502	0.082704
O12	O	1.426536	0.630502	0.582704
O13	O	1.186936	0.116540	0.082709
O14	O	1.686936	0.616540	0.582709
Cu15	Cu	1.056734	0.123520	0.097807
Cu16	Cu	1.556734	0.623520	0.597807
Cu17	Cu	1.056754	0.123530	-0.097778
Cu18	Cu	1.556754	0.623530	0.402222
O19	O	1.049760	0.253721	0.082704
O20	O	1.549760	0.753721	0.582704
C21	C	0.893219	0.129883	0.000012
C22	C	1.393219	0.629883	0.500012
C23	C	0.793922	0.128013	0.000010
C24	C	1.293922	0.628013	0.500010
C25	C	0.747268	0.127128	0.090162
C26	C	1.247268	0.627128	0.590162
C27	C	0.653969	0.125357	0.090163
C28	C	1.153969	0.625357	0.590163
C29	C	0.607326	0.124478	0.000011
C30	C	1.107326	0.624478	0.500011
C31	C	0.653987	0.125361	-0.090148
C32	C	1.153987	0.625361	0.409852
C33	C	0.747284	0.127125	-0.090148
C34	C	1.247284	0.627125	0.409852
C35	C	0.459525	0.121685	-0.090141
C36	C	0.959525	0.621685	0.409859
C37	C	0.366220	0.119923	-0.090141
C38	C	0.866220	0.619923	0.409859
C39	C	0.366210	0.119918	0.090170
C40	C	0.866210	0.619918	0.590170
C41	C	0.459507	0.121682	0.090169
C42	C	0.959507	0.621682	0.590169
C43	C	0.506162	0.122566	0.000010
C44	C	1.006162	0.622566	0.500010
C45	C	1.063094	-0.039999	0.000015
C46	C	1.563094	0.460001	0.500015
C47	C	1.061221	-0.139296	0.000011
C48	C	1.561221	0.360704	0.500011
C49	C	1.060352	-0.185936	-0.090141
C50	C	1.560352	0.314064	0.409859
C51	C	1.058586	-0.279235	-0.090142
C52	C	1.558586	0.220765	0.409858
C53	C	1.057695	-0.325893	0.000009
C54	C	1.557695	0.174107	0.500009
C55	C	1.058561	-0.279246	0.090168
C56	C	1.558561	0.220754	0.590168
C57	C	1.060321	-0.185948	0.090168
C58	C	1.560321	0.314052	0.590168
C59	C	1.054895	-0.473709	0.090161
C60	C	1.554895	0.026291	0.590161
C61	C	1.053137	-0.567014	0.090162
C62	C	1.553137	-0.067014	0.590162
C63	C	1.053160	-0.566996	-0.090149
C64	C	1.553160	-0.066996	0.409851
C65	C	1.054920	-0.473698	-0.090149
C66	C	1.554920	0.026302	0.409851
C67	C	1.055787	-0.427057	0.000010
C68	C	1.555787	0.072943	0.500010
C69	C	1.220269	0.117168	0.000015
C70	C	1.720269	0.617168	0.500015
C71	C	1.319566	0.119037	0.000010
C72	C	1.819566	0.619037	0.500010
C73	C	1.050394	0.287050	0.000012
C74	C	1.550394	0.787050	0.500012
C75	C	1.052268	0.386346	0.000010
C76	C	1.552268	0.886346	0.500010
N77	N	1.056726	0.123513	0.235372
N78	N	1.556726	0.623513	0.735372
N79	N	1.056769	0.123531	-0.235342
N80	N	1.556769	0.623531	0.264658
C81	C	1.117486	0.062794	0.287414
C82	C	1.617486	0.562794	0.787414
C83	C	1.117492	0.062793	0.391517
C84	C	1.617492	0.562793	0.891517
C85	C	1.056741	0.123516	0.443576
C86	C	1.556741	0.623516	0.943576
C87	C	0.995974	0.184238	0.391527
C88	C	1.495974	0.684238	0.891527
C89	C	0.995965	0.184234	0.287425
C90	C	1.495965	0.684234	0.787425
C91	C	0.995999	0.184244	0.608507
C92	C	1.495999	0.684244	1.108507
C93	C	0.996009	0.184250	0.712615
C94	C	1.496009	0.684250	1.212615
C95	C	1.117526	0.062804	0.712599
C96	C	1.617526	0.562804	1.212599
C97	C	1.117517	0.062799	0.608497
C98	C	1.617517	0.562799	1.108497
C99	C	1.056751	0.123522	0.556455
C100	C	1.556751	0.623522	1.056455
H101	H	0.497508	0.122405	-0.163558
H102	H	0.997508	0.622405	0.336442
F103	F	0.931313	0.248861	0.446932
F104	F	1.431313	0.748861	0.946932
H105	H	0.616003	0.124638	-0.163551
H106	H	1.116003	0.624638	0.336449
H107	H	0.615990	0.124622	0.163574
H108	H	1.115990	0.624622	0.663574
F109	F	0.316581	0.118985	-0.186091
F110	F	0.816581	0.618985	0.313909
H111	H	0.785269	0.127847	-0.163558
H112	H	1.285269	0.627847	0.336442
H113	H	1.061082	-0.147954	-0.163553
H114	H	1.561082	0.352046	0.336447
H115	H	1.057882	-0.317205	-0.163553
H116	H	1.557882	0.182795	0.336447
H117	H	1.055652	-0.435712	-0.163559
H118	H	1.555652	0.064288	0.336441
F119	F	0.931321	0.248870	0.553124
F120	F	1.431321	0.748870	1.053124
F121	F	0.796901	0.128070	0.186115
F122	F	1.296901	0.628070	0.686115
H123	H	1.061015	-0.147973	0.163579
H124	H	1.561015	0.352027	0.663579
F125	F	0.509146	0.122627	0.186119
F126	F	1.009146	0.622627	0.686119
H127	H	0.946487	0.233676	0.245053
H128	H	1.446487	0.733676	0.745053
H129	H	1.166961	0.013350	0.245034
H130	H	1.666961	0.513350	0.745034
H131	H	1.166967	0.013351	0.433890
H132	H	1.666967	0.513351	0.933890
F133	F	0.316556	0.118977	0.186124
F134	F	0.816556	0.618977	0.686124
H135	H	1.167003	0.013361	0.754978
H136	H	1.667003	0.513361	1.254978
H137	H	1.166989	0.013359	0.566111
H138	H	1.666989	0.513359	1.066111
F139	F	0.931348	0.248878	0.768013
F140	F	1.431348	0.748878	1.268013
H141	H	1.052451	-0.604975	-0.163560
H142	H	1.552451	-0.104975	0.336440
F143	F	1.052189	-0.616669	0.186111
F144	F	1.552189	-0.116669	0.686111
H145	H	1.057830	-0.317241	0.163571
H146	H	1.557830	0.182759	0.663571
F147	F	1.055820	-0.424073	0.186120
F148	F	1.555820	0.075927	0.686120
