data_functionalizedCrystal
_audit_creation_method	'MofGen! by Chris Wilmer'
_symmetry_space_group_name_H-M	'P1'
_symmetry_Int_Tables_number	1
_symmetry_cell_setting	triclinic
loop_
_symmetry_equiv_pos_as_xyz
  x,y,z
_cell_length_a	21.295420
_cell_length_b	21.295417
_cell_length_c	14.908794
_cell_angle_alpha	86.719677
_cell_angle_beta	86.708551
_cell_angle_gamma	90.028757
loop_
_atom_site_label
_atom_site_type_symbol
_atom_site_fract_x
_atom_site_fract_y
_atom_site_fract_z
Zn1	Zn	0.941689	-0.271288	0.510059
Zn2	Zn	0.947704	-0.370453	0.359190
Zn3	Zn	0.842524	-0.265200	0.359218
Zn4	Zn	0.836384	-0.376518	0.509997
O5	O	0.892076	-0.320865	0.434616
O6	O	1.030576	-0.284453	0.490060
O7	O	0.938839	-0.351405	0.232953
O8	O	0.855731	-0.177920	0.379265
O9	O	1.034995	-0.357309	0.379217
O10	O	0.928587	-0.182393	0.490087
O11	O	0.861563	-0.274076	0.232974
O12	O	0.753621	-0.279956	0.379205
O13	O	0.845267	-0.367645	0.636246
O14	O	0.749110	-0.361741	0.489982
O15	O	0.922634	-0.290333	0.636291
O16	O	0.932885	-0.459346	0.379157
O17	O	0.851099	-0.463801	0.489955
C18	C	0.728525	-0.320847	0.434590
C19	C	0.658557	-0.320855	0.434600
C20	C	0.156768	-0.363522	0.492241
C21	C	0.222511	-0.363522	0.492232
C22	C	0.257715	-0.320880	0.434644
C23	C	0.227172	-0.278246	0.377045
C24	C	0.161431	-0.278252	0.377050
N25	N	0.361231	-0.265489	0.427862
N26	N	0.423682	-0.265486	0.427863
C27	C	0.455791	-0.320862	0.434625
N28	N	0.423088	-0.376243	0.441404
N29	N	0.360631	-0.376246	0.441408
C30	C	0.329001	-0.320870	0.434632
C31	C	0.557612	-0.363496	0.492206
C32	C	0.623356	-0.363496	0.492190
C33	C	0.628017	-0.278215	0.377008
C34	C	0.562274	-0.278220	0.377019
C35	C	0.527075	-0.320860	0.434623
C36	C	0.891995	-0.484414	0.434566
C37	C	0.892017	-0.554383	0.434575
C38	C	0.934637	-0.584911	0.376942
C39	C	0.934665	-0.650654	0.376962
C40	C	0.892064	-0.685867	0.434606
C41	C	0.849441	-0.655331	0.492250
C42	C	0.849417	-0.589589	0.492235
N43	N	0.836718	-0.789409	0.441475
N44	N	0.836742	-0.851860	0.441484
C45	C	0.892132	-0.883943	0.434658
N46	N	0.947499	-0.851214	0.427804
N47	N	0.947474	-0.788757	0.427790
C48	C	0.892084	-0.757153	0.434630
C49	C	0.934786	-0.985758	0.377044
C50	C	0.934816	-1.051503	0.377070
C51	C	0.849586	-1.056178	0.492353
C52	C	0.849562	-0.990434	0.492332
C53	C	0.892161	-0.955228	0.434672
C54	C	1.056265	-0.320883	0.434643
C55	C	1.126232	-0.320891	0.434654
C56	C	0.882594	-0.330345	0.669917
C57	C	0.878554	-0.334384	0.770188
C58	C	0.892173	-0.156677	0.434686
C59	C	0.892214	-0.086710	0.434716
C60	C	0.832580	-0.380322	0.911493
C61	C	0.836375	-0.376531	0.817279
C62	C	0.916939	-0.296024	0.817317
C63	C	0.913144	-0.299815	0.911530
C64	C	0.870963	-0.341966	0.958615
C65	C	0.867172	-0.345760	1.052831
C66	C	0.947733	-0.265250	1.052866
C67	C	0.951528	-0.261459	0.958652
C68	C	0.901516	-0.311437	1.200230
C69	C	0.905557	-0.307400	1.099959
H70	H	0.128113	-0.398244	0.539144
O71	O	0.252081	-0.404955	0.548266
C72	C	0.240526	-0.489553	0.662491
C73	C	0.206961	-0.442657	0.599092
H74	H	0.204062	-0.520056	0.703587
H75	H	0.269396	-0.462627	0.709787
H76	H	0.272980	-0.520725	0.620979
H77	H	0.174477	-0.411474	0.640531
H78	H	0.178131	-0.469623	0.551793
O79	O	0.799025	-0.413702	0.771467
C80	C	0.718342	-0.417890	0.665045
C81	C	0.760595	-0.375718	0.716885
H82	H	0.687270	-0.387197	0.620889
H83	H	0.687502	-0.448652	0.714848
H84	H	0.749012	-0.449048	0.620972
H85	H	0.729974	-0.344522	0.760959
H86	H	0.791440	-0.344998	0.667034
O87	O	0.826288	-0.386772	1.098611
C88	C	0.813477	-0.476018	1.204987
C89	C	0.859851	-0.429623	1.153186
H90	H	0.840593	-0.510667	1.249139
H91	H	0.786704	-0.502827	1.155160
H92	H	0.778792	-0.448875	1.249062
H93	H	0.894574	-0.456718	1.109111
H94	H	0.886578	-0.402815	1.203063
H95	H	0.648217	-0.398216	0.539082
O96	O	0.662300	-0.236818	0.321149
C97	C	0.765646	-0.199043	0.270048
C98	C	0.726892	-0.245949	0.333374
H99	H	0.817876	-0.206418	0.279896
H100	H	0.752148	-0.148931	0.286022
H101	H	0.755598	-0.207086	0.197290
H102	H	0.736919	-0.237964	0.406154
H103	H	0.740396	-0.296044	0.317323
O104	O	0.791575	-0.421184	0.957335
C105	C	0.702274	-0.433926	1.063650
C106	C	0.748679	-0.387582	1.011809
H107	H	0.667573	-0.406775	1.107690
H108	H	0.729345	-0.468608	1.107813
H109	H	0.675524	-0.460705	1.013768
H110	H	0.775442	-0.360759	1.061626
H111	H	0.721574	-0.352940	0.967632
O112	O	0.808180	-0.960850	0.548434
C113	C	0.771367	-0.946863	0.701841
C114	C	0.818258	-0.980420	0.638402
H115	H	0.779507	-0.962663	0.774595
H116	H	0.721250	-0.959214	0.686006
H117	H	0.778658	-0.893829	0.691883
H118	H	0.811025	-1.033461	0.648326
H119	H	0.868357	-0.968018	0.654253
H120	H	0.951277	-0.261703	0.778964
O121	O	0.992488	-0.220572	0.912771
C122	C	1.034019	-0.179030	0.767647
C123	C	0.987611	-0.225369	0.819492
H124	H	1.030082	-0.182883	0.692222
H125	H	1.084039	-0.190839	0.786108
H126	H	1.022259	-0.129024	0.786240
H127	H	0.999312	-0.275391	0.800927
H128	H	0.937603	-0.213505	0.801027
O129	O	0.984951	-0.228008	1.098781
C130	C	1.014832	-0.198188	1.243937
C131	C	0.972638	-0.240389	1.192052
H132	H	1.004901	-0.208193	1.319356
H133	H	1.004544	-0.146674	1.225494
H134	H	1.066327	-0.208488	1.225364
H135	H	0.921129	-0.230145	1.210598
H136	H	0.982979	-0.291890	1.210500
H137	H	0.814711	-0.564733	0.539167
H138	H	0.969475	-0.957092	0.330096
O139	O	0.261345	-0.236887	0.320975
C140	C	0.287611	-0.199970	0.167601
C141	C	0.248887	-0.246852	0.231004
H142	H	0.277543	-0.208001	0.094847
H143	H	0.339854	-0.207288	0.177414
H144	H	0.274071	-0.149878	0.183617
H145	H	0.262373	-0.296963	0.215028
H146	H	0.196653	-0.239479	0.221180
O147	O	0.523477	-0.404887	0.548280
C148	C	0.497155	-0.441749	0.701663
C149	C	0.535858	-0.394851	0.638258
H150	H	0.507141	-0.433643	0.774423
H151	H	0.510702	-0.491863	0.685769
H152	H	0.444928	-0.434430	0.691730
H153	H	0.588095	-0.402112	0.648155
H154	H	0.522258	-0.344754	0.654167
O155	O	0.532706	-0.236743	0.321057
C156	C	0.544270	-0.152181	0.206777
C157	C	0.577833	-0.199111	0.270128
H158	H	0.580740	-0.121753	0.165571
H159	H	0.511857	-0.120941	0.248240
H160	H	0.515358	-0.179143	0.159573
H161	H	0.606779	-0.172201	0.317345
H162	H	0.610209	-0.230351	0.228609
O163	O	0.976083	-0.550810	0.320914
C164	C	1.060597	-0.553112	0.206538
C165	C	1.013701	-0.591810	0.269954
H166	H	1.091015	-0.586244	0.165308
H167	H	1.091852	-0.523981	0.247952
H168	H	1.033606	-0.520453	0.159360
H169	H	1.040641	-0.624504	0.317145
H170	H	0.982447	-0.620900	0.228485
H171	H	0.136570	-0.243535	0.330155
O172	O	0.975973	-0.680378	0.320908
C173	C	0.989403	-0.749675	0.199071
C174	C	0.942560	-0.716070	0.262522
H175	H	0.962407	-0.778530	0.151837
H176	H	1.020639	-0.782131	0.240458
H177	H	1.019849	-0.713201	0.157902
H178	H	0.912072	-0.752499	0.303704
H179	H	0.911367	-0.683603	0.221083
O180	O	0.808119	-0.689510	0.548374
C181	C	0.771278	-0.715757	0.701789
C182	C	0.818118	-0.677026	0.638326
H183	H	0.779338	-0.705667	0.774527
H184	H	0.778614	-0.767999	0.691977
H185	H	0.721171	-0.702244	0.685832
H186	H	0.868244	-0.690485	0.654243
H187	H	0.810728	-0.624793	0.648149
O188	O	0.976243	-1.081059	0.320998
C189	C	1.060792	-1.069482	0.206680
C190	C	1.013900	-1.035928	0.270121
H191	H	1.091259	-1.033010	0.165543
H192	H	1.033862	-1.098382	0.159423
H193	H	1.092001	-1.101904	0.248161
H194	H	0.982680	-1.003475	0.228713
H195	H	1.040869	-1.007068	0.317380
H196	H	0.814901	-1.084847	0.539292
