data_functionalizedCrystal
_audit_creation_method	'MofGen! by Chris Wilmer'
_symmetry_space_group_name_H-M	'P1'
_symmetry_Int_Tables_number	1
_symmetry_cell_setting	triclinic
loop_
_symmetry_equiv_pos_as_xyz
  x,y,z
_cell_length_a	12.827893
_cell_length_b	18.101397
_cell_length_c	12.827885
_cell_angle_alpha	90.036582
_cell_angle_beta	90.019272
_cell_angle_gamma	90.020436
loop_
_atom_site_label
_atom_site_type_symbol
_atom_site_fract_x
_atom_site_fract_y
_atom_site_fract_z
Zn1	Zn	1.597633	-0.294794	0.590799
Zn2	Zn	2.097633	0.205206	1.090799
Zn3	Zn	1.597511	-0.418654	0.416039
Zn4	Zn	2.097511	0.081346	0.916039
Zn5	Zn	1.422874	-0.294830	0.416073
Zn6	Zn	1.922874	0.205170	0.916073
Zn7	Zn	1.422844	-0.418598	0.590739
Zn8	Zn	1.922844	0.081402	1.090739
O9	O	1.510216	-0.356719	0.503412
O10	O	2.010216	0.143281	1.003412
O11	O	1.743853	-0.311232	0.567628
O12	O	2.243853	0.188768	1.067628
O13	O	1.574307	-0.402266	0.269807
O14	O	2.074307	0.097734	0.769807
O15	O	1.446120	-0.191193	0.439290
O16	O	1.946120	0.308807	0.939290
O17	O	1.743763	-0.402231	0.439232
O18	O	2.243763	0.097769	0.939232
O19	O	1.574514	-0.191166	0.567661
O20	O	2.074514	0.308834	1.067661
O21	O	1.446002	-0.311294	0.269832
O22	O	1.946002	0.188706	0.769832
O23	O	1.276634	-0.311240	0.439232
O24	O	1.776634	0.188760	0.939232
O25	O	1.446068	-0.402137	0.736983
O26	O	1.946068	0.097863	1.236983
O27	O	1.276612	-0.402172	0.567558
O28	O	1.776612	0.097828	1.067558
O29	O	1.574485	-0.311179	0.737027
O30	O	2.074485	0.188821	1.237027
O31	O	1.574278	-0.522279	0.439174
O32	O	2.074278	-0.022279	0.939174
O33	O	1.445951	-0.522239	0.567525
O34	O	1.945951	-0.022239	1.067525
C35	C	1.238706	-0.356705	0.503393
C36	C	1.738706	0.143295	1.003393
C37	C	1.122553	-0.356717	0.503409
C38	C	1.622553	0.143283	1.003409
C39	C	1.070784	-0.401783	0.566811
C40	C	1.570784	0.098217	1.066811
C41	C	0.950734	-0.401796	0.566829
C42	C	1.450734	0.098204	1.066829
C43	C	1.510126	-0.549130	0.503362
C44	C	2.010126	-0.049130	1.003362
C45	C	1.510183	-0.631444	0.503375
C46	C	2.010183	-0.131444	1.003375
C47	C	1.510317	-0.930535	0.503470
C48	C	2.010317	-0.430535	1.003470
C49	C	1.590832	-0.899204	0.422499
C50	C	2.090832	-0.399204	0.922499
C51	C	1.591111	-0.813586	0.422709
C52	C	2.091111	-0.313586	0.922709
C53	C	1.510251	-0.782152	0.503422
C54	C	2.010251	-0.282152	1.003422
C55	C	1.540108	-0.813151	0.613572
C56	C	2.040108	-0.313151	1.113572
C57	C	1.540731	-0.898796	0.613131
C58	C	2.040731	-0.398796	1.113131
C59	C	1.399730	-0.899046	0.475245
C60	C	1.899730	-0.399046	0.975245
C61	C	1.400276	-0.813396	0.472786
C62	C	1.900276	-0.313396	0.972786
C63	C	1.510212	-0.698293	0.503402
C64	C	2.010212	-0.198293	1.003402
C65	C	1.510359	-1.014394	0.503498
C66	C	2.010359	-0.514394	1.003498
C67	C	1.782786	-0.356734	0.503433
C68	C	2.282786	0.143266	1.003433
C69	C	1.898939	-0.356740	0.503442
C70	C	2.398939	0.143260	1.003442
C71	C	1.510287	-0.356648	0.775983
C72	C	2.010287	0.143352	1.275983
C73	C	1.510317	-0.356618	0.892136
C74	C	2.010317	0.143382	1.392136
C75	C	1.510334	-0.163557	0.503486
C76	C	2.010334	0.336443	1.003486
C77	C	1.510384	-0.081243	0.503518
C78	C	2.010384	0.418757	1.003518
C79	C	1.510205	-0.356737	0.231903
C80	C	2.010205	0.143263	0.731903
C81	C	1.510377	-0.356558	0.115750
C82	C	2.010377	0.143442	0.615750
C83	C	1.573868	-0.311600	0.943943
C84	C	2.073868	0.188400	1.443943
C85	C	1.573901	-0.311567	1.063993
C86	C	2.073901	0.188433	1.563993
H87	H	1.572431	-0.792630	0.341034
H88	H	2.072431	-0.292630	0.841034
Cl89	Cl	1.657812	-0.252110	0.875211
Cl90	Cl	2.157812	0.247890	1.375211
H91	H	0.943451	-0.318158	0.449155
H92	H	1.443451	0.181842	0.949155
H93	H	1.628314	-0.273028	1.108546
H94	H	2.128314	0.226972	1.608546
Cl95	Cl	1.426372	-0.416073	1.046977
Cl96	Cl	1.926372	0.083927	1.546977
Cl97	Cl	1.426341	-0.416085	0.960867
Cl98	Cl	1.926341	0.083915	1.460867
H99	H	1.115341	-0.440353	0.621082
H100	H	1.615341	0.059647	1.121082
H101	H	1.372568	-0.920712	0.396317
H102	H	1.872568	-0.420712	0.896317
Cl103	Cl	0.882006	-0.461372	0.650633
Cl104	Cl	1.382006	0.038628	1.150633
H105	H	1.572377	-0.919853	0.340579
H106	H	2.072377	-0.419853	0.840579
Cl107	Cl	1.053770	-0.297155	0.419626
Cl108	Cl	1.553770	0.202845	0.919626
Cl109	Cl	1.452331	-0.781722	0.709225
Cl110	Cl	1.952331	-0.281722	1.209225
H111	H	1.672301	-0.920671	0.440959
H112	H	2.172301	-0.420671	0.940959
Cl113	Cl	1.665533	-0.929550	0.650042
Cl114	Cl	2.165533	-0.429550	1.150042
Cl115	Cl	1.717583	-0.781860	0.451548
Cl116	Cl	2.217583	-0.281860	0.951548
H117	H	1.484657	-0.919518	0.675540
H118	H	1.984657	-0.419518	1.175540
H119	H	1.620037	-0.791642	0.637886
H120	H	2.120037	-0.291642	1.137886
H121	H	1.377763	-0.793144	0.391725
H122	H	1.877763	-0.293144	0.891725
Cl123	Cl	1.302669	-0.780376	0.557173
Cl124	Cl	1.802669	-0.280376	1.057173
H125	H	1.339740	-0.919307	0.534220
H126	H	1.839740	-0.419307	1.034220
