data_functionalizedCrystal
_audit_creation_method	'MofGen! by Chris Wilmer'
_symmetry_space_group_name_H-M	'P1'
_symmetry_Int_Tables_number	1
_symmetry_cell_setting	triclinic
loop_
_symmetry_equiv_pos_as_xyz
  x,y,z
_cell_length_a	10.908937
_cell_length_b	10.723024
_cell_length_c	9.198806
_cell_angle_alpha	90.002012
_cell_angle_beta	89.994418
_cell_angle_gamma	107.723087
loop_
_atom_site_label
_atom_site_type_symbol
_atom_site_fract_x
_atom_site_fract_y
_atom_site_fract_z
O1	O	1.702144	0.192361	-0.120938
O2	O	1.329140	0.095100	-0.120929
O3	O	1.524246	0.327164	-0.120928
O4	O	1.507038	-0.039703	-0.120939
O5	O	1.524230	0.327161	0.120857
O6	O	1.329124	0.095097	0.120856
O7	O	1.702128	0.192358	0.120847
Cu8	Cu	1.515625	0.143727	0.142928
Cu9	Cu	1.515643	0.143731	-0.143010
O10	O	1.507023	-0.039705	0.120846
C11	C	1.281371	0.086009	-0.000036
C12	C	1.139058	0.058940	-0.000033
C13	C	0.942093	0.129746	-0.000057
C14	C	1.089181	0.157726	-0.000038
C15	C	1.522986	0.373392	-0.000038
C16	C	1.519239	0.511137	-0.000043
C17	C	1.749897	0.201449	-0.000049
C18	C	1.892210	0.228518	-0.000062
C19	C	1.508283	-0.085933	-0.000048
C20	C	1.512029	-0.223679	-0.000052
N21	N	1.515621	0.143728	0.344042
C22	C	1.628410	0.609683	-0.000047
C23	C	1.624540	0.752051	-0.000052
N24	N	1.515657	0.143742	-0.344124
C25	C	1.597541	0.241516	0.416240
C26	C	1.597561	0.241525	0.583652
H27	H	0.958398	0.333794	-0.000062
O28	O	1.404233	0.536048	0.000149
C29	C	1.334095	0.480760	0.125392
H30	H	1.369686	0.397820	0.167148
H31	H	1.227506	0.440714	0.097230
H32	H	1.348375	0.559037	0.213072
H33	H	0.875905	0.024470	-0.000075
O34	O	1.168257	0.283275	-0.000222
C35	C	1.246453	0.304883	-0.125455
H36	H	1.253963	0.207375	-0.167204
H37	H	1.346568	0.372024	-0.097281
H38	H	1.202060	0.352723	-0.213144
O39	O	1.681047	0.341364	0.341943
C40	C	1.611454	0.403687	0.253902
H41	H	1.511660	0.333106	0.231305
H42	H	1.664637	0.434404	0.146783
H43	H	1.601790	0.493945	0.312424
H44	H	1.717999	0.836656	-0.000050
H45	H	1.418565	0.691723	-0.000039
O46	O	1.059986	-0.066611	-0.000242
C47	C	0.981838	-0.088213	-0.125496
H48	H	0.974337	0.009296	-0.167243
H49	H	0.881715	-0.155362	-0.097352
H50	H	1.026268	-0.136041	-0.213176
H51	H	1.667700	0.325243	0.645739
O52	O	1.431909	0.044012	0.418309
C53	C	1.352100	0.094164	0.506344
H54	H	1.402050	0.202273	0.528984
H55	H	1.332525	0.038085	0.613443
H56	H	1.257191	0.082689	0.447797
H57	H	1.724740	0.588653	-0.000040
H58	H	1.445523	0.060014	0.593798
