data_functionalizedCrystal
_audit_creation_method	'MofGen! by Chris Wilmer'
_symmetry_space_group_name_H-M	'P1'
_symmetry_Int_Tables_number	1
_symmetry_cell_setting	triclinic
loop_
_symmetry_equiv_pos_as_xyz
  x,y,z
_cell_length_a	10.723024
_cell_length_b	10.723023
_cell_length_c	9.198806
_cell_angle_alpha	89.993552
_cell_angle_beta	90.000000
_cell_angle_gamma	84.467709
loop_
_atom_site_label
_atom_site_type_symbol
_atom_site_fract_x
_atom_site_fract_y
_atom_site_fract_z
O1	O	-1.657180	-0.175032	0.120882
O2	O	-1.294028	-0.191785	0.120887
O3	O	-1.483981	-0.001832	0.120876
O4	O	-1.467227	-0.364985	0.120893
O5	O	-1.483980	-0.001817	-0.120909
O6	O	-1.294027	-0.191770	-0.120898
O7	O	-1.657179	-0.175017	-0.120903
Cu8	Cu	-1.475603	-0.183392	-0.142978
Cu9	Cu	-1.475604	-0.183410	0.142961
O10	O	-1.467226	-0.364970	-0.120892
C11	C	-1.247528	-0.190558	-0.000005
C12	C	-1.108973	-0.186911	-0.000004
C13	C	-1.482762	0.044675	-0.000016
C14	C	-1.479114	0.183229	-0.000013
N15	N	-1.475605	-0.183413	0.344075
C16	C	-1.703679	-0.176243	-0.000008
C17	C	-1.842234	-0.179891	-0.000000
C18	C	-1.033991	-0.293198	0.000002
C19	C	-0.890787	-0.289431	0.000004
C20	C	-1.477489	0.244987	0.125240
C21	C	-1.473719	0.388190	0.125246
C22	C	-1.468445	0.588523	-0.000001
C23	C	-1.472093	0.449969	-0.000004
N24	N	-1.475612	-0.183379	-0.344092
C25	C	-1.555535	-0.103480	0.416267
C26	C	-1.555539	-0.103460	0.583680
H27	H	-1.075812	-0.386984	-0.000002
H28	H	-0.826354	-0.380421	0.000015
C29	C	-1.052481	-0.060205	-0.000009
N30	N	-1.009932	0.035233	-0.000011
C31	C	-1.471830	0.459936	0.270120
N32	N	-1.470405	0.513978	0.379244
H33	H	-1.478882	0.191842	0.232470
H34	H	-1.473497	0.396867	-0.107243
C35	C	-1.383158	-0.275849	0.428008
N36	N	-1.313523	-0.345473	0.491224
H37	H	-1.477707	0.236372	-0.107242
H38	H	-1.623968	-0.035063	0.354137
H39	H	-1.623966	-0.035021	0.645762
H40	H	-0.906659	-0.088896	0.000004
H41	H	-1.407172	-0.251812	0.593835
