data_functionalizedCrystal
_audit_creation_method	'MofGen! by Chris Wilmer'
_symmetry_space_group_name_H-M	'P1'
_symmetry_Int_Tables_number	1
_symmetry_cell_setting	triclinic
loop_
_symmetry_equiv_pos_as_xyz
  x,y,z
_cell_length_a	18.215407
_cell_length_b	18.101395
_cell_length_c	18.215399
_cell_angle_alpha	90.029272
_cell_angle_beta	90.016899
_cell_angle_gamma	90.029411
loop_
_atom_site_label
_atom_site_type_symbol
_atom_site_fract_x
_atom_site_fract_y
_atom_site_fract_z
Zn1	Zn	1.125036	-0.294887	0.416051
Zn2	Zn	1.124929	-0.418734	0.292982
Zn3	Zn	1.001968	-0.294905	0.293005
Zn4	Zn	1.001919	-0.418686	0.416014
O5	O	1.063463	-0.356803	0.354513
O6	O	1.228006	-0.311328	0.399732
O7	O	1.108594	-0.402335	0.190001
O8	O	1.018359	-0.191270	0.309353
O9	O	1.227927	-0.402318	0.309314
O10	O	1.108776	-0.191257	0.399755
O11	O	1.018255	-0.311359	0.190018
O12	O	0.898978	-0.311313	0.309316
O13	O	1.018275	-0.402237	0.519003
O14	O	0.898941	-0.402254	0.399690
O15	O	1.108728	-0.311282	0.519031
O16	O	1.108546	-0.522360	0.309277
O17	O	1.018171	-0.522325	0.399668
C18	C	0.872257	-0.356780	0.354502
C19	C	0.790458	-0.356789	0.354514
C20	C	0.525401	-0.404234	0.401506
C21	C	0.602259	-0.404228	0.401503
C22	C	0.602267	-0.309389	0.307533
C23	C	0.525409	-0.309399	0.307533
C24	C	0.486978	-0.356821	0.354524
C25	C	0.640694	-0.356804	0.354520
C26	C	0.724028	-0.356797	0.354516
C27	C	0.403639	-0.356829	0.354528
C28	C	1.063362	-0.549214	0.354482
C29	C	1.063386	-0.631528	0.354493
C30	C	1.063470	-0.782236	0.354523
C31	C	1.006580	-0.813599	0.411350
C32	C	1.006795	-0.899217	0.411590
C33	C	1.063552	-0.930619	0.354551
C34	C	1.141139	-0.899439	0.375412
C35	C	1.140762	-0.813794	0.375808
C36	C	1.043470	-0.813872	0.276698
C37	C	1.041806	-0.899524	0.277129
C38	C	1.063603	-1.014478	0.354566
C39	C	1.063424	-0.698377	0.354509
C40	C	1.255416	-0.356827	0.354525
C41	C	1.337215	-0.356836	0.354530
C42	C	1.063508	-0.356752	0.546466
C43	C	1.063527	-0.356730	0.628265
C44	C	1.063585	-0.163641	0.354560
C45	C	1.063637	-0.081327	0.354581
C46	C	1.063461	-0.356801	0.163307
C47	C	1.063584	-0.356614	0.081508
C48	C	1.110643	-0.309326	0.816475
C49	C	1.110652	-0.309305	0.893334
C50	C	1.016463	-0.404020	0.893293
C51	C	1.016451	-0.404037	0.816436
C52	C	1.063545	-0.356692	0.778029
C53	C	1.063566	-0.356653	0.931745
C54	C	1.063575	-0.356630	1.015079
C55	C	1.063535	-0.356713	0.694690
H56	H	0.494112	-0.442848	0.439769
H57	H	0.494125	-0.270789	0.269272
C58	C	0.964635	-0.456137	0.774139
C59	C	0.964615	-0.456148	0.689599
C60	C	0.912796	-0.508240	0.647302
C61	C	0.860996	-0.560320	0.689545
C62	C	0.861014	-0.560311	0.774090
C63	C	0.912833	-0.508220	0.816387
H64	H	1.002962	-0.417593	0.658324
H65	H	0.912784	-0.508246	0.584716
H66	H	0.822637	-0.598882	0.658234
H67	H	0.822666	-0.598866	0.805365
H68	H	0.912845	-0.508214	0.878973
C69	C	0.929079	-0.927709	0.393994
C70	C	0.866388	-0.872532	0.379623
C71	C	0.788668	-0.901020	0.362034
C72	C	0.773639	-0.984684	0.358815
C73	C	0.836332	-1.039866	0.373186
C74	C	0.914052	-1.011379	0.390775
H75	H	0.877511	-0.810594	0.382006
H76	H	0.742258	-0.860170	0.351396
H77	H	0.716106	-1.005773	0.345794
H78	H	0.825209	-1.101804	0.370803
H79	H	0.960462	-1.052229	0.401413
H80	H	0.948849	-0.793076	0.398458
H81	H	1.019674	-0.792030	0.468688
C82	C	1.024759	-0.926824	0.489499
C83	C	1.092935	-0.975322	0.502647
C84	C	1.110914	-1.002922	0.580559
C85	C	1.060716	-0.982026	0.645323
C86	C	0.992535	-0.933526	0.632177
C87	C	0.974556	-0.905925	0.554265
H88	H	1.130099	-0.990793	0.454703
H89	H	1.161386	-1.038825	0.590290
H90	H	1.074024	-1.002458	0.702998
H91	H	0.955371	-0.918055	0.680121
H92	H	0.924084	-0.870022	0.544534
H93	H	1.157691	-0.793765	0.432692
C94	C	0.644524	-0.456382	0.453185
C95	C	0.729064	-0.456379	0.453185
C96	C	0.771329	-0.508537	0.504868
C97	C	0.729053	-0.560698	0.556552
C98	C	0.644508	-0.560702	0.556555
C99	C	0.602244	-0.508544	0.504871
H100	H	0.760363	-0.417765	0.414923
H101	H	0.833914	-0.508533	0.504866
H102	H	0.760339	-0.599308	0.594812
H103	H	0.613209	-0.599316	0.594816
H104	H	0.539658	-0.508548	0.504873
C105	C	0.644543	-0.257222	0.255851
C106	C	0.729083	-0.257204	0.255851
C107	C	0.771357	-0.205033	0.204169
C108	C	0.729091	-0.152881	0.152488
C109	C	0.644546	-0.152897	0.152486
C110	C	0.602272	-0.205067	0.204168
H111	H	0.760375	-0.295812	0.294110
H112	H	0.833943	-0.205022	0.204170
H113	H	0.760385	-0.114261	0.114230
H114	H	0.613254	-0.114288	0.114227
H115	H	0.539686	-0.205079	0.204166
C116	C	0.964681	-0.927079	0.255843
C117	C	0.902691	-0.871196	0.241128
C118	C	0.825571	-0.898762	0.219833
C119	C	0.810441	-0.982210	0.213253
C120	C	0.872432	-1.038098	0.227968
C121	C	0.949553	-1.010532	0.249263
H122	H	0.913889	-0.809418	0.245998
H123	H	0.779680	-0.857390	0.208940
H124	H	0.753352	-1.002616	0.197489
H125	H	0.861234	-1.099876	0.223098
H126	H	0.995443	-1.051904	0.260157
C127	C	1.199995	-0.785752	0.322316
C128	C	1.247490	-0.841291	0.279377
C129	C	1.306725	-0.813252	0.225891
C130	C	1.318465	-0.729675	0.215343
C131	C	1.270968	-0.674131	0.258282
C132	C	1.211733	-0.702170	0.311769
H133	H	1.238801	-0.903164	0.287185
H134	H	1.341885	-0.854370	0.194104
H135	H	1.362314	-0.708919	0.175749
H136	H	1.279658	-0.612258	0.250475
H137	H	1.176573	-0.661052	0.343555
C138	C	1.162461	-0.257203	0.935624
C139	C	1.214259	-0.205125	0.893375
C140	C	1.266070	-0.153020	0.935665
C141	C	1.266082	-0.152991	1.020205
C142	C	1.214283	-0.205071	1.062460
C143	C	1.162472	-0.257177	1.020169
H144	H	1.214251	-0.205144	0.830789
H145	H	1.304415	-0.114467	0.904385
H146	H	1.304436	-0.114420	1.051511
H147	H	1.214291	-0.205052	1.125046
H148	H	1.124127	-0.295729	1.051449
C149	C	1.093712	-0.928398	0.216895
C150	C	1.157037	-0.980949	0.237047
C151	C	1.208950	-1.009821	0.176815
C152	C	1.197538	-0.986142	0.096432
C153	C	1.134211	-0.933588	0.076277
C154	C	1.082297	-0.904716	0.136509
H155	H	1.165487	-0.998480	0.296554
H156	H	1.255830	-1.048725	0.191735
H157	H	1.235968	-1.007515	0.051845
H158	H	1.125760	-0.916057	0.016769
H159	H	1.035418	-0.865812	0.121588
H160	H	1.184708	-0.919774	0.335302
C161	C	1.164439	-0.928336	0.451427
C162	C	1.234903	-0.974604	0.459455
C163	C	1.258199	-1.003499	0.535473
C164	C	1.211030	-0.986125	0.603462
C165	C	1.140562	-0.939855	0.595436
C166	C	1.117266	-0.910960	0.519419
H167	H	1.269824	-0.987467	0.409124
H168	H	1.310364	-1.037751	0.541413
H169	H	1.228275	-1.007515	0.659735
H170	H	1.105641	-0.926992	0.645768
H171	H	1.065101	-0.876707	0.513478
C172	C	0.964673	-0.456115	0.935537
C173	C	0.881012	-0.450082	0.924963
C174	C	0.829226	-0.502186	0.967202
C175	C	0.861101	-0.560323	1.020015
C176	C	0.944767	-0.566359	1.030592
C177	C	0.996553	-0.514255	0.988353
H178	H	0.857412	-0.407043	0.885866
H179	H	0.767291	-0.497717	0.959372
H180	H	0.822766	-0.598894	1.051283
H181	H	0.968366	-0.609398	1.069689
H182	H	1.058488	-0.518724	0.996182
C183	C	0.968305	-0.784794	0.250987
C184	C	0.924124	-0.731941	0.300336
C185	C	0.848956	-0.702862	0.274635
C186	C	0.817969	-0.726636	0.199584
C187	C	0.862151	-0.779493	0.150230
C188	C	0.937319	-0.808572	0.175931
H189	H	0.947061	-0.714339	0.355898
H190	H	0.816249	-0.663734	0.311170
H191	H	0.762325	-0.705111	0.180558
H192	H	0.839214	-0.797095	0.094669
H193	H	0.970025	-0.847699	0.139396
H194	H	1.084901	-0.793581	0.234359
H195	H	1.148988	-0.270772	0.785206
