data_functionalizedCrystal
_audit_creation_method	'MofGen! by Chris Wilmer'
_symmetry_space_group_name_H-M	'P1'
_symmetry_Int_Tables_number	1
_symmetry_cell_setting	triclinic
loop_
_symmetry_equiv_pos_as_xyz
  x,y,z
_cell_length_a	19.188930
_cell_length_b	17.666332
_cell_length_c	19.188924
_cell_angle_alpha	90.008552
_cell_angle_beta	83.143372
_cell_angle_gamma	90.023234
loop_
_atom_site_label
_atom_site_type_symbol
_atom_site_fract_x
_atom_site_fract_y
_atom_site_fract_z
O1	O	0.926147	0.063195	0.087169
O2	O	1.426147	0.563195	0.587169
O3	O	0.722836	0.063144	0.098903
O4	O	1.222836	0.563144	0.598903
O5	O	0.830361	0.063162	-0.008620
O6	O	1.330361	0.563162	0.491380
O7	O	0.818622	0.063177	0.194692
O8	O	1.318622	0.563177	0.694692
O9	O	0.830343	-0.062735	-0.008625
O10	O	1.330343	0.437265	0.491375
O11	O	0.722817	-0.062753	0.098898
O12	O	1.222817	0.437247	0.598898
O13	O	0.926129	-0.062702	0.087163
O14	O	1.426129	0.437298	0.587163
Cu15	Cu	0.824471	-0.074223	0.093030
Cu16	Cu	1.324471	0.425777	0.593030
Cu17	Cu	0.824493	0.074665	0.093037
Cu18	Cu	1.324493	0.574665	0.593037
O19	O	0.818603	-0.062720	0.194687
O20	O	1.318603	0.437280	0.694687
C21	C	0.696815	0.000189	0.098521
C22	C	1.196815	0.500189	0.598521
C23	C	0.619311	0.000169	0.097380
C24	C	1.119311	0.500169	0.597380
N25	N	0.824461	-0.178942	0.093025
N26	N	1.324461	0.321058	0.593025
C27	C	0.574386	0.000185	0.160471
C28	C	1.074386	0.500185	0.660471
C29	C	0.501562	0.000193	0.159399
C30	C	1.001562	0.500193	0.659399
C31	C	0.473667	0.000200	0.095233
C32	C	0.973667	0.500200	0.595233
C33	C	0.518602	0.000180	0.032134
C34	C	1.018602	0.500180	0.532134
C35	C	0.591424	0.000164	0.033207
C36	C	1.091424	0.500164	0.533207
N37	N	0.365694	0.043075	0.046188
N38	N	0.865694	0.543075	0.546188
N39	N	0.296516	0.043092	0.045172
N40	N	0.796516	0.543092	0.545172
C41	C	0.254258	0.000246	0.091995
C42	C	0.754258	0.500246	0.591995
N43	N	0.283791	-0.042607	0.139882
N44	N	0.783791	0.457393	0.639882
N45	N	0.352976	-0.042620	0.140899
N46	N	0.852976	0.457380	0.640899
C47	C	0.394704	0.000217	0.094062
C48	C	0.894704	0.500217	0.594062
C49	C	0.130368	0.000271	0.153928
C50	C	0.630368	0.500271	0.653928
C51	C	0.057543	0.000274	0.152854
C52	C	0.557543	0.500274	0.652854
C53	C	0.074585	0.000268	0.025586
C54	C	0.574585	0.500268	0.525586
C55	C	0.147409	0.000257	0.026663
C56	C	0.647409	0.500257	0.526663
C57	C	0.175295	0.000262	0.090835
C58	C	0.675295	0.500262	0.590835
C59	C	0.872088	-0.218544	0.045437
C60	C	1.372088	0.281456	0.545437
C61	C	0.872092	-0.297791	0.045433
C62	C	1.372092	0.202209	0.545433
C63	C	0.824475	-0.337434	0.093030
C64	C	1.324475	0.162566	0.593030
C65	C	0.776839	-0.297823	0.140622
C66	C	1.276839	0.202177	0.640622
C67	C	0.776831	-0.218577	0.140619
C68	C	1.276831	0.281423	0.640619
N69	N	0.815398	-0.461850	0.154838
N70	N	1.315398	0.038150	0.654838
N71	N	0.815409	-0.537130	0.154838
N72	N	1.315409	-0.037130	0.654838
C73	C	0.824494	-0.576198	0.093040
C74	C	1.324494	-0.076198	0.593040
N75	N	0.833581	-0.537142	0.031239
N76	N	1.333581	-0.037142	0.531239
N77	N	0.833573	-0.461855	0.031240
N78	N	1.333573	0.038145	0.531240
C79	C	0.824478	-0.423363	0.093038
C80	C	1.324478	0.076637	0.593038
C81	C	0.872128	-0.701729	0.045444
C82	C	1.372128	-0.201729	0.545444
C83	C	0.872128	-0.780978	0.045440
C84	C	1.372128	-0.280978	0.545440
C85	C	0.776878	-0.781009	0.140634
C86	C	1.276878	-0.281009	0.640634
C87	C	0.776875	-0.701761	0.140633
C88	C	1.276875	-0.201761	0.640633
C89	C	0.824504	-0.662126	0.093038
C90	C	1.324504	-0.162126	0.593038
C91	C	0.952149	0.000255	0.087546
C92	C	1.452149	0.500255	0.587546
C93	C	1.029654	0.000280	0.088687
C94	C	1.529654	0.500280	0.588687
C95	C	0.829973	0.000213	-0.034634
C96	C	1.329973	0.500213	0.465366
C97	C	0.828834	0.000210	-0.112138
C98	C	1.328834	0.500210	0.387862
N99	N	0.824509	0.179384	0.093036
N100	N	1.324509	0.679384	0.593036
C101	C	0.828313	0.068837	-0.148534
C102	C	1.328313	0.568837	0.351466
C103	C	0.827233	0.068842	-0.221357
C104	C	1.327233	0.568842	0.278643
C105	C	0.826688	0.000217	-0.257783
C106	C	1.326688	0.500217	0.242217
C107	C	0.827205	-0.068418	-0.221378
C108	C	1.327205	0.431582	0.278622
C109	C	0.828278	-0.068421	-0.148556
C110	C	1.328278	0.431579	0.351444
N111	N	0.864728	-0.050849	-0.377448
N112	N	1.364728	0.449151	0.122552
N113	N	0.863710	-0.050841	-0.446627
N114	N	1.363710	0.449159	0.053373
C115	C	0.823454	0.000224	-0.477192
C116	C	1.323454	0.500224	0.022808
N117	N	0.784262	0.051292	-0.435967
N118	N	1.284262	0.551292	0.064033
N119	N	0.785283	0.051286	-0.366783
N120	N	1.285283	0.551286	0.133217
C121	C	0.825524	0.000214	-0.336746
C122	C	1.325524	0.500214	0.163254
C123	C	0.821761	0.068861	-0.592550
C124	C	1.321761	0.568861	-0.092550
C125	C	0.820676	0.068864	-0.665374
C126	C	1.320676	0.568864	-0.165374
C127	C	0.820656	-0.068399	-0.665394
C128	C	1.320656	0.431601	-0.165394
C129	C	0.821734	-0.068399	-0.592571
C130	C	1.321734	0.431601	-0.092571
C131	C	0.822289	0.000233	-0.556154
C132	C	1.322289	0.500233	-0.056154
C133	C	0.818992	0.000231	0.220700
C134	C	1.318992	0.500231	0.720700
C135	C	0.820131	0.000238	0.298205
C136	C	1.320131	0.500238	0.798205
H137	H	0.464976	0.000205	0.210777
H138	H	0.964976	0.500205	0.710777
H139	H	0.822209	0.124745	-0.562898
H140	H	1.322209	0.624745	-0.062898
N141	N	0.820135	0.138975	-0.702542
N142	N	1.320135	0.638975	-0.202542
N143	N	0.820629	0.200243	-0.670014
N144	N	1.320629	0.700243	-0.170014
H145	H	0.820246	0.249761	-0.696264
H146	H	1.320246	0.749761	-0.196264
N147	N	0.602867	0.000163	0.226021
N148	N	1.102867	0.500163	0.726021
N149	N	0.641566	-0.052919	0.240816
N150	N	1.141566	0.447081	0.740816
H151	H	0.661682	-0.052939	0.287112
H152	H	1.161682	0.447061	0.787112
N153	N	0.728238	-0.821481	0.189264
N154	N	1.228238	-0.321481	0.689264
N155	N	0.685720	-0.786108	0.231757
N156	N	1.185720	-0.286108	0.731757
H157	H	0.651366	-0.814694	0.266104
H158	H	1.151366	-0.314694	0.766104
H159	H	0.051874	0.000321	-0.026659
H160	H	0.551874	0.500321	0.473341
H161	H	0.910910	-0.813223	0.006684
H162	H	1.410910	-0.313223	0.506684
N163	N	0.158861	0.000250	0.219475
N164	N	0.658861	0.500250	0.719475
N165	N	0.197567	-0.052828	0.234264
N166	N	0.697567	0.447172	0.734264
H167	H	0.217689	-0.052845	0.280557
H168	H	0.717689	0.447155	0.780557
H169	H	0.628003	0.000151	-0.018171
H170	H	1.128003	0.500151	0.481829
N171	N	0.011640	0.000287	0.217297
N172	N	0.511640	0.500287	0.717297
N173	N	-0.053378	0.000291	0.216331
N174	N	0.446622	0.500291	0.716331
H175	H	-0.085799	0.000297	0.261845
H176	H	0.414201	0.500297	0.761845
H177	H	0.495885	0.000196	-0.020111
H178	H	0.995885	0.500196	0.479889
H179	H	0.183988	0.000248	-0.024713
H180	H	0.683988	0.500248	0.475287
N181	N	0.820093	-0.138506	-0.702580
N182	N	1.320093	0.361494	-0.202580
N183	N	0.771001	-0.184469	-0.687861
N184	N	1.271001	0.315531	-0.187861
H185	H	0.770600	-0.233986	-0.714125
H186	H	1.270600	0.266014	-0.214125
H187	H	0.828700	-0.124307	-0.118922
H188	H	1.328700	0.375693	0.381078
N189	N	0.920802	-0.178071	-0.003124
N190	N	1.420802	0.321929	0.496876
N191	N	0.963363	-0.213446	-0.045572
N192	N	1.463363	0.286554	0.454428
H193	H	0.997789	-0.184861	-0.079847
H194	H	1.497789	0.315139	0.420153
N195	N	0.920747	-0.338243	-0.003186
N196	N	1.420747	0.161757	0.496814
N197	N	0.963265	-0.302846	-0.045678
N198	N	1.463265	0.197154	0.454322
H199	H	0.997629	-0.331412	-0.080015
H200	H	1.497629	0.168588	0.419985
H201	H	0.738067	-0.330104	0.179375
H202	H	1.238067	0.169896	0.679375
N203	N	0.728229	-0.661318	0.189260
N204	N	1.228229	-0.161318	0.689260
N205	N	0.728986	-0.670159	0.253794
N206	N	1.228986	-0.170159	0.753794
H207	H	0.694626	-0.641598	0.288139
H208	H	1.194626	-0.141598	0.788139
N209	N	0.728172	-0.178133	0.189235
N210	N	1.228172	0.321867	0.689235
N211	N	0.685655	-0.213532	0.231725
N212	N	1.185655	0.286468	0.731725
H213	H	0.651288	-0.184968	0.266062
H214	H	1.151288	0.315032	0.766062
N215	N	0.822260	-0.138501	-0.555390
N216	N	1.322260	0.361499	-0.055390
N217	N	0.772927	-0.184463	-0.556942
N218	N	1.272927	0.315537	-0.056942
H219	H	0.773296	-0.233976	-0.530682
H220	H	1.273296	0.266024	-0.030682
N221	N	0.920695	-0.661249	-0.003261
N222	N	1.420695	-0.161249	0.496739
N223	N	0.963156	-0.696622	-0.045811
N224	N	1.463156	-0.196622	0.454189
H225	H	0.997424	-0.668036	-0.080243
H226	H	1.497424	-0.168036	0.419757
H227	H	0.828763	0.124722	-0.118888
H228	H	1.328763	0.624722	0.381112
N229	N	0.826710	0.138939	-0.258557
N230	N	1.326710	0.638939	0.241443
N231	N	0.825755	0.138929	-0.323576
N232	N	1.325755	0.638929	0.176424
H233	H	0.825386	0.188434	-0.349849
H234	H	1.325386	0.688434	0.150151
N235	N	0.826642	-0.138510	-0.258592
N236	N	1.326642	0.361490	0.241408
N237	N	0.825685	-0.138498	-0.323612
N238	N	1.325685	0.361502	0.176388
H239	H	0.825284	-0.188003	-0.349895
H240	H	1.325284	0.311997	0.150105
