data_functionalizedCrystal
_audit_creation_method	'MofGen! by Chris Wilmer'
_symmetry_space_group_name_H-M	'P1'
_symmetry_Int_Tables_number	1
_symmetry_cell_setting	triclinic
loop_
_symmetry_equiv_pos_as_xyz
  x,y,z
_cell_length_a	25.639243
_cell_length_b	25.639239
_cell_length_c	25.639233
_cell_angle_alpha	89.980699
_cell_angle_beta	89.984038
_cell_angle_gamma	90.042008
loop_
_atom_site_label
_atom_site_type_symbol
_atom_site_fract_x
_atom_site_fract_y
_atom_site_fract_z
Zn1	Zn	0.799223	-0.208176	-0.295654
Zn2	Zn	1.299223	0.291824	0.204346
Zn3	Zn	0.799145	-0.295595	-0.208217
Zn4	Zn	1.299145	0.204405	0.291783
Zn5	Zn	0.711799	-0.208180	-0.208227
Zn6	Zn	1.211799	0.291820	0.291773
Zn7	Zn	0.711743	-0.295587	-0.295617
Zn8	Zn	1.211743	0.204413	0.204383
O9	O	0.755478	-0.251885	-0.251929
O10	O	1.255478	0.248115	0.248071
O11	O	0.872378	-0.219775	-0.284066
O12	O	1.372378	0.280225	0.215934
O13	O	0.787550	-0.284004	-0.135053
O14	O	1.287550	0.215996	0.364947
O15	O	0.723452	-0.135014	-0.219844
O16	O	1.223452	0.364986	0.280156
O17	O	0.872321	-0.284001	-0.219827
O18	O	1.372321	0.215999	0.280173
O19	O	0.787682	-0.135012	-0.284076
O20	O	1.287682	0.364988	0.215924
O21	O	0.723377	-0.219781	-0.135061
O22	O	1.223377	0.280219	0.364939
O23	O	0.638627	-0.219772	-0.219808
O24	O	1.138627	0.280228	0.280192
O25	O	0.723357	-0.283987	-0.368787
O26	O	1.223357	0.216013	0.131213
O27	O	0.638586	-0.283990	-0.284013
O28	O	1.138586	0.216010	0.215987
O29	O	0.787628	-0.219767	-0.368814
O30	O	1.287628	0.280233	0.131186
O31	O	0.787496	-0.368759	-0.219791
O32	O	1.287496	0.131241	0.280209
O33	O	0.723282	-0.368753	-0.284003
O34	O	1.223282	0.131247	0.215997
C35	C	0.619635	-0.251881	-0.251908
C36	C	1.119635	0.248119	0.248092
C37	C	0.561521	-0.251892	-0.251911
C38	C	1.061521	0.248108	0.248089
C39	C	0.201182	-0.218495	-0.285434
C40	C	0.701182	0.281505	0.214566
C41	C	0.146578	-0.218494	-0.285437
C42	C	0.646578	0.281506	0.214563
O43	O	0.118361	-0.190088	-0.313913
O44	O	0.618361	0.309912	0.186087
N45	N	0.119239	-0.251883	-0.251943
N46	N	0.619239	0.248117	0.248057
C47	C	0.146507	-0.285271	-0.218440
C48	C	0.646507	0.214729	0.281560
O49	O	0.118239	-0.313670	-0.189951
O50	O	0.618239	0.186330	0.310049
C51	C	0.201110	-0.285268	-0.218434
C52	C	0.701110	0.214732	0.281566
C53	C	0.228446	-0.251881	-0.251934
C54	C	0.728446	0.248119	0.248066
C55	C	0.228518	-0.185109	-0.318931
C56	C	0.728518	0.314891	0.181069
C57	C	0.283119	-0.185111	-0.318928
C58	C	0.783119	0.314889	0.181072
C59	C	0.310383	-0.218497	-0.285428
C60	C	0.810383	0.281503	0.214572
C61	C	0.283047	-0.251882	-0.251932
C62	C	0.783047	0.248118	0.248068
C63	C	0.228377	-0.318653	-0.184929
C64	C	0.728377	0.181347	0.315071
C65	C	0.282984	-0.318647	-0.184926
C66	C	0.782984	0.181353	0.315074
C67	C	0.310320	-0.285260	-0.218426
C68	C	0.810320	0.214740	0.281574
C69	C	0.364912	-0.285270	-0.218429
C70	C	0.864912	0.214730	0.281571
N71	N	0.392251	-0.251881	-0.251923
N72	N	0.892251	0.248119	0.248077
C73	C	0.364987	-0.218494	-0.285423
C74	C	0.864987	0.281506	0.214577
C75	C	0.031836	-0.285273	-0.218453
C76	C	0.531836	0.214727	0.281547
C77	C	-0.022766	-0.285279	-0.218461
C78	C	0.477234	0.214721	0.281539
C79	C	-0.022691	-0.218501	-0.285458
C80	C	0.477309	0.281499	0.214542
C81	C	0.031912	-0.218499	-0.285452
C82	C	0.531912	0.281501	0.214548
C83	C	0.059175	-0.251884	-0.251947
C84	C	0.559175	0.248116	0.248053
C85	C	0.479652	-0.218500	-0.285415
C86	C	0.979652	0.281500	0.214585
C87	C	0.534257	-0.218506	-0.285411
C88	C	1.034257	0.281494	0.214589
C89	C	0.534177	-0.285281	-0.218413
C90	C	1.034177	0.214719	0.281587
C91	C	0.479577	-0.285278	-0.218418
C92	C	0.979577	0.214722	0.281582
C93	C	0.452315	-0.251883	-0.251921
C94	C	0.952315	0.248117	0.248079
O95	O	0.393163	-0.313659	-0.189966
O96	O	0.893163	0.186341	0.310034
O97	O	0.393261	-0.190095	-0.313903
O98	O	0.893261	0.309905	0.186097
C99	C	0.755388	-0.387727	-0.251903
C100	C	1.255388	0.112273	0.248097
C101	C	0.755398	-0.445841	-0.251910
C102	C	1.255398	0.054159	0.248090
C103	C	0.722035	-0.697044	-0.285353
C104	C	1.222035	-0.197044	0.214647
C105	C	0.722016	-0.642440	-0.285347
C106	C	1.222016	-0.142440	0.214653
O107	O	0.693564	-0.614211	-0.313764
O108	O	1.193564	-0.114211	0.186236
N109	N	0.755464	-0.615115	-0.251937
N110	N	1.255464	-0.115115	0.248063
C111	C	0.788937	-0.642398	-0.218535
C112	C	1.288937	-0.142398	0.281465
O113	O	0.817386	-0.614142	-0.190118
O114	O	1.317386	-0.114142	0.309882
C115	C	0.788959	-0.697001	-0.218545
C116	C	1.288959	-0.197001	0.281455
C117	C	0.755505	-0.724323	-0.251953
C118	C	1.255505	-0.224323	0.248047
C119	C	0.688584	-0.724366	-0.318759
C120	C	1.188584	-0.224366	0.181241
C121	C	0.688603	-0.778966	-0.318764
C122	C	1.188603	-0.278966	0.181236
C123	C	0.722073	-0.806245	-0.285364
C124	C	1.222073	-0.306245	0.214636
C125	C	0.755524	-0.778923	-0.251958
C126	C	1.255524	-0.278923	0.248042
C127	C	0.822434	-0.724283	-0.185145
C128	C	1.322434	-0.224283	0.314855
C129	C	0.822453	-0.778890	-0.185158
C130	C	1.322453	-0.278890	0.314842
C131	C	0.788999	-0.806211	-0.218566
C132	C	1.288999	-0.306211	0.281434
C133	C	0.789012	-0.860803	-0.218563
C134	C	1.289012	-0.360803	0.281437
N135	N	0.755564	-0.888127	-0.251972
N136	N	1.255564	-0.388127	0.248028
C137	C	0.722094	-0.860848	-0.285373
C138	C	1.222094	-0.360848	0.214627
C139	C	0.788890	-0.527727	-0.218519
C140	C	1.288890	-0.027727	0.281481
C141	C	0.788866	-0.473125	-0.218507
C142	C	1.288866	0.026875	0.281493
C143	C	0.721945	-0.473170	-0.285320
C144	C	1.221945	0.026830	0.214680
C145	C	0.721967	-0.527774	-0.285329
C146	C	1.221967	-0.027774	0.214671
C147	C	0.755442	-0.555052	-0.251929
C148	C	1.255442	-0.055052	0.248071
C149	C	0.722136	-0.975513	-0.285381
C150	C	1.222136	-0.475513	0.214619
C151	C	0.722156	-1.030119	-0.285382
C152	C	1.222156	-0.530119	0.214618
C153	C	0.789079	-1.030068	-0.218571
C154	C	1.289079	-0.530068	0.281429
C155	C	0.789057	-0.975468	-0.218568
C156	C	1.289057	-0.475468	0.281432
C157	C	0.755584	-0.948191	-0.251977
C158	C	1.255584	-0.448191	0.248023
O159	O	0.817451	-0.889066	-0.190162
O160	O	1.317451	-0.389066	0.309838
O161	O	0.693655	-0.889110	-0.313791
O162	O	1.193655	-0.389110	0.186209
C163	C	0.891851	-0.251888	-0.251950
C164	C	1.391851	0.248112	0.248050
C165	C	0.949965	-0.251890	-0.251959
C166	C	1.449965	0.248110	0.248041
C167	C	0.755495	-0.251875	-0.388302
C168	C	1.255495	0.248125	0.111698
C169	C	0.755502	-0.251871	-0.446416
C170	C	1.255502	0.248129	0.053584
C171	C	0.755582	-0.115512	-0.251965
C172	C	1.255582	0.384488	0.248035
C173	C	0.755626	-0.057397	-0.251981
C174	C	1.255626	0.442603	0.248019
C175	C	0.789010	-0.218333	-0.806799
C176	C	1.289010	0.281667	-0.306799
C177	C	0.789016	-0.218318	-0.861403
C178	C	1.289016	0.281682	-0.361403
O179	O	0.817464	-0.189864	-0.889657
O180	O	1.317464	0.310136	-0.389657
N181	N	0.755559	-0.251749	-0.888698
N182	N	1.255559	0.248251	-0.388698
C183	C	0.722090	-0.285192	-0.861387
C184	C	1.222090	0.214808	-0.361387
O185	O	0.693632	-0.313626	-0.889617
O186	O	1.193632	0.186374	-0.389617
C187	C	0.722081	-0.285204	-0.806783
C188	C	1.222081	0.214796	-0.306783
C189	C	0.755544	-0.251775	-0.779491
C190	C	1.255544	0.248225	-0.279491
C191	C	0.822470	-0.184906	-0.779506
C192	C	1.322470	0.315094	-0.279506
C193	C	0.822464	-0.184921	-0.724906
C194	C	1.322464	0.315079	-0.224906
C195	C	0.788998	-0.218363	-0.697598
C196	C	1.288998	0.281637	-0.197598
C197	C	0.755538	-0.251790	-0.724890
C198	C	1.255538	0.248210	-0.224890
C199	C	0.688610	-0.318644	-0.779472
C200	C	1.188610	0.181356	-0.279472
C201	C	0.688603	-0.318653	-0.724865
C202	C	1.188603	0.181347	-0.224865
C203	C	0.722066	-0.285224	-0.697573
C204	C	1.222066	0.214776	-0.197573
C205	C	0.722067	-0.285247	-0.642982
C206	C	1.222067	0.214753	-0.142982
N207	N	0.755524	-0.251817	-0.615686
N208	N	1.255524	0.248183	-0.115686
C209	C	0.788990	-0.218375	-0.642994
C210	C	1.288990	0.281625	-0.142994
C211	C	0.722110	-0.285165	-0.976057
C212	C	1.222110	0.214835	-0.476057
C213	C	0.722121	-0.285157	-1.030660
C214	C	1.222121	0.214843	-0.530660
C215	C	0.789047	-0.218282	-1.030672
C216	C	1.289047	0.281718	-0.530672
C217	C	0.789038	-0.218293	-0.976069
C218	C	1.289038	0.281707	-0.476069
C219	C	0.755567	-0.251735	-0.948762
C220	C	1.255567	0.248265	-0.448762
C221	C	0.788975	-0.218410	-0.528329
C222	C	1.288975	0.281590	-0.028329
C223	C	0.788968	-0.218429	-0.473724
C224	C	1.288968	0.281571	0.026276
C225	C	0.722040	-0.285302	-0.473716
C226	C	1.222040	0.214698	0.026284
C227	C	0.722049	-0.285285	-0.528316
C228	C	1.222049	0.214715	-0.028316
C229	C	0.755518	-0.251834	-0.555622
C230	C	1.255518	0.248166	-0.055622
O231	O	0.693632	-0.313686	-0.614693
O232	O	1.193632	0.186314	-0.114693
O233	O	0.817437	-0.189941	-0.614757
O234	O	1.317437	0.310059	-0.114757
C235	C	0.755491	-0.251856	-0.116086
C236	C	1.255491	0.248144	0.383914
C237	C	0.755585	-0.251713	-0.057972
C238	C	1.255585	0.248287	0.442028
H239	H	0.206129	-0.345840	-0.157649
H240	H	0.706129	0.154160	0.342351
H241	H	0.305179	-0.345834	-0.157641
H242	H	0.805179	0.154166	0.342359
H243	H	0.849712	-0.157699	-0.702689
H244	H	1.349712	0.342301	-0.202689
O245	O	0.309589	-0.152623	-0.351481
O246	O	0.809589	0.347377	0.148519
C247	C	0.273807	-0.123167	-0.381052
C248	C	0.773807	0.376833	0.118948
H249	H	0.234878	-0.121335	-0.359640
H250	H	0.734878	0.378665	0.140360
H251	H	0.289607	-0.081977	-0.386699
H252	H	0.789607	0.418023	0.113301
H253	H	0.268000	-0.142368	-0.420729
H254	H	0.768000	0.357632	0.079271
O255	O	0.689510	-0.446643	-0.317826
O256	O	1.189510	0.053357	0.182174
C257	C	0.719248	-0.415001	-0.351606
C258	C	1.219248	0.084999	0.148394
H259	H	0.760429	-0.431413	-0.354876
H260	H	1.260429	0.068587	0.145124
H261	H	0.700313	-0.414378	-0.391826
H262	H	1.200313	0.085622	0.108174
H263	H	0.721048	-0.373625	-0.335434
H264	H	1.221048	0.126375	0.164566
O265	O	0.560868	-0.186045	-0.317881
O266	O	1.060868	0.313955	0.182119
C267	C	0.592459	-0.152222	-0.288175
C268	C	1.092459	0.347778	0.211825
H269	H	0.600615	-0.170603	-0.248519
H270	H	1.100615	0.329397	0.251481
H271	H	0.630867	-0.145246	-0.309485
H272	H	1.130867	0.354754	0.190515
H273	H	0.571441	-0.113468	-0.282501
H274	H	1.071441	0.386532	0.217499
O275	O	0.821477	-0.185733	-1.057227
O276	O	1.321477	0.314267	-0.557227
C277	C	0.791732	-0.151969	-1.088817
C278	C	1.291732	0.348031	-0.588817
H279	H	0.750555	-0.148748	-1.072352
H280	H	1.250555	0.351252	-0.572352
H281	H	0.810667	-0.111729	-1.089445
H282	H	1.310667	0.388271	-0.589445
H283	H	0.789922	-0.168125	-1.130198
H284	H	1.289922	0.331875	-0.630198
O285	O	0.058294	-0.317787	-0.185966
O286	O	0.558294	0.182213	0.314034
C287	C	0.044904	-0.369911	-0.197296
C288	C	0.544904	0.130089	0.302704
H289	H	0.029910	-0.372608	-0.239062
H290	H	0.529910	0.127392	0.260938
H291	H	0.080789	-0.395739	-0.192740
H292	H	0.580789	0.104261	0.307260
H293	H	0.013185	-0.383536	-0.169246
H294	H	0.513185	0.116464	0.330754
H295	H	0.816286	-0.191071	-0.953851
H296	H	1.316286	0.308929	-0.453851
O297	O	0.453100	-0.317731	-0.185833
O298	O	0.953100	0.182269	0.314167
C299	C	0.488876	-0.347211	-0.156278
C300	C	0.988876	0.152789	0.343722
H301	H	0.527815	-0.325794	-0.154507
H302	H	1.027815	0.174206	0.345493
H303	H	0.473084	-0.352728	-0.115074
H304	H	0.973084	0.147272	0.384926
H305	H	0.494658	-0.386947	-0.175354
H306	H	0.994658	0.113053	0.324646
O307	O	0.202015	-0.152622	-0.351402
O308	O	0.702015	0.347378	0.148598
C309	C	0.170430	-0.118811	-0.321711
C310	C	0.670430	0.381189	0.178289
H311	H	0.186864	-0.115516	-0.280534
H312	H	0.686864	0.384484	0.219466
H313	H	0.169853	-0.078605	-0.340700
H314	H	0.669853	0.421395	0.159300
H315	H	0.129033	-0.134972	-0.319891
H316	H	0.629033	0.365028	0.180109
O317	O	0.656081	-0.351046	-0.806037
O318	O	1.156081	0.148954	-0.306037
C319	C	0.622329	-0.321274	-0.837612
C320	C	1.122329	0.178726	-0.337612
H321	H	0.640799	-0.281650	-0.845803
H322	H	1.140799	0.218350	-0.345803
H323	H	0.615311	-0.342565	-0.876004
H324	H	1.115311	0.157435	-0.376004
H325	H	0.583584	-0.315532	-0.816563
H326	H	1.083584	0.184468	-0.316563
O327	O	0.689570	-0.317651	-1.057087
O328	O	1.189570	0.182349	-0.557087
C329	C	0.660044	-0.347178	-1.021269
C330	C	1.160044	0.152822	-0.521269
H331	H	0.658249	-0.325770	-0.982348
H332	H	1.158249	0.174230	-0.482348
H333	H	0.618846	-0.352752	-1.037034
H334	H	1.118846	0.147248	-0.537034
H335	H	0.679161	-0.386889	-1.015460
H336	H	1.179161	0.113111	-0.515460
O337	O	0.689593	-0.948966	-0.317760
O338	O	1.189593	-0.448966	0.182240
C339	C	0.655821	-0.917442	-0.287959
C340	C	1.155821	-0.417442	0.212041
H341	H	0.674287	-0.909251	-0.248355
H342	H	1.174287	-0.409251	0.251645
H343	H	0.648779	-0.879047	-0.309250
H344	H	1.148779	-0.379047	0.190750
H345	H	0.617090	-0.938536	-0.282174
H346	H	1.117090	-0.438536	0.217826
O347	O	0.560748	-0.317661	-0.185888
O348	O	1.060748	0.182339	0.314112
C349	C	0.614803	-0.310505	-0.193081
C350	C	1.114803	0.189495	0.306919
H351	H	0.622290	-0.270182	-0.210283
H352	H	1.122290	0.229818	0.289717
H353	H	0.635542	-0.313985	-0.153911
H354	H	1.135542	0.186015	0.346089
H355	H	0.630287	-0.341560	-0.220863
H356	H	1.130287	0.158440	0.279137
O357	O	0.689642	-1.056577	-0.317887
O358	O	1.189642	-0.556577	0.182113
C359	C	0.660091	-1.020787	-0.347357
C360	C	1.160091	-0.520787	0.152643
H361	H	0.681493	-0.981841	-0.349181
H362	H	1.181493	-0.481841	0.150819
H363	H	0.654491	-1.036549	-0.388548
H364	H	1.154491	-0.536549	0.111452
H365	H	0.620393	-1.015030	-0.328172
H366	H	1.120393	-0.515030	0.171828
O367	O	0.656093	-0.805422	-0.351270
O368	O	1.156093	-0.305422	0.148730
C369	C	0.626544	-0.769626	-0.380737
C370	C	1.126544	-0.269626	0.119263
H371	H	0.647947	-0.730681	-0.382555
H372	H	1.147947	-0.230681	0.117445
H373	H	0.620945	-0.785383	-0.421931
H374	H	1.120945	-0.285383	0.078069
H375	H	0.586845	-0.763871	-0.361553
H376	H	1.086845	-0.263871	0.138447
O377	O	0.656143	-0.697849	-0.351262
O378	O	1.156143	-0.197849	0.148738
C379	C	0.685864	-0.666202	-0.385053
C380	C	1.185864	-0.166202	0.114947
H381	H	0.727050	-0.682601	-0.388327
H382	H	1.227050	-0.182601	0.111673
H383	H	0.666922	-0.665592	-0.425270
H384	H	1.166922	-0.165592	0.074730
H385	H	0.687653	-0.624823	-0.368887
H386	H	1.187653	-0.124823	0.131113
O387	O	0.855046	-0.805326	-0.152737
O388	O	1.355046	-0.305326	0.347263
C389	C	0.907141	-0.791925	-0.164227
C390	C	1.407141	-0.291925	0.335773
H391	H	0.908190	-0.752272	-0.184327
H392	H	1.408190	-0.252272	0.315673
H393	H	0.930614	-0.790041	-0.126517
H394	H	1.430614	-0.290041	0.373483
H395	H	0.924745	-0.822626	-0.191126
H396	H	1.424745	-0.322626	0.308874
H397	H	0.661341	-0.345880	-0.702635
H398	H	1.161341	0.154120	-0.202635
O399	O	0.689499	-0.317777	-0.554751
O400	O	1.189499	0.182223	-0.054751
C401	C	0.659972	-0.347309	-0.518936
C402	C	1.159972	0.152691	-0.018936
H403	H	0.658177	-0.325905	-0.480013
H404	H	1.158177	0.174095	0.019987
H405	H	0.618774	-0.352881	-0.534702
H406	H	1.118774	0.147119	-0.034702
H407	H	0.679089	-0.387020	-0.513132
H408	H	1.179089	0.112980	-0.013132
O409	O	0.821421	-0.554142	-0.186018
O410	O	1.321421	-0.054142	0.313982
C411	C	0.850943	-0.518311	-0.156540
C412	C	1.350943	-0.018311	0.343460
H413	H	0.829510	-0.479414	-0.154709
H414	H	1.329510	0.020586	0.345291
H415	H	0.856554	-0.534096	-0.115351
H416	H	1.356554	-0.034096	0.384649
H417	H	0.890638	-0.512448	-0.175722
H418	H	1.390638	-0.012448	0.324278
O419	O	0.821284	-0.446565	-0.185994
O420	O	1.321284	0.053435	0.314006
C421	C	0.791532	-0.415018	-0.152199
C422	C	1.291532	0.084982	0.347801
H423	H	0.750359	-0.431515	-0.148934
H424	H	1.250359	0.068485	0.351066
H425	H	0.810469	-0.414401	-0.111980
H426	H	1.310469	0.085599	0.388020
H427	H	0.789709	-0.373628	-0.168355
H428	H	1.289709	0.126372	0.331645
O429	O	0.689457	-0.554231	-0.317834
O430	O	1.189457	-0.054231	0.182166
C431	C	0.659903	-0.518438	-0.347299
C432	C	1.159903	-0.018438	0.152701
H433	H	0.681304	-0.479491	-0.349118
H434	H	1.181304	0.020509	0.150882
H435	H	0.654304	-0.534195	-0.388492
H436	H	1.154304	-0.034195	0.111508
H437	H	0.620205	-0.512686	-0.328113
H438	H	1.120205	-0.012686	0.171887
H439	H	0.816327	-1.052289	-0.191376
H440	H	1.316327	-0.552289	0.308624
H441	H	0.849675	-0.702045	-0.157942
H442	H	1.349675	-0.202045	0.342058
H443	H	-0.044900	-0.191315	-0.312733
H444	H	0.455100	0.308685	0.187267
O445	O	0.689673	-0.317684	-0.949475
O446	O	1.189673	0.182316	-0.449475
C447	C	0.719412	-0.351471	-0.917902
C448	C	1.219412	0.148529	-0.417902
H449	H	0.759045	-0.333031	-0.909724
H450	H	1.259045	0.166969	-0.409724
H451	H	0.698102	-0.358492	-0.879503
H452	H	1.198102	0.141508	-0.379503
H453	H	0.725134	-0.390210	-0.938945
H454	H	1.225134	0.109790	-0.438945
O455	O	0.689609	-0.317811	-0.447121
O456	O	1.189609	0.182189	0.052879
C457	C	0.719352	-0.351592	-0.415547
C458	C	1.219352	0.148408	0.084453
H459	H	0.758991	-0.333156	-0.407387
H460	H	1.258991	0.166844	0.092613
H461	H	0.698054	-0.358599	-0.377139
H462	H	1.198054	0.141401	0.122861
H463	H	0.725063	-0.390338	-0.436581
H464	H	1.225063	0.109662	0.063419
O465	O	0.821596	-0.949005	-0.186094
O466	O	1.321596	-0.449005	0.313906
C467	C	0.851127	-0.984794	-0.156602
C468	C	1.351127	-0.484794	0.343398
H469	H	0.852937	-1.023706	-0.178023
H470	H	1.352937	-0.523706	0.321977
H471	H	0.892320	-0.968977	-0.151058
H472	H	1.392320	-0.468977	0.348942
H473	H	0.832006	-0.990638	-0.116877
H474	H	1.332006	-0.490638	0.383123
O475	O	0.821537	-0.185902	-0.554768
O476	O	1.321537	0.314098	-0.054768
C477	C	0.851056	-0.156397	-0.518961
C478	C	1.351056	0.343603	-0.018961
H479	H	0.852838	-0.177827	-0.480038
H480	H	1.352838	0.322173	0.019962
H481	H	0.892259	-0.150817	-0.534738
H482	H	1.392259	0.349183	-0.034738
H483	H	0.831941	-0.116688	-0.513152
H484	H	1.331941	0.383312	-0.013152
O485	O	0.058407	-0.186090	-0.318064
O486	O	0.558407	0.313910	0.181936
C487	C	0.045085	-0.197606	-0.370154
C488	C	0.545085	0.302394	0.129846
H489	H	0.005427	-0.217712	-0.371203
H490	H	0.505427	0.282288	0.128797
H491	H	0.043246	-0.159907	-0.393668
H492	H	0.543246	0.340093	0.106332
H493	H	0.075806	-0.224509	-0.387713
H494	H	0.575806	0.275491	0.112287
O495	O	0.453256	-0.186047	-0.318011
O496	O	0.953256	0.313953	0.181989
C497	C	0.489101	-0.156576	-0.347564
C498	C	0.989101	0.343424	0.152436
H499	H	0.528007	-0.177999	-0.349324
H500	H	1.028007	0.322001	0.150676
H501	H	0.473350	-0.151063	-0.388772
H502	H	0.973350	0.348937	0.111228
H503	H	0.494932	-0.116837	-0.328493
H504	H	0.994932	0.383163	0.171507
H505	H	-0.045019	-0.312472	-0.191188
H506	H	0.454981	0.187528	0.308812
O507	O	0.821398	-0.185922	-0.447158
O508	O	1.321398	0.314078	0.052842
C509	C	0.791649	-0.152151	-0.415585
C510	C	1.291649	0.347849	0.084415
H511	H	0.752015	-0.170598	-0.407391
H512	H	1.252015	0.329402	0.092609
H513	H	0.812948	-0.145145	-0.377194
H514	H	1.312948	0.354855	0.122806
H515	H	0.785929	-0.113404	-0.436637
H516	H	1.285929	0.386596	0.063363
H517	H	0.849722	-0.157671	-0.801735
H518	H	1.349722	0.342329	-0.301735
