data_functionalizedCrystal
_audit_creation_method	'MofGen! by Chris Wilmer'
_symmetry_space_group_name_H-M	'P1'
_symmetry_Int_Tables_number	1
_symmetry_cell_setting	triclinic
loop_
_symmetry_equiv_pos_as_xyz
  x,y,z
_cell_length_a	19.188928
_cell_length_b	18.266242
_cell_length_c	19.188930
_cell_angle_alpha	90.011475
_cell_angle_beta	96.855705
_cell_angle_gamma	89.974262
loop_
_atom_site_label
_atom_site_type_symbol
_atom_site_fract_x
_atom_site_fract_y
_atom_site_fract_z
O1	O	-0.926150	0.061172	0.087161
O2	O	-0.722839	0.061113	0.098897
O3	O	-0.830362	0.061130	-0.008627
O4	O	-0.818627	0.061155	0.194685
O5	O	-0.830344	-0.060632	-0.008632
O6	O	-0.722821	-0.060649	0.098891
O7	O	-0.926132	-0.060590	0.087155
Zn8	Zn	-0.824474	-0.079952	0.093022
Zn9	Zn	-0.824497	0.080475	0.093030
O10	O	-0.818609	-0.060607	0.194679
C11	C	-0.696819	0.000224	0.098514
C12	C	-0.619314	0.000201	0.097374
C13	C	-0.574390	0.000218	0.160465
C14	C	-0.501566	0.000222	0.159394
C15	C	-0.473670	0.000224	0.095229
C16	C	-0.518603	0.000202	0.032129
C17	C	-0.591426	0.000191	0.033202
N18	N	-0.365696	0.041682	0.046184
N19	N	-0.296517	0.041695	0.045170
C20	C	-0.254261	0.000257	0.091992
N21	N	-0.283795	-0.041185	0.139879
N22	N	-0.352980	-0.041194	0.140896
C23	C	-0.394707	0.000236	0.094058
C24	C	-0.130372	0.000277	0.153927
C25	C	-0.057547	0.000277	0.152853
C26	C	-0.074586	0.000265	0.025586
C27	C	-0.147409	0.000258	0.026661
C28	C	-0.175298	0.000267	0.090834
N29	N	-0.824462	-0.189439	0.093017
C30	C	-0.872089	-0.227740	0.045429
C31	C	-0.872093	-0.304385	0.045426
C32	C	-0.824478	-0.342726	0.093023
C33	C	-0.776842	-0.304415	0.140614
C34	C	-0.776834	-0.227772	0.140612
N35	N	-0.815402	-0.463052	0.154830
N36	N	-0.815414	-0.535860	0.154831
C37	C	-0.824497	-0.573648	0.093033
N38	N	-0.833583	-0.535877	0.031232
N39	N	-0.833575	-0.463063	0.031233
C40	C	-0.824481	-0.425833	0.093031
C41	C	-0.872132	-0.695056	0.045437
C42	C	-0.872131	-0.771703	0.045433
C43	C	-0.776883	-0.771732	0.140628
C44	C	-0.776880	-0.695087	0.140626
C45	C	-0.824508	-0.656754	0.093031
C46	C	0.047848	0.000288	0.087540
C47	C	-0.029656	0.000277	0.088686
C48	C	-0.829973	0.000247	-0.034641
C49	C	-0.828832	0.000240	-0.112145
N50	N	-0.824514	0.189962	0.093030
C51	C	-0.891923	0.000255	-0.157070
C52	C	-0.890851	0.000267	-0.229893
C53	C	-0.826685	0.000248	-0.257789
C54	C	-0.763586	0.000237	-0.212855
C55	C	-0.764659	0.000233	-0.140033
N56	N	-0.777631	-0.041204	-0.365796
N57	N	-0.776616	-0.041202	-0.434974
C58	C	-0.823447	0.000262	-0.477198
N59	N	-0.871342	0.041714	-0.447631
N60	N	-0.872360	0.041709	-0.378446
C61	C	-0.825514	0.000253	-0.336752
C62	C	-0.885380	0.000291	-0.601087
C63	C	-0.884306	0.000306	-0.673912
C64	C	-0.757039	0.000270	-0.656872
C65	C	-0.758115	0.000261	-0.584049
C66	C	-0.822287	0.000268	-0.556161
C67	C	-0.818998	0.000278	0.220693
C68	C	-0.820139	0.000289	0.298197
H69	H	-0.020970	0.000287	0.204232
H70	H	-0.051874	0.000311	-0.026659
Br71	Br	-0.712243	-0.643100	0.205215
Br72	Br	-0.712193	-0.175787	0.205200
Br73	Br	-0.612236	0.000230	0.247556
H74	H	-0.704793	0.000259	-0.679584
H75	H	-0.937633	0.000299	-0.578380
Br76	Br	-0.208382	0.000236	-0.058968
Br77	Br	-0.440586	0.000241	0.245024
Br78	Br	-0.480746	0.000197	-0.054954
H79	H	-0.713281	0.000221	-0.103455
H80	H	-0.944177	0.000263	-0.134368
Br81	Br	-0.652399	0.000166	-0.052429
Br82	Br	-0.168225	0.000285	0.241015
H83	H	-0.910869	-0.196531	0.006673
Br84	Br	-0.712254	-0.823759	0.205217
Br85	Br	-0.969937	0.000335	-0.734884
Br86	Br	-0.936766	-0.823687	-0.019162
H87	H	-0.942229	0.000282	-0.266478
Br88	Br	-0.672486	0.000240	-0.523075
Br89	Br	-0.936734	-0.356375	-0.019165
Br90	Br	-0.712215	-0.356446	0.205206
Br91	Br	-0.936766	-0.643031	-0.019157
H92	H	-0.711341	0.000224	-0.235573
