data_functionalizedCrystal
_audit_creation_method	'MofGen! by Chris Wilmer'
_symmetry_space_group_name_H-M	'P1'
_symmetry_Int_Tables_number	1
_symmetry_cell_setting	triclinic
loop_
_symmetry_equiv_pos_as_xyz
  x,y,z
_cell_length_a	18.050590
_cell_length_b	21.295417
_cell_length_c	18.050582
_cell_angle_alpha	90.025708
_cell_angle_beta	89.999233
_cell_angle_gamma	90.018869
loop_
_atom_site_label
_atom_site_type_symbol
_atom_site_fract_x
_atom_site_fract_y
_atom_site_fract_z
Zn1	Zn	1.135285	-0.250831	0.419585
Zn2	Zn	1.135192	-0.356092	0.295389
Zn3	Zn	1.011104	-0.250821	0.295444
Zn4	Zn	1.011049	-0.356047	0.419571
O5	O	1.073157	-0.303448	0.357497
O6	O	1.239197	-0.264818	0.403093
O7	O	1.118716	-0.342143	0.191471
O8	O	1.027639	-0.162733	0.311940
O9	O	1.239129	-0.342153	0.311847
O10	O	1.118874	-0.162741	0.403147
O11	O	1.027549	-0.264801	0.191512
O12	O	0.907172	-0.264756	0.311926
O13	O	1.027545	-0.342075	0.523498
O14	O	0.907132	-0.342065	0.403122
O15	O	1.118820	-0.264773	0.523508
O16	O	1.118663	-0.444176	0.311833
O17	O	1.027455	-0.444142	0.403069
C18	C	0.880205	-0.303405	0.357529
C19	C	0.797660	-0.303402	0.357560
C20	C	0.598208	-0.345562	0.407035
C21	C	0.548817	-0.288165	0.425314
C22	C	0.646529	-0.303437	0.357524
C23	C	0.548839	-0.360867	0.339245
C24	C	0.500544	-0.303476	0.357491
C25	C	0.598225	-0.246009	0.375838
C26	C	0.598251	-0.318749	0.289738
C27	C	0.548882	-0.261313	0.307991
C28	C	0.730627	-0.303415	0.357545
C29	C	0.416448	-0.303491	0.357469
C30	C	1.073063	-0.467000	0.357460
C31	C	1.073090	-0.536968	0.357468
C32	C	1.120569	-0.569781	0.404994
C33	C	1.120595	-0.635523	0.405012
C34	C	1.073150	-0.668450	0.357492
C35	C	1.025662	-0.635629	0.309963
C36	C	1.025632	-0.569888	0.309952
N37	N	1.067546	-0.771706	0.292499
N38	N	1.067579	-0.834158	0.292512
C39	C	1.073237	-0.866525	0.357525
N40	N	1.078875	-0.834081	0.422526
N41	N	1.078846	-0.771624	0.422512
C42	C	1.073178	-0.739735	0.357499
C43	C	1.120747	-0.970624	0.405074
C44	C	1.120768	-1.036367	0.405094
C45	C	1.025839	-1.036472	0.310039
C46	C	1.025814	-0.970729	0.310026
C47	C	1.073272	-0.937809	0.357542
C48	C	1.266863	-0.303492	0.357465
C49	C	1.349409	-0.303510	0.357452
C50	C	1.073187	-0.303420	0.551203
C51	C	1.073199	-0.303408	0.633749
C52	C	1.073273	-0.139258	0.357551
C53	C	1.073322	-0.069290	0.357574
C54	C	1.073171	-0.303430	0.164545
C55	C	1.073303	-0.303265	0.082000
C56	C	1.023601	-0.345387	0.833194
C57	C	1.091356	-0.360785	0.882566
C58	C	1.073236	-0.303360	0.784879
C59	C	1.005518	-0.287944	0.882589
C60	C	1.073265	-0.303315	0.930864
C61	C	1.141026	-0.318788	0.833164
C62	C	1.055142	-0.245921	0.833183
C63	C	1.122944	-0.261297	0.882532
C64	C	1.073218	-0.303388	0.700781
C65	C	1.073291	-0.303287	1.014961
H66	H	0.527360	-0.225664	0.266107
O67	O	0.979676	-0.938948	0.263782
C68	C	0.937791	-0.982104	0.221855
H69	H	0.968232	-1.028951	0.219313
H70	H	0.929902	-0.963145	0.163333
H71	H	0.881372	-0.989115	0.249013
O72	O	1.209386	-0.334480	0.807469
C73	C	1.228467	-0.394841	0.833227
H74	H	1.195347	-0.405928	0.885383
H75	H	1.290189	-0.396309	0.846490
H76	H	1.215294	-0.431095	0.788639
H77	H	0.986968	-0.543170	0.271250
O78	O	0.624114	-0.188115	0.394370
C79	C	0.702220	-0.188796	0.394176
H80	H	0.722662	-0.238963	0.402332
H81	H	0.723777	-0.157946	0.441095
H82	H	0.723379	-0.170029	0.338947
H83	H	0.619869	-0.381124	0.448952
H84	H	1.159388	-0.943819	0.443768
O85	O	1.173188	-0.218945	0.908187
C86	C	1.244477	-0.235399	0.882850
H87	H	1.245849	-0.287630	0.869055
H88	H	1.286947	-0.224830	0.927908
H89	H	1.258279	-0.207042	0.831100
H90	H	1.039801	-0.197379	0.811475
H91	H	0.987031	-0.662442	0.271274
H92	H	0.619981	-0.331705	0.232443
O93	O	1.109530	-0.418704	0.908540
C94	C	1.051171	-0.441996	0.952590
H95	H	1.016639	-0.401111	0.974256
H96	H	1.075001	-0.469416	1.001297
H97	H	1.014682	-0.474294	0.917838
H98	H	1.159431	-1.063083	0.443798
O99	O	0.523040	-0.418833	0.320901
C100	C	0.548154	-0.463069	0.373281
H101	H	0.600153	-0.444441	0.401617
H102	H	0.561461	-0.509180	0.344072
H103	H	0.503157	-0.471357	0.416508
O104	O	0.979709	-1.068516	0.263983
C105	C	0.931719	-1.106534	0.306246
H106	H	0.957882	-1.116340	0.362543
H107	H	0.921799	-1.152784	0.275999
H108	H	0.876670	-1.081222	0.314369
O109	O	0.973657	-0.387924	0.807378
C110	C	0.993021	-0.448396	0.832558
H111	H	1.054624	-0.449594	0.846397
H112	H	0.980598	-0.484318	0.787387
H113	H	0.959500	-0.460175	0.884248
H114	H	0.948238	-0.274925	0.904300
H115	H	0.527103	-0.275226	0.482625
H116	H	1.159210	-0.542979	0.443686
O117	O	1.166675	-0.667343	0.451285
C118	C	1.150376	-0.651266	0.525291
H119	H	1.121815	-0.603546	0.526808
H120	H	1.203950	-0.648979	0.558629
H121	H	1.112186	-0.688273	0.550280
