data_functionalizedCrystal
_audit_creation_method	'MofGen! by Chris Wilmer'
_symmetry_space_group_name_H-M	'P1'
_symmetry_Int_Tables_number	1
_symmetry_cell_setting	triclinic
loop_
_symmetry_equiv_pos_as_xyz
  x,y,z
_cell_length_a	15.995350
_cell_length_b	14.519709
_cell_length_c	12.996460
_cell_angle_alpha	89.992910
_cell_angle_beta	89.998063
_cell_angle_gamma	83.586260
loop_
_atom_site_label
_atom_site_type_symbol
_atom_site_fract_x
_atom_site_fract_y
_atom_site_fract_z
O1	O	1.111165	0.118875	-0.085482
O2	O	1.611165	0.618875	0.414518
O3	O	0.867411	0.133554	-0.085503
O4	O	1.367411	0.633554	0.414497
O5	O	0.995751	-0.008036	-0.085483
O6	O	1.495751	0.491964	0.414517
O7	O	0.982825	0.260465	-0.085502
O8	O	1.482825	0.760465	0.414498
O9	O	0.995737	-0.008044	0.085651
O10	O	1.495737	0.491956	0.585651
O11	O	0.867398	0.133546	0.085630
O12	O	1.367398	0.633546	0.585630
O13	O	1.111151	0.118867	0.085652
O14	O	1.611151	0.618867	0.585652
Cu15	Cu	0.989273	0.126206	0.101267
Cu16	Cu	1.489273	0.626206	0.601267
Cu17	Cu	0.989289	0.126215	-0.101118
Cu18	Cu	1.489289	0.626215	0.398882
O19	O	0.982812	0.260457	0.085631
O20	O	1.482812	0.760457	0.585631
C21	C	0.995142	-0.042398	0.000084
C22	C	1.495142	0.457602	0.500084
C23	C	0.993337	-0.144776	0.000085
C24	C	1.493337	0.355224	0.500085
C25	C	0.836209	0.132943	0.000061
C26	C	1.336209	0.632943	0.500061
C27	C	0.743256	0.131124	0.000053
C28	C	1.243256	0.631124	0.500053
C29	C	0.986691	-0.519660	0.000057
C30	C	1.486691	-0.019660	0.500057
C31	C	0.988537	-0.415355	0.000065
C32	C	1.488537	0.084645	0.500065
C33	C	0.990014	-0.332221	0.000072
C34	C	1.490014	0.167779	0.500072
C35	C	0.991859	-0.227910	0.000078
C36	C	1.491859	0.272090	0.500078
C37	C	0.405499	0.124590	0.000075
C38	C	0.905499	0.624590	0.500075
C39	C	0.452782	0.023752	0.000464
C40	C	0.952782	0.523752	0.500464
C41	C	0.549475	0.025572	0.000071
C42	C	1.049475	0.525572	0.500071
C43	C	0.573064	0.127831	0.000065
C44	C	1.073064	0.627831	0.500065
C45	C	0.532059	0.177572	-0.097661
C46	C	1.032059	0.677572	0.402339
C47	C	0.435419	0.175039	-0.097735
C48	C	0.935419	0.675039	0.402265
C49	C	0.435068	0.177113	0.096876
C50	C	0.935068	0.677113	0.596876
C51	C	0.532014	0.177089	0.098160
C52	C	1.032014	0.677089	0.598160
C53	C	0.667764	0.129668	0.000055
C54	C	1.167764	0.629668	0.500055
C55	C	0.310798	0.122756	0.000077
C56	C	0.810798	0.622756	0.500077
C57	C	1.142354	0.119478	0.000085
C58	C	1.642354	0.619478	0.500085
C59	C	1.235307	0.121297	0.000087
C60	C	1.735307	0.621297	0.500087
C61	C	0.983421	0.294819	0.000062
C62	C	1.483421	0.794819	0.500062
C63	C	0.985226	0.397197	0.000055
C64	C	1.485226	0.897197	0.500055
N65	N	0.989268	0.126199	0.243614
N66	N	1.489268	0.626199	0.743614
N67	N	0.989301	0.126215	-0.243466
N68	N	1.489301	0.626215	0.256534
C69	C	0.989288	0.126216	0.663428
C70	C	1.489288	0.626216	1.163428
C71	C	0.989280	0.126214	0.546623
C72	C	1.489280	0.626214	1.046623
C73	C	0.989279	0.126208	0.453525
C74	C	1.489279	0.626208	0.953525
C75	C	0.989270	0.126205	0.336712
C76	C	1.489270	0.626205	0.836712
H77	H	0.577839	-0.013527	0.070125
H78	H	1.077839	0.486473	0.570125
H79	H	0.547490	0.251660	0.104058
H80	H	1.047490	0.751660	0.604058
H81	H	0.577279	-0.013784	-0.070099
H82	H	1.077279	0.486216	0.429901
C83	C	0.426226	-0.030455	-0.093673
C84	C	0.926226	0.469545	0.406327
N85	N	0.406220	-0.071282	-0.164577
N86	N	0.906220	0.428718	0.335423
H87	H	0.560387	0.143031	-0.170385
H88	H	1.060387	0.643031	0.329615
H89	H	0.417062	0.138772	-0.170783
H90	H	0.917062	0.638772	0.329217
C91	C	0.551297	0.279065	-0.102583
C92	C	1.051297	0.779065	0.397417
N93	N	0.565790	0.355509	-0.106290
N94	N	1.065790	0.855509	0.393710
C95	C	0.392001	0.275052	-0.103755
C96	C	0.892001	0.775052	0.396245
N97	N	0.359303	0.350380	-0.108299
N98	N	0.859303	0.850380	0.391701
H99	H	0.414478	0.144144	0.170949
H100	H	0.914478	0.644144	0.670949
C101	C	0.392308	0.277551	0.097766
C102	C	0.892308	0.777551	0.597766
N103	N	0.360095	0.353197	0.098429
N104	N	0.860095	0.853197	0.598429
C105	C	0.427661	-0.030707	0.095141
C106	C	0.927661	0.469293	0.595141
N107	N	0.408734	-0.071727	0.166453
N108	N	0.908734	0.428273	0.666453
C109	C	0.568804	0.128008	0.195831
C110	C	1.068804	0.628008	0.695831
N111	N	0.596513	0.091031	0.269396
N112	N	1.096513	0.591031	0.769396
