data_functionalizedCrystal
_audit_creation_method	'MofGen! by Chris Wilmer'
_symmetry_space_group_name_H-M	'P1'
_symmetry_Int_Tables_number	1
_symmetry_cell_setting	triclinic
loop_
_symmetry_equiv_pos_as_xyz
  x,y,z
_cell_length_a	8.559649
_cell_length_b	27.732048
_cell_length_c	7.088929
_cell_angle_alpha	83.823277
_cell_angle_beta	95.325015
_cell_angle_gamma	76.210660
loop_
_atom_site_label
_atom_site_type_symbol
_atom_site_fract_x
_atom_site_fract_y
_atom_site_fract_z
O1	O	2.103996	-0.010831	-0.158953
O2	O	1.638173	0.014155	-0.158972
O3	O	1.885556	-0.069240	-0.158925
O4	O	1.856614	0.072564	-0.158999
O5	O	1.918617	-0.080408	0.159056
O6	O	1.671234	0.002988	0.159009
O7	O	2.137057	-0.021999	0.159029
Cu8	Cu	1.907164	-0.010525	0.188053
Cu9	Cu	1.868066	0.002682	-0.187997
O10	O	1.889674	0.061397	0.158982
C11	C	1.595127	0.010465	0.000017
C12	C	1.417607	0.016101	0.000011
C13	C	1.901480	-0.092810	0.000071
C14	C	1.899652	-0.146402	0.000086
C15	C	2.034313	-0.489909	-0.000006
C16	C	2.027524	-0.691331	-0.000033
O17	O	2.150662	-0.726877	-0.000112
N18	N	1.880839	-0.705340	-0.000038
C19	C	1.735839	-0.668990	-0.000048
O20	O	1.610917	-0.685527	-0.000072
C21	C	1.742628	-0.467569	-0.000034
C22	C	1.889325	-0.453563	-0.000011
C23	C	2.180997	-0.475902	0.000015
C24	C	2.182694	-0.425550	0.000032
C25	C	2.037706	-0.389204	0.000028
C26	C	1.891021	-0.403211	0.000006
C27	C	1.597629	-0.431219	-0.000058
C28	C	1.599338	-0.380861	-0.000060
C29	C	1.746035	-0.366856	-0.000036
C30	C	1.747730	-0.316513	0.000019
N31	N	1.894415	-0.302503	0.000023
C32	C	2.039403	-0.338849	0.000028
C33	C	1.732286	-0.774740	-0.000051
C34	C	1.730588	-0.825096	-0.000051
C35	C	2.022274	-0.847433	-0.000040
C36	C	2.023971	-0.797077	-0.000026
C37	C	1.878971	-0.760731	-0.000047
C38	C	2.042956	-0.233105	0.000066
C39	C	2.044640	-0.182747	0.000091
C40	C	1.752955	-0.160414	0.000070
C41	C	1.751270	-0.210768	0.000055
C42	C	1.896283	-0.247112	0.000046
O43	O	1.624656	-0.280940	0.000076
O44	O	2.164303	-0.322300	0.000009
C45	C	2.032616	-0.540261	-0.000023
C46	C	1.885931	-0.554268	-0.000045
C47	C	1.740943	-0.517922	-0.000049
C48	C	1.884234	-0.604623	-0.000045
C49	C	2.029222	-0.640968	-0.000041
C50	C	2.175907	-0.626959	-0.000036
C51	C	2.177604	-0.576607	-0.000019
C52	C	1.594258	-0.531932	-0.000054
C53	C	1.592574	-0.582285	-0.000069
C54	C	1.737562	-0.618630	-0.000064
C55	C	2.180103	-0.018308	0.000036
C56	C	2.357622	-0.023944	0.000029
C57	C	1.873750	0.084967	-0.000018
C58	C	1.875576	0.138559	-0.000046
N59	N	1.934676	-0.019815	0.452546
N60	N	1.840568	0.011967	-0.452490
H61	H	1.442073	-0.062541	0.000040
H62	H	2.297060	-0.565209	-0.000000
O63	O	1.591556	-0.739400	0.000196
C64	C	1.600907	-0.715401	0.164905
H65	H	1.733491	-0.719480	0.219811
H66	H	1.536507	-0.673963	0.127866
H67	H	1.540287	-0.733354	0.280223
H68	H	1.333145	0.054701	-0.000020
O69	O	2.321773	-0.511259	0.000277
C70	C	2.346673	-0.546837	0.164991
H71	H	2.225505	-0.546619	0.219880
H72	H	2.403380	-0.585671	0.127964
H73	H	2.431268	-0.536989	0.280317
H74	H	2.032225	-0.052749	0.534221
O75	O	1.453542	-0.496592	0.000203
C76	C	1.462898	-0.472599	0.164924
H77	H	1.595483	-0.476679	0.219831
H78	H	1.398500	-0.431160	0.127901
H79	H	1.402278	-0.490554	0.280236
H80	H	1.743036	0.044902	0.465846
O81	O	2.166601	-0.783556	-0.000107
C82	C	2.294201	-0.826441	-0.000050
H83	H	2.243962	-0.856943	-0.060241
H84	H	2.387094	-0.816463	-0.092371
H85	H	2.354726	-0.840592	0.152504
H86	H	1.473108	-0.593682	-0.000071
O87	O	2.187154	-0.169156	-0.000233
C88	C	2.258352	-0.182476	-0.164896
H89	H	2.160580	-0.185733	-0.280008
H90	H	2.319880	-0.152485	-0.220164
H91	H	2.352166	-0.219981	-0.127670
O92	O	2.183742	-0.268460	0.000321
C93	C	2.208640	-0.304040	0.165025
H94	H	2.087471	-0.303823	0.219912
H95	H	2.265344	-0.342873	0.127988
H96	H	2.293235	-0.294196	0.280358
H97	H	2.302149	-0.414152	0.000044
H98	H	1.478171	-0.442612	-0.000089
O99	O	1.608624	-0.224288	-0.000046
C100	C	1.481025	-0.181410	0.000009
H101	H	1.518742	-0.146672	-0.060154
H102	H	1.368940	-0.184895	-0.092338
H103	H	1.452213	-0.177989	0.152559
O104	O	2.162961	-0.882804	-0.000137
C105	C	2.129991	-0.930250	-0.000097
H106	H	1.998153	-0.925405	-0.060277
H107	H	2.212861	-0.953276	-0.092438
H108	H	2.152301	-0.950437	0.152450
O109	O	1.588163	-0.838750	-0.000310
C110	C	1.561304	-0.861406	-0.165025
H111	H	1.681964	-0.876722	-0.219917
H112	H	1.502220	-0.893387	-0.127998
H113	H	1.478012	-0.832430	-0.280349
O114	O	1.458489	-0.345525	-0.000413
C115	C	1.433641	-0.309930	-0.165066
H116	H	1.503931	-0.327394	-0.280168
H117	H	1.298927	-0.297538	-0.220360
H118	H	1.477971	-0.276076	-0.127818
O119	O	1.612257	-0.125037	-0.000022
C120	C	1.645234	-0.077593	0.000036
H121	H	1.764554	-0.078205	-0.060142
H122	H	1.543156	-0.048073	-0.092297
H123	H	1.654657	-0.068137	0.152588
H124	H	2.293963	-0.656561	-0.000024
