data_functionalizedCrystal
_audit_creation_method	'MofGen! by Chris Wilmer'
_symmetry_space_group_name_H-M	'P1'
_symmetry_Int_Tables_number	1
_symmetry_cell_setting	triclinic
loop_
_symmetry_equiv_pos_as_xyz
  x,y,z
_cell_length_a	9.065215
_cell_length_b	23.532407
_cell_length_c	8.140239
_cell_angle_alpha	89.991844
_cell_angle_beta	89.997810
_cell_angle_gamma	83.931687
loop_
_atom_site_label
_atom_site_type_symbol
_atom_site_fract_x
_atom_site_fract_y
_atom_site_fract_z
O1	O	1.956286	0.083489	-0.136614
O2	O	1.526663	0.090340	-0.136623
O3	O	1.754430	0.004078	-0.136588
O4	O	1.728519	0.169751	-0.136649
O5	O	1.754418	0.004077	0.136639
O6	O	1.526651	0.090339	0.136604
O7	O	1.956274	0.083488	0.136613
Zn8	Zn	1.741460	0.086914	0.179989
Zn9	Zn	1.741477	0.086915	-0.179999
O10	O	1.728507	0.169750	0.136578
C11	C	1.471703	0.089682	-0.000010
C12	C	1.307957	0.087714	-0.000012
C13	C	1.753764	-0.017143	0.000029
C14	C	1.751780	-0.080375	0.000042
C15	C	1.874125	-0.478580	-0.000045
C16	C	1.872282	-0.537994	-0.000058
O17	O	1.985698	-0.573906	-0.000116
N18	N	1.736875	-0.561614	-0.000060
C19	C	1.603302	-0.525816	-0.000065
O20	O	1.487958	-0.551362	-0.000070
C21	C	1.605146	-0.466404	-0.000065
C22	C	1.740562	-0.442787	-0.000046
C23	C	2.009530	-0.454963	-0.000029
C24	C	2.011373	-0.395554	-0.000013
C25	C	1.877810	-0.359761	-0.000014
C26	C	1.742405	-0.383378	-0.000031
C27	C	1.471575	-0.430607	-0.000082
C28	C	1.473431	-0.371191	-0.000083
C29	C	1.608847	-0.347575	-0.000064
C30	C	1.610684	-0.288175	-0.000016
N31	N	1.746091	-0.264555	-0.000014
C32	C	1.879654	-0.300348	-0.000014
C33	C	1.599439	-0.650587	-0.000070
C34	C	1.597593	-0.709999	-0.000059
C35	C	1.866574	-0.722172	-0.000054
C36	C	1.868419	-0.662760	-0.000054
C37	C	1.734846	-0.626967	-0.000068
C38	C	1.883513	-0.175583	0.000021
C39	C	1.885343	-0.116168	0.000043
C40	C	1.616363	-0.103999	0.000030
C41	C	1.614532	-0.163410	0.000016
C42	C	1.748119	-0.199201	0.000006
O43	O	1.497328	-0.252228	0.000035
O44	O	1.994979	-0.274794	-0.000031
C45	C	2.011234	0.084147	-0.000003
C46	C	2.174980	0.086114	-0.000012
C47	C	1.729173	0.190972	-0.000043
C48	C	1.731157	0.254203	-0.000067
N49	N	1.741460	0.086912	0.425672
N50	N	1.741489	0.086912	-0.425682
H51	H	1.995620	-0.096943	0.000062
O52	O	1.469542	-0.615902	0.000012
C53	C	1.349647	-0.649496	-0.000029
H54	H	1.387776	-0.693634	0.051693
H55	H	1.256112	-0.628082	0.079300
H56	H	1.308101	-0.653937	-0.131110
O57	O	2.013412	-0.210263	0.000090
C58	C	2.133304	-0.176667	0.000067
H59	H	2.095166	-0.132536	0.051798
H60	H	2.226832	-0.198091	0.079399
H61	H	2.174863	-0.172209	-0.131008
H62	H	1.978686	-0.643536	-0.000040
O63	O	1.486667	-0.069200	-0.000267
C64	C	1.479739	-0.034452	-0.141752
H65	H	1.555509	-0.055812	-0.240646
H66	H	1.360821	-0.028383	-0.189271
H67	H	1.517283	0.008935	-0.109751
H68	H	1.361305	-0.449825	-0.000107
H69	H	2.121642	-0.376331	-0.000005
H70	H	1.487324	-0.729221	-0.000045
H71	H	1.504265	-0.182639	0.000047
O72	O	2.139382	-0.489668	-0.000241
C73	C	2.221643	-0.478852	-0.141759
H74	H	2.184719	-0.433985	-0.188948
H75	H	2.344733	-0.482378	-0.109916
H76	H	2.201997	-0.511447	-0.240846
H77	H	1.975328	-0.751326	-0.000060
O78	O	1.343578	-0.336481	-0.000313
C79	C	1.261345	-0.347278	-0.141852
H80	H	1.298260	-0.392143	-0.189034
H81	H	1.138247	-0.343746	-0.110039
H82	H	1.281031	-0.314676	-0.240931
