data_functionalizedCrystal
_audit_creation_method	'MofGen! by Chris Wilmer'
_symmetry_space_group_name_H-M	'P1'
_symmetry_Int_Tables_number	1
_symmetry_cell_setting	triclinic
loop_
_symmetry_equiv_pos_as_xyz
  x,y,z
_cell_length_a	14.908571
_cell_length_b	18.101396
_cell_length_c	14.908308
_cell_angle_alpha	86.733394
_cell_angle_beta	90.175053
_cell_angle_gamma	93.266780
loop_
_atom_site_label
_atom_site_type_symbol
_atom_site_fract_x
_atom_site_fract_y
_atom_site_fract_z
Zn1	Zn	1.345159	0.386466	-0.587577
Zn2	Zn	1.353698	0.503601	-0.437216
Zn3	Zn	1.203480	0.372242	-0.428575
Zn4	Zn	1.194727	0.502721	-0.578868
O5	O	1.274266	0.441257	-0.508059
O6	O	1.472116	0.408325	-0.574893
O7	O	1.341008	0.480591	-0.310245
O8	O	1.222363	0.270501	-0.449696
O9	O	1.478389	0.494384	-0.464423
O10	O	1.326455	0.280952	-0.566514
O11	O	1.230643	0.384082	-0.303897
O12	O	1.076495	0.383229	-0.441251
O13	O	1.207445	0.492884	-0.705848
O14	O	1.070064	0.479092	-0.551670
O15	O	1.317967	0.407472	-0.712247
O16	O	1.332521	0.607111	-0.455978
O17	O	1.215725	0.606465	-0.560049
C18	C	1.040655	0.429522	-0.494578
C19	C	0.940713	0.424520	-0.488832
C20	C	1.274123	0.633660	-0.508027
C21	C	1.274142	0.715976	-0.508048
C22	C	0.746274	0.515083	-0.592860
C23	C	0.652370	0.510386	-0.587465
C24	C	0.659000	0.410426	-0.472651
C25	C	0.752904	0.415123	-0.478046
C26	C	0.796537	0.467454	-0.538152
C27	C	0.890443	0.472154	-0.543543
C28	C	0.897071	0.372191	-0.428734
C29	C	0.803167	0.367494	-0.423338
C30	C	1.274299	1.015077	-0.508110
C31	C	1.200969	0.983392	-0.573770
C32	C	1.200663	0.897748	-0.573533
C33	C	1.274221	0.866689	-0.508080
C34	C	1.254035	0.892327	-0.411841
C35	C	1.253553	0.977968	-0.412233
C36	C	1.368019	0.989276	-0.537863
C37	C	1.367351	0.903690	-0.539908
C38	C	1.274179	0.782827	-0.508057
C39	C	1.274339	1.098939	-0.508126
C40	C	1.508790	0.453039	-0.521593
C41	C	1.608730	0.458060	-0.527361
C42	C	1.260777	0.451667	-0.742584
C43	C	1.255029	0.456103	-0.842525
C44	C	1.274401	1.248105	-0.508114
C45	C	1.274378	1.165791	-0.508142
C46	C	1.359312	0.375481	-1.036989
C47	C	1.353914	0.379646	-1.130892
C48	C	1.238831	0.468594	-1.124236
C49	C	1.244229	0.464429	-1.030333
C50	C	1.304473	0.417871	-0.986713
C51	C	1.309875	0.413710	-0.892808
C52	C	1.194788	0.502654	-0.886154
C53	C	1.189389	0.506819	-0.980057
C54	C	1.287754	0.430838	-0.274449
C55	C	1.293676	0.426202	-0.174519
H56	H	0.925968	0.514766	-0.592483
C57	C	1.424697	0.325013	-0.989459
C58	C	1.417702	0.330453	-0.896463
C59	C	1.477931	0.283981	-0.852652
H60	H	1.410764	0.275245	-1.003994
H61	H	1.484237	0.339577	-1.008280
H62	H	1.358175	0.315884	-0.877649
H63	H	1.431643	0.380209	-0.881902
H64	H	1.537472	0.298545	-0.871473
H65	H	1.463994	0.234216	-0.867194
H66	H	1.473200	0.287671	-0.789550
C67	C	1.413564	0.333593	-1.185322
C68	C	1.467490	0.291945	-1.127019
C69	C	1.522461	0.249517	-1.177128
H70	H	1.377190	0.301166	-1.219987
H71	H	1.450663	0.365498	-1.224190
H72	H	1.430395	0.260044	-1.088167
H73	H	1.503883	0.324353	-1.092353
H74	H	1.559560	0.281421	-1.215995
H75	H	1.486079	0.217094	-1.211791
H76	H	1.559062	0.221259	-1.137577
C77	C	0.793487	0.571923	-0.658201
C78	C	0.729367	0.612621	-0.704971
C79	C	0.772824	0.664982	-0.765180
H80	H	0.832072	0.604517	-0.625941
H81	H	0.827865	0.547235	-0.699591
H82	H	0.695004	0.637308	-0.663587
H83	H	0.690778	0.580047	-0.737249
H84	H	0.807202	0.640294	-0.806570
H85	H	0.811408	0.697571	-0.732913
H86	H	0.729326	0.692597	-0.796927
C87	C	1.216785	1.015908	-0.669037
C88	C	1.230421	0.958680	-0.725979
C89	C	1.245008	0.988613	-0.813745
H90	H	1.165894	1.041617	-0.688805
H91	H	1.268335	1.049317	-0.670180
H92	H	1.178876	0.925284	-0.724840
H93	H	1.281313	0.932966	-0.706241
H94	H	1.296559	1.022022	-0.814888
H95	H	1.194115	1.014322	-0.833503
H96	H	1.254270	0.949790	-0.852389
H97	H	1.185207	0.993605	-0.387665
H98	H	0.938006	0.333410	-0.384184
H99	H	0.611449	0.549169	-0.632016
H100	H	1.212659	0.880624	-0.644722
C101	C	1.173502	0.519109	-1.171773
C102	C	1.180522	0.513686	-1.264770
C103	C	1.120358	0.560211	-1.308589
H104	H	1.113944	0.504597	-1.153000
H105	H	1.187498	0.568867	-1.157196
H106	H	1.166520	0.463939	-1.279340
H107	H	1.240067	0.528203	-1.283568
H108	H	1.134354	0.609969	-1.294012
H109	H	1.060804	0.545695	-1.289809
H110	H	1.125119	0.556543	-1.371692
H111	H	1.186452	0.866557	-0.386947
H112	H	1.306011	0.872032	-0.361346
H113	H	0.623456	0.367816	-0.423721
C114	C	1.124046	0.557484	-1.027310
C115	C	1.144871	0.630720	-1.005565
C116	C	1.084690	0.677414	-1.049067
H117	H	1.128626	0.553992	-1.090447
H118	H	1.064512	0.542978	-1.008418
H119	H	1.204391	0.645222	-1.024463
H120	H	1.140285	0.634236	-0.942436
H121	H	1.025156	0.662908	-1.030174
H122	H	1.089275	0.673915	-1.112201
H123	H	1.098806	0.727108	-1.034312
H124	H	1.131808	1.000755	-0.553857
C125	C	1.322075	1.005488	-0.344301
C126	C	1.363727	0.945002	-0.303089
C127	C	1.426838	0.970320	-0.240493
H128	H	1.366049	1.038075	-0.374046
H129	H	1.292650	1.031096	-0.300036
H130	H	1.393152	0.919406	-0.347347
H131	H	1.319777	0.912409	-0.273325
H132	H	1.397413	0.995928	-0.196228
H133	H	1.470806	1.002907	-0.270246
H134	H	1.455101	0.929285	-0.212517
H135	H	1.387484	1.015026	-0.607133
C136	C	0.755625	0.310752	-0.358111
C137	C	0.662629	0.316841	-0.365081
C138	C	0.618808	0.264588	-0.304998
H139	H	0.770182	0.262333	-0.372194
H140	H	0.774415	0.319606	-0.298535
H141	H	0.643846	0.307981	-0.424643
H142	H	0.648046	0.365249	-0.350989
H143	H	0.637598	0.273442	-0.245422
H144	H	0.633372	0.216172	-0.319087
H145	H	0.555707	0.268717	-0.309713
C146	C	1.107855	0.864976	-0.546605
C147	C	1.051837	0.922301	-0.530488
C148	C	0.966337	0.892140	-0.505663
H149	H	1.083349	0.836913	-0.593694
H150	H	1.112363	0.833702	-0.493594
H151	H	1.047326	0.953562	-0.583493
H152	H	1.076315	0.950369	-0.483395
H153	H	0.970845	0.860866	-0.452651
H154	H	0.941840	0.864076	-0.552755
H155	H	0.928321	0.931029	-0.494716
H156	H	1.382672	0.887408	-0.610762
C157	C	1.135287	0.548597	-0.831407
C158	C	1.152892	0.534975	-0.739832
C159	C	1.098094	0.577278	-0.689373
H160	H	1.147472	0.599717	-0.847436
H161	H	1.073980	0.535400	-0.843258
H162	H	1.214185	0.548176	-0.727987
H163	H	1.140702	0.483863	-0.723776
H164	H	1.036787	0.564081	-0.701224
H165	H	1.110284	0.628396	-0.705409
H166	H	1.110026	0.568036	-0.627234
H167	H	1.424442	0.882907	-0.496007
H168	H	1.422586	1.009853	-0.490107
H169	H	1.358929	0.375802	-0.857294
