data_functionalizedCrystal
_audit_creation_method	'MofGen! by Chris Wilmer'
_symmetry_space_group_name_H-M	'P1'
_symmetry_Int_Tables_number	1
_symmetry_cell_setting	triclinic
loop_
_symmetry_equiv_pos_as_xyz
  x,y,z
_cell_length_a	21.395364
_cell_length_b	14.908506
_cell_length_c	21.395355
_cell_angle_alpha	93.281598
_cell_angle_beta	89.975448
_cell_angle_gamma	93.334836
loop_
_atom_site_label
_atom_site_type_symbol
_atom_site_fract_x
_atom_site_fract_y
_atom_site_fract_z
Zn1	Zn	0.943516	-0.358914	-0.368652
Zn2	Zn	0.937390	-0.509759	-0.269923
Zn3	Zn	0.838729	-0.358954	-0.263890
Zn4	Zn	0.832671	-0.509775	-0.374664
O5	O	0.888076	-0.434350	-0.319282
O6	O	1.030382	-0.378901	-0.355564
O7	O	0.924274	-0.489764	-0.181445
O8	O	0.857728	-0.232700	-0.272747
O9	O	1.025881	-0.489726	-0.283028
O10	O	0.934715	-0.232671	-0.349715
O11	O	0.851788	-0.378968	-0.177013
O12	O	0.750247	-0.378984	-0.278576
O13	O	0.847403	-0.489753	-0.461544
O14	O	0.745796	-0.489792	-0.359961
O15	O	0.928840	-0.378916	-0.457127
O16	O	0.918400	-0.636010	-0.288857
O17	O	0.841463	-0.636021	-0.365810
C18	C	0.725287	-0.434394	-0.319266
C19	C	0.655644	-0.434435	-0.319275
C20	C	0.625293	-0.376823	-0.357111
C21	C	0.559859	-0.376799	-0.357112
C22	C	0.524777	-0.434403	-0.319286
C23	C	0.555136	-0.492019	-0.281443
C24	C	0.620569	-0.492035	-0.281438
C25	C	0.417806	-0.515650	-0.317506
C26	C	0.352374	-0.515635	-0.317515
C27	C	0.322958	-0.434353	-0.319297
C28	C	0.358984	-0.353083	-0.321083
C29	C	0.424417	-0.353099	-0.321078
C30	C	0.453825	-0.434392	-0.319287
C31	C	0.221656	-0.376710	-0.357136
C32	C	0.156220	-0.376685	-0.357133
C33	C	0.151499	-0.491913	-0.281467
C34	C	0.216933	-0.491931	-0.281467
C35	C	0.252008	-0.434331	-0.319305
C36	C	0.878626	-0.668750	-0.328654
C37	C	0.874641	-0.769028	-0.332685
C38	C	0.828936	-0.910403	-0.378392
C39	C	0.832679	-0.816183	-0.374610
C40	C	0.912863	-0.816098	-0.294540
C41	C	0.909120	-0.910317	-0.298323
C42	C	0.867154	-0.957466	-0.340249
C43	C	0.863408	-1.051688	-0.344028
C44	C	0.943595	-1.051601	-0.263962
C45	C	0.947339	-0.957381	-0.260180
C46	C	1.051501	-0.434307	-0.319299
C47	C	1.121143	-0.434289	-0.319306
C48	C	0.888129	-0.434332	-0.482705
C49	C	0.888152	-0.434324	-0.552346
C50	C	0.897581	-0.199035	-0.309887
C51	C	0.901631	-0.098758	-0.305884
C52	C	0.930554	-0.376609	-0.582760
C53	C	0.930555	-0.376570	-0.648194
C54	C	0.888159	-0.434263	-0.683212
C55	C	0.845748	-0.491982	-0.652790
C56	C	0.845745	-0.492013	-0.587357
C57	C	0.879937	-0.515498	-0.790134
C58	C	0.879945	-0.515469	-0.855566
C59	C	0.888167	-0.434168	-0.885029
C60	C	0.896394	-0.352893	-0.849051
C61	C	0.896390	-0.352924	-0.783618
C62	C	0.888158	-0.434236	-0.754163
C63	C	0.930573	-0.376405	-0.986394
C64	C	0.930569	-0.376365	-1.051829
C65	C	0.845765	-0.491785	-1.056424
C66	C	0.845766	-0.491817	-0.990990
C67	C	0.888173	-0.434129	-0.955979
C68	C	0.888063	-0.434304	-0.156493
C69	C	0.888172	-0.434057	-0.086842
H70	H	0.653847	-0.329919	-0.387921
H71	H	0.974716	-1.089930	-0.232903
C72	C	0.653956	-0.555420	-0.239817
N73	N	0.679104	-0.603165	-0.208469
H74	H	0.801559	-0.777866	-0.405670
H75	H	0.794766	-0.948792	-0.412532
H76	H	0.811227	-0.538953	-0.681305
C77	C	0.959024	-0.764218	-0.248426
N78	N	0.993792	-0.725141	-0.213692
H79	H	0.981508	-0.918982	-0.226045
C80	C	0.977207	-0.313082	-0.681657
N81	N	1.012347	-0.265265	-0.706860
C82	C	0.977196	-0.313138	-0.544251
N83	N	1.012324	-0.265327	-0.515245
C84	C	0.799129	-0.555249	-1.094939
N85	N	0.764001	-0.603051	-1.123953
C86	C	0.799098	-0.555509	-0.553900
N87	N	0.763963	-0.603337	-0.528700
C88	C	0.905432	-0.263523	-0.744046
N89	N	0.912238	-0.196185	-0.714240
C90	C	0.516545	-0.555385	-0.239834
N91	N	0.487478	-0.603112	-0.208491
C92	C	0.526465	-0.313424	-0.398739
N93	N	0.501315	-0.265692	-0.430095
C94	C	0.905438	-0.263454	-0.881455
N95	N	0.912250	-0.196091	-0.905864
C96	C	0.977215	-0.312939	-0.947879
N97	N	1.012346	-0.265135	-0.918872
C98	C	0.312752	-0.605032	-0.315543
N99	N	0.282910	-0.672368	-0.314054
H100	H	0.250216	-0.329803	-0.387942
C101	C	0.977217	-0.312868	-1.085284
N102	N	1.012353	-0.265043	-1.110483
C103	C	0.122835	-0.313302	-0.398757
N104	N	0.097688	-0.265562	-0.430109
C105	C	0.799121	-0.555313	-0.957533
N106	N	0.763985	-0.603139	-0.932333
H107	H	0.241645	-0.538849	-0.250660
C108	C	0.870894	-0.604871	-0.895135
N109	N	0.864075	-0.672212	-0.924937
H110	H	0.453747	-0.286927	-0.322531
C111	C	0.326633	-0.263665	-0.323038
N112	N	0.302263	-0.196318	-0.324510
H113	H	0.873074	-0.581686	-0.766151
H114	H	0.122936	-0.538816	-0.250668
H115	H	0.441750	-0.581844	-0.316054
H116	H	0.829239	-1.090075	-0.378169
