data_functionalizedCrystal
_audit_creation_method	'MofGen! by Chris Wilmer'
_symmetry_space_group_name_H-M	'P1'
_symmetry_Int_Tables_number	1
_symmetry_cell_setting	triclinic
loop_
_symmetry_equiv_pos_as_xyz
  x,y,z
_cell_length_a	17.019282
_cell_length_b	17.038272
_cell_length_c	11.295483
_cell_angle_alpha	94.391706
_cell_angle_beta	89.768720
_cell_angle_gamma	87.241387
loop_
_atom_site_label
_atom_site_type_symbol
_atom_site_fract_x
_atom_site_fract_y
_atom_site_fract_z
O1	O	1.052911	0.100024	0.008983
O2	O	1.552911	0.600024	0.508983
O3	O	0.825269	0.111494	-0.014371
O4	O	1.325269	0.611494	0.485629
O5	O	0.937737	-0.008062	-0.002823
O6	O	1.437737	0.491938	0.497177
O7	O	0.940443	0.219580	-0.002565
O8	O	1.440443	0.719580	0.497435
O9	O	0.927857	0.002422	0.194213
O10	O	1.427857	0.502422	0.694213
O11	O	0.815389	0.121978	0.182665
O12	O	1.315389	0.621978	0.682665
O13	O	1.043032	0.110509	0.206020
O14	O	1.543032	0.610509	0.706020
Cu15	Cu	0.928309	0.117201	0.212333
Cu16	Cu	1.428309	0.617201	0.712333
Cu17	Cu	0.939992	0.104801	-0.020685
Cu18	Cu	1.439992	0.604801	0.479315
O19	O	0.930564	0.230064	0.194472
O20	O	1.430564	0.730064	0.694472
C21	C	0.791058	0.116096	0.081144
C22	C	1.291058	0.616096	0.581144
C23	C	0.703839	0.114180	0.072196
C24	C	1.203839	0.614180	0.572196
C25	C	0.930336	-0.031959	0.095442
C26	C	1.430336	0.468041	0.595442
C27	C	0.922993	-0.118786	0.094689
C28	C	1.422993	0.381214	0.594689
C29	C	0.657483	0.118993	0.175400
C30	C	1.157483	0.618993	0.675400
C31	C	0.575532	0.117181	0.166996
C32	C	1.075532	0.617181	0.666996
C33	C	0.539939	0.110560	0.055387
C34	C	1.039939	0.610560	0.555387
C35	C	0.586302	0.105744	-0.047824
C36	C	1.086302	0.605744	0.452176
C37	C	0.668251	0.107551	-0.039419
C38	C	1.168251	0.607551	0.460581
C39	C	0.292774	0.104813	0.024636
C40	C	0.792774	0.604813	0.524636
C41	C	0.210818	0.103008	0.016238
C42	C	0.710818	0.603008	0.516238
C43	C	0.200055	0.114443	0.231059
C44	C	0.700055	0.614443	0.731059
C45	C	0.282006	0.116255	0.239455
C46	C	0.782006	0.616255	0.739455
C47	C	0.328362	0.111434	0.136243
C48	C	0.828362	0.611434	0.636243
C49	C	0.456172	0.108710	0.046794
C50	C	0.956172	0.608710	0.546794
C51	C	0.412127	0.113279	0.144837
C52	C	0.912127	0.613279	0.644837
C53	C	0.990407	-0.168593	0.101606
C54	C	1.490407	0.331407	0.601606
C55	C	0.983504	-0.250176	0.100886
C56	C	1.483504	0.249824	0.600886
C57	C	0.909186	-0.281949	0.093258
C58	C	1.409186	0.218051	0.593258
C59	C	0.841767	-0.232135	0.086336
C60	C	1.341767	0.267865	0.586336
C61	C	0.848672	-0.150554	0.087048
C62	C	1.348672	0.349446	0.587048
C63	C	0.884794	-0.527818	0.090739
C64	C	1.384794	-0.027818	0.590739
C65	C	0.877894	-0.609405	0.090032
C66	C	1.377894	-0.109405	0.590032
C67	C	1.019632	-0.627441	0.104580
C68	C	1.519632	-0.127441	0.604580
C69	C	1.026529	-0.545857	0.105298
C70	C	1.526529	-0.045857	0.605298
C71	C	0.959111	-0.496051	0.098370
C72	C	1.459111	0.003949	0.598370
C73	C	0.902128	-0.365339	0.092526
C74	C	1.402128	0.134661	0.592526
C75	C	0.966170	-0.412663	0.099093
C76	C	1.466170	0.087337	0.599093
C77	C	1.077243	0.105906	0.110502
C78	C	1.577243	0.605906	0.610502
C79	C	1.164462	0.107822	0.119442
C80	C	1.664462	0.607822	0.619442
C81	C	0.937965	0.253961	0.096204
C82	C	1.437965	0.753961	0.596204
C83	C	0.945308	0.340787	0.096949
C84	C	1.445308	0.840787	0.596949
N85	N	0.920097	0.125921	0.376227
N86	N	1.420097	0.625921	0.876227
N87	N	0.948210	0.096075	-0.184578
N88	N	1.448210	0.596075	0.315422
C89	C	1.007320	0.033256	0.634472
C90	C	1.507320	0.533256	1.134472
C91	C	1.001121	0.039852	0.758499
C92	C	1.501121	0.539852	1.258499
C93	C	0.901494	0.145704	0.748310
C94	C	1.401494	0.645704	1.248310
C95	C	0.907694	0.139108	0.624283
C96	C	1.407694	0.639108	1.124283
C97	C	0.960609	0.082883	0.567368
C98	C	1.460609	0.582883	1.067368
C99	C	0.966813	0.076292	0.443339
C100	C	1.466813	0.576292	0.943339
C101	C	0.867182	0.182140	0.433152
C102	C	1.367182	0.682140	0.933152
C103	C	0.860983	0.188736	0.557179
C104	C	1.360983	0.688736	1.057179
H105	H	0.686456	0.124391	0.266284
H106	H	1.186456	0.624391	0.766284
F107	F	0.526199	0.122314	0.276840
F108	F	1.026199	0.622314	0.776840
H109	H	0.162303	0.118366	0.315088
H110	H	0.662303	0.618366	0.815088
F111	F	0.804666	0.248570	0.617762
F112	F	1.304666	0.748570	1.117762
F113	F	1.055255	-0.303182	0.108251
F114	F	1.555255	0.196818	0.608251
H115	H	0.310980	0.121642	0.330338
H116	H	0.810980	0.621642	0.830338
F117	F	0.172939	0.095964	-0.102557
F118	F	0.672939	0.595964	0.397443
F119	F	0.342099	0.099683	-0.085212
F120	F	0.842099	0.599683	0.414788
F121	F	1.091377	-0.680453	0.111951
F122	F	1.591377	-0.180453	0.611951
H123	H	1.050412	-0.012520	0.588132
H124	H	1.550412	0.487480	1.088132
F125	F	0.717587	0.102426	-0.149263
F126	F	1.217587	0.602426	0.350737
F127	F	1.050835	-0.012970	0.829912
F128	F	1.550835	0.487030	1.329912
F129	F	0.817471	0.234963	0.361724
F130	F	1.317471	0.734963	0.861724
F131	F	0.418286	0.101637	-0.071985
F132	F	0.918286	0.601637	0.428015
F133	F	0.548420	0.098674	-0.166607
F134	F	1.048420	0.598674	0.333393
F135	F	0.450010	0.120322	0.263616
F136	F	0.950010	0.620322	0.763616
H137	H	0.858405	0.191476	0.794665
H138	H	1.358405	0.691476	1.294665
F139	F	1.069506	-0.134786	0.109737
F140	F	1.569506	0.365214	0.609737
F141	F	1.105630	-0.512050	0.113387
F142	F	1.605630	-0.012050	0.613387
F143	F	0.798791	-0.643217	0.081918
F144	F	1.298791	-0.143217	0.581918
H145	H	0.781256	-0.258011	0.080118
H146	H	1.281256	0.241989	0.580118
F147	F	0.813041	-0.474821	0.083363
F148	F	1.313041	0.025179	0.583363
H149	H	1.026681	-0.386791	0.105278
H150	H	1.526681	0.113209	0.605278
F151	F	0.776921	-0.097545	0.079681
F152	F	1.276921	0.402455	0.579681
F153	F	0.823035	-0.399161	0.084402
F154	F	1.323035	0.100839	0.584402
H155	H	1.009902	0.030513	0.397001
H156	H	1.509902	0.530513	0.897001
