data_functionalizedCrystal
_audit_creation_method	'MofGen! by Chris Wilmer'
_symmetry_space_group_name_H-M	'P1'
_symmetry_Int_Tables_number	1
_symmetry_cell_setting	triclinic
loop_
_symmetry_equiv_pos_as_xyz
  x,y,z
_cell_length_a	12.645331
_cell_length_b	12.645330
_cell_length_c	12.759393
_cell_angle_alpha	89.969952
_cell_angle_beta	89.982788
_cell_angle_gamma	90.018103
loop_
_atom_site_label
_atom_site_type_symbol
_atom_site_fract_x
_atom_site_fract_y
_atom_site_fract_z
Zn1	Zn	1.620723	-0.421965	-0.593956
Zn2	Zn	1.620607	-0.599269	-0.418281
Zn3	Zn	1.443440	-0.422022	-0.418300
Zn4	Zn	1.443419	-0.599188	-0.593927
O5	O	1.532047	-0.510611	-0.506116
O6	O	1.769055	-0.445495	-0.570657
O7	O	1.597066	-0.575814	-0.271263
O8	O	1.467014	-0.273667	-0.441621
O9	O	1.768970	-0.575760	-0.441590
O10	O	1.597263	-0.273625	-0.570675
O11	O	1.466902	-0.445591	-0.271276
O12	O	1.295090	-0.445513	-0.441592
O13	O	1.466979	-0.575622	-0.740952
O14	O	1.295075	-0.575677	-0.570625
O15	O	1.597243	-0.445417	-0.740974
O16	O	1.597045	-0.747606	-0.441561
O17	O	1.466866	-0.747546	-0.570607
C18	C	1.256618	-0.510593	-0.506108
C19	C	1.138787	-0.510610	-0.506129
C20	C	1.093932	-0.592636	-0.587185
C21	C	0.971371	-0.592973	-0.586944
C22	C	0.970835	-0.540459	-0.395273
C23	C	1.093434	-0.541038	-0.395742
C24	C	1.093641	-0.398562	-0.534962
C25	C	0.971036	-0.399181	-0.537403
C26	C	1.531970	-0.786041	-0.506101
C27	C	1.532034	-0.903871	-0.506130
C28	C	1.450476	-1.071442	-0.587563
C29	C	1.450059	-0.948882	-0.587301
C30	C	1.501790	-0.948475	-0.395409
C31	C	1.501292	-1.071074	-0.395904
C32	C	1.644334	-1.070957	-0.534520
C33	C	1.643646	-0.948350	-0.536941
C34	C	1.808552	-0.510630	-0.506125
C35	C	1.926382	-0.510638	-0.506129
C36	C	1.532121	-0.510504	-0.780149
C37	C	1.532153	-0.510459	-0.896926
C38	C	1.532154	-0.234106	-0.506154
C39	C	1.532199	-0.116276	-0.506170
C40	C	1.599991	-0.442654	-0.951801
C41	C	1.600016	-0.442616	-1.061525
C42	C	1.464363	-0.578195	-1.061490
C43	C	1.464333	-0.578227	-0.951767
C44	C	1.678313	-0.364382	-0.951823
C45	C	1.678338	-0.364343	-1.061547
C46	C	1.532034	-0.510641	-0.233149
C47	C	1.532208	-0.510388	-0.116372
H48	H	1.121998	-0.622930	-0.371373
H49	H	1.760442	-0.386332	-1.091324
H50	H	1.123105	-0.483848	-0.333278
H51	H	0.941986	-0.376685	-0.618986
H52	H	1.656352	-0.282284	-0.922065
C53	C	1.783641	-0.404130	-0.905830
C54	C	1.873925	-0.438158	-0.979465
C55	C	1.979252	-0.477909	-0.933470
C56	C	1.994294	-0.483632	-0.813840
C57	C	1.904008	-0.449603	-0.740198
C58	C	1.798681	-0.409852	-0.786193
H59	H	1.862792	-0.433922	-1.068028
H60	H	2.046088	-0.503100	-0.987985
H61	H	2.072264	-0.513058	-0.779792
H62	H	1.915141	-0.453839	-0.651635
H63	H	1.731845	-0.384661	-0.731677
C64	C	1.338865	-1.113176	-0.562524
C65	C	1.278486	-1.179323	-0.644265
C66	C	1.166875	-1.221057	-0.619224
C67	C	1.115643	-1.196643	-0.512442
C68	C	1.176022	-1.130492	-0.430694
C69	C	1.287633	-1.088758	-0.455735
H70	H	1.316410	-1.197399	-0.723318
H71	H	1.122178	-1.270027	-0.679740
H72	H	1.033022	-1.227537	-0.493905
H73	H	1.138097	-1.112416	-0.351641
H74	H	1.332329	-1.039788	-0.395219
C75	C	0.929715	-0.312250	-0.463512
C76	C	0.864740	-0.219482	-0.507849
C77	C	0.823438	-0.132549	-0.433943
C78	C	0.847111	-0.138385	-0.315701
C79	C	0.912089	-0.231156	-0.271358
C80	C	0.953391	-0.318088	-0.345264
H81	H	0.847213	-0.215159	-0.595384
H82	H	0.775337	-0.063874	-0.466769
H83	H	0.816537	-0.074032	-0.260991
H84	H	0.929616	-0.235479	-0.183823
H85	H	1.001492	-0.386764	-0.312438
H86	H	1.558233	-1.100736	-0.333192
C87	C	1.133799	-0.567799	-0.698562
C88	C	1.207576	-0.472733	-0.717282
C89	C	1.247451	-0.447893	-0.828663
C90	C	1.213550	-0.518119	-0.921325
C91	C	1.139769	-0.613190	-0.902608
C92	C	1.099894	-0.638030	-0.791227
H93	H	1.232675	-0.420742	-0.648685
H94	H	1.302068	-0.377514	-0.842517
H95	H	1.243068	-0.499731	-1.003775
H96	H	1.114670	-0.665181	-0.971204
H97	H	1.045276	-0.708409	-0.777372
C98	C	1.389690	-0.652805	-0.891417
C99	C	1.269189	-0.644113	-0.906525
C100	C	1.194537	-0.718692	-0.846181
C101	C	1.240386	-0.801963	-0.770730
C102	C	1.360893	-0.810658	-0.755618
C103	C	1.435545	-0.736079	-0.815962
H104	H	1.235244	-0.582468	-0.962382
H105	H	1.105329	-0.712255	-0.857368
H106	H	1.185124	-0.857171	-0.726060
H107	H	1.394838	-0.872302	-0.699762
H108	H	1.524753	-0.742515	-0.804775
H109	H	1.124709	-0.675193	-0.568288
C110	C	1.579644	-0.909093	-0.311236
C111	C	1.671809	-0.835798	-0.342133
C112	C	1.749664	-0.796414	-0.257961
C113	C	1.735355	-0.830324	-0.142892
C114	C	1.643185	-0.903623	-0.111990
C115	C	1.565330	-0.943007	-0.196161
H116	H	1.682406	-0.810692	-0.427319
H117	H	1.817894	-0.742153	-0.280838
H118	H	1.792988	-0.801170	-0.080584
H119	H	1.632589	-0.928729	-0.026804
H120	H	1.497100	-0.997268	-0.173285
C121	C	1.475599	-0.908151	-0.698223
C122	C	1.573312	-0.837810	-0.716526
C123	C	1.598840	-0.797097	-0.827460
C124	C	1.526656	-0.826726	-0.920091
C125	C	1.428936	-0.897071	-0.901790
C126	C	1.403408	-0.937783	-0.790857
H127	H	1.626753	-0.815874	-0.647953
H128	H	1.671179	-0.745023	-0.841007
H129	H	1.545553	-0.796588	-1.002210
H130	H	1.375495	-0.919007	-0.970364
H131	H	1.331069	-0.989857	-0.777310
H132	H	1.707741	-0.917704	-0.481975
H133	H	0.940106	-0.621460	-0.370488
H134	H	0.941318	-0.574370	-0.669128
H135	H	0.941693	-0.482550	-0.333221
H136	H	0.942013	-0.676009	-0.567816
C137	C	1.392201	-0.907142	-0.362374
C138	C	1.330062	-0.832976	-0.435661
C139	C	1.220471	-0.791645	-0.402633
C140	C	1.173017	-0.824480	-0.296317
C141	C	1.235156	-0.898650	-0.223023
C142	C	1.344748	-0.939981	-0.256052
H143	H	1.365190	-0.808665	-0.514368
H144	H	1.174471	-0.736739	-0.456890
H145	H	1.091891	-0.793884	-0.271867
H146	H	1.200029	-0.922960	-0.144316
H147	H	1.390747	-0.994886	-0.201794
C148	C	1.475804	-1.111161	-0.698841
C149	C	1.476138	-1.230612	-0.722262
C150	C	1.501474	-1.270339	-0.833542
C151	C	1.526476	-1.190614	-0.921401
C152	C	1.526143	-1.071156	-0.897982
C153	C	1.500807	-1.031430	-0.786702
H154	H	1.457630	-1.289635	-0.657222
H155	H	1.501721	-1.358770	-0.850878
H156	H	1.545231	-1.220022	-1.003777
H157	H	1.544651	-1.012133	-0.963022
H158	H	1.500560	-0.942999	-0.769366
H159	H	1.124595	-0.371316	-0.614435
H160	H	1.366927	-0.919650	-0.568520
H161	H	1.648966	-0.286337	-1.095594
H162	H	1.122650	-0.337454	-0.475931
H163	H	1.419320	-1.099768	-0.371886
H164	H	1.671923	-1.101793	-0.613885
H165	H	1.705220	-1.099950	-0.475238
H166	H	1.666454	-0.919192	-0.618426
H167	H	1.409144	-0.633368	-1.106155
