data_functionalizedCrystal
_audit_creation_method	'MofGen! by Chris Wilmer'
_symmetry_space_group_name_H-M	'P1'
_symmetry_Int_Tables_number	1
_symmetry_cell_setting	triclinic
loop_
_symmetry_equiv_pos_as_xyz
  x,y,z
_cell_length_a	10.489746
_cell_length_b	9.565339
_cell_length_c	10.489741
_cell_angle_alpha	89.996215
_cell_angle_beta	84.540237
_cell_angle_gamma	90.000667
loop_
_atom_site_label
_atom_site_type_symbol
_atom_site_fract_x
_atom_site_fract_y
_atom_site_fract_z
O1	O	1.694049	0.116154	0.179990
O2	O	1.322854	0.116176	0.196876
O3	O	1.516898	0.116168	0.002836
O4	O	1.500005	0.116162	0.374031
O5	O	1.516883	-0.116352	0.002848
O6	O	1.322839	-0.116344	0.196888
O7	O	1.694034	-0.116366	0.180002
Zn8	Zn	1.508434	-0.153273	0.188447
Zn9	Zn	1.508454	0.153083	0.188431
O10	O	1.499990	-0.116358	0.374043
C11	C	1.275315	-0.000081	0.195606
C12	C	1.133686	-0.000072	0.191786
C13	C	0.980828	-0.000090	0.066062
C14	C	1.058214	-0.114731	0.128925
C15	C	1.058185	0.114515	0.128942
C16	C	0.958723	-0.114842	0.247906
C17	C	0.958688	0.114507	0.247906
C18	C	1.036025	-0.000162	0.310856
N19	N	1.508429	-0.362352	0.188457
C20	C	1.418663	-0.453551	0.278165
C21	C	1.534160	-0.546738	0.303977
C22	C	1.392983	-0.546721	0.162655
C23	C	1.623985	-0.453487	0.214328
C24	C	1.482731	-0.453462	0.072955
C25	C	1.598311	-0.546606	0.098719
C26	C	1.741573	-0.000106	0.181273
C27	C	1.883202	-0.000106	0.185093
C28	C	1.515614	-0.000088	-0.044690
C29	C	1.511797	-0.000077	-0.186320
N30	N	1.508469	0.362162	0.188411
C31	C	1.501273	-0.000099	0.421569
C32	C	1.505091	-0.000101	0.563198
C33	C	1.628555	-0.000098	0.631341
C34	C	1.570224	-0.114738	0.723466
C35	C	1.570210	0.114509	0.723432
C36	C	1.446709	-0.114836	0.653459
C37	C	1.446712	0.114514	0.653415
C38	C	1.388291	-0.000154	0.745513
H39	H	0.915437	-0.211875	0.298126
H40	H	0.956107	-0.000204	-0.037439
H41	H	1.101684	-0.211654	0.078681
O42	O	1.698987	-0.600418	-0.001796
H43	H	1.794683	-0.562879	0.019914
O44	O	1.763010	-0.000248	0.565556
H45	H	1.813946	-0.095566	0.593433
O46	O	1.068472	-0.000239	0.448050
H47	H	1.028278	-0.095500	0.497155
H48	H	1.721655	-0.412705	0.236249
O49	O	1.453866	-0.399129	-0.056361
H50	H	1.357920	-0.436400	-0.077542
H51	H	0.915194	0.211434	0.298105
O52	O	1.263644	-0.600973	0.133755
H53	H	1.189293	-0.563689	0.208372
H54	H	1.101634	0.211438	0.078666
O55	O	1.318201	-0.399407	0.378734
H56	H	1.339866	-0.436766	0.474504
O57	O	1.562988	-0.601014	0.433333
H58	H	1.651738	-0.664807	0.422257
H59	H	1.622458	-0.211665	0.754482
O60	O	1.377573	-0.243376	0.612639
H61	H	1.375330	-0.242407	0.507067
H62	H	1.286688	-0.000211	0.794935
H63	H	1.394521	0.211446	0.622367
H64	H	1.622480	0.211425	0.754412
