data_functionalizedCrystal
_audit_creation_method	'MofGen! by Chris Wilmer'
_symmetry_space_group_name_H-M	'P1'
_symmetry_Int_Tables_number	1
_symmetry_cell_setting	triclinic
loop_
_symmetry_equiv_pos_as_xyz
  x,y,z
_cell_length_a	14.446369
_cell_length_b	18.878441
_cell_length_c	14.446369
_cell_angle_alpha	60.004026
_cell_angle_beta	90.002026
_cell_angle_gamma	59.997488
loop_
_atom_site_label
_atom_site_type_symbol
_atom_site_fract_x
_atom_site_fract_y
_atom_site_fract_z
Zr1	Zr	0.891758	0.775303	-0.121417
O2	O	0.743947	0.923080	-0.269220
O3	O	0.937072	0.627526	-0.076111
O4	O	0.937070	0.775295	-0.269217
O5	O	0.743948	0.775318	0.076215
O6	O	1.089407	0.775289	-0.269211
O7	O	0.743949	0.775311	-0.076114
O8	O	1.089411	0.510957	0.076220
O9	O	0.743945	1.039650	-0.269216
O10	O	1.070083	0.688304	-0.056781
O11	O	0.956396	0.688314	0.056897
O12	O	0.956393	0.862293	-0.170461
O13	O	0.842705	0.862302	-0.056784
Zr14	Zr	1.134718	0.775303	0.121538
Zr15	Zr	1.134718	0.775293	-0.121408
Zr16	Zr	0.891758	0.775313	0.121530
Zr17	Zr	0.891755	0.961218	-0.121412
Zr18	Zr	1.134721	0.589389	0.121533
O19	O	1.089404	0.923080	0.076232
O20	O	1.089405	0.923066	-0.269207
O21	O	0.743946	0.923095	0.076220
O22	O	1.282530	0.627526	0.269341
O23	O	1.282530	0.627511	-0.076098
O24	O	0.937072	0.627540	0.269328
O25	O	1.282528	0.775289	-0.076094
O26	O	1.089406	0.775311	0.269338
O27	O	0.937069	0.775318	0.269332
O28	O	1.282527	0.775295	0.076235
O29	O	0.937066	1.039642	-0.269209
O30	O	1.089411	0.510965	0.269330
O31	O	1.282531	0.510957	0.269337
O32	O	1.282532	0.510948	0.076227
O33	O	0.743944	1.039658	-0.076106
O34	O	0.937065	1.039650	-0.076099
O35	O	1.070083	0.688314	0.170582
O36	O	1.183771	0.688304	0.056905
O37	O	1.070080	0.862293	-0.056775
O38	O	0.956393	0.862302	0.056902
C39	C	1.013242	0.542752	0.000054
C40	C	1.013243	0.463827	0.000051
C41	C	1.072584	0.426742	-0.059288
C42	C	1.072589	0.352578	-0.059280
C43	C	1.013244	0.315505	0.000062
C44	C	0.953901	0.352592	0.059409
C45	C	0.953904	0.426750	0.059407
C46	C	0.953897	0.198025	0.059408
C47	C	0.953892	0.123864	0.059409
C48	C	1.072581	0.123854	-0.059278
C49	C	1.072584	0.198011	-0.059281
C50	C	1.013239	0.235095	0.000065
C51	C	0.709332	0.775316	0.000049
C52	C	0.606189	0.775320	0.000046
C53	C	0.387818	0.885043	-0.071291
C54	C	0.495050	0.885117	-0.071692
C55	C	0.602866	0.720811	-0.052254
C56	C	0.495097	0.721507	-0.052777
C57	C	0.496461	0.719255	0.123773
C58	C	0.602430	0.721323	0.123578
C59	C	1.317144	0.775290	0.000072
C60	C	1.420287	0.775286	0.000076
C61	C	1.013238	0.775290	-0.303829
C62	C	1.013239	0.775286	-0.406966
C63	C	1.013234	1.007854	0.000068
C64	C	1.013233	1.086779	0.000070
C65	C	1.085300	0.665563	-0.481949
C66	C	1.084988	0.665489	-0.374621
C67	C	0.889708	0.829796	-0.481529
C68	C	0.890103	0.829099	-0.588388
C69	C	1.063710	0.831351	-0.589955
C70	C	1.066210	0.829284	-0.481283
C71	C	1.013238	0.775316	0.303950
C72	C	1.013237	0.775320	0.407087
C73	C	1.317148	0.542740	0.000065
C74	C	1.420292	0.463810	0.000066
C75	C	1.013241	0.542765	0.303943
C76	C	1.013243	0.463844	0.407078
C77	C	1.317147	0.542752	0.303954
C78	C	1.420292	0.463827	0.407093
C79	C	0.709329	1.007854	-0.303833
C80	C	0.606184	1.086779	-0.406972
C81	C	0.709328	1.007867	0.000056
C82	C	0.606184	1.086797	0.000055
C83	C	1.013235	1.007841	-0.303822
C84	C	1.013233	1.086762	-0.406957
C85	C	1.409386	0.426743	-0.059286
C86	C	1.506292	0.352591	-0.059307
C87	C	1.614102	0.315500	0.000031
C88	C	1.625006	0.352574	0.059385
C89	C	1.528102	0.426731	0.059399
C90	C	1.072587	0.426782	0.514864
C91	C	1.072583	0.352637	0.611779
C92	C	1.013242	0.315551	0.600906
C93	C	0.953891	0.352621	0.493109
C94	C	0.953888	0.426769	0.396196
C95	C	1.528083	0.426757	0.396190
C96	C	1.625007	0.352609	0.493090
C97	C	1.614137	0.315526	0.600893
C98	C	1.506334	0.352602	0.611794
C99	C	1.409413	0.426755	0.514894
C100	C	0.498393	1.123858	-0.396068
C101	C	0.401469	1.198029	-0.492969
C102	C	0.412339	1.235116	-0.600772
C103	C	0.520142	1.198035	-0.611673
C104	C	0.617063	1.123870	-0.514773
C105	C	0.617090	1.123871	0.059397
C106	C	0.520184	1.198044	0.059392
C107	C	0.412374	1.235137	0.000050
C108	C	0.401470	1.198059	-0.059299
C109	C	0.498374	1.123893	-0.059300
C110	C	1.072586	1.123825	-0.396047
C111	C	1.072608	1.197970	-0.492944
C112	C	1.013268	1.235056	-0.600749
C113	C	0.953914	1.197986	-0.611657
C114	C	0.953900	1.123838	-0.514761
H115	H	1.120904	0.456927	-0.107617
Cl116	Cl	0.265927	1.244697	-0.133889
Cl117	Cl	0.290560	1.328374	0.000065
Cl118	Cl	0.533918	1.244635	0.134014
H119	H	0.313701	1.228208	-0.484071
Cl120	Cl	1.013293	1.328276	-0.722552
H121	H	1.120907	1.093641	-0.308276
Cl122	Cl	1.541778	0.473367	0.260678
H123	H	1.712799	0.322364	0.107695
H124	H	0.523901	0.638402	0.177199
H125	H	0.521753	0.640980	-0.004158
H126	H	0.905576	0.322414	0.484273
Cl127	Cl	0.752569	1.077259	-0.528500
H128	H	1.120910	0.322384	-0.107597
Cl129	Cl	1.147223	1.244562	-0.479206
Cl130	Cl	1.492558	0.305995	-0.133924
Cl131	Cl	0.993590	0.952962	-0.520693
H132	H	0.905569	0.228218	0.107731
H133	H	0.489521	1.093666	-0.308299
Cl134	Cl	0.803204	0.954438	-0.523572
Cl135	Cl	0.983060	0.956185	-0.710709
Cl136	Cl	1.735994	0.222302	0.722700
Cl137	Cl	1.147207	0.306047	0.747282
H138	H	0.905588	0.322396	0.107733
Cl139	Cl	0.752612	1.077260	0.134001
Cl140	Cl	1.147179	0.244626	-0.133894
Cl141	Cl	1.206721	0.767923	-0.401892
H142	H	1.050613	0.622702	-0.480918
H143	H	0.905567	0.456935	0.308435
Cl144	Cl	1.541832	0.473312	0.134030
H145	H	0.605001	0.758666	-0.142415
Cl146	Cl	0.879308	1.244629	-0.747192
Cl147	Cl	0.827721	0.769297	-0.587979
H148	H	0.492603	0.928141	-0.162940
Cl149	Cl	1.013259	0.222333	0.722753
H150	H	0.849015	0.791940	-0.429929
H151	H	1.153302	0.796226	-0.594069
Cl152	Cl	0.879264	1.077263	-0.528495
Cl153	Cl	1.147185	0.077236	-0.133884
Cl154	Cl	0.879287	0.077257	0.134013
Cl155	Cl	0.492558	0.951145	-0.017533
Cl156	Cl	0.879304	0.473368	0.134011
H157	H	1.497501	0.322398	0.699580
Cl158	Cl	0.304506	0.951561	-0.017409
H159	H	0.332833	0.927908	-0.161988
Cl160	Cl	1.735916	0.222271	0.000004
H161	H	1.176500	0.622483	-0.479608
H162	H	0.833488	0.909626	-0.666967
H163	H	1.175952	0.622722	-0.320345
H164	H	0.444753	0.760239	-0.143802
Cl165	Cl	1.760516	0.306009	0.479360
Cl166	Cl	0.723705	0.596167	0.024131
Cl167	Cl	0.290482	1.328352	-0.722579
Cl168	Cl	0.419224	0.773470	0.191234
Cl169	Cl	0.601658	0.782667	0.183917
H170	H	1.120910	0.456969	0.523739
Cl171	Cl	1.273864	0.473360	-0.133897
H172	H	1.049983	0.622448	-0.320837
Cl173	Cl	0.724626	0.597633	0.212577
Cl174	Cl	0.533787	1.244666	-0.747205
Cl175	Cl	0.484644	1.077287	-0.133900
H176	H	1.321648	0.456927	0.523788
