data_functionalizedCrystal
_audit_creation_method	'MofGen! by Chris Wilmer'
_symmetry_space_group_name_H-M	'P1'
_symmetry_Int_Tables_number	1
_symmetry_cell_setting	triclinic
loop_
_symmetry_equiv_pos_as_xyz
  x,y,z
_cell_length_a	13.262402
_cell_length_b	10.868271
_cell_length_c	13.339070
_cell_angle_alpha	89.998695
_cell_angle_beta	99.431904
_cell_angle_gamma	74.086022
loop_
_atom_site_label
_atom_site_type_symbol
_atom_site_fract_x
_atom_site_fract_y
_atom_site_fract_z
O1	O	1.432385	-0.377078	0.136475
O2	O	1.932385	0.122922	0.636475
O3	O	1.131124	-0.276249	0.151297
O4	O	1.631124	0.223751	0.651297
O5	O	1.247180	-0.315096	-0.003524
O6	O	1.747180	0.184904	0.496476
O7	O	1.316329	-0.338232	0.291297
O8	O	1.816329	0.161768	0.791297
O9	O	1.247166	-0.519736	-0.003519
O10	O	1.747166	-0.019736	0.496481
O11	O	1.131111	-0.480890	0.151302
O12	O	1.631111	0.019110	0.651302
O13	O	1.432371	-0.581719	0.136480
O14	O	1.932371	-0.081719	0.636480
Zn15	Zn	1.281739	-0.563795	0.143892
Zn16	Zn	1.781739	-0.063795	0.643892
Zn17	Zn	1.281757	-0.294173	0.143885
Zn18	Zn	1.781757	0.205827	0.643885
O19	O	1.316316	-0.542872	0.291302
O20	O	1.816316	-0.042872	0.791302
C21	C	1.091772	-0.365401	0.150467
C22	C	1.591772	0.134599	0.650467
C23	C	0.974531	-0.326161	0.147973
C24	C	1.474531	0.173839	0.647973
C25	C	0.919457	-0.196173	0.146798
C26	C	1.419457	0.303827	0.646798
C27	C	0.809304	-0.159308	0.144465
C28	C	1.309304	0.340692	0.644465
C29	C	0.754214	-0.252427	0.143299
C30	C	1.254214	0.247573	0.643299
C31	C	0.809287	-0.382417	0.144467
C32	C	1.309287	0.117583	0.644467
C33	C	0.919452	-0.419286	0.146809
C34	C	1.419452	0.080714	0.646809
C35	C	0.754209	-0.475540	0.143310
C36	C	1.254209	0.024460	0.643310
C37	C	0.809282	-0.605530	0.144478
C38	C	1.309282	-0.105530	0.644478
C39	C	0.919435	-0.642393	0.146819
C40	C	1.419435	-0.142393	0.646819
C41	C	0.974526	-0.549274	0.147984
C42	C	1.474526	-0.049274	0.647984
C43	C	0.644044	-0.438671	0.140969
C44	C	1.144044	0.061329	0.640969
C45	C	0.644039	-0.661784	0.140980
C46	C	1.144039	-0.161784	0.640980
C47	C	0.754192	-0.698649	0.143313
C48	C	1.254192	-0.198649	0.643313
N49	N	1.281735	-0.747808	0.143896
N50	N	1.781735	-0.247808	0.643896
C51	C	1.281743	-0.859148	0.143896
C52	C	1.781743	-0.359148	0.643896
C53	C	1.281754	-0.998829	0.143887
C54	C	1.781754	-0.498829	0.643887
C55	C	1.471724	-0.492564	0.137310
C56	C	1.971724	0.007436	0.637310
C57	C	1.588965	-0.531796	0.139804
C58	C	2.088965	-0.031796	0.639804
C59	C	1.235492	-0.413505	-0.041261
C60	C	1.735492	0.086495	0.458739
C61	C	1.200675	-0.401846	-0.153710
C62	C	1.700675	0.098154	0.346290
N63	N	1.281767	-0.110162	0.143873
N64	N	1.781767	0.389838	0.643873
C65	C	1.471398	-0.492456	-0.517353
C66	C	1.971398	0.007544	-0.017353
C67	C	1.504114	-0.503417	-0.411702
C68	C	2.004114	-0.003417	0.088298
C69	C	1.428257	-0.478025	-0.347199
C70	C	1.928257	0.021975	0.152801
C71	C	1.319678	-0.441670	-0.388358
C72	C	1.819678	0.058330	0.111642
C73	C	1.286959	-0.430718	-0.494020
C74	C	1.786959	0.069282	0.005980
C75	C	1.243818	-0.416287	-0.323865
C76	C	1.743818	0.083713	0.176135
C77	C	1.135239	-0.379932	-0.365024
C78	C	1.635239	0.120068	0.134976
C79	C	1.102525	-0.368980	-0.470676
C80	C	1.602525	0.131020	0.029324
C81	C	1.178382	-0.394373	-0.535179
C82	C	1.678382	0.105627	-0.035179
C83	C	1.276537	-0.427240	-0.218203
C84	C	1.776537	0.072760	0.281797
C85	C	1.092098	-0.365501	-0.194869
C86	C	1.592098	0.134499	0.305131
C87	C	1.059382	-0.354540	-0.300521
C88	C	1.559382	0.145460	0.199479
C89	C	1.328004	-0.444461	0.329038
C90	C	1.828004	0.055539	0.829038
C91	C	1.362821	-0.456111	0.441488
C92	C	1.862821	0.043889	0.941488
H93	H	0.964274	-0.748240	0.147780
H94	H	1.464274	-0.248240	0.647780
H95	H	0.664523	-0.222403	0.141399
H96	H	1.164523	0.277597	0.641399
H97	H	0.964322	-0.120371	0.147754
H98	H	1.464322	0.379629	0.647754
H99	H	1.592518	-0.533019	-0.378198
H100	H	2.092518	-0.033019	0.121802
H101	H	0.764472	-0.053471	0.143514
H102	H	1.264472	0.446529	0.643514
H103	H	1.030329	-0.344831	-0.142351
H104	H	1.530329	0.155169	0.357649
H105	H	1.064220	-0.579283	0.149877
H106	H	1.564220	-0.079283	0.649877
H107	H	0.799048	-0.804489	0.144265
H108	H	1.299048	-0.304489	0.644265
H109	H	1.151750	-0.385445	-0.621210
H110	H	1.651750	0.114555	-0.121210
H111	H	0.599185	-0.737609	0.140034
H112	H	1.099185	-0.237609	0.640034
H113	H	1.454901	-0.486952	-0.261173
H114	H	1.954901	0.013048	0.238827
H115	H	0.599215	-0.332832	0.140018
H116	H	1.099215	0.167168	0.640018
H117	H	1.364942	-0.456840	-0.184702
H118	H	1.864942	0.043160	0.315298
H119	H	1.533149	-0.513136	-0.569880
H120	H	2.033149	-0.013136	-0.069880
H121	H	1.014113	-0.339388	-0.504184
H122	H	1.514113	0.160612	-0.004184
H123	H	0.970975	-0.324940	-0.334048
H124	H	1.470975	0.175060	0.165952
