data_functionalizedCrystal
_audit_creation_method	'MofGen! by Chris Wilmer'
_symmetry_space_group_name_H-M	'P1'
_symmetry_Int_Tables_number	1
_symmetry_cell_setting	triclinic
loop_
_symmetry_equiv_pos_as_xyz
  x,y,z
_cell_length_a	19.805407
_cell_length_b	18.050589
_cell_length_c	19.805399
_cell_angle_alpha	89.977706
_cell_angle_beta	89.982197
_cell_angle_gamma	90.025537
loop_
_atom_site_label
_atom_site_type_symbol
_atom_site_fract_x
_atom_site_fract_y
_atom_site_fract_z
Zn1	Zn	1.034727	-0.295730	-0.382713
Zn2	Zn	1.368060	0.037603	-0.049379
Zn3	Zn	1.701394	0.370937	0.283954
Zn4	Zn	1.034638	-0.419922	-0.269535
Zn5	Zn	1.367972	-0.086589	0.063799
Zn6	Zn	1.701305	0.246745	0.397132
Zn7	Zn	0.921542	-0.295745	-0.269541
Zn8	Zn	1.254875	0.037589	0.063793
Zn9	Zn	1.588208	0.370922	0.397126
Zn10	Zn	0.921502	-0.419877	-0.382685
Zn11	Zn	1.254835	-0.086543	-0.049352
Zn12	Zn	1.588168	0.246790	0.283982
O13	O	0.978102	-0.357818	-0.326118
O14	O	1.311436	-0.024485	0.007215
O15	O	1.644769	0.308848	0.340548
O16	O	1.129432	-0.312217	-0.367708
O17	O	1.462765	0.021116	-0.034375
O18	O	1.796099	0.354450	0.298958
O19	O	1.019616	-0.403475	-0.174819
O20	O	1.352949	-0.070141	0.158514
O21	O	1.686282	0.263192	0.491848
O22	O	0.936610	-0.191818	-0.284567
O23	O	1.269943	0.141515	0.048766
O24	O	1.603277	0.474849	0.382100
O25	O	1.129367	-0.403460	-0.284557
O26	O	1.462700	-0.070127	0.048776
O27	O	1.796033	0.263206	0.382110
O28	O	1.019767	-0.191807	-0.367714
O29	O	1.353100	0.141526	-0.034381
O30	O	1.686433	0.474859	0.298953
O31	O	0.936524	-0.312242	-0.174823
O32	O	1.269857	0.021091	0.158510
O33	O	1.603191	0.354425	0.491843
O34	O	0.826820	-0.312198	-0.284540
O35	O	1.160153	0.021135	0.048793
O36	O	1.493487	0.354469	0.382126
O37	O	0.936542	-0.403383	-0.477405
O38	O	1.269875	-0.070050	-0.144072
O39	O	1.603208	0.263283	0.189261
O40	O	0.826790	-0.403397	-0.367667
O41	O	1.160124	-0.070064	-0.034334
O42	O	1.493457	0.263269	0.299000
O43	O	1.019728	-0.312173	-0.477425
O44	O	1.353061	0.021160	-0.144092
O45	O	1.686395	0.354494	0.189241
O46	O	1.019577	-0.523841	-0.284530
O47	O	1.352910	-0.190507	0.048803
O48	O	1.686243	0.142826	0.382136
O49	O	0.936456	-0.523807	-0.367661
O50	O	1.269789	-0.190474	-0.034328
O51	O	1.603122	0.142859	0.299005
C52	C	0.802246	-0.357795	-0.326102
C53	C	1.135580	-0.024462	0.007232
C54	C	1.468913	0.308872	0.340565
C55	C	0.727014	-0.357803	-0.326111
C56	C	1.060348	-0.024470	0.007223
C57	C	1.393681	0.308864	0.340556
C58	C	0.691705	-0.310377	-0.369473
C59	C	1.025038	0.022957	-0.036140
C60	C	1.358371	0.356290	0.297193
C61	C	0.621016	-0.310380	-0.369476
C62	C	0.954350	0.022953	-0.036143
C63	C	1.287683	0.356286	0.297191
C64	C	0.585639	-0.357815	-0.326119
C65	C	0.918972	-0.024482	0.007214
C66	C	1.252305	0.308852	0.340548
C67	C	0.620953	-0.405244	-0.282751
C68	C	0.954287	-0.071910	0.050582
C69	C	1.287620	0.261423	0.383915
C70	C	0.691640	-0.405235	-0.282746
C71	C	1.024974	-0.071902	0.050587
C72	C	1.358307	0.261431	0.383921
C73	C	0.335880	-0.405277	-0.282772
C74	C	0.669213	-0.071944	0.050561
C75	C	1.002547	0.261390	0.383894
C76	C	0.265188	-0.405283	-0.282783
C77	C	0.598521	-0.071950	0.050551
C78	C	0.931854	0.261384	0.383884
C79	C	0.265256	-0.310422	-0.369502
C80	C	0.598589	0.022911	-0.036169
C81	C	0.931922	0.356245	0.297164
C82	C	0.335943	-0.310414	-0.369497
C83	C	0.669276	0.022920	-0.036164
C84	C	1.002610	0.356253	0.297170
C85	C	0.371251	-0.357839	-0.326127
C86	C	0.704585	-0.024506	0.007206
C87	C	1.037918	0.308827	0.340539
C88	C	0.447900	-0.357833	-0.326124
C89	C	0.781233	-0.024500	0.007209
C90	C	1.114566	0.308833	0.340543
C91	C	0.508992	-0.357825	-0.326125
C92	C	0.842325	-0.024492	0.007208
C93	C	1.175658	0.308842	0.340542
C94	C	0.978021	-0.550770	-0.326107
C95	C	1.311354	-0.217437	0.007226
C96	C	1.644687	0.115896	0.340560
C97	C	0.978048	-0.633316	-0.326125
C98	C	1.311381	-0.299983	0.007209
C99	C	1.644714	0.033350	0.340542
C100	C	0.932891	-0.832776	-0.371316
C101	C	1.266224	-0.499442	-0.037982
C102	C	1.599557	-0.166109	0.295351
C103	C	0.916392	-0.882214	-0.309553
C104	C	1.249726	-0.548880	0.023780
C105	C	1.583059	-0.215547	0.357114
C106	C	0.978114	-0.784447	-0.326134
C107	C	1.311447	-0.451113	0.007200
C108	C	1.644781	-0.117780	0.340533
C109	C	0.994646	-0.882090	-0.387903
C110	C	1.327979	-0.548757	-0.054570
C111	C	1.661312	-0.215424	0.278763
C112	C	0.978177	-0.930432	-0.326148
C113	C	1.311510	-0.597098	0.007186
C114	C	1.644844	-0.263765	0.340519
C115	C	0.961583	-0.832797	-0.264338
C116	C	1.294917	-0.499464	0.068995
C117	C	1.628250	-0.166131	0.402328
C118	C	1.039865	-0.832670	-0.342730
C119	C	1.373198	-0.499336	-0.009397
C120	C	1.706532	-0.166003	0.323936
C121	C	1.023390	-0.882085	-0.280925
C122	C	1.356724	-0.548752	0.052408
C123	C	1.690057	-0.215418	0.385742
C124	C	0.978076	-0.700348	-0.326126
C125	C	1.311409	-0.367015	0.007207
C126	C	1.644743	-0.033682	0.340540
C127	C	0.978215	-1.014528	-0.326148
C128	C	1.311548	-0.681195	0.007186
C129	C	1.644882	-0.347861	0.340519
C130	C	1.154645	-0.357842	-0.326135
C131	C	1.487978	-0.024509	0.007198
C132	C	1.821312	0.308825	0.340532
C133	C	1.229877	-0.357852	-0.326142
C134	C	1.563210	-0.024519	0.007191
C135	C	1.896544	0.308814	0.340524
C136	C	0.978140	-0.357772	-0.502661
C137	C	1.311474	-0.024438	-0.169328
C138	C	1.644807	0.308895	0.164006
C139	C	0.978156	-0.357752	-0.577893
C140	C	1.311490	-0.024418	-0.244560
C141	C	1.644823	0.308915	0.088774
C142	C	0.978203	-0.164113	-0.326144
C143	C	1.311536	0.169221	0.007189
C144	C	1.644869	0.502554	0.340522
C145	C	0.978246	-0.081567	-0.326155
C146	C	1.311579	0.251766	0.007178
C147	C	1.644912	0.585100	0.340511
C148	C	1.021472	-0.310256	-0.613249
C149	C	1.354806	0.023077	-0.279915
C150	C	1.688139	0.356411	0.053418
C151	C	1.021479	-0.310235	-0.683937
C152	C	1.354813	0.023099	-0.350604
C153	C	1.688146	0.356432	-0.017271
C154	C	0.978173	-0.357713	-0.719269
C155	C	1.311507	-0.024379	-0.385935
C156	C	1.644840	0.308954	-0.052602
C157	C	0.934852	-0.405210	-0.683908
C158	C	1.268186	-0.071877	-0.350575
C159	C	1.601519	0.261456	-0.017241
C160	C	0.934843	-0.405228	-0.613221
C161	C	1.268176	-0.071894	-0.279887
C162	C	1.601509	0.261439	0.053446
C163	C	0.934891	-0.405141	-0.968981
C164	C	1.268224	-0.071808	-0.635648
C165	C	1.601557	0.261526	-0.302315
C166	C	0.934905	-0.405122	-1.039674
C167	C	1.268239	-0.071788	-0.706340
C168	C	1.601572	0.261545	-0.373007
C169	C	1.021527	-0.310148	-1.039698
C170	C	1.354861	0.023185	-0.706365
C171	C	1.688194	0.356519	-0.373031
C172	C	1.021518	-0.310165	-0.969011
C173	C	1.354851	0.023168	-0.635677
C174	C	1.688184	0.356501	-0.302344
C175	C	0.978195	-0.357660	-0.933656
C176	C	1.311528	-0.024326	-0.600323
C177	C	1.644861	0.309007	-0.266989
C178	C	0.978187	-0.357682	-0.857008
C179	C	1.311520	-0.024348	-0.523674
C180	C	1.644853	0.308985	-0.190341
C181	C	0.978184	-0.357695	-0.795916
C182	C	1.311517	-0.024362	-0.462583
C183	C	1.644851	0.308971	-0.129249
C184	C	0.978103	-0.357811	-0.150262
C185	C	1.311437	-0.024478	0.183071
C186	C	1.644770	0.308855	0.516404
C187	C	0.978218	-0.357622	-0.075031
C188	C	1.311552	-0.024289	0.258303
C189	C	1.644885	0.309045	0.591636
H190	H	0.592143	-0.443862	-0.247446
H191	H	0.925476	-0.110529	0.085887
H192	H	1.258810	0.222805	0.419221
H193	H	1.056801	-0.271473	-1.068492
H194	H	1.390134	0.061860	-0.735159
H195	H	1.723467	0.395194	-0.401825
H196	H	0.899637	-0.443786	-1.068438
H197	H	1.232971	-0.110452	-0.735105
H198	H	1.566304	0.222881	-0.401772
H199	H	0.899624	-0.443825	-0.940204
H200	H	1.232958	-0.110492	-0.606871
H201	H	1.566291	0.222842	-0.273538
H202	H	0.899589	-0.443865	-0.712680
H203	H	1.232923	-0.110532	-0.379347
H204	H	1.566256	0.222801	-0.046014
H205	H	1.056784	-0.271506	-0.940247
H206	H	1.390118	0.061827	-0.606914
H207	H	1.723451	0.395161	-0.273581
H208	H	1.008603	-0.903743	-0.440136
H209	H	1.341936	-0.570409	-0.106803
H210	H	1.675270	-0.237076	0.226531
N211	N	0.374095	-0.259250	-0.416262
N212	N	0.707428	0.074083	-0.082929
N213	N	1.040762	0.407417	0.250405
H214	H	0.403424	-0.224793	-0.388806
H215	H	0.736757	0.108540	-0.055472
H216	H	1.070090	0.441874	0.277861
H217	H	0.403386	-0.289525	-0.447571
H218	H	0.736720	0.043809	-0.114237
H219	H	1.070053	0.377142	0.219096
N220	N	0.888116	-0.456453	-0.575090
N221	N	1.221450	-0.123120	-0.241757
N222	N	1.554783	0.210214	0.091576
H223	H	0.898599	-0.509515	-0.587384
H224	H	1.231932	-0.176182	-0.254050
H225	H	1.565266	0.157152	0.079283
H226	H	0.894697	-0.449197	-0.524961
H227	H	1.228030	-0.115864	-0.191628
H228	H	1.561363	0.217470	0.141706
N229	N	1.068207	-0.259015	-0.722069
N230	N	1.401540	0.074319	-0.388736
N231	N	1.734874	0.407652	-0.055403
H232	H	1.061642	-0.266204	-0.772211
H233	H	1.394976	0.067129	-0.438877
H234	H	1.728309	0.400462	-0.105544
H235	H	1.057704	-0.205976	-0.709719
H236	H	1.391038	0.127358	-0.376385
H237	H	1.724371	0.460691	-0.043052
N238	N	0.729860	-0.259219	-0.416242
N239	N	1.063193	0.074114	-0.082909
N240	N	1.396526	0.407447	0.250424
H241	H	0.696762	-0.229175	-0.443712
H242	H	1.030095	0.104158	-0.110378
H243	H	1.363429	0.437492	0.222955
H244	H	0.759189	-0.224808	-0.388743
H245	H	1.092522	0.108526	-0.055410
H246	H	1.425856	0.441859	0.277924
H247	H	1.061661	-0.903600	-0.242678
H248	H	1.394994	-0.570266	0.090655
H249	H	1.728328	-0.236933	0.423989
H250	H	1.092045	-0.810893	-0.356785
H251	H	1.425378	-0.477560	-0.023452
H252	H	1.758711	-0.144226	0.309882
N253	N	0.582931	-0.259213	-0.416232
N254	N	0.916265	0.074120	-0.082899
N255	N	1.249598	0.407453	0.250434
H256	H	0.616069	-0.229162	-0.443697
H257	H	0.949402	0.104172	-0.110364
H258	H	1.282736	0.437505	0.222970
H259	H	0.553597	-0.289479	-0.447513
H260	H	0.886930	0.043854	-0.114180
H261	H	1.220264	0.377188	0.219153
H262	H	0.894591	-0.811124	-0.409470
H263	H	1.227924	-0.477790	-0.076137
H264	H	1.561257	-0.144457	0.257196
N265	N	0.227174	-0.259266	-0.416280
N266	N	0.560507	0.074067	-0.082947
N267	N	0.893840	0.407401	0.250387
H268	H	0.177025	-0.266464	-0.409705
H269	H	0.510358	0.066869	-0.076372
H270	H	0.843692	0.400203	0.256961
H271	H	0.239544	-0.206210	-0.405829
H272	H	0.572878	0.127123	-0.072496
H273	H	0.906211	0.460456	0.260837
N274	N	0.227024	-0.456441	-0.236014
N275	N	0.560357	-0.123107	0.097319
N276	N	0.893691	0.210226	0.430652
H277	H	0.239312	-0.509519	-0.246435
H278	H	0.572645	-0.176185	0.086898
H279	H	0.905978	0.157148	0.420231
H280	H	0.239320	-0.444766	-0.187689
H281	H	0.572654	-0.111433	0.145644
H282	H	0.905987	0.221900	0.478978
N283	N	0.373957	-0.456424	-0.235995
N284	N	0.707291	-0.123091	0.097338
N285	N	1.040624	0.210243	0.430671
H286	H	0.340818	-0.486475	-0.208533
H287	H	0.674151	-0.153141	0.124801
H288	H	1.007484	0.180192	0.458134
H289	H	0.403289	-0.490830	-0.263486
H290	H	0.736622	-0.157497	0.069847
H291	H	1.069956	0.175836	0.403180
N292	N	0.943018	-0.804244	-0.195129
N293	N	1.276351	-0.470911	0.138205
N294	N	1.609685	-0.137577	0.471538
H295	H	0.943089	-0.748292	-0.195555
H296	H	1.276422	-0.414959	0.137778
H297	H	1.609756	-0.081625	0.471112
H298	H	0.896560	-0.822758	-0.182536
H299	H	1.229893	-0.489425	0.150797
H300	H	1.563227	-0.156091	0.484130
N301	N	0.847262	-0.911051	-0.290954
N302	N	1.180595	-0.577717	0.042379
N303	N	1.513929	-0.244384	0.375712
H304	H	0.834449	-0.892348	-0.244636
H305	H	1.167782	-0.559014	0.088698
H306	H	1.501115	-0.225681	0.422031
H307	H	0.813151	-0.893116	-0.325143
H308	H	1.146484	-0.559783	0.008190
H309	H	1.479818	-0.226450	0.341524
N310	N	0.729728	-0.456384	-0.235973
N311	N	1.063061	-0.123051	0.097360
N312	N	1.396395	0.210283	0.430694
H313	H	0.696592	-0.486436	-0.208507
H314	H	1.029925	-0.153102	0.124826
H315	H	1.363258	0.180231	0.458159
H316	H	0.759059	-0.490789	-0.263466
H317	H	1.092392	-0.157456	0.069867
H318	H	1.425725	0.175878	0.403201
H319	H	1.056740	-0.271596	-0.584487
H320	H	1.390073	0.061737	-0.251154
H321	H	1.723406	0.395071	0.082180
