data_functionalizedCrystal
_audit_creation_method	'MofGen! by Chris Wilmer'
_symmetry_space_group_name_H-M	'P1'
_symmetry_Int_Tables_number	1
_symmetry_cell_setting	triclinic
loop_
_symmetry_equiv_pos_as_xyz
  x,y,z
_cell_length_a	18.215407
_cell_length_b	13.897448
_cell_length_c	13.897441
_cell_angle_alpha	90.029627
_cell_angle_beta	90.019897
_cell_angle_gamma	90.018140
loop_
_atom_site_label
_atom_site_type_symbol
_atom_site_fract_x
_atom_site_fract_y
_atom_site_fract_z
Zn1	Zn	1.125109	-0.383982	0.545415
Zn2	Zn	1.375109	-0.133982	0.795415
Zn3	Zn	1.625109	0.116018	1.045415
Zn4	Zn	1.875109	0.366018	1.295415
Zn5	Zn	1.125033	-0.545301	0.384116
Zn6	Zn	1.375033	-0.295301	0.634116
Zn7	Zn	1.625033	-0.045301	0.884116
Zn8	Zn	1.875033	0.204699	1.134116
Zn9	Zn	1.002042	-0.384023	0.384129
Zn10	Zn	1.252042	-0.134023	0.634129
Zn11	Zn	1.502042	0.115977	0.884129
Zn12	Zn	1.752042	0.365977	1.134129
Zn13	Zn	1.002023	-0.545238	0.545365
Zn14	Zn	1.252023	-0.295238	0.795365
Zn15	Zn	1.502023	-0.045238	1.045365
Zn16	Zn	1.752023	0.204762	1.295365
O17	O	1.063552	-0.464636	0.464756
O18	O	1.313552	-0.214636	0.714756
O19	O	1.563552	0.035364	0.964756
O20	O	1.813552	0.285364	1.214756
O21	O	1.228083	-0.405390	0.524033
O22	O	1.478083	-0.155390	0.774033
O23	O	1.728083	0.094610	1.024033
O24	O	1.978083	0.344610	1.274033
O25	O	1.108694	-0.523950	0.249136
O26	O	1.358694	-0.273950	0.499136
O27	O	1.608694	-0.023950	0.749136
O28	O	1.858694	0.226050	0.999136
O29	O	1.018406	-0.249036	0.405551
O30	O	1.268406	0.000964	0.655551
O31	O	1.518406	0.250964	0.905551
O32	O	1.768406	0.500964	1.155551
O33	O	1.228027	-0.523911	0.405528
O34	O	1.478027	-0.273911	0.655528
O35	O	1.728027	-0.023911	0.905528
O36	O	1.978027	0.226089	1.155528
O37	O	1.108824	-0.249006	0.524046
O38	O	1.358824	0.000994	0.774046
O39	O	1.608824	0.250994	1.024046
O40	O	1.858824	0.500994	1.274046
O41	O	1.018333	-0.405460	0.249146
O42	O	1.268333	-0.155460	0.499146
O43	O	1.518333	0.094540	0.749146
O44	O	1.768333	0.344540	0.999146
O45	O	0.899055	-0.405399	0.405502
O46	O	1.149055	-0.155399	0.655502
O47	O	1.399055	0.094601	0.905502
O48	O	1.649055	0.344601	1.155502
O49	O	1.018375	-0.523803	0.680353
O50	O	1.268375	-0.273803	0.930353
O51	O	1.518375	-0.023803	1.180353
O52	O	1.768375	0.226197	1.430353
O53	O	0.899041	-0.523843	0.523962
O54	O	1.149041	-0.273843	0.773962
O55	O	1.399041	-0.023843	1.023962
O56	O	1.649041	0.226157	1.273962
O57	O	1.108806	-0.405329	0.680390
O58	O	1.358806	-0.155329	0.930390
O59	O	1.608806	0.094671	1.180390
O60	O	1.858806	0.344671	1.430390
O61	O	1.108676	-0.680274	0.405480
O62	O	1.358676	-0.430274	0.655480
O63	O	1.608676	-0.180274	0.905480
O64	O	1.858676	0.069726	1.155480
O65	O	1.018301	-0.680228	0.523949
O66	O	1.268301	-0.430228	0.773949
O67	O	1.518301	-0.180228	1.023949
O68	O	1.768301	0.069772	1.273949
C69	C	0.872345	-0.464619	0.464729
C70	C	1.122345	-0.214619	0.714729
C71	C	1.372345	0.035381	0.964729
C72	C	1.622345	0.285381	1.214729
C73	C	0.790547	-0.464635	0.464740
C74	C	1.040547	-0.214635	0.714740
C75	C	1.290547	0.035365	0.964740
C76	C	1.540547	0.285365	1.214740
C77	C	0.602365	-0.526406	0.526344
C78	C	0.852365	-0.276406	0.776344
C79	C	1.102365	-0.026406	1.026344
C80	C	1.352365	0.223594	1.276344
C81	C	0.525506	-0.526409	0.526356
C82	C	0.775506	-0.276409	0.776356
C83	C	1.025506	-0.026409	1.026356
C84	C	1.275506	0.223591	1.276356
C85	C	0.525491	-0.402883	0.403190
C86	C	0.775491	-0.152883	0.653190
C87	C	1.025491	0.097117	0.903190
C88	C	1.275491	0.347117	1.153190
C89	C	0.602348	-0.402876	0.403183
C90	C	0.852348	-0.152876	0.653183
C91	C	1.102348	0.097124	0.903183
C92	C	1.352348	0.347124	1.153183
C93	C	0.640783	-0.464643	0.464759
C94	C	0.890783	-0.214643	0.714759
C95	C	1.140783	0.035357	0.964759
C96	C	1.390783	0.285357	1.214759
C97	C	0.487067	-0.464653	0.464777
C98	C	0.737067	-0.214653	0.714777
C99	C	0.987067	0.035347	0.964777
C100	C	1.237067	0.285347	1.214777
C101	C	0.403733	-0.464656	0.464790
C102	C	0.653733	-0.214656	0.714790
C103	C	0.903733	0.035344	0.964790
C104	C	1.153733	0.285344	1.214790
C105	C	0.724122	-0.464639	0.464748
C106	C	0.974122	-0.214639	0.714748
C107	C	1.224122	0.035361	0.964748
C108	C	1.474122	0.285361	1.214748
C109	C	1.063498	-0.715250	0.464728
C110	C	1.313498	-0.465250	0.714728
C111	C	1.563498	-0.215250	0.964728
C112	C	1.813498	0.034750	1.214728
C113	C	1.063542	-0.822464	0.464749
C114	C	1.313542	-0.572464	0.714749
C115	C	1.563542	-0.322464	0.964749
C116	C	1.813542	-0.072464	1.214749
C117	C	1.063620	-1.018759	0.464809
C118	C	1.313620	-0.768759	0.714809
C119	C	1.563620	-0.518759	0.964809
C120	C	1.813620	-0.268759	1.214809
C121	C	1.063575	-0.909527	0.464778
C122	C	1.313575	-0.659527	0.714778
C123	C	1.563575	-0.409527	0.964778
C124	C	1.813575	-0.159527	1.214778
C125	C	1.255505	-0.464653	0.464785
C126	C	1.505505	-0.214653	0.714785
C127	C	1.755505	0.035347	0.964785
C128	C	2.005505	0.285347	1.214785
C129	C	1.337303	-0.464660	0.464797
C130	C	1.587303	-0.214660	0.714797
C131	C	1.837303	0.035340	0.964797
C132	C	2.087303	0.285340	1.214797
C133	C	1.063597	-0.464555	0.716349
C134	C	1.313597	-0.214555	0.966349
C135	C	1.563597	0.035445	1.216349
C136	C	1.813597	0.285445	1.466349
C137	C	1.063616	-0.464520	0.823563
C138	C	1.313616	-0.214520	1.073563
C139	C	1.563616	0.035480	1.323563
C140	C	1.813616	0.285480	1.573563
C141	C	1.063626	-0.213043	0.464805
C142	C	1.313626	0.036957	0.714805
C143	C	1.563626	0.286957	0.964805
C144	C	1.813626	0.536957	1.214805
C145	C	1.063657	-0.105829	0.464826
C146	C	1.313657	0.144171	0.714826
C147	C	1.563657	0.394171	0.964826
C148	C	1.813657	0.644171	1.214826
C149	C	1.063549	-0.464647	0.214142
C150	C	1.313549	-0.214647	0.464142
C151	C	1.563549	0.035353	0.714142
C152	C	1.813549	0.285353	0.964142
C153	C	1.063673	-0.464410	0.106928
C154	C	1.313673	-0.214410	0.356928
C155	C	1.563673	0.035590	0.606928
C156	C	1.813673	0.285590	0.856928
C157	C	1.063631	-0.464493	0.910633
C158	C	1.313631	-0.214493	1.160633
C159	C	1.563631	0.035507	1.410633
C160	C	1.813631	0.285507	1.660633
C161	C	1.063652	-0.464450	1.019866
C162	C	1.313652	-0.214450	1.269866
C163	C	1.563652	0.035550	1.519866
C164	C	1.813652	0.285550	1.769866
H165	H	0.633656	-0.576699	0.576485
H166	H	0.883656	-0.326699	0.826485
H167	H	1.133656	-0.076699	1.076485
H168	H	1.383656	0.173301	1.326485
C169	C	0.594619	-0.280778	0.281426
C170	C	0.844619	-0.030778	0.531426
C171	C	1.094619	0.219222	0.781426
C172	C	1.344619	0.469222	1.031426
C173	C	0.644583	-0.334983	0.335480
C174	C	0.894583	-0.084983	0.585480
C175	C	1.144583	0.165017	0.835480
C176	C	1.394583	0.415017	1.085480
H177	H	0.620695	-0.238870	0.239630
H178	H	0.870695	0.011130	0.489630
H179	H	1.120695	0.261130	0.739630
H180	H	1.370695	0.511130	0.989630
H181	H	0.564663	-0.243934	0.323515
H182	H	0.814663	0.006066	0.573515
H183	H	1.064663	0.256066	0.823515
H184	H	1.314663	0.506066	1.073515
H185	H	0.564621	-0.322773	0.244461
H186	H	0.814621	-0.072773	0.494461
H187	H	1.064621	0.177227	0.744461
H188	H	1.314621	0.427227	0.994461
H189	H	0.674578	-0.292988	0.372451
H190	H	0.924578	-0.042988	0.622451
H191	H	1.174578	0.207012	0.872451
H192	H	1.424578	0.457012	1.122451
H193	H	0.674551	-0.371830	0.293386
H194	H	0.924551	-0.121830	0.543386
H195	H	1.174551	0.128170	0.793386
H196	H	1.424551	0.378170	1.043386
H197	H	0.494187	-0.352596	0.353056
H198	H	0.744187	-0.102596	0.603056
H199	H	0.994187	0.147404	0.853056
H200	H	1.244187	0.397404	1.103056
C201	C	0.533246	-0.648517	0.648088
C202	C	0.783246	-0.398517	0.898088
C203	C	1.033246	-0.148517	1.148088
C204	C	1.283246	0.101483	1.398088
C205	C	0.483277	-0.594306	0.594048
C206	C	0.733277	-0.344306	0.844048
C207	C	0.983277	-0.094306	1.094048
C208	C	1.233277	0.155694	1.344048
H209	H	0.507174	-0.690438	0.689876
H210	H	0.757174	-0.440438	0.939876
H211	H	1.007174	-0.190438	1.189876
H212	H	1.257174	0.059562	1.439876
H213	H	0.563243	-0.606534	0.685053
H214	H	0.813243	-0.356534	0.935053
H215	H	1.063243	-0.106534	1.185053
H216	H	1.313243	0.143466	1.435053
H217	H	0.563203	-0.685356	0.605982
H218	H	0.813203	-0.435356	0.855982
H219	H	1.063203	-0.185356	1.105982
H220	H	1.313203	0.064644	1.355982
H221	H	0.453323	-0.557461	0.636154
H222	H	0.703323	-0.307461	0.886154
H223	H	0.953323	-0.057461	1.136154
H224	H	1.203323	0.192539	1.386154
H225	H	0.453268	-0.636294	0.557081
H226	H	0.703268	-0.386294	0.807081
H227	H	0.953268	-0.136294	1.057081
H228	H	1.203268	0.113706	1.307081
