data_functionalizedCrystal
_audit_creation_method	'MofGen! by Chris Wilmer'
_symmetry_space_group_name_H-M	'P1'
_symmetry_Int_Tables_number	1
_symmetry_cell_setting	triclinic
loop_
_symmetry_equiv_pos_as_xyz
  x,y,z
_cell_length_a	17.038272
_cell_length_b	10.654550
_cell_length_c	9.130313
_cell_angle_alpha	90.000276
_cell_angle_beta	89.995195
_cell_angle_gamma	92.201757
loop_
_atom_site_label
_atom_site_type_symbol
_atom_site_fract_x
_atom_site_fract_y
_atom_site_fract_z
O1	O	0.109878	-1.678042	-0.121691
O2	O	0.120346	-1.313536	-0.121718
O3	O	0.001285	-1.493623	-0.121693
O4	O	0.228940	-1.497955	-0.121716
O5	O	0.001281	-1.493609	0.121906
O6	O	0.120343	-1.313522	0.121881
O7	O	0.109875	-1.678029	0.121908
Cu8	Cu	0.115108	-1.495774	0.144137
Cu9	Cu	0.115113	-1.495790	-0.143947
O10	O	0.228936	-1.497942	0.121883
C11	C	0.119576	-1.266660	0.000078
C12	C	0.117276	-1.127003	0.000068
C13	C	-0.027867	-1.489675	0.000106
C14	C	-0.114726	-1.477918	0.000104
C15	C	0.110645	-1.724905	0.000108
C16	C	0.112945	-1.864561	0.000109
C17	C	-0.164237	-1.585862	0.000114
C18	C	-0.245849	-1.574808	0.000099
C19	C	-0.277949	-1.455808	0.000085
C20	C	-0.228431	-1.347855	0.000072
C21	C	-0.146820	-1.358911	0.000076
C22	C	-0.523925	-1.416750	0.000063
C23	C	-0.605542	-1.405702	0.000063
C24	C	-0.622955	-1.632655	0.000088
C25	C	-0.541341	-1.643701	0.000101
C26	C	-0.491831	-1.535748	0.000079
C27	C	-0.361369	-1.444505	0.000075
C28	C	-0.408412	-1.547052	0.000079
C29	C	0.258088	-1.501889	0.000081
C30	C	0.344947	-1.513646	0.000072
N31	N	0.115105	-1.495772	0.346759
C32	C	0.187378	-1.054026	0.000065
C33	C	0.185213	-0.922805	0.000091
C34	C	0.042838	-0.937548	0.000116
C35	C	0.045004	-1.068767	0.000101
N36	N	0.115110	-1.495802	-0.346570
C37	C	0.062407	-1.575545	0.423422
C38	C	0.062407	-1.575557	0.576759
C39	C	0.167810	-1.416019	0.576757
C40	C	0.167806	-1.416002	0.423423
H41	H	-0.286159	-1.662708	0.000110
C42	C	-0.640850	-1.274797	0.000023
H43	H	-0.599675	-1.212087	-0.000008
H44	H	-0.672330	-1.265749	0.084965
H45	H	-0.672319	-1.265793	-0.084942
C46	C	0.225760	-1.328247	0.661084
H47	H	0.257133	-1.280714	0.593461
H48	H	0.258600	-1.376893	0.720906
H49	H	0.197289	-1.272953	0.720892
H50	H	-0.012085	-1.128187	0.000107
H51	H	0.019494	-1.640497	0.361007
H52	H	-0.483623	-1.328847	0.000045
H53	H	-0.254573	-1.250963	0.000051
C54	C	-0.506038	-1.774600	0.000097
H55	H	-0.547214	-1.837307	0.000085
H56	H	-0.474565	-1.783631	0.085043
H57	H	-0.474561	-1.783626	-0.084865
H58	H	-0.106509	-1.271011	0.000068
H59	H	0.210719	-1.351035	0.360999
C60	C	0.004442	-1.663313	0.661082
H61	H	-0.026939	-1.710822	0.593459
H62	H	-0.028387	-1.614649	0.720913
H63	H	0.032896	-1.718631	0.720881
H64	H	-0.387514	-1.347615	0.000067
H65	H	0.246227	-1.101438	0.000049
H66	H	-0.138109	-1.682764	0.000134
C67	C	0.262322	-0.842530	0.000080
H68	H	0.250684	-0.756039	0.000109
H69	H	0.291925	-0.860998	-0.084877
H70	H	0.291927	-0.861017	0.085030
C71	C	-0.677413	-1.751395	0.000096
H72	H	-0.646607	-1.823849	0.000113
H73	H	-0.709607	-1.751806	-0.084853
H74	H	-0.709615	-1.751798	0.085054
H75	H	-0.382273	-1.643941	0.000058
H76	H	-0.016004	-0.890116	0.000152
