data_functionalizedCrystal
_audit_creation_method	'MofGen! by Chris Wilmer'
_symmetry_space_group_name_H-M	'P1'
_symmetry_Int_Tables_number	1
_symmetry_cell_setting	triclinic
loop_
_symmetry_equiv_pos_as_xyz
  x,y,z
_cell_length_a	17.019372
_cell_length_b	17.038274
_cell_length_c	14.421503
_cell_angle_alpha	89.983208
_cell_angle_beta	86.128815
_cell_angle_gamma	92.756493
loop_
_atom_site_label
_atom_site_type_symbol
_atom_site_fract_x
_atom_site_fract_y
_atom_site_fract_z
O1	O	1.053349	-0.099573	-0.006911
O2	O	1.553349	0.400427	0.493089
O3	O	0.824539	-0.112281	0.011348
O4	O	1.324539	0.387719	0.511348
O5	O	0.937584	0.007887	0.002302
O6	O	1.437584	0.507887	0.502302
O7	O	0.940304	-0.219741	0.002136
O8	O	1.440304	0.280259	0.502136
O9	O	0.937572	0.007900	-0.151921
O10	O	1.437572	0.507900	0.348079
O11	O	0.824527	-0.112268	-0.142874
O12	O	1.324527	0.387732	0.357126
O13	O	1.053337	-0.099560	-0.161133
O14	O	1.553337	0.400440	0.338867
Cu15	Cu	0.938931	-0.105913	-0.166085
Cu16	Cu	1.438931	0.394087	0.333915
Cu17	Cu	0.938945	-0.105928	0.016301
Cu18	Cu	1.438945	0.394072	0.516301
O19	O	0.940292	-0.219728	-0.152087
O20	O	1.440292	0.280272	0.347913
C21	C	0.795112	-0.111794	-0.063415
C22	C	1.295112	0.388206	0.436585
C23	C	0.707446	-0.110352	-0.056421
C24	C	1.207446	0.389648	0.443579
C25	C	0.935104	0.037020	-0.074617
C26	C	1.435104	0.537020	0.425383
C27	C	0.927724	0.123806	-0.074041
C28	C	1.427724	0.623806	0.425959
C29	C	0.211628	-0.102173	-0.012582
C30	C	0.711628	0.397827	0.487418
C31	C	0.293999	-0.103527	-0.019166
C32	C	0.793999	0.396473	0.480834
C33	C	0.335170	-0.104204	-0.106526
C34	C	0.835170	0.395796	0.393474
C35	C	0.293966	-0.103517	-0.187306
C36	C	0.793966	0.396483	0.312694
C37	C	0.211596	-0.102157	-0.180721
C38	C	0.711596	0.397843	0.319279
C39	C	0.583873	-0.108305	-0.130616
C40	C	1.083873	0.391695	0.369384
C41	C	0.666248	-0.109668	-0.137195
C42	C	1.166248	0.390332	0.362805
C43	C	0.666276	-0.109677	0.030946
C44	C	1.166276	0.390323	0.530946
C45	C	0.583904	-0.108321	0.037524
C46	C	1.083904	0.391679	0.537524
C47	C	0.542707	-0.107631	-0.043257
C48	C	1.042707	0.392369	0.456743
C49	C	0.419367	-0.105591	-0.113259
C50	C	0.919367	0.394409	0.386741
C51	C	0.458513	-0.106238	-0.036523
C52	C	0.958513	0.393762	0.463477
C53	C	0.995483	0.173981	-0.079457
C54	C	1.495483	0.673981	0.420543
C55	C	0.988543	0.255525	-0.078908
C56	C	1.488543	0.755525	0.421092
C57	C	0.913844	0.286893	-0.072949
C58	C	1.413844	0.786893	0.427051
C59	C	0.846080	0.236712	-0.067530
C60	C	1.346080	0.736712	0.432470
C61	C	0.853020	0.155170	-0.068073
C62	C	1.353020	0.655170	0.431927
C63	C	0.889326	0.532629	-0.071020
C64	C	1.389326	1.032629	0.428980
C65	C	0.882391	0.614179	-0.070480
C66	C	1.382391	1.114179	0.429520
C67	C	1.024855	0.632985	-0.081856
C68	C	1.524855	1.132985	0.418144
C69	C	1.031789	0.551440	-0.082404
C70	C	1.531789	1.051440	0.417596
C71	C	0.964024	0.501267	-0.076980
C72	C	1.464024	1.001267	0.423020
C73	C	0.906749	0.370244	-0.072390
C74	C	1.406749	0.870244	0.427610
C75	C	0.971120	0.417917	-0.077532
C76	C	1.471120	0.917917	0.422468
C77	C	1.082764	-0.100047	-0.086367
C78	C	1.582764	0.399953	0.413633
C79	C	1.170429	-0.101489	-0.093356
C80	C	1.670429	0.398511	0.406644
C81	C	0.942771	0.751139	-0.075206
C82	C	1.442771	1.251139	0.424794
C83	C	0.950150	0.664353	-0.075896
C84	C	1.450150	1.164353	0.424104
N85	N	0.938927	-0.105902	-0.294366
N86	N	1.438927	0.394098	0.205634
C87	C	0.990749	-0.049895	-0.609942
C88	C	1.490749	0.450105	-0.109942
C89	C	1.011423	-0.120305	-0.549740
C90	C	1.511423	0.379695	-0.049740
C91	C	0.938946	-0.105924	-0.666257
C92	C	1.438946	0.394076	-0.166257
C93	C	0.918299	-0.035504	-0.542368
C94	C	1.418299	0.464496	-0.042368
C95	C	0.938938	-0.105909	-0.483535
C96	C	1.438938	0.394091	0.016465
C97	C	0.959658	-0.176370	-0.607418
C98	C	1.459658	0.323630	-0.107418
C99	C	0.866500	-0.091523	-0.600049
C100	C	1.366500	0.408477	-0.100049
C101	C	0.887148	-0.161985	-0.539872
C102	C	1.387148	0.338015	-0.039872
C103	C	0.938952	-0.105931	-0.771518
C104	C	1.438952	0.394069	-0.271518
C105	C	0.938932	-0.105910	-0.378275
C106	C	1.438932	0.394090	0.121725
N107	N	0.938955	-0.105933	0.144581
N108	N	1.438955	0.394067	0.644581
H109	H	0.178112	-0.101628	0.058556
H110	H	0.678112	0.398372	0.558556
H111	H	0.805255	-0.079320	-0.622359
H112	H	1.305255	0.420680	-0.122359
H113	H	1.031940	0.392373	-0.082363
H114	H	1.531940	0.892373	0.417637
Cl115	Cl	0.718071	-0.110538	0.132491
Cl116	Cl	1.218071	0.389462	0.632491
H117	H	0.699766	-0.110224	-0.208338
H118	H	1.199766	0.389776	0.291662
Cl119	Cl	0.532092	-0.107458	-0.232169
Cl120	Cl	1.032092	0.392542	0.267831
H121	H	0.900840	0.024043	-0.513848
H122	H	1.400840	0.524043	-0.013848
H123	H	0.327540	-0.104080	0.046609
H124	H	0.827540	0.395920	0.546609
H125	H	1.043720	0.296374	-0.083320
H126	H	1.543720	0.796374	0.416680
H127	H	0.550389	-0.107770	0.108661
H128	H	1.050389	0.392230	0.608661
Cl129	Cl	0.752172	0.276147	-0.060028
Cl130	Cl	1.252172	0.776147	0.439972
Cl131	Cl	0.345724	-0.104365	-0.297131
Cl132	Cl	0.845724	0.395635	0.202869
H133	H	0.797843	0.114318	-0.063663
H134	H	1.297843	0.614318	0.436337
Cl135	Cl	0.986730	-0.268325	-0.651276
Cl136	Cl	1.486730	0.231675	-0.151276
H137	H	1.092616	0.525907	-0.087256
H138	H	1.592616	1.025907	0.412744
H139	H	0.178053	-0.101608	-0.246496
H140	H	0.678053	0.398392	0.253504
Cl141	Cl	0.812844	0.409686	-0.064895
Cl142	Cl	1.312844	0.909686	0.435105
H143	H	0.821559	0.639715	-0.065643
H144	H	1.321559	1.139715	0.434357
Cl145	Cl	0.406755	-0.105376	0.073297
Cl146	Cl	0.906755	0.394624	0.573297
H147	H	1.034595	-0.002571	-0.640576
H148	H	1.534595	0.497429	-0.140576
Cl149	Cl	1.110038	0.696065	-0.088671
Cl150	Cl	1.610038	1.196065	0.411329
H151	H	0.452897	-0.106143	-0.184387
H152	H	0.952897	0.393857	0.315613
Cl153	Cl	1.089395	0.134555	-0.086958
Cl154	Cl	1.589395	0.634555	0.413042
H155	H	0.834147	0.491787	-0.066604
H156	H	1.334147	0.991787	0.433396
Cl157	Cl	1.106002	-0.139098	-0.515300
Cl158	Cl	1.606002	0.360902	-0.015300
H159	H	0.843338	-0.209412	-0.509411
H160	H	1.343338	0.290588	-0.009411
