data_functionalizedCrystal
_audit_creation_method	'MofGen! by Chris Wilmer'
_symmetry_space_group_name_H-M	'P1'
_symmetry_Int_Tables_number	1
_symmetry_cell_setting	triclinic
loop_
_symmetry_equiv_pos_as_xyz
  x,y,z
_cell_length_a	16.959455
_cell_length_b	19.120786
_cell_length_c	16.959447
_cell_angle_alpha	87.526589
_cell_angle_beta	89.979626
_cell_angle_gamma	92.461932
loop_
_atom_site_label
_atom_site_type_symbol
_atom_site_fract_x
_atom_site_fract_y
_atom_site_fract_z
Zn1	Zn	1.194928	-0.279672	-0.433590
Zn2	Zn	1.694928	0.220328	0.066410
Zn3	Zn	1.189199	-0.397140	-0.295764
Zn4	Zn	1.689199	0.102860	0.204236
Zn5	Zn	1.062756	-0.279694	-0.301413
Zn6	Zn	1.562756	0.220306	0.198587
Zn7	Zn	1.057073	-0.397088	-0.427892
Zn8	Zn	1.557073	0.102912	0.072108
O9	O	1.125989	-0.338399	-0.364665
O10	O	1.625989	0.161601	0.135335
O11	O	1.304779	-0.295267	-0.415329
O12	O	1.804779	0.204733	0.084671
O13	O	1.172407	-0.381592	-0.185901
O14	O	1.672407	0.118408	0.314099
O15	O	1.085065	-0.181401	-0.323696
O16	O	1.585065	0.318599	0.176304
O17	O	1.300570	-0.381570	-0.314068
O18	O	1.800570	0.118430	0.185932
O19	O	1.182172	-0.181385	-0.420806
O20	O	1.682172	0.318615	0.079194
O21	O	1.079510	-0.295305	-0.190051
O22	O	1.579510	0.204695	0.309949
O23	O	0.951392	-0.295254	-0.318170
O24	O	1.451392	0.204746	0.181830
O25	O	1.075379	-0.381481	-0.539260
O26	O	1.575379	0.118519	-0.039260
O27	O	0.947216	-0.381503	-0.411093
O28	O	1.447216	0.118497	0.088907
O29	O	1.176661	-0.295216	-0.543447
O30	O	1.676661	0.204784	-0.043447
O31	O	1.166896	-0.495424	-0.308542
O32	O	1.666896	0.004576	0.191458
O33	O	1.069823	-0.495385	-0.405616
O34	O	1.569823	0.004615	0.094384
C35	C	0.920624	-0.338376	-0.364626
C36	C	1.420624	0.161624	0.135374
C37	C	0.832767	-0.338383	-0.364627
C38	C	1.332767	0.161617	0.135373
C39	C	0.459090	-0.383292	-0.311915
C40	C	0.959090	0.116708	0.188085
C41	C	0.463488	-0.293563	-0.417508
C42	C	0.963488	0.206437	0.082492
C43	C	0.546034	-0.293552	-0.417489
C44	C	1.046034	0.206448	0.082511
C45	C	0.585113	-0.338412	-0.364684
C46	C	1.085113	0.161588	0.135316
C47	C	0.541644	-0.383284	-0.311896
C48	C	1.041644	0.116716	0.188104
C49	C	0.589509	-0.248686	-0.470281
C50	C	1.089509	0.251314	0.029719
C51	C	0.672060	-0.248673	-0.470265
C52	C	1.172060	0.251327	0.029735
C53	C	0.711140	-0.293530	-0.417455
C54	C	1.211140	0.206470	0.082545
C55	C	0.667667	-0.338403	-0.364665
C56	C	1.167667	0.161597	0.135335
C57	C	0.706745	-0.383263	-0.311859
C58	C	1.206745	0.116737	0.188141
C59	C	0.663273	-0.428133	-0.259065
C60	C	1.163273	0.071867	0.240935
C61	C	0.580724	-0.428141	-0.259086
C62	C	1.080724	0.071859	0.240914
C63	C	0.793689	-0.293523	-0.417433
C64	C	1.293689	0.206477	0.082567
C65	C	0.789299	-0.383255	-0.311840
C66	C	1.289299	0.116745	0.188160
C67	C	1.117143	-0.520890	-0.355865
C68	C	1.617143	-0.020890	0.144135
C69	C	1.113431	-0.598960	-0.352127
C70	C	1.613431	-0.098960	0.147873
C71	C	1.162207	-0.635569	-0.400972
C72	C	1.662207	-0.135569	0.099028
C73	C	1.158716	-0.708925	-0.397461
C74	C	1.658716	-0.208925	0.102539
C75	C	1.106452	-0.745670	-0.345100
C76	C	1.606452	-0.245670	0.154900
C77	C	1.057670	-0.709056	-0.296253
C78	C	1.557670	-0.209056	0.203747
C79	C	1.061158	-0.635702	-0.299769
C80	C	1.561158	-0.135702	0.200231
C81	C	1.093391	-0.967156	-0.331957
C82	C	1.593391	-0.467156	0.168043
C83	C	1.089908	-1.040515	-0.328444
C84	C	1.589908	-0.540515	0.171556
C85	C	1.190954	-1.040379	-0.429653
C86	C	1.690954	-0.540379	0.070347
C87	C	1.194440	-0.967023	-0.433160
C88	C	1.694440	-0.467023	0.066840
C89	C	1.145655	-0.930416	-0.384316
C90	C	1.645655	-0.430416	0.115684
C91	C	1.102884	-0.820651	-0.341508
C92	C	1.602884	-0.320651	0.158492
C93	C	1.149220	-0.855436	-0.387913
C94	C	1.649220	-0.355436	0.112087
C95	C	1.332156	-0.338422	-0.364704
C96	C	1.832156	0.161578	0.135296
C97	C	1.420012	-0.338432	-0.364721
C98	C	1.920012	0.161568	0.135279
C99	C	1.126025	-0.338341	-0.570836
C100	C	1.626025	0.161659	-0.070836
C101	C	1.126040	-0.338316	-0.658694
C102	C	1.626040	0.161684	-0.158694
C103	C	1.134891	-0.155195	-0.373516
C104	C	1.634891	0.344805	0.126484
C105	C	1.138685	-0.077124	-0.377289
C106	C	1.638685	0.422876	0.122711
C107	C	1.073405	-0.383156	-1.027996
C108	C	1.573405	0.116844	-0.527996
C109	C	1.178871	-0.293328	-1.032351
C110	C	1.678871	0.206672	-0.532351
C111	C	1.178849	-0.293342	-0.949804
C112	C	1.678849	0.206658	-0.449804
C113	C	1.126105	-0.338265	-0.906349
C114	C	1.626105	0.161735	-0.406349
C115	C	1.073383	-0.383173	-0.945441
C116	C	1.573383	0.116827	-0.445441
C117	C	1.231576	-0.248440	-0.910706
C118	C	1.731576	0.251560	-0.410706
C119	C	1.231557	-0.248454	-0.828154
C120	C	1.731557	0.251546	-0.328154
C121	C	1.178808	-0.293374	-0.784698
C122	C	1.678808	0.206626	-0.284698
C123	C	1.126084	-0.338283	-0.823795
C124	C	1.626084	0.161717	-0.323795
C125	C	1.073340	-0.383206	-0.780340
C126	C	1.573340	0.116794	-0.280340
C127	C	1.020610	-0.428112	-0.819436
C128	C	1.520610	0.071888	-0.319436
C129	C	1.020635	-0.428093	-0.901985
C130	C	1.520635	0.071907	-0.401985
C131	C	1.178784	-0.293393	-0.702149
C132	C	1.678784	0.206607	-0.202149
C133	C	1.073318	-0.383224	-0.697786
C134	C	1.573318	0.116776	-0.197786
C135	C	1.126001	-0.338406	-0.159298
C136	C	1.626001	0.161594	0.340702
C137	C	1.126149	-0.338233	-0.071450
C138	C	1.626149	0.161767	0.428550
H139	H	0.829080	-0.256992	-0.460419
H140	H	1.329080	0.243008	0.039581
H141	H	0.557685	-0.212168	-0.513278
H142	H	1.057685	0.287832	-0.013278
H143	H	0.821110	-0.419783	-0.268836
H144	H	1.321110	0.080217	0.231164
H145	H	1.274492	-0.211888	-0.796330
H146	H	1.774492	0.288112	-0.296330
O147	O	1.006830	-0.744640	-0.245370
O148	O	1.506830	-0.244640	0.254630
C149	C	0.964540	-0.696595	-0.202999
C150	C	1.464540	-0.196595	0.297001
H151	H	0.964268	-0.644289	-0.237880
H152	H	1.464268	-0.144289	0.262120
H153	H	0.901258	-0.717840	-0.193486
H154	H	1.401258	-0.217840	0.306514
H155	H	0.993894	-0.688807	-0.143369
H156	H	1.493894	-0.188807	0.356631
H157	H	1.236998	-0.937107	-0.475796
H158	H	1.736998	-0.437107	0.024204
H159	H	0.545322	-0.464671	-0.216103
H160	H	1.045322	0.035329	0.283897
O161	O	1.282920	-0.204880	-0.952873
O162	O	1.782920	0.295120	-0.452873
C163	C	1.360947	-0.220236	-0.931954
C164	C	1.860947	0.279764	-0.431954
H165	H	1.362203	-0.276355	-0.906549
H166	H	1.862203	0.223645	-0.406549
H167	H	1.400305	-0.214177	-0.986539
H168	H	1.900305	0.285823	-0.486539
H169	H	1.383428	-0.182594	-0.885860
H170	H	1.883428	0.317406	-0.385860
H171	H	1.021438	-0.605896	-0.259995
H172	H	1.521438	-0.105896	0.240005
O173	O	0.714166	-0.205018	-0.521570
O174	O	1.214166	0.294982	-0.021570
C175	C	0.661971	-0.165440	-0.568195
C176	C	1.161971	0.334560	-0.068195
H177	H	0.603225	-0.162984	-0.535958
H178	H	1.103225	0.337016	-0.035958
H179	H	0.688496	-0.110104	-0.579387
H180	H	1.188496	0.389896	-0.079387
H181	H	0.651986	-0.191226	-0.626940
H182	H	1.151986	0.308774	-0.126940
O183	O	1.199881	-0.819667	-0.438816
O184	O	1.699881	-0.319667	0.061184
C185	C	1.156860	-0.777251	-0.491868
C186	C	1.656860	-0.277251	0.008132
H187	H	1.097492	-0.766330	-0.464457
H188	H	1.597492	-0.266330	0.035543
H189	H	1.191497	-0.725635	-0.504959
H190	H	1.691497	-0.225635	-0.004959
H191	H	1.146803	-0.805489	-0.549086
H192	H	1.646803	-0.305489	-0.049086
O193	O	1.039246	-1.076240	-0.277491
O194	O	1.539246	-0.576240	0.222509
C195	C	1.082266	-1.118676	-0.224460
C196	C	1.582266	-0.618676	0.275540
H197	H	1.145575	-1.096524	-0.220703
H198	H	1.645575	-0.596524	0.279297
H199	H	1.053675	-1.119564	-0.163559
H200	H	1.553675	-0.619564	0.336441
H201	H	1.082336	-1.174255	-0.246235
H202	H	1.582336	-0.674255	0.253765
O203	O	1.230214	-0.249767	-1.074518
O204	O	1.730214	0.250233	-0.574518
C205	C	1.308242	-0.265116	-1.053593
C206	C	1.808242	0.234884	-0.553593
H207	H	1.309502	-0.321233	-1.028183
H208	H	1.809502	0.178767	-0.528183
H209	H	1.347603	-0.259059	-1.108177
H210	H	1.847603	0.240941	-0.608177
H211	H	1.330717	-0.227470	-1.007502
H212	H	1.830717	0.272530	-0.507502
H213	H	0.695101	-0.464662	-0.216074
H214	H	1.195101	0.035338	0.283926
H215	H	0.431665	-0.257044	-0.460504
H216	H	0.931665	0.242956	0.039496
H217	H	1.221717	-0.256833	-0.670320
H218	H	1.721717	0.243167	-0.170320
O219	O	1.022221	-0.426874	-1.065876
O220	O	1.522221	0.073126	-0.565876
C221	C	1.036103	-0.496886	-1.042335
C222	C	1.536103	0.003114	-0.542335
H223	H	1.066406	-0.498359	-0.982333
H224	H	1.566406	0.001641	-0.482333
H225	H	0.977526	-0.528375	-1.037977
H226	H	1.477526	-0.028375	-0.537977
H227	H	1.075600	-0.520538	-1.087657
H228	H	1.575600	-0.020538	-0.587657
O229	O	0.416828	-0.426953	-0.260743
O230	O	0.916828	0.073047	0.239257
C231	C	0.366892	-0.472361	-0.303479
C232	C	0.866892	0.027639	0.196521
H233	H	0.391589	-0.476766	-0.365509
H234	H	0.891589	0.023234	0.134491
H235	H	0.363330	-0.526384	-0.272186
H236	H	0.863330	-0.026384	0.227814
H237	H	0.305380	-0.450653	-0.307299
H238	H	0.805380	0.049347	0.192701
O239	O	1.045924	-0.931573	-0.284619
O240	O	1.545924	-0.431573	0.215381
C241	C	0.996865	-0.889141	-0.331596
C242	C	1.496865	-0.389141	0.168404
H243	H	0.990893	-0.911208	-0.392790
H244	H	1.490893	-0.411208	0.107210
H245	H	0.936091	-0.888378	-0.302980
H246	H	1.436091	-0.388378	0.197020
H247	H	1.023939	-0.833525	-0.337003
H248	H	1.523939	-0.333525	0.162997
O249	O	1.206135	-0.744569	-0.444788
O250	O	1.706135	-0.244569	0.055212
C251	C	1.255204	-0.786978	-0.397794
C252	C	1.755204	-0.286978	0.102206
H253	H	1.226832	-0.798016	-0.337338
H254	H	1.726832	-0.298016	0.162662
H255	H	1.263324	-0.838537	-0.427524
H256	H	1.763324	-0.338537	0.072476
H257	H	1.315134	-0.758674	-0.390519
H258	H	1.815134	-0.258674	0.109481
O259	O	1.212890	-0.599908	-0.451948
O260	O	1.712890	-0.099908	0.048052
C261	C	1.194721	-0.617813	-0.529850
C262	C	1.694721	-0.117813	-0.029850
H263	H	1.130612	-0.638022	-0.532804
H264	H	1.630612	-0.138022	-0.032804
H265	H	1.203796	-0.569545	-0.571222
H266	H	1.703796	-0.069545	-0.071222
H267	H	1.235063	-0.660350	-0.548517
H268	H	1.735063	-0.160350	-0.048517
H269	H	1.030360	-0.419800	-0.662411
H270	H	1.530360	0.080200	-0.162411
O271	O	1.052162	-0.856268	-0.290534
O272	O	1.552162	-0.356268	0.209466
C273	C	1.070356	-0.838396	-0.212627
C274	C	1.570356	-0.338396	0.287373
H275	H	1.103273	-0.785114	-0.213571
H276	H	1.603273	-0.285114	0.286429
H277	H	1.013451	-0.835952	-0.177240
H278	H	1.513451	-0.335952	0.322760
H279	H	1.109052	-0.879668	-0.184074
H280	H	1.609052	-0.379668	0.315926
H281	H	0.977670	-0.464692	-0.784044
H282	H	1.477670	0.035308	-0.284044
O283	O	1.238217	-1.075975	-0.477184
O284	O	1.738217	-0.575975	0.022816
C285	C	1.191158	-1.118419	-0.526140
C286	C	1.691158	-0.618419	-0.026140
H287	H	1.129951	-1.096351	-0.532012
H288	H	1.629951	-0.596351	-0.032012
H289	H	1.219664	-1.119197	-0.586964
H290	H	1.719664	-0.619197	-0.086964
H291	H	1.185805	-1.174029	-0.499032
H292	H	1.685805	-0.674029	0.000968
H293	H	0.977708	-0.464656	-0.933824
H294	H	1.477708	0.035344	-0.433824
