data_functionalizedCrystal
_audit_creation_method	'MofGen! by Chris Wilmer'
_symmetry_space_group_name_H-M	'P1'
_symmetry_Int_Tables_number	1
_symmetry_cell_setting	triclinic
loop_
_symmetry_equiv_pos_as_xyz
  x,y,z
_cell_length_a	8.559649
_cell_length_b	9.565339
_cell_length_c	8.559649
_cell_angle_alpha	89.998090
_cell_angle_beta	69.778664
_cell_angle_gamma	90.002743
loop_
_atom_site_label
_atom_site_type_symbol
_atom_site_fract_x
_atom_site_fract_y
_atom_site_fract_z
O1	O	2.126882	0.116238	-0.055047
O2	O	1.651397	0.116243	0.028735
O3	O	1.931030	0.116239	-0.250898
O4	O	1.847249	0.116243	0.224586
O5	O	1.931009	-0.116281	-0.250880
O6	O	1.651376	-0.116277	0.028753
O7	O	2.126860	-0.116282	-0.055029
Zn8	Zn	1.889115	-0.153197	-0.013135
Zn9	Zn	1.889143	0.153158	-0.013159
O10	O	1.847227	-0.116277	0.224604
C11	C	1.591077	-0.000016	0.035093
C12	C	1.411378	-0.000014	0.053992
N13	N	1.889107	-0.362276	-0.013121
C14	C	1.759756	-0.453477	0.116166
C15	C	1.902491	-0.546658	0.129655
C16	C	1.746434	-0.546651	-0.026606
C17	C	2.031907	-0.453405	0.000432
C18	C	1.875762	-0.453390	-0.155881
C19	C	2.018610	-0.546529	-0.142467
C20	C	2.187180	-0.000020	-0.061387
C21	C	2.366879	-0.000013	-0.080286
C22	C	1.937369	-0.000019	-0.311198
C23	C	1.956268	-0.000011	-0.490898
N24	N	1.889165	0.362238	-0.013187
C25	C	1.840889	-0.000017	0.284904
C26	C	1.821990	-0.000015	0.464604
H27	H	1.466258	-0.000007	-0.209705
H28	H	2.085696	-0.000024	-0.590286
C29	C	1.277126	-0.000011	0.228840
H30	H	1.169906	-0.000017	0.219038
H31	H	1.289327	0.081071	0.287669
H32	H	1.289308	-0.081108	0.287672
C33	C	2.194948	-0.398324	0.016005
H34	H	2.263033	-0.474987	0.022425
H35	H	2.170136	-0.343059	0.113797
H36	H	2.252274	-0.342959	-0.078623
C37	C	1.647147	-0.000008	-0.401160
H38	H	1.565441	-0.000021	-0.453170
H39	H	1.634069	0.081080	-0.333759
H40	H	1.634057	-0.081100	-0.333743
H41	H	1.650445	-0.412621	0.225578
H42	H	1.913819	-0.587624	0.250353
H43	H	2.128130	-0.587129	-0.251848
H44	H	1.864383	-0.412391	-0.276534
C45	C	1.583413	-0.601969	-0.042002
H46	H	1.491610	-0.570088	0.049963
H47	H	1.585007	-0.701269	-0.042944
H48	H	1.573035	-0.568643	-0.142512
