data_functionalizedCrystal
_audit_creation_method	'MofGen! by Chris Wilmer'
_symmetry_space_group_name_H-M	'P1'
_symmetry_Int_Tables_number	1
_symmetry_cell_setting	triclinic
loop_
_symmetry_equiv_pos_as_xyz
  x,y,z
_cell_length_a	10.723023
_cell_length_b	11.792241
_cell_length_c	9.798715
_cell_angle_alpha	90.003545
_cell_angle_beta	90.003564
_cell_angle_gamma	84.330482
loop_
_atom_site_label
_atom_site_type_symbol
_atom_site_fract_x
_atom_site_fract_y
_atom_site_fract_z
O1	O	1.656767	0.159188	0.113488
O2	O	2.156767	0.659188	0.613488
O3	O	1.293574	0.174427	0.113491
O4	O	1.793574	0.674427	0.613491
O5	O	1.483984	0.001656	0.113480
O6	O	1.983984	0.501656	0.613480
O7	O	1.466357	0.331959	0.113499
O8	O	1.966357	0.831959	0.613499
O9	O	1.483970	0.001655	-0.113502
O10	O	1.983970	0.501655	0.386498
O11	O	1.293560	0.174426	-0.113491
O12	O	1.793560	0.674426	0.386509
O13	O	1.656752	0.159187	-0.113494
O14	O	2.156752	0.659187	0.386506
Zn15	Zn	1.475154	0.166806	-0.149531
Zn16	Zn	1.975154	0.666806	0.350469
Zn17	Zn	1.475172	0.166808	0.149528
Zn18	Zn	1.975172	0.666808	0.649528
O19	O	1.466342	0.331958	-0.113483
O20	O	1.966342	0.831958	0.386517
C21	C	1.247070	0.173318	0.000001
C22	C	1.747070	0.673318	0.500001
C23	C	1.108525	0.170000	0.000002
C24	C	1.608525	0.670000	0.500002
C25	C	0.903562	0.165092	-0.117577
C26	C	1.403562	0.665092	0.382423
C27	C	1.046756	0.168521	-0.117581
C28	C	1.546756	0.668521	0.382419
C29	C	1.482870	-0.040638	-0.000011
C30	C	1.982870	0.459362	0.499989
C31	C	1.479555	-0.166658	-0.000009
C32	C	1.979555	0.333342	0.499991
C33	C	1.473461	-0.397384	0.000014
C34	C	1.973461	0.102616	0.500014
C35	C	1.476847	-0.268991	0.000001
C36	C	1.976847	0.231009	0.500001
C37	C	1.703256	0.160296	-0.000001
C38	C	2.203256	0.660296	0.499999
C39	C	1.841802	0.163614	0.000007
C40	C	2.341802	0.663614	0.500007
C41	C	1.467457	0.374252	0.000011
C42	C	1.967457	0.874252	0.500011
C43	C	1.470771	0.500273	0.000018
C44	C	1.970771	1.000273	0.500018
N45	N	1.475150	0.166804	-0.353631
N46	N	1.975150	0.666804	0.146369
C47	C	1.547741	0.232620	-0.421405
C48	C	2.047741	0.732620	0.078595
C49	C	1.547761	0.232619	-0.578568
C50	C	2.047761	0.732619	-0.078568
N51	N	1.475186	0.166801	0.353628
N52	N	1.975186	0.666801	0.853628
H53	H	1.055420	0.168726	0.100675
H54	H	1.555420	0.668726	0.600675
C55	C	0.975014	0.264525	0.143359
C56	C	1.475014	0.764525	0.643359
C57	C	0.913523	0.165333	0.135908
C58	C	1.413523	0.665333	0.635908
H59	H	1.019295	0.265580	0.227258
H60	H	1.519295	0.765580	0.727258
H61	H	0.915155	0.329368	0.138301
H62	H	1.415155	0.829368	0.638301
H63	H	1.032311	0.265885	0.069579
H64	H	1.532311	0.765885	0.569579
H65	H	0.856219	0.163976	0.209683
H66	H	1.356219	0.663976	0.709683
H67	H	0.973388	0.100472	0.140980
H68	H	1.473388	0.600472	0.640980
H69	H	1.609879	0.288963	-0.363077
H70	H	2.109879	0.788963	0.136923
H71	H	1.609902	0.288972	-0.636852
H72	H	2.109902	0.788972	-0.136852
H73	H	0.850426	0.163826	-0.218242
H74	H	1.350426	0.663826	0.281758
H75	H	1.413021	0.110454	-0.411958
H76	H	1.913021	0.610454	0.088042
H77	H	1.413029	0.110456	-0.588097
H78	H	1.913029	0.610456	-0.088097
H79	H	1.099869	0.169787	-0.218249
H80	H	1.599869	0.669787	0.281751
