data_functionalizedCrystal
_audit_creation_method	'MofGen! by Chris Wilmer'
_symmetry_space_group_name_H-M	'P1'
_symmetry_Int_Tables_number	1
_symmetry_cell_setting	triclinic
loop_
_symmetry_equiv_pos_as_xyz
  x,y,z
_cell_length_a	12.594517
_cell_length_b	29.839131
_cell_length_c	12.594510
_cell_angle_alpha	90.041088
_cell_angle_beta	90.021120
_cell_angle_gamma	90.041220
loop_
_atom_site_label
_atom_site_type_symbol
_atom_site_fract_x
_atom_site_fract_y
_atom_site_fract_z
Zn1	Zn	1.627077	-0.178815	0.601810
Zn2	Zn	1.626890	-0.253958	0.423811
Zn3	Zn	1.449082	-0.178842	0.423839
Zn4	Zn	1.448984	-0.253919	0.601741
O5	O	1.538008	-0.216383	0.512800
O6	O	1.775998	-0.188788	0.578215
O7	O	1.603266	-0.244021	0.274869
O8	O	1.472812	-0.115972	0.447488
O9	O	1.775860	-0.243995	0.447440
O10	O	1.603585	-0.115952	0.578243
O11	O	1.472631	-0.188834	0.274889
O12	O	1.300123	-0.188796	0.447421
O13	O	1.472647	-0.243928	0.750696
O14	O	1.300052	-0.243954	0.578124
O15	O	1.603491	-0.188750	0.750747
O16	O	1.603171	-0.316820	0.447373
O17	O	1.472465	-0.316791	0.578097
C18	C	1.261467	-0.216374	0.512769
C19	C	1.143162	-0.216381	0.512781
C20	C	1.073917	-0.186340	0.441827
C21	C	1.003063	-0.227320	0.415635
C22	C	1.003217	-0.175421	0.538990
C23	C	1.073866	-0.257383	0.486538
C24	C	1.074026	-0.205456	0.609939
C25	C	1.003204	-0.246465	0.583784
C26	C	1.537816	-0.333106	0.512747
C27	C	1.537831	-0.383040	0.512760
C28	C	1.606191	-0.692686	0.444831
C29	C	1.606322	-0.880359	0.444873
O30	O	1.664292	-0.904626	0.387076
N31	N	1.538229	-0.903825	0.512880
C32	C	1.470103	-0.880371	0.580888
O33	O	1.412196	-0.904636	0.638741
C34	C	1.469978	-0.692698	0.580851
C35	C	1.538068	-0.669235	0.512831
C36	C	1.674276	-0.669222	0.376818
C37	C	1.674239	-0.622307	0.376804
C38	C	1.606116	-0.598855	0.444804
C39	C	1.538030	-0.622319	0.512817
C40	C	1.401858	-0.669244	0.648863
C41	C	1.401835	-0.622323	0.648849
C42	C	1.469925	-0.598860	0.580830
C43	C	1.469870	-0.551952	0.580803
N44	N	1.537963	-0.528486	0.512796
C45	C	1.606086	-0.551937	0.444796
C46	C	1.470172	-0.978901	0.580901
C47	C	1.470202	-1.025819	0.580909
C48	C	1.606423	-1.025804	0.444895
C49	C	1.606387	-0.978886	0.444882
C50	C	1.538265	-0.955435	0.512893
C51	C	1.606001	-0.453412	0.444772
C52	C	1.605954	-0.406492	0.444761
C53	C	1.469738	-0.406511	0.580778
C54	C	1.469780	-0.453426	0.580785
C55	C	1.537920	-0.476876	0.512779
O56	O	1.411939	-0.527656	0.638578
O57	O	1.664001	-0.527664	0.386968
C58	C	1.606228	-0.739602	0.444845
C59	C	1.538143	-0.763065	0.512859
C60	C	1.470020	-0.739614	0.580858
C61	C	1.538173	-0.809983	0.512867
C62	C	1.606296	-0.833435	0.444867
C63	C	1.674389	-0.809969	0.376859
C64	C	1.674351	-0.763053	0.376846
C65	C	1.401927	-0.763080	0.648866
C66	C	1.401969	-0.809996	0.648873
C67	C	1.470092	-0.833447	0.580874
C68	C	1.815629	-0.216393	0.512832
C69	C	1.933935	-0.216397	0.512846
C70	C	1.538079	-0.216332	0.790421
C71	C	1.538109	-0.216309	0.908727
C72	C	1.538230	-0.099205	0.512876
C73	C	1.538325	-0.049271	0.512909
C74	C	1.538000	-0.216403	0.236259
C75	C	1.538176	-0.216298	0.117954
C76	C	1.609296	-0.186296	0.978008
C77	C	1.512231	-0.175299	1.048802
C78	C	1.635230	-0.227275	1.048732
C79	C	1.440992	-0.205292	0.977963
C80	C	1.564057	-0.257286	0.977887
C81	C	1.466925	-0.246305	1.048649
H82	H	0.971895	-0.236570	0.333498
O83	O	1.395139	-0.276571	1.085613
C84	C	1.396553	-0.276480	1.197553
H85	H	1.476227	-0.263122	1.226708
H86	H	1.384599	-0.312100	1.227979
H87	H	1.329979	-0.254145	1.228491
O88	O	0.966242	-0.134103	0.565600
C89	C	1.003969	-0.122337	0.667288
H90	H	1.024926	-0.154019	0.713254
H91	H	0.939791	-0.103049	0.711815
H92	H	1.077696	-0.100428	0.659023
O93	O	1.335611	-0.692051	0.714793
C94	C	1.266919	-0.719252	0.654165
H95	H	1.260365	-0.705151	0.570321
H96	H	1.184994	-0.719802	0.692603
H97	H	1.299851	-0.754798	0.650545
H98	H	1.661401	-0.387389	0.389367
H99	H	1.105220	-0.196194	0.692051
H100	H	1.669391	-0.160900	0.946986
O101	O	1.335561	-0.599614	0.714954
C102	C	1.275500	-0.630388	0.775007
H103	H	1.271861	-0.663848	0.731410
H104	H	1.191623	-0.616866	0.786293
H105	H	1.314447	-0.635335	0.855875
H106	H	1.358863	-0.195973	0.947007
H107	H	1.104965	-0.160960	0.381749
O108	O	1.110904	-0.298697	0.459979
C109	C	1.222847	-0.298188	0.460249
H110	H	1.252187	-0.262380	0.448554
H111	H	1.253685	-0.320207	0.393005
H112	H	1.253189	-0.311564	0.539404
O113	O	1.590429	-0.298607	0.940739
C114	C	1.692887	-0.310049	0.976755
H115	H	1.738875	-0.278215	0.996684
H116	H	1.736487	-0.329346	0.911937
H117	H	1.686152	-0.331840	1.050766
H118	H	1.661490	-0.472498	0.389396
H119	H	1.729686	-0.603205	0.321420
H120	H	1.717336	-0.236553	1.079822
O121	O	1.403602	-0.476152	0.646955
C122	C	1.343445	-0.445390	0.706947
H123	H	1.387008	-0.411923	0.710651
H124	H	1.332063	-0.458917	0.790806
H125	H	1.262622	-0.440454	0.667897
H126	H	0.972352	-0.271906	0.643816
O127	O	1.335786	-0.832716	0.715052
C128	C	1.275639	-0.801950	0.775045
H129	H	1.319211	-0.768485	0.778746
H130	H	1.264257	-0.815477	0.858905
H131	H	1.194816	-0.797011	0.735998
O132	O	1.740488	-0.691929	0.310654
C133	C	1.800585	-0.661149	0.250653
H134	H	1.756960	-0.627726	0.246941
H135	H	1.811991	-0.674721	0.166797
H136	H	1.881400	-0.656112	0.289699
H137	H	1.414270	-0.387409	0.636139
H138	H	1.661891	-1.044907	0.389527
O139	O	1.672481	-0.956144	0.378666
C140	C	1.649264	-0.967647	0.272564
H141	H	1.608362	-1.001728	0.270330
H142	H	1.726107	-0.969240	0.224907
H143	H	1.594550	-0.941274	0.236656
O144	O	1.404017	-1.048540	0.647075
C145	C	1.343872	-1.017774	0.707069
H146	H	1.387450	-0.984311	0.710780
H147	H	1.332479	-1.031303	0.790926
H148	H	1.263053	-1.012830	0.668016
H149	H	1.729797	-0.743952	0.321458
O150	O	1.740704	-0.832768	0.310970
C151	C	1.809406	-0.859856	0.371674
H152	H	1.815883	-0.845680	0.455505
H153	H	1.891356	-0.860361	0.333287
H154	H	1.776537	-0.895430	0.375315
O155	O	1.403936	-0.956074	0.646816
C156	C	1.335186	-0.928994	0.586149
H157	H	1.372770	-0.921971	0.505525
H158	H	1.320864	-0.895995	0.629491
H159	H	1.256333	-0.947116	0.574374
O160	O	1.335896	-0.740284	0.715034
C161	C	1.396416	-0.713083	0.783823
H162	H	1.480258	-0.727177	0.790485
H163	H	1.357865	-0.712545	0.865696
H164	H	1.400062	-0.677534	0.750916
O165	O	1.486248	-0.133927	1.085921
C166	C	1.561447	-0.102388	1.049916
H167	H	1.638909	-0.120257	1.030030
H168	H	1.576440	-0.076452	1.114725
H169	H	1.529802	-0.084951	0.975882
