data_functionalizedCrystal
_audit_creation_method	'MofGen! by Chris Wilmer'
_symmetry_space_group_name_H-M	'P1'
_symmetry_Int_Tables_number	1
_symmetry_cell_setting	triclinic
loop_
_symmetry_equiv_pos_as_xyz
  x,y,z
_cell_length_a	14.908783
_cell_length_b	17.637651
_cell_length_c	14.908662
_cell_angle_alpha	82.652360
_cell_angle_beta	83.203450
_cell_angle_gamma	103.762219
loop_
_atom_site_label
_atom_site_type_symbol
_atom_site_fract_x
_atom_site_fract_y
_atom_site_fract_z
Zn1	Zn	1.346502	-0.273292	-0.524783
Zn2	Zn	1.846502	0.226708	-0.024783
Zn3	Zn	1.307073	-0.398304	-0.342771
Zn4	Zn	1.807073	0.101696	0.157229
Zn5	Zn	1.186394	-0.273311	-0.364682
Zn6	Zn	1.686394	0.226689	0.135318
Zn7	Zn	1.160985	-0.412664	-0.481822
Zn8	Zn	1.660985	0.087336	0.018178
O9	O	1.250238	-0.339393	-0.428515
O10	O	1.750238	0.160607	0.071485
O11	O	1.469416	-0.283857	-0.509447
O12	O	1.969416	0.216143	-0.009447
O13	O	1.285197	-0.375721	-0.220481
O14	O	1.785197	0.124279	0.279519
O15	O	1.234768	-0.162671	-0.413069
O16	O	1.734768	0.337329	0.086931
O17	O	1.440447	-0.375703	-0.375724
O18	O	1.940447	0.124297	0.124276
O19	O	1.352399	-0.162657	-0.530694
O20	O	1.852399	0.337343	-0.030694
O21	O	1.196534	-0.283890	-0.236580
O22	O	1.696534	0.216110	0.263420
O23	O	1.054879	-0.297814	-0.371412
O24	O	1.554879	0.202186	0.128588
O25	O	1.191462	-0.400178	-0.612717
O26	O	1.691462	0.099822	-0.112717
O27	O	1.036211	-0.400196	-0.457475
O28	O	1.536211	0.099804	0.042525
O29	O	1.327761	-0.297782	-0.644280
O30	O	1.827761	0.202218	-0.144280
O31	O	1.260558	-0.510846	-0.334067
O32	O	1.760558	-0.010846	0.165933
O33	O	1.153228	-0.521396	-0.436228
O34	O	1.653228	-0.021396	0.063772
C35	C	1.012318	-0.350566	-0.412160
C36	C	1.512318	0.149434	0.087840
C37	C	0.910532	-0.355366	-0.405180
C38	C	1.410532	0.144634	0.094820
C39	C	0.749401	-0.268895	-0.531451
C40	C	1.249401	0.231105	-0.031451
C41	C	0.653764	-0.273402	-0.524896
C42	C	1.153764	0.226598	-0.024896
C43	C	0.623620	-0.368884	-0.385513
C44	C	1.123620	0.131116	0.114487
C45	C	0.719257	-0.364377	-0.392067
C46	C	1.219257	0.135623	0.107933
C47	C	0.782144	-0.314381	-0.465040
C48	C	1.282144	0.185619	0.034960
C49	C	0.877782	-0.309878	-0.471597
C50	C	1.377782	0.190122	0.028403
C51	C	0.847637	-0.405356	-0.332211
C52	C	1.347637	0.094644	0.167789
C53	C	0.752000	-0.409863	-0.325656
C54	C	1.252000	0.090137	0.174344
C55	C	1.199883	-0.544808	-0.378129
C56	C	1.699883	-0.044808	0.121871
C57	C	1.178426	-0.632683	-0.356610
C58	C	1.678426	-0.132683	0.143390
C59	C	1.413853	-0.921387	-0.592318
C60	C	1.913853	-0.421387	-0.092318
C61	C	1.393661	-1.003960	-0.572079
C62	C	1.893661	-0.503960	-0.072079
C63	C	1.271244	-1.004072	-0.449491
C64	C	1.771244	-0.504072	0.050509
C65	C	1.291429	-0.921498	-0.469717
C66	C	1.791429	-0.421498	0.030283
C67	C	1.362733	-0.880162	-0.541131
C68	C	1.862733	-0.380162	-0.041131
C69	C	1.240310	-0.880273	-0.418530
C70	C	1.740310	-0.380273	0.081470
C71	C	1.260490	-0.797706	-0.438757
C72	C	1.760490	-0.297706	0.061243
C73	C	1.331789	-0.756364	-0.510170
C74	C	1.831789	-0.256364	-0.010170
C75	C	1.382914	-0.797595	-0.561358
C76	C	1.882914	-0.297595	-0.061358
C77	C	1.169001	-0.921611	-0.347120
C78	C	1.669001	-0.421611	0.152880
C79	C	1.117882	-0.880386	-0.295934
C80	C	1.617882	-0.380386	0.204066
C81	C	1.138066	-0.797817	-0.316156
C82	C	1.638066	-0.297817	0.183844
C83	C	1.209365	-0.756475	-0.387569
C84	C	1.709365	-0.256475	0.112431
C85	C	1.086942	-0.756586	-0.264968
C86	C	1.586942	-0.256586	0.235032
C87	C	1.107122	-0.674019	-0.285195
C88	C	1.607122	-0.174019	0.214805
C89	C	1.229546	-0.673908	-0.407796
C90	C	1.729546	-0.173908	0.092204
C91	C	1.489087	-0.328176	-0.444933
C92	C	1.989087	0.171824	0.055067
C93	C	1.590870	-0.323396	-0.451930
C94	C	2.090870	0.176604	0.048070
C95	C	1.261175	-0.350580	-0.661868
C96	C	1.761175	0.149420	-0.161868
C97	C	1.265836	-0.355347	-0.761310
C98	C	1.765836	0.144653	-0.261310
C99	C	1.300816	-0.133175	-0.479118
C100	C	1.800816	0.366825	0.020882
C101	C	1.322369	-0.045298	-0.500682
C102	C	1.822369	0.454702	-0.000682
C103	C	1.318557	-0.409872	-0.893090
C104	C	1.818557	0.090128	-0.393090
C105	C	1.314184	-0.405397	-0.799655
C106	C	1.814184	0.094603	-0.299655
C107	C	1.221856	-0.309770	-0.816405
C108	C	1.721856	0.190230	-0.316405
C109	C	1.226230	-0.314246	-0.909840
C110	C	1.726230	0.185754	-0.409840
C111	C	1.274583	-0.364297	-0.948179
C112	C	1.774583	0.135703	-0.448179
C113	C	1.278962	-0.368768	-1.041617
C114	C	1.778962	0.131232	-0.541617
C115	C	1.186629	-0.273146	-1.058363
C116	C	1.686629	0.226854	-0.558363
C117	C	1.182256	-0.268671	-0.964929
C118	C	1.682256	0.231329	-0.464929
C119	C	1.239411	-0.328190	-0.196086
C120	C	1.739411	0.171810	0.303914
C121	C	1.234982	-0.323192	-0.096712
C122	C	1.734982	0.176808	0.403288
H123	H	1.348219	-0.689133	-0.526637
H124	H	1.848219	-0.189133	-0.026637
H125	H	1.182480	-0.269028	-0.785171
H126	H	1.682480	0.230972	-0.285171
H127	H	1.349996	-0.442505	-0.754806
H128	H	1.849996	0.057495	-0.254806
H129	H	1.318337	-0.409520	-1.072831
H130	H	1.818337	0.090480	-0.572831
H131	H	1.357936	-0.450620	-0.924308
H132	H	1.857936	0.049380	-0.424308
H133	H	0.928985	-0.269170	-0.531016
H134	H	1.428985	0.230830	-0.031016
H135	H	1.059824	-0.914053	-0.237790
H136	H	1.559824	-0.414053	0.262210
O137	O	1.130115	-0.214684	-0.923571
O138	O	1.630115	0.285316	-0.423571
H139	H	1.055757	-0.232475	-0.933225
H140	H	1.555757	0.267525	-0.433225
O141	O	1.139195	-0.223984	-1.117779
O142	O	1.639195	0.276016	-0.617779
H143	H	1.150355	-0.235505	-1.189192
H144	H	1.650355	0.264495	-0.689192
O145	O	0.684166	-0.463785	-0.246957
O146	O	1.184166	0.036215	0.253043
H147	H	0.702557	-0.445900	-0.181371
H148	H	1.202557	0.054100	0.318629
O149	O	0.817235	-0.214972	-0.610150
O150	O	1.317235	0.285028	-0.110150
H151	H	0.798839	-0.232851	-0.675737
H152	H	1.298839	0.267149	-0.175737
O153	O	0.618442	-0.224345	-0.596525
O154	O	1.118442	0.275655	-0.096525
H155	H	0.678241	-0.188829	-0.648369
H156	H	1.178241	0.311171	-0.148369
H157	H	1.435281	-1.037523	-0.613779
H158	H	1.935281	-0.537523	-0.113779
H159	H	0.572403	-0.409579	-0.326095
H160	H	1.072403	0.090421	0.173905
H161	H	0.874305	-0.442401	-0.278140
H162	H	1.374305	0.057599	0.221860
O163	O	1.306459	-0.629311	-0.484816
O164	O	1.806459	-0.129311	0.015184
H165	H	1.290119	-0.649245	-0.550062
H166	H	1.790119	-0.149245	-0.050062
H167	H	1.440984	-0.763937	-0.619505
H168	H	1.940984	-0.263937	-0.119505
O169	O	1.490762	-0.876791	-0.669341
O170	O	1.990762	-0.376791	-0.169341
H171	H	1.522922	-0.919327	-0.701542
H172	H	2.022922	-0.419327	-0.201542
O173	O	1.194353	-1.048655	-0.372455
O174	O	1.694353	-0.548655	0.127545
H175	H	1.188914	-1.112995	-0.366980
H176	H	1.688914	-0.612995	0.133020
O177	O	1.147246	-1.010665	-0.325296
O178	O	1.647246	-0.510665	0.174704
H179	H	1.126539	-1.036540	-0.386155
H180	H	1.626539	-0.536540	0.113845
O181	O	1.010044	-0.801171	-0.187938
O182	O	1.510044	-0.301171	0.312062
H183	H	1.004605	-0.865511	-0.182468
H184	H	1.504605	-0.365511	0.317532
O185	O	1.051997	-0.629545	-0.229985
O186	O	1.551997	-0.129545	0.270015
H187	H	0.999033	-0.672158	-0.176921
H188	H	1.499033	-0.172158	0.323079
