data_functionalizedCrystal
_audit_creation_method	'MofGen! by Chris Wilmer'
_symmetry_space_group_name_H-M	'P1'
_symmetry_Int_Tables_number	1
_symmetry_cell_setting	triclinic
loop_
_symmetry_equiv_pos_as_xyz
  x,y,z
_cell_length_a	14.519709
_cell_length_b	9.016244
_cell_length_c	14.519731
_cell_angle_alpha	90.007757
_cell_angle_beta	83.684499
_cell_angle_gamma	89.996765
loop_
_atom_site_label
_atom_site_type_symbol
_atom_site_fract_x
_atom_site_fract_y
_atom_site_fract_z
O1	O	1.223874	0.123151	0.120893
O2	O	1.723874	0.623151	0.620893
O3	O	0.955398	0.123196	0.135129
O4	O	1.455398	0.623196	0.635129
O5	O	1.096744	0.123159	-0.006226
O6	O	1.596744	0.623159	0.493774
O7	O	1.082528	0.123188	0.262248
O8	O	1.582528	0.623188	0.762248
O9	O	1.096738	-0.123522	-0.006236
O10	O	1.596738	0.376478	0.493764
O11	O	0.955392	-0.123484	0.135119
O12	O	1.455392	0.376516	0.635119
O13	O	1.223868	-0.123530	0.120883
O14	O	1.723868	0.376470	0.620883
Cu15	Cu	1.089629	-0.146031	0.128000
Cu16	Cu	1.589629	0.353969	0.628000
Cu17	Cu	1.089636	0.145697	0.128012
Cu18	Cu	1.589636	0.645697	0.628012
O19	O	1.082522	-0.123493	0.262238
O20	O	1.582522	0.376507	0.762238
C21	C	0.921035	-0.000138	0.134461
C22	C	1.421035	0.499862	0.634461
C23	C	0.818654	-0.000121	0.132473
C24	C	1.318654	0.499879	0.632473
N25	N	1.089631	-0.351217	0.127990
N26	N	1.589631	0.148783	0.627990
C27	C	0.443757	-0.000190	0.125153
C28	C	0.943757	0.499810	0.625153
C29	C	0.548065	-0.000170	0.127186
C30	C	1.048065	0.499830	0.627186
C31	C	0.631202	-0.000154	0.128813
C32	C	1.131202	0.499846	0.628813
C33	C	0.735517	-0.000137	0.130846
C34	C	1.235517	0.499863	0.630846
C35	C	1.165520	-0.586224	0.052631
C36	C	1.665520	-0.086224	0.552631
C37	C	1.165319	-0.414333	0.052348
C38	C	1.665319	0.085667	0.552348
C39	C	0.993379	-0.413629	0.106815
C40	C	1.493379	0.086371	0.606815
C41	C	0.993831	-0.585573	0.106287
C42	C	1.493831	-0.085573	0.606287
C43	C	1.109148	-0.585715	0.224792
C44	C	1.609148	-0.085715	0.724792
C45	C	1.111328	-0.413759	0.224143
C46	C	1.611328	0.086241	0.724143
C47	C	1.258230	-0.000192	0.121551
C48	C	1.758230	0.499808	0.621551
C49	C	1.360612	-0.000200	0.123539
C50	C	1.860612	0.499800	0.623539
C51	C	1.096075	-0.000182	-0.040591
C52	C	1.596075	0.499818	0.459409
C53	C	1.094079	-0.000182	-0.142971
C54	C	1.594079	0.499818	0.357029
N55	N	1.089642	0.350883	0.128014
N56	N	1.589642	0.850883	0.628014
C57	C	1.092457	-0.000179	-0.226115
C58	C	1.592457	0.499821	0.273885
C59	C	1.090430	-0.000167	-0.330424
C60	C	1.590430	0.499833	0.169576
C61	C	1.088822	-0.000157	-0.413563
C62	C	1.588822	0.499843	0.086437
C63	C	1.086795	-0.000148	-0.517878
C64	C	1.586795	0.499852	-0.017878
C65	C	1.083191	-0.000149	0.296603
C66	C	1.583191	0.499851	0.796603
C67	C	1.085187	-0.000138	0.398983
C68	C	1.585187	0.499862	0.898983
H69	H	1.236862	-0.372136	0.064981
H70	H	1.736862	0.127864	0.564981
H71	H	1.177844	-0.629077	0.245108
H72	H	1.677844	-0.129077	0.745108
H73	H	1.237304	-0.627574	0.065065
H74	H	1.737304	-0.127574	0.565065
H75	H	1.153222	-0.629456	-0.018778
H76	H	1.653222	-0.129456	0.481222
H77	H	0.935546	-0.372746	0.160249
H78	H	1.435546	0.127254	0.660249
H79	H	1.152838	-0.373219	-0.019471
H80	H	1.652838	0.126781	0.480529
C81	C	1.042303	-0.356390	0.302329
C82	C	1.542303	0.143610	0.802329
C83	C	0.978316	-0.263030	0.265863
C84	C	1.478316	0.236970	0.765863
C85	C	0.914700	-0.210175	0.337857
C86	C	1.414700	0.289825	0.837857
H87	H	1.074258	-0.302578	0.345234
H88	H	1.574258	0.197422	0.845234
H89	H	1.010585	-0.437690	0.332990
H90	H	1.510585	0.062310	0.832990
H91	H	1.010031	-0.181743	0.235218
H92	H	1.510031	0.318257	0.735218
H93	H	0.946339	-0.316809	0.222967
H94	H	1.446339	0.183191	0.722967
H95	H	0.882982	-0.291475	0.368517
H96	H	1.382982	0.208525	0.868517
H97	H	0.946663	-0.156370	0.380757
H98	H	1.446663	0.343630	0.880757
H99	H	0.871273	-0.146836	0.313124
H100	H	1.371273	0.353164	0.813124
H101	H	0.976664	-0.625698	0.035702
H102	H	1.476664	-0.125698	0.535702
C103	C	0.916175	-0.640769	0.176690
C104	C	1.416175	-0.140769	0.676690
C105	C	0.869062	-0.519295	0.219518
C106	C	1.369062	-0.019295	0.719518
C107	C	0.797505	-0.570077	0.284355
C108	C	1.297505	-0.070077	0.784355
H109	H	0.941484	-0.699274	0.222144
H110	H	1.441484	-0.199274	0.722144
H111	H	0.874271	-0.699098	0.146157
H112	H	1.374271	-0.199098	0.646157
H113	H	0.910959	-0.460992	0.250049
H114	H	1.410959	0.039008	0.750049
H115	H	0.843733	-0.460779	0.174088
H116	H	1.343733	0.039221	0.674088
H117	H	0.755601	-0.628405	0.253823
H118	H	1.255601	-0.128405	0.753823
H119	H	0.822822	-0.628581	0.329803
H120	H	1.322822	-0.128581	0.829803
H121	H	0.765524	-0.487666	0.313416
H122	H	1.265524	0.012334	0.813416
H123	H	1.053817	-0.626393	0.280892
H124	H	1.553817	-0.126393	0.780892
C125	C	0.969791	-0.356055	0.013856
C126	C	1.469791	0.143945	0.513856
C127	C	0.887067	-0.275148	0.026791
C128	C	1.387067	0.224852	0.526791
C129	C	0.865320	-0.222076	-0.058821
C130	C	1.365320	0.277924	0.441179
H131	H	0.962590	-0.437277	-0.026405
H132	H	1.462590	0.062723	0.473595
H133	H	1.018353	-0.293686	-0.012726
H134	H	1.518353	0.206314	0.487274
H135	H	0.838516	-0.337514	0.053360
H136	H	1.338516	0.162486	0.553360
H137	H	0.894245	-0.193905	0.067037
H138	H	1.394245	0.306095	0.567037
H139	H	0.913883	-0.159706	-0.085403
H140	H	1.413883	0.340294	0.414597
H141	H	0.858124	-0.303306	-0.099075
H142	H	1.358124	0.196694	0.400925
H143	H	0.809196	-0.167163	-0.050055
H144	H	1.309196	0.332837	0.449945
C145	C	1.205664	-0.359075	0.245608
C146	C	1.705664	0.140925	0.745608
C147	C	1.205536	-0.203861	0.248617
C148	C	1.705536	0.296139	0.748617
C149	C	1.292418	-0.153424	0.268396
C150	C	1.792418	0.346576	0.768396
H151	H	1.251936	-0.392028	0.198728
H152	H	1.751936	0.107972	0.698728
H153	H	1.218408	-0.397182	0.303877
H154	H	1.718408	0.102818	0.803877
H155	H	1.192803	-0.165768	0.190356
H156	H	1.692803	0.334232	0.690356
H157	H	1.159283	-0.170869	0.295498
H158	H	1.659283	0.329131	0.795498
H159	H	1.305162	-0.191532	0.326665
H160	H	1.805162	0.308468	0.826665
H161	H	1.338683	-0.186387	0.221514
H162	H	1.838683	0.313613	0.721514
H163	H	1.292340	-0.048108	0.270449
H164	H	1.792340	0.451892	0.770449
