data_functionalizedCrystal
_audit_creation_method	'MofGen! by Chris Wilmer'
_symmetry_space_group_name_H-M	'P1'
_symmetry_Int_Tables_number	1
_symmetry_cell_setting	triclinic
loop_
_symmetry_equiv_pos_as_xyz
  x,y,z
_cell_length_a	6.394989
_cell_length_b	10.654550
_cell_length_c	9.730223
_cell_angle_alpha	90.003749
_cell_angle_beta	89.998443
_cell_angle_gamma	85.491307
loop_
_atom_site_label
_atom_site_type_symbol
_atom_site_fract_x
_atom_site_fract_y
_atom_site_fract_z
O1	O	-0.293432	-1.670942	-0.114394
O2	O	-0.321390	-1.305759	-0.114371
O3	O	-0.003422	-1.493534	-0.114383
O4	O	-0.611400	-1.483167	-0.114381
O5	O	-0.003430	-1.493532	0.114197
O6	O	-0.321398	-1.305757	0.114209
O7	O	-0.293440	-1.670940	0.114186
Zn8	Zn	-0.307420	-1.488348	0.150490
Zn9	Zn	-0.307410	-1.488351	-0.150674
O10	O	-0.611408	-1.483165	0.114199
C11	C	-0.319341	-1.258939	-0.000078
C12	C	-0.313199	-1.119430	-0.000069
N13	N	-0.307426	-1.488355	0.356026
N14	N	-0.307387	-1.488353	-0.356210
C15	C	0.074425	-1.491483	-0.000098
C16	C	0.310751	-1.485219	-0.000099
C17	C	-0.295489	-1.717760	-0.000109
C18	C	-0.301631	-1.857269	-0.000127
C19	C	-0.500414	-1.041927	-0.000089
C20	C	-0.494630	-0.910845	-0.000112
C21	C	-0.114402	-0.934782	-0.000103
C22	C	-0.120188	-1.065861	-0.000070
C23	C	-0.719936	-1.028107	-0.000100
C24	C	-0.714152	-0.897025	-0.000124
C25	C	-0.166678	-1.571524	0.427947
C26	C	-0.166653	-1.571521	0.571830
C27	C	-0.448142	-1.405175	0.571859
C28	C	-0.448156	-1.405174	0.427979
C29	C	-0.004169	-1.667567	0.427931
C30	C	-0.004143	-1.667563	0.571814
H31	H	0.042742	-0.891149	-0.000125
H32	H	0.032261	-1.128960	-0.000034
O33	O	-0.822379	-1.064405	0.113925
C34	C	-0.827972	-1.196431	0.113757
H35	H	-0.809126	-1.233167	0.004059
H36	H	-0.694771	-1.240488	0.180088
C37	C	-1.062618	-1.186391	0.306889
C38	C	-1.039489	-1.231510	0.172154
H39	H	-1.193087	-1.208032	0.342916
H40	H	-1.058845	-1.097443	0.307006
H41	H	-0.951605	-1.223109	0.362147
H42	H	-1.150486	-1.194780	0.116894
H43	H	-1.043286	-1.320453	0.172028
O44	O	-0.802983	-1.071624	-0.117896
C45	C	-0.653280	-1.155557	-0.183413
H46	H	-0.489226	-1.135156	-0.148441
H47	H	-0.683218	-1.256452	-0.155260
C48	C	-0.872416	-1.163564	-0.383202
C49	C	-0.670920	-1.138500	-0.340258
H50	H	-0.883301	-1.153048	-0.479952
H51	H	-0.973278	-1.107021	-0.339062
H52	H	-0.897340	-1.247643	-0.359730
H53	H	-0.646009	-1.054419	-0.363715
H54	H	-0.570054	-1.195030	-0.384407
H55	H	-0.562719	-1.337450	0.630458
H56	H	-0.562745	-1.337440	0.369422
O57	O	0.187460	-1.640159	0.381252
C58	C	0.275240	-1.740986	0.300741
H59	H	0.201167	-1.831015	0.330457
H60	H	0.243871	-1.719841	0.187422
C61	C	0.604538	-1.647496	0.289230
C62	C	0.513572	-1.758074	0.325736
H63	H	0.751554	-1.658035	0.304642
H64	H	0.545398	-1.579564	0.343467
H65	H	0.578377	-1.629888	0.194799
H66	H	0.539712	-1.775672	0.420169
H67	H	0.572723	-1.826010	0.271515
O68	O	0.176900	-1.629440	0.625234
C69	C	0.274412	-1.726619	0.706702
H70	H	0.152092	-1.791774	0.742359
H71	H	0.399752	-1.782576	0.643602
C72	C	0.527085	-1.589146	0.788973
C73	C	0.376846	-1.669164	0.832776
H74	H	0.590279	-1.553706	0.866738
H75	H	0.461395	-1.523675	0.734083
H76	H	0.631515	-1.635789	0.736388
H77	H	0.272405	-1.622518	0.885345
H78	H	0.442521	-1.734626	0.887679
H79	H	-0.780498	-0.852055	0.098561
H80	H	-0.796862	-0.856169	-0.095791
H81	H	-0.055053	-1.759289	0.383299
H82	H	-0.039939	-1.764454	0.610859
