data_functionalizedCrystal
_audit_creation_method	'MofGen! by Chris Wilmer'
_symmetry_space_group_name_H-M	'P1'
_symmetry_Int_Tables_number	1
_symmetry_cell_setting	triclinic
loop_
_symmetry_equiv_pos_as_xyz
  x,y,z
_cell_length_a	13.032721
_cell_length_b	10.685980
_cell_length_c	13.033327
_cell_angle_alpha	102.064111
_cell_angle_beta	74.835977
_cell_angle_gamma	102.072709
loop_
_atom_site_label
_atom_site_type_symbol
_atom_site_fract_x
_atom_site_fract_y
_atom_site_fract_z
Zn1	Zn	-0.387551	1.987036	0.766385
Zn2	Zn	-0.545297	1.938551	0.608585
Zn3	Zn	-0.378411	1.748173	0.575311
Zn4	Zn	-0.578566	1.748052	0.775390
O5	O	-0.472456	1.855453	0.681418
O6	O	-0.398378	2.160293	0.755609
O7	O	-0.505411	1.893057	0.454397
O8	O	-0.229840	1.800201	0.582964
O9	O	-0.514274	2.124672	0.639674
O10	O	-0.236555	1.975692	0.723345
O11	O	-0.382800	1.753187	0.429952
O12	O	-0.415060	1.568468	0.591696
O13	O	-0.570976	1.799994	0.923970
O14	O	-0.562113	1.568379	0.738693
O15	O	-0.430638	1.975574	0.917353
O16	O	-0.699494	1.892939	0.648406
O17	O	-0.723936	1.752981	0.770957
C18	C	-0.491206	1.521832	0.662562
C19	C	-0.499255	1.379107	0.654524
C20	C	-0.750553	1.817724	0.714294
C21	C	-0.869521	1.801705	0.728401
C22	C	-0.910435	1.863888	0.674107
C23	C	-1.033395	1.847334	0.688686
C24	C	-0.193275	1.893368	0.648439
C25	C	-0.074304	1.909525	0.634385
C26	C	-0.505538	1.893179	0.960582
C27	C	-0.519635	1.909256	1.079545
C28	C	-0.453634	2.190377	0.700348
C29	C	-0.445614	2.333101	0.708415
C30	C	-0.465255	1.847218	1.120487
C31	C	-0.479824	1.863833	1.243442
C32	C	-0.439529	1.817862	1.403342
C33	C	-0.425436	1.801787	1.284380
H34	H	-1.089395	1.781842	0.745971
H35	H	-0.407917	1.781800	1.064513
H36	H	-1.018305	1.975028	0.577108
H37	H	-0.925525	1.736218	0.785682
C38	C	-0.835951	1.951322	0.597717
C39	C	-0.897527	2.005503	0.550469
C40	C	-0.828953	2.086065	0.480100
H41	H	-0.789609	1.901889	0.543064
H42	H	-0.794017	2.018671	0.636695
H43	H	-0.939442	1.938163	0.511492
H44	H	-0.943866	2.054958	0.605096
H45	H	-0.787019	2.153415	0.519078
H46	H	-0.782614	2.036623	0.425454
H47	H	-0.870722	2.122846	0.448041
C48	C	-0.376255	1.426017	0.778316
C49	C	-0.414069	1.404619	0.885134
C50	C	-0.350194	1.490186	0.949555
H51	H	-0.379840	1.512842	0.774774
H52	H	-0.303685	1.411733	0.753106
H53	H	-0.486620	1.418914	0.910337
H54	H	-0.410481	1.317812	0.888709
H55	H	-0.277624	1.475901	0.924346
H56	H	-0.353783	1.577004	0.946005
H57	H	-0.375835	1.475670	1.022036
C58	C	-0.556107	1.951258	1.318105
C59	C	-0.498419	2.050419	1.379743
C60	C	-0.568648	2.130989	1.448523
H61	H	-0.610661	1.901819	1.364540
H62	H	-0.588314	1.988109	1.276508
H63	H	-0.466229	2.013570	1.421337
H64	H	-0.443869	2.099889	1.333337
H65	H	-0.600855	2.167840	1.406926
H66	H	-0.623199	2.081540	1.494951
H67	H	-0.529515	2.198286	1.490345
C68	C	-0.348980	1.714663	1.209580
C69	C	-0.349701	1.715534	1.102497
C70	C	-0.279275	1.635305	1.033562
H71	H	-0.371563	1.628651	1.224681
H72	H	-0.278124	1.745681	1.220346
H73	H	-0.420541	1.684510	1.091736
H74	H	-0.327107	1.801525	1.087362
H75	H	-0.208419	1.666323	1.044328
H76	H	-0.301864	1.549300	1.048673
H77	H	-0.279747	1.635895	0.960898
C78	C	-0.595915	1.996677	1.154212
C79	C	-0.538226	2.095837	1.215850
C80	C	-0.608456	2.176408	1.284630
H81	H	-0.650469	1.947238	1.200647
H82	H	-0.628121	2.033527	1.112614
H83	H	-0.506037	2.058989	1.257444
H84	H	-0.483676	2.145307	1.169443
H85	H	-0.640662	2.213258	1.243032
H86	H	-0.663007	2.126958	1.331058
H87	H	-0.569323	2.243704	1.326452
H88	H	-0.551341	1.309299	0.602227
