data_functionalizedCrystal
_audit_creation_method	'MofGen! by Chris Wilmer'
_symmetry_space_group_name_H-M	'P1'
_symmetry_Int_Tables_number	1
_symmetry_cell_setting	triclinic
loop_
_symmetry_equiv_pos_as_xyz
  x,y,z
_cell_length_a	10.654583
_cell_length_b	23.532407
_cell_length_c	9.130313
_cell_angle_alpha	89.994125
_cell_angle_beta	90.005937
_cell_angle_gamma	96.326396
loop_
_atom_site_label
_atom_site_type_symbol
_atom_site_fract_x
_atom_site_fract_y
_atom_site_fract_z
O1	O	-1.665273	0.080072	-0.122010
O2	O	-1.299559	0.087673	-0.121972
O3	O	-1.493444	0.001014	-0.121965
O4	O	-1.471388	0.166732	-0.122016
O5	O	-1.493442	0.001016	0.121634
O6	O	-1.299556	0.087675	0.121627
O7	O	-1.665270	0.080075	0.121589
Cu8	Cu	-1.482413	0.083875	0.143851
Cu9	Cu	-1.482416	0.083873	-0.144233
O10	O	-1.471385	0.166734	0.121583
C11	C	-1.252778	0.087112	-0.000167
C12	C	-1.113390	0.085431	-0.000151
C13	C	-1.047884	0.084648	0.132627
C14	C	-0.916913	0.083072	0.132611
C15	C	-0.916965	0.083065	-0.132974
C16	C	-1.047935	0.084637	-0.132956
C17	C	-1.047851	0.084654	0.285961
C18	C	-0.916880	0.083078	0.285944
C19	C	-1.492881	-0.020205	-0.000162
C20	C	-1.491192	-0.083433	-0.000150
C21	C	-1.595338	-0.481852	-0.000241
C22	C	-1.593769	-0.541263	-0.000252
O23	O	-1.690313	-0.577373	-0.000316
N24	N	-1.478505	-0.564646	-0.000239
C25	C	-1.364801	-0.528615	-0.000230
O26	O	-1.266616	-0.553960	-0.000221
C27	C	-1.366371	-0.469206	-0.000230
C28	C	-1.481643	-0.445826	-0.000228
C29	C	-1.710601	-0.458472	-0.000241
C30	C	-1.712169	-0.399065	-0.000227
C31	C	-1.598474	-0.363039	-0.000214
C32	C	-1.483212	-0.386420	-0.000214
C33	C	-1.252669	-0.433176	-0.000231
C34	C	-1.254249	-0.373764	-0.000232
C35	C	-1.369521	-0.350384	-0.000230
C36	C	-1.371085	-0.290987	-0.000187
N37	N	-1.486350	-0.267604	-0.000200
C38	C	-1.600044	-0.303630	-0.000213
C39	C	-1.361513	-0.653380	-0.000234
C40	C	-1.359942	-0.712788	-0.000224
C41	C	-1.588910	-0.725431	-0.000249
C42	C	-1.590480	-0.666022	-0.000248
C43	C	-1.476778	-0.629996	-0.000247
C44	C	-1.603329	-0.178871	-0.000183
C45	C	-1.604887	-0.119459	-0.000164
C46	C	-1.375919	-0.106821	-0.000147
C47	C	-1.374360	-0.166228	-0.000159
C48	C	-1.488076	-0.202252	-0.000182
O49	O	-1.274592	-0.254842	-0.000129
O50	O	-1.698214	-0.278277	-0.000241
C51	C	-0.712054	0.080627	-0.000204
C52	C	-0.851449	0.082284	-0.000185
C53	C	-1.471948	0.187953	-0.000224
C54	C	-1.473637	0.251181	-0.000245
N55	N	-1.482420	0.083877	0.346473
N56	N	-1.482419	0.083866	-0.346856
C57	C	-1.568294	0.045517	0.423128
C58	C	-1.568291	0.045510	0.576465
C59	C	-1.396536	0.122228	0.576479
C60	C	-1.396534	0.122232	0.423145
C61	C	-1.667459	0.001227	0.423122
C62	C	-1.667456	0.001220	0.576459
H63	H	-1.076109	0.126188	0.333522
H64	H	-0.869347	0.122434	0.344800
C65	C	-1.233143	-0.738499	-0.000214
H66	H	-1.165662	-0.708530	-0.000215
H67	H	-1.227760	-0.761419	0.084727
H68	H	-1.227770	-0.761404	-0.085180
H69	H	-1.806035	-0.380035	-0.000232
H70	H	-1.161657	-0.344434	-0.000233
C71	C	-1.302082	0.164429	0.338822
H72	H	-1.314376	0.158938	0.236520
H73	H	-1.315242	0.202492	0.363954
H74	H	-1.218351	0.157883	0.363954
C75	C	-1.236432	-0.613756	-0.000205
H76	H	-1.167568	-0.636195	-0.000183
H77	H	-1.232270	-0.590311	-0.085148
H78	H	-1.232284	-0.590324	0.084760
H79	H	-1.647404	-0.042545	0.381518
C80	C	-1.125868	-0.458881	-0.000246
H81	H	-1.058393	-0.428910	-0.000257
H82	H	-1.120472	-0.481800	0.084695
H83	H	-1.120500	-0.481786	-0.085212
H84	H	-1.684345	-0.646990	-0.000248
H85	H	-0.888608	0.041546	0.333538
C86	C	-1.302076	0.164418	0.660821
H87	H	-1.314379	0.158924	0.763121
H88	H	-1.218352	0.157877	0.635701
H89	H	-1.315243	0.202486	0.635689
C90	C	-1.790044	0.019964	0.358843
H91	H	-1.844638	0.028302	0.436324
H92	H	-1.770483	0.053123	0.300277
H93	H	-1.830653	-0.009984	0.300288
C94	C	-1.835676	-0.498092	-0.000244
H95	H	-1.904536	-0.475650	-0.000233
H96	H	-1.839847	-0.521531	-0.085187
H97	H	-1.839823	-0.521530	0.084720
C98	C	-1.628030	-0.054661	0.640725
H99	H	-1.610480	-0.079543	0.563239
H100	H	-1.554628	-0.046303	0.699299
H101	H	-1.694682	-0.072618	0.699271
H102	H	-1.698759	-0.100427	-0.000158
C103	C	-1.797406	0.014409	0.632672
H104	H	-1.850847	0.019844	0.551737
H105	H	-1.834128	-0.016640	0.690468
H106	H	-1.787406	0.048171	0.690474
H107	H	-1.101269	0.085265	-0.241077
C108	C	-1.713973	-0.765067	-0.000291
H109	H	-1.696520	-0.803796	-0.000311
H110	H	-1.761285	-0.757941	0.084646
H111	H	-1.761257	-0.757923	-0.085262
C112	C	-1.112037	0.031491	0.365501
H113	H	-1.049559	0.008557	0.398189
H114	H	-1.158067	0.043132	0.447248
H115	H	-1.168072	0.009980	0.300113
C116	C	-1.728412	-0.218490	-0.000197
H117	H	-1.797274	-0.196049	-0.000181
H118	H	-1.732578	-0.241925	-0.085146
H119	H	-1.732559	-0.241931	0.084761
H120	H	-1.280497	-0.185265	-0.000119
C121	C	-1.250862	-0.067188	-0.000141
H122	H	-1.181981	-0.089618	-0.000135
H123	H	-1.246732	-0.043746	-0.085088
H124	H	-1.246712	-0.043754	0.084819
H125	H	-0.863656	0.082419	-0.241099
