data_functionalizedCrystal
_audit_creation_method	'MofGen! by Chris Wilmer'
_symmetry_space_group_name_H-M	'P1'
_symmetry_Int_Tables_number	1
_symmetry_cell_setting	triclinic
loop_
_symmetry_equiv_pos_as_xyz
  x,y,z
_cell_length_a	19.077236
_cell_length_b	25.639240
_cell_length_c	19.077271
_cell_angle_alpha	87.662821
_cell_angle_beta	90.072744
_cell_angle_gamma	92.325142
loop_
_atom_site_label
_atom_site_type_symbol
_atom_site_fract_x
_atom_site_fract_y
_atom_site_fract_z
Zn1	Zn	1.058265	-0.163493	-0.440512
Zn2	Zn	1.391598	0.169840	-0.107179
Zn3	Zn	1.724931	0.503174	0.226155
Zn4	Zn	1.062887	-0.254299	-0.322981
Zn5	Zn	1.396220	0.079035	0.010352
Zn6	Zn	1.729553	0.412368	0.343685
Zn7	Zn	0.945478	-0.170516	-0.318288
Zn8	Zn	1.278811	0.162817	0.015045
Zn9	Zn	1.612145	0.496151	0.348379
Zn10	Zn	0.940707	-0.254543	-0.435722
Zn11	Zn	1.274040	0.078790	-0.102388
Zn12	Zn	1.607374	0.412123	0.230945
O13	O	1.001834	-0.210713	-0.379376
O14	O	1.335167	0.122621	-0.046042
O15	O	1.668501	0.455954	0.287291
O16	O	1.157212	-0.172497	-0.428890
O17	O	1.490545	0.160836	-0.095557
O18	O	1.823879	0.494170	0.237776
O19	O	1.051243	-0.246022	-0.224025
O20	O	1.384577	0.087312	0.109308
O21	O	1.717910	0.420645	0.442641
O22	O	0.960502	-0.096416	-0.334542
O23	O	1.293835	0.236917	-0.001208
O24	O	1.627168	0.570251	0.332125
O25	O	1.160608	-0.239212	-0.342541
O26	O	1.493941	0.094122	-0.009208
O27	O	1.827275	0.427455	0.324126
O28	O	1.043365	-0.091256	-0.424339
O29	O	1.376699	0.242077	-0.091006
O30	O	1.710032	0.575410	0.242328
O31	O	0.964983	-0.184467	-0.220577
O32	O	1.298317	0.148867	0.112756
O33	O	1.631650	0.482200	0.446090
O34	O	0.846511	-0.184704	-0.329897
O35	O	1.179844	0.148630	0.003437
O36	O	1.513177	0.481963	0.336770
O37	O	0.952370	-0.239628	-0.534691
O38	O	1.285704	0.093705	-0.201357
O39	O	1.619037	0.427038	0.131976
O40	O	0.843006	-0.246438	-0.416175
O41	O	1.176339	0.086895	-0.082842
O42	O	1.509672	0.420228	0.250492
O43	O	1.038739	-0.172734	-0.538210
O44	O	1.372073	0.160599	-0.204877
O45	O	1.705406	0.493933	0.128457
O46	O	1.046617	-0.327500	-0.337896
O47	O	1.379951	0.005834	-0.004563
O48	O	1.713284	0.339167	0.328771
O49	O	0.956852	-0.327679	-0.420726
O50	O	1.290185	0.005654	-0.087393
O51	O	1.623519	0.338988	0.245941
C52	C	0.819261	-0.216360	-0.372007
C53	C	1.152594	0.116973	-0.038674
C54	C	1.485928	0.450307	0.294660
C55	C	0.741155	-0.218788	-0.368871
C56	C	1.074488	0.114545	-0.035538
C57	C	1.407822	0.447879	0.297795
C58	C	0.702690	-0.185245	-0.412424
C59	C	1.036024	0.148088	-0.079091
C60	C	1.369357	0.481422	0.254242
C61	C	0.629301	-0.187524	-0.409472
C62	C	0.962635	0.145809	-0.076139
C63	C	1.295968	0.479143	0.257195
C64	C	0.594378	-0.223349	-0.362970
C65	C	0.927712	0.109984	-0.029637
C66	C	1.261045	0.443318	0.303697
C67	C	0.632848	-0.256893	-0.319412
C68	C	0.966182	0.076440	0.013921
C69	C	1.299515	0.409773	0.347254
C70	C	0.706236	-0.254611	-0.322362
C71	C	1.039569	0.078722	0.010972
C72	C	1.372903	0.412055	0.344305
C73	C	0.375083	-0.233891	-0.349318
C74	C	0.708416	0.099443	-0.015984
C75	C	1.041750	0.432776	0.317349
C76	C	0.301690	-0.236171	-0.346373
C77	C	0.635023	0.097162	-0.013040
C78	C	0.968357	0.430496	0.320294
C79	C	0.298148	-0.166801	-0.436432
C80	C	0.631482	0.166533	-0.103099
C81	C	0.964815	0.499866	0.230234
C82	C	0.371537	-0.164524	-0.439381
C83	C	0.704871	0.168809	-0.106047
C84	C	1.038204	0.502143	0.227286
C85	C	0.410001	-0.198067	-0.395820
C86	C	0.743334	0.135267	-0.062487
C87	C	1.076668	0.468600	0.270846
N88	N	0.519363	-0.225680	-0.359953
N89	N	0.852697	0.107653	-0.026619
N90	N	1.186030	0.440986	0.306714
N91	N	0.485015	-0.195732	-0.398835
N92	N	0.818348	0.137601	-0.065501
N93	N	1.151682	0.470934	0.267832
C94	C	1.001737	-0.346560	-0.379317
C95	C	1.335070	-0.013227	-0.045983
C96	C	1.668404	0.320107	0.287350
C97	C	1.001759	-0.404673	-0.379318
C98	C	1.335092	-0.071340	-0.045984
C99	C	1.668425	0.261993	0.287349
C100	C	1.045000	-0.762304	-0.426215
C101	C	1.378334	-0.428971	-0.092882
C102	C	1.711667	-0.095638	0.240451
C103	C	1.045021	-0.816907	-0.426230
C104	C	1.378354	-0.483574	-0.092897
C105	C	1.711687	-0.150241	0.240436
O106	O	1.081670	-0.842827	-0.466043
O107	O	1.415004	-0.509493	-0.132710
O108	O	1.748337	-0.176160	0.200623
N109	N	1.001929	-0.846947	-0.379448
N110	N	1.335262	-0.513613	-0.046114
N111	N	1.668596	-0.180280	0.287219
C112	C	0.958809	-0.822380	-0.332651
C113	C	1.292142	-0.489047	0.000682
C114	C	1.625476	-0.155714	0.334015
O115	O	0.922157	-0.852945	-0.292861
O116	O	1.255491	-0.519612	0.040473
O117	O	1.588824	-0.186278	0.373806
C118	C	0.958786	-0.767778	-0.332640
C119	C	1.292119	-0.434445	0.000693
C120	C	1.625452	-0.101111	0.334026
C121	C	1.001885	-0.737741	-0.379421
C122	C	1.335219	-0.404408	-0.046088
C123	C	1.668552	-0.071075	0.287245
C124	C	1.088096	-0.732268	-0.472993
C125	C	1.421429	-0.398934	-0.139660
C126	C	1.754763	-0.065601	0.193674
C127	C	1.088077	-0.677668	-0.472977
C128	C	1.421410	-0.344335	-0.139644
C129	C	1.754743	-0.011002	0.193690
C130	C	1.044962	-0.653105	-0.426183
C131	C	1.378295	-0.319772	-0.092850
C132	C	1.711628	0.013561	0.240484
C133	C	1.001866	-0.683142	-0.379405
C134	C	1.335199	-0.349808	-0.046072
C135	C	1.668533	-0.016475	0.287262
C136	C	0.915663	-0.743212	-0.285848
C137	C	1.248996	-0.409879	0.047485
C138	C	1.582329	-0.076546	0.380819
C139	C	0.915643	-0.688606	-0.285841
C140	C	1.248976	-0.355273	0.047492
C141	C	1.582309	-0.021939	0.380825
C142	C	0.958742	-0.658569	-0.332622
C143	C	1.292076	-0.325236	0.000711
C144	C	1.625409	0.008097	0.334044
C145	C	0.958732	-0.603979	-0.332595
C146	C	1.292065	-0.270646	0.000738
C147	C	1.625398	0.062687	0.334072
N148	N	1.001823	-0.573940	-0.379378
N149	N	1.335157	-0.240607	-0.046044
N150	N	1.668490	0.092727	0.287289
C151	C	1.044938	-0.598503	-0.426172
C152	C	1.378272	-0.265170	-0.092838
C153	C	1.711605	0.068164	0.240495
C154	C	0.958860	-0.937048	-0.332679
C155	C	1.292194	-0.603715	0.000654
C156	C	1.625527	-0.270382	0.333987
C157	C	0.958887	-0.991650	-0.332686
C158	C	1.292220	-0.658316	0.000647
C159	C	1.625554	-0.324983	0.333980
C160	C	1.045098	-0.986173	-0.426267
C161	C	1.378431	-0.652840	-0.092933
C162	C	1.711764	-0.319507	0.240400
C163	C	1.045074	-0.931571	-0.426255
C164	C	1.378408	-0.598238	-0.092922
C165	C	1.711741	-0.264904	0.240411
C166	C	1.001952	-0.907009	-0.379462
C167	C	1.335285	-0.573676	-0.046129
C168	C	1.668619	-0.240342	0.287205
C169	C	1.044895	-0.483840	-0.426134
C170	C	1.378228	-0.150507	-0.092800
C171	C	1.711562	0.182826	0.240533
C172	C	1.044874	-0.429236	-0.426111
C173	C	1.378207	-0.095903	-0.092778
C174	C	1.711540	0.237430	0.240555
C175	C	0.958661	-0.434718	-0.332534
C176	C	1.291994	-0.101384	0.000799
C177	C	1.625327	0.231949	0.334132
C178	C	0.958684	-0.489317	-0.332554
C179	C	1.292017	-0.155984	0.000780
C180	C	1.625351	0.177350	0.334113
C181	C	1.001803	-0.513877	-0.379359
C182	C	1.335137	-0.180543	-0.046026
C183	C	1.668470	0.152790	0.287307
O184	O	0.922099	-0.578024	-0.292804
O185	O	1.255432	-0.244691	0.040529
O186	O	1.588765	0.088642	0.373862
O187	O	1.081577	-0.567932	-0.465962
O188	O	1.414910	-0.234599	-0.132629
O189	O	1.748244	0.098735	0.200705
C190	C	1.185120	-0.205044	-0.386774
C191	C	1.518453	0.128290	-0.053440
C192	C	1.851787	0.461623	0.279893
C193	C	1.263225	-0.202628	-0.389926
C194	C	1.596559	0.130705	-0.056593
C195	C	1.929892	0.464039	0.276741
C196	C	0.994507	-0.205425	-0.562660
C197	C	1.327840	0.127908	-0.229327
C198	C	1.661174	0.461242	0.104007
C199	C	0.991385	-0.203172	-0.640765
C200	C	1.324718	0.130162	-0.307432
C201	C	1.658051	0.463495	0.025902
C202	C	1.001950	-0.074334	-0.379451
C203	C	1.335283	0.258999	-0.046118
C204	C	1.668617	0.592333	0.287216
C205	C	1.001999	-0.016217	-0.379483
C206	C	1.335333	0.317116	-0.046150
C207	C	1.668666	0.650449	0.287183
C208	C	0.968990	-0.187052	-1.080220
C209	C	1.302323	0.146281	-0.746887
C210	C	1.635657	0.479615	-0.413554
C211	C	0.971927	-0.189167	-1.006833
C212	C	1.305261	0.144166	-0.673499
C213	C	1.638594	0.477499	-0.340166
C214	C	1.018303	-0.222276	-0.971933
C215	C	1.351636	0.111057	-0.638600
C216	C	1.684970	0.444391	-0.305266
C217	C	1.061749	-0.253268	-1.010425
C218	C	1.395083	0.080066	-0.677092
C219	C	1.728416	0.413399	-0.343759
C220	C	1.058815	-0.251149	-1.083812
C221	C	1.392148	0.082184	-0.750479
C222	C	1.725482	0.415517	-0.417145
C223	C	1.031897	-0.232045	-0.752644
C224	C	1.365230	0.101288	-0.419310
C225	C	1.698563	0.434621	-0.085977
C226	C	1.034826	-0.234162	-0.679252
C227	C	1.368159	0.099171	-0.345919
C228	C	1.701493	0.432504	-0.012585
C229	C	0.945005	-0.170061	-0.675664
C230	C	1.278338	0.163273	-0.342331
C231	C	1.611671	0.496606	-0.008997
C232	C	0.942072	-0.167948	-0.749052
C233	C	1.275405	0.165385	-0.415719
C234	C	1.608738	0.498719	-0.082385
C235	C	0.985521	-0.198937	-0.787538
C236	C	1.318854	0.134396	-0.454205
C237	C	1.652187	0.467729	-0.120871
N238	N	1.021305	-0.224440	-0.896919
N239	N	1.354638	0.108893	-0.563586
N240	N	1.687971	0.442227	-0.230252
N241	N	0.982522	-0.196770	-0.862551
N242	N	1.315855	0.136563	-0.529217
N243	N	1.649189	0.469896	-0.195884
C244	C	1.009173	-0.215941	-0.196806
C245	C	1.342506	0.117392	0.136527
C246	C	1.675840	0.450726	0.469861
C247	C	1.012432	-0.218043	-0.118707
C248	C	1.345765	0.115291	0.214626
C249	C	1.679098	0.448624	0.547959
H250	H	0.406391	-0.261204	-0.313848
H251	H	0.739725	0.072130	0.019485
H252	H	1.073058	0.405463	0.352818
H253	H	0.936552	-0.163932	-0.975499
H254	H	1.269885	0.169401	-0.642166
H255	H	1.603218	0.502735	-0.308833
F256	F	0.919630	-0.151813	-1.117356
F257	F	1.252963	0.181520	-0.784023
F258	F	1.586297	0.514853	-0.450690
H259	H	0.923559	-0.414710	-0.294433
H260	H	1.256892	-0.081377	0.038900
H261	H	1.590226	0.251957	0.372234
H262	H	0.880566	-0.767659	-0.247754
H263	H	1.213900	-0.434326	0.085580
H264	H	1.547233	-0.100993	0.418913
H265	H	0.604408	-0.286060	-0.281546
H266	H	0.937742	0.047273	0.051788
H267	H	1.271075	0.380606	0.385121
F268	F	0.739851	-0.147117	-0.461922
F269	F	1.073184	0.186216	-0.128589
F270	F	1.406518	0.519550	0.204745
H271	H	1.094191	-0.276384	-1.115147
H272	H	1.427524	0.056949	-0.781814
H273	H	1.760858	0.390282	-0.448481
F274	F	0.892680	-0.132734	-0.786188
F275	F	1.226014	0.200599	-0.452855
F276	F	1.559347	0.533933	-0.119521
F277	F	1.090946	-0.899608	-0.476046
F278	F	1.424279	-0.566275	-0.142713
F279	F	1.757612	-0.232942	0.190620
F280	F	1.084185	-0.269405	-0.642111
F281	F	1.417518	0.063928	-0.308777
F282	F	1.750852	0.397262	0.024556
F283	F	0.264524	-0.274312	-0.296890
F284	F	0.597857	0.059021	0.036443
F285	F	0.931190	0.392355	0.369777
F286	F	0.869744	-0.662469	-0.236036
F287	F	1.203077	-0.329136	0.097297
F288	F	1.536411	0.004197	0.430630
H289	H	0.737553	-0.281925	-0.286896
H290	H	1.070887	0.051408	0.046438
H291	H	1.404220	0.384741	0.379771
F292	F	1.133945	-0.645707	-0.522772
F293	F	1.467279	-0.312374	-0.189439
F294	F	1.800612	0.020959	0.143894
F295	F	0.588368	-0.151824	-0.455829
F296	F	0.921701	0.181510	-0.122495
F297	F	1.255034	0.514843	0.210838
H298	H	0.923799	-1.016101	-0.294585
H299	H	1.257132	-0.682768	0.038748
H300	H	1.590465	-0.349435	0.372081
H301	H	1.079973	-0.404782	-0.464206
H302	H	1.413307	-0.071448	-0.130873
H303	H	1.746640	0.261885	0.202460
H304	H	1.080002	-0.503830	-0.464252
H305	H	1.413335	-0.170497	-0.130919
H306	H	1.746668	0.162836	0.202415
H307	H	0.923595	-0.513774	-0.294455
H308	H	1.256928	-0.180441	0.038878
H309	H	1.590261	0.152893	0.372211
H310	H	0.909632	-0.144830	-0.644321
H311	H	1.242965	0.188503	-0.310988
H312	H	1.576299	0.521837	0.022346
H313	H	1.067274	-0.257281	-0.783970
H314	H	1.400608	0.076053	-0.450637
H315	H	1.733941	0.409386	-0.117304
H316	H	0.399966	-0.135353	-0.477250
H317	H	0.733300	0.197980	-0.143917
H318	H	1.066633	0.531313	0.189417
F319	F	1.111111	-0.288501	-0.973281
F320	F	1.444445	0.044833	-0.639948
F321	F	1.777778	0.378166	-0.306614
H322	H	0.266823	-0.139492	-0.471896
H323	H	0.600157	0.193842	-0.138562
H324	H	0.933490	0.527175	0.194771
F325	F	1.133986	-0.758401	-0.522805
F326	F	1.467320	-0.425067	-0.189471
F327	F	1.800653	-0.091734	0.143862
F328	F	1.090984	-1.012324	-0.476070
F329	F	1.424317	-0.678991	-0.142737
F330	F	1.757651	-0.345658	0.190597
H331	H	0.923747	-0.917053	-0.294569
H332	H	1.257081	-0.583720	0.038765
H333	H	1.590414	-0.250387	0.372098
