data_functionalizedCrystal
_audit_creation_method	'MofGen! by Chris Wilmer'
_symmetry_space_group_name_H-M	'P1'
_symmetry_Int_Tables_number	1
_symmetry_cell_setting	triclinic
loop_
_symmetry_equiv_pos_as_xyz
  x,y,z
_cell_length_a	21.295418
_cell_length_b	21.295417
_cell_length_c	16.120297
_cell_angle_alpha	92.867002
_cell_angle_beta	92.858291
_cell_angle_gamma	90.046319
loop_
_atom_site_label
_atom_site_type_symbol
_atom_site_fract_x
_atom_site_fract_y
_atom_site_fract_z
Zn1	Zn	0.944261	-0.268427	-0.471775
Zn2	Zn	1.194261	-0.018427	-0.221775
Zn3	Zn	1.444261	0.231573	0.028225
Zn4	Zn	1.694261	0.481573	0.278225
Zn5	Zn	0.949511	-0.368356	-0.332355
Zn6	Zn	1.199511	-0.118356	-0.082355
Zn7	Zn	1.449511	0.131644	0.167645
Zn8	Zn	1.699511	0.381644	0.417645
Zn9	Zn	0.844332	-0.263133	-0.332334
Zn10	Zn	1.094332	-0.013133	-0.082334
Zn11	Zn	1.344332	0.236867	0.167666
Zn12	Zn	1.594332	0.486867	0.417666
Zn13	Zn	0.838957	-0.373687	-0.471671
Zn14	Zn	1.088957	-0.123687	-0.221671
Zn15	Zn	1.338957	0.126313	0.028329
Zn16	Zn	1.588957	0.376313	0.278329
O17	O	0.894265	-0.318401	-0.402034
O18	O	1.144265	-0.068401	-0.152034
O19	O	1.394265	0.181599	0.097966
O20	O	1.644265	0.431599	0.347966
O21	O	1.033045	-0.281667	-0.453332
O22	O	1.283045	-0.031667	-0.203332
O23	O	1.533045	0.218333	0.046668
O24	O	1.783045	0.468333	0.296668
O25	O	0.940005	-0.349951	-0.215692
O26	O	1.190005	-0.099951	0.034308
O27	O	1.440005	0.150049	0.284308
O28	O	1.690005	0.400049	0.534308
O29	O	0.857640	-0.175747	-0.350866
O30	O	1.107640	0.074253	-0.100866
O31	O	1.357640	0.324253	0.149134
O32	O	1.607640	0.574253	0.399134
O33	O	1.036902	-0.355085	-0.350901
O34	O	1.286902	-0.105085	-0.100901
O35	O	1.536902	0.144915	0.149099
O36	O	1.786902	0.394915	0.399099
O37	O	0.931057	-0.179637	-0.453312
O38	O	1.181057	0.070363	-0.203312
O39	O	1.431057	0.320363	0.046688
O40	O	1.681057	0.570363	0.296688
O41	O	0.862731	-0.272644	-0.215677
O42	O	1.112731	-0.022644	0.034323
O43	O	1.362731	0.227356	0.284323
O44	O	1.612731	0.477356	0.534323
O45	O	0.755532	-0.277814	-0.350766
O46	O	1.005532	-0.027814	-0.100766
O47	O	1.255532	0.222186	0.149234
O48	O	1.505532	0.472186	0.399234
O49	O	0.848480	-0.364171	-0.588345
O50	O	1.098480	-0.114171	-0.338345
O51	O	1.348480	0.135829	-0.088345
O52	O	1.598480	0.385829	0.161655
O53	O	0.751583	-0.359038	-0.453136
O54	O	1.001583	-0.109038	-0.203136
O55	O	1.251583	0.140962	0.046864
O56	O	1.501583	0.390962	0.296864
O57	O	0.925846	-0.286837	-0.588421
O58	O	1.175846	-0.036837	-0.338421
O59	O	1.425846	0.213163	-0.088421
O60	O	1.675846	0.463163	0.161579
O61	O	0.934793	-0.457151	-0.350801
O62	O	1.184793	-0.207151	-0.100801
O63	O	1.434793	0.042849	0.149199
O64	O	1.684793	0.292849	0.399199
O65	O	0.853570	-0.461068	-0.453156
O66	O	1.103570	-0.211068	-0.203156
O67	O	1.353570	0.038932	0.046844
O68	O	1.603570	0.288932	0.296844
C69	C	0.730717	-0.318430	-0.401938
C70	C	0.980717	-0.068430	-0.151938
C71	C	1.230717	0.181570	0.098062
C72	C	1.480717	0.431570	0.348062
C73	C	0.660750	-0.318459	-0.401917
C74	C	0.910750	-0.068459	-0.151917
C75	C	1.160750	0.181541	0.098083
C76	C	1.410750	0.431541	0.348083
C77	C	0.625847	-0.360802	-0.455141
C78	C	0.875847	-0.110802	-0.205141
C79	C	1.125847	0.139198	0.044859
C80	C	1.375847	0.389198	0.294859
C81	C	0.560103	-0.360788	-0.455178
C82	C	0.810103	-0.110788	-0.205178
C83	C	1.060103	0.139212	0.044822
C84	C	1.310103	0.389212	0.294822
C85	C	0.529265	-0.318437	-0.401977
C86	C	0.779265	-0.068437	-0.151977
C87	C	1.029265	0.181563	0.098023
C88	C	1.279265	0.431563	0.348023
C89	C	0.564177	-0.276085	-0.348748
C90	C	0.814177	-0.026085	-0.098748
C91	C	1.064177	0.223915	0.151252
C92	C	1.314177	0.473915	0.401252
C93	C	0.629919	-0.276096	-0.348718
C94	C	0.879919	-0.026096	-0.098718
C95	C	1.129919	0.223904	0.151282
C96	C	1.379919	0.473904	0.401282
N97	N	0.428786	-0.310726	-0.329062
N98	N	0.678786	-0.060726	-0.079062
N99	N	0.928786	0.189274	0.170938
N100	N	1.178786	0.439274	0.420938
N101	N	0.366333	-0.310719	-0.329092
N102	N	0.616333	-0.060719	-0.079092
N103	N	0.866333	0.189281	0.170908
N104	N	1.116333	0.439281	0.420908
C105	C	0.331187	-0.318400	-0.402065
C106	C	0.581187	-0.068400	-0.152065
C107	C	0.831187	0.181600	0.097935
C108	C	1.081187	0.431600	0.347935
N109	N	0.360853	-0.326100	-0.475007
N110	N	0.610853	-0.076100	-0.225007
N111	N	0.860853	0.173900	0.024993
N112	N	1.110853	0.423900	0.274993
N113	N	0.423311	-0.326110	-0.474975
N114	N	0.673311	-0.076110	-0.224975
N115	N	0.923311	0.173890	0.025025
N116	N	1.173311	0.423890	0.275025
C117	C	0.457979	-0.318420	-0.402004
C118	C	0.707979	-0.068420	-0.152004
C119	C	0.957979	0.181580	0.097996
C120	C	1.207979	0.431580	0.347996
C121	C	0.224997	-0.360731	-0.455334
C122	C	0.474997	-0.110731	-0.205334
C123	C	0.724997	0.139269	0.044666
C124	C	0.974997	0.389269	0.294666
C125	C	0.159251	-0.360712	-0.455373
C126	C	0.409251	-0.110712	-0.205373
C127	C	0.659251	0.139288	0.044627
C128	C	0.909251	0.389288	0.294627
C129	C	0.163327	-0.276012	-0.348936
C130	C	0.413327	-0.026012	-0.098936
C131	C	0.663327	0.223988	0.151064
C132	C	0.913327	0.473988	0.401064
C133	C	0.229071	-0.276027	-0.348905
C134	C	0.479071	-0.026027	-0.098905
C135	C	0.729071	0.223973	0.151095
C136	C	0.979071	0.473973	0.401095
C137	C	0.259902	-0.318390	-0.402103
C138	C	0.509902	-0.068390	-0.152103
C139	C	0.759902	0.181610	0.097897
C140	C	1.009902	0.431610	0.347897
C141	C	0.894185	-0.481951	-0.401988
C142	C	1.144185	-0.231951	-0.151988
C143	C	1.394185	0.018049	0.098012
C144	C	1.644185	0.268049	0.348012
C145	C	0.894207	-0.551919	-0.401996
C146	C	1.144207	-0.301919	-0.151996
C147	C	1.394207	-0.051919	0.098004
C148	C	1.644207	0.198081	0.348004
C149	C	0.936533	-0.582727	-0.348754
C150	C	1.186533	-0.332727	-0.098754
C151	C	1.436533	-0.082727	0.151246
C152	C	1.686533	0.167273	0.401246
C153	C	0.936562	-0.648471	-0.348773
C154	C	1.186562	-0.398471	-0.098773
C155	C	1.436562	-0.148471	0.151227
C156	C	1.686562	0.101529	0.401227
C157	C	0.894253	-0.683403	-0.402025
C158	C	1.144253	-0.433403	-0.152025
C159	C	1.394253	-0.183403	0.097975
C160	C	1.644253	0.066597	0.347975
C161	C	0.851923	-0.652587	-0.455276
C162	C	1.101923	-0.402587	-0.205276
C163	C	1.351923	-0.152587	0.044724
C164	C	1.601923	0.097413	0.294724
C165	C	0.851900	-0.586845	-0.455262
C166	C	1.101900	-0.336845	-0.205262
C167	C	1.351900	-0.086845	0.044738
C168	C	1.601900	0.163155	0.294738
N169	N	0.838944	-0.786926	-0.408348
N170	N	1.088944	-0.536926	-0.158348
N171	N	1.338944	-0.286926	0.091652
N172	N	1.588944	-0.036926	0.341652
N173	N	0.838968	-0.849378	-0.408356
N174	N	1.088968	-0.599378	-0.158356
N175	N	1.338968	-0.349378	0.091644
N176	N	1.588968	-0.099378	0.341644
C177	C	0.894322	-0.881479	-0.402072
C178	C	1.144322	-0.631479	-0.152072
C179	C	1.394322	-0.381479	0.097928
C180	C	1.644322	-0.131479	0.347928
N181	N	0.949653	-0.848769	-0.395763
N182	N	1.199653	-0.598769	-0.145763
N183	N	1.449653	-0.348769	0.104237
N184	N	1.699653	-0.098769	0.354237
N185	N	0.949628	-0.786311	-0.395750
N186	N	1.199628	-0.536311	-0.145750
N187	N	1.449628	-0.286311	0.104250
N188	N	1.699628	-0.036311	0.354250
C189	C	0.894274	-0.754689	-0.402046
C190	C	1.144274	-0.504689	-0.152046
C191	C	1.394274	-0.254689	0.097954
C192	C	1.644274	-0.004689	0.347954
C193	C	0.936683	-0.983574	-0.348848
C194	C	1.186683	-0.733574	-0.098848
C195	C	1.436683	-0.483574	0.151152
C196	C	1.686683	-0.233574	0.401152
C197	C	0.936713	-1.049318	-0.348873
C198	C	1.186713	-0.799318	-0.098873
C199	C	1.436713	-0.549318	0.151127
C200	C	1.686713	-0.299318	0.401127
C201	C	0.852069	-1.053433	-0.455372
C202	C	1.102069	-0.803433	-0.205372
C203	C	1.352069	-0.553433	0.044628
C204	C	1.602069	-0.303433	0.294628
C205	C	0.852045	-0.987690	-0.455352
C206	C	1.102045	-0.737690	-0.205352
C207	C	1.352045	-0.487690	0.044648
C208	C	1.602045	-0.237690	0.294648
C209	C	0.894351	-0.952764	-0.402085
C210	C	1.144351	-0.702764	-0.152085
C211	C	1.394351	-0.452764	0.097915
C212	C	1.644351	-0.202764	0.347915
C213	C	1.058452	-0.318372	-0.402131
C214	C	1.308452	-0.068372	-0.152131
C215	C	1.558452	0.181628	0.097869
C216	C	1.808452	0.431628	0.347869
C217	C	1.128418	-0.318359	-0.402172
C218	C	1.378418	-0.068359	-0.152172
C219	C	1.628418	0.181641	0.097828
C220	C	1.878418	0.431641	0.347828
C221	C	0.885978	-0.326689	-0.619478
C222	C	1.135978	-0.076689	-0.369478
C223	C	1.385978	0.173311	-0.119478
C224	C	1.635978	0.423311	0.130522
C225	C	0.882446	-0.330221	-0.712139
C226	C	1.132446	-0.080221	-0.462139
C227	C	1.382446	0.169779	-0.212139
C228	C	1.632446	0.419779	0.037861
C229	C	0.894363	-0.154213	-0.402098
C230	C	1.144363	0.095787	-0.152098
C231	C	1.394363	0.345787	0.097902
C232	C	1.644363	0.595787	0.347902
C233	C	0.894404	-0.084246	-0.402126
C234	C	1.144404	0.165754	-0.152126
C235	C	1.394404	0.415754	0.097874
C236	C	1.644404	0.665754	0.347874
C237	C	0.875975	-0.336656	-0.881793
C238	C	1.125975	-0.086656	-0.631793
C239	C	1.375975	0.163344	-0.381793
C240	C	1.625975	0.413344	-0.131793
C241	C	0.912680	-0.299957	-0.923126
C242	C	1.162680	-0.049957	-0.673126
C243	C	1.412680	0.200043	-0.423126
C244	C	1.662680	0.450043	-0.173126
C245	C	0.909080	-0.303537	-1.017528
C246	C	1.159080	-0.053537	-0.767528
C247	C	1.409080	0.196463	-0.517528
C248	C	1.659080	0.446463	-0.267528
C249	C	0.879574	-0.333077	-0.787383
C250	C	1.129574	-0.083077	-0.537383
C251	C	1.379574	0.166923	-0.287383
C252	C	1.629574	0.416923	-0.037383
C253	C	0.902557	-0.310099	-0.185436
C254	C	1.152557	-0.060099	0.064564
C255	C	1.402557	0.189901	0.314564
C256	C	1.652557	0.439901	0.564564
C257	C	0.906211	-0.306390	-0.092775
C258	C	1.156211	-0.056390	0.157225
C259	C	1.406211	0.193610	0.407225
C260	C	1.656211	0.443610	0.657225
H261	H	0.257489	-0.241550	-0.305559
H262	H	0.507489	0.008450	-0.055559
H263	H	0.757489	0.258450	0.194441
H264	H	1.007489	0.508450	0.444441
F265	F	0.257811	-0.405813	-0.511955
F266	F	0.507811	-0.155813	-0.261955
F267	F	0.757811	0.094187	-0.011955
F268	F	1.007811	0.344187	0.238045
F269	F	0.807044	-1.090606	-0.512052
F270	F	1.057044	-0.840606	-0.262052
F271	F	1.307044	-0.590606	-0.012052
F272	F	1.557044	-0.340606	0.237948
F273	F	0.831370	-0.381236	-0.928206
F274	F	1.081370	-0.131236	-0.678206
F275	F	1.331370	0.118764	-0.428206
F276	F	1.581370	0.368764	-0.178206
H277	H	0.946808	-0.265849	-0.887615
H278	H	1.196808	-0.015849	-0.637615
H279	H	1.446808	0.234151	-0.387615
H280	H	1.696808	0.484151	-0.137615
F281	F	0.522949	-0.405858	-0.511830
F282	F	0.772949	-0.155858	-0.261830
F283	F	1.022949	0.094142	-0.011830
F284	F	1.272949	0.344142	0.238170
F285	F	0.658655	-0.405887	-0.511762
F286	F	0.908655	-0.155887	-0.261762
F287	F	1.158655	0.094113	-0.011762
F288	F	1.408655	0.344113	0.238238
H289	H	0.130834	-0.395192	-0.498720
H290	H	0.380834	-0.145192	-0.248720
H291	H	0.630834	0.104808	0.001280
H292	H	0.880834	0.354808	0.251280
H293	H	0.138220	-0.241526	-0.305622
H294	H	0.388220	0.008474	-0.055622
H295	H	0.638220	0.258474	0.194378
H296	H	0.888220	0.508474	0.444378
H297	H	0.658337	-0.241613	-0.305377
H298	H	0.908337	0.008387	-0.055377
H299	H	1.158337	0.258387	0.194623
H300	H	1.408337	0.508387	0.444623
F301	F	0.531356	-0.231009	-0.292131
F302	F	0.781356	0.018991	-0.042131
F303	F	1.031356	0.268991	0.207869
F304	F	1.281356	0.518991	0.457869
F305	F	0.981566	-0.545561	-0.292072
F306	F	1.231566	-0.295561	-0.042072
F307	F	1.481566	-0.045561	0.207928
F308	F	1.731566	0.204439	0.457928
F309	F	0.981613	-0.681266	-0.292103
F310	F	1.231613	-0.431266	-0.042103
F311	F	1.481613	-0.181266	0.207897
F312	F	1.731613	0.068734	0.457897
F313	F	0.981769	-1.082107	-0.292208
F314	F	1.231769	-0.832107	-0.042208
F315	F	1.481769	-0.582107	0.207792
F316	F	1.731769	-0.332107	0.457792
H317	H	0.817576	-0.962604	-0.498703
H318	H	1.067576	-0.712604	-0.248703
H319	H	1.317576	-0.462604	0.001297
H320	H	1.567576	-0.212604	0.251297
H321	H	0.817477	-0.681033	-0.498636
H322	H	1.067477	-0.431033	-0.248636
H323	H	1.317477	-0.181033	0.001364
H324	H	1.567477	0.068967	0.251364
H325	H	0.971134	-0.955136	-0.305478
H326	H	1.221134	-0.705136	-0.055478
H327	H	1.471134	-0.455136	0.194522
H328	H	1.721134	-0.205136	0.444522
F329	F	0.806848	-0.554056	-0.511931
F330	F	1.056848	-0.304056	-0.261931
F331	F	1.306848	-0.054056	-0.011931
F332	F	1.556848	0.195944	0.238069
