data_functionalizedCrystal
_audit_creation_method	'MofGen! by Chris Wilmer'
_symmetry_space_group_name_H-M	'P1'
_symmetry_Int_Tables_number	1
_symmetry_cell_setting	triclinic
loop_
_symmetry_equiv_pos_as_xyz
  x,y,z
_cell_length_a	10.540510
_cell_length_b	10.489716
_cell_length_c	9.616153
_cell_angle_alpha	90.001809
_cell_angle_beta	89.992871
_cell_angle_gamma	84.521223
loop_
_atom_site_label
_atom_site_type_symbol
_atom_site_fract_x
_atom_site_fract_y
_atom_site_fract_z
O1	O	1.685920	0.179581	-0.115641
O2	O	1.316503	0.196558	-0.115640
O3	O	1.509633	0.002467	-0.115645
O4	O	1.492789	0.373671	-0.115636
O5	O	1.509607	0.002472	0.115646
O6	O	1.316476	0.196562	0.115651
O7	O	1.685893	0.179585	0.115651
Zn8	Zn	1.501180	0.188074	0.152373
Zn9	Zn	1.501215	0.188069	-0.152363
O10	O	1.492762	0.373675	0.115656
C11	C	1.269186	0.195295	0.000005
C12	C	1.128236	0.191510	0.000005
C13	C	0.910784	0.326343	-0.000523
C14	C	1.057380	0.330381	0.000007
C15	C	1.083458	0.120423	0.132078
C16	C	0.936697	0.117369	0.132181
C17	C	0.936921	0.114473	-0.130841
C18	C	1.083263	0.121060	-0.132578
C19	C	1.508354	-0.045062	-0.000004
C20	C	1.504568	-0.186693	-0.000017
C21	C	1.623002	-0.284393	-0.000004
C22	C	1.560432	-0.361742	-0.114039
C23	C	1.560378	-0.361702	0.113996
C24	C	1.442047	-0.262175	-0.114146
C25	C	1.442011	-0.262130	0.113992
C26	C	1.379354	-0.339429	-0.000071
C27	C	1.733210	0.180848	0.000002
C28	C	1.874160	0.184633	-0.000007
C29	C	1.494041	0.421205	0.000011
C30	C	1.497828	0.562835	0.000015
N31	N	1.501166	0.188077	0.360348
N32	N	1.501240	0.188056	-0.360338
C33	C	1.397538	0.291554	0.580721
C34	C	1.397766	0.291942	0.419553
C35	C	1.633892	0.218342	0.418798
C36	C	1.633327	0.219075	0.580016
C37	C	1.473389	0.053995	0.580256
C38	C	1.470342	0.054864	0.419029
H39	H	0.867268	0.380136	0.093661
F40	F	1.572215	-0.046695	0.630073
H41	H	1.726019	-0.259740	-0.000120
H42	H	1.086739	0.385993	-0.094672
F43	F	0.855965	0.397063	-0.124326
H44	H	1.415669	0.391403	0.380976
H45	H	1.111894	0.172781	-0.230285
H46	H	1.610388	-0.405184	0.210401
F47	F	1.665164	0.346914	0.629154
H48	H	1.658793	0.315043	0.378410
F49	F	1.349536	0.016360	0.633461
F50	F	0.881349	0.171732	-0.261688
H51	H	1.415208	0.390452	0.621222
F52	F	1.147387	-0.011465	-0.143005
F53	F	0.907968	-0.021810	-0.132009
F54	F	1.625792	-0.418614	-0.240054
F55	F	1.737209	0.124273	0.630979
F56	F	1.094501	0.403509	0.123972
H57	H	0.896471	0.165953	0.230910
F58	F	1.737224	0.122500	0.368673
H59	H	1.299147	0.273733	0.380038
H60	H	1.392048	-0.218599	0.210406
F61	F	0.906631	-0.018386	0.140081
H62	H	1.372702	0.031924	0.380828
F63	F	1.268225	0.268106	0.631421
H64	H	1.540867	-0.025853	0.378732
H65	H	1.130844	0.018189	0.136988
H66	H	1.392090	-0.218862	-0.210661
F67	F	1.244603	-0.371335	-0.000147
F68	F	1.123771	0.184953	0.260556
