data_functionalizedCrystal
_audit_creation_method	'MofGen! by Chris Wilmer'
_symmetry_space_group_name_H-M	'P1'
_symmetry_Int_Tables_number	1
_symmetry_cell_setting	triclinic
loop_
_symmetry_equiv_pos_as_xyz
  x,y,z
_cell_length_a	10.540539
_cell_length_b	16.109301
_cell_length_c	15.186229
_cell_angle_alpha	89.998755
_cell_angle_beta	90.002140
_cell_angle_gamma	96.006514
loop_
_atom_site_label
_atom_site_type_symbol
_atom_site_fract_x
_atom_site_fract_y
_atom_site_fract_z
O1	O	0.163160	-1.104129	0.073169
O2	O	0.496493	-0.770796	0.406502
O3	O	0.829826	-0.437462	0.739835
O4	O	0.183464	-0.862191	0.073182
O5	O	0.516798	-0.528858	0.406515
O6	O	0.850131	-0.195525	0.739849
O7	O	-0.011473	-0.988680	0.073174
O8	O	0.321860	-0.655346	0.406507
O9	O	0.655194	-0.322013	0.739841
O10	O	0.358097	-0.977640	0.073177
O11	O	0.691431	-0.644307	0.406510
O12	O	1.024764	-0.310974	0.739844
O13	O	-0.011478	-0.988670	-0.073283
O14	O	0.321856	-0.655337	0.260050
O15	O	0.655189	-0.322003	0.593383
O16	O	0.183460	-0.862181	-0.073275
O17	O	0.516793	-0.528848	0.260058
O18	O	0.850127	-0.195515	0.593392
O19	O	0.163155	-1.104119	-0.073289
O20	O	0.496488	-0.770786	0.260045
O21	O	0.829822	-0.437452	0.593378
Zn22	Zn	0.173307	-0.983149	-0.096535
Zn23	Zn	0.506640	-0.649815	0.236798
Zn24	Zn	0.839974	-0.316482	0.570132
Zn25	Zn	0.173313	-0.983162	0.096429
Zn26	Zn	0.506646	-0.649828	0.429762
Zn27	Zn	0.839979	-0.316495	0.763095
O28	O	0.358093	-0.977631	-0.073280
O29	O	0.691426	-0.644297	0.260053
O30	O	1.024759	-0.310964	0.593386
C31	C	0.182640	-0.831206	-0.000045
C32	C	0.515973	-0.497873	0.333289
C33	C	0.849306	-0.164540	0.666622
C34	C	0.180174	-0.738896	-0.000039
C35	C	0.513507	-0.405563	0.333294
C36	C	0.846841	-0.072229	0.666627
C37	C	-0.058767	-0.987847	-0.000053
C38	C	0.274567	-0.654514	0.333280
C39	C	0.607900	-0.321180	0.666614
C40	C	-0.199679	-0.985370	-0.000048
C41	C	0.133654	-0.652037	0.333285
C42	C	0.466987	-0.318703	0.666619
C43	C	0.163980	-1.135104	-0.000060
C44	C	0.497313	-0.801771	0.333274
C45	C	0.830646	-0.468437	0.666607
C46	C	0.166446	-1.227414	-0.000059
C47	C	0.499779	-0.894081	0.333274
C48	C	0.833112	-0.560748	0.666607
C49	C	-0.381753	-0.890460	0.000286
C50	C	-0.048420	-0.557127	0.333619
C51	C	0.284914	-0.223794	0.666953
C52	C	-0.235171	-0.892971	-0.000044
C53	C	0.098163	-0.559638	0.333289
C54	C	0.431496	-0.226304	0.666623
C55	C	-0.261973	-1.029831	-0.083685
C56	C	0.071360	-0.696498	0.249648
C57	C	0.404693	-0.363164	0.582982
C58	C	-0.408473	-1.026678	-0.083755
C59	C	-0.075140	-0.693344	0.249578
C60	C	0.258194	-0.360011	0.582912
C61	C	-0.409013	-1.028568	0.082794
C62	C	-0.075680	-0.695235	0.416127
C63	C	0.257654	-0.361901	0.749461
C64	C	-0.262043	-1.029419	0.083900
C65	C	0.071290	-0.696086	0.417233
C66	C	0.404624	-0.362752	0.750566
C67	C	0.405386	-0.978463	-0.000052
C68	C	0.738720	-0.645130	0.333282
C69	C	1.072053	-0.311797	0.666615
C70	C	0.546299	-0.980940	-0.000051
C71	C	0.879632	-0.647607	0.333283
C72	C	1.212966	-0.314274	0.666616
N73	N	0.173302	-0.983146	-0.228228
N74	N	0.506635	-0.649813	0.105106
N75	N	0.839969	-0.316479	0.438439
C76	C	0.290112	-0.517296	-0.000049
C77	C	0.623446	-0.183963	0.333285
C78	C	0.956779	0.149371	0.666618
C79	C	0.287785	-0.430561	-0.000054
C80	C	0.621119	-0.097228	0.333279
C81	C	0.954452	0.236105	0.666612
C82	C	0.056499	-0.449021	-0.000053
C83	C	0.389832	-0.115688	0.333281
C84	C	0.723165	0.217645	0.666614
C85	C	0.058827	-0.535754	-0.000053
C86	C	0.392160	-0.202421	0.333280
C87	C	0.725493	0.130912	0.666613
C88	C	0.175637	-0.569889	-0.000047
C89	C	0.508971	-0.236556	0.333287
C90	C	0.842304	0.096778	0.666620
C91	C	0.170982	-0.396421	-0.000052
C92	C	0.504316	-0.063088	0.333281
C93	C	0.837649	0.270245	0.666615
C94	C	0.168459	-0.302380	-0.000058
C95	C	0.501792	0.030953	0.333275
C96	C	0.835125	0.364287	0.666609
C97	C	0.178162	-0.663936	-0.000042
C98	C	0.511495	-0.330603	0.333291
C99	C	0.844828	0.002730	0.666624
C100	C	0.087012	-1.039178	-0.546150
C101	C	0.420346	-0.705845	-0.212816
C102	C	0.753679	-0.372511	0.120517
C103	C	0.087013	-1.039176	-0.453960
C104	C	0.420346	-0.705842	-0.120627
C105	C	0.753680	-0.372509	0.212707
C106	C	0.259606	-0.927136	-0.453963
C107	C	0.592940	-0.593803	-0.120630
C108	C	0.926273	-0.260470	0.212704
C109	C	0.259611	-0.927143	-0.546151
C110	C	0.592944	-0.593810	-0.212818
C111	C	0.926278	-0.260476	0.120516
C112	C	0.173307	-0.983163	-0.592242
C113	C	0.506640	-0.649830	-0.258909
C114	C	0.839973	-0.316496	0.074425
C115	C	0.173303	-0.983154	-0.407864
C116	C	0.506636	-0.649821	-0.074531
C117	C	0.839969	-0.316487	0.258802
C118	C	0.173304	-0.983151	-0.307908
C119	C	0.506637	-0.649818	0.025425
C120	C	0.839971	-0.316484	0.358758
C121	C	0.173307	-0.983167	-0.692205
C122	C	0.506640	-0.649834	-0.358871
C123	C	0.839974	-0.316501	-0.025538
N124	N	0.173308	-0.983171	0.228121
N125	N	0.506641	-0.649838	0.561455
N126	N	0.839974	-0.316504	0.894788
H127	H	-0.192067	-0.857987	0.059910
H128	H	0.141266	-0.524653	0.393244
H129	H	0.474600	-0.191320	0.726577
H130	H	0.381003	-0.387743	-0.000058
H131	H	0.714336	-0.054410	0.333275
H132	H	1.047669	0.278924	0.666609
H133	H	-0.220719	-0.996888	0.145772
H134	H	0.112614	-0.663554	0.479105
H135	H	0.445948	-0.330221	0.812439
F136	F	-0.420988	-0.842816	-0.077451
F137	F	-0.087654	-0.509483	0.255883
F138	F	0.245679	-0.176150	0.589216
F139	F	0.351450	-0.867516	-0.404904
F140	F	0.684783	-0.534183	-0.071571
F141	F	1.018117	-0.200850	0.261763
H142	H	-0.192914	-0.857733	-0.060094
H143	H	0.140419	-0.524400	0.273239
H144	H	0.473752	-0.191067	0.606572
H145	H	-0.409831	-0.853965	0.060263
H146	H	-0.076498	-0.520631	0.393597
H147	H	0.256836	-0.187298	0.726930
F148	F	-0.063020	-0.591732	-0.000057
F149	F	0.270313	-0.258398	0.333276
F150	F	0.603647	0.074935	0.666610
H151	H	0.016740	-1.084794	-0.583675
H152	H	0.350073	-0.751461	-0.250342
H153	H	0.683407	-0.418127	0.082992
F154	F	-0.004831	-1.098796	-0.404908
F155	F	0.328503	-0.765463	-0.071575
F156	F	0.661836	-0.432129	0.261758
H157	H	-0.457389	-1.093129	-0.087553
H158	H	-0.124056	-0.759796	0.245780
H159	H	0.209278	-0.426463	0.579114
F160	F	0.351467	-0.867525	-0.595210
F161	F	0.684800	-0.534191	-0.261876
F162	F	1.018133	-0.200858	0.071457
H163	H	-0.436206	-0.993811	-0.146272
H164	H	-0.102873	-0.660477	0.187062
H165	H	0.230461	-0.327144	0.520395
F166	F	-0.231634	-1.117471	0.090502
F167	F	0.101700	-0.784138	0.423835
F168	F	0.435033	-0.450805	0.757168
H169	H	-0.240587	-1.097686	-0.086798
H170	H	0.092747	-0.764353	0.246535
H171	H	0.426080	-0.431019	0.579868
H172	H	-0.038605	-0.421218	-0.000063
H173	H	0.294729	-0.087885	0.333270
H174	H	0.628062	0.245449	0.666604
F175	F	-0.205724	-0.989453	-0.165034
F176	F	0.127609	-0.656119	0.168299
F177	F	0.460943	-0.322786	0.501633
F178	F	-0.449681	-0.989480	0.165652
F179	F	-0.116347	-0.656147	0.498985
F180	F	0.216986	-0.322813	0.832318
F181	F	-0.471985	-1.115800	0.083527
F182	F	-0.138652	-0.782467	0.416860
F183	F	0.194682	-0.449134	0.750193
F184	F	0.414432	-0.553622	-0.000046
F185	F	0.747765	-0.220288	0.333288
F186	F	1.081099	0.113045	0.666621
