data_functionalizedCrystal
_audit_creation_method	'MofGen! by Chris Wilmer'
_symmetry_space_group_name_H-M	'P1'
_symmetry_Int_Tables_number	1
_symmetry_cell_setting	triclinic
loop_
_symmetry_equiv_pos_as_xyz
  x,y,z
_cell_length_a	31.640172
_cell_length_b	19.902436
_cell_length_c	19.902436
_cell_angle_alpha	89.995963
_cell_angle_beta	119.998524
_cell_angle_gamma	59.996325
loop_
_atom_site_label
_atom_site_type_symbol
_atom_site_fract_x
_atom_site_fract_y
_atom_site_fract_z
Zr1	Zr	0.462524	-0.088110	-0.647427
O2	O	0.550710	-0.195411	-0.540139
O3	O	0.374352	-0.055218	-0.680303
O4	O	0.462529	-0.195399	-0.680306
O5	O	0.462525	0.055349	-0.540149
O6	O	0.462517	-0.195388	-0.790888
O7	O	0.462533	-0.055229	-0.540136
O8	O	0.304784	0.055371	-0.790883
O9	O	0.620258	-0.195410	-0.540154
O10	O	0.410605	-0.041180	-0.776867
O11	O	0.410607	0.041336	-0.694351
O12	O	0.514425	-0.123710	-0.694354
O13	O	0.514427	-0.041194	-0.611838
Zr14	Zr	0.462493	0.088267	-0.823813
Zr15	Zr	0.462506	-0.088093	-0.823792
Zr16	Zr	0.462511	0.088250	-0.647448
Zr17	Zr	0.573445	-0.088108	-0.647451
Zr18	Zr	0.351573	0.088265	-0.823789
O19	O	0.550665	0.055375	-0.790937
O20	O	0.550684	-0.195387	-0.790907
O21	O	0.550692	0.055351	-0.540168
O22	O	0.374307	0.195568	-0.931101
O23	O	0.374325	-0.055194	-0.931072
O24	O	0.374333	0.195544	-0.680333
O25	O	0.462492	-0.055192	-0.931091
O26	O	0.462488	0.195556	-0.790934
O27	O	0.462500	0.195546	-0.680352
O28	O	0.462484	0.055387	-0.931104
O29	O	0.620243	-0.195396	-0.680341
O30	O	0.304774	0.195554	-0.790899
O31	O	0.304759	0.195567	-0.931086
O32	O	0.304770	0.055384	-0.931069
O33	O	0.620248	-0.055227	-0.540171
O34	O	0.620233	-0.055213	-0.680357
O35	O	0.410593	0.123867	-0.776886
O36	O	0.410590	0.041351	-0.859402
O37	O	0.514410	-0.041178	-0.776889
O38	O	0.514412	0.041338	-0.694373
C39	C	0.323764	0.000076	-0.735590
C40	C	0.276676	0.000075	-0.735579
C41	C	0.462532	0.000058	-0.515015
C42	C	0.462540	0.000050	-0.440143
C43	C	0.462492	0.220679	-0.735646
C44	C	0.462487	0.295548	-0.735655
C45	C	-0.015368	-0.042986	-0.778709
C46	C	-0.192363	-0.042986	-0.778726
O47	O	-0.215269	-0.079588	-0.815388
N48	N	-0.214491	0.000085	-0.735652
C49	C	-0.192370	0.043163	-0.692576
O50	O	-0.215256	0.079805	-0.655947
C51	C	-0.015378	0.043167	-0.692564
C52	C	0.006752	0.000087	-0.735634
C53	C	0.006762	-0.086062	-0.821776
C54	C	0.051010	-0.086066	-0.821768
C55	C	0.073130	-0.042993	-0.778692
C56	C	0.051000	0.000083	-0.735626
C57	C	0.006739	0.086250	-0.649493
C58	C	0.050989	0.086248	-0.649496
C59	C	0.073119	0.043168	-0.692565
C60	C	0.117368	0.043153	-0.692542
N61	N	0.139496	0.000082	-0.735616
C62	C	0.117377	-0.042991	-0.778691
C63	C	-0.285292	0.043157	-0.692584
C64	C	-0.329539	0.043155	-0.692585
C65	C	-0.329530	-0.042993	-0.778737
C66	C	-0.285280	-0.042995	-0.778730
C67	C	-0.263165	0.000086	-0.735657
C68	C	0.210302	-0.042995	-0.778670
C69	C	0.254557	-0.042997	-0.778655
C70	C	0.254542	0.043154	-0.692507
C71	C	0.210293	0.043153	-0.692518
C72	C	0.188173	0.000077	-0.735605
O73	O	0.140297	0.079743	-0.655907
O74	O	0.140262	-0.079612	-0.815330
C75	C	-0.059616	-0.042983	-0.778717
C76	C	-0.081745	0.000093	-0.735651
C77	C	-0.059626	0.043166	-0.692576
C78	C	-0.125992	0.000091	-0.735652
C79	C	-0.148112	-0.042981	-0.778727
C80	C	-0.125984	-0.086052	-0.821801
C81	C	-0.081735	-0.086056	-0.821793
C82	C	-0.081754	0.086237	-0.649502
C83	C	-0.126002	0.086236	-0.649513
C84	C	-0.148121	0.043163	-0.692588
C85	C	0.601253	0.000081	-0.735650
C86	C	0.648341	0.000082	-0.735661
C87	C	0.462525	-0.220521	-0.735594
C88	C	0.462531	-0.295391	-0.735585
C89	C	0.462516	0.567550	-0.735609
C90	C	0.397025	0.591121	-0.787411
C91	C	0.396983	0.513283	-0.787703
C92	C	0.462501	0.432607	-0.735631
C93	C	0.495019	0.435028	-0.773599
C94	C	0.494600	0.513256	-0.773978
C95	C	0.495959	0.512245	-0.645816
C96	C	0.494728	0.435324	-0.645958
C97	C	0.462496	0.356340	-0.735644
C98	C	0.462523	0.643815	-0.735599
C99	C	0.462519	0.000078	-0.168134
C100	C	0.528010	-0.051733	-0.144575
C101	C	0.528048	-0.052020	-0.222415
C102	C	0.462530	0.000065	-0.303081
C103	C	0.430011	-0.037898	-0.300658
C104	C	0.430432	-0.038283	-0.222428
C105	C	0.429077	0.089877	-0.223430
C106	C	0.430306	0.089740	-0.300354
C107	C	0.462532	0.000057	-0.379349
C108	C	0.462514	0.000083	-0.091867
C109	C	0.462493	0.000096	0.043781
C110	C	0.462509	0.000092	-0.031072
C111	C	0.323741	0.000097	-0.956195
C112	C	0.276645	0.000104	-1.031056
C113	C	0.323748	0.220676	-0.735616
C114	C	0.276654	0.295545	-0.735614
C115	C	0.323725	0.220697	-0.956221
C116	C	0.276623	0.295573	-1.031091
C117	C	0.601292	-0.220540	-0.515019
C118	C	0.648394	-0.295416	-0.440149
C119	C	0.601276	0.000060	-0.515045
C120	C	0.648373	0.000054	-0.440184
C121	C	0.601269	-0.220519	-0.735624
C122	C	0.648363	-0.295388	-0.735626
C123	C	0.254535	-0.042981	-1.023129
C124	C	0.210289	-0.042992	-1.093463
C125	C	0.188150	0.000088	-1.171722
C126	C	0.210264	0.043174	-1.179648
C127	C	0.254512	0.043180	-1.109315
C128	C	0.254530	0.373792	-0.778696
C129	C	0.210287	0.444146	-0.778692
C130	C	0.188164	0.436251	-0.735609
C131	C	0.210292	0.357996	-0.692522
C132	C	0.254538	0.287643	-0.692522
C133	C	0.254502	0.287663	-1.109331
C134	C	0.210251	0.358011	-1.179686
C135	C	0.188118	0.436267	-1.171799
C136	C	0.210244	0.444175	-1.093552
C137	C	0.254497	0.373829	-1.023198
C138	C	0.670521	-0.287506	-0.361909
C139	C	0.714786	-0.357853	-0.291554
C140	C	0.736920	-0.436109	-0.299441
C141	C	0.714792	-0.444018	-0.377688
C142	C	0.670531	-0.373671	-0.448042
C143	C	0.670486	0.043131	-0.448111
C144	C	0.714745	0.043123	-0.377777
C145	C	0.736885	0.000040	-0.299518
C146	C	0.714769	-0.043043	-0.291592
C147	C	0.670515	-0.043038	-0.361925
C148	C	0.670472	-0.287466	-0.778716
C149	C	0.714716	-0.357807	-0.778734
C150	C	0.736854	-0.436068	-0.735656
C151	C	0.714741	-0.443988	-0.692564
C152	C	0.670495	-0.373648	-0.692551
H153	H	0.272574	-0.078081	-0.813726
Cl154	Cl	0.356250	0.016200	-0.252285
Cl155	Cl	0.742607	-0.097196	-0.193202
Cl156	Cl	0.132522	0.000075	-1.260133
H157	H	0.192290	-0.078078	-1.086994
Cl158	Cl	0.567439	-0.012708	-0.220618
H159	H	0.152084	0.493541	-1.229092
Cl160	Cl	0.182423	0.097332	-1.278038
Cl161	Cl	0.742535	0.097293	-0.387760
H162	H	0.192275	0.507858	-0.813781
Cl163	Cl	0.567509	-0.153390	-0.082953
Cl164	Cl	0.282330	0.383739	-0.832865
H165	H	0.772882	-0.493336	-0.735672
H166	H	0.652454	-0.223748	-0.813796
H167	H	0.732773	-0.507717	-0.657490
Cl168	Cl	-0.257466	-0.097153	-0.832879
H169	H	0.371443	0.631038	-0.853250
Cl170	Cl	0.282297	0.383787	-0.924842
H171	H	-0.143999	-0.121127	-0.856871
Cl172	Cl	0.463605	0.568292	-0.596850
H173	H	-0.011245	-0.121136	-0.856857
Cl174	Cl	0.357326	0.516045	-0.889970
Cl175	Cl	0.792519	0.000045	-0.211107
H176	H	0.152136	0.493543	-0.735616
Cl177	Cl	0.282342	0.189278	-0.638362
Cl178	Cl	0.742592	-0.347892	-0.193196
H179	H	0.553712	-0.026400	-0.105416
H180	H	-0.347546	-0.078066	-0.813809
Cl181	Cl	0.742623	-0.542404	-0.387589
Cl182	Cl	0.458117	0.435909	-0.602167
H183	H	0.542528	0.377862	-0.604114
H184	H	0.542650	0.493906	-0.738683
Cl185	Cl	0.354590	0.149756	-0.254187
H186	H	-0.063721	-0.121135	-0.856864
Cl187	Cl	0.642716	-0.097193	-0.351945
H188	H	0.652499	-0.380109	-0.657458
H189	H	0.732715	-0.351342	-0.813823
H190	H	-0.011272	0.121331	-0.614422
Cl191	Cl	0.182443	0.348050	-1.278044
Cl192	Cl	0.642703	-0.189135	-0.351973
Cl193	Cl	0.642716	-0.383630	-0.546398
H194	H	0.192274	0.351579	-0.657446
Cl195	Cl	0.282360	-0.097150	-0.924754
Cl196	Cl	0.078788	0.140412	-0.595344
Cl197	Cl	0.182500	-0.097147	-0.832838
Cl198	Cl	0.282320	0.189293	-1.119267
Cl199	Cl	0.182413	0.542561	-1.083651
H200	H	0.069024	-0.121142	-0.856841
H201	H	0.471482	0.549809	-0.840054
Cl202	Cl	0.792563	-0.524538	-0.210987
Cl203	Cl	0.282297	0.097356	-1.119295
Cl204	Cl	0.569395	0.347311	-0.718155
H205	H	0.652463	0.078220	-0.511827
H206	H	-0.267291	0.078242	-0.657508
Cl207	Cl	-0.357346	0.097302	-0.638425
H208	H	0.192281	0.078221	-0.657436
H209	H	0.272561	0.078220	-0.657434
H210	H	-0.063750	0.121315	-0.614426
Cl211	Cl	0.357591	0.515084	-0.748389
Cl212	Cl	-0.153814	0.140396	-0.595359
H213	H	0.453549	-0.104362	-0.185882
Cl214	Cl	0.357338	0.651591	-0.748298
Cl215	Cl	0.460138	0.432652	-0.874648
H216	H	0.553723	-0.118259	-0.220638
Cl217	Cl	0.570447	0.481477	-0.585947
H218	H	0.452602	-0.103348	-0.302206
Cl219	Cl	0.355634	0.017561	-0.388364
Cl220	Cl	0.461424	0.138842	-0.167376
H221	H	0.454016	0.118100	-0.299985
Cl222	Cl	0.356497	0.154355	-0.389046
