data_functionalizedCrystal
_audit_creation_method	'MofGen! by Chris Wilmer'
_symmetry_space_group_name_H-M	'P1'
_symmetry_Int_Tables_number	1
_symmetry_cell_setting	triclinic
loop_
_symmetry_equiv_pos_as_xyz
  x,y,z
_cell_length_a	8.597366
_cell_length_b	10.654541
_cell_length_c	7.088929
_cell_angle_alpha	83.716231
_cell_angle_beta	103.954530
_cell_angle_gamma	84.909530
loop_
_atom_site_label
_atom_site_type_symbol
_atom_site_fract_x
_atom_site_fract_y
_atom_site_fract_z
O1	O	2.103268	0.172457	0.187480
O2	O	1.638813	0.192960	0.110967
O3	O	1.881722	-0.000117	0.150995
O4	O	1.860359	0.365534	0.147452
O5	O	1.914184	-0.025978	0.474319
O6	O	1.671275	0.167099	0.434292
O7	O	2.135730	0.146596	0.510804
Cu8	Cu	1.906466	0.154486	0.502070
Cu9	Cu	1.868077	0.185070	0.119702
O10	O	1.892820	0.339673	0.470777
C11	C	1.595573	0.179269	0.262832
C12	C	1.418367	0.176988	0.233640
C13	C	1.896386	-0.059833	0.312398
C14	C	1.891695	-0.199239	0.311622
C15	C	2.182160	-0.229524	0.359496
C16	C	2.325183	-0.310158	0.383073
C17	C	2.320765	-0.441140	0.382339
C18	C	2.173309	-0.491489	0.358020
C19	C	2.030286	-0.410855	0.334443
C20	C	2.034720	-0.279872	0.335185
C21	C	1.739823	-0.380570	0.286556
C22	C	1.744239	-0.249588	0.287303
C23	C	1.592367	-0.430919	0.262237
C24	C	1.449342	-0.350286	0.238673
C25	C	1.453766	-0.219296	0.239410
C26	C	1.601216	-0.168954	0.263726
C27	C	2.178970	0.160288	0.358935
C28	C	2.356175	0.162570	0.388114
C29	C	1.878157	0.399390	0.309370
C30	C	1.882846	0.538796	0.310133
N31	N	1.933479	0.132975	0.771009
N32	N	1.841076	0.206572	-0.149236
H33	H	1.336044	0.187577	0.079045
H34	H	2.029262	0.056711	0.868449
C35	C	1.296425	-0.130607	0.213468
N36	N	1.177912	-0.063811	0.193930
H37	H	2.185774	-0.122874	0.360122
C38	C	1.467392	0.148280	0.596983
N39	N	1.551161	0.137526	0.754299
C40	C	1.606095	-0.024872	0.264537
N41	N	1.609777	0.083653	0.265140
C42	C	2.487379	-0.254764	0.409839
N43	N	2.609546	-0.213046	0.430002
H44	H	2.437226	-0.506792	0.401523
H45	H	1.745311	0.282840	0.753337
H46	H	1.588779	-0.537572	0.261629
C47	C	2.168458	-0.635574	0.357208
N48	N	2.164803	-0.744100	0.356601
C49	C	1.287159	-0.405680	0.211935
N50	N	1.165000	-0.447409	0.191806
