data_functionalizedCrystal
_audit_creation_method	'MofGen! by Chris Wilmer'
_symmetry_space_group_name_H-M	'P1'
_symmetry_Int_Tables_number	1
_symmetry_cell_setting	triclinic
loop_
_symmetry_equiv_pos_as_xyz
  x,y,z
_cell_length_a	16.992701
_cell_length_b	11.892295
_cell_length_c	16.992695
_cell_angle_alpha	85.838279
_cell_angle_beta	89.332304
_cell_angle_gamma	85.845074
loop_
_atom_site_label
_atom_site_type_symbol
_atom_site_fract_x
_atom_site_fract_y
_atom_site_fract_z
O1	O	1.046133	0.094012	-0.171621
O2	O	1.546133	0.594012	0.328379
O3	O	0.817733	0.094012	-0.169792
O4	O	1.317733	0.594012	0.330208
O5	O	0.931018	0.094003	-0.056506
O6	O	1.431018	0.594003	0.443494
O7	O	0.932848	0.094021	-0.284907
O8	O	1.432848	0.594021	0.215093
O9	O	0.940441	-0.094000	-0.047074
O10	O	1.440441	0.406000	0.452926
O11	O	0.827156	-0.093990	-0.160360
O12	O	1.327156	0.406010	0.339640
O13	O	1.055556	-0.093991	-0.162190
O14	O	1.555556	0.406009	0.337810
Zn15	Zn	0.942852	-0.123840	-0.159777
Zn16	Zn	1.442852	0.376160	0.340223
Zn17	Zn	0.930437	0.123862	-0.172204
Zn18	Zn	1.430437	0.623862	0.327796
O19	O	0.942271	-0.093982	-0.275475
O20	O	1.442271	0.406018	0.224525
C21	C	0.793084	0.000011	-0.162721
C22	C	1.293084	0.500011	0.337279
C23	C	0.705600	0.000011	-0.155693
C24	C	1.205600	0.500011	0.344307
C25	C	0.213681	0.000011	-0.108471
C26	C	0.713681	0.500011	0.391529
C27	C	0.295882	0.000005	-0.115080
C28	C	0.795882	0.500005	0.384920
C29	C	0.332088	0.000016	-0.189509
C30	C	0.832088	0.500016	0.310491
C31	C	0.286090	0.000022	-0.257332
C32	C	0.786090	0.500022	0.242668
C33	C	0.203891	0.000020	-0.250721
C34	C	0.703891	0.500020	0.249279
C35	C	0.577402	0.000015	-0.216905
C36	C	1.077402	0.500015	0.283095
C37	C	0.659607	0.000020	-0.223511
C38	C	1.159607	0.500020	0.276489
C39	C	0.669394	0.000001	-0.081259
C40	C	1.169394	0.500001	0.418741
C41	C	0.587192	0.000006	-0.074655
C42	C	1.087192	0.500006	0.425345
C43	C	0.541201	0.000006	-0.142478
C44	C	1.041201	0.500006	0.357522
N45	N	0.416111	0.000013	-0.196267
N46	N	0.916111	0.500013	0.303733
N47	N	0.457181	0.000001	-0.135719
N48	N	0.957181	0.500001	0.364281
N49	N	0.951330	-0.292890	-0.151297
N50	N	1.451330	0.207110	0.348703
C51	C	0.862876	-0.529582	-0.239727
C52	C	1.362876	-0.029582	0.260273
C53	C	0.868821	-0.647921	-0.233793
C54	C	1.368821	-0.147921	0.266207
C55	C	0.969168	-0.647909	-0.133498
C56	C	1.469168	-0.147909	0.366502
C57	C	0.963223	-0.529570	-0.139432
C58	C	1.463223	-0.029570	0.360568
C59	C	0.910075	-0.470411	-0.192548
C60	C	1.410075	0.029589	0.307452
C61	C	0.904126	-0.352070	-0.198478
C62	C	1.404126	0.147930	0.301522
C63	C	1.004477	-0.352060	-0.098187
C64	C	1.504477	0.147940	0.401813
C65	C	1.010422	-0.470399	-0.092253
C66	C	1.510422	0.029601	0.407747
C67	C	1.080204	0.000013	-0.169261
C68	C	1.580204	0.500013	0.330739
C69	C	1.167688	0.000021	-0.176289
C70	C	1.667688	0.500021	0.323711
C71	C	0.933373	0.000002	-0.022430
C72	C	1.433373	0.500002	0.477570
C73	C	0.926345	0.000002	0.065054
C74	C	1.426345	0.500002	0.565054
N75	N	0.921964	0.292911	-0.180679
N76	N	1.421964	0.792911	0.319321
C77	C	0.939915	0.000022	-0.309551
C78	C	1.439915	0.500022	0.190449
C79	C	0.946943	0.000029	-0.397036
C80	C	1.446943	0.500029	0.102964
C81	C	0.994163	0.000001	0.111046
C82	C	1.494163	0.500001	0.611046
C83	C	0.987553	0.000012	0.193246
C84	C	1.487553	0.500012	0.693246
C85	C	0.913125	0.000016	0.229454
C86	C	1.413125	0.500016	0.729454
C87	C	0.845302	0.000020	0.183456
C88	C	1.345302	0.500020	0.683456
C89	C	0.851912	0.000018	0.101257
C90	C	1.351912	0.500018	0.601257
C91	C	0.885730	0.000031	0.474767
C92	C	1.385730	0.500031	0.974767
C93	C	0.879125	0.000030	0.556972
C94	C	1.379125	0.500030	1.056972
C95	C	1.021377	0.000024	0.566757
C96	C	1.521377	0.500024	1.066757
C97	C	1.027981	0.000014	0.484556
C98	C	1.527981	0.500014	0.984556
C99	C	0.960157	0.000025	0.438565
C100	C	1.460157	0.500025	0.938565
N101	N	0.906368	0.000023	0.313475
N102	N	1.406368	0.500023	0.813475
N103	N	0.966915	0.000026	0.354544
N104	N	1.466915	0.500026	0.854544
H105	H	0.166445	0.000024	-0.305946
H106	H	0.666445	0.500024	0.194054
H107	H	0.333326	-0.000007	-0.059855
H108	H	0.833326	0.499993	0.440145
N109	N	0.846805	-0.288268	-0.255768
N110	N	1.346805	0.211732	0.244232
H111	H	0.876603	-0.239155	-0.294985
H112	H	1.376603	0.260845	0.205015
H113	H	0.807610	-0.239248	-0.225890
H114	H	1.307610	0.260752	0.274110
H115	H	1.054770	-0.000009	0.081573
H116	H	1.554770	0.499991	0.581573
H117	H	0.184208	0.000010	-0.047864
H118	H	0.684208	0.500010	0.452136
N119	N	0.698661	0.000031	-0.303791
N120	N	1.198661	0.500031	0.196209
H121	H	0.657054	0.000028	-0.345754
H122	H	1.157054	0.500028	0.154246
H123	H	0.736049	-0.069661	-0.306131
H124	H	1.236049	0.430339	0.193869
H125	H	0.706848	-0.000000	-0.026041
H126	H	1.206848	0.500000	0.473959
N127	N	0.527810	-0.000113	-0.290047
N128	N	1.027810	0.499887	0.209953
H129	H	0.563224	-0.000144	-0.338196
H130	H	1.063224	0.499856	0.161804
H131	H	0.489958	0.069536	-0.293957
H132	H	0.989958	0.569536	0.206043
N133	N	1.060702	-0.000003	0.242850
N134	N	1.560702	0.499997	0.742850
H135	H	1.045223	0.000004	0.300417
H136	H	1.545223	0.500004	0.800417
H137	H	1.089427	0.069686	0.227117
H138	H	1.589427	0.569686	0.727117
H139	H	1.088588	0.000011	0.455082
H140	H	1.588588	0.500011	0.955082
H141	H	0.315576	0.000024	-0.317933
H142	H	0.815576	0.500024	0.182067
N143	N	1.094526	0.000011	0.616360
N144	N	1.594526	0.500011	1.116360
H145	H	1.079049	0.000012	0.673927
H146	H	1.579049	0.500012	1.173927
H147	H	1.123248	0.069704	0.600629
H148	H	1.623248	0.569704	1.100629
N149	N	0.798846	0.000036	0.596027
N150	N	1.298846	0.500036	1.096027
H151	H	0.756882	0.000046	0.554420
H152	H	1.256882	0.500046	1.054420
H153	H	0.789521	0.069731	0.626422
H154	H	1.289521	0.569731	1.126422
N155	N	0.548146	-0.000014	0.005623
N156	N	1.048146	0.499986	0.505623
H157	H	0.489094	-0.000010	-0.000481
H158	H	0.989094	0.499990	0.499519
H159	H	0.561159	0.069677	0.032031
H160	H	1.061159	0.569677	0.532031
H161	H	0.819595	-0.481413	-0.282971
H162	H	1.319595	0.018587	0.217029
H163	H	0.830388	-0.696095	-0.272212
H164	H	1.330388	-0.196095	0.227788
H165	H	1.012446	-0.696092	-0.090258
H166	H	1.512446	-0.196092	0.409742
N167	N	0.765027	0.000014	0.222507
N168	N	1.265027	0.500014	0.722507
H169	H	0.723067	0.000015	0.180896
H170	H	1.223067	0.500015	0.680896
H171	H	0.755691	0.069707	0.252901
H172	H	1.255691	0.569707	0.752901
H173	H	1.053697	-0.518580	-0.049009
H174	H	1.553697	-0.018580	0.450991
N175	N	1.055387	-0.288241	-0.047294
N176	N	1.555387	0.211759	0.452706
H177	H	1.043557	-0.204296	-0.059110
H178	H	1.543557	0.295704	0.440890
H179	H	1.112838	-0.308909	-0.058879
H180	H	1.612838	0.191091	0.441121
N181	N	0.812581	0.000038	0.425169
N182	N	1.312581	0.500038	0.925169
H183	H	0.764431	0.000035	0.460582
H184	H	1.264431	0.500035	0.960582
H185	H	0.815717	-0.069657	0.394349
H186	H	1.315717	0.430343	0.894349
H187	H	0.796687	0.000019	0.063811
H188	H	1.296687	0.500019	0.563811
