data_functionalizedCrystal
_audit_creation_method	'MofGen! by Chris Wilmer'
_symmetry_space_group_name_H-M	'P1'
_symmetry_Int_Tables_number	1
_symmetry_cell_setting	triclinic
loop_
_symmetry_equiv_pos_as_xyz
  x,y,z
_cell_length_a	27.731993
_cell_length_b	17.038272
_cell_length_c	16.098538
_cell_angle_alpha	87.079695
_cell_angle_beta	87.296179
_cell_angle_gamma	93.134026
loop_
_atom_site_label
_atom_site_type_symbol
_atom_site_fract_x
_atom_site_fract_y
_atom_site_fract_z
O1	O	0.647202	-0.089272	-0.069031
O2	O	1.147202	0.410728	0.430969
O3	O	0.507055	-0.103452	-0.069082
O4	O	1.007055	0.396548	0.430918
O5	O	0.576295	0.017443	-0.069050
O6	O	1.076295	0.517443	0.430950
O7	O	0.577961	-0.210167	-0.069063
O8	O	1.077961	0.289833	0.430937
O9	O	0.572249	0.010409	0.069461
O10	O	1.072249	0.510409	0.569461
O11	O	0.503009	-0.110486	0.069429
O12	O	1.003009	0.389514	0.569429
O13	O	0.643156	-0.096306	0.069480
O14	O	1.143156	0.403694	0.569480
Zn15	Zn	0.572440	-0.104513	0.091446
Zn16	Zn	1.072440	0.395487	0.591446
Zn17	Zn	0.577770	-0.095245	-0.091048
Zn18	Zn	1.077770	0.404755	0.408952
O19	O	0.573915	-0.217201	0.069448
O20	O	1.073915	0.282799	0.569448
C21	C	0.487011	-0.106678	0.000167
C22	C	0.987011	0.393322	0.500167
C23	C	0.433315	-0.105800	0.000148
C24	C	0.933315	0.394200	0.500148
C25	C	0.052069	-0.095613	-0.075314
C26	C	0.552069	0.404387	0.424686
C27	C	0.253880	-0.098954	-0.075336
C28	C	0.753880	0.401046	0.424664
O29	O	0.281847	-0.096093	-0.139550
O30	O	0.781847	0.403907	0.360450
N31	N	0.276914	-0.103206	0.000164
N32	N	0.776914	0.396794	0.500164
C33	C	0.249492	-0.106619	0.075676
C34	C	0.749492	0.393381	0.575676
O35	O	0.273715	-0.110304	0.139893
O36	O	0.773715	0.389696	0.639893
C37	C	0.047682	-0.103273	0.075698
C38	C	0.547682	0.396727	0.575698
C39	C	0.024651	-0.099028	0.000192
C40	C	0.524651	0.400972	0.500192
C41	C	0.029037	-0.091368	-0.150813
C42	C	0.529037	0.408632	0.349187
C43	C	-0.021413	-0.090537	-0.150807
C44	C	0.478587	0.409463	0.349193
C45	C	-0.048831	-0.093952	-0.075301
C46	C	0.451169	0.406048	0.424699
C47	C	-0.025799	-0.098197	0.000199
C48	C	0.474201	0.401803	0.500199
C49	C	0.020262	-0.106680	0.151209
C50	C	0.520262	0.393320	0.651209
C51	C	-0.030194	-0.105841	0.151207
C52	C	0.469806	0.394159	0.651207
C53	C	-0.053225	-0.101596	0.075702
C54	C	0.446775	0.398404	0.575702
C55	C	-0.103667	-0.100781	0.075711
C56	C	0.396333	0.399219	0.575711
N57	N	-0.126701	-0.096529	0.000210
N58	N	0.373299	0.403471	0.500210
C59	C	-0.099283	-0.093114	-0.075296
C60	C	0.400717	0.406886	0.424704
C61	C	0.355445	-0.108377	0.075659
C62	C	0.855445	0.391623	0.575659
C63	C	0.405897	-0.109215	0.075654
C64	C	0.905897	0.390785	0.575654
C65	C	0.410281	-0.101548	-0.075359
C66	C	0.910281	0.398452	0.424641
C67	C	0.359828	-0.100716	-0.075353
C68	C	0.859828	0.399284	0.424647
C69	C	0.332411	-0.104124	0.000158
C70	C	0.832411	0.395876	0.500158
C71	C	-0.205232	-0.091370	-0.075276
C72	C	0.294768	0.408630	0.424724
C73	C	-0.255687	-0.090543	-0.075263
C74	C	0.244313	0.409457	0.424737
C75	C	-0.260066	-0.098206	0.075749
C76	C	0.239934	0.401794	0.575749
C77	C	-0.209616	-0.099037	0.075736
C78	C	0.290384	0.400963	0.575736
C79	C	-0.182200	-0.095616	0.000217
C80	C	0.317800	0.404384	0.500217
O81	O	-0.131664	-0.103631	0.139891
O82	O	0.368336	0.396369	0.639891
O83	O	-0.123514	-0.089411	-0.139503
O84	O	0.376486	0.410589	0.360497
C85	C	0.102519	-0.096444	-0.075320
C86	C	0.602519	0.403556	0.424680
C87	C	0.125550	-0.100689	0.000179
C88	C	0.625550	0.399311	0.500179
C89	C	0.098132	-0.104104	0.075685
C90	C	0.598132	0.395896	0.575685
C91	C	0.176002	-0.101527	0.000174
C92	C	0.676002	0.398473	0.500174
C93	C	0.203421	-0.098113	-0.075332
C94	C	0.703421	0.401887	0.424668
C95	C	0.180387	-0.093860	-0.150833
C96	C	0.680387	0.406140	0.349167
C97	C	0.129937	-0.093029	-0.150826
C98	C	0.629937	0.406971	0.349174
C99	C	0.121166	-0.108357	0.151186
C100	C	0.621166	0.391643	0.651186
C101	C	0.171616	-0.109188	0.151173
C102	C	0.671616	0.390812	0.651173
C103	C	0.199034	-0.105773	0.075667
C104	C	0.699034	0.394227	0.575667
C105	C	0.572757	0.043036	0.000205
C106	C	1.072757	0.543036	0.500205
C107	C	0.568236	0.129775	0.000203
C108	C	1.068236	0.629775	0.500203
C109	C	0.663199	-0.093080	0.000229
C110	C	1.163199	0.406920	0.500229
C111	C	0.716895	-0.093958	0.000243
C112	C	1.216895	0.406042	0.500243
C113	C	0.577453	-0.242794	0.000192
C114	C	1.077453	0.257206	0.500192
C115	C	0.581974	-0.329533	0.000188
C116	C	1.081974	0.170467	0.500188
N117	N	0.568805	-0.110838	0.215994
N118	N	1.068805	0.389162	0.715994
C119	C	0.609739	0.180385	0.000219
C120	C	1.109739	0.680385	0.500219
C121	C	0.605489	0.261885	0.000209
C122	C	1.105489	0.761885	0.500209
C123	C	0.559736	0.292773	0.000190
C124	C	1.059736	0.792773	0.500190
C125	C	0.518230	0.242157	0.000171
C126	C	1.018230	0.742157	0.500171
C127	C	0.522481	0.160658	0.000175
C128	C	1.022481	0.660658	0.500175
C129	C	0.544719	0.538352	0.000173
C130	C	1.044719	1.038352	0.500173
C131	C	0.540471	0.619857	0.000172
C132	C	1.040471	1.119857	0.500172
C133	C	0.627731	0.639580	0.000208
C134	C	1.127731	1.139580	0.500208
C135	C	0.631978	0.558079	0.000217
C136	C	1.131978	1.058079	0.500217
C137	C	0.590472	0.507470	0.000194
C138	C	1.090472	1.007470	0.500194
C139	C	0.555390	0.376079	0.000183
C140	C	1.055390	0.876079	0.500183
C141	C	0.594818	0.424166	0.000195
C142	C	1.094818	0.924166	0.500195
N143	N	0.581408	-0.088914	-0.215596
N144	N	1.081408	0.411086	0.284404
C145	C	0.598206	-0.059543	0.259592
C146	C	1.098206	0.440457	0.759592
C147	C	0.595668	-0.063975	0.346780
C148	C	1.095668	0.436025	0.846780
C149	C	0.563732	-0.119706	0.390368
C150	C	1.063732	0.380294	0.890368
C151	C	0.534328	-0.171003	0.346763
C152	C	1.034328	0.328997	0.846763
C153	C	0.536864	-0.166567	0.259577
C154	C	1.036864	0.333433	0.759577
C155	C	0.554540	-0.135775	0.653614
C156	C	1.054540	0.364225	1.153614
C157	C	0.552008	-0.140209	0.740806
C158	C	1.052008	0.359791	1.240806
C159	C	0.613348	-0.033179	0.740817
C160	C	1.113348	0.466821	1.240817
C161	C	0.615882	-0.028751	0.653629
C162	C	1.115882	0.471249	1.153629
C163	C	0.586477	-0.080045	0.610032
C164	C	1.086477	0.419955	1.110032
C165	C	0.561139	-0.124239	0.479488
C166	C	1.061139	0.375761	0.979488
C167	C	0.589068	-0.075508	0.520913
C168	C	1.089068	0.424492	1.020913
H169	H	0.341079	-0.097259	-0.136836
H170	H	0.841079	0.402741	0.363164
F171	F	0.527151	-0.183553	0.525882
F172	F	1.027151	0.316447	1.025882
H173	H	0.641887	0.016630	0.618141
H174	H	1.141887	0.516630	1.118141
H175	H	0.646997	0.155243	0.000240
H176	H	1.146997	0.655243	0.500240
H177	H	-0.282399	-0.100989	0.137224
H178	H	0.217601	0.399011	0.637224
F179	F	0.105431	-0.088511	-0.231190
F180	F	0.605431	0.411489	0.268810
F181	F	0.044763	-0.111198	0.231574
F182	F	0.544763	0.388802	0.731574
H183	H	-0.274436	-0.087089	-0.136752
H184	H	0.225564	0.412911	0.363248
H185	H	-0.190864	-0.102509	0.137219
H186	H	0.309136	0.397491	0.637219
F187	F	0.644640	0.021410	0.787221
F188	F	1.144640	0.521410	1.287221
H189	H	0.661523	0.680795	0.000225
H190	H	1.161523	1.180795	0.500225
H191	H	0.619608	-0.022207	0.382277
H192	H	1.119608	0.477793	0.882277
H193	H	0.510922	0.497155	0.000155
H194	H	1.010922	0.997155	0.500155
H195	H	0.202719	-0.091084	-0.212312
H196	H	0.702719	0.408916	0.287688
H197	H	0.526000	-0.185595	0.776291
H198	H	1.026000	0.314405	1.276291
H199	H	0.624214	-0.014165	0.224109
H200	H	1.124214	0.485835	0.724109
H201	H	0.530598	-0.177542	0.618124
H202	H	1.030598	0.322458	1.118124
H203	H	0.508323	-0.216378	0.382257
H204	H	1.008323	0.283622	0.882257
F205	F	0.058210	-0.087731	-0.231184
F206	F	0.558210	0.412269	0.268816
H207	H	0.432614	-0.098770	-0.136839
H208	H	0.932614	0.401230	0.363161
H209	H	-0.182915	-0.088586	-0.136771
H210	H	0.317085	0.411414	0.363229
H211	H	-0.040161	-0.087077	-0.212291
H212	H	0.459839	0.412923	0.287709
H213	H	0.480976	0.267312	0.000150
H214	H	0.980976	0.767312	0.500150
F215	F	0.430403	-0.113748	0.156017
F216	F	0.930403	0.386252	0.656017
F217	F	0.505570	-0.221161	0.213177
F218	F	1.005570	0.278839	0.713177
F219	F	0.506697	0.408960	0.000159
F220	F	1.006697	0.908960	0.500159
F221	F	0.623054	-0.016194	0.474523
F222	F	1.123054	0.483806	0.974523
F223	F	0.478307	0.106795	0.000156
F224	F	0.978307	0.606795	0.500156
H225	H	-0.052515	-0.108623	0.212699
H226	H	0.447485	0.391377	0.712699
F227	F	0.326271	-0.112013	0.156034
F228	F	0.826271	0.387987	0.656034
H229	H	0.190364	-0.112651	0.212664
H230	H	0.690364	0.387349	0.712664
F231	F	0.649663	0.315746	0.000228
F232	F	1.149663	0.815746	0.500228
F233	F	0.091992	-0.111997	0.231554
F234	F	0.591992	0.388003	0.731554
F235	F	0.680675	0.525214	0.000216
F236	F	1.180675	1.025214	0.500216
H237	H	0.632071	0.399014	0.000192
H238	H	1.132071	0.899014	0.500192
H239	H	0.503211	0.645001	0.000170
H240	H	1.003211	1.145001	0.500170
