data_functionalizedCrystal
_audit_creation_method	'MofGen! by Chris Wilmer'
_symmetry_space_group_name_H-M	'P1'
_symmetry_Int_Tables_number	1
_symmetry_cell_setting	triclinic
loop_
_symmetry_equiv_pos_as_xyz
  x,y,z
_cell_length_a	25.639239
_cell_length_b	12.759401
_cell_length_c	12.759393
_cell_angle_alpha	89.981504
_cell_angle_beta	89.962948
_cell_angle_gamma	90.038847
loop_
_atom_site_label
_atom_site_type_symbol
_atom_site_fract_x
_atom_site_fract_y
_atom_site_fract_z
Zn1	Zn	-0.208118	1.606080	-0.593941
Zn2	Zn	-0.295564	1.605901	-0.418245
Zn3	Zn	-0.208145	1.430382	-0.418281
Zn4	Zn	-0.295524	1.430297	-0.593886
O5	O	-0.251838	1.518165	-0.506088
O6	O	-0.219723	1.753078	-0.570643
O7	O	-0.283996	1.582579	-0.271228
O8	O	-0.134976	1.453799	-0.441621
O9	O	-0.283970	1.752946	-0.441559
O10	O	-0.134956	1.582884	-0.570678
O11	O	-0.219770	1.453626	-0.271255
O12	O	-0.219731	1.283350	-0.441567
O13	O	-0.283901	1.453655	-0.740914
O14	O	-0.283928	1.283288	-0.570584
O15	O	-0.219684	1.582802	-0.740955
O16	O	-0.368724	1.582496	-0.441505
O17	O	-0.368695	1.453481	-0.570549
C18	C	-0.251828	1.245198	-0.506074
C19	C	-0.251837	1.128421	-0.506093
C20	C	-0.285318	1.073554	-0.573160
C21	C	-0.285324	0.963830	-0.573172
C22	C	-0.218368	0.963850	-0.439039
C23	C	-0.218359	1.073572	-0.439033
C24	C	-0.323976	1.073542	-0.650598
C25	C	-0.323983	0.963818	-0.650609
C26	C	-0.387680	1.517989	-0.506040
C27	C	-0.445795	1.518009	-0.506055
C28	C	-0.806160	1.585519	-0.439010
C29	C	-0.860765	1.585560	-0.439024
O30	O	-0.889004	1.642775	-0.381967
N31	N	-0.888077	1.518350	-0.506158
C32	C	-0.860782	1.451103	-0.573289
O33	O	-0.889027	1.393940	-0.630394
C34	C	-0.806179	1.451068	-0.573280
C35	C	-0.778869	1.518275	-0.506134
C36	C	-0.778851	1.652721	-0.371870
C37	C	-0.724250	1.652678	-0.371855
C38	C	-0.696959	1.585434	-0.438980
C39	C	-0.724269	1.518232	-0.506119
C40	C	-0.778885	1.383827	-0.640416
C41	C	-0.724278	1.383799	-0.640401
C42	C	-0.696968	1.451005	-0.573256
C43	C	-0.642377	1.450946	-0.573228
N44	N	-0.615065	1.518155	-0.506094
C45	C	-0.642356	1.585399	-0.438970
C46	C	-0.975453	1.451182	-0.573306
C47	C	-1.030055	1.451210	-0.573311
C48	C	-1.030034	1.585669	-0.439046
C49	C	-0.975430	1.585634	-0.439037
C50	C	-0.948140	1.518391	-0.506172
C51	C	-0.527691	1.585305	-0.438943
C52	C	-0.473086	1.585253	-0.438930
C53	C	-0.473111	1.450799	-0.573198
C54	C	-0.527712	1.450846	-0.573207
C55	C	-0.555000	1.518108	-0.506076
O56	O	-0.614103	1.393762	-0.630258
O57	O	-0.614104	1.642562	-0.381885
C58	C	-0.115465	1.518371	-0.506159
C59	C	-0.057351	1.518459	-0.506190
C60	C	-0.251785	1.518239	-0.780122
C61	C	-0.251763	1.518270	-0.896898
C62	C	-0.251848	1.792198	-0.506103
C63	C	-0.251852	1.908975	-0.506109
C64	C	-0.218322	1.585526	-0.951783
C65	C	-0.218303	1.585551	-1.061507
C66	C	-0.285170	1.451061	-1.061452
C67	C	-0.285186	1.451032	-0.951730
C68	C	-0.179718	1.663176	-0.951816
C69	C	-0.179699	1.663201	-1.061540
C70	C	-0.251853	1.518152	-0.233121
C71	C	-0.251728	1.518325	-0.116345
H72	H	-0.362421	1.107524	-0.621306
C73	C	-0.127737	1.623874	-1.107560
H74	H	-0.129503	1.625206	-1.181919
H75	H	-0.100141	1.667944	-1.084612
H76	H	-0.121522	1.554177	-1.084552
H77	H	-0.801111	1.329095	-0.695088
H78	H	-0.309529	0.929832	-0.727964
H79	H	-0.364467	0.933988	-0.628669
H80	H	-0.191092	1.118241	-0.384427
H81	H	-0.313178	1.103359	-0.732007
C82	C	-0.443048	1.659188	-0.365072
H83	H	-0.467125	1.699249	-0.325108
H84	H	-0.421785	1.619014	-0.319252
H85	H	-0.421709	1.704932	-0.405303
H86	H	-0.953198	1.640360	-0.384362
H87	H	-0.549903	1.640078	-0.384280
H88	H	-0.702018	1.707407	-0.317183
C89	C	-0.808863	1.726690	-0.298021
H90	H	-0.784770	1.766695	-0.258035
H91	H	-0.830129	1.772468	-0.338238
H92	H	-0.830196	1.686530	-0.252205
C93	C	-0.194361	1.773100	-1.101773
H94	H	-0.200409	1.818278	-1.043862
H95	H	-0.166647	1.800202	-1.143157
H96	H	-0.225085	1.768616	-1.143111
H97	H	-0.191111	0.919178	-0.384442
C98	C	-0.321961	1.377031	-0.891360
H99	H	-0.341865	1.336996	-0.939732
H100	H	-0.301957	1.331282	-0.848575
H101	H	-0.344757	1.417163	-0.848538
H102	H	-1.052264	1.640427	-0.384394
C103	C	-0.125023	1.633801	-0.911621
H104	H	-0.102519	1.621730	-0.969547
H105	H	-0.111576	1.689495	-0.870271
H106	H	-0.127233	1.572034	-0.870257
C107	C	-1.060090	1.377277	-0.647164
H108	H	-1.036011	1.337232	-0.687140
H109	H	-1.081431	1.331535	-0.606948
H110	H	-1.081349	1.417463	-0.692990
C111	C	-0.945438	1.377198	-0.647146
H112	H	-0.969528	1.337173	-0.687119
H113	H	-0.924099	1.417338	-0.692960
H114	H	-0.924177	1.331422	-0.606907
H115	H	-0.312382	1.396316	-1.106109
H116	H	-0.702061	1.329043	-0.695074
H117	H	-0.549949	1.396125	-0.627886
C118	C	-0.199320	1.767547	-0.905824
H119	H	-0.208035	1.814048	-0.961270
H120	H	-0.229311	1.755007	-0.863895
H121	H	-0.172698	1.797987	-0.863945
H122	H	-0.450883	1.396046	-0.627847
