data_functionalizedCrystal
_audit_creation_method	'MofGen! by Chris Wilmer'
_symmetry_space_group_name_H-M	'P1'
_symmetry_Int_Tables_number	1
_symmetry_cell_setting	triclinic
loop_
_symmetry_equiv_pos_as_xyz
  x,y,z
_cell_length_a	12.759401
_cell_length_b	12.759399
_cell_length_c	12.759393
_cell_angle_alpha	89.972640
_cell_angle_beta	90.019211
_cell_angle_gamma	89.985324
loop_
_atom_site_label
_atom_site_type_symbol
_atom_site_fract_x
_atom_site_fract_y
_atom_site_fract_z
Zn1	Zn	1.606265	0.418198	0.594012
Zn2	Zn	1.606159	0.593915	0.418343
Zn3	Zn	1.430565	0.418252	0.418351
Zn4	Zn	1.430557	0.593837	0.593984
O5	O	1.518386	0.506050	0.506172
O6	O	1.753272	0.441517	0.570717
O7	O	1.582825	0.570668	0.271323
O8	O	1.453920	0.271224	0.441667
O9	O	1.753194	0.570616	0.441654
O10	O	1.583006	0.271184	0.570725
O11	O	1.453817	0.441610	0.271329
O12	O	1.283543	0.441534	0.441641
O13	O	1.453906	0.570482	0.741009
O14	O	1.283537	0.570535	0.570678
O15	O	1.582998	0.441441	0.741029
O16	O	1.582817	0.740926	0.441628
O17	O	1.453803	0.740868	0.570670
C18	C	1.245419	0.506032	0.506158
C19	C	1.128642	0.506050	0.506176
C20	C	1.073822	0.438950	0.573483
C21	C	0.964098	0.438960	0.573490
C22	C	0.964025	0.573181	0.438880
C23	C	1.073747	0.573164	0.438869
C24	C	1.518326	0.779018	0.506168
C25	C	1.518396	0.895794	0.506201
C26	C	1.585651	0.950651	0.439089
C27	C	1.585721	1.060375	0.439132
C28	C	1.451271	1.060376	0.573403
C29	C	1.451208	0.950654	0.573364
C30	C	1.792420	0.506069	0.506188
C31	C	1.909196	0.506077	0.506195
C32	C	1.518463	0.505947	0.780206
C33	C	1.518495	0.505903	0.896983
C34	C	1.518479	1.232017	0.506218
C35	C	1.518529	1.115240	0.506283
C36	C	1.518371	0.506078	0.233205
C37	C	1.518542	0.505826	0.116429
C38	C	1.585740	0.438661	1.061588
C39	C	1.585720	0.438701	0.951864
C40	C	1.451294	0.573075	0.951831
C41	C	1.451320	0.573039	1.061553
H42	H	1.118383	0.627806	0.384054
C43	C	1.658665	0.890955	0.366349
C44	C	1.725920	0.827837	0.425869
C45	C	1.793189	0.772824	0.358897
H46	H	1.698830	0.939225	0.326363
H47	H	1.618505	0.848164	0.320537
H48	H	1.766076	0.870625	0.471663
H49	H	1.685784	0.779548	0.465852
H50	H	1.753028	0.730033	0.313084
H51	H	1.833346	0.821102	0.318915
H52	H	1.838822	0.729985	0.399271
H53	H	1.640441	0.384010	0.907217
H54	H	0.919467	0.384319	0.628296
H55	H	1.396563	0.627796	0.907138
H56	H	1.396598	0.627739	1.106206
H57	H	1.118514	0.384298	0.628285
H58	H	0.919315	0.627823	0.384082
H59	H	1.396440	0.905986	0.628020
C60	C	1.658942	1.119762	0.366326
C61	C	1.762843	1.092895	0.389294
C62	C	1.830342	1.147553	0.322237
H63	H	1.649539	1.192989	0.375878
H64	H	1.643660	1.101818	0.295700
H65	H	1.778120	1.110846	0.459903
H66	H	1.772279	1.019677	0.379737
H67	H	1.815060	1.129609	0.251611
H68	H	1.820930	1.220777	0.331794
H69	H	1.900845	1.129324	0.337805
C70	C	1.378357	1.120129	0.646196
C71	C	1.392783	1.227961	0.631845
C72	C	1.325619	1.283036	0.698873
H73	H	1.393617	1.102206	0.716837
H74	H	1.307742	1.102277	0.630741
H75	H	1.463381	1.245807	0.647308
H76	H	1.377515	1.245916	0.561218
H77	H	1.255004	1.265183	0.683418
H78	H	1.340885	1.265104	0.769510
H79	H	1.335391	1.356205	0.689138
C80	C	1.658843	0.365656	1.120979
C81	C	1.717708	0.306866	1.049461
C82	C	1.785076	0.239614	1.104130
H83	H	1.618799	0.319767	1.163788
H84	H	1.704673	0.405813	1.163758
H85	H	1.671885	0.266712	1.006700
H86	H	1.757774	0.352728	1.006649
H87	H	1.830905	0.279771	1.146908
H88	H	1.745023	0.193732	1.146937
H89	H	1.825030	0.199724	1.055613
