data_functionalizedCrystal
_audit_creation_method	'MofGen! by Chris Wilmer'
_symmetry_space_group_name_H-M	'P1'
_symmetry_Int_Tables_number	1
_symmetry_cell_setting	triclinic
loop_
_symmetry_equiv_pos_as_xyz
  x,y,z
_cell_length_a	19.121368
_cell_length_b	21.395362
_cell_length_c	21.395355
_cell_angle_alpha	90.043940
_cell_angle_beta	87.554239
_cell_angle_gamma	87.543950
loop_
_atom_site_label
_atom_site_type_symbol
_atom_site_fract_x
_atom_site_fract_y
_atom_site_fract_z
Zn1	Zn	0.279399	0.947354	0.344002
Zn2	Zn	0.612732	1.280687	0.677336
Zn3	Zn	0.946065	1.614020	1.010669
Zn4	Zn	0.396832	0.942840	0.234777
Zn5	Zn	0.730165	1.276174	0.568110
Zn6	Zn	1.063499	1.609507	0.901443
Zn7	Zn	0.279431	0.842567	0.239202
Zn8	Zn	0.612765	1.175901	0.572536
Zn9	Zn	0.946098	1.509234	0.905869
Zn10	Zn	0.396846	0.838121	0.339481
Zn11	Zn	0.730180	1.171455	0.672814
Zn12	Zn	1.063513	1.504788	1.006147
O13	O	0.338127	0.892721	0.289366
O14	O	0.671460	1.226054	0.622699
O15	O	1.004794	1.559387	0.956032
O16	O	0.294957	1.034433	0.329553
O17	O	0.628290	1.367767	0.662887
O18	O	0.961623	1.701100	0.996220
O19	O	0.381266	0.929511	0.147686
O20	O	0.714599	1.262844	0.481019
O21	O	1.047933	1.596177	0.814352
O22	O	0.181142	0.860217	0.256849
O23	O	0.514475	1.193550	0.590182
O24	O	0.847809	1.526883	0.923515
O25	O	0.381234	1.031118	0.249306
O26	O	0.714568	1.364451	0.582639
O27	O	1.047901	1.697784	0.915972
O28	O	0.181118	0.937203	0.333845
O29	O	0.514451	1.270536	0.667178
O30	O	0.847785	1.603869	1.000512
O31	O	0.295012	0.855840	0.150937
O32	O	0.628346	1.189174	0.484270
O33	O	0.961679	1.522507	0.817604
O34	O	0.295026	0.754299	0.252464
O35	O	0.628360	1.087632	0.585798
O36	O	0.961693	1.420965	0.919131
O37	O	0.381259	0.852639	0.427759
O38	O	0.714592	1.185973	0.761092
O39	O	1.047926	1.519306	1.094425
O40	O	0.381291	0.751032	0.326139
O41	O	0.714624	1.084366	0.659472
O42	O	1.047957	1.417699	0.992805
O43	O	0.294971	0.932892	0.431081
O44	O	0.628304	1.266225	0.764414
O45	O	0.961637	1.599558	1.097747
O46	O	0.495119	0.925200	0.244921
O47	O	0.828452	1.258533	0.578255
O48	O	1.161785	1.591866	0.911588
O49	O	0.495129	0.848263	0.321847
O50	O	0.828463	1.181596	0.655180
O51	O	1.161796	1.514930	0.988514
C52	C	0.338164	0.729932	0.289291
C53	C	0.671498	1.063265	0.622625
C54	C	1.004831	1.396598	0.955958
C55	C	0.338197	0.660289	0.289274
C56	C	0.671530	0.993622	0.622607
C57	C	1.004864	1.326956	0.955941
C58	C	0.154933	0.899709	0.296345
C59	C	0.488267	1.233042	0.629678
C60	C	0.821600	1.566376	0.963012
C61	C	0.076867	0.902687	0.299319
C62	C	0.410200	1.236021	0.632652
C63	C	0.743534	1.569354	0.965986
C64	C	0.383174	0.625889	0.327574
C65	C	0.716508	0.959223	0.660907
C66	C	1.049841	1.292556	0.994241
C67	C	0.383157	0.560454	0.327602
C68	C	0.716491	0.893788	0.660936
C69	C	1.049824	1.227121	0.994269
C70	C	0.338170	0.529422	0.289320
C71	C	0.671503	0.862755	0.622653
C72	C	1.004837	1.196088	0.955986
C73	C	0.293184	0.563830	0.251017
C74	C	0.626517	0.897163	0.584351
C75	C	0.959850	1.230496	0.917684
C76	C	0.293197	0.629263	0.250994
C77	C	0.626531	0.962597	0.584328
C78	C	0.959864	1.295930	0.917661
C79	C	0.332512	0.425910	0.233129
C80	C	0.665845	0.759243	0.566462
C81	C	0.999179	1.092576	0.899795
C82	C	0.332503	0.360477	0.233150
C83	C	0.665837	0.693810	0.566484
C84	C	0.999170	1.027144	0.899817
C85	C	0.338124	0.327603	0.289391
C86	C	0.671457	0.660936	0.622724
C87	C	1.004791	0.994269	0.956057
C88	C	0.343768	0.360169	0.345610
C89	C	0.677102	0.693502	0.678944
C90	C	1.010435	1.026835	1.012277
C91	C	0.343782	0.425602	0.345588
C92	C	0.677115	0.758935	0.678921
C93	C	1.010449	1.092269	1.012254
C94	C	0.338150	0.458470	0.289340
C95	C	0.671483	0.791803	0.622674
C96	C	1.004817	1.125137	0.956007
C97	C	0.383085	0.222251	0.327725
C98	C	0.716419	0.555584	0.661058
C99	C	1.049752	0.888918	0.994391
C100	C	0.383063	0.156815	0.327755
C101	C	0.716396	0.490149	0.661088
C102	C	1.049730	0.823482	0.994421
C103	C	0.293093	0.160192	0.251164
C104	C	0.626427	0.493525	0.584497
C105	C	0.959760	0.826858	0.917830
C106	C	0.293112	0.225626	0.251140
C107	C	0.626445	0.558960	0.584473
C108	C	0.959779	0.892293	0.917806
C109	C	0.338112	0.256652	0.289419
C110	C	0.671445	0.589985	0.622752
C111	C	1.004778	0.923319	0.956086
C112	C	0.040203	0.864006	0.260630
C113	C	0.373536	1.197340	0.593963
C114	C	0.706869	1.530673	0.927297
C115	C	-0.033149	0.866804	0.263431
C116	C	0.300184	1.200137	0.596764
C117	C	0.633518	1.533470	0.930097
C118	C	-0.069835	0.908285	0.304918
C119	C	0.263498	1.241619	0.638251
C120	C	0.596832	1.574952	0.971585
C121	C	-0.033165	0.946968	0.343611
C122	C	0.300168	1.280301	0.676945
C123	C	0.633501	1.613634	1.010278
C124	C	0.040185	0.944167	0.340813
C125	C	0.373518	1.277500	0.674147
C126	C	0.706852	1.610834	1.007480
C127	C	-0.291306	0.918744	0.315375
C128	C	0.042028	1.252078	0.648708
C129	C	0.375361	1.585411	0.982042
C130	C	-0.364661	0.921544	0.318169
C131	C	-0.031328	1.254877	0.651502
C132	C	0.302006	1.588210	0.984835
C133	C	-0.364640	0.841378	0.237989
C134	C	-0.031306	1.174712	0.571322
C135	C	0.302027	1.508045	0.904655
C136	C	-0.291288	0.838584	0.235192
C137	C	0.042045	1.171917	0.568525
C138	C	0.375379	1.505250	0.901858
C139	C	-0.254625	0.877264	0.273887
C140	C	0.078708	1.210597	0.607221
C141	C	0.412042	1.543930	0.940554
C142	C	-0.144812	0.911147	0.307781
C143	C	0.188521	1.244480	0.641114
C144	C	0.521855	1.577814	0.974447
C145	C	-0.179649	0.874399	0.271027
C146	C	0.153684	1.207732	0.604361
C147	C	0.487018	1.541065	0.937694
C148	C	0.520608	0.885776	0.282427
C149	C	0.853942	1.219110	0.615760
C150	C	1.187275	1.552443	0.949094
C151	C	0.598675	0.882863	0.279480
C152	C	0.932008	1.216196	0.612813
C153	C	1.265341	1.549529	0.946146
C154	C	0.338113	0.892773	0.452789
C155	C	0.671446	1.226106	0.786123
C156	C	1.004779	1.559440	1.119456
C157	C	0.338107	0.892796	0.522431
C158	C	0.671440	1.226129	0.855764
C159	C	1.004773	1.559462	1.189098
C160	C	0.338090	1.056145	0.289440
C161	C	0.671424	1.389479	0.622774
C162	C	1.004757	1.722812	0.956107
C163	C	0.338075	1.125787	0.289472
C164	C	0.671408	1.459121	0.622805
C165	C	1.004741	1.792454	0.956139
C166	C	0.338091	0.892706	0.126579
C167	C	0.671424	1.226040	0.459913
C168	C	1.004757	1.559373	0.793246
C169	C	0.337899	0.892813	0.056946
C170	C	0.671232	1.226146	0.390279
C171	C	1.004565	1.559479	0.723612
C172	C	0.293174	0.934581	0.556875
C173	C	0.626508	1.267915	0.890208
C174	C	0.959841	1.601248	1.223542
C175	C	0.293144	0.934582	0.622312
C176	C	0.626478	1.267915	0.955645
C177	C	0.959811	1.601248	1.288978
C178	C	0.338059	0.892802	0.653301
C179	C	0.671392	1.226136	0.986635
C180	C	1.004726	1.559469	1.319968
C181	C	0.382994	0.851009	0.618849
C182	C	0.716328	1.184342	0.952183
C183	C	1.049661	1.517675	1.285516
C184	C	0.383018	0.851005	0.553414
C185	C	0.716352	1.184339	0.886747
C186	C	1.049685	1.517672	1.220081
C187	C	0.401301	0.885448	0.754570
C188	C	0.734634	1.218782	1.087903
C189	C	1.067967	1.552115	1.421236
C190	C	0.401278	0.885456	0.820003
C191	C	0.734611	1.218789	1.153337
C192	C	1.067945	1.552123	1.486670
C193	C	0.337985	0.892809	0.855125
C194	C	0.671318	1.226142	1.188458
C195	C	1.004651	1.559476	1.521792
C196	C	0.274712	0.900167	0.824804
C197	C	0.608046	1.233501	1.158138
C198	C	0.941379	1.566834	1.491471
C199	C	0.274736	0.900164	0.759369
C200	C	0.608069	1.233497	1.092703
C201	C	0.941403	1.566831	1.426036
C202	C	0.338038	0.892801	0.724254
C203	C	0.671371	1.226134	1.057588
C204	C	1.004704	1.559468	1.390921
C205	C	0.293016	0.934597	0.960523
C206	C	0.626349	1.267931	1.293856
C207	C	0.959683	1.601264	1.627189
C208	C	0.292984	0.934593	1.025961
C209	C	0.626318	1.267927	1.359294
C210	C	0.959651	1.601260	1.692627
C211	C	0.382841	0.851023	1.022497
C212	C	0.716174	1.184357	1.355830
C213	C	1.049507	1.517690	1.689163
C214	C	0.382866	0.851024	0.957060
C215	C	0.716199	1.184358	1.290394
C216	C	1.049533	1.517691	1.623727
C217	C	0.337954	0.892815	0.926077
C218	C	0.671288	1.226148	1.259411
C219	C	1.004621	1.559481	1.592744
H220	H	0.419816	0.651146	0.358745
H221	H	0.753149	0.984479	0.692078
H222	H	1.086482	1.317813	1.025412
H223	H	0.419688	0.128808	0.358947
H224	H	0.753021	0.462141	0.692280
H225	H	1.086354	0.795475	1.025613
H226	H	-0.394527	0.955325	0.351954
H227	H	-0.061194	1.288659	0.685288
H228	H	0.272139	1.621992	1.018621
H229	H	0.256554	0.538559	0.219848
H230	H	0.589887	0.871892	0.553182
H231	H	0.923220	1.205225	0.886515
O232	O	-0.072697	0.825094	0.221693
O233	O	0.260636	1.158427	0.555026
O234	O	0.593970	1.491761	0.888359
H235	H	-0.034864	0.795788	0.192365
H236	H	0.298469	1.129121	0.525699
H237	H	0.631803	1.462455	0.859032
O238	O	0.431483	0.805925	0.516269
O239	O	0.764816	1.139259	0.849602
O240	O	1.098149	1.472592	1.182936
H241	H	0.467226	0.832594	0.485119
H242	H	0.800559	1.165927	0.818453
H243	H	1.133893	1.499261	1.151786
O244	O	0.079738	0.985884	0.382542
O245	O	0.413071	1.319218	0.715875
O246	O	0.746404	1.652551	1.049208
H247	H	0.065660	1.035595	0.372354
H248	H	0.398993	1.368928	0.705688
H249	H	0.732326	1.702261	1.039021
O250	O	0.349826	0.324723	0.406278
O251	O	0.683159	0.658057	0.739611
O252	O	1.016492	0.991390	1.072944
H253	H	0.348858	0.273753	0.396853
H254	H	0.682191	0.607086	0.730186
H255	H	1.015525	0.940420	1.063520
O256	O	0.244606	0.262725	0.209817
O257	O	0.577939	0.596059	0.543150
O258	O	0.911273	0.929392	0.876483
H259	H	0.208916	0.293939	0.239253
H260	H	0.542250	0.627273	0.572586
H261	H	0.875583	0.960606	0.905920
O262	O	-0.251719	0.793841	0.190447
O263	O	0.081615	1.127174	0.523781
O264	O	0.414948	1.460507	0.857114
H265	H	-0.289538	0.767409	0.164017
H266	H	0.043796	1.100742	0.497351
H267	H	0.377129	1.434076	0.830684
O268	O	0.206499	0.908097	0.726663
O269	O	0.539833	1.241430	1.059997
O270	O	0.873166	1.574764	1.393330
H271	H	0.162480	0.913208	0.762074
H272	H	0.495813	1.246542	1.095407
H273	H	0.829146	1.579875	1.428740
O274	O	0.206436	0.908098	0.862671
O275	O	0.539769	1.241432	1.196004
O276	O	0.873102	1.574765	1.529338
H277	H	0.171966	0.869576	0.851376
H278	H	0.505299	1.202909	1.184709
H279	H	0.838633	1.536243	1.518042
O280	O	0.349853	0.460727	0.406222
O281	O	0.683187	0.794060	0.739555
O282	O	1.016520	1.127394	1.072888
H283	H	0.399855	0.446270	0.427637
H284	H	0.733188	0.779604	0.760970
H285	H	1.066521	1.112937	1.094303
H286	H	0.256461	0.134926	0.219996
H287	H	0.589794	0.468259	0.553329
H288	H	0.923127	0.801592	0.886663
H289	H	-0.149776	0.840622	0.237252
H290	H	0.183557	1.173955	0.570585
H291	H	0.516890	1.507288	0.903918
H292	H	0.256442	0.968622	0.935295
H293	H	0.589776	1.301955	1.268628
H294	H	0.923109	1.635289	1.601962
H295	H	-0.174688	0.944923	0.341559
H296	H	0.158646	1.278257	0.674892
H297	H	0.491979	1.611590	1.008226
H298	H	0.327912	0.333967	0.187373
H299	H	0.661245	0.667300	0.520706
H300	H	0.994578	1.000634	0.854039
O301	O	0.079761	0.819265	0.215877
O302	O	0.413095	1.152598	0.549210
O303	O	0.746428	1.485932	0.882544
H304	H	0.113167	0.846024	0.182733
H305	H	0.446501	1.179357	0.516066
H306	H	0.779834	1.512691	0.849400
O307	O	0.431697	0.523338	0.368887
O308	O	0.765030	0.856671	0.702221
O309	O	1.098364	1.190005	1.035554
H310	H	0.463001	0.555905	0.395490
H311	H	0.796334	0.889238	0.728824
H312	H	1.129668	1.222572	1.062157
O313	O	0.326451	0.461366	0.172466
O314	O	0.659784	0.794699	0.505799
O315	O	0.993117	1.128033	0.839133
H316	H	0.322536	0.427730	0.133377
H317	H	0.655869	0.761063	0.466711
H318	H	0.989202	1.094396	0.800044
H319	H	0.256569	0.657272	0.219806
H320	H	0.589903	0.990605	0.553139
H321	H	0.923236	1.323938	0.886473
O322	O	-0.404181	0.799655	0.196259
O323	O	-0.070848	1.132988	0.529592
O324	O	0.262486	1.466322	0.862925
H325	H	-0.461350	0.808566	0.205176
H326	H	-0.128016	1.141899	0.538509
H327	H	0.205317	1.475232	0.871842
O328	O	0.244663	0.979641	0.659470
O329	O	0.577996	1.312975	0.992803
O330	O	0.911330	1.646308	1.326137
H331	H	0.252184	0.972614	0.710176
H332	H	0.585517	1.305947	1.043510
H333	H	0.918851	1.639281	1.376843
H334	H	0.452829	0.879293	0.725979
H335	H	0.786162	1.212627	1.059313
H336	H	1.119495	1.545960	1.392646
H337	H	0.419562	0.816990	0.644085
H338	H	0.752895	1.150323	0.977419
H339	H	1.086229	1.483656	1.310752
O340	O	0.431608	0.255723	0.369017
O341	O	0.764941	0.589056	0.702351
O342	O	1.098274	0.922389	1.035684
H343	H	0.462873	0.220806	0.395664
H344	H	0.796206	0.554140	0.728998
H345	H	1.129539	0.887473	1.062331
O346	O	0.244730	0.979649	0.523459
O347	O	0.578063	1.312983	0.856793
O348	O	0.911396	1.646316	1.190126
H349	H	0.276170	1.010328	0.492483
H350	H	0.609504	1.343662	0.825817
H351	H	0.942837	1.676995	1.159150
H352	H	-0.261464	0.950247	0.346877
H353	H	0.071870	1.283581	0.680210
H354	H	0.405203	1.616914	1.013543
H355	H	0.419459	0.817001	0.929016
H356	H	0.752792	1.150335	1.262349
H357	H	1.086126	1.483668	1.595682
H358	H	-0.063039	0.980741	0.377394
H359	H	0.270294	1.314074	0.710728
H360	H	0.603627	1.647408	1.044061
O361	O	0.244521	0.979665	1.063116
O362	O	0.577854	1.312999	1.396450
O363	O	0.911188	1.646332	1.729783
H364	H	0.213303	1.008726	1.030575
H365	H	0.546636	1.342059	1.363909
H366	H	0.879970	1.675393	1.697242
H367	H	0.452798	0.879468	0.844685
H368	H	0.786132	1.212801	1.178018
H369	H	1.119465	1.546135	1.511352
O370	O	0.431286	0.805958	1.055910
O371	O	0.764620	1.139292	1.389244
O372	O	1.097953	1.472625	1.722577
H373	H	0.423724	0.812982	1.107199
H374	H	0.757057	1.146315	1.440532
H375	H	1.090391	1.479648	1.773866
