data_functionalizedCrystal
_audit_creation_method	'MofGen! by Chris Wilmer'
_symmetry_space_group_name_H-M	'P1'
_symmetry_Int_Tables_number	1
_symmetry_cell_setting	triclinic
loop_
_symmetry_equiv_pos_as_xyz
  x,y,z
_cell_length_a	15.944551
_cell_length_b	23.532357
_cell_length_c	14.421503
_cell_angle_alpha	89.998741
_cell_angle_beta	89.996859
_cell_angle_gamma	83.163515
loop_
_atom_site_label
_atom_site_type_symbol
_atom_site_fract_x
_atom_site_fract_y
_atom_site_fract_z
O1	O	1.113891	0.073444	-0.077027
O2	O	0.869263	0.082500	-0.077051
O3	O	0.998975	-0.004933	-0.077019
O4	O	0.984178	0.160877	-0.077059
O5	O	0.998954	-0.004920	0.077204
O6	O	0.869241	0.082513	0.077172
O7	O	1.113869	0.073457	0.077197
Cu8	Cu	0.991553	0.077986	0.091266
Cu9	Cu	0.991579	0.077970	-0.091121
O10	O	0.984157	0.160890	0.077165
C11	C	0.837961	0.082130	0.000058
C12	C	0.744725	0.081003	0.000049
C13	C	0.998595	-0.026145	0.000096
C14	C	0.997482	-0.089368	0.000104
C15	C	0.530363	0.024114	0.000081
C16	C	0.469124	0.050525	-0.075966
C17	C	0.574017	0.078964	0.000061
C18	C	0.469124	0.050551	0.076086
C19	C	0.409121	0.076990	0.000076
C20	C	0.514006	0.105390	-0.076049
C21	C	0.514013	0.105408	0.076072
C22	C	0.452791	0.131859	0.000007
C23	C	0.669009	0.080099	0.000051
C24	C	0.314130	0.075859	0.000079
C25	C	0.990507	-0.481413	-0.084014
C26	C	0.989450	-0.540817	-0.084019
O27	O	0.988884	-0.571541	-0.155515
N28	N	0.988913	-0.570523	0.000047
C29	C	0.989426	-0.540822	0.084124
O30	O	0.988872	-0.571544	0.155628
C31	C	0.990478	-0.481419	0.084128
C32	C	0.991023	-0.451716	0.000057
C33	C	0.991051	-0.451711	-0.168078
C34	C	0.992111	-0.392312	-0.168073
C35	C	0.992626	-0.362615	-0.084002
C36	C	0.992082	-0.392317	0.000062
C37	C	0.990985	-0.451718	0.168204
C38	C	0.992036	-0.392311	0.168201
C39	C	0.992581	-0.362609	0.084130
C40	C	0.993657	-0.303221	0.084139
N41	N	0.994193	-0.273515	0.000073
C42	C	0.993678	-0.303212	-0.083998
C43	C	0.987216	-0.665572	0.084108
C44	C	0.986170	-0.724974	0.084105
C45	C	0.986192	-0.724965	-0.084039
C46	C	0.987244	-0.665562	-0.084034
C47	C	0.987752	-0.635866	0.000042
C48	C	0.995903	-0.178469	-0.083979
C49	C	0.996966	-0.119065	-0.083966
C50	C	0.996940	-0.119079	0.084176
C51	C	0.995882	-0.178478	0.084164
C52	C	0.995360	-0.208172	0.000078
O53	O	0.994220	-0.272458	0.155598
O54	O	0.994221	-0.272482	-0.155490
C55	C	1.145171	0.073826	0.000086
C56	C	1.238407	0.074953	0.000088
C57	C	0.984538	0.182101	0.000048
C58	C	0.985650	0.245324	0.000034
N59	N	0.991542	0.077996	0.219548
N60	N	0.991597	0.077955	-0.219402
C61	C	0.931552	0.118407	0.469187
C62	C	1.007356	0.129464	0.530994
C63	C	0.991562	0.077983	0.408709
C64	C	0.915778	0.066939	0.530996
C65	C	0.991575	0.077971	0.591431
C66	C	1.067404	0.089065	0.469155
C67	C	0.975776	0.026518	0.469152
C68	C	1.051635	0.037553	0.530931
C69	C	0.991553	0.077991	0.303448
C70	C	0.991593	0.077962	0.696689
H71	H	0.564091	-0.021407	-0.000002
C72	C	0.989292	-0.542765	0.242884
C73	C	0.990343	-0.484353	0.260619
H74	H	0.988888	-0.562910	0.299942
H75	H	0.940154	-0.548147	0.208310
H76	H	1.038131	-0.556855	0.208383
H77	H	0.941500	-0.470262	0.295114
H78	H	1.039486	-0.478968	0.295208
H79	H	0.985770	-0.749155	-0.152494
C80	C	0.925070	-0.094397	-0.227281
C81	C	0.997544	-0.086429	-0.176397
H82	H	0.925421	-0.074251	-0.284343
H83	H	0.924377	-0.134024	-0.239285
H84	H	0.876262	-0.080309	-0.192728
H85	H	1.046353	-0.100520	-0.210948
H86	H	0.998246	-0.046793	-0.164396
H87	H	0.880855	0.152620	0.442076
C88	C	1.119218	-0.008552	0.664398
C89	C	1.120217	-0.008608	0.567311
H90	H	1.161556	-0.037051	0.686856
H91	H	1.129988	0.027903	0.686504
H92	H	1.065436	-0.016480	0.685677
H93	H	1.173998	-0.000676	0.546032
H94	H	1.109454	-0.045072	0.545196
C95	C	0.481806	-0.037209	-0.162590
C96	C	0.442249	0.019201	-0.162740
H97	H	0.465212	-0.056549	-0.216156
H98	H	0.541342	-0.037022	-0.162935
H99	H	0.465678	-0.056315	-0.108583
H100	H	0.458382	0.038309	-0.216744
H101	H	0.382700	0.019017	-0.162404
C102	C	0.998537	-0.028016	0.158824
C103	C	0.997501	-0.086427	0.176584
H104	H	0.998873	-0.007858	0.215874
H105	H	1.047704	-0.022629	0.124300
H106	H	0.949726	-0.013946	0.124266
H107	H	1.046315	-0.100499	0.211136
H108	H	0.948328	-0.091817	0.211123
C109	C	0.628400	0.137419	-0.162182
C110	C	0.540722	0.136673	-0.162942
H111	H	0.644893	0.156727	-0.215830
H112	H	0.644115	0.156777	-0.108263
H113	H	0.655654	0.099258	-0.161954
H114	H	0.513468	0.174835	-0.163163
H115	H	0.524998	0.117316	-0.216876
H116	H	0.419237	0.177427	-0.000047
C117	C	0.884701	-0.025382	0.377649
C118	C	0.957705	-0.032208	0.432440
H119	H	0.873542	-0.061637	0.354979
H120	H	0.838260	-0.009004	0.413897
H121	H	0.892800	-0.000882	0.326901
H122	H	0.949604	-0.056705	0.483192
H123	H	1.004157	-0.048594	0.396190
H124	H	1.020720	0.172981	0.558157
H125	H	1.131513	0.098452	0.442106
C126	C	0.991884	-0.398289	0.334405
C127	C	0.992588	-0.359669	0.260623
H128	H	0.992228	-0.378137	0.391460
H129	H	0.942490	-0.417114	0.330887
H130	H	1.040467	-0.425803	0.330912
H131	H	0.944001	-0.332158	0.264112
H132	H	1.041988	-0.340835	0.264143
H133	H	0.987686	-0.641382	-0.152493
C134	C	0.518541	0.107906	0.242413
C135	C	0.540921	0.136706	0.162850
H136	H	0.535161	0.127223	0.295990
H137	H	0.459127	0.107119	0.243347
H138	H	0.546172	0.069846	0.241864
H139	H	0.513285	0.174765	0.163395
H140	H	0.600347	0.137499	0.161916
C141	C	0.481837	-0.037177	0.162732
C142	C	0.442269	0.019230	0.162878
H143	H	0.465261	-0.056514	0.216314
H144	H	0.465706	-0.056288	0.108745
H145	H	0.541379	-0.036983	0.163055
H146	H	0.382726	0.019036	0.162548
H147	H	0.458394	0.038346	0.216880
H148	H	0.995475	-0.202638	-0.152450
C149	C	0.986254	-0.719002	0.250304
C150	C	0.985579	-0.757620	0.176519
H151	H	0.985880	-0.739154	0.307358
H152	H	1.035653	-0.700180	0.246811
H153	H	0.937676	-0.691485	0.246791
H154	H	1.034161	-0.785134	0.180028
H155	H	0.936174	-0.776450	0.180013
H156	H	0.851683	0.057604	0.558162
C157	C	0.992012	-0.398287	-0.334270
C158	C	0.992695	-0.359667	-0.260488
H159	H	0.992364	-0.378134	-0.391325
H160	H	1.040588	-0.425796	-0.330769
H161	H	0.942610	-0.417114	-0.330760
H162	H	1.042100	-0.340842	-0.263994
H163	H	0.944113	-0.332147	-0.263990
C164	C	0.995965	-0.172517	0.250366
C165	C	0.995287	-0.211131	0.176575
H166	H	0.995587	-0.192673	0.307417
H167	H	1.045368	-0.153699	0.246878
H168	H	0.947391	-0.144997	0.246855
H169	H	1.043865	-0.238648	0.180082
H170	H	0.945879	-0.229958	0.180065
H171	H	0.990628	-0.475883	-0.236542
H172	H	0.987633	-0.641397	0.152577
