data_functionalizedCrystal
_audit_creation_method	'MofGen! by Chris Wilmer'
_symmetry_space_group_name_H-M	'P1'
_symmetry_Int_Tables_number	1
_symmetry_cell_setting	triclinic
loop_
_symmetry_equiv_pos_as_xyz
  x,y,z
_cell_length_a	25.639243
_cell_length_b	25.639240
_cell_length_c	12.645323
_cell_angle_alpha	90.039057
_cell_angle_beta	90.025047
_cell_angle_gamma	90.035481
loop_
_atom_site_label
_atom_site_type_symbol
_atom_site_fract_x
_atom_site_fract_y
_atom_site_fract_z
Zn1	Zn	0.799294	-0.208109	0.599409
Zn2	Zn	0.799212	-0.295547	0.422105
Zn3	Zn	0.711856	-0.208132	0.422146
Zn4	Zn	0.711824	-0.295519	0.599313
O5	O	0.755546	-0.251827	0.510743
O6	O	0.872448	-0.219710	0.575912
O7	O	0.787604	-0.283973	0.273763
O8	O	0.723502	-0.134964	0.445717
O9	O	0.872388	-0.283951	0.445648
O10	O	0.787742	-0.134947	0.575952
O11	O	0.723423	-0.219750	0.273793
O12	O	0.638687	-0.219722	0.445625
O13	O	0.723448	-0.283902	0.747673
O14	O	0.638663	-0.283925	0.575788
O15	O	0.787711	-0.219682	0.747744
O16	O	0.787572	-0.368709	0.445555
O17	O	0.723369	-0.368688	0.575749
C18	C	0.619704	-0.251823	0.510701
C19	C	0.561590	-0.251834	0.510708
C20	C	0.201252	-0.218429	0.578685
C21	C	0.146648	-0.218429	0.578691
O22	O	0.118433	-0.190017	0.636435
N23	N	0.119307	-0.251825	0.510772
C24	C	0.146574	-0.285221	0.442835
O25	O	0.118305	-0.313627	0.385064
C26	C	0.201177	-0.285218	0.442823
C27	C	0.228515	-0.251823	0.510755
C28	C	0.228590	-0.185036	0.646610
C29	C	0.283191	-0.185038	0.646604
C30	C	0.310453	-0.218432	0.578674
C31	C	0.283116	-0.251824	0.510749
C32	C	0.228443	-0.318611	0.374881
C33	C	0.283050	-0.318605	0.374875
C34	C	0.310387	-0.285210	0.442807
C35	C	0.364979	-0.285220	0.442813
N36	N	0.392319	-0.251823	0.510733
C37	C	0.365057	-0.218429	0.578663
C38	C	0.031903	-0.285223	0.442862
C39	C	-0.022699	-0.285229	0.442877
C40	C	-0.022621	-0.218436	0.578733
C41	C	0.031982	-0.218433	0.578722
C42	C	0.059244	-0.251826	0.510781
C43	C	0.479722	-0.218435	0.578647
C44	C	0.534327	-0.218440	0.578639
C45	C	0.534244	-0.285231	0.442779
C46	C	0.479644	-0.285227	0.442791
C47	C	0.452384	-0.251825	0.510729
O48	O	0.393228	-0.313616	0.385096
O49	O	0.393333	-0.190023	0.636414
C50	C	0.755473	-0.387669	0.510660
C51	C	0.755489	-0.445783	0.510660
C52	C	0.789013	-0.806099	0.578679
C53	C	0.789028	-0.860703	0.578700
O54	O	0.817444	-0.888900	0.636446
N55	N	0.755619	-0.888066	0.510846
C56	C	0.722188	-0.860821	0.442973
O57	O	0.693772	-0.889109	0.385260
C58	C	0.722171	-0.806218	0.442957
C59	C	0.755586	-0.778858	0.510809
C60	C	0.822425	-0.778739	0.646525
C61	C	0.822410	-0.724139	0.646502
C62	C	0.788983	-0.696898	0.578632
C63	C	0.755571	-0.724258	0.510786
C64	C	0.688738	-0.778974	0.375091
C65	C	0.688723	-0.724367	0.375082
C66	C	0.722138	-0.697008	0.442933
C67	C	0.722129	-0.642416	0.442893
N68	N	0.755538	-0.615054	0.510747
C69	C	0.788965	-0.642295	0.578617
C70	C	0.722227	-0.975492	0.443012
C71	C	0.722247	-1.030094	0.443021
C72	C	0.789087	-1.029972	0.578750
C73	C	0.789069	-0.975369	0.578735
C74	C	0.755637	-0.948129	0.510866
C75	C	0.788932	-0.527630	0.578562
C76	C	0.788916	-0.473024	0.578530
C77	C	0.722075	-0.473151	0.442805
C78	C	0.722093	-0.527751	0.442833
C79	C	0.755523	-0.554989	0.510720
O80	O	0.693727	-0.614185	0.385179
O81	O	0.817372	-0.614000	0.636330
C82	C	0.891919	-0.251831	0.510786
C83	C	0.950033	-0.251832	0.510804
C84	C	0.755585	-0.251786	0.787249
C85	C	0.755601	-0.251769	0.905079
C86	C	0.755635	-0.115454	0.510850
C87	C	0.755673	-0.057340	0.510895
C88	C	0.755538	-0.251829	0.235313
C89	C	0.755623	-0.251699	0.117484
C90	C	0.715049	-0.291980	1.072599
C91	C	0.715155	-0.292179	0.950039
C92	C	0.810688	-0.266720	0.949596
C93	C	0.810465	-0.266972	1.072194
C94	C	0.741589	-0.196383	1.072303
C95	C	0.740359	-0.196715	0.949697
H96	H	-0.044953	-0.312428	0.387573
H97	H	0.841729	-0.238309	0.920477
O98	O	0.686666	-0.181774	0.911136
H99	H	0.657874	-0.211106	0.938708
H100	H	0.674078	-0.282714	1.102074
O101	O	0.312450	-0.354623	0.301588
H102	H	0.355013	-0.349012	0.312982
O103	O	0.686025	-0.443763	0.369602
H104	H	0.644988	-0.454274	0.387704
O105	O	0.061307	-0.321247	0.369588
H106	H	0.033118	-0.344470	0.322372
H107	H	0.457384	-0.312427	0.387488
H108	H	0.767754	-0.165118	0.919093
O109	O	0.661046	-0.279786	0.910162
H110	H	0.661067	-0.279914	0.822388
O111	O	0.686065	-0.557268	0.369635
H112	H	0.659459	-0.582152	0.417034
H113	H	0.695004	-0.953316	0.387736
O114	O	0.727381	-0.346521	0.911245
H115	H	0.766305	-0.358505	0.940982
H116	H	0.822363	-0.307409	1.100785
H117	H	0.822790	-0.306733	0.918888
H118	H	0.556452	-0.312421	0.387474
O119	O	0.450323	-0.182412	0.651926
H120	H	0.478513	-0.159199	0.699158
O121	O	0.689302	-0.178336	1.113222
H122	H	0.690563	-0.176048	1.200842
O123	O	0.686210	-1.059596	0.369823
H124	H	0.709632	-1.084470	0.315933
O125	O	0.727176	-0.345958	1.113435
H126	H	0.761980	-0.344224	1.165552
H127	H	0.556583	-0.191245	0.633960
H128	H	0.816151	-0.549800	0.633850
O129	O	0.780728	-0.156626	1.110758
H130	H	0.810037	-0.176135	1.161802
H131	H	0.206194	-0.345804	0.319563
H132	H	0.305444	-0.157843	0.701919
H133	H	0.816128	-0.450750	0.633782
H134	H	0.206399	-0.157840	0.701927
H135	H	0.661528	-0.801241	0.319838
O136	O	0.061467	-0.182408	0.651976
H137	H	0.033331	-0.159187	0.699204
O138	O	0.858458	-0.694632	0.719668
H139	H	0.881702	-0.722755	0.766858
H140	H	0.849645	-0.800913	0.701799
H141	H	0.841721	-0.238907	1.101889
H142	H	-0.044828	-0.191243	0.634043
O143	O	0.825111	-0.945860	0.651911
H144	H	0.848356	-0.973981	0.699104
O145	O	0.825136	-1.059358	0.651970
H146	H	0.819526	-1.101923	0.640586
H147	H	0.661496	-0.702191	0.319816
