data_functionalizedCrystal
_audit_creation_method	'MofGen! by Chris Wilmer'
_symmetry_space_group_name_H-M	'P1'
_symmetry_Int_Tables_number	1
_symmetry_cell_setting	triclinic
loop_
_symmetry_equiv_pos_as_xyz
  x,y,z
_cell_length_a	10.723024
_cell_length_b	16.992695
_cell_length_c	16.053802
_cell_angle_alpha	87.258926
_cell_angle_beta	92.605405
_cell_angle_gamma	87.568046
loop_
_atom_site_label
_atom_site_type_symbol
_atom_site_fract_x
_atom_site_fract_y
_atom_site_fract_z
O1	O	-1.671600	-0.106759	-0.069425
O2	O	-1.309355	-0.117291	-0.069428
O3	O	-1.489025	0.002125	-0.069420
O4	O	-1.491930	-0.226175	-0.069433
O5	O	-1.479133	-0.004420	0.069439
O6	O	-1.299463	-0.123837	0.069431
O7	O	-1.661708	-0.113305	0.069434
Zn8	Zn	-1.479015	-0.119610	0.091479
Zn9	Zn	-1.492048	-0.110986	-0.091473
O10	O	-1.482038	-0.232721	0.069426
C11	C	-1.480343	0.028085	0.000009
C12	C	-1.469195	0.115189	0.000009
C13	C	-1.257843	-0.119797	0.000001
C14	C	-1.119092	-0.117504	0.000000
C15	C	-1.713220	-0.110798	0.000003
C16	C	-1.851972	-0.113091	-0.000002
C17	C	-1.049863	-0.184323	-0.000004
C18	C	-0.906455	-0.181955	-0.000005
C19	C	-1.490720	-0.258680	-0.000005
C20	C	-1.501869	-0.345784	-0.000011
N21	N	-1.470129	-0.125495	0.216339
C22	C	-1.576755	0.164851	0.000011
C23	C	-1.566274	0.246694	0.000003
C24	C	-1.448231	0.278874	-0.000001
C25	C	-1.340663	0.229206	-0.000005
C26	C	-1.351146	0.147364	-0.000003
C27	C	-1.404783	0.522706	-0.000013
C28	C	-1.394308	0.604554	-0.000012
C29	C	-1.619921	0.622037	-0.000006
C30	C	-1.630393	0.540193	0.000001
C31	C	-1.522825	0.490532	-0.000007
N32	N	-1.437514	0.362531	-0.000006
N33	N	-1.533543	0.406877	-0.000008
N34	N	-1.500943	-0.105094	-0.216333
C35	C	-1.546610	-0.074702	0.260036
C36	C	-1.540407	-0.078826	0.347443
C37	C	-1.457727	-0.133748	0.391150
C38	C	-1.381238	-0.184544	0.347447
C39	C	-1.387435	-0.180415	0.260042
C40	C	-1.430651	-0.151761	0.652559
C41	C	-1.424462	-0.155887	0.739970
C42	C	-1.583630	-0.050168	0.739960
C43	C	-1.589826	-0.046048	0.652553
C44	C	-1.513332	-0.096840	0.608857
N45	N	-1.451387	-0.137967	0.480494
N46	N	-1.519666	-0.092617	0.519515
H47	H	-1.096761	-0.243283	-0.000003
H48	H	-0.846949	-0.239157	-0.000012
H49	H	-1.072194	-0.058543	-0.000018
H50	H	-0.911471	-0.055885	-0.000003
H51	H	-1.244550	0.255413	-0.000014
Br52	Br	-1.205166	0.079965	-0.000012
H53	H	-1.672878	0.138657	0.000019
Br54	Br	-1.312250	-0.230435	0.799282
H55	H	-1.726516	0.513998	0.000004
H56	H	-1.707496	0.662479	-0.000000
Br57	Br	-1.326843	-0.220693	0.593262
Br58	Br	-1.658834	-0.000166	0.200728
Br59	Br	-1.269017	-0.259077	0.406761
H60	H	-1.653861	0.287126	0.000006
H61	H	-1.325155	-0.221776	0.224464
H62	H	-1.298178	0.630750	-0.000002
Br63	Br	-1.258798	0.455320	-0.000030
Br64	Br	-1.644199	-0.009889	0.406749
H65	H	-1.657150	-0.001326	0.616968
H66	H	-1.645907	-0.008814	0.775545
