data_functionalizedCrystal
_audit_creation_method	'MofGen! by Chris Wilmer'
_symmetry_space_group_name_H-M	'P1'
_symmetry_Int_Tables_number	1
_symmetry_cell_setting	triclinic
loop_
_symmetry_equiv_pos_as_xyz
  x,y,z
_cell_length_a	6.817900
_cell_length_b	10.773890
_cell_length_c	14.858340
_cell_angle_alpha	96.152117
_cell_angle_beta	104.519754
_cell_angle_gamma	96.645716
loop_
_atom_site_label
_atom_site_type_symbol
_atom_site_fract_x
_atom_site_fract_y
_atom_site_fract_z
V1	V	-4.003605	-0.173386	-0.288438
O2	O	-4.027072	0.007513	-0.284507
O3	O	-3.921125	-0.343008	-0.284966
O4	O	-3.960687	-0.171078	-0.414920
O5	O	-3.987236	-0.165607	-0.153653
V6	V	-4.490938	-0.151706	-0.272499
O7	O	-4.256504	-0.220943	-0.323403
O8	O	-4.688236	-0.104149	-0.237535
O9	O	-4.350211	0.017916	-0.275971
O10	O	-4.584868	-0.332605	-0.276431
O11	O	-4.624704	-0.159485	-0.407285
O12	O	-4.310649	-0.154014	-0.146017
C13	C	-3.757658	-0.384347	-0.280029
C14	C	-3.771544	-0.523017	-0.278034
C15	C	-3.949769	-0.590889	-0.281501
C16	C	-3.964126	-0.734213	-0.279439
C17	C	-3.808122	-0.165032	-0.445797
C18	C	-3.854090	-0.164267	-0.549187
C19	C	-3.891420	-0.163645	-0.633151
C20	C	-3.938267	-0.162859	-0.738487
C21	C	-3.975621	-0.162232	-0.822444
C22	C	-4.022473	-0.161449	-0.927787
C23	C	-4.177019	0.059248	-0.280906
C24	C	-4.142371	0.197918	-0.282907
C25	C	-4.126555	-0.160064	-0.115135
C26	C	-4.059827	-0.160822	-0.011745
H27	H	-3.629590	-0.571016	-0.273543
H28	H	-4.091728	-0.542892	-0.286003
H29	H	-4.284344	-0.754092	-0.287407
F30	F	-3.778560	-0.796939	-0.273569
