data_functionalizedCrystal
_audit_creation_method	'MofGen! by Chris Wilmer'
_symmetry_space_group_name_H-M	'P1'
_symmetry_Int_Tables_number	1
_symmetry_cell_setting	triclinic
loop_
_symmetry_equiv_pos_as_xyz
  x,y,z
_cell_length_a	11.792254
_cell_length_b	10.268362
_cell_length_c	10.723023
_cell_angle_alpha	90.004269
_cell_angle_beta	84.333073
_cell_angle_gamma	90.004525
loop_
_atom_site_label
_atom_site_type_symbol
_atom_site_fract_x
_atom_site_fract_y
_atom_site_fract_z
O1	O	1.507274	0.108296	0.171115
O2	O	1.176974	0.108299	0.188726
O3	O	1.349743	0.108292	-0.001676
O4	O	1.334505	0.108303	0.361516
O5	O	1.349728	-0.108309	-0.001684
O6	O	1.176959	-0.108302	0.188718
O7	O	1.507259	-0.108305	0.171107
Cu8	Cu	1.342107	-0.128081	0.179912
Cu9	Cu	1.342125	0.128075	0.179921
O10	O	1.334490	-0.108298	0.361509
C11	C	1.134673	-0.000001	0.187613
C12	C	1.008653	-0.000000	0.184292
N13	N	1.342103	-0.308246	0.179904
C14	C	0.906310	0.000005	0.181594
C15	C	0.777916	0.000006	0.178221
C16	C	1.342120	-0.573917	0.179919
C17	C	1.342107	-0.426079	0.179914
C18	C	1.549560	-0.000002	0.172220
C19	C	1.675580	0.000006	0.175541
C20	C	1.348627	-0.000007	-0.048176
C21	C	1.345310	-0.000003	-0.186722
N22	N	1.342139	0.308241	0.179919
C23	C	1.343839	0.112205	-0.248480
C24	C	1.340410	0.112212	-0.391674
C25	C	1.335606	0.000004	0.408009
C26	C	1.338923	0.000008	0.546555
H27	H	1.345113	0.208264	-0.195341
H28	H	1.344024	-0.096062	-0.239859
N29	N	1.338745	0.239470	-0.462012
H30	H	1.336535	0.221436	-0.554334
H31	H	1.269053	0.291062	-0.429681
N32	N	1.340608	-0.127249	-0.383109
H33	H	1.271666	-0.132444	-0.319455
H34	H	1.339188	-0.202054	-0.444093
