data_functionalizedCrystal
_audit_creation_method	'MofGen! by Chris Wilmer'
_symmetry_space_group_name_H-M	'P1'
_symmetry_Int_Tables_number	1
_symmetry_cell_setting	triclinic
loop_
_symmetry_equiv_pos_as_xyz
  x,y,z
_cell_length_a	6.817900
_cell_length_b	11.102188
_cell_length_c	16.255661
_cell_angle_alpha	93.854852
_cell_angle_beta	103.488922
_cell_angle_gamma	108.603875
loop_
_atom_site_label
_atom_site_type_symbol
_atom_site_fract_x
_atom_site_fract_y
_atom_site_fract_z
V1	V	-4.052929	-0.176865	-0.263871
O2	O	-4.013087	0.007443	-0.258848
O3	O	-4.030098	-0.349678	-0.262067
O4	O	-4.004157	-0.174608	-0.378954
O5	O	-4.039208	-0.168839	-0.141151
V6	V	-4.533292	-0.154765	-0.249193
O7	O	-4.321119	-0.225344	-0.296069
O8	O	-4.715300	-0.106287	-0.216995
O9	O	-4.332917	0.018048	-0.250997
O10	O	-4.690531	-0.339073	-0.254216
O11	O	-4.664411	-0.162792	-0.371913
O12	O	-4.358858	-0.157022	-0.134110
C13	C	-3.881331	-0.391792	-0.257904
C14	C	-3.943947	-0.533072	-0.257196
C15	C	-3.930405	-0.580995	-0.179361
C16	C	-3.989264	-0.713744	-0.178699
C17	C	-4.075197	-0.750636	-0.333712
C18	C	-4.016353	-0.617890	-0.334374
C19	C	-4.135732	-0.877166	-0.087394
C20	C	-4.122155	-0.925091	-0.009555
C21	C	-3.947437	-0.861553	0.061374
C22	C	-3.786246	-0.750090	0.054468
C23	C	-3.799809	-0.702171	-0.023372
C24	C	-3.974571	-0.765708	-0.094299
C25	C	-3.869864	-0.454464	-0.425673
C26	C	-3.883412	-0.406543	-0.503513
C27	C	-4.058120	-0.470079	-0.574449
C28	C	-4.219287	-0.581547	-0.567551
C29	C	-4.205739	-0.629468	-0.489710
C30	C	-4.031030	-0.565923	-0.418774
C31	C	-3.848239	-0.168471	-0.407005
C32	C	-3.889815	-0.167769	-0.501086
C33	C	-3.799128	-0.159385	-0.723905
C34	C	-3.971585	-0.267595	-0.793381
C35	C	-3.966004	-0.166453	-0.673335
C36	C	-3.867655	-0.057005	-0.771496
C37	C	-4.039583	-0.165176	-0.839718
C38	C	-4.137957	-0.274760	-0.741581
C39	C	-4.033950	-0.064074	-0.719680
C40	C	-4.206548	-0.172315	-0.789137
C41	C	-3.923612	-0.167190	-0.577485
C42	C	-4.081993	-0.164449	-0.935567
C43	C	-4.145028	0.060155	-0.255158
C44	C	-4.061649	0.201433	-0.255872
C45	C	-4.178119	-0.163164	-0.106055
C46	C	-4.115781	-0.163859	-0.011973
H47	H	-4.134152	-0.819711	-0.396548
O48	O	-3.616318	-0.688251	0.123275
C49	C	-3.476997	-0.579582	0.100494
H50	H	-3.501842	-0.593634	0.028204
H51	H	-3.513093	-0.490409	0.120858
C52	C	-3.211972	-0.545098	0.234539
C53	C	-3.242475	-0.562362	0.145752
H54	H	-3.067308	-0.534470	0.262458
H55	H	-3.305838	-0.618307	0.249889
H56	H	-3.242066	-0.470788	0.251497
H57	H	-3.212408	-0.636679	0.128793
H58	H	-3.148599	-0.489165	0.130400
O59	O	-3.593385	-0.153253	-0.689980
C60	C	-3.560900	-0.260793	-0.727899
H61	H	-3.722024	-0.341928	-0.754437
H62	H	-3.483644	-0.233141	-0.782160
C63	C	-3.214230	-0.206367	-0.627576
C64	C	-3.412123	-0.306023	-0.660164
H65	H	-3.122449	-0.234264	-0.585796
H66	H	-3.236110	-0.133912	-0.602031
H67	H	-3.149877	-0.183333	-0.672801
H68	H	-3.476484	-0.329044	-0.614941
H69	H	-3.390249	-0.378483	-0.685700
H70	H	-3.945667	-0.353640	-0.825467
H71	H	-3.871450	-0.511938	-0.116518
O72	O	-3.643121	-0.594034	-0.030170
C73	C	-3.547796	-0.622778	-0.093595
H74	H	-3.573888	-0.730009	-0.102493
H75	H	-3.624274	-0.596011	-0.156596
C76	C	-3.273065	-0.413781	-0.054822
C77	C	-3.305096	-0.545482	-0.065746
H78	H	-3.123359	-0.366097	-0.037647
H79	H	-3.337291	-0.394412	-0.012093
H80	H	-3.336812	-0.391493	-0.107326
H81	H	-3.241374	-0.567770	-0.013240
H82	H	-3.240854	-0.564852	-0.108466
H83	H	-4.251829	-0.366887	-0.728114
H84	H	-4.253412	-1.015846	-0.003938
O85	O	-4.412424	-0.178633	-0.822975
C86	C	-4.411948	-0.068280	-0.861201
H87	H	-4.252350	0.012844	-0.831478
H88	H	-4.434106	-0.091184	-0.932908
C89	C	-4.793109	-0.126019	-0.882750
C90	C	-4.597094	-0.026378	-0.846238
H91	H	-4.907320	-0.100174	-0.873524
H92	H	-4.793433	-0.200369	-0.857000
H93	H	-4.811544	-0.145097	-0.942503
H94	H	-4.578650	-0.007313	-0.786485
H95	H	-4.596771	0.047977	-0.871978
H96	H	-3.936387	-0.900583	0.124752
O97	O	-4.065110	0.038526	-0.681469
C98	C	-4.278402	0.032693	-0.715959
H99	H	-4.345507	-0.027974	-0.782236
H100	H	-4.380861	-0.012684	-0.672319
C101	C	-4.199921	0.244080	-0.641653
C102	C	-4.282334	0.169577	-0.723058
H103	H	-4.202351	0.328515	-0.646029
H104	H	-4.056224	0.248009	-0.618413
H105	H	-4.285314	0.206251	-0.605295
H106	H	-4.196926	0.207397	-0.759411
H107	H	-4.426018	0.165657	-0.746304
H108	H	-4.278027	-0.928899	-0.145142
O109	O	-3.726710	-0.298392	-0.510296
C110	C	-3.631333	-0.327133	-0.573704
H111	H	-3.657414	-0.434362	-0.582598
H112	H	-3.707778	-0.300369	-0.636712
C113	C	-3.356619	-0.118130	-0.534915
C114	C	-3.388637	-0.249830	-0.545833
H115	H	-3.206914	-0.070442	-0.517726
H116	H	-3.420880	-0.098764	-0.492198
H117	H	-3.420337	-0.095845	-0.587425
H118	H	-3.324943	-0.272116	-0.493321
H119	H	-3.324359	-0.269197	-0.588541
H120	H	-4.336978	-0.720236	-0.484098
H121	H	-4.361543	-0.633286	-0.625314
H122	H	-3.727594	-0.402718	-0.367913
H123	H	-3.753782	0.034998	-0.785106
H124	H	-4.069125	-0.431056	-0.637833
