data_functionalizedCrystal
_audit_creation_method	'MofGen! by Chris Wilmer'
_symmetry_space_group_name_H-M	'P1'
_symmetry_Int_Tables_number	1
_symmetry_cell_setting	triclinic
loop_
_symmetry_equiv_pos_as_xyz
  x,y,z
_cell_length_a	17.699097
_cell_length_b	17.699082
_cell_length_c	16.176319
_cell_angle_alpha	89.991642
_cell_angle_beta	90.007315
_cell_angle_gamma	83.285456
loop_
_atom_site_label
_atom_site_type_symbol
_atom_site_fract_x
_atom_site_fract_y
_atom_site_fract_z
O1	O	1.004070	0.095747	0.068812
O2	O	0.783693	0.108189	0.068798
O3	O	0.900108	-0.008221	0.068804
O4	O	0.887654	0.212157	0.068806
O5	O	0.900097	-0.008200	-0.068689
O6	O	0.783681	0.108210	-0.068695
O7	O	1.004058	0.095768	-0.068682
Cu8	Cu	0.893869	0.101991	-0.081243
Cu9	Cu	0.893882	0.101966	0.081359
O10	O	0.887643	0.212178	-0.068687
C11	C	0.755490	0.107752	0.000049
C12	C	0.671473	0.106409	0.000044
C13	C	0.155760	0.098168	0.075025
C14	C	0.234705	0.099425	0.075021
C15	C	0.274164	0.100065	0.000070
C16	C	0.234677	0.099442	-0.074882
C17	C	0.155735	0.098180	-0.074877
C18	C	0.553041	0.104530	-0.074903
C19	C	0.631988	0.105794	-0.074903
C20	C	0.632011	0.105774	0.074994
C21	C	0.553069	0.104512	0.074999
C22	C	0.513589	0.103885	0.000048
C23	C	0.427989	0.102521	0.000053
C24	C	0.359762	0.101435	0.000064
C25	C	0.899656	-0.036408	0.000059
C26	C	0.898318	-0.120426	0.000063
C27	C	1.032261	0.096205	0.000069
C28	C	1.116278	0.097547	0.000079
C29	C	0.888095	0.240364	0.000060
C30	C	0.889433	0.324382	0.000061
N31	N	0.893865	0.102008	-0.195608
C32	C	0.890069	0.363840	0.075009
C33	C	0.891336	0.442783	0.075010
C34	C	0.891962	0.482267	0.000062
C35	C	0.891328	0.442804	-0.074892
C36	C	0.890067	0.363862	-0.074892
C37	C	0.896418	0.761168	-0.074893
C38	C	0.897677	0.840116	-0.074887
C39	C	0.897686	0.840089	0.075010
C40	C	0.896425	0.761147	0.075010
C41	C	0.895796	0.721690	0.000056
C42	C	0.894423	0.636091	0.000056
C43	C	0.893329	0.567865	0.000062
C44	C	0.848075	0.056100	-0.761001
C45	C	0.848073	0.056105	-0.674454
C46	C	0.893885	0.101959	-0.631183
C47	C	0.939708	0.147804	-0.674464
C48	C	0.939713	0.147794	-0.761009
C49	C	0.939689	0.147847	-0.325436
C50	C	0.939679	0.147856	-0.238884
C51	C	0.848049	0.056159	-0.238880
C52	C	0.848054	0.056148	-0.325426
C53	C	0.893880	0.101990	-0.368699
C54	C	0.893882	0.101982	-0.462543
C55	C	0.893880	0.101972	-0.537341
N56	N	0.893892	0.101943	0.195724
H57	H	0.266812	0.099959	-0.135908
H58	H	0.664114	0.106315	-0.135940
C59	C	0.889365	0.320459	-0.157342
N60	N	0.888838	0.287769	-0.219445
C61	C	0.509668	0.103802	0.157451
N62	N	0.476980	0.103262	0.219555
H63	H	0.123637	0.097652	0.136059
H64	H	0.123589	0.097683	-0.135905
H65	H	0.889552	0.331699	0.136041
C66	C	0.797676	0.005656	-0.808591
N67	N	0.759717	-0.032341	-0.844434
H68	H	0.977002	0.185175	-0.360658
C69	C	0.892034	0.486183	0.157460
N70	N	0.892561	0.518871	0.219565
H71	H	0.520908	0.104008	-0.135933
C72	C	0.797656	0.005707	-0.373019
N73	N	0.759697	-0.032288	-0.408865
H74	H	0.810739	0.018830	-0.203637
H75	H	0.976987	0.185197	-0.203655
C76	C	0.892014	0.486240	-0.157336
N77	N	0.892525	0.518956	-0.219435
C78	C	0.898371	0.883546	-0.157340
N79	N	0.898895	0.916258	-0.219440
H80	H	0.895911	0.729003	0.136040
C81	C	0.990108	0.198238	-0.626863
N82	N	1.028070	0.236225	-0.591010
H83	H	0.898201	0.872224	0.136041
H84	H	0.895906	0.729051	-0.135925
C85	C	0.990112	0.198228	-0.808611
N86	N	1.028075	0.236216	-0.844463
C87	C	0.797667	0.005678	-0.626856
N88	N	0.759699	-0.032306	-0.591006
H89	H	0.664165	0.106281	0.136023
C90	C	0.278133	0.100097	0.157468
N91	N	0.310843	0.100600	0.219570
