data_functionalizedCrystal
_audit_creation_method	'MofGen! by Chris Wilmer'
_symmetry_space_group_name_H-M	'P1'
_symmetry_Int_Tables_number	1
_symmetry_cell_setting	triclinic
loop_
_symmetry_equiv_pos_as_xyz
  x,y,z
_cell_length_a	16.974800
_cell_length_b	15.995292
_cell_length_c	16.053811
_cell_angle_alpha	92.568396
_cell_angle_beta	91.073829
_cell_angle_gamma	83.429017
loop_
_atom_site_label
_atom_site_type_symbol
_atom_site_fract_x
_atom_site_fract_y
_atom_site_fract_z
O1	O	1.049056	0.106736	0.001486
O2	O	0.819592	0.119554	-0.014025
O3	O	0.940621	-0.008732	-0.005845
O4	O	0.928028	0.235022	-0.006694
O5	O	0.933958	-0.001699	0.132563
O6	O	0.812929	0.126587	0.124383
O7	O	1.042393	0.113769	0.139894
Zn8	Zn	0.926604	0.121294	0.154114
Zn9	Zn	0.935382	0.112028	-0.028245
O10	O	0.921365	0.242055	0.131714
C11	C	0.786898	0.122454	0.053194
C12	C	0.699406	0.120608	0.047279
C13	C	0.654674	0.123572	0.119949
C14	C	0.572468	0.121824	0.114394
C15	C	0.534993	0.117117	0.036169
C16	C	0.579730	0.114150	-0.036506
C17	C	0.661936	0.115893	-0.030951
C18	C	0.289524	0.111490	0.011463
C19	C	0.207311	0.109751	0.005912
C20	C	0.200055	0.117422	0.156814
C21	C	0.282262	0.119169	0.162363
C22	C	0.326993	0.116198	0.089688
N23	N	0.450964	0.115333	0.030489
N24	N	0.411021	0.117976	0.095368
C25	C	0.936777	-0.036413	0.063322
C26	C	0.935241	-0.129369	0.063212
C27	C	0.929591	-0.467120	0.062838
C28	C	1.016932	-0.443598	0.069052
C29	C	1.018607	-0.346934	0.068849
C30	C	0.932394	-0.299558	0.063024
C31	C	0.892526	-0.332772	-0.018964
C32	C	0.891477	-0.429568	-0.019098
C33	C	0.882117	-0.421431	0.138178
C34	C	0.885304	-0.324879	0.139438
C35	C	0.933974	-0.204858	0.063126
C36	C	0.928009	-0.561819	0.062730
C37	C	1.075088	0.110869	0.072673
C38	C	1.162580	0.112715	0.078582
C39	C	0.925209	0.269735	0.062545
C40	C	0.926745	0.362692	0.062650
N41	N	0.920618	0.127618	0.278570
C42	C	0.972135	0.073051	0.325746
C43	C	0.967955	0.077483	0.412870
C44	C	0.912263	0.136484	0.452817
C45	C	0.860741	0.191053	0.405635
C46	C	0.864917	0.186617	0.318512
C47	C	0.894021	0.155836	0.712994
C48	C	0.889851	0.160269	0.800123
C49	C	0.997064	0.046697	0.807352
C50	C	1.001239	0.042270	0.720228
C51	C	0.949714	0.096836	0.673053
N52	N	0.907991	0.141017	0.541872
N53	N	0.953983	0.092299	0.583999
N54	N	0.941367	0.105703	0.847299
H55	H	0.163626	0.119840	0.215982
H56	H	0.827600	-0.444442	-0.027007
N57	N	1.049675	-0.009054	0.855540
N58	N	1.049074	-0.086947	0.845744
H59	H	1.086230	-0.126327	0.879776
H60	H	0.924567	-0.459319	-0.076136
N61	N	1.065203	-0.327362	0.000576
N62	N	1.136540	-0.356752	-0.003885
H63	H	1.169450	-0.342931	-0.052107
N64	N	0.320553	0.123963	0.242262
N65	N	0.393951	0.125516	0.247211
H66	H	0.420996	0.128904	0.303641
N67	N	0.921640	-0.297774	0.215501
N68	N	0.947511	-0.350537	0.267351
H69	H	0.973169	-0.331388	0.321072
H70	H	0.536053	0.124223	0.173570
N71	N	0.541453	0.109358	-0.116413
N72	N	0.545786	0.165955	-0.166802
H73	H	0.518754	0.162573	-0.223239
N74	N	0.832949	0.220541	0.840916
N75	N	0.786946	0.269251	0.798787
H76	H	0.746759	0.311814	0.827597
H77	H	1.053128	-0.475405	0.014954
N78	N	0.813117	-0.293157	-0.028021
N79	N	0.784956	-0.239874	0.025978
H80	H	0.728873	-0.211895	0.019584
H81	H	0.176802	0.105921	-0.057791
H82	H	0.325934	0.109068	-0.047715
N83	N	0.934128	-0.311269	-0.090176
N84	N	0.993140	-0.271502	-0.080751
H85	H	1.022527	-0.256317	-0.131042
N86	N	0.806071	-0.283400	0.140141
N87	N	0.782898	-0.235765	0.200786
H88	H	0.726936	-0.206471	0.201289
N89	N	0.803859	0.251331	0.446435
N90	N	0.805384	0.328235	0.436765
H91	H	0.765210	0.370810	0.465578
H92	H	0.698355	0.113480	-0.090126
H93	H	1.050084	-0.324954	0.127816
N94	N	0.912829	-0.452995	0.215645
N95	N	0.970087	-0.509555	0.216266
H96	H	0.991786	-0.531851	0.270973
H97	H	0.817791	-0.435538	0.134366
H98	H	1.047874	-0.468640	0.128008
H99	H	1.017489	0.025009	0.293227
N100	N	0.812285	0.242358	0.270333
N101	N	0.762562	0.295035	0.306007
H102	H	0.725387	0.334402	0.271982
H103	H	1.009903	0.033050	0.451280
H104	H	0.852069	0.200267	0.674591
N105	N	0.692935	0.128399	0.199863
N106	N	0.652982	0.131051	0.264739
H107	H	0.680001	0.134463	0.321181
N108	N	1.058267	-0.017861	0.679448
N109	N	1.104349	-0.066482	0.721586
H110	H	1.144678	-0.108896	0.692790
