data_functionalizedCrystal
_audit_creation_method	'MofGen! by Chris Wilmer'
_symmetry_space_group_name_H-M	'P1'
_symmetry_Int_Tables_number	1
_symmetry_cell_setting	triclinic
loop_
_symmetry_equiv_pos_as_xyz
  x,y,z
_cell_length_a	15.944551
_cell_length_b	10.654550
_cell_length_c	9.730223
_cell_angle_alpha	89.998861
_cell_angle_beta	89.998330
_cell_angle_gamma	83.991821
loop_
_atom_site_label
_atom_site_type_symbol
_atom_site_fract_x
_atom_site_fract_y
_atom_site_fract_z
O1	O	1.115460	0.161958	0.114143
O2	O	0.871026	0.181927	0.114177
O3	O	0.998863	-0.010870	0.114154
O4	O	0.987623	0.354754	0.114166
O5	O	0.998855	-0.010859	-0.114426
O6	O	0.871018	0.181937	-0.114403
O7	O	1.115452	0.161969	-0.114437
Zn8	Zn	0.993234	0.171955	-0.150712
Zn9	Zn	0.993244	0.171941	0.150452
O10	O	0.987615	0.354765	-0.114414
C11	C	0.998034	-0.057652	-0.000134
C12	C	0.995565	-0.197063	-0.000129
C13	C	0.839723	0.181103	-0.000109
C14	C	0.746463	0.178618	-0.000096
C15	C	1.070833	-0.277522	-0.000144
C16	C	1.068508	-0.408513	-0.000134
C17	C	0.915639	-0.378572	-0.000100
C18	C	0.917965	-0.247584	-0.000101
C19	C	1.159090	-0.294810	-0.000169
C20	C	1.156765	-0.425801	-0.000159
C21	C	0.530880	0.053173	-0.000127
C22	C	0.470201	0.111420	0.112577
C23	C	0.575711	0.174122	-0.000112
C24	C	0.470215	0.111459	-0.112785
C25	C	0.410773	0.169770	-0.000134
C26	C	0.516260	0.232402	0.112684
C27	C	0.516281	0.232424	-0.112779
C28	C	0.455620	0.290759	-0.000047
C29	C	0.670728	0.176625	-0.000099
C30	C	0.315757	0.167276	-0.000138
C31	C	1.146755	0.162792	-0.000148
C32	C	1.240015	0.165278	-0.000152
C33	C	0.988444	0.401547	-0.000123
C34	C	0.990913	0.540958	-0.000119
N35	N	0.993232	0.171964	-0.356249
C36	C	1.044616	0.248173	-0.428193
C37	C	1.044629	0.248150	-0.572076
C38	C	0.941866	0.095703	-0.572058
C39	C	0.941859	0.095721	-0.428177
C40	C	1.103943	0.336191	-0.428204
C41	C	1.103956	0.336167	-0.572087
N42	N	0.993252	0.171922	0.355988
H43	H	0.852460	-0.419722	-0.000076
C44	C	1.219221	-0.349443	-0.221161
C45	C	1.196787	-0.247140	-0.133580
H46	H	1.242424	-0.319997	-0.303573
H47	H	1.170606	-0.390220	-0.242233
H48	H	1.259860	-0.407485	-0.177079
H49	H	1.156142	-0.189103	-0.177658
H50	H	1.245408	-0.206343	-0.112511
H51	H	0.449798	0.060259	0.207857
C52	C	1.231619	-0.363110	0.207278
C53	C	1.205687	-0.255772	0.128955
H54	H	1.260379	-0.339005	0.286995
H55	H	1.268374	-0.419847	0.154127
H56	H	1.183686	-0.403263	0.233848
H57	H	1.253621	-0.215625	0.102377
H58	H	1.168931	-0.199014	0.182116
H59	H	0.563632	-0.047204	0.000009
H60	H	0.900040	0.033629	-0.630640
H61	H	1.183442	-0.471793	0.098532
C62	C	0.800870	0.046268	-0.383911
C63	C	0.885373	0.011944	-0.349108
H64	H	0.765997	-0.005452	-0.335093
H65	H	0.793537	0.035349	-0.479886
H66	H	0.785766	0.132181	-0.360332
H67	H	0.900479	-0.073968	-0.372696
H68	H	0.892711	0.022851	-0.253111
H69	H	1.190016	-0.467987	-0.095822
H70	H	0.536547	0.283515	0.208071
C71	C	0.997586	0.448204	-0.286970
C72	C	1.068256	0.464313	-0.367964
H73	H	0.975553	0.527302	-0.249786
H74	H	1.013491	0.391128	-0.214274
H75	H	0.955780	0.415274	-0.341931
H76	H	1.110065	0.497234	-0.313000
H77	H	1.052354	0.521408	-0.440669
H78	H	0.423043	0.391240	0.000019
C79	C	0.520877	0.237913	-0.359319
C80	C	0.543867	0.301427	-0.241405
H81	H	0.537915	0.280503	-0.438733
H82	H	0.461445	0.236178	-0.360704
H83	H	0.547691	0.153988	-0.358495
H84	H	0.517048	0.385350	-0.242223
H85	H	0.603310	0.303176	-0.240020
H86	H	0.449830	0.060285	-0.208064
C87	C	1.247612	0.267367	-0.487392
C88	C	1.193367	0.293367	-0.375467
H89	H	1.302815	0.240922	-0.454830
H90	H	1.248765	0.341288	-0.541629
H91	H	1.228050	0.202242	-0.541610
H92	H	1.212925	0.358499	-0.321254
H93	H	1.192217	0.219438	-0.321206
H94	H	1.167219	0.295871	-0.616699
H95	H	0.856674	-0.182077	-0.000070
C96	C	0.994645	0.509174	-0.576904
C97	C	1.076019	0.470209	-0.624849
H98	H	0.977397	0.591917	-0.609487
H99	H	0.994641	0.509194	-0.479288
H100	H	0.956706	0.452843	-0.609442
H101	H	1.113960	0.526534	-0.592301
H102	H	1.076029	0.470198	-0.722485
