data_functionalizedCrystal
_audit_creation_method	'MofGen! by Chris Wilmer'
_symmetry_space_group_name_H-M	'P1'
_symmetry_Int_Tables_number	1
_symmetry_cell_setting	triclinic
loop_
_symmetry_equiv_pos_as_xyz
  x,y,z
_cell_length_a	25.639239
_cell_length_b	17.077404
_cell_length_c	17.077396
_cell_angle_alpha	89.980499
_cell_angle_beta	90.031074
_cell_angle_gamma	89.961089
loop_
_atom_site_label
_atom_site_type_symbol
_atom_site_fract_x
_atom_site_fract_y
_atom_site_fract_z
Zn1	Zn	-0.208148	-1.199968	0.443829
Zn2	Zn	0.125186	-0.866635	0.777162
Zn3	Zn	0.458519	-0.533302	1.110495
Zn4	Zn	-0.295585	-1.199839	0.312557
Zn5	Zn	0.037748	-0.866506	0.645890
Zn6	Zn	0.371081	-0.533173	0.979223
Zn7	Zn	-0.208166	-1.068700	0.312576
Zn8	Zn	0.125167	-0.735367	0.645910
Zn9	Zn	0.458501	-0.402034	0.979243
Zn10	Zn	-0.295554	-1.068632	0.443780
Zn11	Zn	0.037779	-0.735299	0.777114
Zn12	Zn	0.371112	-0.401965	1.110447
O13	O	-0.251863	-1.134285	0.378185
O14	O	0.081470	-0.800952	0.711519
O15	O	0.414803	-0.467618	1.044852
O16	O	-0.219752	-1.309798	0.426427
O17	O	0.113582	-0.976465	0.759760
O18	O	0.446915	-0.643132	1.093094
O19	O	-0.284010	-1.182418	0.202712
O20	O	0.049324	-0.849085	0.536046
O21	O	0.382657	-0.515751	0.869379
O22	O	-0.134998	-1.086196	0.330016
O23	O	0.198335	-0.752863	0.663349
O24	O	0.531668	-0.419529	0.996683
O25	O	-0.283992	-1.309703	0.329982
O26	O	0.049342	-0.976370	0.663315
O27	O	0.382675	-0.643037	0.996649
O28	O	-0.134985	-1.182638	0.426446
O29	O	0.198348	-0.849305	0.759780
O30	O	0.531682	-0.515971	1.093113
O31	O	-0.219783	-1.086071	0.202727
O32	O	0.113550	-0.752737	0.536060
O33	O	0.446884	-0.419404	0.869394
O34	O	-0.219753	-0.958844	0.329969
O35	O	0.113580	-0.625511	0.663302
O36	O	0.446914	-0.292178	0.996636
O37	O	-0.283939	-1.086080	0.553634
O38	O	0.049394	-0.752746	0.886967
O39	O	0.382728	-0.419413	1.220300
O40	O	-0.283957	-0.958794	0.426364
O41	O	0.049377	-0.625461	0.759697
O42	O	0.382710	-0.292128	1.093030
O43	O	-0.219722	-1.182572	0.553669
O44	O	0.113612	-0.849239	0.887002
O45	O	0.446945	-0.515905	1.220336
O46	O	-0.368746	-1.182352	0.329935
O47	O	-0.035413	-0.849018	0.663268
O48	O	0.297920	-0.515685	0.996602
O49	O	-0.368724	-1.085954	0.426345
O50	O	-0.035390	-0.752621	0.759678
O51	O	0.297943	-0.419288	1.093011
C52	C	-0.251854	-0.930337	0.378164
C53	C	0.081480	-0.597004	0.711497
C54	C	0.414813	-0.263670	1.044830
C55	C	-0.251862	-0.843087	0.378173
C56	C	0.081471	-0.509754	0.711506
C57	C	0.414804	-0.176421	1.044840
C58	C	-0.387706	-1.134153	0.378150
C59	C	-0.054373	-0.800820	0.711483
C60	C	0.278961	-0.467486	1.044816
C61	C	-0.445820	-1.134168	0.378160
C62	C	-0.112487	-0.800835	0.711494
C63	C	0.220847	-0.467502	1.044827
C64	C	-0.251825	-1.134333	0.582930
C65	C	0.081509	-0.800999	0.916263
C66	C	0.414842	-0.467666	1.249596
C67	C	-0.251808	-1.134353	0.670180
C68	C	0.081525	-0.801019	1.003513
C69	C	0.414858	-0.467686	1.336846
C70	C	-0.806182	-1.184610	0.328071
C71	C	-0.472849	-0.851277	0.661404
C72	C	-0.139516	-0.517943	0.994737
C73	C	-0.860787	-1.184641	0.328081
C74	C	-0.527453	-0.851307	0.661414
C75	C	-0.194120	-0.517974	0.994748
O76	O	-0.889023	-1.227391	0.285454
O77	O	-0.555689	-0.894058	0.618787
O78	O	-0.222356	-0.560724	0.952120
N79	N	-0.888102	-1.134423	0.378237
N80	N	-0.554769	-0.801090	0.711571
N81	N	-0.221436	-0.467756	1.044904
C82	C	-0.860811	-1.084177	0.428392
C83	C	-0.527478	-0.750844	0.761726
C84	C	-0.194144	-0.417511	1.095059
O85	O	-0.889059	-1.041467	0.471056
O86	O	-0.555726	-0.708133	0.804389
O87	O	-0.222392	-0.374800	1.137722
C88	C	-0.806208	-1.084151	0.428385
C89	C	-0.472874	-0.750818	0.761718
C90	C	-0.139541	-0.417485	1.095052
C91	C	-0.778895	-1.134367	0.378220
C92	C	-0.445561	-0.801033	0.711553
C93	C	-0.112228	-0.467700	1.044886
C94	C	-0.778869	-1.234822	0.277910
C95	C	-0.445536	-0.901489	0.611243
C96	C	-0.112203	-0.568155	0.944577
C97	C	-0.724269	-1.234790	0.277899
C98	C	-0.390935	-0.901457	0.611232
C99	C	-0.057602	-0.568124	0.944565
C100	C	-0.696981	-1.184547	0.328048
C101	C	-0.363648	-0.851213	0.661381
C102	C	-0.030314	-0.517880	0.994715
C103	C	-0.724294	-1.134335	0.378209
C104	C	-0.390961	-0.801002	0.711542
C105	C	-0.057628	-0.467668	1.044875
C106	C	-0.778917	-1.033910	0.478543
C107	C	-0.445584	-0.700577	0.811877
C108	C	-0.112251	-0.367244	1.145210
C109	C	-0.724310	-1.033889	0.478532
C110	C	-0.390977	-0.700556	0.811866
C111	C	-0.057644	-0.367223	1.145199
C112	C	-0.696997	-1.084104	0.428367
C113	C	-0.363664	-0.750771	0.761700
C114	C	-0.030331	-0.417438	1.095034
C115	C	-0.642406	-1.084060	0.428346
C116	C	-0.309073	-0.750727	0.761680
C117	C	0.024261	-0.417393	1.095013
N118	N	-0.615090	-1.134278	0.378190
N119	N	-0.281757	-0.800944	0.711523
N120	N	0.051576	-0.467611	1.044857
C121	C	-0.642378	-1.184521	0.328041
C122	C	-0.309045	-0.851188	0.661374
C123	C	0.024289	-0.517854	0.994707
C124	C	-0.975482	-1.084236	0.428404
C125	C	-0.642148	-0.750903	0.761738
C126	C	-0.308815	-0.417570	1.095071
C127	C	-1.030084	-1.084258	0.428408
C128	C	-0.696751	-0.750924	0.761741
C129	C	-0.363417	-0.417591	1.095075
C130	C	-1.030056	-1.184722	0.328098
C131	C	-0.696722	-0.851389	0.661431
C132	C	-0.363389	-0.518056	0.994764
C133	C	-0.975452	-1.184696	0.328091
C134	C	-0.642119	-0.851363	0.661424
C135	C	-0.308786	-0.518030	0.994757
C136	C	-0.948166	-1.134454	0.378248
C137	C	-0.614832	-0.801121	0.711581
C138	C	-0.281499	-0.467787	1.044915
C139	C	-0.527713	-1.184450	0.328020
C140	C	-0.194379	-0.851117	0.661354
C141	C	0.138954	-0.517784	0.994687
C142	C	-0.473107	-1.184412	0.328011
C143	C	-0.139774	-0.851078	0.661344
C144	C	0.193559	-0.517745	0.994678
C145	C	-0.473140	-1.083951	0.428324
C146	C	-0.139807	-0.750617	0.761657
C147	C	0.193526	-0.417284	1.094991
C148	C	-0.527741	-1.083986	0.428331
C149	C	-0.194408	-0.750652	0.761664
C150	C	0.138926	-0.417319	1.094997
C151	C	-0.555026	-1.134242	0.378176
C152	C	-0.221693	-0.800909	0.711509
C153	C	0.111641	-0.467575	1.044843
O154	O	-0.614135	-1.041334	0.470954
O155	O	-0.280802	-0.708000	0.804288
O156	O	0.052531	-0.374667	1.137621
O157	O	-0.614123	-1.227232	0.285392
O158	O	-0.280790	-0.893898	0.618725
O159	O	0.052544	-0.560565	0.952059
C160	C	-0.115490	-1.134439	0.378239
C161	C	0.217843	-0.801106	0.711572
C162	C	0.551176	-0.467772	1.044905
C163	C	-0.057376	-1.134505	0.378261
C164	C	0.275957	-0.801171	0.711595
C165	C	0.609290	-0.467838	1.044928
C166	C	-0.251873	-1.339029	0.378208
C167	C	0.081460	-1.005696	0.711541
C168	C	0.414793	-0.672363	1.044874
C169	C	-0.251877	-1.426279	0.378217
C170	C	0.081456	-1.092946	0.711550
C171	C	0.414789	-0.759612	1.044884
C172	C	-0.285344	-0.802092	0.428285
C173	C	0.047990	-0.468758	0.761619
C174	C	0.381323	-0.135425	1.094952
C175	C	-0.285345	-0.720111	0.428298
C176	C	0.047989	-0.386778	0.761631
C177	C	0.381322	-0.053445	1.094965
C178	C	-0.251867	-0.679128	0.378194
C179	C	0.081466	-0.345795	0.711527
C180	C	0.414800	-0.012461	1.044860
C181	C	-0.218382	-0.720129	0.328079
C182	C	0.114951	-0.386796	0.661413
C183	C	0.448285	-0.053463	0.994746
C184	C	-0.218378	-0.802108	0.328071
C185	C	0.114955	-0.468775	0.661405
C186	C	0.448288	-0.135442	0.994738
C187	C	-0.218392	-0.549259	0.328098
C188	C	0.114941	-0.215926	0.661431
C189	C	0.448275	0.117407	0.994765
C190	C	-0.218396	-0.467275	0.328105
C191	C	0.114937	-0.133941	0.661438
C192	C	0.448271	0.199392	0.994772
C193	C	-0.285358	-0.467262	0.428325
C194	C	0.047975	-0.133929	0.761658
C195	C	0.381308	0.199404	1.094991
C196	C	-0.285355	-0.549241	0.428317
C197	C	0.047978	-0.215908	0.761650
C198	C	0.381312	0.117426	1.094983
C199	C	-0.251871	-0.590237	0.378201
C200	C	0.081463	-0.256904	0.711534
C201	C	0.414796	0.076430	1.044868
C202	C	-0.251864	-1.134283	0.174238
C203	C	0.081469	-0.800950	0.507571
C204	C	0.414803	-0.467616	0.840904
C205	C	-0.251733	-1.134415	0.086988
C206	C	0.081600	-0.801081	0.420322
C207	C	0.414934	-0.467748	0.753655
C208	C	-0.218368	-1.184598	0.711190
C209	C	0.114966	-0.851265	1.044523
C210	C	0.448299	-0.517931	1.377856
C211	C	-0.218350	-1.184608	0.793170
C212	C	0.114983	-0.851274	1.126503
C213	C	0.448316	-0.517941	1.459837
C214	C	-0.251777	-1.134375	0.834139
C215	C	0.081557	-0.801042	1.167473
C216	C	0.414890	-0.467708	1.500806
C217	C	-0.285219	-1.084124	0.793123
C218	C	0.048115	-0.750791	1.126457
C219	C	0.381448	-0.417457	1.459790
C220	C	-0.285233	-1.084111	0.711144
C221	C	0.048100	-0.750778	1.044478
C222	C	0.381434	-0.417445	1.377811
C223	C	-0.285187	-1.084156	0.963994
C224	C	0.048146	-0.750822	1.297327
C225	C	0.381479	-0.417489	1.630660
C226	C	-0.285174	-1.084169	1.045978
C227	C	0.048160	-0.750836	1.379312
C228	C	0.381493	-0.417503	1.712645
C229	C	-0.218304	-1.184652	1.046019
C230	C	0.115029	-0.851319	1.379353
C231	C	0.448362	-0.517985	1.712686
C232	C	-0.218319	-1.184639	0.964040
C233	C	0.115015	-0.851306	1.297374
C234	C	0.448348	-0.517973	1.630707
C235	C	-0.251762	-1.134389	0.923030
C236	C	0.081572	-0.801056	1.256364
C237	C	0.414905	-0.467722	1.589697
H238	H	-0.450871	-1.225303	0.287158
H239	H	-0.117538	-0.891970	0.620491
H240	H	0.215796	-0.558636	0.953825
H241	H	-0.191073	-1.225566	1.079414
H242	H	0.142260	-0.892233	1.412747
H243	H	0.475594	-0.558900	1.746080
Cl244	Cl	-0.438826	-1.020795	0.491369
Cl245	Cl	-0.105493	-0.687462	0.824703
Cl246	Cl	0.227841	-0.354128	1.158036
H247	H	-0.191121	-0.686754	0.287287
H248	H	0.142212	-0.353421	0.620620
H249	H	0.475545	-0.020088	0.953954
Cl250	Cl	-0.176346	-1.247755	0.659694
Cl251	Cl	0.156987	-0.914422	0.993027
Cl252	Cl	0.490321	-0.581089	1.326360
H253	H	-1.052283	-1.225636	0.287266
H254	H	-0.718950	-0.892303	0.620599
H255	H	-0.385616	-0.558969	0.953933
Cl256	Cl	-0.327273	-1.020941	0.659589
Cl257	Cl	0.006060	-0.687607	0.992922
Cl258	Cl	0.339394	-0.354274	1.326256
Cl259	Cl	-0.562005	-1.247629	0.264967
Cl260	Cl	-0.228672	-0.914295	0.598300
Cl261	Cl	0.104661	-0.580962	0.931633
Cl262	Cl	-0.176332	-1.247811	0.844722
Cl263	Cl	0.157002	-0.914478	1.178055
Cl264	Cl	0.490335	-0.581144	1.511389
Cl265	Cl	-0.176300	-1.247794	0.912537
Cl266	Cl	0.157034	-0.914461	1.245870
Cl267	Cl	0.490367	-0.581128	1.579204
H268	H	-0.801081	-1.275740	0.237072
H269	H	-0.467748	-0.942407	0.570406
H270	H	-0.134414	-0.609074	0.903739
Cl271	Cl	-0.327190	-1.021010	1.097481
Cl272	Cl	0.006143	-0.687677	1.430815
Cl273	Cl	0.339476	-0.354344	1.764148
H274	H	-0.702034	-1.275682	0.237052
H275	H	-0.368700	-0.942349	0.570386
H276	H	-0.035367	-0.609015	0.903719
H277	H	-0.312607	-0.835454	0.469084
H278	H	0.020726	-0.502121	0.802417
H279	H	0.354060	-0.168788	1.135750
Cl280	Cl	-0.327446	-0.415725	0.491338
Cl281	Cl	0.005887	-0.082392	0.824672
Cl282	Cl	0.339221	0.250941	1.158005
Cl283	Cl	-0.690011	-0.970724	0.541592
Cl284	Cl	-0.356677	-0.637391	0.874926
Cl285	Cl	-0.023344	-0.304058	1.208259
H286	H	-0.191129	-0.433908	0.287315
H287	H	0.142204	-0.100575	0.620648
H288	H	0.475538	0.232758	0.953982
Cl289	Cl	-0.327230	-1.020982	0.912439
Cl290	Cl	0.006103	-0.687649	1.245773
Cl291	Cl	0.339437	-0.354315	1.579106
Cl292	Cl	-0.327239	-1.020971	0.844628
Cl293	Cl	0.006094	-0.687638	1.177961
Cl294	Cl	0.339428	-0.354305	1.511294
Cl295	Cl	-0.176297	-0.600796	0.265094
Cl296	Cl	0.157037	-0.267462	0.598428
Cl297	Cl	0.490370	0.065871	0.931761
H298	H	-0.953217	-1.225586	0.287242
H299	H	-0.619884	-0.892253	0.620576
H300	H	-0.286551	-0.558920	0.953909
Cl301	Cl	-0.327438	-0.668577	0.491299
Cl302	Cl	0.005896	-0.335244	0.824633
Cl303	Cl	0.339229	-0.001910	1.157966
Cl304	Cl	-1.064413	-1.021118	0.491466
Cl305	Cl	-0.731080	-0.687785	0.824800
Cl306	Cl	-0.397747	-0.354451	1.158133
H307	H	-0.953267	-1.043317	0.469246
H308	H	-0.619934	-0.709983	0.802579
H309	H	-0.286601	-0.376650	1.135913
H310	H	-0.801146	-0.993016	0.519390
H311	H	-0.467813	-0.659683	0.852723
H312	H	-0.134480	-0.326349	1.186056
Cl313	Cl	-0.176285	-0.853646	0.265072
Cl314	Cl	0.157049	-0.520313	0.598406
Cl315	Cl	0.490382	-0.186979	0.931739
H316	H	-0.549980	-1.043099	0.469182
H317	H	-0.216647	-0.709766	0.802515
H318	H	0.116686	-0.376432	1.135848
H319	H	-0.312619	-0.582607	0.469112
H320	H	0.020715	-0.249274	0.802445
H321	H	0.354048	0.084059	1.135778
