data_functionalizedCrystal
_audit_creation_method	'MofGen! by Chris Wilmer'
_symmetry_space_group_name_H-M	'P1'
_symmetry_Int_Tables_number	1
_symmetry_cell_setting	triclinic
loop_
_symmetry_equiv_pos_as_xyz
  x,y,z
_cell_length_a	9.065218
_cell_length_b	14.971482
_cell_length_c	13.448316
_cell_angle_alpha	90.006202
_cell_angle_beta	89.995277
_cell_angle_gamma	95.685753
loop_
_atom_site_label
_atom_site_type_symbol
_atom_site_fract_x
_atom_site_fract_y
_atom_site_fract_z
O1	O	0.192235	-1.188382	-0.082675
O2	O	0.692235	-0.688382	0.417325
O3	O	0.215265	-0.928153	-0.082679
O4	O	0.715265	-0.428153	0.417321
O5	O	-0.011002	-1.063647	-0.082675
O6	O	0.488998	-0.563647	0.417325
O7	O	0.418502	-1.052889	-0.082679
O8	O	0.918502	-0.552889	0.417321
O9	O	-0.011016	-1.063629	0.082709
O10	O	0.488984	-0.563629	0.582709
O11	O	0.215251	-0.928136	0.082705
O12	O	0.715251	-0.428136	0.582705
O13	O	0.192221	-1.188365	0.082709
O14	O	0.692221	-0.688365	0.582709
Cu15	Cu	0.203735	-1.058249	0.097808
Cu16	Cu	0.703735	-0.558249	0.597808
Cu17	Cu	0.203751	-1.058269	-0.097778
Cu18	Cu	0.703751	-0.558269	0.402222
O19	O	0.418488	-1.052871	0.082705
O20	O	0.918488	-0.552871	0.582705
C21	C	-0.065974	-1.062604	0.000015
C22	C	0.434026	-0.562604	0.500015
C23	C	-0.229754	-1.059513	0.000011
C24	C	0.270246	-0.559513	0.500011
C25	C	0.214229	-0.894812	0.000012
C26	C	0.714229	-0.394812	0.500012
C27	C	0.211145	-0.795492	0.000010
C28	C	0.711145	-0.295492	0.500010
C29	C	0.193257	-1.221706	0.000015
C30	C	0.693257	-0.721706	0.500015
C31	C	0.196341	-1.321026	0.000011
C32	C	0.696341	-0.821026	0.500011
C33	C	0.473460	-1.053914	0.000012
C34	C	0.973460	-0.553914	0.500012
C35	C	0.637240	-1.057005	0.000010
C36	C	1.137240	-0.557005	0.500010
C37	C	0.209686	-0.748827	0.090162
C38	C	0.709686	-0.248827	0.590162
C39	C	0.206765	-0.655507	0.090163
C40	C	0.706765	-0.155507	0.590163
C41	C	0.205314	-0.608852	0.000011
C42	C	0.705314	-0.108852	0.500011
C43	C	0.206770	-0.655524	-0.090147
C44	C	0.706770	-0.155524	0.409853
C45	C	0.209680	-0.748843	-0.090147
C46	C	0.709680	-0.248843	0.409853
C47	C	0.200708	-0.461017	-0.090141
C48	C	0.700708	0.038983	0.409859
C49	C	0.197800	-0.367691	-0.090141
C50	C	0.697800	0.132309	0.409859
C51	C	0.197793	-0.367680	0.090170
C52	C	0.697793	0.132320	0.590170
C53	C	0.200703	-0.461000	0.090170
C54	C	0.700703	0.039000	0.590170
C55	C	0.202161	-0.507665	0.000011
C56	C	0.702161	-0.007665	0.500011
N57	N	0.203722	-1.058241	0.235372
N58	N	0.703722	-0.558241	0.735372
N59	N	0.203752	-1.058284	-0.235342
N60	N	0.703752	-0.558284	0.264658
C61	C	0.103573	-1.118256	0.287414
C62	C	0.603573	-0.618256	0.787414
C63	C	0.103572	-1.118262	0.391517
C64	C	0.603572	-0.618262	0.891517
C65	C	0.203728	-1.058256	0.443576
C66	C	0.703728	-0.558256	0.943576
C67	C	0.303882	-0.998234	0.391527
C68	C	0.803882	-0.498234	0.891527
C69	C	0.303875	-0.998224	0.287426
C70	C	0.803875	-0.498224	0.787426
C71	C	0.303892	-0.998258	0.608507
C72	C	0.803892	-0.498258	1.108507
C73	C	0.303902	-0.998269	0.712616
C74	C	0.803902	-0.498269	1.212616
C75	C	0.103589	-1.118296	0.712599
C76	C	0.603589	-0.618296	1.212599
C77	C	0.103582	-1.118287	0.608497
C78	C	0.603582	-0.618287	1.108497
C79	C	0.203738	-1.058266	0.556455
C80	C	0.703738	-0.558266	1.056455
H81	H	0.210879	-0.786805	0.163574
H82	H	0.710879	-0.286805	0.663574
C83	C	0.211289	-0.800174	-0.189321
C84	C	0.711289	-0.300174	0.310679
N85	N	0.212497	-0.838835	-0.264023
N86	N	0.712497	-0.338835	0.235977
C87	C	0.414059	-0.932210	0.230180
C88	C	0.914059	-0.432210	0.730180
N89	N	0.497054	-0.882486	0.187063
N90	N	0.997054	-0.382486	0.687063
H91	H	0.205551	-0.617518	0.163574
H92	H	0.705551	-0.117518	0.663574
C93	C	0.414070	-0.932253	0.769879
C94	C	0.914070	-0.432253	1.269879
N95	N	0.497049	-0.882528	0.813009
N96	N	0.997049	-0.382528	1.313009
C97	C	0.414055	-0.932222	0.551263
C98	C	0.914055	-0.432222	1.051263
N99	N	0.497027	-0.882484	0.508147
N100	N	0.997027	-0.382484	1.008147
H101	H	0.201896	-0.499009	-0.163558
H102	H	0.701896	0.000991	0.336442
C103	C	0.196178	-0.316348	0.189346
C104	C	0.696178	0.183652	0.689346
N105	N	0.194965	-0.277680	0.264043
N106	N	0.694965	0.222320	0.764043
H107	H	0.205579	-0.617531	-0.163550
H108	H	0.705579	-0.117531	0.336450
C109	C	0.202300	-0.512317	0.189341
C110	C	0.702300	-0.012317	0.689341
N111	N	0.203497	-0.550970	0.264039
N112	N	0.703497	-0.050970	0.764039
H113	H	0.022034	-1.167153	0.566111
H114	H	0.522034	-0.667153	1.066111
H115	H	0.022020	-1.167124	0.245034
H116	H	0.522020	-0.667124	0.745034
H117	H	0.196621	-0.329707	-0.163551
H118	H	0.696621	0.170293	0.336449
C119	C	-0.006590	-1.184317	0.769847
C120	C	0.493410	-0.684317	1.269847
N121	N	-0.089571	-1.234043	0.812971
N122	N	0.410429	-0.734043	1.312971
H123	H	0.022021	-1.167131	0.433890
H124	H	0.522021	-0.667131	0.933890
H125	H	0.385427	-0.949371	0.433919
H126	H	0.885427	-0.449371	0.933919
