data_functionalizedCrystal
_audit_creation_method	'MofGen! by Chris Wilmer'
_symmetry_space_group_name_H-M	'P1'
_symmetry_Int_Tables_number	1
_symmetry_cell_setting	triclinic
loop_
_symmetry_equiv_pos_as_xyz
  x,y,z
_cell_length_a	17.038272
_cell_length_b	13.339070
_cell_length_c	11.804783
_cell_angle_alpha	99.434903
_cell_angle_beta	77.538353
_cell_angle_gamma	76.629575
loop_
_atom_site_label
_atom_site_type_symbol
_atom_site_fract_x
_atom_site_fract_y
_atom_site_fract_z
O1	O	0.381017	-1.356843	0.099068
O2	O	0.328592	-1.057805	0.099060
O3	O	0.240605	-1.205549	0.099055
O4	O	0.469004	-1.209099	0.099074
O5	O	0.277389	-1.245145	-0.098982
O6	O	0.365376	-1.097401	-0.098977
O7	O	0.417801	-1.396439	-0.098969
Cu8	Cu	0.394947	-1.250536	-0.117055
Cu9	Cu	0.351446	-1.203709	0.117147
O10	O	0.505788	-1.248696	-0.098964
C11	C	0.338128	-1.039152	0.000041
C12	C	0.311732	-0.924579	0.000037
C13	C	0.229167	-1.222114	0.000036
C14	C	0.140279	-1.212468	0.000036
C15	C	0.408264	-1.415091	0.000053
C16	C	0.434659	-1.529663	0.000064
C17	C	0.109394	-1.301025	0.000037
C18	C	0.025872	-1.291954	0.000048
C19	C	-0.026761	-1.194326	0.000050
C20	C	0.004129	-1.105763	0.000052
C21	C	0.087648	-1.114833	0.000050
C22	C	-0.279479	-1.162281	0.000065
C23	C	-0.363003	-1.153217	0.000064
C24	C	-0.341254	-1.339409	0.000063
C25	C	-0.257734	-1.348472	0.000053
C26	C	-0.226852	-1.259907	0.000062
C27	C	-0.112133	-1.185053	0.000057
C28	C	-0.141483	-1.269180	0.000063
C29	C	0.517226	-1.232130	0.000058
C30	C	0.606112	-1.241774	0.000065
N31	N	0.425544	-1.283479	-0.281780
C32	C	0.516976	-0.577444	0.000073
C33	C	0.541778	-0.685090	0.000080
C34	C	0.484269	-0.744967	0.000069
C35	C	0.401952	-0.697188	0.000052
C36	C	0.377145	-0.589530	0.000054
C37	C	0.344439	-0.757054	0.000050
C38	C	0.262122	-0.709275	0.000033
C39	C	0.237320	-0.601627	0.000034
C40	C	0.294829	-0.541749	0.000046
C41	C	0.369246	-0.864712	0.000048
C42	C	0.229415	-0.876799	0.000029
C43	C	0.204613	-0.769153	0.000022
C44	C	0.247356	-1.091627	-0.655819
C45	C	0.224200	-1.066686	-0.531169
C46	C	0.274534	-1.120882	-0.468816
C47	C	0.348028	-1.200024	-0.531125
C48	C	0.371182	-1.224974	-0.655787
C49	C	0.398361	-1.254228	-0.468784
C50	C	0.471854	-1.333370	-0.531093
C51	C	0.495005	-1.358315	-0.655743
C52	C	0.444671	-1.304120	-0.718096
C53	C	0.375206	-1.229278	-0.344122
C54	C	0.499032	-1.362625	-0.344089
C55	C	0.522188	-1.387566	-0.468739
N56	N	0.320845	-1.170773	0.281872
H57	H	0.152244	-1.380525	0.000029
H58	H	0.164361	-1.002251	-0.480446
H59	H	-0.254346	-1.090164	0.000072
Br60	Br	0.243108	-1.087031	-0.299645
H61	H	0.436269	-0.903604	0.000057
Br62	Br	0.517931	-0.891061	0.000077
H63	H	0.000730	-1.364067	0.000047
H64	H	0.463524	-1.324419	-0.819596
H65	H	0.315368	-1.164839	-0.293402
H66	H	0.206378	-1.047516	-0.706599
H67	H	0.554843	-1.422767	-0.706471
H68	H	-0.405852	-1.073718	0.000046
H69	H	0.582028	-1.452005	-0.519489
H70	H	-0.154996	-1.105564	0.000056
H71	H	-0.214884	-1.427970	0.000052
H72	H	0.608799	-0.723982	0.000103
H73	H	0.274639	-0.454094	0.000040
Br74	Br	-0.383170	-1.459598	0.000051
Br75	Br	-0.067304	-0.973263	0.000074
Br76	Br	0.125595	-0.536776	0.000060
H77	H	0.563789	-0.528680	0.000092
Br78	Br	0.129563	-0.994642	0.000058
H79	H	0.540018	-1.406757	-0.293322
H80	H	0.137587	-0.730234	0.000018
Br81	Br	-0.070054	-1.401668	0.000071
H82	H	0.182585	-0.925550	0.000025
