data_functionalizedCrystal
_audit_creation_method	'MofGen! by Chris Wilmer'
_symmetry_space_group_name_H-M	'P1'
_symmetry_Int_Tables_number	1
_symmetry_cell_setting	triclinic
loop_
_symmetry_equiv_pos_as_xyz
  x,y,z
_cell_length_a	11.792254
_cell_length_b	10.268362
_cell_length_c	8.559649
_cell_angle_alpha	90.003615
_cell_angle_beta	76.988631
_cell_angle_gamma	90.004525
loop_
_atom_site_label
_atom_site_type_symbol
_atom_site_fract_x
_atom_site_fract_y
_atom_site_fract_z
O1	O	1.486859	0.108292	0.218936
O2	O	1.820193	0.441626	0.552270
O3	O	2.153526	0.774959	0.885603
O4	O	1.154458	0.108295	0.241469
O5	O	1.487791	0.441628	0.574802
O6	O	1.821124	0.774961	0.908135
O7	O	1.349943	0.108292	-0.002144
O8	O	1.683277	0.441625	0.331189
O9	O	2.016610	0.774959	0.664523
O10	O	1.291374	0.108295	0.462549
O11	O	1.624707	0.441628	0.795882
O12	O	1.958040	0.774962	1.129216
O13	O	1.349929	-0.108309	-0.002154
O14	O	1.683262	0.225025	0.331179
O15	O	2.016596	0.558358	0.664513
O16	O	1.154443	-0.108306	0.241459
O17	O	1.487777	0.225027	0.574792
O18	O	1.821110	0.558361	0.908125
O19	O	1.486845	-0.108308	0.218926
O20	O	1.820178	0.225025	0.552259
O21	O	2.153512	0.558358	0.885593
Cu22	Cu	1.320643	-0.128084	0.230191
Cu23	Cu	1.653976	0.205249	0.563525
Cu24	Cu	1.987310	0.538582	0.896858
Cu25	Cu	1.320660	0.128071	0.230203
Cu26	Cu	1.653993	0.461404	0.563537
Cu27	Cu	1.987326	0.794738	0.896870
O28	O	1.291359	-0.108306	0.462539
O29	O	1.624693	0.225028	0.795872
O30	O	1.958026	0.558361	1.129205
C31	C	1.112290	-0.000005	0.240044
C32	C	1.445623	0.333328	0.573378
C33	C	1.778956	0.666661	0.906711
C34	C	0.986666	-0.000004	0.235796
C35	C	1.319999	0.333329	0.569129
C36	C	1.653332	0.666662	0.902462
N37	N	1.320639	-0.308250	0.230182
N38	N	1.653973	0.025083	0.563515
N39	N	1.987306	0.358416	0.896849
C40	C	0.884645	0.000001	0.232344
C41	C	1.217978	0.333335	0.565677
C42	C	1.551312	0.666668	0.899011
C43	C	0.756653	0.000002	0.228028
C44	C	1.089987	0.333335	0.561361
C45	C	1.423320	0.666669	0.894694
C46	C	1.320654	-0.573921	0.230200
C47	C	1.653988	-0.240588	0.563534
C48	C	1.987321	0.092746	0.896867
C49	C	1.320642	-0.426083	0.230195
C50	C	1.653975	-0.092750	0.563528
C51	C	1.987309	0.240584	0.896861
C52	C	1.529013	-0.000005	0.220351
C53	C	1.862346	0.333328	0.553684
C54	C	2.195680	0.666661	0.887017
C55	C	1.654637	0.000002	0.224599
C56	C	1.987970	0.333336	0.557932
C57	C	2.321304	0.666669	0.891266
C58	C	1.354375	-0.000006	-0.061640
C59	C	1.687708	0.333327	0.271693
C60	C	2.021041	0.666661	0.605027
C61	C	1.367587	0.000001	-0.238905
C62	C	1.700920	0.333335	0.094428
C63	C	2.034253	0.666668	0.427762
N64	N	1.320673	0.308237	0.230200
N65	N	1.654007	0.641570	0.563534
N66	N	1.987340	0.974903	0.896867
C67	C	1.286928	-0.000005	0.522035
C68	C	1.620261	0.333329	0.855368
C69	C	1.953595	0.666662	1.188702
C70	C	1.273716	-0.000003	0.699300
C71	C	1.607049	0.333330	1.032633
C72	C	1.940383	0.666663	1.365966
H73	H	1.458067	-0.000010	-0.321621
H74	H	1.791401	0.333324	0.011712
H75	H	2.124734	0.666657	0.345046
H76	H	1.183241	-0.000007	-0.217993
H77	H	1.516575	0.333326	0.115340
H78	H	1.849908	0.666660	0.448674
