data_functionalizedCrystal
_audit_creation_method	'MofGen! by Chris Wilmer'
_symmetry_space_group_name_H-M	'P1'
_symmetry_Int_Tables_number	1
_symmetry_cell_setting	triclinic
loop_
_symmetry_equiv_pos_as_xyz
  x,y,z
_cell_length_a	21.295417
_cell_length_b	19.805407
_cell_length_c	19.805399
_cell_angle_alpha	89.991396
_cell_angle_beta	89.969157
_cell_angle_gamma	90.035893
loop_
_atom_site_label
_atom_site_type_symbol
_atom_site_fract_x
_atom_site_fract_y
_atom_site_fract_z
Zn1	Zn	-0.250533	1.034716	-0.382506
Zn2	Zn	0.249467	1.534716	0.117494
Zn3	Zn	-0.355802	1.034623	-0.269312
Zn4	Zn	0.144198	1.534623	0.230688
Zn5	Zn	-0.250561	0.921531	-0.269352
Zn6	Zn	0.249439	1.421531	0.230648
Zn7	Zn	-0.355779	0.921486	-0.382480
Zn8	Zn	0.144221	1.421486	0.117520
O9	O	-0.303169	0.978089	-0.325913
O10	O	0.196831	1.478089	0.174087
O11	O	-0.264496	1.129421	-0.367485
O12	O	0.235504	1.629421	0.132515
O13	O	-0.341863	1.019601	-0.174600
O14	O	0.158137	1.519601	0.325400
O15	O	-0.162468	0.936603	-0.284391
O16	O	0.337532	1.436603	0.215609
O17	O	-0.341836	1.129352	-0.284321
O18	O	0.158164	1.629352	0.215679
O19	O	-0.162448	1.019760	-0.367524
O20	O	0.337552	1.519760	0.132476
O21	O	-0.264542	0.936513	-0.174630
O22	O	0.235458	1.436513	0.325370
O23	O	-0.264520	0.826809	-0.284365
O24	O	0.235480	1.326809	0.215635
O25	O	-0.341796	0.936527	-0.477200
O26	O	0.158204	1.436527	0.022800
O27	O	-0.341823	0.826776	-0.367480
O28	O	0.158177	1.326776	0.132520
O29	O	-0.264473	1.019717	-0.477219
O30	O	0.235527	1.519717	0.022781
O31	O	-0.443888	1.019558	-0.284295
O32	O	0.056112	1.519558	0.215705
O33	O	-0.443871	0.936437	-0.367440
O34	O	0.056129	1.436437	0.132560
C35	C	-0.466720	0.978001	-0.325875
C36	C	0.033280	1.478001	0.174125
C37	C	-0.536688	0.978025	-0.325882
C38	C	-0.036688	1.478025	0.174118
C39	C	-0.303172	0.802233	-0.325924
C40	C	0.196828	1.302233	0.174076
C41	C	-0.303189	0.727001	-0.325945
C42	C	0.196811	1.227001	0.174055
C43	C	-0.303129	0.978127	-0.502455
C44	C	0.196871	1.478127	-0.002455
C45	C	-0.303112	0.978143	-0.577687
C46	C	0.196888	1.478143	-0.077687
C47	C	-0.569543	1.021344	-0.282633
C48	C	-0.069543	1.521344	0.217367
C49	C	-0.635286	1.021376	-0.282648
C50	C	-0.135286	1.521376	0.217352
C51	C	-0.668171	0.978076	-0.325905
C52	C	-0.168171	1.478076	0.174095
C53	C	-0.635308	0.934753	-0.369162
C54	C	-0.135308	1.434753	0.130838
C55	C	-0.569567	0.934728	-0.369151
C56	C	-0.069567	1.434728	0.130849
N57	N	-0.771442	0.918865	-0.331069
N58	N	-0.271442	1.418865	0.168931
N59	N	-0.833893	0.918892	-0.331076
N60	N	-0.333893	1.418892	0.168924
C61	C	-0.866246	0.978152	-0.325944
C62	C	-0.366246	1.478152	0.174056
N63	N	-0.833787	1.037386	-0.320791
N64	N	-0.333787	1.537386	0.179209
N65	N	-0.771330	1.037358	-0.320780
N66	N	-0.271330	1.537358	0.179220
C67	C	-0.739456	0.978099	-0.325923
C68	C	-0.239456	1.478099	0.174077
C69	C	-0.970386	1.021509	-0.282709
C70	C	-0.470386	1.521509	0.217291
C71	C	-1.036130	1.021542	-0.282729
C72	C	-0.536130	1.521542	0.217271
C73	C	-1.036151	0.934914	-0.369240
C74	C	-0.536151	1.434914	0.130760
C75	C	-0.970408	0.934887	-0.369223
C76	C	-0.470408	1.434887	0.130777
C77	C	-0.937530	0.978184	-0.325954
C78	C	-0.437530	1.478184	0.174046
C79	C	-0.138978	0.978197	-0.325965
C80	C	0.361022	1.478197	0.174035
C81	C	-0.069010	0.978243	-0.325987
C82	C	0.430990	1.478243	0.174013
C83	C	-0.303166	1.154632	-0.325901
C84	C	0.196834	1.654632	0.174099
C85	C	-0.303165	1.229864	-0.325896
C86	C	0.196835	1.729864	0.174104
C87	C	-0.262922	1.691692	-0.369242
C88	C	0.237078	2.191692	0.130758
C89	C	-0.262915	1.621003	-0.369233
C90	C	0.237085	2.121003	0.130767
C91	C	-0.303180	1.585626	-0.325931
C92	C	0.196820	2.085626	0.174069
C93	C	-0.343449	1.620940	-0.282629
C94	C	0.156551	2.120940	0.217371
C95	C	-0.343451	1.691627	-0.282635
C96	C	0.156549	2.191627	0.217365
C97	C	-0.343440	1.335867	-0.282604
C98	C	0.156560	1.835867	0.217396
C99	C	-0.343435	1.265175	-0.282603
C100	C	0.156565	1.765175	0.217397
C101	C	-0.262904	1.265243	-0.369201
C102	C	0.237096	1.765243	0.130799
C103	C	-0.262906	1.335930	-0.369207
C104	C	0.237094	1.835930	0.130793
C105	C	-0.303172	1.371238	-0.325904
C106	C	0.196828	1.871238	0.174096
C107	C	-0.303177	1.447887	-0.325913
C108	C	0.196823	1.947887	0.174087
C109	C	-0.303179	1.508979	-0.325924
C110	C	0.196821	2.008979	0.174076
C111	C	-0.262848	1.021461	-0.613043
C112	C	0.237152	1.521461	-0.113043
C113	C	-0.262830	1.021468	-0.683731
C114	C	0.237170	1.521468	-0.183731
C115	C	-0.303079	0.978160	-0.719063
C116	C	0.196921	1.478160	-0.219063
C117	C	-0.343345	0.934838	-0.683703
C118	C	0.156655	1.434838	-0.183703
C119	C	-0.343360	0.934828	-0.613016
C120	C	0.156640	1.434828	-0.113016
C121	C	-0.343287	0.934876	-0.968776
C122	C	0.156713	1.434876	-0.468776
C123	C	-0.343270	0.934891	-1.039468
C124	C	0.156730	1.434891	-0.539468
C125	C	-0.262756	1.021516	-1.039492
C126	C	0.237244	1.521516	-0.539492
C127	C	-0.262771	1.021506	-0.968805
C128	C	0.237229	1.521506	-0.468805
C129	C	-0.303034	0.978182	-0.933451
C130	C	0.196966	1.478182	-0.433451
C131	C	-0.303053	0.978174	-0.856802
C132	C	0.196947	1.478174	-0.356802
C133	C	-0.303064	0.978171	-0.795710
C134	C	0.196936	1.478171	-0.295710
C135	C	-0.303163	0.978090	-0.150057
C136	C	0.196837	1.478090	0.349943
C137	C	-0.303002	0.978205	-0.074825
C138	C	0.196998	1.478205	0.425175
H139	H	-0.662041	1.056654	-0.247430
H140	H	-0.162041	1.556654	0.252570
H141	H	-0.376230	1.592130	-0.247369
H142	H	0.123770	2.092130	0.252631
O143	O	-0.382629	1.725825	-0.240558
O144	O	0.117371	2.225825	0.259442
C145	C	-0.462484	1.718302	-0.154634
C146	C	0.037516	2.218302	0.345366
C147	C	-0.418159	1.679491	-0.202266
C148	C	0.081841	2.179491	0.297734
H149	H	-0.491211	1.680858	-0.123652
H150	H	0.008789	2.180858	0.376348
H151	H	-0.495435	1.751356	-0.185669
H152	H	0.004565	2.251356	0.314331
H153	H	-0.433582	1.751432	-0.119284
H154	H	0.066418	2.251432	0.380716
H155	H	-0.447010	1.646323	-0.237626
H156	H	0.052990	2.146323	0.262374
H157	H	-0.385206	1.646479	-0.171189
H158	H	0.114794	2.146479	0.328811
H159	H	-0.230074	1.056730	-0.584281
H160	H	0.269926	1.556730	-0.084281
O161	O	-0.382531	0.892801	-0.717948
O162	O	0.117469	1.392801	-0.217948
C163	C	-0.489607	0.859906	-0.739571
C164	C	0.010393	1.359906	-0.239571
C165	C	-0.445297	0.907542	-0.700736
C166	C	0.054703	1.407542	-0.200736
H167	H	-0.540363	0.871816	-0.725680
H168	H	-0.040363	1.371816	-0.225680
H169	H	-0.478608	0.805322	-0.725665
H170	H	0.021392	1.305322	-0.225665
H171	H	-0.482649	0.867344	-0.796163
H172	H	0.017351	1.367344	-0.296163
H173	H	-0.452230	0.900164	-0.644135
H174	H	0.047770	1.400164	-0.144135
H175	H	-0.456307	0.962108	-0.714698
H176	H	0.043693	1.462108	-0.214698
H177	H	-0.230044	1.056743	-0.712514
H178	H	0.269956	1.556743	-0.212514
O179	O	-1.068185	0.892876	-0.411199
O180	O	-0.568185	1.392876	0.088801
C181	C	-1.169472	0.854559	-0.449595
C182	C	-0.669472	1.354559	0.050405
C183	C	-1.133269	0.902187	-0.402026
C184	C	-0.633269	1.402187	0.097974
H185	H	-1.222099	0.862081	-0.442205
H186	H	-0.722099	1.362081	0.057795
H187	H	-1.156654	0.799967	-0.437668
H188	H	-0.656654	1.299967	0.062332
H189	H	-1.156459	0.866403	-0.504170
H190	H	-0.656459	1.366403	-0.004170
H191	H	-1.146263	0.890404	-0.347435
H192	H	-0.646263	1.390404	0.152565
H193	H	-1.146090	0.956765	-0.414011
H194	H	-0.646090	1.456765	0.085989
O195	O	-0.223550	1.063565	-1.073761
O196	O	0.276450	1.563565	-0.573761
C197	C	-0.116465	1.096471	-1.095448
C198	C	0.383535	1.596471	-0.595448
C199	C	-0.160792	1.048820	-1.056587
C200	C	0.339208	1.548820	-0.556587
H201	H	-0.065715	1.084558	-1.081588
H202	H	0.434285	1.584558	-0.581588
H203	H	-0.127473	1.151050	-1.081533
H204	H	0.372527	1.651050	-0.581533
H205	H	-0.123396	1.089052	-1.152036
H206	H	0.376604	1.589052	-0.652036
H207	H	-0.153886	1.056180	-0.999991
H208	H	0.346114	1.556180	-0.499991
H209	H	-0.149774	0.994259	-1.070558
H210	H	0.350226	1.494259	-0.570558
H211	H	-0.943656	0.899609	-0.404438
H212	H	-0.443656	1.399609	0.095562
O213	O	-0.537718	0.892676	-0.411256
O214	O	-0.037718	1.392676	0.088744
C215	C	-0.517522	0.859772	-0.526362
C216	C	-0.017522	1.359772	-0.026362
C217	C	-0.553643	0.907428	-0.478756
C218	C	-0.053643	1.407428	0.021244
H219	H	-0.530374	0.871692	-0.580946
H220	H	-0.030374	1.371692	-0.080946
H221	H	-0.530520	0.805196	-0.514496
H222	H	-0.030520	1.305196	-0.014496
H223	H	-0.464890	0.867179	-0.518886
H224	H	0.035110	1.367179	-0.018886
H225	H	-0.606283	0.900082	-0.486206
H226	H	-0.106283	1.400082	0.013794
H227	H	-0.540593	0.961987	-0.490634
H228	H	-0.040593	1.461987	0.009366
H229	H	-0.230135	1.720491	-0.404505
H230	H	0.269865	2.220491	0.095495
H231	H	-0.943615	1.056767	-0.247479
H232	H	-0.443615	1.556767	0.252521
O233	O	-1.067949	1.063746	-0.240750
O234	O	-0.567949	1.563746	0.259250
C235	C	-1.087914	1.178936	-0.208038
C236	C	-0.587914	1.678936	0.291962
C237	C	-1.051847	1.131198	-0.255610
C238	C	-0.551847	1.631198	0.244390
H239	H	-1.074919	1.233481	-0.220044
H240	H	-0.574919	1.733481	0.279956
H241	H	-1.075013	1.167138	-0.153440
H242	H	-0.575013	1.667138	0.346560
H243	H	-1.140554	1.171524	-0.215442
H244	H	-0.640554	1.671524	0.284558
H245	H	-0.999198	1.138583	-0.248265
H246	H	-0.499198	1.638583	0.251735
H247	H	-1.064800	1.143007	-0.310190
H248	H	-0.564800	1.643007	0.189810
O249	O	-0.223780	1.586808	-0.411355
O250	O	0.276220	2.086808	0.088645
C251	C	-0.143875	1.594336	-0.497225
C252	C	0.356125	2.094336	0.002775
C253	C	-0.188178	1.633144	-0.449567
C254	C	0.311822	2.133144	0.050433
H255	H	-0.115070	1.631781	-0.528122
H256	H	0.384930	2.131781	-0.028122
H257	H	-0.172736	1.561239	-0.532649
H258	H	0.327264	2.061239	-0.032649
H259	H	-0.110990	1.561248	-0.466147
H260	H	0.389010	2.061248	0.033853
H261	H	-0.221072	1.666269	-0.480591
H262	H	0.278928	2.166269	0.019409
H263	H	-0.159278	1.666198	-0.414142
H264	H	0.340722	2.166198	0.085858
O265	O	-0.223633	1.063476	-0.934415
O266	O	0.276367	1.563476	-0.434415
C267	C	-0.138620	1.072601	-0.854682
C268	C	0.361380	1.572601	-0.354682
C269	C	-0.182923	1.025000	-0.893570
C270	C	0.317077	1.525000	-0.393570
H271	H	-0.105687	1.041512	-0.821661
H272	H	0.394313	1.541512	-0.321661
H273	H	-0.167480	1.107965	-0.821527
H274	H	0.332520	1.607965	-0.321527
H275	H	-0.109867	1.103571	-0.892113
H276	H	0.390133	1.603571	-0.392113
H277	H	-0.211686	0.993986	-0.856187
H278	H	0.288314	1.493986	-0.356187
H279	H	-0.154027	0.989681	-0.926735
H280	H	0.345973	1.489681	-0.426735
O281	O	-0.223733	1.370190	-0.411292
O282	O	0.276267	1.870190	0.088708
C283	C	-0.143876	1.362796	-0.497214
C284	C	0.356124	1.862796	0.002786
C285	C	-0.188199	1.323913	-0.449578
C286	C	0.311801	1.823913	0.050422
H287	H	-0.115145	1.325398	-0.528190
H288	H	0.384855	1.825398	-0.028190
H289	H	-0.110928	1.395892	-0.466182
H290	H	0.389072	1.895892	0.033818
H291	H	-0.172779	1.395891	-0.532569
H292	H	0.327221	1.895891	-0.032569
H293	H	-0.159347	1.290782	-0.414212
H294	H	0.340653	1.790782	0.085788
H295	H	-0.221149	1.290860	-0.480651
H296	H	0.278851	1.790860	0.019349
H297	H	-0.230115	1.236486	-0.404459
H298	H	0.269885	1.736486	0.095541
O299	O	-0.667319	0.892785	-0.411215
O300	O	-0.167319	1.392785	0.088785
C301	C	-0.741465	0.883657	-0.502629
C302	C	-0.241465	1.383657	-0.002629
C303	C	-0.705264	0.931260	-0.455032
C304	C	-0.205264	1.431260	0.044968
H305	H	-0.772142	0.914745	-0.538077
H306	H	-0.272142	1.414745	-0.038077
H307	H	-0.772337	0.848305	-0.471570
H308	H	-0.272337	1.348305	0.028430
H309	H	-0.706675	0.852674	-0.533509
H310	H	-0.206675	1.352674	-0.033509
H311	H	-0.740008	0.962287	-0.424142
H312	H	-0.240008	1.462287	0.075858
H313	H	-0.674382	0.966567	-0.486130
H314	H	-0.174382	1.466567	0.013870
H315	H	-0.376047	0.899621	-1.068234
H316	H	0.123953	1.399621	-0.568234
O317	O	-0.382568	1.230912	-0.240469
O318	O	0.117432	1.730912	0.259531
C319	C	-0.462469	1.238300	-0.154594
C320	C	0.037531	1.738300	0.345406
C321	C	-0.418175	1.277186	-0.202259
C322	C	0.081825	1.777186	0.297741
H323	H	-0.491278	1.275696	-0.123699
H324	H	0.008722	1.775696	0.376301
H325	H	-0.433601	1.205241	-0.119170
H326	H	0.066399	1.705241	0.380830
H327	H	-0.495351	1.205168	-0.185667
H328	H	0.004649	1.705168	0.314333
H329	H	-0.385285	1.310355	-0.171241
H330	H	0.114715	1.810355	0.328759
H331	H	-0.447082	1.310203	-0.237686
H332	H	0.052918	1.810203	0.262314
O333	O	-0.537580	1.063310	-0.240535
O334	O	-0.037580	1.563310	0.259465
C335	C	-0.463382	1.072448	-0.149170
C336	C	0.036618	1.572448	0.350830
C337	C	-0.499553	1.024844	-0.196792
C338	C	0.000447	1.524844	0.303208
H339	H	-0.432619	1.041368	-0.113801
H340	H	0.067381	1.541368	0.386199
H341	H	-0.498136	1.103403	-0.118213
H342	H	0.001864	1.603403	0.381787
H343	H	-0.432581	1.107826	-0.180279
H344	H	0.067419	1.607826	0.319721
H345	H	-0.530356	0.989426	-0.165735
H346	H	-0.030356	1.489426	0.334265
H347	H	-0.464766	0.993936	-0.227751
H348	H	0.035234	1.493936	0.272249
O349	O	-0.382590	1.370231	-0.240640
O350	O	0.117410	1.870231	0.259360
C351	C	-0.467617	1.449936	-0.231512
C352	C	0.032383	1.949936	0.268488
C353	C	-0.423305	1.411071	-0.279114
C354	C	0.076695	1.911071	0.220886
H355	H	-0.500555	1.482953	-0.262600
H356	H	-0.000555	1.982953	0.237400
H357	H	-0.438765	1.483093	-0.196138
H358	H	0.061235	1.983093	0.303862
H359	H	-0.496365	1.412490	-0.200554
H360	H	0.003635	1.912490	0.299446
H361	H	-0.394547	1.448468	-0.310117
H362	H	0.105453	1.948468	0.189883
H363	H	-0.452193	1.377903	-0.314444
H364	H	0.047807	1.877903	0.185556
O365	O	-0.382448	0.892762	-0.934544
O366	O	0.117552	1.392762	-0.434544
C367	C	-0.462258	0.806786	-0.941987
C368	C	0.037742	1.306786	-0.441987
C369	C	-0.417954	0.854466	-0.980842
C370	C	0.082046	1.354466	-0.480842
H371	H	-0.490967	0.775801	-0.979402
H372	H	0.009033	1.275801	-0.479402
H373	H	-0.495228	0.837784	-0.908890
H374	H	0.004772	1.337784	-0.408890
H375	H	-0.433341	0.771441	-0.908895
H376	H	0.066659	1.271441	-0.408895
H377	H	-0.446821	0.889820	-1.013971
H378	H	0.053179	1.389820	-0.513971
H379	H	-0.384983	0.823426	-1.013896
H380	H	0.115017	1.323426	-0.513896
O381	O	-0.382387	0.892679	-0.578643
O382	O	0.117613	1.392679	-0.078643
C383	C	-0.390883	0.801301	-0.498807
C384	C	0.109117	1.301301	0.001193
C385	C	-0.346613	0.848986	-0.537700
C386	C	0.153387	1.348986	-0.037700
H387	H	-0.361978	0.765973	-0.465685
H388	H	0.138022	1.265973	0.034315
H389	H	-0.419637	0.770304	-0.536175
H390	H	0.080363	1.270304	-0.036175
H391	H	-0.423819	0.832363	-0.465733
H392	H	0.076181	1.332363	0.034267
H393	H	-0.313639	0.817976	-0.570775
H394	H	0.186361	1.317976	-0.070775
H395	H	-0.317903	0.879986	-0.500296
H396	H	0.182097	1.379986	-0.000296
