data_functionalizedCrystal
_audit_creation_method	'MofGen! by Chris Wilmer'
_symmetry_space_group_name_H-M	'P1'
_symmetry_Int_Tables_number	1
_symmetry_cell_setting	triclinic
loop_
_symmetry_equiv_pos_as_xyz
  x,y,z
_cell_length_a	29.839131
_cell_length_b	29.839134
_cell_length_c	29.839126
_cell_angle_alpha	90.025950
_cell_angle_beta	90.021998
_cell_angle_gamma	90.021992
loop_
_atom_site_label
_atom_site_type_symbol
_atom_site_fract_x
_atom_site_fract_y
_atom_site_fract_z
Zn1	Zn	-0.179130	0.686780	0.254008
Zn2	Zn	0.320870	1.186780	0.754008
Zn3	Zn	-0.254248	0.686695	0.178878
Zn4	Zn	0.245752	1.186695	0.678878
Zn5	Zn	-0.179107	0.611645	0.178890
Zn6	Zn	0.320893	1.111645	0.678890
Zn7	Zn	-0.254208	0.611611	0.253979
Zn8	Zn	0.245792	1.111611	0.753979
O9	O	-0.216673	0.649183	0.216439
O10	O	0.283327	1.149183	0.716439
O11	O	-0.189121	0.749636	0.244048
O12	O	0.310879	1.249636	0.744048
O13	O	-0.244287	0.676718	0.116012
O14	O	0.255713	1.176718	0.616012
O15	O	-0.116243	0.621662	0.188872
O16	O	0.383757	1.121662	0.688872
O17	O	-0.244309	0.749573	0.188851
O18	O	0.255691	1.249573	0.688851
O19	O	-0.116260	0.676864	0.244060
O20	O	0.383740	1.176864	0.744060
O21	O	-0.189082	0.621579	0.116021
O22	O	0.310918	1.121579	0.616021
O23	O	-0.189043	0.548774	0.188844
O24	O	0.310957	1.048774	0.688844
O25	O	-0.244242	0.621604	0.316850
O26	O	0.255758	1.121604	0.816850
O27	O	-0.244220	0.548748	0.244011
O28	O	0.255780	1.048748	0.744011
O29	O	-0.189083	0.676831	0.316871
O30	O	0.310917	1.176831	0.816871
O31	O	-0.317110	0.676684	0.188823
O32	O	0.182890	1.176684	0.688823
O33	O	-0.317081	0.621521	0.243999
O34	O	0.182919	1.121521	0.743999
C35	C	-0.216625	0.532460	0.216426
C36	C	0.283375	1.032460	0.716426
C37	C	-0.216615	0.482526	0.216431
C38	C	0.283385	0.982526	0.716431
C39	C	-0.333396	0.649102	0.216416
C40	C	0.166604	1.149102	0.716416
C41	C	-0.383330	0.649108	0.216422
C42	C	0.116670	1.149108	0.716422
C43	C	-0.187997	0.125967	0.245237
C44	C	0.312003	0.625967	0.745237
C45	C	-0.187960	0.313641	0.245226
C46	C	0.312040	0.813641	0.745226
O47	O	-0.163570	0.337930	0.269715
O48	O	0.336430	0.837930	0.769715
N49	N	-0.216645	0.337081	0.216442
N50	N	0.283355	0.837081	0.716442
C51	C	-0.245342	0.313600	0.187660
C52	C	0.254658	0.813600	0.687660
O53	O	-0.269743	0.337843	0.163181
O54	O	0.230257	0.837843	0.663181
C55	C	-0.245381	0.125928	0.187673
C56	C	0.254619	0.625928	0.687673
C57	C	-0.216691	0.102490	0.216456
C58	C	0.283309	0.602490	0.716456
C59	C	-0.159310	0.102530	0.274017
C60	C	0.340690	0.602530	0.774017
C61	C	-0.159317	0.055614	0.274018
C62	C	0.340683	0.555614	0.774018
C63	C	-0.188012	0.032137	0.245238
C64	C	0.311988	0.532137	0.745238
C65	C	-0.216699	0.055574	0.216457
C66	C	0.283301	0.555574	0.716457
C67	C	-0.274080	0.102448	0.158894
C68	C	0.225920	0.602448	0.658894
C69	C	-0.274088	0.055527	0.158901
C70	C	0.225912	0.555527	0.658901
C71	C	-0.245398	0.032089	0.187684
C72	C	0.254602	0.532089	0.687684
C73	C	-0.245401	-0.014819	0.187677
C74	C	0.254599	0.485181	0.687677
N75	N	-0.216716	-0.038259	0.216461
N76	N	0.283284	0.461741	0.716461
C77	C	-0.188022	-0.014781	0.245242
C78	C	0.311978	0.485219	0.745242
C79	C	-0.245320	0.412130	0.187655
C80	C	0.254680	0.912130	0.687655
C81	C	-0.245310	0.459048	0.187651
C82	C	0.254690	0.959048	0.687651
C83	C	-0.187928	0.459086	0.245218
C84	C	0.312072	0.959086	0.745218
C85	C	-0.187936	0.412167	0.245219
C86	C	0.312064	0.912167	0.745219
C87	C	-0.216635	0.388690	0.216439
C88	C	0.283365	0.888690	0.716439
C89	C	-0.188040	-0.113307	0.245240
C90	C	0.311960	0.386693	0.745240
C91	C	-0.188048	-0.160227	0.245237
C92	C	0.311952	0.339773	0.745237
C93	C	-0.245431	-0.160260	0.187672
C94	C	0.254569	0.339740	0.687672
C95	C	-0.245421	-0.113345	0.187674
C96	C	0.254579	0.386655	0.687674
C97	C	-0.216724	-0.089869	0.216461
C98	C	0.283276	0.410131	0.716461
O99	O	-0.269781	-0.039137	0.163204
O100	O	0.230219	0.460863	0.663204
O101	O	-0.163632	-0.039033	0.269725
O102	O	0.336368	0.460967	0.769725
C103	C	-0.187989	0.172883	0.245236
C104	C	0.312011	0.672883	0.745236
C105	C	-0.216676	0.196321	0.216455
C106	C	0.283324	0.696321	0.716455
C107	C	-0.245370	0.172843	0.187675
C108	C	0.254630	0.672843	0.687675
C109	C	-0.216666	0.243239	0.216451
C110	C	0.283334	0.743239	0.716451
C111	C	-0.187971	0.266716	0.245231
C112	C	0.312029	0.766716	0.745231
C113	C	-0.159287	0.243276	0.274016
C114	C	0.340713	0.743276	0.774016
C115	C	-0.159295	0.196361	0.274016
C116	C	0.340705	0.696361	0.774016
C117	C	-0.274055	0.196283	0.158891
C118	C	0.225945	0.696283	0.658891
C119	C	-0.274044	0.243199	0.158892
C120	C	0.225956	0.743199	0.658892
C121	C	-0.245350	0.266676	0.187672
C122	C	0.254650	0.766676	0.687672
C123	C	-0.692976	0.677959	0.187750
C124	C	-0.192976	1.177959	0.687750
C125	C	-0.880649	0.678014	0.187768
C126	C	-0.380649	1.178014	0.687768
O127	O	-0.904916	0.702480	0.163373
O128	O	-0.404916	1.202480	0.663373
N129	N	-0.904115	0.649276	0.216472
N130	N	-0.404115	1.149276	0.716472
C131	C	-0.880660	0.620524	0.245177
C132	C	-0.380660	1.120524	0.745177
O133	O	-0.904926	0.596085	0.269596
O134	O	-0.404926	1.096085	0.769596
C135	C	-0.692988	0.620471	0.245162
C136	C	-0.192988	1.120471	0.745162
C137	C	-0.669525	0.649208	0.216452
C138	C	-0.169525	1.149208	0.716452
C139	C	-0.669512	0.706694	0.159043
C140	C	-0.169512	1.206694	0.659043
C141	C	-0.622597	0.706678	0.159037
C142	C	-0.122597	1.206678	0.659037
C143	C	-0.599145	0.677927	0.187738
C144	C	-0.099145	1.177927	0.687738
C145	C	-0.622609	0.649192	0.216446
C146	C	-0.122609	1.149192	0.716446
C147	C	-0.669534	0.591722	0.273868
C148	C	-0.169534	1.091722	0.773868
C149	C	-0.622613	0.591712	0.273863
C150	C	-0.122613	1.091712	0.773863
C151	C	-0.599149	0.620449	0.245153
C152	C	-0.099149	1.120449	0.745153
C153	C	-0.552242	0.620425	0.245141
C154	C	-0.052242	1.120425	0.745141
N155	N	-0.528776	0.649164	0.216437
N156	N	-0.028776	1.149164	0.716437
C157	C	-0.552227	0.677914	0.187735
C158	C	-0.052227	1.177914	0.687735
C159	C	-0.979191	0.620553	0.245183
C160	C	-0.479191	1.120553	0.745183
C161	C	-1.026109	0.620566	0.245186
C162	C	-0.526109	1.120566	0.745186
C163	C	-1.026094	0.678057	0.187777
C164	C	-0.526094	1.178057	0.687777
C165	C	-0.979176	0.678041	0.187772
C166	C	-0.479176	1.178041	0.687772
C167	C	-0.955725	0.649291	0.216478
C168	C	-0.455725	1.149291	0.716478
C169	C	-0.453702	0.677879	0.187725
C170	C	0.046298	1.177879	0.687725
C171	C	-0.406782	0.677859	0.187720
C172	C	0.093218	1.177859	0.687720
C173	C	-0.406801	0.620370	0.245131
C174	C	0.093199	1.120370	0.745131
C175	C	-0.453716	0.620388	0.245134
C176	C	0.046284	1.120388	0.745134
C177	C	-0.477165	0.649146	0.216429
C178	C	0.022835	1.149146	0.716429
O179	O	-0.527946	0.595976	0.269527
O180	O	-0.027946	1.095976	0.769527
O181	O	-0.527954	0.702357	0.163327
O182	O	-0.027954	1.202357	0.663327
C183	C	-0.739892	0.677975	0.187756
C184	C	-0.239892	1.177975	0.687756
C185	C	-0.763355	0.649240	0.216463
C186	C	-0.263355	1.149240	0.716463
C187	C	-0.739904	0.620489	0.245165
C188	C	-0.239904	1.120489	0.745165
C189	C	-0.810273	0.649252	0.216467
C190	C	-0.310273	1.149252	0.716467
C191	C	-0.833725	0.678003	0.187765
C192	C	-0.333725	1.178003	0.687765
C193	C	-0.810259	0.706741	0.159060
C194	C	-0.310259	1.206741	0.659060
C195	C	-0.763343	0.706725	0.159054
C196	C	-0.263343	1.206725	0.659054
C197	C	-0.763370	0.591751	0.273870
C198	C	-0.263370	1.091751	0.773870
C199	C	-0.810285	0.591769	0.273873
C200	C	-0.310285	1.091769	0.773873
C201	C	-0.833737	0.620519	0.245171
C202	C	-0.333737	1.120519	0.745171
C203	C	-0.099495	0.649277	0.216471
C204	C	0.400505	1.149277	0.716471
C205	C	-0.049561	0.649316	0.216484
C206	C	0.450439	1.149316	0.716484
C207	C	-0.216661	0.649223	0.333617
C208	C	0.283339	1.149223	0.833617
C209	C	-0.216655	0.649240	0.383551
C210	C	0.283345	1.149240	0.883551
C211	C	-0.216722	0.766361	0.216451
C212	C	0.283278	1.266361	0.716451
C213	C	-0.216743	0.816296	0.216457
C214	C	0.283257	1.316296	0.716457
C215	C	-0.216654	0.649169	0.099716
C216	C	0.283346	1.149169	0.599716
C217	C	-0.216533	0.649238	0.049782
C218	C	0.283467	1.149238	0.549782
C219	C	-0.245341	0.677945	0.740137
C220	C	0.254659	1.177945	1.240137
C221	C	-0.245372	0.677946	0.552464
C222	C	0.254628	1.177946	1.052464
O223	O	-0.269832	0.702347	0.528198
O224	O	0.230168	1.202347	1.028198
N225	N	-0.216633	0.649238	0.528997
N226	N	0.283367	1.149238	1.028997
C227	C	-0.187887	0.620527	0.552450
C228	C	0.312113	1.120527	1.052450
O229	O	-0.163447	0.596106	0.528184
O230	O	0.336553	1.096106	1.028184
C231	C	-0.187858	0.620524	0.740123
C232	C	0.312142	1.120524	1.240123
C233	C	-0.216596	0.649236	0.763588
C234	C	0.283404	1.149236	1.263588
C235	C	-0.274076	0.706655	0.763602
C236	C	0.225924	1.206655	1.263602
C237	C	-0.274066	0.706656	0.810517
C238	C	0.225934	1.206656	1.310517
C239	C	-0.245321	0.677947	0.833968
C240	C	0.254679	1.177947	1.333968
C241	C	-0.216586	0.649238	0.810503
C242	C	0.283414	1.149238	1.310503
C243	C	-0.159115	0.591810	0.763576
C244	C	0.340885	1.091810	1.263576
C245	C	-0.159111	0.591812	0.810497
C246	C	0.340889	1.091812	1.310497
C247	C	-0.187848	0.620524	0.833962
C248	C	0.312152	1.120524	1.333962
C249	C	-0.187831	0.620530	0.880869
C250	C	0.312169	1.120530	1.380869
N251	N	-0.216569	0.649238	0.904336
N252	N	0.283431	1.149238	1.404336
C253	C	-0.245315	0.677946	0.880886
C254	C	0.254685	1.177946	1.380886
C255	C	-0.187904	0.620531	0.453920
C256	C	0.312096	1.120531	0.953920
C257	C	-0.187910	0.620532	0.407002
C258	C	0.312090	1.120532	0.907002
C259	C	-0.245396	0.677950	0.407019
C260	C	0.254604	1.177950	0.907019
C261	C	-0.245387	0.677951	0.453937
C262	C	0.254613	1.177951	0.953937
C263	C	-0.216642	0.649238	0.477387
C264	C	0.283358	1.149238	0.977387
C265	C	-0.245291	0.677947	0.979412
C266	C	0.254709	1.177947	1.479412
C267	C	-0.245278	0.677947	1.026331
C268	C	0.254722	1.177947	1.526331
C269	C	-0.187794	0.620527	1.026311
C270	C	0.312206	1.120527	1.526311
C271	C	-0.187806	0.620528	0.979395
C272	C	0.312194	1.120528	1.479395
C273	C	-0.216558	0.649240	0.955947
C274	C	0.283442	1.149240	1.455947
O275	O	-0.163387	0.596139	0.905164
O276	O	0.336613	1.096139	1.405164
O277	O	-0.269758	0.702356	0.905160
O278	O	0.230242	1.202356	1.405160
C279	C	-0.245351	0.677944	0.693221
C280	C	0.254649	1.177944	1.193221
C281	C	-0.216615	0.649234	0.669757
C282	C	0.283385	1.149234	1.169757
C283	C	-0.187870	0.620525	0.693207
C284	C	0.312130	1.120525	1.193207
C285	C	-0.216622	0.649235	0.622839
C286	C	0.283378	1.149235	1.122839
C287	C	-0.245367	0.677943	0.599388
C288	C	0.254633	1.177943	1.099388
C289	C	-0.274105	0.706651	0.622855
C290	C	0.225895	1.206651	1.122855
C291	C	-0.274096	0.706652	0.669771
C292	C	0.225904	1.206652	1.169771
C293	C	-0.159132	0.591818	0.669740
C294	C	0.340868	1.091818	1.169740
C295	C	-0.159143	0.591820	0.622825
C296	C	0.340857	1.091820	1.122825
C297	C	-0.187889	0.620528	0.599374
C298	C	0.312111	1.120528	1.099374
H299	H	-0.164684	-0.179308	0.268675
H300	H	0.335316	0.320692	0.768675
C301	C	-1.051914	0.588949	0.276765
C302	C	-0.551914	1.088949	0.776765
N303	N	-1.071348	0.565135	0.300553
N304	N	-0.571348	1.065135	0.800553
H305	H	-0.164504	0.597157	0.387901
H306	H	0.335496	1.097157	0.887901
C307	C	-0.127738	0.128348	0.305678
C308	C	0.372262	0.628348	0.805678
N309	N	-0.103953	0.147791	0.329524
N310	N	0.396047	0.647791	0.829524
C311	C	-0.127487	0.560226	0.836289
C312	C	0.372513	1.060226	1.336289
N313	N	-0.103667	0.536437	0.855714
N314	N	0.396333	1.036437	1.355714
H315	H	-0.297442	0.121523	0.135456
H316	H	0.202558	0.621523	0.635456
H317	H	-0.297460	0.036414	0.135466
H318	H	0.202540	0.536414	0.635466
C319	C	-0.276916	0.709536	0.953625
C320	C	0.223084	1.209536	1.453625
N321	N	-0.300732	0.733332	0.934203
N322	N	0.199268	1.233332	1.434203
C323	C	-0.695334	0.560110	0.305453
C324	C	-0.195334	1.060110	0.805453
N325	N	-0.714765	0.536298	0.329246
N326	N	-0.214765	1.036298	0.829246
H327	H	-0.135933	0.177282	0.297454
H328	H	0.364067	0.677282	0.797454
H329	H	-0.744242	0.730126	0.135676
H330	H	-0.244242	1.230126	0.635676
H331	H	-0.688602	0.730108	0.135670
H332	H	-0.188602	1.230108	0.635670
C333	C	-0.305690	0.738250	0.737813
C334	C	0.194310	1.238250	1.237813
N335	N	-0.329498	0.762055	0.718393
N336	N	0.170502	1.262055	1.218393
C337	C	-0.479527	0.588774	0.276714
C338	C	0.020473	1.088774	0.776714
N339	N	-0.498965	0.564966	0.300505
N340	N	0.001035	1.064966	0.800505
C341	C	-0.836065	0.738367	0.127488
C342	C	-0.336065	1.238367	0.627488
N343	N	-0.855504	0.762187	0.103711
N344	N	-0.355504	1.262187	0.603711
H345	H	-1.045197	0.701467	0.164407
H346	H	-0.545197	1.201467	0.664407
H347	H	-0.960101	0.597140	0.268559
H348	H	-0.460101	1.097140	0.768559
H349	H	-0.829386	0.568364	0.297251
H350	H	-0.329386	1.068364	0.797251
C351	C	-0.276894	0.709533	1.052140
C352	C	0.223106	1.209533	1.552140
N353	N	-0.300708	0.733321	1.071577
N354	N	0.199292	1.233321	1.571577
H355	H	-0.297422	0.177173	0.135454
H356	H	0.202578	0.677173	0.635454
C357	C	-0.156191	0.588946	0.953583
C358	C	0.343809	1.088946	1.453583
N359	N	-0.132382	0.565154	0.934145
N360	N	0.367618	1.065154	1.434145
H361	H	-0.387699	0.596960	0.268498
H362	H	0.112301	1.096960	0.768498
H363	H	-0.297406	0.262278	0.135449
H364	H	0.202594	0.762278	0.635449
C365	C	-0.380975	0.709471	0.156134
C366	C	0.119025	1.209471	0.656134
N367	N	-0.361538	0.733280	0.132343
N368	N	0.138462	1.233280	0.632343
H369	H	-0.164671	-0.094199	0.268682
H370	H	0.335329	0.405801	0.768682
C371	C	-0.305684	0.738237	0.836322
C372	C	0.194316	1.238237	1.336322
N373	N	-0.329503	0.762024	0.855756
N374	N	0.170497	1.262024	1.355756
C375	C	-0.277002	0.709534	0.479744
C376	C	0.222998	1.209534	0.979744
N377	N	-0.300818	0.733322	0.499180
N378	N	0.199182	1.233322	0.999180
H379	H	-0.164495	0.597148	0.473008
H380	H	0.335505	1.097148	0.973008
H381	H	-0.744279	0.568339	0.297242
H382	H	-0.244279	1.068339	0.797242
H383	H	-0.603522	0.568300	0.297240
H384	H	-0.103522	1.068300	0.797240
C385	C	-0.277018	0.709527	0.381214
C386	C	0.222982	1.209527	0.881214
N387	N	-0.300837	0.733307	0.361776
N388	N	0.199163	1.233307	0.861776
H389	H	-0.135715	0.568429	0.744479
H390	H	0.364285	1.068429	1.244479
C391	C	-0.156379	0.386390	0.276885
C392	C	0.343621	0.886390	0.776885
N393	N	-0.132610	0.366977	0.300738
N394	N	0.367390	0.866977	0.800738
H395	H	-0.164389	0.597155	1.045413
H396	H	0.335611	1.097155	1.545413
C397	C	-0.276979	-0.087562	0.156010
C398	C	0.223021	0.412438	0.656010
N399	N	-0.300753	-0.068146	0.132163
N400	N	0.199247	0.431854	0.632163
C401	C	-0.127761	0.029839	0.305686
C402	C	0.372239	0.529839	0.805686
N403	N	-0.103992	0.010428	0.329542
N404	N	0.396008	0.510428	0.829542
C405	C	-0.305726	0.738229	0.597051
C406	C	0.194274	1.238229	1.097051
N407	N	-0.329543	0.762011	0.577612
N408	N	0.170457	1.262011	1.077612
H409	H	-0.472789	0.701297	0.164352
H410	H	0.027211	1.201297	0.664352
H411	H	-0.297496	0.730033	0.688872
H412	H	0.202504	1.230033	1.188872
H413	H	-0.135738	0.568439	0.603723
H414	H	0.364262	1.068439	1.103723
H415	H	-0.603495	0.730079	0.135660
H416	H	-0.103495	1.230079	0.635660
C417	C	-0.127504	0.560239	0.695529
C418	C	0.372496	1.060239	1.195529
N419	N	-0.103677	0.536454	0.714952
N420	N	0.396323	1.036454	1.214952
H421	H	-0.268667	0.478127	0.164208
H422	H	0.231333	0.978127	0.664208
C423	C	-0.156367	0.484920	0.276879
C424	C	0.343633	0.984920	0.776879
N425	N	-0.132598	0.504380	0.300727
N426	N	0.367402	1.004380	0.800727
H427	H	-0.960074	0.701442	0.164394
H428	H	-0.460074	1.201442	0.664394
C429	C	-0.276888	0.386312	0.155987
C430	C	0.223112	0.886312	0.655987
N431	N	-0.300662	0.366867	0.132132
N432	N	0.199338	0.866867	0.632132
H433	H	-0.268792	-0.179384	0.164238
H434	H	0.231208	0.320616	0.664238
H435	H	-0.135921	0.262400	0.297448
H436	H	0.364079	0.762400	0.797448
