data_functionalizedCrystal
_audit_creation_method	'MofGen! by Chris Wilmer'
_symmetry_space_group_name_H-M	'P1'
_symmetry_Int_Tables_number	1
_symmetry_cell_setting	triclinic
loop_
_symmetry_equiv_pos_as_xyz
  x,y,z
_cell_length_a	8.497374
_cell_length_b	19.805407
_cell_length_c	19.805405
_cell_angle_alpha	89.973590
_cell_angle_beta	89.985911
_cell_angle_gamma	90.004504
loop_
_atom_site_label
_atom_site_type_symbol
_atom_site_fract_x
_atom_site_fract_y
_atom_site_fract_z
Zn1	Zn	0.892011	1.034635	0.269581
Zn2	Zn	0.628188	1.034580	0.382739
Zn3	Zn	0.628226	0.921479	0.269569
Zn4	Zn	0.891907	0.921413	0.382733
O5	O	0.760083	0.978027	0.326155
O6	O	0.857043	1.129344	0.284598
O7	O	0.407431	1.019581	0.367724
O8	O	0.663277	0.936541	0.174854
O9	O	0.663213	1.129303	0.367735
O10	O	0.857079	1.019676	0.174862
O11	O	0.407458	0.936487	0.284579
O12	O	0.663176	0.826754	0.284573
O13	O	1.112683	0.936428	0.367725
O14	O	0.856901	0.826705	0.367714
O15	O	1.112760	1.019611	0.284593
O16	O	0.663111	1.019517	0.477455
O17	O	0.856864	0.936374	0.477450
C18	C	0.760032	0.802171	0.326142
C19	C	0.760048	0.726939	0.326153
C20	C	0.860757	0.691587	0.369510
C21	C	0.860779	0.620899	0.369511
C22	C	0.760083	0.585563	0.326158
C23	C	0.659369	0.620920	0.282797
C24	C	0.659356	0.691607	0.282793
C25	C	0.659421	0.335847	0.282812
C26	C	0.659439	0.265155	0.282821
C27	C	0.860844	0.265138	0.369530
C28	C	0.860831	0.335825	0.369526
C29	C	0.760124	0.371176	0.326162
C30	C	0.760103	0.447824	0.326161
C31	C	0.760095	0.508916	0.326163
C32	C	0.760007	0.977951	0.502011
C33	C	0.760027	0.977980	0.577243
C34	C	1.171563	0.978022	0.326156
C35	C	1.350207	0.978023	0.326164
C36	C	0.760135	1.154569	0.326169
C37	C	0.760157	1.229801	0.326175
C38	C	0.760194	0.978122	0.149613
C39	C	0.760241	0.978162	0.074381
C40	C	0.659245	1.021314	0.612567
C41	C	0.659280	1.021343	0.683256
C42	C	0.760090	0.978034	0.718619
C43	C	0.860882	0.934697	0.683290
C44	C	0.860854	0.934672	0.612603
C45	C	0.860999	0.934797	0.968363
C46	C	0.861016	0.934824	1.039055
C47	C	0.659425	1.021468	1.039016
C48	C	0.659397	1.021443	0.968329
C49	C	0.760195	0.978109	0.933006
C50	C	0.760158	0.978080	0.856358
C51	C	0.760120	0.978059	0.795266
H52	H	0.942785	0.592118	0.404817
O53	O	0.561262	1.063448	0.578323
C54	C	0.472291	1.101690	0.624663
H55	H	0.536937	1.104028	0.675037
H56	H	0.352428	1.076950	0.632224
C57	C	0.370294	1.170854	0.535151
C58	C	0.449700	1.173731	0.597019
H59	H	0.356351	1.215291	0.518099
H60	H	0.430230	1.145088	0.503930
H61	H	0.270416	1.150234	0.541460
H62	H	0.549583	1.194343	0.590708
H63	H	0.389779	1.199501	0.628239
H64	H	0.942970	0.899437	0.712088
H65	H	0.942851	0.236347	0.404836
H66	H	0.942751	0.720352	0.404815
O67	O	0.958808	0.892515	0.578392
C68	C	1.047824	0.854307	0.624760
H69	H	0.983216	0.851998	0.675160
H70	H	1.167687	0.879058	0.632240
C71	C	1.149770	0.785090	0.535320
C72	C	1.070411	0.782250	0.597221
H73	H	1.163710	0.740643	0.518333
H74	H	1.089804	0.810833	0.504081
H75	H	1.249648	0.805719	0.541563
H76	H	0.970529	0.761630	0.590977
H77	H	1.130361	0.756502	0.628460
O78	O	0.561574	0.230933	0.240638
C79	C	0.472658	0.277291	0.202374
H80	H	0.537272	0.327686	0.200069
H81	H	0.352731	0.284791	0.227072
C82	C	0.370891	0.187829	0.133155
C83	C	0.450258	0.249723	0.130320
H84	H	0.357066	0.170823	0.088709
H85	H	0.430791	0.156596	0.158936
H86	H	0.270960	0.194087	0.153740
H87	H	0.550194	0.243462	0.109743
H88	H	0.390375	0.280954	0.104533
O89	O	0.959037	0.892848	1.073483
C90	C	1.061037	0.931368	1.114310
H91	H	1.005497	0.982684	1.124864
H92	H	1.177955	0.938758	1.087045
C93	C	1.157762	0.831119	1.168521
C94	C	1.089540	0.894143	1.181488
H95	H	1.175351	0.808156	1.209958
H96	H	1.089047	0.805166	1.141013
H97	H	1.255186	0.837285	1.145798
H98	H	0.992110	0.887975	1.204203
H99	H	1.158239	0.920094	1.209002
O100	O	0.561302	1.063418	0.933948
C101	C	0.459334	1.024908	0.893096
H102	H	0.449476	0.971610	0.914443
H103	H	0.508088	1.022539	0.839517
C104	C	0.307517	1.123498	0.865792
C105	C	0.295399	1.058039	0.892014
H106	H	0.206395	1.143936	0.865121
H107	H	0.376217	1.149444	0.893313
H108	H	0.348150	1.121515	0.821145
H109	H	0.254785	1.060023	0.936663
H110	H	0.226687	1.032094	0.864501
O111	O	0.561507	0.370251	0.240788
C112	C	0.459410	0.411105	0.279248
H113	H	0.514831	0.421687	0.330577
H114	H	0.342481	0.383848	0.286612
C115	C	0.362906	0.465261	0.178932
C116	C	0.430980	0.478263	0.241973
H117	H	0.345361	0.506685	0.155939
H118	H	0.431686	0.437735	0.153020
H119	H	0.265472	0.442545	0.185078
H120	H	0.528420	0.500970	0.235827
H121	H	0.362216	0.505794	0.267884
H122	H	0.943069	0.899512	0.939609
H123	H	0.577357	1.056755	1.067784
H124	H	0.577387	0.592144	0.247496
O125	O	0.958797	0.370045	0.411660
C126	C	1.047668	0.323683	0.449940
H127	H	1.053256	0.273306	0.422225
H128	H	0.989684	0.316143	0.501308
C129	C	1.208659	0.413154	0.493845
C130	C	1.215534	0.351281	0.459802
H131	H	1.312205	0.430178	0.499931
H132	H	1.148782	0.444389	0.468057
H133	H	1.160332	0.406862	0.536648
H134	H	1.263842	0.357576	0.416997
H135	H	1.275423	0.320047	0.485583
H136	H	0.577356	0.720390	0.247484
H137	H	0.577212	1.056630	0.712013
