data_functionalizedCrystal
_audit_creation_method	'MofGen! by Chris Wilmer'
_symmetry_space_group_name_H-M	'P1'
_symmetry_Int_Tables_number	1
_symmetry_cell_setting	triclinic
loop_
_symmetry_equiv_pos_as_xyz
  x,y,z
_cell_length_a	12.811457
_cell_length_b	13.262508
_cell_length_c	11.295483
_cell_angle_alpha	109.979812
_cell_angle_beta	91.289320
_cell_angle_gamma	82.749985
loop_
_atom_site_label
_atom_site_type_symbol
_atom_site_fract_x
_atom_site_fract_y
_atom_site_fract_z
O1	O	1.386254	0.148377	0.098740
O2	O	1.082763	0.161730	0.070288
O3	O	1.245709	-0.001211	0.035117
O4	O	1.223309	0.311318	0.133911
O5	O	1.231397	0.013078	0.236250
O6	O	1.068452	0.176019	0.271420
O7	O	1.371943	0.162667	0.299873
Cu8	Cu	1.218891	0.170648	0.304011
Cu9	Cu	1.235815	0.153749	0.066149
O10	O	1.208997	0.325608	0.335043
C11	C	1.036825	0.167688	0.166281
C12	C	0.921266	0.164141	0.152652
C13	C	0.688516	0.173035	0.346335
C14	C	0.579938	0.169703	0.333535
C15	C	0.595530	0.154135	0.114251
C16	C	0.704109	0.157468	0.127051
C17	C	0.750597	0.166920	0.243097
C18	C	0.859176	0.170260	0.255898
C19	C	0.874768	0.154685	0.036614
C20	C	0.766190	0.151353	0.023814
C21	C	1.238614	-0.034094	0.122724
C22	C	1.238781	-0.153365	0.084109
C23	C	1.208042	-0.458423	0.413822
C24	C	1.207876	-0.346362	0.450103
C25	C	1.215603	-0.298107	0.358608
C26	C	1.223494	-0.361925	0.230825
C27	C	1.223652	-0.473996	0.194539
C28	C	1.231212	-0.313680	0.139325
C29	C	1.239104	-0.377497	0.011542
C30	C	1.239262	-0.489557	-0.024738
C31	C	1.231535	-0.537812	0.066758
C32	C	1.231055	-0.201608	0.175611
C33	C	1.246665	-0.217181	-0.043672
C34	C	1.246830	-0.329242	-0.079954
C35	C	1.417881	0.156708	0.203876
C36	C	1.533441	0.160254	0.217497
C37	C	1.216093	0.358491	0.247433
C38	C	1.215926	0.477760	0.286041
N39	N	1.206994	0.182533	0.471312
N40	N	1.247720	0.141855	-0.101154
C41	C	1.333359	0.056241	0.693349
C42	C	1.324376	0.065230	0.819954
C43	C	1.180041	0.209494	0.851126
C44	C	1.189024	0.200505	0.724521
C45	C	1.265686	0.123877	0.645637
C46	C	1.274674	0.114894	0.519032
C47	C	1.130334	0.259152	0.550205
C48	C	1.121351	0.268141	0.676809
H49	H	0.557663	0.146422	0.019767
C50	C	0.943055	0.147960	-0.076956
H51	H	0.899812	0.141863	-0.147894
H52	H	0.994848	0.086439	-0.095786
H53	H	0.976619	0.211451	-0.057251
H54	H	1.117617	0.271876	0.915366
H55	H	1.075233	0.314229	0.511346
H56	H	1.058931	0.330528	0.741050
H57	H	1.224620	-0.149658	0.279652
C58	C	0.910316	0.180634	0.383534
H59	H	0.857790	0.183782	0.443179
H60	H	0.943249	0.244754	0.412366
H61	H	0.961450	0.119739	0.373800
H62	H	1.253255	-0.381218	-0.183997
H63	H	1.215466	-0.206861	0.388156
H64	H	1.201745	-0.497723	0.488303
H65	H	0.726365	0.180746	0.440828
C66	C	1.199208	-0.276173	0.590653
H67	H	1.194641	-0.320960	0.639948
H68	H	1.137985	-0.224689	0.605208
H69	H	1.259670	-0.239578	0.613521
C70	C	1.247925	-0.559752	-0.165296
H71	H	1.252509	-0.514968	-0.214592
H72	H	1.187470	-0.596348	-0.188164
H73	H	1.309155	-0.611235	-0.179849
C74	C	0.511622	0.176603	0.447145
H75	H	0.440291	0.173308	0.422919
H76	H	0.517169	0.242892	0.513455
H77	H	0.535244	0.117894	0.475155
C78	C	0.715046	0.140962	-0.103824
H79	H	0.641488	0.139860	-0.096661
H80	H	0.745150	0.075813	-0.166044
H81	H	0.726934	0.200826	-0.127500
H82	H	1.337099	0.052502	0.454806
C83	C	1.231679	-0.661076	0.026842
H84	H	1.237475	-0.692174	-0.062365
H85	H	1.167987	-0.676088	0.054975
H86	H	1.289672	-0.691016	0.063277
C87	C	1.255165	-0.164118	-0.144328
H88	H	1.259872	-0.218172	-0.225628
H89	H	1.316265	-0.128165	-0.130571
H90	H	1.194581	-0.113284	-0.138891
C91	C	1.417685	-0.028041	0.606576
H92	H	1.456701	-0.067038	0.653124
H93	H	1.463810	0.007654	0.574473
H94	H	1.384560	-0.076751	0.538604
C95	C	1.398818	-0.009167	0.872434
H96	H	1.445764	-0.056083	0.807320
H97	H	1.358691	-0.050857	0.903241
H98	H	1.437945	0.033546	0.939110
