data_functionalizedCrystal
_audit_creation_method	'MofGen! by Chris Wilmer'
_symmetry_space_group_name_H-M	'P1'
_symmetry_Int_Tables_number	1
_symmetry_cell_setting	triclinic
loop_
_symmetry_equiv_pos_as_xyz
  x,y,z
_cell_length_a	13.032721
_cell_length_b	13.033291
_cell_length_c	12.759393
_cell_angle_alpha	82.788666
_cell_angle_beta	97.149226
_cell_angle_gamma	105.184202
loop_
_atom_site_label
_atom_site_type_symbol
_atom_site_fract_x
_atom_site_fract_y
_atom_site_fract_z
Zn1	Zn	-0.216746	1.570258	-0.822554
Zn2	Zn	-0.394405	1.547566	-0.666642
Zn3	Zn	-0.239338	1.392610	-0.627046
Zn4	Zn	-0.416853	1.370037	-0.822433
O5	O	-0.316835	1.470118	-0.734668
O6	O	-0.221464	1.715891	-0.818493
O7	O	-0.373895	1.526961	-0.514369
O8	O	-0.087700	1.435119	-0.636460
O9	O	-0.351989	1.699220	-0.703945
O10	O	-0.071102	1.565636	-0.780099
O11	O	-0.259968	1.413116	-0.485279
O12	O	-0.281735	1.240973	-0.636343
O13	O	-0.390248	1.396646	-0.969469
O14	O	-0.412154	1.224388	-0.779893
O15	O	-0.243231	1.543748	-0.969557
O16	O	-0.546023	1.505073	-0.703828
O17	O	-0.562516	1.374643	-0.818287
C18	C	-0.351833	1.194139	-0.703809
C19	C	-0.366830	1.076070	-0.690635
C20	C	-0.324526	0.909642	-0.727939
C21	C	-0.309027	1.031672	-0.741554
C22	C	-0.592807	1.434975	-0.765367
C23	C	-0.710856	1.420038	-0.778546
C24	C	-0.755285	1.477970	-0.727844
C25	C	-0.877295	1.462533	-0.741464
C26	C	-0.039783	1.505427	-0.703876
C27	C	0.078281	1.520473	-0.690754
C28	C	-0.316723	1.470210	-1.008699
C29	C	-0.316676	1.470250	-1.125475
C30	C	-0.281702	1.747174	-0.765649
C31	C	-0.266731	1.865239	-0.778851
C32	C	-0.240112	1.546852	-1.180384
C33	C	-0.240064	1.546876	-1.290105
C34	C	-0.393152	1.393691	-1.289999
C35	C	-0.393195	1.393663	-1.180279
C36	C	-0.316863	1.470097	-0.461702
C37	C	-0.316585	1.470301	-0.344916
H38	H	-0.702996	1.539001	-0.674356
H39	H	-0.385475	0.857315	-0.674266
C40	C	-0.947191	1.381172	-0.812708
C41	C	-1.054314	1.382011	-0.812027
C42	C	-1.118733	1.307068	-0.877632
H43	H	-0.927167	1.398881	-0.883078
H44	H	-0.938259	1.312046	-0.787288
H45	H	-1.063239	1.451121	-0.837451
H46	H	-1.074370	1.364290	-0.741674
H47	H	-1.109802	1.237942	-0.852212
H48	H	-1.098700	1.324784	-0.947997
H49	H	-1.191424	1.307620	-0.877171
H50	H	-0.763147	1.359016	-0.832042
C51	C	-0.448102	1.006128	-0.619161
C52	C	-0.447348	0.898994	-0.619894
C53	C	-0.522211	0.834532	-0.554079
H54	H	-0.430280	1.026071	-0.548811
H55	H	-0.517229	1.015118	-0.644384
H56	H	-0.378237	0.890009	-0.594665
H57	H	-0.465182	0.879018	-0.690227
H58	H	-0.591338	0.843522	-0.579303
H59	H	-0.504383	0.854484	-0.483733
H60	H	-0.521717	0.761834	-0.554575
C61	C	-0.227824	1.101287	-0.813285
C62	C	-0.254451	1.071456	-0.916804
C63	C	-0.179666	1.135553	-0.982906
H64	H	-0.228141	1.174057	-0.813062
H65	H	-0.158711	1.092214	-0.788134
H66	H	-0.323546	1.080539	-0.941948
H67	H	-0.254127	0.998696	-0.917060
H68	H	-0.110553	1.126480	-0.957755
H69	H	-0.179989	1.208320	-0.982674
H70	H	-0.197717	1.115316	-1.053149
C71	C	-0.185532	0.934858	-0.850578
C72	C	-0.212159	0.905028	-0.954097
C73	C	-0.137374	0.969124	-1.020199
H74	H	-0.185848	1.007629	-0.850355
H75	H	-0.116418	0.925785	-0.825427
H76	H	-0.281254	0.914110	-0.979241
H77	H	-0.211835	0.832268	-0.954353
H78	H	-0.068261	0.960052	-0.995048
H79	H	-0.137696	1.041891	-1.019967
H80	H	-0.155424	0.948887	-1.090442
C81	C	-0.851835	1.601759	-0.619426
C82	C	-0.744716	1.600887	-0.620065
C83	C	-0.680311	1.675740	-0.554359
H84	H	-0.860700	1.670913	-0.644760
H85	H	-0.871936	1.583959	-0.549075
H86	H	-0.724621	1.618694	-0.690401
H87	H	-0.735818	1.531751	-0.594721
H88	H	-0.700412	1.657940	-0.484008
H89	H	-0.689184	1.744888	-0.579700
H90	H	-0.607625	1.675151	-0.554777
H91	H	-0.455542	1.331277	-1.135570
C92	C	-0.156908	1.630048	-1.121061
C93	C	-0.089830	1.697119	-1.192634
C94	C	-0.013157	1.773762	-1.138024
H95	H	-0.191556	1.671252	-1.087947
H96	H	-0.115736	1.595332	-1.068588
H97	H	-0.130996	1.731832	-1.245088
H98	H	-0.055157	1.655946	-1.225751
H99	H	0.028015	1.739046	-1.085551
H100	H	-0.047814	1.814958	-1.104912
H101	H	0.032371	1.819272	-1.186576
C102	C	-0.476341	1.310710	-1.349596
C103	C	-0.536792	1.362192	-1.426862
C104	C	-0.613447	1.285785	-1.481772
H105	H	-0.441687	1.269583	-1.382802
H106	H	-0.522005	1.265093	-1.301219
H107	H	-0.491134	1.407791	-1.475231
H108	H	-0.571470	1.403314	-1.393684
H109	H	-0.659111	1.240168	-1.433395
H110	H	-0.578783	1.244662	-1.514972
H111	H	-0.654478	1.320704	-1.534196
H112	H	-0.177717	1.609251	-1.334807
