data_functionalizedCrystal
_audit_creation_method	'MofGen! by Chris Wilmer'
_symmetry_space_group_name_H-M	'P1'
_symmetry_Int_Tables_number	1
_symmetry_cell_setting	triclinic
loop_
_symmetry_equiv_pos_as_xyz
  x,y,z
_cell_length_a	19.902436
_cell_length_b	17.917603
_cell_length_c	17.917603
_cell_angle_alpha	60.138055
_cell_angle_beta	90.004008
_cell_angle_gamma	63.031398
loop_
_atom_site_label
_atom_site_type_symbol
_atom_site_fract_x
_atom_site_fract_y
_atom_site_fract_z
Zr1	Zr	0.685655	0.806773	-0.128997
O2	O	0.589239	0.951818	-0.249542
O3	O	0.710603	0.654542	-0.087343
O4	O	0.722777	0.796393	-0.242751
O5	O	0.572705	0.820661	0.023107
O6	O	0.833355	0.796379	-0.242741
O7	O	0.577066	0.809967	-0.094134
O8	O	0.811579	0.542634	0.035255
O9	O	0.594481	1.074406	-0.254888
O10	O	0.809334	0.719808	-0.075250
O11	O	0.723556	0.727799	0.012239
O12	O	0.737888	0.894810	-0.170734
O13	O	0.652111	0.902801	-0.083245
Zr14	Zr	0.855058	0.823807	0.058006
Zr15	Zr	0.862013	0.806751	-0.128981
Zr16	Zr	0.678699	0.823829	0.057989
Zr17	Zr	0.694014	1.002287	-0.137524
Zr18	Zr	0.846699	0.628293	0.066533
O19	O	0.830109	0.976038	0.016352
O20	O	0.839999	0.951787	-0.249519
O21	O	0.579349	0.976069	0.016329
O22	O	0.951473	0.678762	0.178550
O23	O	0.961363	0.654511	-0.087320
O24	O	0.700713	0.678793	0.178527
O25	O	0.968008	0.809919	-0.094098
O26	O	0.817936	0.834187	0.171759
O27	O	0.707358	0.834201	0.171749
O28	O	0.963646	0.820613	0.023143
O29	O	0.734663	1.074389	-0.254876
O30	O	0.806050	0.556191	0.183884
O31	O	0.946232	0.556174	0.183897
O32	O	0.951760	0.542617	0.035268
O33	O	0.588952	1.087963	-0.106259
O34	O	0.729134	1.087946	-0.106246
O35	O	0.802824	0.735770	0.099742
O36	O	0.888602	0.727779	0.012254
O37	O	0.817157	0.902781	-0.083230
O38	O	0.731379	0.910772	0.004258
C39	C	0.759900	0.570732	-0.024829
C40	C	0.756351	0.487731	-0.021209
C41	C	0.749868	0.335765	-0.014598
C42	C	0.790843	0.294811	-0.056391
C43	C	0.787235	0.210252	-0.052713
C44	C	0.753474	0.420332	-0.018276
C45	C	0.549758	0.815317	-0.035516
C46	C	0.474889	0.815326	-0.035523
C47	C	0.202884	0.815278	-0.035487
C48	C	0.186295	0.925696	-0.095455
C49	C	0.264148	0.925741	-0.095763
C50	C	0.337829	0.815303	-0.035505
C51	C	0.334464	0.754307	-0.073254
C52	C	0.256283	0.755008	-0.073692
C53	C	0.252114	0.765031	0.062292
C54	C	0.329133	0.767187	0.062051
C55	C	0.414096	0.815310	-0.035514
C56	C	0.126618	0.815266	-0.035481
C57	C	0.990954	0.815263	-0.035475
C58	C	1.065823	0.815254	-0.035469
C59	C	0.779057	0.793956	-0.269387
C60	C	0.782009	0.786715	-0.348768
C61	C	0.780812	1.059849	-0.046162
C62	C	0.784361	1.142849	-0.049782
C63	C	0.787420	0.773489	-0.494122
C64	C	0.753294	0.857087	-0.576872
C65	C	0.756305	0.849728	-0.657752
C66	C	0.784410	0.780846	-0.413233
C67	C	0.761656	0.836624	0.198396
C68	C	0.758703	0.843865	0.277776
C69	C	0.980498	0.570705	-0.024809
C70	C	1.051818	0.487694	-0.021182
C71	C	0.751200	0.592066	0.209062
C72	C	0.744698	0.516306	0.292063
C73	C	0.971798	0.592039	0.209083
C74	C	1.040165	0.516269	0.292090
C75	C	0.568915	1.038541	-0.280074
C76	C	0.500547	1.114311	-0.363082
C77	C	0.560214	1.059876	-0.046183
C78	C	0.488894	1.142886	-0.049810
C79	C	0.789513	1.038514	-0.280054
C80	C	0.796014	1.114275	-0.363054
C81	C	1.043934	0.444551	-0.065162
C82	C	1.110941	0.366563	-0.061772
C83	C	1.185832	0.331716	-0.014396
C84	C	1.193715	0.374867	0.029585
C85	C	1.126708	0.452858	0.026190
C86	C	0.783022	0.484889	0.376725
C87	C	0.776910	0.413716	0.454719
C88	C	0.732479	0.373955	0.448051
C89	C	0.694150	0.405378	0.363380
C90	C	0.700258	0.476556	0.285387
C91	C	1.117054	0.476516	0.285403
C92	C	1.181299	0.405333	0.363390
C93	C	1.168655	0.373899	0.448063
C94	C	1.091759	0.413660	0.454748
C95	C	1.027515	0.484847	0.376762
C96	C	0.423659	1.154074	-0.356395
C97	C	0.359414	1.225281	-0.434383
C98	C	0.372059	1.256719	-0.519056
C99	C	0.448955	1.216953	-0.525741
C100	C	0.513199	1.145752	-0.447754
C101	C	0.496779	1.186037	-0.005837
C102	C	0.429773	1.264044	-0.009249
C103	C	0.354883	1.298894	-0.056628
C104	C	0.347000	1.255739	-0.100606
C105	C	0.414005	1.177738	-0.097199
C106	C	0.840452	1.154013	-0.356357
C107	C	0.846576	1.225188	-0.434337
C108	C	0.808258	1.256629	-0.519015
C109	C	0.763819	1.216883	-0.525710
C110	C	0.757699	1.145703	-0.447731
H111	H	0.263806	0.973389	-0.070947
Cl112	Cl	1.101013	0.312327	-0.117064
Cl113	Cl	0.691530	0.291848	0.044909
Cl114	Cl	1.287868	0.331044	0.089145
Cl115	Cl	1.136633	0.507081	0.081493
H116	H	0.657974	0.372995	0.357963
Cl117	Cl	0.701822	1.095764	-0.456167
H118	H	0.813247	1.314588	-0.582504
H119	H	0.982961	0.472921	-0.103752
Cl120	Cl	1.277960	0.355357	0.354966
H121	H	0.148067	0.973452	-0.070572
Cl122	Cl	0.838885	0.534857	0.385132
Cl123	Cl	0.704692	0.976119	-0.592470
Cl124	Cl	0.131664	0.985473	-0.206273
Cl125	Cl	0.268426	0.985725	-0.207243
H126	H	0.224088	0.789354	-0.145530
H127	H	0.319741	1.314696	-0.582551
Cl128	Cl	1.270061	0.233666	-0.010134
H129	H	1.081475	0.388056	0.523699
H130	H	0.732622	1.242493	-0.594665
H131	H	0.964910	0.517205	0.382219
Cl132	Cl	0.849187	0.338723	-0.115899
Cl133	Cl	0.464838	1.256482	-0.632194
H134	H	0.270617	0.673732	-0.032574
Cl135	Cl	0.836010	0.654465	-0.478529
Cl136	Cl	0.414385	0.628581	-0.008736
H137	H	0.557752	1.157669	0.032750
Cl138	Cl	0.407742	1.114567	-0.249959
Cl139	Cl	0.888633	1.114502	-0.249914
H140	H	1.220973	0.315933	0.511557
H141	H	0.436207	1.299169	0.026567
Cl142	Cl	0.724810	0.284473	0.546109
Cl143	Cl	0.902440	1.275147	-0.425899
Cl144	Cl	0.262754	1.275254	-0.425959
Cl145	Cl	0.609856	1.095765	-0.456175
H146	H	0.407574	1.142606	-0.133004
H147	H	0.340298	0.787789	-0.144384
H148	H	0.216130	0.805035	0.094303
Cl149	Cl	0.270655	1.396952	-0.060899
Cl150	Cl	0.329603	0.835935	0.105673
H151	H	0.381340	0.686989	0.110101
Cl152	Cl	0.274905	0.639535	0.131506
H153	H	0.669052	0.502125	0.216455
Cl154	Cl	0.825103	0.374224	0.561151
Cl155	Cl	0.252846	1.299557	-0.160160
Cl156	Cl	1.132971	0.516024	0.178967
