data_functionalizedCrystal
_audit_creation_method	'MofGen! by Chris Wilmer'
_symmetry_space_group_name_H-M	'P1'
_symmetry_Int_Tables_number	1
_symmetry_cell_setting	triclinic
loop_
_symmetry_equiv_pos_as_xyz
  x,y,z
_cell_length_a	6.817900
_cell_length_b	15.185311
_cell_length_c	17.110486
_cell_angle_alpha	96.140669
_cell_angle_beta	99.060439
_cell_angle_gamma	104.261569
loop_
_atom_site_label
_atom_site_type_symbol
_atom_site_fract_x
_atom_site_fract_y
_atom_site_fract_z
V1	V	-3.980747	-0.125485	-0.246952
O2	O	-3.965180	0.006309	-0.242012
O3	O	-3.936383	-0.249083	-0.245493
O4	O	-3.910542	-0.123432	-0.354551
O5	O	-3.991201	-0.120212	-0.132198
V6	V	-4.466677	-0.109735	-0.233198
O7	O	-4.236725	-0.160033	-0.277121
O8	O	-4.660897	-0.075187	-0.203029
O9	O	-4.287834	0.013863	-0.234658
O10	O	-4.599641	-0.241528	-0.238138
O11	O	-4.573620	-0.115008	-0.347952
O12	O	-4.313676	-0.111787	-0.125599
C13	C	-3.783072	-0.279217	-0.241656
C14	C	-3.827941	-0.380259	-0.241180
C15	C	-3.991769	-0.794601	-0.166702
C16	C	-4.043761	-0.820386	-0.311685
C17	C	-4.001577	-0.725450	-0.312127
C18	C	-3.954490	-0.665085	-0.239856
C19	C	-3.949586	-0.699656	-0.167142
C20	C	-4.006498	-0.690873	-0.384840
C21	C	-3.964314	-0.595931	-0.385286
C22	C	-3.917212	-0.535564	-0.313014
C23	C	-3.912307	-0.570140	-0.240297
C24	C	-3.865220	-0.509775	-0.168026
C25	C	-3.860300	-0.544349	-0.095308
C26	C	-3.902483	-0.639289	-0.094870
C27	C	-3.875028	-0.440624	-0.313451
C28	C	-3.823037	-0.414830	-0.168466
C29	C	-3.750107	-0.118936	-0.380770
C30	C	-3.774017	-0.118076	-0.468735
C31	C	-3.966685	-0.122208	-0.514100
C32	C	-3.989139	-0.121399	-0.596752
C33	C	-3.818925	-0.116465	-0.634038
C34	C	-3.626240	-0.112329	-0.588666
C35	C	-3.603786	-0.113132	-0.506015
C36	C	-3.877643	-0.113809	-0.883388
C37	C	-3.900114	-0.113010	-0.966045
C38	C	-4.263011	-0.122078	-0.974125
C39	C	-4.240542	-0.122885	-0.891473
C40	C	-4.047858	-0.118745	-0.846108
C41	C	-3.841873	-0.115641	-0.718521
C42	C	-4.024909	-0.119563	-0.761625
C43	C	-4.104488	0.043993	-0.238492
C44	C	-4.038856	0.145034	-0.238973
C45	C	-4.137453	-0.116286	-0.099376
C46	C	-4.092782	-0.117142	-0.011411
H47	H	-3.898488	-0.667448	-0.035667
O48	O	-3.460753	-0.107369	-0.624825
C49	C	-3.306425	-0.025745	-0.591277
H50	H	-3.379552	0.026648	-0.563317
H51	H	-3.225991	0.003380	-0.640148
H52	H	-3.188941	-0.041260	-0.543242
O53	O	-4.131825	-0.126878	-0.477778
C54	C	-4.091276	-0.048531	-0.419345
H55	H	-3.917559	-0.018355	-0.399824
H56	H	-4.160930	-0.068798	-0.365384
H57	H	-4.162548	0.004912	-0.445575
H58	H	-3.720767	-0.110470	-0.846465
O59	O	-3.416664	-0.109283	-0.462003
C60	C	-3.350189	-0.185390	-0.490634
H61	H	-3.489397	-0.243089	-0.523322
H62	H	-3.266015	-0.210402	-0.438098
H63	H	-3.241402	-0.164222	-0.533631
O64	O	-3.880134	-0.407002	-0.384067
C65	C	-4.029647	-0.357219	-0.392405
H66	H	-4.148099	-0.381576	-0.353761
H67	H	-4.110039	-0.369015	-0.457785
H68	H	-3.951707	-0.280811	-0.372413
H69	H	-4.146023	-0.124759	-0.633685
O70	O	-4.190462	-0.124483	-0.725516
C71	C	-4.344744	-0.206132	-0.759033
H72	H	-4.322284	-0.230621	-0.821523
H73	H	-4.502862	-0.192475	-0.763105
H74	H	-4.333844	-0.261323	-0.719574
O75	O	-4.089854	-0.878995	-0.381912
C76	C	-4.267731	-0.868007	-0.429889
H77	H	-4.361414	-0.837421	-0.390224
H78	H	-4.365143	-0.937765	-0.463739
H79	H	-4.220476	-0.819953	-0.474499
H80	H	-3.703291	-0.111627	-0.748889
H81	H	-3.784684	-0.365686	-0.109613
O82	O	-4.052595	-0.749484	-0.455066
C83	C	-4.230490	-0.738507	-0.503039
H84	H	-4.324169	-0.707923	-0.463371
H85	H	-4.327895	-0.808269	-0.536883
H86	H	-4.183258	-0.690456	-0.547654
H87	H	-3.821968	-0.495188	-0.036465
H88	H	-3.761494	-0.108989	-0.996400
O89	O	-4.406105	-0.127799	-0.855367
C90	C	-4.560395	-0.209443	-0.888891
H91	H	-4.537913	-0.233933	-0.951378
H92	H	-4.718507	-0.195777	-0.892975
H93	H	-4.549531	-0.264636	-0.849432
H94	H	-3.987758	-0.822755	-0.107496
O95	O	-3.969418	-0.562318	-0.455909
C96	C	-4.118934	-0.512536	-0.464254
H97	H	-4.237389	-0.536890	-0.425610
H98	H	-4.199323	-0.524340	-0.529636
H99	H	-4.040998	-0.436127	-0.444268
O100	O	-4.450121	-0.126212	-1.018297
C101	C	-4.512430	-0.205104	-1.077214
H102	H	-4.371072	-0.227411	-1.089711
H103	H	-4.596361	-0.188674	-1.134600
H104	H	-4.620240	-0.263018	-1.054976
