data_functionalizedCrystal
_audit_creation_method	'MofGen! by Chris Wilmer'
_symmetry_space_group_name_H-M	'P1'
_symmetry_Int_Tables_number	1
_symmetry_cell_setting	triclinic
loop_
_symmetry_equiv_pos_as_xyz
  x,y,z
_cell_length_a	15.298709
_cell_length_b	15.299816
_cell_length_c	12.759393
_cell_angle_alpha	99.650868
_cell_angle_beta	99.644931
_cell_angle_gamma	88.426258
loop_
_atom_site_label
_atom_site_type_symbol
_atom_site_fract_x
_atom_site_fract_y
_atom_site_fract_z
Zn1	Zn	1.399322	-0.116601	-0.336018
Zn2	Zn	1.424554	-0.263071	-0.184807
Zn3	Zn	1.252858	-0.142018	-0.194946
Zn4	Zn	1.278151	-0.288365	-0.395001
O5	O	1.338721	-0.202514	-0.277693
O6	O	1.525234	-0.114808	-0.287032
O7	O	1.401753	-0.247065	-0.039147
O8	O	1.251141	-0.016101	-0.193218
O9	O	1.543773	-0.222419	-0.175938
O10	O	1.358748	0.002573	-0.296863
O11	O	1.275608	-0.158127	-0.046596
O12	O	1.133647	-0.182654	-0.250412
O13	O	1.294250	-0.265529	-0.534182
O14	O	1.152230	-0.290175	-0.397391
O15	O	1.383274	-0.139334	-0.490848
O16	O	1.426279	-0.388972	-0.233131
O17	O	1.318717	-0.407555	-0.387560
C18	C	1.111159	-0.241918	-0.331403
C19	C	1.013811	-0.258796	-0.354409
C20	C	1.378004	-0.430034	-0.315663
C21	C	1.394890	-0.527354	-0.331923
C22	C	0.977794	-0.322791	-0.441647
C23	C	0.886330	-0.338644	-0.463271
C24	C	0.830874	-0.290510	-0.397654
C25	C	0.866891	-0.226518	-0.310410
C26	C	0.958364	-0.210658	-0.288788
C27	C	0.811444	-0.178377	-0.244796
C28	C	0.847461	-0.114386	-0.157551
C29	C	0.938925	-0.098529	-0.135934
C30	C	0.994381	-0.146664	-0.201550
C31	C	0.719971	-0.194238	-0.266418
C32	C	0.700541	-0.082105	-0.113559
C33	C	0.792005	-0.066252	-0.091935
C34	C	1.218611	-0.840834	-0.161702
C35	C	1.202742	-0.749397	-0.146429
C36	C	1.250778	-0.693882	-0.192801
C37	C	1.314685	-0.729812	-0.254449
C38	C	1.330551	-0.821259	-0.269731
C39	C	1.362718	-0.674307	-0.300830
C40	C	1.426626	-0.710237	-0.362478
C41	C	1.442489	-0.801675	-0.377757
C42	C	1.394453	-0.857190	-0.331385
C43	C	1.346852	-0.582861	-0.285548
C44	C	1.458792	-0.563285	-0.393577
C45	C	1.474661	-0.654722	-0.408850
C46	C	1.567172	-0.162957	-0.223774
C47	C	1.664524	-0.146100	-0.200797
C48	C	1.338769	-0.202418	-0.551698
C49	C	1.338789	-0.202377	-0.668462
C50	C	1.299308	0.025899	-0.239592
C51	C	1.282513	0.123235	-0.223356
C52	C	1.273135	-0.156019	-0.836912
C53	C	1.273121	-0.156053	-0.727197
C54	C	1.404481	-0.248662	-0.719444
C55	C	1.404498	-0.248622	-0.829155
C56	C	1.207457	-0.109699	-0.895644
C57	C	1.141766	-0.063413	-0.844669
C58	C	1.141752	-0.063447	-0.734954
C59	C	1.207429	-0.109768	-0.676215
C60	C	1.338713	-0.202538	-0.004732
C61	C	1.338820	-0.202302	0.112113
H62	H	0.756400	-0.303422	-0.415267
H63	H	1.497905	-0.518085	-0.431339
H64	H	1.088299	-0.025694	-0.892499
O65	O	1.031738	-0.369401	-0.505387
C66	C	1.137093	-0.363397	-0.624818
C67	C	1.076053	-0.310498	-0.552641
H68	H	1.172924	-0.315798	-0.663060
H69	H	1.187856	-0.401688	-0.574045
H70	H	1.095632	-0.411885	-0.690844
H71	H	1.117441	-0.261965	-0.486604
H72	H	1.025286	-0.272267	-0.603486
O73	O	1.468186	-0.293651	-0.878830
C74	C	1.500388	-0.409834	-1.019601
C75	C	1.428166	-0.358899	-0.963460
H76	H	1.468060	-0.462610	-1.088021
H77	H	1.539250	-0.361731	-1.053532
H78	H	1.547332	-0.442909	-0.958749
H79	H	1.381163	-0.325820	-1.024248
H80	H	1.389370	-0.407041	-0.929508
O81	O	0.973772	-0.036357	-0.051122
C82	C	0.944837	0.073232	0.098165
C83	C	0.905261	0.002833	0.002170
H84	H	0.889463	0.104951	0.141265
H85	H	0.994543	0.040546	0.156672
H86	H	0.979806	0.126364	0.067574
H87	H	0.870246	-0.050320	0.032664
H88	H	0.855601	0.035583	-0.056318
O89	O	0.826976	-0.004191	-0.007065
C90	C	0.847478	0.043354	0.185278
C91	C	0.807845	-0.027000	0.089263
H92	H	0.832009	0.024949	0.263180
H93	H	0.922388	0.046412	0.189546
H94	H	0.817324	0.110830	0.174172
H95	H	0.837929	-0.094512	0.100302
H96	H	0.732934	-0.029980	0.085023
O97	O	1.077859	-0.018471	-0.685612
C98	C	0.947597	0.073428	-0.704873
C99	C	1.019897	0.022515	-0.760888
H100	H	0.900728	0.106593	-0.765704
H101	H	0.908666	0.025306	-0.671058
H102	H	0.979918	0.126131	-0.636358
H103	H	0.987649	-0.030188	-0.829446
H104	H	1.058822	0.070692	-0.794628
O105	O	1.536848	-0.689566	-0.468602
C106	C	1.690620	-0.691545	-0.489297
C107	C	1.620292	-0.652031	-0.421511
H108	H	1.758098	-0.661201	-0.451263
H109	H	1.693785	-0.766433	-0.492238
H110	H	1.672023	-0.676210	-0.574630
H111	H	1.638839	-0.667299	-0.336147
H112	H	1.617141	-0.577153	-0.418661
H113	H	1.407374	-0.931645	-0.343813
O114	O	0.646563	-0.035465	-0.049874
C115	C	0.497037	-0.010204	-0.015441
C116	C	0.558073	-0.063088	-0.087636
H117	H	0.425479	-0.032503	-0.045958
H118	H	0.517576	-0.022414	0.070995
H119	H	0.502872	0.063513	-0.017955
H120	H	0.552269	-0.136820	-0.085213
H121	H	0.537517	-0.050802	-0.174038
O122	O	0.684927	-0.256279	-0.351257
C123	C	0.583743	-0.286107	-0.519434
C124	C	0.623373	-0.215747	-0.423423
H125	H	0.533955	-0.253367	-0.577794
H126	H	0.639047	-0.317777	-0.562700
H127	H	0.548845	-0.339286	-0.488839
H128	H	0.658264	-0.162514	-0.453928
H129	H	0.568032	-0.184147	-0.380175
H130	H	0.857011	-0.390746	-0.534306
H131	H	1.179503	-0.886042	-0.123959
H132	H	1.207461	-0.109667	-0.984979
H133	H	1.457951	-0.286375	-0.671610
H134	H	1.068860	-0.133763	-0.183945
H135	H	1.294817	-0.553615	-0.235353
O136	O	1.207291	-0.109903	-0.569683
C137	C	1.127160	-0.146942	-0.435801
C138	C	1.127213	-0.146857	-0.556478
H139	H	1.062417	-0.176799	-0.425084
H140	H	1.185333	-0.188040	-0.402540
H141	H	1.133674	-0.075982	-0.390430
H142	H	1.120671	-0.217785	-0.601937
H143	H	1.069051	-0.105710	-0.589656
O144	O	1.235285	-0.605075	-0.177815
C145	C	1.151059	-0.484603	-0.096666
C146	C	1.168530	-0.585193	-0.113540
H147	H	1.097075	-0.468499	-0.044719
H148	H	1.214546	-0.447942	-0.054693
H149	H	1.128583	-0.462905	-0.178173
H150	H	1.190982	-0.606972	-0.032079
H151	H	1.105025	-0.621797	-0.155563
O152	O	1.140669	-0.714636	-0.086470
C153	C	1.031287	-0.743713	0.019026
C154	C	1.101573	-0.783195	-0.048841
H155	H	0.999644	-0.799125	0.049448
H156	H	1.064061	-0.693966	0.090628
H157	H	0.978074	-0.708815	-0.032828
H158	H	1.154806	-0.818137	0.002923
H159	H	1.068735	-0.832895	-0.120450
H160	H	1.494523	-0.830926	-0.427960
