data_functionalizedCrystal
_audit_creation_method	'MofGen! by Chris Wilmer'
_symmetry_space_group_name_H-M	'P1'
_symmetry_Int_Tables_number	1
_symmetry_cell_setting	triclinic
loop_
_symmetry_equiv_pos_as_xyz
  x,y,z
_cell_length_a	14.908520
_cell_length_b	18.215407
_cell_length_c	18.215399
_cell_angle_alpha	89.982223
_cell_angle_beta	86.730636
_cell_angle_gamma	86.683764
loop_
_atom_site_label
_atom_site_type_symbol
_atom_site_fract_x
_atom_site_fract_y
_atom_site_fract_z
Zn1	Zn	-0.359273	-1.108172	0.432983
Zn2	Zn	0.140727	-0.608172	0.932983
Zn3	Zn	-0.510141	-1.100984	0.317016
Zn4	Zn	-0.010141	-0.600984	0.817016
Zn5	Zn	-0.359290	-0.985104	0.309935
Zn6	Zn	0.140710	-0.485104	0.809935
Zn7	Zn	-0.510078	-0.977977	0.440043
Zn8	Zn	-0.010078	-0.477977	0.940043
O9	O	-0.434695	-1.043059	0.374994
O10	O	0.065305	-0.543059	0.874994
O11	O	-0.379305	-1.210202	0.417608
O12	O	0.120695	-0.710202	0.917608
O13	O	-0.490164	-1.085587	0.213094
O14	O	0.009836	-0.585587	0.713094
O15	O	-0.233043	-1.007420	0.320340
O16	O	0.266957	-0.507420	0.820340
O17	O	-0.490147	-1.204921	0.332408
O18	O	0.009853	-0.704921	0.832408
O19	O	-0.233031	-1.097838	0.410742
O20	O	0.266969	-0.597838	0.910742
O21	O	-0.379334	-1.000450	0.207892
O22	O	0.120666	-0.500450	0.707892
O23	O	-0.379273	-0.881175	0.327186
O24	O	0.120727	-0.381175	0.827186
O25	O	-0.490040	-0.995273	0.542089
O26	O	0.009960	-0.495273	1.042089
O27	O	-0.490057	-0.875939	0.422775
O28	O	0.009943	-0.375939	0.922775
O29	O	-0.379244	-1.090927	0.536902
O30	O	0.120756	-0.590927	1.036902
O31	O	-0.636377	-1.078676	0.339254
O32	O	-0.136377	-0.578676	0.839254
O33	O	-0.636331	-0.988303	0.429641
O34	O	-0.136331	-0.488303	0.929641
C35	C	-0.434660	-0.851855	0.374979
C36	C	0.065340	-0.351855	0.874979
C37	C	-0.434667	-0.770055	0.374990
C38	C	0.065333	-0.270055	0.874990
C39	C	-0.377063	-0.584605	0.419432
C40	C	0.122937	-0.084605	0.919432
C41	C	-0.377068	-0.507746	0.419434
C42	C	0.122932	-0.007746	0.919434
C43	C	-0.492314	-0.502266	0.330562
C44	C	0.007686	-0.002266	0.830562
C45	C	-0.492304	-0.579124	0.330556
C46	C	0.007696	-0.079124	0.830556
C47	C	-0.434680	-0.620291	0.374996
C48	C	0.065320	-0.120291	0.874996
C49	C	-0.434695	-0.466575	0.375003
C50	C	0.065305	0.033425	0.875003
C51	C	-0.434700	-0.383241	0.375005
C52	C	0.065300	0.116759	0.875005
C53	C	-0.434673	-0.703631	0.374993
C54	C	0.065327	-0.203631	0.874993
C55	C	-0.669088	-1.031956	0.385998
C56	C	-0.169088	-0.531956	0.885998
C57	C	-0.769362	-1.027273	0.390730
C58	C	-0.269362	-0.527273	0.890730
C59	C	-0.957775	-1.112676	0.305578
C60	C	-0.457775	-0.612676	0.805578
C61	C	-1.051991	-1.108279	0.310022
C62	C	-0.551991	-0.608279	0.810022
C63	C	-1.052013	-1.014086	0.404065
C64	C	-0.552013	-0.514086	0.904065
C65	C	-0.957797	-1.018483	0.399621
C66	C	-0.457797	-0.518483	0.899621
C67	C	-0.910681	-1.067779	0.350375
C68	C	-0.410681	-0.567779	0.850375
C69	C	-0.816463	-1.072172	0.345928
C70	C	-0.316463	-0.572172	0.845928
C71	C	-0.816486	-0.977983	0.439974
C72	C	-0.316486	-0.477983	0.939974
C73	C	-0.910703	-0.973586	0.444418
C74	C	-0.410703	-0.473586	0.944418
C75	C	-0.199388	-1.054226	0.363964
C76	C	0.300612	-0.554226	0.863964
C77	C	-0.099114	-1.058984	0.359263
C78	C	0.400886	-0.558984	0.859263
C79	C	-0.434633	-1.043107	0.566944
C80	C	0.065367	-0.543107	1.066944
C81	C	-0.434607	-1.043127	0.648742
C82	C	0.065393	-0.543127	1.148742
C83	C	-0.434722	-0.235011	0.375009
C84	C	0.065278	0.264989	0.875009
C85	C	-0.434708	-0.316810	0.375009
C86	C	0.065292	0.183190	0.875009
C87	C	-0.434692	-1.043057	0.183788
C88	C	0.065308	-0.543057	0.683788
C89	C	-0.434465	-1.043191	0.101979
C90	C	0.065535	-0.543191	0.601979
C91	C	-0.376861	-1.092954	0.834234
C92	C	0.123139	-0.592954	1.334234
C93	C	-0.376835	-1.092964	0.911092
C94	C	0.123165	-0.592964	1.411092
C95	C	-0.492213	-0.993360	0.916482
C96	C	0.007787	-0.493360	1.416482
C97	C	-0.492234	-0.993347	0.839625
C98	C	0.007766	-0.493347	1.339625
C99	C	-0.434559	-1.043148	0.798504
C100	C	0.065441	-0.543148	1.298504
C101	C	-0.434512	-1.043171	0.952217
C102	C	0.065488	-0.543171	1.452217
C103	C	-0.434484	-1.043181	1.035550
C104	C	0.065516	-0.543181	1.535550
C105	C	-0.434586	-1.043137	0.715166
C106	C	0.065414	-0.543137	1.215166
H107	H	-0.539224	-0.608180	0.294367
H108	H	-0.039224	-0.108180	0.794367
H109	H	-0.778102	-1.112309	0.305828
H110	H	-0.278102	-0.612309	0.805828
H111	H	-0.919412	-1.152810	0.265475
H112	H	-0.419412	-0.652810	0.765475
H113	H	-1.090332	-1.144840	0.273545
H114	H	-0.590332	-0.644840	0.773545
H115	H	-0.330138	-0.618122	0.455615
H116	H	0.169862	-0.118122	0.955615
H117	H	-0.539218	-0.952783	0.810533
H118	H	-0.039218	-0.452783	1.310533
H119	H	-0.330148	-0.478694	0.455618
H120	H	0.169852	0.021306	0.955618
H121	H	-1.090391	-0.973956	0.444163
H122	H	-0.590391	-0.473956	0.944163
C123	C	-0.645025	-0.471378	0.301686
C124	C	-0.145025	0.028622	0.801686
C125	C	-0.555662	-0.457013	0.281722
C126	C	-0.055662	0.042987	0.781722
H127	H	-0.684133	-0.443444	0.271532
H128	H	-0.184133	0.056556	0.771532
H129	H	-0.658296	-0.458172	0.351734
H130	H	-0.158296	0.041828	0.851734
H131	H	-0.653251	-0.522262	0.295319
H132	H	-0.153251	-0.022262	0.795319
H133	H	-0.547434	-0.406130	0.288094
H134	H	-0.047434	0.093870	0.788094
H135	H	-0.542386	-0.470214	0.231662
H136	H	-0.042386	0.029786	0.731662
C137	C	-1.055140	-0.925018	0.492984
C138	C	-0.555140	-0.425018	0.992984
C139	C	-0.962498	-0.919398	0.498543
C140	C	-0.462498	-0.419398	0.998543
H141	H	-1.087113	-0.891558	0.526396
H142	H	-0.587113	-0.391558	1.026396
H143	H	-1.070518	-0.973733	0.504534
H144	H	-0.570518	-0.473733	1.004534
H145	H	-1.070620	-0.913560	0.444254
H146	H	-0.570620	-0.413560	0.944254
H147	H	-0.947017	-0.930861	0.547273
H148	H	-0.447017	-0.430861	1.047273
H149	H	-0.947113	-0.870672	0.486999
H150	H	-0.447113	-0.370672	0.986999
H151	H	-0.778132	-0.941423	0.476449
H152	H	-0.278132	-0.441423	0.976449
C153	C	-0.262805	-1.191402	0.836628
C154	C	0.237195	-0.691402	1.336628
C155	C	-0.313458	-1.147687	0.789032
C156	C	0.186542	-0.647687	1.289032
H157	H	-0.223657	-1.225188	0.808722
H158	H	0.276343	-0.725188	1.308722
H159	H	-0.302106	-1.217694	0.868448
H160	H	0.197894	-0.717694	1.368448
H161	H	-0.228290	-1.160969	0.864986
H162	H	0.271710	-0.660969	1.364986
H163	H	-0.347978	-1.178120	0.760678
H164	H	0.152022	-0.678120	1.260678
H165	H	-0.274152	-1.121394	0.757199
H166	H	0.225848	-0.621394	1.257199
H167	H	-0.329850	-1.133520	0.940180
H168	H	0.170150	-0.633520	1.440180
H169	H	-0.539171	-0.952815	0.949972
H170	H	-0.039171	-0.452815	1.449972
