data_functionalizedCrystal
_audit_creation_method	'MofGen! by Chris Wilmer'
_symmetry_space_group_name_H-M	'P1'
_symmetry_Int_Tables_number	1
_symmetry_cell_setting	triclinic
loop_
_symmetry_equiv_pos_as_xyz
  x,y,z
_cell_length_a	12.811457
_cell_length_b	9.065218
_cell_length_c	11.892277
_cell_angle_alpha	94.310675
_cell_angle_beta	80.240024
_cell_angle_gamma	95.472633
loop_
_atom_site_label
_atom_site_type_symbol
_atom_site_fract_x
_atom_site_fract_y
_atom_site_fract_z
O1	O	1.397728	-0.203141	-0.049290
O2	O	1.090319	-0.221917	-0.017775
O3	O	1.250377	0.002135	-0.034186
O4	O	1.237669	-0.427192	-0.032879
O5	O	1.262575	-0.014886	-0.223438
O6	O	1.102516	-0.238937	-0.207027
O7	O	1.409925	-0.220161	-0.238542
Zn8	Zn	1.258157	-0.232252	-0.252833
Zn9	Zn	1.242087	-0.209826	-0.003484
O10	O	1.249866	-0.444213	-0.222131
C11	C	1.057042	-0.228853	-0.108364
C12	C	0.939715	-0.224147	-0.096336
C13	C	0.732544	-0.233832	-0.280079
C14	C	0.622305	-0.229410	-0.268783
C15	C	0.608997	-0.210869	-0.062449
C16	C	0.719236	-0.215291	-0.073745
C17	C	0.781006	-0.226775	-0.182563
C18	C	0.891246	-0.231208	-0.193858
C19	C	0.877937	-0.212657	0.012475
C20	C	0.767698	-0.208234	0.023771
C21	C	1.255255	0.048607	-0.128685
C22	C	1.251602	0.212438	-0.128305
C23	C	1.443202	-0.213224	-0.147950
C24	C	1.560528	-0.217930	-0.159971
C25	C	1.244989	-0.490685	-0.127629
C26	C	1.248641	-0.654515	-0.128002
N27	N	1.269132	-0.247556	-0.423007
C28	C	1.154636	-0.087933	-0.647969
C29	C	1.162332	-0.098640	-0.767096
C30	C	1.292214	-0.279683	-0.780391
C31	C	1.284518	-0.268977	-0.661263
C32	C	1.215728	-0.173097	-0.595056
C33	C	1.208038	-0.162383	-0.475927
C34	C	1.337913	-0.343433	-0.489223
C35	C	1.345609	-0.354140	-0.608351
N36	N	1.231120	-0.194511	0.166689
H37	H	0.717391	-0.198877	0.112368
H38	H	1.112583	-0.029294	-0.810172
H39	H	0.558688	-0.201494	0.026146
H40	H	0.917404	-0.206919	0.091880
H41	H	1.152028	-0.084311	-0.422023
H42	H	1.098630	-0.009857	-0.594062
H43	H	1.348215	-0.357750	-0.834316
F44	F	1.418810	-0.456185	-0.678824
H45	H	1.387660	-0.412778	-0.446130
F46	F	0.956983	-0.243436	-0.309671
H47	H	0.582852	-0.235164	-0.348191
F48	F	0.798285	-0.246072	-0.395890
