data_functionalizedCrystal
_audit_creation_method	'MofGen! by Chris Wilmer'
_symmetry_space_group_name_H-M	'P1'
_symmetry_Int_Tables_number	1
_symmetry_cell_setting	triclinic
loop_
_symmetry_equiv_pos_as_xyz
  x,y,z
_cell_length_a	16.109301
_cell_length_b	12.837942
_cell_length_c	15.186229
_cell_angle_alpha	89.996774
_cell_angle_beta	89.999362
_cell_angle_gamma	89.145211
loop_
_atom_site_label
_atom_site_type_symbol
_atom_site_fract_x
_atom_site_fract_y
_atom_site_fract_z
O1	O	1.113716	0.133240	-0.073172
O2	O	1.613716	0.633240	0.426828
O3	O	0.872971	0.149822	-0.073186
O4	O	1.372971	0.649822	0.426814
O5	O	0.988005	-0.009370	-0.073174
O6	O	1.488005	0.490630	0.426826
O7	O	0.998681	0.292432	-0.073184
O8	O	1.498681	0.792432	0.426816
O9	O	0.987996	-0.009372	0.073283
O10	O	1.487996	0.490628	0.573283
O11	O	0.872962	0.149820	0.073271
O12	O	1.372962	0.649820	0.573271
O13	O	1.113707	0.133238	0.073285
O14	O	1.613707	0.633238	0.573285
Zn15	Zn	0.993333	0.141528	0.096532
Zn16	Zn	1.493333	0.641528	0.596532
Zn17	Zn	0.993345	0.141531	-0.096432
Zn18	Zn	1.493345	0.641531	0.403568
O19	O	0.998673	0.292430	0.073273
O20	O	1.498673	0.792430	0.573273
C21	C	0.841938	0.149149	0.000041
C22	C	1.341938	0.649149	0.500041
C23	C	0.749483	0.147135	0.000036
C24	C	1.249483	0.647135	0.500036
C25	C	0.534343	0.236914	0.000043
C26	C	1.034343	0.736914	0.500043
C27	C	0.447471	0.235014	0.000049
C28	C	0.947471	0.735014	0.500049
C29	C	0.452341	0.046138	0.000051
C30	C	0.952341	0.546138	0.500051
C31	C	0.539211	0.048040	0.000052
C32	C	1.039211	0.548040	0.500052
C33	C	0.580209	0.143431	0.000043
C34	C	1.080209	0.643431	0.500043
C35	C	0.406468	0.139629	0.000048
C36	C	0.906468	0.639629	0.500048
C37	C	0.312278	0.137568	0.000055
C38	C	0.812278	0.637568	0.500055
C39	C	0.674405	0.145492	0.000039
C40	C	1.174405	0.645492	0.500039
C41	C	0.984394	-0.047991	0.000054
C42	C	1.484394	0.452009	0.500054
C43	C	0.973637	-0.163064	0.000052
C44	C	1.473637	0.336936	0.500052
C45	C	1.102954	-0.404066	0.000041
C46	C	1.602954	0.095934	0.500041
C47	C	1.092851	-0.512188	0.000039
C48	C	1.592851	-0.012188	0.500039
C49	C	0.943328	-0.487433	0.000040
C50	C	1.443328	0.012567	0.500040
C51	C	0.953431	-0.379311	0.000042
C52	C	1.453431	0.120689	0.500042
C53	C	1.033247	-0.337632	0.000044
C54	C	1.533247	0.162368	0.500044
C55	C	1.043349	-0.229507	0.000052
C56	C	1.543349	0.270493	0.500052
C57	C	0.893827	-0.204754	0.000046
C58	C	1.393827	0.295246	0.500046
C59	C	0.883724	-0.312876	0.000044
C60	C	1.383724	0.187124	0.500044
C61	C	1.144739	0.133911	0.000056
C62	C	1.644739	0.633911	0.500056
C63	C	1.237195	0.135924	0.000056
C64	C	1.737195	0.635924	0.500056
C65	C	1.002284	0.331050	0.000043
C66	C	1.502284	0.831050	0.500043
C67	C	1.013041	0.446124	0.000040
C68	C	1.513041	0.946124	0.500040
N69	N	0.993331	0.141526	0.228224
N70	N	1.493331	0.641526	0.728224
N71	N	0.993352	0.141526	-0.228125
N72	N	1.493352	0.641526	0.271875
C73	C	1.044289	0.071059	0.453952
C74	C	1.544289	0.571059	0.953952
C75	C	1.044292	0.071057	0.546142
C76	C	1.544292	0.571057	1.046142
C77	C	0.942388	0.211996	0.546141
C78	C	1.442388	0.711996	1.046141
C79	C	0.942382	0.211992	0.453953
C80	C	1.442382	0.711992	0.953953
C81	C	0.993337	0.141525	0.407861
C82	C	1.493337	0.641525	0.907861
C83	C	0.993346	0.141526	0.592239
C84	C	1.493346	0.641526	1.092239
C85	C	0.993348	0.141524	0.692195
C86	C	1.493348	0.641524	1.192195
C87	C	0.993334	0.141526	0.307898
C88	C	1.493334	0.641526	0.807898
H89	H	0.418949	-0.031526	0.000064
H90	H	0.918949	0.468474	0.500064
H91	H	1.085781	0.013676	0.583667
H92	H	1.585781	0.513676	1.083667
H93	H	0.567721	0.314588	0.000043
H94	H	1.067721	0.814588	0.500043
C95	C	0.397022	0.337854	0.000053
C96	C	0.897022	0.837854	0.500053
N97	N	0.359024	0.415317	0.000058
N98	N	0.859024	0.915317	0.500058
C99	C	1.169535	-0.585264	0.000042
C100	C	1.669535	-0.085264	0.500042
N101	N	1.227296	-0.640304	0.000046
N102	N	1.727296	-0.140304	0.500046
C103	C	0.855538	-0.533301	0.000046
C104	C	1.355538	-0.033301	0.500046
N105	N	0.789414	-0.567849	0.000057
N106	N	1.289414	-0.067849	0.500057
H107	H	0.900887	0.269374	0.416422
H108	H	1.400887	0.769374	0.916422
C109	C	0.817145	-0.131666	0.000050
C110	C	1.317145	0.368334	0.500050
N111	N	0.759389	-0.076616	0.000055
N112	N	1.259389	0.423384	0.500055
H113	H	0.576557	-0.028091	0.000055
H114	H	1.076557	0.471909	0.500055
C115	C	1.131147	-0.183662	0.000052
C116	C	1.631147	0.316338	0.500052
N117	N	1.197279	-0.149134	0.000047
N118	N	1.697279	0.350866	0.500047
C119	C	0.795932	-0.358737	0.000052
C120	C	1.295932	0.141263	0.500052
N121	N	0.729805	-0.393278	0.000065
N122	N	1.229805	0.106722	0.500065
C123	C	1.190750	-0.358216	0.000048
C124	C	1.690750	0.141784	0.500048
N125	N	1.256880	-0.323684	0.000053
N126	N	1.756880	0.176316	0.500053
C127	C	1.100334	-0.006464	0.403255
C128	C	1.600334	0.493536	0.903255
N129	N	1.142546	-0.064861	0.365072
N130	N	1.642546	0.435139	0.865072
H131	H	0.900903	0.269370	0.583678
H132	H	1.400903	0.769370	1.083678
