data_functionalizedCrystal
_audit_creation_method	'MofGen! by Chris Wilmer'
_symmetry_space_group_name_H-M	'P1'
_symmetry_Int_Tables_number	1
_symmetry_cell_setting	triclinic
loop_
_symmetry_equiv_pos_as_xyz
  x,y,z
_cell_length_a	12.594517
_cell_length_b	25.639234
_cell_length_c	12.594516
_cell_angle_alpha	90.016977
_cell_angle_beta	89.988061
_cell_angle_gamma	89.988952
loop_
_atom_site_label
_atom_site_type_symbol
_atom_site_fract_x
_atom_site_fract_y
_atom_site_fract_z
Zn1	Zn	1.627262	-0.295516	0.423924
Zn2	Zn	2.127262	0.204484	0.923924
Zn3	Zn	1.627155	-0.208092	0.601905
Zn4	Zn	2.127155	0.291908	1.101905
Zn5	Zn	1.449268	-0.208108	0.423929
Zn6	Zn	1.949268	0.291892	0.923929
Zn7	Zn	1.449248	-0.295510	0.601848
Zn8	Zn	1.949248	0.204490	1.101848
O9	O	1.538233	-0.251806	0.512901
O10	O	2.038233	0.248194	1.012901
O11	O	1.776194	-0.283915	0.447556
O12	O	2.276194	0.216085	0.947556
O13	O	1.603520	-0.134929	0.578322
O14	O	2.103520	0.365071	1.078322
O15	O	1.472932	-0.219712	0.274982
O16	O	1.972932	0.280288	0.774982
O17	O	1.776115	-0.219685	0.578318
O18	O	2.276115	0.280315	1.078318
O19	O	1.603704	-0.283930	0.274979
O20	O	2.103704	0.216070	0.774979
O21	O	1.472828	-0.134940	0.447564
O22	O	1.972828	0.365060	0.947564
O23	O	1.300319	-0.219706	0.447508
O24	O	1.800319	0.280294	0.947508
O25	O	1.472899	-0.368676	0.578220
O26	O	1.972899	0.131324	1.078220
O27	O	1.300305	-0.283920	0.578224
O28	O	1.800305	0.216080	1.078224
O29	O	1.603686	-0.368680	0.447500
O30	O	2.103686	0.131320	0.947500
O31	O	1.603502	-0.219679	0.750844
O32	O	2.103502	0.280321	1.250844
O33	O	1.472795	-0.283905	0.750801
O34	O	1.972795	0.216095	1.250801
C35	C	1.261692	-0.251814	0.512861
C36	C	1.761692	0.248186	1.012861
C37	C	1.143387	-0.251830	0.512870
C38	C	1.643387	0.248170	1.012870
C39	C	1.074157	-0.286689	0.584105
C40	C	1.574157	0.213311	1.084105
C41	C	1.003348	-0.299546	0.487064
C42	C	1.503348	0.200454	0.987064
C43	C	1.003397	-0.238961	0.609992
C44	C	1.503397	0.261039	1.109992
C45	C	1.074136	-0.264713	0.415776
C46	C	1.574136	0.235287	0.915776
C47	C	1.074191	-0.204105	0.538769
C48	C	1.574191	0.295895	1.038769
C49	C	1.003414	-0.216945	0.441661
C50	C	1.503414	0.283055	0.941661
C51	C	1.538302	-0.388179	0.512853
C52	C	2.038302	0.111821	1.012853
C53	C	1.538332	-0.446294	0.512832
C54	C	2.038332	0.053706	1.012832
C55	C	1.470310	-0.806668	0.444619
C56	C	1.970310	-0.306668	0.944619
C57	C	1.470316	-0.861273	0.444600
C58	C	1.970316	-0.361273	0.944600
O59	O	1.412427	-0.889519	0.386720
O60	O	1.912427	-0.389519	0.886720
N61	N	1.538367	-0.888576	0.512665
N62	N	2.038367	-0.388576	1.012665
C63	C	1.606410	-0.861273	0.580762
C64	C	2.106410	-0.361273	1.080762
O65	O	1.664293	-0.889511	0.638656
O66	O	2.164293	-0.389511	1.138656
C67	C	1.606398	-0.806669	0.580786
C68	C	2.106398	-0.306669	1.080786
C69	C	1.538350	-0.779369	0.512708
C70	C	2.038350	-0.279369	1.012708
C71	C	1.402266	-0.779367	0.376548
C72	C	1.902266	-0.279367	0.876548
C73	C	1.402262	-0.724767	0.376566
C74	C	1.902262	-0.224767	0.876566
C75	C	1.470302	-0.697467	0.444656
C76	C	1.970302	-0.197467	0.944656
C77	C	1.538345	-0.724768	0.512727
C78	C	2.038345	-0.224768	1.012727
C79	C	1.674434	-0.779367	0.648887
C80	C	2.174434	-0.279367	1.148887
C81	C	1.674416	-0.724760	0.648905
C82	C	2.174416	-0.224760	1.148905
C83	C	1.606368	-0.697459	0.580828
C84	C	2.106368	-0.197459	1.080828
C85	C	1.606381	-0.642868	0.580834
C86	C	2.106381	-0.142868	1.080834
N87	N	1.538329	-0.615564	0.512769
N88	N	2.038329	-0.115564	1.012769
C89	C	1.470290	-0.642864	0.444679
C90	C	1.970290	-0.142864	0.944679
C91	C	1.606428	-0.975943	0.580708
C92	C	2.106428	-0.475943	1.080708
C93	C	1.606446	-1.030546	0.580679
C94	C	2.106446	-0.530546	1.080679
C95	C	1.470351	-1.030542	0.444519
C96	C	1.970351	-0.530542	0.944519
C97	C	1.470339	-0.975938	0.444543
C98	C	1.970339	-0.475938	0.944543
C99	C	1.538377	-0.948640	0.512643
C100	C	2.038377	-0.448640	1.012643
C101	C	1.470287	-0.528199	0.444722
C102	C	1.970287	-0.028199	0.944722
C103	C	1.470292	-0.473593	0.444743
C104	C	1.970292	0.026407	0.944743
C105	C	1.606384	-0.473602	0.580907
C106	C	2.106384	0.026398	1.080907
C107	C	1.606383	-0.528203	0.580883
C108	C	2.106383	-0.028203	1.080883
C109	C	1.538326	-0.555500	0.512787
C110	C	2.038326	-0.055500	1.012787
O111	O	1.664237	-0.614587	0.638687
O112	O	2.164237	-0.114587	1.138687
O113	O	1.412407	-0.614619	0.386805
O114	O	1.912407	-0.114619	0.886805
C115	C	1.815854	-0.251799	0.512943
C116	C	2.315854	0.248201	1.012943
C117	C	1.934159	-0.251795	0.512960
C118	C	2.434159	0.248205	1.012960
C119	C	1.538163	-0.251801	0.789442
C120	C	2.038163	0.248199	1.289442
C121	C	1.538231	-0.251817	0.907748
C122	C	2.038231	0.248183	1.407748
C123	C	1.538226	-0.115964	0.512873
C124	C	2.038226	0.384036	1.012873
C125	C	1.538402	-0.057850	0.512594
C126	C	2.038402	0.442150	1.012594
C127	C	1.538332	-0.251823	0.235281
C128	C	2.038332	0.248177	0.735281
C129	C	1.538374	-0.251830	0.116975
C130	C	2.038374	0.248170	0.616975
C131	C	1.467133	-0.286724	0.977017
C132	C	1.967133	0.213276	1.477017
C133	C	1.441200	-0.239018	1.047864
C134	C	1.941200	0.260982	1.547864
C135	C	1.564261	-0.299531	1.047699
C136	C	2.064261	0.200469	1.547699
C137	C	1.512247	-0.204085	0.977037
C138	C	2.012247	0.295915	1.477037
C139	C	1.635353	-0.264631	0.976866
C140	C	2.135353	0.235369	1.476866
C141	C	1.609457	-0.216891	1.047682
C142	C	2.109457	0.283109	1.547682
H143	H	1.105080	-0.275628	0.333655
H144	H	1.605080	0.224372	0.833655
H145	H	0.972318	-0.228092	0.692088
H146	H	1.472318	0.271908	1.192088
O147	O	1.672413	-1.057122	0.646847
O148	O	2.172413	-0.557122	1.146847
C149	C	1.611804	-1.088690	0.715597
C150	C	2.111804	-0.588690	1.215597
H151	H	1.531154	-1.096870	0.678052
H152	H	2.031154	-0.596870	1.178052
H153	H	1.655165	-1.127088	0.729851
H154	H	2.155165	-0.627088	1.229851
H155	H	1.600084	-1.067641	0.794481
H156	H	2.100084	-0.567641	1.294481
H157	H	1.661846	-0.953720	0.636157
H158	H	2.161846	-0.453720	1.136157
H159	H	1.729829	-0.702536	0.704355
H160	H	2.229829	-0.202536	1.204355
O161	O	1.343361	-0.226003	1.085127
O162	O	1.843361	0.273997	1.585127
C163	C	1.350813	-0.180227	1.146739
C164	C	1.850813	0.319773	1.646739
H165	H	1.424708	-0.157476	1.122528
H166	H	1.924708	0.342524	1.622528
H167	H	1.277357	-0.155113	1.133171
H168	H	1.777357	0.344887	1.633171
H169	H	1.356401	-0.191076	1.234337
H170	H	1.856401	0.308924	1.734337
H171	H	1.661805	-0.550432	0.636305
H172	H	2.161805	-0.050432	1.136305
O173	O	1.681140	-0.181572	1.084425
O174	O	2.181140	0.318428	1.584425
C175	C	1.653393	-0.131359	1.048204
C176	C	2.153393	0.368641	1.548204
H177	H	1.565073	-0.130330	1.028522
H178	H	2.065073	0.369670	1.528522
H179	H	1.671335	-0.101481	1.112803
H180	H	2.171335	0.398519	1.612803
H181	H	1.701331	-0.121661	0.974002
H182	H	2.201331	0.378339	1.474002
H183	H	1.717402	-0.275481	0.945659
H184	H	2.217402	0.224519	1.445659
H185	H	1.729846	-0.801586	0.704324
H186	H	2.229846	-0.301586	1.204324
O187	O	0.966631	-0.181818	0.369617
O188	O	1.466631	0.318182	0.869617
C189	C	1.002893	-0.195554	0.267445
C190	C	1.502893	0.304446	0.767445
H191	H	1.022643	-0.238938	0.265534
H192	H	1.522643	0.261062	0.765534
H193	H	0.938293	-0.186819	0.206602
H194	H	1.438293	0.313181	0.706602
H195	H	1.077064	-0.172015	0.247578
H196	H	1.577064	0.327985	0.747578
H197	H	1.105222	-0.316205	0.644231
H198	H	1.605222	0.183795	1.144231
O199	O	1.111300	-0.156003	0.565079
O200	O	1.611300	0.343997	1.065079
C201	C	1.073670	-0.142185	0.666710
C202	C	1.573670	0.357815	1.166710
H203	H	1.052646	-0.178999	0.712884
H204	H	1.552646	0.321001	1.212884
H205	H	1.137934	-0.119713	0.711087
H206	H	1.637934	0.380287	1.211087
H207	H	1.000004	-0.116670	0.658340
H208	H	1.500004	0.383330	1.158340
H209	H	1.414928	-0.953714	0.389107
H210	H	1.914928	-0.453714	0.889107
H211	H	1.414879	-0.451367	0.389302
H212	H	1.914879	0.048633	0.889302
H213	H	0.972231	-0.339891	0.465189
H214	H	1.472231	0.160109	0.965189
H215	H	1.414870	-0.550417	0.389271
H216	H	1.914870	-0.050417	0.889271
H217	H	1.346846	-0.702543	0.321135
H218	H	1.846846	-0.202543	0.821135
H219	H	1.490194	-0.163727	0.946127
H220	H	1.990194	0.336273	1.446127
H221	H	1.346855	-0.801589	0.321101
H222	H	1.846855	-0.301589	0.821101
H223	H	1.586219	-0.339878	1.078738
H224	H	2.086219	0.160122	1.578738
O225	O	1.395348	-0.321956	0.940119
O226	O	1.895348	0.178044	1.440119
C227	C	1.421887	-0.372095	0.977646
C228	C	1.921887	0.127905	1.477646
H229	H	1.471993	-0.368394	1.052641
H230	H	1.971993	0.131606	1.552641
H231	H	1.346154	-0.394621	0.996446
H232	H	1.846154	0.105379	1.496446
H233	H	1.468974	-0.393813	0.914199
H234	H	1.968974	0.106187	1.414199
O235	O	1.404127	-1.057087	0.378537
O236	O	1.904127	-0.557087	0.878537
C237	C	1.335391	-1.088671	0.439131
C238	C	1.835391	-0.588671	0.939131
H239	H	1.328799	-1.072206	0.522964
H240	H	1.828799	-0.572206	1.022964
H241	H	1.253486	-1.089289	0.400637
H242	H	1.753486	-0.589289	0.900637
H243	H	1.368305	-1.130056	0.442790
H244	H	1.868305	-0.630056	0.942790
H245	H	1.661783	-0.451365	0.636341
H246	H	2.161783	0.048635	1.136341
