data_functionalizedCrystal
_audit_creation_method	'MofGen! by Chris Wilmer'
_symmetry_space_group_name_H-M	'P1'
_symmetry_Int_Tables_number	1
_symmetry_cell_setting	triclinic
loop_
_symmetry_equiv_pos_as_xyz
  x,y,z
_cell_length_a	12.759401
_cell_length_b	16.120484
_cell_length_c	12.759393
_cell_angle_alpha	87.135992
_cell_angle_beta	90.020938
_cell_angle_gamma	92.926992
loop_
_atom_site_label
_atom_site_type_symbol
_atom_site_fract_x
_atom_site_fract_y
_atom_site_fract_z
Zn1	Zn	1.584985	-0.331832	0.615183
Zn2	Zn	1.575933	-0.471268	0.448395
Zn3	Zn	1.409280	-0.331877	0.439521
Zn4	Zn	1.400336	-0.471209	0.624029
O5	O	1.492634	-0.401546	0.531782
O6	O	1.730804	-0.350334	0.593070
O7	O	1.553781	-0.452820	0.300200
O8	O	1.440119	-0.215205	0.455406
O9	O	1.724154	-0.452777	0.470532
O10	O	1.569208	-0.215173	0.584465
O11	O	1.431342	-0.350410	0.293680
O12	O	1.261073	-0.350354	0.463984
O13	O	1.424875	-0.452678	0.769874
O14	O	1.254502	-0.452721	0.599541
O15	O	1.560535	-0.350278	0.763375
O16	O	1.545108	-0.587925	0.479110
O17	O	1.416098	-0.587883	0.608147
C18	C	1.219667	-0.401536	0.531760
C19	C	1.102889	-0.401552	0.531777
C20	C	1.044628	-0.454936	0.602261
C21	C	0.934904	-0.454939	0.602282
C22	C	0.941712	-0.348172	0.461326
C23	C	1.051434	-0.348166	0.461311
C24	C	0.783089	-0.484854	0.728051
C25	C	0.724823	-0.538250	0.798527
C26	C	0.755203	-0.619612	0.819663
C27	C	0.843846	-0.647593	0.770310
C28	C	0.902106	-0.594200	0.699827
C29	C	0.871728	-0.512828	0.678709
C30	C	1.203250	-0.318259	0.335542
C31	C	1.261512	-0.264871	0.265053
C32	C	1.231134	-0.183508	0.243905
C33	C	1.142488	-0.155530	0.293240
C34	C	1.084226	-0.208919	0.363729
C35	C	1.114611	-0.290280	0.384878
C36	C	1.478679	-0.618154	0.545574
C37	C	1.472805	-0.710820	0.551509
C38	C	1.462088	-0.880481	0.562368
C39	C	1.523367	-0.921772	0.501213
C40	C	1.517404	-1.016177	0.507255
C41	C	1.468050	-0.786067	0.556327
C42	C	1.766666	-0.401557	0.531804
C43	C	1.883442	-0.401562	0.531814
C44	C	1.492717	-0.401466	0.805810
C45	C	1.492753	-0.401432	0.922585
C46	C	1.506671	-0.184093	0.517959
C47	C	1.512653	-0.091427	0.512068
C48	C	1.492614	-0.401566	0.258816
C49	C	1.492797	-0.401365	0.142027
C50	C	1.563397	-0.348104	0.974064
C51	C	1.563417	-0.348068	1.083786
C52	C	1.422146	-0.454696	1.090540
C53	C	1.422122	-0.454727	0.980820
C54	C	1.607337	-0.249705	1.227491
C55	C	1.677997	-0.196384	1.278974
C56	C	1.781330	-0.183600	1.242567
C57	C	1.814023	-0.224149	1.154680
C58	C	1.743368	-0.277476	1.103203
C59	C	1.640022	-0.290244	1.139607
C60	C	1.378212	-0.553091	0.837113
C61	C	1.307561	-0.606423	0.785634
C62	C	1.204226	-0.619216	0.822039
C63	C	1.171536	-0.578681	0.909931
C64	C	1.242187	-0.525350	0.961410
C65	C	1.345521	-0.512556	0.924997
H66	H	0.974276	-0.616982	0.659644
H67	H	1.769988	-0.310493	1.031650
O68	O	1.112996	-0.076510	0.272514
C69	C	1.091378	-0.064827	0.164561
H70	H	1.134529	-0.111785	0.119085
H71	H	1.003328	-0.074152	0.151044
C72	C	1.075412	0.081640	0.182184
C73	C	1.128419	0.023970	0.126328
H74	H	1.098256	0.136415	0.158599
H75	H	1.089973	0.073769	0.254914
H76	H	1.002041	0.073859	0.170914
H77	H	1.201787	0.031745	0.137609
H78	H	1.113872	0.031844	0.053598
H79	H	1.227999	-0.384509	0.352764
O80	O	0.998172	-0.181597	0.411606
C81	C	0.983831	-0.098341	0.377808
H82	H	1.061719	-0.068098	0.348295
H83	H	0.923802	-0.096661	0.311633
C84	C	0.848382	-0.087663	0.506398
C85	C	0.944046	-0.050516	0.470157
H86	H	0.823836	-0.058162	0.563361
H87	H	0.858040	-0.143754	0.529166
H88	H	0.798369	-0.086261	0.451243
H89	H	0.994061	-0.051928	0.525307
H90	H	0.934396	0.005577	0.447400
O91	O	1.394014	-0.922792	0.630176
C92	C	1.290620	-0.901698	0.605773
H93	H	1.292379	-0.838473	0.561422
H94	H	1.252233	-0.950744	0.554796
C95	C	1.224996	-0.975463	0.762362
C96	C	1.227156	-0.897806	0.707897
H97	H	1.185846	-0.973066	0.825355
H98	H	1.294654	-0.989677	0.778802
H99	H	1.193009	-1.016326	0.719870
H100	H	1.259154	-0.856947	0.750384
H101	H	1.157502	-0.883585	0.691467
O102	O	1.339157	-0.645757	0.700159
C103	C	1.277532	-0.622344	0.612903
H104	H	1.199614	-0.599936	0.641235
H105	H	1.320921	-0.570066	0.564434
C106	C	1.352558	-0.725179	0.509995
C107	C	1.256854	-0.697664	0.544793
H108	H	1.339806	-0.771638	0.467977
H109	H	1.394080	-0.740951	0.568779
H110	H	1.388706	-0.681608	0.469609
H111	H	1.220714	-0.741231	0.585188
H112	H	1.215325	-0.681901	0.486013
H113	H	1.580308	-0.886221	0.444319
H114	H	1.620907	-0.304706	0.926651
H115	H	1.898170	-0.213741	1.125050
H116	H	1.838862	-0.140184	1.284492
O117	O	1.353644	-0.506440	1.147273
C118	C	1.368795	-0.494966	1.255154
H119	H	1.451642	-0.467663	1.268418
H120	H	1.309353	-0.450556	1.283459
C121	C	1.251977	-0.612837	1.300553
C122	C	1.353734	-0.579310	1.316845
H123	H	1.242682	-0.664863	1.338608
H124	H	1.241765	-0.620567	1.227872
H125	H	1.202453	-0.575821	1.324140
H126	H	1.403255	-0.616321	1.293245
H127	H	1.363954	-0.571588	1.389524
H128	H	1.086519	-0.498404	0.659642
O129	O	1.210249	-0.486008	1.046745
C130	C	1.103900	-0.508751	1.067862
H131	H	1.064393	-0.530701	0.993297
H132	H	1.098487	-0.561172	1.131295
C133	C	1.096932	-0.406170	1.197549
C134	C	1.048406	-0.433123	1.105964
H135	H	1.062701	-0.359521	1.221058
H136	H	1.168583	-0.390850	1.183326
H137	H	1.092418	-0.449861	1.250399
H138	H	1.052933	-0.389435	1.053113
H139	H	0.976755	-0.448434	1.120180
H140	H	1.651369	-0.163370	1.350532
H141	H	1.523194	-0.260103	1.257136
H142	H	1.087394	-0.589101	0.939576
O143	O	1.135607	-0.671130	0.772182
C144	C	1.099513	-0.736392	0.842848
H145	H	1.158788	-0.744395	0.908993
H146	H	1.020681	-0.721019	0.877008
C147	C	1.013700	-0.807808	0.703302
C148	C	1.086508	-0.817642	0.784538
H149	H	1.005673	-0.857926	0.667335
H150	H	1.038014	-0.763839	0.655693
H151	H	0.948015	-0.794995	0.731782
H152	H	1.152194	-0.830445	0.756057
H153	H	1.062205	-0.861615	0.832141
H154	H	1.462354	-0.542673	0.807458
H155	H	0.868566	-0.713849	0.787517
O156	O	1.287870	-0.131743	0.175432
C157	C	1.372603	-0.173889	0.136385
H158	H	1.391649	-0.227403	0.193886
H159	H	1.350484	-0.199442	0.057199
C160	C	1.445921	-0.047392	0.052404
C161	C	1.469319	-0.113115	0.123032
H162	H	1.505580	-0.009905	0.044162
H163	H	1.388833	-0.018998	0.078706
H164	H	1.427487	-0.068697	-0.013577
H165	H	1.487740	-0.091811	0.189014
H166	H	1.526413	-0.141504	0.096740
H167	H	0.652651	-0.515460	0.838710
O168	O	0.698680	-0.671403	0.888274
C169	C	0.698290	-0.636785	0.987580
H170	H	0.769078	-0.591286	0.994262
H171	H	0.623160	-0.602555	0.997288
C172	C	0.616784	-0.762552	1.065708
C173	C	0.703733	-0.706675	1.073919
H174	H	0.620137	-0.805662	1.118967
H175	H	0.617043	-0.785874	0.998803
H176	H	0.554185	-0.734017	1.073796
H177	H	0.766329	-0.735207	1.065818
H178	H	0.703485	-0.683359	1.140825
O179	O	0.753734	-0.405760	0.707632
C180	C	0.835623	-0.349152	0.735719
H181	H	0.887993	-0.380574	0.796505
H182	H	0.884074	-0.328452	0.663135
C183	C	0.724560	-0.234241	0.707676
C184	C	0.788877	-0.272832	0.782342
H185	H	0.695726	-0.187161	0.736432
H186	H	0.669391	-0.272378	0.688750
H187	H	0.764946	-0.216998	0.647196
H188	H	0.748488	-0.290083	0.842815
H189	H	0.844038	-0.234696	0.801280
H190	H	1.333692	-0.287658	0.224881
H191	H	0.899804	-0.304708	0.403953
