data_functionalizedCrystal
_audit_creation_method	'MofGen! by Chris Wilmer'
_symmetry_space_group_name_H-M	'P1'
_symmetry_Int_Tables_number	1
_symmetry_cell_setting	triclinic
loop_
_symmetry_equiv_pos_as_xyz
  x,y,z
_cell_length_a	17.699083
_cell_length_b	15.072220
_cell_length_c	15.995350
_cell_angle_alpha	90.007147
_cell_angle_beta	83.387695
_cell_angle_gamma	89.997934
loop_
_atom_site_label
_atom_site_type_symbol
_atom_site_fract_x
_atom_site_fract_y
_atom_site_fract_z
O1	O	1.004251	0.073654	0.105889
O2	O	0.783895	0.073682	0.119665
O3	O	0.900096	0.073666	-0.009123
O4	O	0.888049	0.073670	0.234677
O5	O	0.900089	-0.073899	-0.009138
O6	O	0.783888	-0.073883	0.119649
O7	O	1.004243	-0.073911	0.105873
Zn8	Zn	0.894064	-0.097326	0.112759
Zn9	Zn	0.894074	0.097097	0.112779
O10	O	0.888042	-0.073896	0.234661
C11	C	0.755694	-0.000097	0.119163
C12	C	0.671673	-0.000086	0.117683
N13	N	0.894063	-0.230015	0.112744
C14	C	0.623178	-0.000085	0.193278
C15	C	0.544232	-0.000096	0.191882
C16	C	0.513783	-0.000102	0.114889
C17	C	0.562285	-0.000106	0.039287
C18	C	0.641229	-0.000100	0.040685
C19	C	0.243912	-0.000128	0.033651
C20	C	0.164962	-0.000130	0.032259
C21	C	0.146916	-0.000124	0.184848
C22	C	0.225860	-0.000118	0.186245
C23	C	0.274354	-0.000126	0.110644
C24	C	0.359956	-0.000116	0.112159
C25	C	0.428183	-0.000107	0.113373
C26	C	0.894075	-0.589217	0.112773
C27	C	0.956453	-0.551590	0.044090
C28	C	0.956291	-0.448765	0.043838
C29	C	0.894069	-0.411013	0.112759
C30	C	0.815105	-0.448345	0.093839
C31	C	0.815474	-0.551203	0.093354
C32	C	0.909949	-0.551295	0.200579
C33	C	0.911741	-0.448431	0.199987
C34	C	0.894061	-0.310299	0.112752
C35	C	0.894078	-0.689930	0.112777
C36	C	1.032445	-0.000131	0.106375
C37	C	1.116465	-0.000136	0.107856
C38	C	0.899595	-0.000114	-0.040324
C39	C	0.898101	-0.000109	-0.133272
N40	N	0.894081	0.229786	0.112787
C41	C	0.892739	-0.000111	-0.471008
C42	C	0.809983	0.000230	-0.423406
C43	C	0.811476	-0.000103	-0.326719
C44	C	0.895399	-0.000110	-0.303453
C45	C	0.936213	-0.084380	-0.344623
C46	C	0.934134	-0.084451	-0.441254
C47	C	0.935852	0.083358	-0.441598
C48	C	0.935833	0.084472	-0.344653
C49	C	0.896907	-0.000112	-0.208759
C50	C	0.891234	-0.000115	-0.565703
C51	C	0.888544	-0.000113	0.265863
C52	C	0.890037	-0.000112	0.358810
H53	H	0.647962	-0.000079	0.255975
H54	H	0.946148	-0.424167	-0.021328
C55	C	0.768125	0.081494	-0.288220
H56	H	0.749438	0.115143	-0.331667
H57	H	0.801476	0.117146	-0.259993
H58	H	0.726700	0.062527	-0.249259
H59	H	0.767662	-0.576093	0.141485
H60	H	0.250646	-0.000110	0.248941
C61	C	0.093570	-0.000127	0.268009
H62	H	0.042192	-0.000141	0.256154
H63	H	0.102794	0.051335	0.299591
H64	H	0.102807	-0.051590	0.299580
C65	C	0.490890	-0.000093	0.275037
H66	H	0.520331	-0.000077	0.321091
H67	H	0.459724	-0.051555	0.277664
H68	H	0.459714	0.051370	0.277666
H69	H	0.905992	0.146813	-0.317337
H70	H	0.283388	-0.000135	-0.027909
C71	C	1.018511	0.091340	-0.324075
H72	H	1.029503	0.042492	-0.289941
H73	H	1.024924	0.145122	-0.294738
H74	H	1.052118	0.090621	-0.374860
C75	C	1.018275	0.084126	-0.484677
H76	H	1.026405	0.033855	-0.520418
H77	H	1.052469	0.082274	-0.443085
H78	H	1.026793	0.136716	-0.517125
H79	H	0.767568	-0.423892	0.142538
H80	H	0.537487	-0.000123	-0.023402
H81	H	0.680714	-0.000101	-0.020873
C82	C	1.035587	-0.414661	0.059014
H83	H	1.068191	-0.463670	0.065387
H84	H	1.031430	-0.379517	0.108634
H85	H	1.056069	-0.379770	0.012368
H86	H	0.140174	-0.000136	-0.030442
C87	C	0.795739	-0.413566	0.008323
H88	H	0.835668	-0.376305	-0.015960
H89	H	0.749669	-0.380711	0.016307
H90	H	0.789949	-0.462233	-0.028147
H91	H	0.779171	-0.060606	-0.298795
C92	C	1.036018	-0.585004	0.059025
H93	H	1.031910	-0.622206	0.107277
H94	H	1.067722	-0.535789	0.067710
H95	H	1.057504	-0.617653	0.011302
H96	H	0.997869	-0.087520	-0.330623
H97	H	0.801483	-0.575202	0.029322
H98	H	0.946459	-0.577448	-0.020705
C99	C	0.765294	0.081859	-0.448348
H100	H	0.796702	0.116463	-0.488020
H101	H	0.750075	0.116563	-0.399738
H102	H	0.721537	0.062908	-0.472696
C103	C	0.986072	-0.586335	0.225201
H104	H	1.008887	-0.624422	0.182153
H105	H	0.977229	-0.618365	0.276538
H106	H	1.019072	-0.537830	0.232079
H107	H	0.969831	-0.424031	0.214347
H108	H	0.869252	-0.422730	0.253478
C109	C	0.893911	-0.169533	-0.465908
H110	H	0.878990	-0.203727	-0.416889
H111	H	0.927722	-0.203229	-0.503951
H112	H	0.850192	-0.154130	-0.492080
C113	C	0.848503	-0.584169	0.269626
H114	H	0.813341	-0.620828	0.245108
H115	H	0.822476	-0.534711	0.296115
H116	H	0.871785	-0.617271	0.310241
H117	H	0.777050	-0.059857	-0.442939
C118	C	1.016206	-0.089647	-0.484994
H119	H	1.015493	-0.089722	-0.544293
H120	H	1.039519	-0.142596	-0.468448
H121	H	1.044237	-0.039818	-0.469233
H122	H	0.907859	-0.147087	-0.316190
H123	H	0.908799	0.147230	-0.462076
