data_functionalizedCrystal
_audit_creation_method	'MofGen! by Chris Wilmer'
_symmetry_space_group_name_H-M	'P1'
_symmetry_Int_Tables_number	1
_symmetry_cell_setting	triclinic
loop_
_symmetry_equiv_pos_as_xyz
  x,y,z
_cell_length_a	16.974848
_cell_length_b	19.288865
_cell_length_c	15.455283
_cell_angle_alpha	86.972425
_cell_angle_beta	96.642807
_cell_angle_gamma	96.731495
loop_
_atom_site_label
_atom_site_type_symbol
_atom_site_fract_x
_atom_site_fract_y
_atom_site_fract_z
O1	O	-1.055038	0.094103	-0.146214
O2	O	-0.555038	0.594103	0.353786
O3	O	-0.824103	0.104755	-0.130004
O4	O	-0.324103	0.604755	0.369996
O5	O	-0.946243	-0.001672	-0.138560
O6	O	-0.446243	0.498328	0.361440
O7	O	-0.932898	0.200530	-0.137658
O8	O	-0.432898	0.700530	0.362342
O9	O	-0.940086	-0.007145	0.006136
O10	O	-0.440086	0.492855	0.506136
O11	O	-0.817947	0.099283	0.014693
O12	O	-0.317947	0.599283	0.514693
O13	O	-1.048881	0.088630	-0.001518
O14	O	-0.548881	0.588630	0.498482
Cu15	Cu	-0.932852	0.093457	0.019799
Cu16	Cu	-0.432852	0.593457	0.519799
Cu17	Cu	-0.940133	0.099929	-0.151321
Cu18	Cu	-0.440133	0.599929	0.348679
O19	O	-0.926742	0.195057	0.007039
O20	O	-0.426742	0.695057	0.507039
C21	C	-0.791480	0.101510	-0.055581
C22	C	-0.291480	0.601510	0.444419
C23	C	-0.703446	0.099986	-0.049401
C24	C	-0.203446	0.599986	0.450599
C25	C	-0.207542	0.091111	-0.006146
C26	C	0.292458	0.591111	0.493854
C27	C	-0.290260	0.092543	-0.011954
C28	C	0.209740	0.592543	0.488046
C29	C	-0.334976	0.096237	-0.093734
C30	C	0.165024	0.596237	0.406266
C31	C	-0.296969	0.098506	-0.169710
C32	C	0.203031	0.598506	0.330290
C33	C	-0.214252	0.097079	-0.163900
C34	C	0.285748	0.597079	0.336100
C35	C	-0.582722	0.100829	-0.119567
C36	C	-0.082722	0.600829	0.380433
C37	C	-0.665445	0.102253	-0.125371
C38	C	-0.165445	0.602253	0.374629
C39	C	-0.658730	0.096291	0.032385
C40	C	-0.158730	0.596291	0.532385
C41	C	-0.576013	0.094860	0.038187
C42	C	-0.076013	0.594860	0.538187
C43	C	-0.538012	0.097133	-0.037788
C44	C	-0.038012	0.597133	0.462212
N45	N	-0.419527	0.097698	-0.099674
N46	N	0.080473	0.597698	0.400326
N47	N	-0.453462	0.095677	-0.031848
N48	N	0.046538	0.595677	0.468152
C49	C	-0.942735	-0.030287	-0.066179
C50	C	-0.442735	0.469713	0.433821
C51	C	-0.941445	-0.107397	-0.066081
C52	C	-0.441445	0.392603	0.433919
C53	C	-1.013111	-0.151772	-0.071107
C54	C	-0.513111	0.348228	0.428893
C55	C	-1.011901	-0.224224	-0.071036
C56	C	-0.511901	0.275776	0.428964
C57	C	-0.939020	-0.252298	-0.065921
C58	C	-0.439020	0.247702	0.434079
C59	C	-0.867344	-0.207913	-0.060899
C60	C	-0.367344	0.292087	0.439101
C61	C	-0.868557	-0.135462	-0.060979
C62	C	-0.368557	0.364538	0.439021
C63	C	-0.879570	-0.362759	-0.011215
C64	C	-0.379570	0.137241	0.488785
C65	C	-0.878360	-0.435209	-0.011130
C66	C	-0.378360	0.064791	0.488870
C67	C	-0.935276	-0.475760	-0.065677
C68	C	-0.435276	0.024240	0.434323
C69	C	-0.993415	-0.443853	-0.120300
C70	C	-0.493415	0.056147	0.379700
C71	C	-0.994628	-0.371402	-0.120380
C72	C	-0.494628	0.128598	0.379620
C73	C	-0.937696	-0.330858	-0.065834
C74	C	-0.437696	0.169142	0.434166
C75	C	-1.005634	-0.598696	-0.070628
C76	C	-0.505634	-0.098696	0.429372
C77	C	-1.004421	-0.671149	-0.070562
C78	C	-0.504421	-0.171149	0.429438
C79	C	-0.859862	-0.654837	-0.060416
C80	C	-0.359862	-0.154837	0.439584
C81	C	-0.861078	-0.582385	-0.060491
C82	C	-0.361078	-0.082385	0.439509
C83	C	-0.933966	-0.554320	-0.065593
C84	C	-0.433966	-0.054320	0.434407
C85	C	-0.081505	0.091870	-0.075939
C86	C	0.418495	0.591870	0.424061
C87	C	-0.169541	0.093378	-0.082116
C88	C	0.330459	0.593378	0.417884
C89	C	-0.930250	0.223672	-0.065344
C90	C	-0.430250	0.723672	0.434656
C91	C	-0.931539	0.300782	-0.065448
C92	C	-0.431539	0.800782	0.434552
N93	N	-0.945254	0.104476	-0.271677
N94	N	-0.445254	0.604476	0.228323
C95	C	-0.899351	0.063863	-0.313835
C96	C	-0.399351	0.563863	0.186165
C97	C	-0.903237	0.067283	-0.404917
C98	C	-0.403237	0.567283	0.095083
C99	C	-0.953021	0.111319	-0.453839
C100	C	-0.453021	0.611319	0.046161
C101	C	-0.998929	0.151933	-0.411675
C102	C	-0.498929	0.651933	0.088325
C103	C	-0.995047	0.148509	-0.320595
C104	C	-0.495047	0.648509	0.179405
C105	C	-0.969763	0.126094	-0.726601
C106	C	-0.469763	0.626094	-0.226601
C107	C	-0.973639	0.129516	-0.817687
C108	C	-0.473639	0.629516	-0.317687
C109	C	-0.877948	0.044865	-0.810922
C110	C	-0.377948	0.544865	-0.310922
C111	C	-0.874067	0.041448	-0.719841
C112	C	-0.374067	0.541448	-0.219841
C113	C	-0.919978	0.082059	-0.677685
C114	C	-0.419978	0.582059	-0.177685
N115	N	-0.956991	0.114817	-0.546939
N116	N	-0.456991	0.614817	-0.046939
N117	N	-0.916012	0.078557	-0.584587
N118	N	-0.416012	0.578557	-0.084587
N119	N	-0.927736	0.088904	0.140155
N120	N	-0.427736	0.588904	0.640155
H121	H	-0.539612	0.091837	0.104781
H122	H	-0.039612	0.591837	0.604781
H123	H	-1.039762	-0.476868	-0.164718
H124	H	-0.539762	0.023132	0.335282
H125	H	-1.032427	0.181580	-0.286272
H126	H	-0.532427	0.681580	0.213728
H127	H	-0.802719	-0.546254	-0.056393
H128	H	-0.302719	-0.046254	0.443607
F129	F	-0.818989	-0.319609	0.046847
F130	F	-0.318989	0.180391	0.546847
H131	H	-1.070262	-0.260360	-0.075133
H132	H	-0.570262	0.239640	0.424867
F133	F	-1.018622	0.169320	-0.681747
F134	F	-0.518622	0.669320	-0.181747
F135	F	-0.789779	-0.237793	-0.055460
F136	F	-0.289779	0.262207	0.444540
H137	H	-0.171140	0.088106	0.060448
H138	H	0.328860	0.588106	0.560448
F139	F	-0.821077	-0.005418	-0.667781
F140	F	-0.321077	0.494582	-0.167781
H141	H	-1.072463	-0.128925	-0.075265
H142	H	-0.572463	0.371075	0.424735
H143	H	-0.333383	0.101518	-0.236297
H144	H	0.166617	0.601518	0.263703
F145	F	-1.051917	0.198796	-0.463744
F146	F	-0.551917	0.698796	0.036256
H147	H	-0.831016	-0.461181	0.033342
H148	H	-0.331016	0.038819	0.533342
F149	F	-0.713034	0.106185	-0.212416
F150	F	-0.213034	0.606185	0.287584
F151	F	-0.542291	0.103245	-0.200428
F152	F	-0.042291	0.603245	0.299572
H153	H	-0.183313	0.098927	-0.225763
H154	H	0.316687	0.598927	0.274237
F155	F	-0.792277	-0.088233	-0.055629
F156	F	-0.292277	0.411767	0.444371
H157	H	-0.800521	-0.677694	-0.056255
H158	H	-0.300521	-0.177694	0.443745
F159	F	-0.829091	0.001645	-0.855794
F160	F	-0.329091	0.501645	-0.355794
H161	H	-1.014178	0.165381	-0.857517
H162	H	-0.514178	0.665381	-0.357517
F163	F	-1.056499	-0.337447	-0.178515
F164	F	-0.556499	0.162553	0.321485
F165	F	-0.699178	0.093876	0.113238
F166	F	-0.199178	0.593876	0.613238
H167	H	-1.064984	-0.575843	-0.074787
H168	H	-0.564984	-0.075843	0.425213
H169	H	-0.858808	0.028008	-0.274009
H170	H	-0.358808	0.528008	0.225991
H171	H	-0.321197	0.090695	0.049909
H172	H	0.178803	0.590695	0.549909
H173	H	-1.062783	-0.707279	-0.074660
H174	H	-0.562783	-0.207279	0.425340
H175	H	-0.865860	0.034210	-0.439238
H176	H	-0.365860	0.534210	0.060762
