data_functionalizedCrystal
_audit_creation_method	'MofGen! by Chris Wilmer'
_symmetry_space_group_name_H-M	'P1'
_symmetry_Int_Tables_number	1
_symmetry_cell_setting	triclinic
loop_
_symmetry_equiv_pos_as_xyz
  x,y,z
_cell_length_a	10.654541
_cell_length_b	10.654553
_cell_length_c	15.072220
_cell_angle_alpha	90.006731
_cell_angle_beta	89.994409
_cell_angle_gamma	84.486213
loop_
_atom_site_label
_atom_site_type_symbol
_atom_site_fract_x
_atom_site_fract_y
_atom_site_fract_z
O1	O	1.667853	0.176369	-0.073770
O2	O	1.302375	0.193178	-0.073772
O3	O	1.493511	0.002035	-0.073773
O4	O	1.476717	0.367512	-0.073770
O5	O	1.493487	0.002059	0.073792
O6	O	1.302350	0.193202	0.073793
O7	O	1.667829	0.176393	0.073795
Zn8	Zn	1.485086	0.184801	0.097223
Zn9	Zn	1.485118	0.184769	-0.097200
O10	O	1.476692	0.367536	0.073796
C11	C	1.255564	0.191956	0.000010
C12	C	1.116121	0.188266	0.000009
C13	C	1.714639	0.177614	0.000011
C14	C	1.854083	0.181305	0.000006
C15	C	1.477940	0.414322	0.000013
C16	C	1.481636	0.553765	0.000015
C17	C	1.492264	-0.044751	0.000007
C18	C	1.488567	-0.184194	0.000000
C19	C	1.882047	-0.047259	-0.000006
C20	C	1.961537	-0.159801	-0.000018
C21	C	2.092555	-0.156326	-0.000021
C22	C	2.144084	-0.040295	-0.000010
C23	C	2.064593	0.072248	0.000001
C24	C	1.933574	0.068760	0.000001
C25	C	2.036630	0.300808	0.000020
C26	C	1.905612	0.297336	0.000017
C27	C	2.088159	0.416839	0.000030
C28	C	2.008668	0.529385	0.000035
C29	C	1.877642	0.525904	0.000038
C30	C	1.826121	0.409878	0.000028
C31	C	1.481625	0.553811	0.160895
C32	C	1.483360	0.619343	0.241332
C33	C	1.486832	0.750362	0.241328
C34	C	1.488565	0.815852	0.160879
C35	C	1.486830	0.750320	0.080441
C36	C	1.483362	0.619298	0.080454
C37	C	1.486832	0.750274	-0.080437
C38	C	1.483369	0.619255	-0.080435
C39	C	1.488566	0.815764	-0.160886
C40	C	1.486840	0.750231	-0.241326
C41	C	1.483369	0.619204	-0.241319
C42	C	1.481635	0.553722	-0.160872
N43	N	1.485073	0.184822	0.229912
N44	N	1.485141	0.184739	-0.229889
C45	C	1.485096	0.184793	0.410909
C46	C	1.382805	0.287033	0.448578
C47	C	1.382450	0.286748	0.551404
C48	C	1.485118	0.184767	0.589113
C49	C	1.455884	0.053321	0.551770
C50	C	1.455136	0.053934	0.448912
C51	C	1.616926	0.212820	0.448799
C52	C	1.616083	0.215774	0.551664
C53	C	1.485133	0.184744	0.689827
C54	C	1.485078	0.184808	0.310196
H55	H	1.775366	-0.050100	-0.000014
O56	O	1.645469	0.343867	0.583991
H57	H	1.734283	0.333841	0.622929
O58	O	1.477935	0.412404	-0.160859
H59	H	1.477042	0.377830	-0.230305
O60	O	2.064240	0.654522	0.000047
H61	H	2.168699	0.638031	0.000044
O62	O	1.721719	0.123687	0.585657
H63	H	1.812736	0.148277	0.557969
H64	H	1.481946	0.566008	0.306832
H65	H	1.812927	0.617551	0.000053
O66	O	2.229471	0.420596	0.000031
H67	H	2.257967	0.470840	0.060185
O68	O	1.488705	0.821045	0.328086
H69	H	1.491404	0.923152	0.314562
O70	O	1.405647	0.416095	0.584863
H71	H	1.417213	0.479418	0.527577
O72	O	1.492386	0.957155	0.160911
H73	H	1.578778	0.981193	0.126188
O74	O	1.492347	0.957072	-0.160926
H75	H	1.407833	1.002129	-0.126201
H76	H	1.488242	0.803564	-0.306821
H77	H	1.400024	0.385018	0.423855
O78	O	2.285396	-0.036539	0.000008
H79	H	2.332014	-0.134289	0.000003
O80	O	1.905957	-0.284944	-0.000022
H81	H	1.937821	-0.339085	-0.060168
O82	O	1.481475	0.548525	-0.328077
H83	H	1.483262	0.616080	-0.384012
O84	O	1.253956	0.263412	0.414387
H85	H	1.262452	0.179170	0.370682
H86	H	1.360831	0.028307	0.577551
H87	H	1.478812	0.447128	0.160906
O88	O	1.684808	0.406129	0.000039
H89	H	1.662337	0.306542	0.000039
O90	O	1.252937	0.262649	0.584033
H91	H	1.190314	0.251156	0.526345
O92	O	1.653925	0.337202	0.414455
H93	H	1.666401	0.401278	0.471176
H94	H	1.358974	0.029489	0.424936
H95	H	1.526774	-0.024517	0.423991
O96	O	1.551908	-0.049998	0.584122
H97	H	1.621650	-0.008658	0.627267
O98	O	1.717780	0.114099	0.416524
H99	H	1.674305	0.045398	0.373705
H100	H	2.157278	-0.247968	-0.000027
