data_functionalizedCrystal
_audit_creation_method	'MofGen! by Chris Wilmer'
_symmetry_space_group_name_H-M	'P1'
_symmetry_Int_Tables_number	1
_symmetry_cell_setting	triclinic
loop_
_symmetry_equiv_pos_as_xyz
  x,y,z
_cell_length_a	14.853567
_cell_length_b	9.065218
_cell_length_c	13.930277
_cell_angle_alpha	89.991456
_cell_angle_beta	90.003664
_cell_angle_gamma	84.325408
loop_
_atom_site_label
_atom_site_type_symbol
_atom_site_fract_x
_atom_site_fract_y
_atom_site_fract_z
O1	O	-1.197783	-0.192629	0.079761
O2	O	-0.935493	-0.215575	0.079777
O3	O	-1.072059	0.010648	0.079766
O4	O	-1.061216	-0.418852	0.079771
O5	O	-1.072062	0.010682	-0.079895
O6	O	-0.935496	-0.215541	-0.079885
O7	O	-1.197786	-0.192596	-0.079901
Zn8	Zn	-1.066641	-0.204063	-0.105243
Zn9	Zn	-1.066637	-0.204107	0.105118
O10	O	-1.061219	-0.418818	-0.079891
C11	C	-0.901898	-0.214518	-0.000052
C12	C	-0.801791	-0.211403	-0.000046
C13	C	-1.071019	0.065631	-0.000063
C14	C	-1.067903	0.229412	-0.000058
C15	C	-1.231381	-0.193652	-0.000070
C16	C	-1.331487	-0.196768	-0.000070
C17	C	-0.388166	-0.063852	-0.000069
C18	C	-0.368873	-0.332609	-0.000065
C19	C	-0.462929	-0.335538	-0.000062
C20	C	-0.519607	-0.202622	-0.000061
C21	C	-0.482230	-0.066777	-0.000063
C22	C	-0.500313	-0.471382	-0.000050
C23	C	-0.594374	-0.474316	-0.000046
C24	C	-0.651054	-0.341399	-0.000052
C25	C	-0.613672	-0.205548	-0.000055
C26	C	-0.670350	-0.072632	-0.000054
C27	C	-0.632969	0.063221	-0.000064
C28	C	-0.538910	0.066141	-0.000069
C29	C	-0.745113	-0.344319	-0.000047
C30	C	-0.764414	-0.075557	-0.000048
C31	C	-1.062260	-0.473801	-0.000059
C32	C	-1.065376	-0.637582	-0.000058
N33	N	-1.066651	-0.204032	-0.248809
N34	N	-1.066635	-0.204127	0.248684
C35	C	-1.121925	-0.293958	0.298945
C36	C	-1.011350	-0.114276	0.298929
C37	C	-1.011350	-0.114258	0.399425
C38	C	-1.066641	-0.204089	0.449685
C39	C	-1.121930	-0.293939	0.399450
C40	C	-0.956069	-0.024398	0.449668
C41	C	-0.956069	-0.024375	0.550170
C42	C	-1.011355	-0.114215	0.600432
C43	C	-1.066645	-0.204070	0.550190
C44	C	-1.121935	-0.293901	0.600451
C45	C	-1.177222	-0.383765	0.550211
C46	C	-1.177215	-0.383779	0.449712
C47	C	-1.011361	-0.114200	0.700931
C48	C	-1.121940	-0.293882	0.700956
H49	H	-0.810556	0.032681	-0.000051
H50	H	-0.508466	0.176745	-0.000100
H51	H	-0.624801	-0.584935	-0.000038
O52	O	-0.351816	0.068072	0.000093
C53	C	-0.297953	0.077777	0.082764
H54	H	-0.320812	0.000627	0.140565
H55	H	-0.224078	0.043900	0.064061
C56	C	-0.279956	0.333117	0.049264
C57	C	-0.308037	0.238368	0.120259
H58	H	-0.286172	0.432177	0.072391
H59	H	-0.316242	0.326577	-0.006435
H60	H	-0.218396	0.304868	0.033684
H61	H	-0.369599	0.266606	0.135829
H62	H	-0.271762	0.244916	0.175962
H63	H	-1.222229	-0.456938	0.408798
O64	O	-0.781469	-0.476230	0.000132
C65	C	-0.835312	-0.485957	0.082811
H66	H	-0.812437	-0.408827	0.140603
H67	H	-0.909191	-0.452067	0.064114
C68	C	-0.853327	-0.741282	0.049332
C69	C	-0.825225	-0.646560	0.120316
H70	H	-0.847109	-0.840350	0.072465
H71	H	-0.817055	-0.734729	-0.006373
H72	H	-0.914890	-0.713023	0.033758
H73	H	-0.763660	-0.674809	0.135880
H74	H	-0.861487	-0.653122	0.176024
O75	O	-1.175757	-0.381160	0.250254
C76	C	-1.266964	-0.340808	0.274775
H77	H	-1.270440	-0.283579	0.347732
H78	H	-1.299609	-0.261865	0.218192
C79	C	-1.313531	-0.550968	0.189836
C80	C	-1.317801	-0.480689	0.279446
H81	H	-1.344891	-0.637250	0.192713
H82	H	-1.252084	-0.578151	0.173312
H83	H	-1.340733	-0.485167	0.142693
H84	H	-1.290589	-0.546483	0.326585
H85	H	-1.379245	-0.453519	0.295978
H86	H	-0.322721	-0.440823	-0.000058
H87	H	-0.679129	0.171441	-0.000057
H88	H	-0.454159	-0.579594	-0.000041
H89	H	-1.166960	-0.367042	0.741871
O90	O	-1.230795	-0.471194	0.599081
C91	C	-1.176536	-0.571492	0.657263
H92	H	-1.104923	-0.586900	0.626985
H93	H	-1.174700	-0.525850	0.733418
C94	C	-1.304438	-0.702968	0.696034
C95	C	-1.216483	-0.721902	0.658841
H96	H	-1.329080	-0.795746	0.697012
H97	H	-1.340995	-0.635392	0.656839
H98	H	-1.302896	-0.664928	0.759492
H99	H	-1.218027	-0.759922	0.595380
H100	H	-1.179927	-0.789488	0.698026
O101	O	-0.902277	0.062945	0.598819
C102	C	-0.853495	0.142256	0.532905
H103	H	-0.848662	0.081192	0.461275
H104	H	-0.889822	0.257857	0.522199
C105	C	-0.763604	0.230221	0.660108
C106	C	-0.757661	0.155214	0.572132
H107	H	-0.704490	0.238221	0.684305
H108	H	-0.796471	0.176792	0.704516
H109	H	-0.793880	0.326547	0.651173
H110	H	-0.727396	0.058884	0.581070
H111	H	-0.724786	0.208627	0.527726
O112	O	-0.957530	-0.027087	0.749691
C113	C	-0.866326	-0.067371	0.725130
H114	H	-0.858430	-0.186323	0.697521
H115	H	-0.844871	0.010116	0.666785
C116	C	-0.816046	0.090734	0.848320
C117	C	-0.806347	-0.055369	0.814418
H118	H	-0.779046	0.098144	0.903395
H119	H	-0.877492	0.117879	0.864866
H120	H	-0.798168	0.155290	0.799691
H121	H	-0.824236	-0.119919	0.863043
H122	H	-0.744902	-0.082524	0.797883
H123	H	-0.966341	-0.041130	0.258001
H124	H	-0.911063	0.048750	0.408738
