data_functionalizedCrystal
_audit_creation_method	'MofGen! by Chris Wilmer'
_symmetry_space_group_name_H-M	'P1'
_symmetry_Int_Tables_number	1
_symmetry_cell_setting	triclinic
loop_
_symmetry_equiv_pos_as_xyz
  x,y,z
_cell_length_a	10.967926
_cell_length_b	11.026607
_cell_length_c	9.482944
_cell_angle_alpha	98.151844
_cell_angle_beta	88.407388
_cell_angle_gamma	96.380754
loop_
_atom_site_label
_atom_site_type_symbol
_atom_site_fract_x
_atom_site_fract_y
_atom_site_fract_z
O1	O	1.642886	0.129421	-0.290709
O2	O	1.298426	0.157943	-0.204407
O3	O	1.442106	-0.032209	-0.240410
O4	O	1.499205	0.319573	-0.254705
O5	O	1.401404	-0.064946	-0.472006
O6	O	1.257723	0.125206	-0.436002
O7	O	1.602184	0.096684	-0.522304
Cu8	Cu	1.426237	0.107956	-0.500300
Cu9	Cu	1.474372	0.146671	-0.226411
O10	O	1.458503	0.286836	-0.486301
C11	C	1.233291	0.141973	-0.308984
C12	C	1.099846	0.143145	-0.275551
C13	C	1.019267	0.126710	-0.380618
C14	C	0.881344	0.127921	-0.346065
C15	C	1.411222	-0.093506	-0.353567
C16	C	1.379823	-0.227381	-0.345695
C17	C	1.466525	-0.303503	-0.367416
C18	C	1.434074	-0.441869	-0.359280
C19	C	1.667319	0.112655	-0.417724
C20	C	1.800766	0.111483	-0.451148
C21	C	1.489388	0.348134	-0.373141
C22	C	1.520789	0.482009	-0.381004
N23	N	1.392390	0.080725	-0.692940
C24	C	1.436237	0.115979	-0.943538
C25	C	1.464391	0.138647	-0.783174
N26	N	1.508227	0.173892	-0.033772
H27	H	1.066724	0.158110	-0.160018
F28	F	1.328435	0.029232	-0.997733
H29	H	1.546875	0.205011	-0.741712
H30	H	1.619068	-0.480718	-0.405517
F31	F	1.284588	-0.006034	-0.747127
H32	H	1.052388	0.111735	-0.496150
F33	F	0.838065	0.147479	-0.195045
F34	F	1.616036	0.260629	-0.979579
F35	F	1.251397	-0.276080	-0.313506
F36	F	0.844041	0.091903	-0.602169
F37	F	1.594954	-0.254800	-0.399584
H38	H	1.335816	-0.479128	-0.334652
