data_functionalizedCrystal
_audit_creation_method	'MofGen! by Chris Wilmer'
_symmetry_space_group_name_H-M	'P1'
_symmetry_Int_Tables_number	1
_symmetry_cell_setting	triclinic
loop_
_symmetry_equiv_pos_as_xyz
  x,y,z
_cell_length_a	12.837943
_cell_length_b	23.532407
_cell_length_c	11.892095
_cell_angle_alpha	93.859970
_cell_angle_beta	85.689438
_cell_angle_gamma	88.838809
loop_
_atom_site_label
_atom_site_type_symbol
_atom_site_fract_x
_atom_site_fract_y
_atom_site_fract_z
O1	O	1.380592	0.144688	-0.094007
O2	O	1.078862	0.137379	-0.094012
O3	O	1.238824	0.058625	-0.093989
O4	O	1.220630	0.223442	-0.094030
O5	O	1.225487	0.065180	0.094017
O6	O	1.065525	0.143934	0.093993
O7	O	1.367255	0.151243	0.093999
Zn8	Zn	1.214272	0.148629	0.123846
Zn9	Zn	1.231845	0.139993	-0.123859
O10	O	1.207293	0.229998	0.093975
C11	C	1.033599	0.138187	-0.000010
C12	C	0.918597	0.130823	-0.000011
C13	C	0.676728	0.219356	-0.000017
C14	C	0.568673	0.212439	-0.000017
C15	C	0.594431	0.110073	-0.000004
C16	C	0.702485	0.116990	-0.000003
C17	C	0.743630	0.171633	-0.000012
C18	C	0.851687	0.178549	-0.000020
C19	C	0.877442	0.076184	0.000002
C20	C	0.769387	0.069267	0.000002
C21	C	1.231692	0.040660	0.000017
C22	C	1.230298	-0.022637	0.000026
C23	C	1.316227	-0.416812	-0.000035
C24	C	1.314934	-0.476287	-0.000043
O25	O	1.394590	-0.508463	-0.000084
N26	N	1.219835	-0.504370	-0.000044
C27	C	1.126025	-0.472975	-0.000048
O28	O	1.045018	-0.502322	-0.000051
C29	C	1.127321	-0.413501	-0.000047
C30	C	1.222424	-0.385421	-0.000035
C31	C	1.411324	-0.388732	-0.000024
C32	C	1.412617	-0.329261	-0.000013
C33	C	1.318813	-0.297871	-0.000013
C34	C	1.223717	-0.325951	-0.000024
C35	C	1.033512	-0.382108	-0.000059
C36	C	1.034816	-0.322631	-0.000060
C37	C	1.129920	-0.294551	-0.000047
C38	C	1.131207	-0.235089	-0.000014
N39	N	1.226306	-0.207006	-0.000013
C40	C	1.320109	-0.238397	-0.000013
C41	C	1.123312	-0.597873	-0.000051
C42	C	1.122015	-0.657345	-0.000043
C43	C	1.310925	-0.660653	-0.000041
C44	C	1.312220	-0.601180	-0.000040
C45	C	1.218411	-0.569790	-0.000050
C46	C	1.322817	-0.113504	0.000011
C47	C	1.324101	-0.054028	0.000026
C48	C	1.135193	-0.050725	0.000018
C49	C	1.133908	-0.110196	0.000008
C50	C	1.227729	-0.141584	0.000001
O51	O	1.051594	-0.202877	0.000022
O52	O	1.401104	-0.209042	-0.000025
C53	C	1.412519	0.150435	-0.000006
C54	C	1.527521	0.157799	-0.000012
C55	C	1.214425	0.247962	-0.000033
C56	C	1.215820	0.311259	-0.000049
N57	N	1.202287	0.154524	0.292898
N58	N	1.243838	0.134094	-0.292912
C59	C	1.327236	0.093046	0.529565
C60	C	1.318866	0.097171	0.647905
C61	C	1.177173	0.166894	0.647922
C62	C	1.185543	0.162770	0.529582
C63	C	1.260578	0.125845	0.470407
C64	C	1.268952	0.121724	0.352064
C65	C	1.127255	0.191444	0.352084
C66	C	1.118885	0.195569	0.470424
H67	H	1.401549	-0.031168	0.000039
O68	O	1.045861	0.231368	0.527863
C69	C	0.945447	0.215524	0.498948
H70	H	0.947710	0.168792	0.466420
H71	H	0.887881	0.221945	0.576785
H72	H	0.919553	0.243021	0.430261
O73	O	1.413874	-0.144045	0.000160
C74	C	1.411887	-0.175149	0.097540
H75	H	1.327384	-0.181500	0.129993
H76	H	1.452521	-0.218429	0.075641
H77	H	1.454147	-0.150669	0.165729
H78	H	1.490060	-0.306404	-0.000007
H79	H	1.330052	0.091659	0.303885
O80	O	0.729547	0.016156	-0.000145
C81	C	0.770670	-0.016675	-0.097531
H82	H	0.847765	0.001770	-0.129993
H83	H	0.784595	-0.062499	-0.075633
H84	H	0.712905	-0.015844	-0.165712
O85	O	1.383473	0.065249	0.705424
C86	C	1.323507	0.029504	0.773919
H87	H	1.244337	0.022844	0.738275
H88	H	1.366145	-0.013384	0.775263
H89	H	1.311551	0.050149	0.863604
H90	H	0.710228	0.263848	-0.000026
H91	H	0.560905	0.065588	0.000097
O92	O	1.502543	-0.419131	0.000031
C93	C	1.586743	-0.381583	0.000010
H94	H	1.557431	-0.337466	0.035596
H95	H	1.648558	-0.398015	0.054604
H96	H	1.622327	-0.378905	-0.090182
H97	H	1.388340	0.062984	0.481384
H98	H	1.056465	-0.133059	0.000030
O99	O	0.503741	0.258807	-0.000228
C100	C	0.529237	0.288249	-0.097588
H101	H	0.571304	0.257832	-0.165639
H102	H	0.454653	0.305779	-0.130277
H103	H	0.582367	0.324944	-0.075578
H104	H	1.072980	0.218153	0.303904
H105	H	0.956069	-0.404960	-0.000076
H106	H	1.116074	0.196954	0.696118
O107	O	0.942576	0.029884	0.000054
C108	C	1.046775	0.047702	0.000015
H109	H	1.047944	0.093873	0.035609
H110	H	1.092200	0.019543	0.054593
H111	H	1.084438	0.044100	-0.090184
O112	O	1.404643	-0.573938	-0.000240
C113	C	1.468700	-0.592883	-0.097594
H114	H	1.417902	-0.610631	-0.165648
H115	H	1.514721	-0.555664	-0.130281
H116	H	1.525274	-0.627674	-0.075576
O117	O	0.891544	0.231650	-0.000177
C118	C	0.864230	0.257701	-0.097562
H119	H	0.791741	0.236994	-0.130023
H120	H	0.847194	0.305049	-0.075665
H121	H	0.931665	0.252127	-0.165744
H122	H	1.387304	-0.686223	-0.000045
H123	H	1.044571	-0.680202	-0.000034
O124	O	1.032121	-0.567450	-0.000194
C125	C	0.981263	-0.584357	-0.097577
H126	H	1.009493	-0.629137	-0.130044
H127	H	0.893259	-0.584122	-0.075675
H128	H	0.999908	-0.553484	-0.165757
O129	O	0.943630	-0.292206	-0.000218
C130	C	0.892781	-0.309109	-0.097609
H131	H	0.921008	-0.353890	-0.130075
H132	H	0.804775	-0.308871	-0.075719
H133	H	0.911440	-0.278236	-0.165785
O134	O	1.044022	-0.020292	-0.000140
C135	C	0.993175	-0.037192	-0.097535
H136	H	1.021385	-0.081976	-0.129992
H137	H	0.905168	-0.036942	-0.075653
H138	H	1.011855	-0.006323	-0.165714
