data_functionalizedCrystal
_audit_creation_method	'MofGen! by Chris Wilmer'
_symmetry_space_group_name_H-M	'P1'
_symmetry_Int_Tables_number	1
_symmetry_cell_setting	triclinic
loop_
_symmetry_equiv_pos_as_xyz
  x,y,z
_cell_length_a	16.956984
_cell_length_b	16.956984
_cell_length_c	16.053802
_cell_angle_alpha	92.372341
_cell_angle_beta	87.610701
_cell_angle_gamma	76.053419
loop_
_atom_site_label
_atom_site_type_symbol
_atom_site_fract_x
_atom_site_fract_y
_atom_site_fract_z
O1	O	1.059453	0.029588	-0.069433
O2	O	0.825442	0.057706	-0.069434
O3	O	0.956506	-0.073359	-0.069428
O4	O	0.928389	0.160652	-0.069440
O5	O	0.949294	-0.066172	0.069431
O6	O	0.818230	0.064892	0.069424
O7	O	1.052241	0.036774	0.069425
Zn8	Zn	0.934090	0.051974	0.091472
Zn9	Zn	0.943593	0.042506	-0.091480
O10	O	0.921177	0.167838	0.069419
C11	C	0.792033	0.062739	-0.000005
C12	C	0.703230	0.067019	-0.000005
C13	C	0.675864	-0.004554	-0.000000
C14	C	0.592423	-0.000527	-0.000006
C15	C	0.536350	0.075074	-0.000012
C16	C	0.563722	0.146652	-0.000019
C17	C	0.647161	0.142624	-0.000019
C18	C	0.285264	0.095010	-0.000018
C19	C	0.201820	0.099033	-0.000016
C20	C	0.230527	-0.048147	-0.000005
C21	C	0.313966	-0.052168	0.000001
C22	C	0.341331	0.019410	-0.000011
N23	N	0.451061	0.079192	-0.000015
N24	N	0.426620	0.015291	-0.000014
C25	C	0.954340	-0.099568	0.000001
C26	C	0.958621	-0.188371	0.000000
C27	C	0.887048	-0.215738	-0.000003
C28	C	0.891075	-0.299178	-0.000001
C29	C	0.966676	-0.355251	-0.000001
C30	C	1.038254	-0.327880	0.000006
C31	C	1.034226	-0.244441	0.000009
C32	C	0.986613	-0.606339	-0.000006
C33	C	0.990636	-0.689783	-0.000013
C34	C	0.843456	-0.661075	-0.000018
C35	C	0.839435	-0.577636	-0.000019
C36	C	0.911013	-0.550271	-0.000008
N37	N	0.970794	-0.440542	-0.000001
N38	N	0.906893	-0.464982	-0.000002
C39	C	1.085650	0.031741	-0.000006
C40	C	1.174453	0.027460	-0.000011
C41	C	0.923343	0.194048	-0.000012
C42	C	0.919063	0.282851	-0.000017
N43	N	0.927611	0.058435	0.216332
N44	N	0.950079	0.036038	-0.216340
C45	C	0.983397	0.002684	0.260028
C46	C	0.978871	0.007211	0.347435
C47	C	0.918563	0.067492	0.391143
C48	C	0.862771	0.123246	0.347440
C49	C	0.867294	0.118715	0.260035
C50	C	0.898810	0.087261	0.652552
C51	C	0.894293	0.091789	0.739963
C52	C	1.010393	-0.024248	0.739951
C53	C	1.014913	-0.028770	0.652545
C54	C	0.959118	0.026981	0.608850
N55	N	0.913937	0.072122	0.480487
N56	N	0.963741	0.022346	0.519508
H57	H	0.570147	-0.058809	-0.000003
H58	H	1.099810	-0.373541	0.000011
O59	O	1.111425	-0.214923	0.000002
H60	H	1.144551	-0.234901	0.056593
O61	O	1.079960	-0.093797	0.605413
H62	H	1.140844	-0.086802	0.622183
H63	H	0.821866	0.164112	0.224458
O64	O	0.676677	0.219824	-0.000023
H65	H	0.744118	0.204323	-0.000030
H66	H	1.052203	-0.735438	-0.000018
O67	O	1.048431	-0.062352	0.212893
H68	H	1.042206	-0.056140	0.144773
O69	O	0.736342	-0.086095	0.000006
H70	H	0.703290	-0.135187	0.000001
H71	H	0.518061	0.208208	-0.000029
O72	O	0.314764	0.172215	-0.000008
H73	H	0.294797	0.205356	-0.056598
O74	O	0.766258	-0.690592	-0.000011
H75	H	0.767508	-0.730852	-0.056603
H76	H	0.208238	-0.106422	-0.000004
O77	O	1.039053	-0.052906	0.394568
H78	H	1.081760	-0.095573	0.349491
O79	O	0.374439	-0.133712	0.000010
H80	H	0.416087	-0.141999	-0.056581
O81	O	0.757887	-0.517167	-0.000013
H82	H	0.755465	-0.481394	-0.056612
H83	H	0.825485	-0.170088	-0.000008
H84	H	1.055817	-0.069638	0.775536
O85	O	0.141336	0.180577	-0.000031
H86	H	0.174382	0.229673	-0.000049
H87	H	0.845180	0.140881	0.775546
O88	O	0.813879	-0.328698	-0.000004
H89	H	0.760633	-0.275690	-0.000013
H90	H	0.853381	0.132657	0.616982
O91	O	1.063812	-0.576828	-0.000019
H92	H	1.117057	-0.629840	-0.000035
H93	H	0.813663	0.172326	0.383033
