data_functionalizedCrystal
_audit_creation_method	'MofGen! by Chris Wilmer'
_symmetry_space_group_name_H-M	'P1'
_symmetry_Int_Tables_number	1
_symmetry_cell_setting	triclinic
loop_
_symmetry_equiv_pos_as_xyz
  x,y,z
_cell_length_a	18.215407
_cell_length_b	19.121063
_cell_length_c	18.215399
_cell_angle_alpha	87.592693
_cell_angle_beta	90.016824
_cell_angle_gamma	92.469446
loop_
_atom_site_label
_atom_site_type_symbol
_atom_site_fract_x
_atom_site_fract_y
_atom_site_fract_z
Zn1	Zn	1.112538	-0.279596	0.428595
Zn2	Zn	1.107196	-0.397056	0.310772
Zn3	Zn	0.989475	-0.279624	0.305544
Zn4	Zn	0.984181	-0.397012	0.433795
O5	O	1.048347	-0.338322	0.369676
O6	O	1.214813	-0.295184	0.412978
O7	O	1.091560	-0.381508	0.207095
O8	O	1.010251	-0.181336	0.317503
O9	O	1.210888	-0.381481	0.326413
O10	O	1.100664	-0.181315	0.407908
O11	O	1.005071	-0.295231	0.203254
O12	O	0.885789	-0.295189	0.322545
O13	O	1.001228	-0.381406	0.536088
O14	O	0.881900	-0.381433	0.416770
O15	O	1.095531	-0.295141	0.532268
O16	O	1.086427	-0.495334	0.331455
O17	O	0.996048	-0.495302	0.421839
C18	C	0.857142	-0.338310	0.369655
C19	C	0.775342	-0.338321	0.369664
C20	C	0.585139	-0.383299	0.418671
C21	C	0.508280	-0.383302	0.418680
C22	C	0.512307	-0.293357	0.320698
C23	C	0.589165	-0.293351	0.320693
C24	C	0.625579	-0.338327	0.369679
C25	C	0.471862	-0.338334	0.369693
C26	C	0.388528	-0.338336	0.369703
C27	C	0.708918	-0.338324	0.369670
C28	C	1.040103	-0.520802	0.377794
C29	C	1.036644	-0.598868	0.381292
C30	C	1.082110	-0.635537	0.335916
C31	C	1.078861	-0.708888	0.339209
C32	C	1.030141	-0.745569	0.387876
C33	C	0.984673	-0.708895	0.433257
C34	C	0.987926	-0.635545	0.429967
C35	C	1.017965	-0.967039	0.400167
C36	C	1.014713	-1.040394	0.403453
C37	C	1.108902	-1.040382	0.309405
C38	C	1.112149	-0.967031	0.306116
C39	C	1.066683	-0.930363	0.351500
C40	C	1.026817	-0.820546	0.391242
C41	C	1.070012	-0.855387	0.348137
C42	C	1.240300	-0.338334	0.369698
C43	C	1.322098	-0.338340	0.369708
C44	C	1.048385	-0.338266	0.561627
C45	C	1.048401	-0.338242	0.643425
C46	C	1.056644	-0.155129	0.361543
C47	C	1.060179	-0.077063	0.358077
C48	C	1.048355	-0.338327	0.178470
C49	C	1.048491	-0.338153	0.096664
C50	C	1.003407	-0.293287	0.829618
C51	C	1.003420	-0.293273	0.906476
C52	C	1.093486	-0.383112	0.910465
C53	C	1.093468	-0.383130	0.833609
C54	C	1.048430	-0.338213	0.793187
C55	C	1.048461	-0.338182	0.946902
C56	C	1.048476	-0.338167	1.030235
C57	C	1.048414	-0.338229	0.709849
H58	H	1.121780	-0.605676	0.296283
H59	H	0.966734	-0.256713	0.796709
Br60	Br	0.453401	-0.444335	0.485176
H61	H	0.482649	-0.256740	0.280815
H62	H	0.622092	-0.256725	0.280798
H63	H	0.614785	-0.419920	0.458559
Br64	Br	1.140573	-0.758651	0.277629
H65	H	1.151820	-0.937167	0.266488
Br66	Br	1.170606	-1.090149	0.247820
Br67	Br	0.948576	-1.090175	0.469492
Br68	Br	0.956261	-0.917284	0.461760
H69	H	0.966758	-0.256690	0.936135
Br70	Br	1.154607	-0.444067	0.965327
Br71	Br	0.926224	-0.585779	0.491556
Br72	Br	1.154570	-0.444110	0.784161
H73	H	1.109682	-0.825520	0.308515
Br74	Br	0.918558	-0.758675	0.499312
H75	H	0.987147	-0.850419	0.430866
