data_functionalizedCrystal
_audit_creation_method	'MofGen! by Chris Wilmer'
_symmetry_space_group_name_H-M	'P1'
_symmetry_Int_Tables_number	1
_symmetry_cell_setting	triclinic
loop_
_symmetry_equiv_pos_as_xyz
  x,y,z
_cell_length_a	19.077068
_cell_length_b	21.395364
_cell_length_c	19.077314
_cell_angle_alpha	87.719544
_cell_angle_beta	89.878373
_cell_angle_gamma	87.675407
loop_
_atom_site_label
_atom_site_type_symbol
_atom_site_fract_x
_atom_site_fract_y
_atom_site_fract_z
Zn1	Zn	-0.263857	-0.933785	-0.408560
Zn2	Zn	-0.386085	-0.933368	-0.295767
Zn3	Zn	-0.268590	-0.833045	-0.291065
Zn4	Zn	-0.381326	-0.824607	-0.413230
O5	O	-0.324964	-0.881201	-0.352155
O6	O	-0.280082	-1.021407	-0.393611
O7	O	-0.374472	-0.923416	-0.196812
O8	O	-0.169628	-0.850114	-0.302728
O9	O	-0.369883	-1.021100	-0.310742
O10	O	-0.166151	-0.924128	-0.389051
O11	O	-0.288148	-0.849709	-0.193357
O12	O	-0.283533	-0.744248	-0.307257
O13	O	-0.361770	-0.835733	-0.510942
O14	O	-0.366360	-0.738049	-0.397012
O15	O	-0.275466	-0.915946	-0.507511
O16	O	-0.483788	-0.915234	-0.315271
O17	O	-0.480290	-0.835328	-0.401571
C18	C	-0.324944	-0.718415	-0.352131
C19	C	-0.324951	-0.648773	-0.352139
C20	C	-0.368165	-0.143764	-0.398837
C21	C	-0.368166	-0.209200	-0.398831
C22	C	-0.324969	-0.245133	-0.352167
C23	C	-0.281780	-0.215627	-0.305493
C24	C	-0.281785	-0.150192	-0.305496
C25	C	-0.261863	-0.351362	-0.344186
C26	C	-0.261857	-0.416795	-0.344188
C27	C	-0.324954	-0.446955	-0.352154
C28	C	-0.388059	-0.411673	-0.360133
C29	C	-0.388064	-0.346239	-0.360136
C30	C	-0.324959	-0.316086	-0.352158
C31	C	-0.368145	-0.547407	-0.398815
C32	C	-0.368148	-0.612844	-0.398804
C33	C	-0.281756	-0.619270	-0.305469
C34	C	-0.281759	-0.553834	-0.305477
C35	C	-0.324953	-0.517907	-0.352154
C36	C	-0.507535	-0.874337	-0.359453
C37	C	-0.585639	-0.871457	-0.362599
C38	C	-0.624128	-0.911736	-0.319182
C39	C	-0.697514	-0.909031	-0.322145
C40	C	-0.732410	-0.866043	-0.368521
C41	C	-0.693916	-0.825762	-0.411943
C42	C	-0.620531	-0.828470	-0.408983
C43	C	-0.951696	-0.853480	-0.382191
C44	C	-1.025086	-0.850773	-0.385145
C45	C	-1.028679	-0.934044	-0.295348
C46	C	-0.955293	-0.936746	-0.292389
C47	C	-0.916805	-0.896467	-0.335814
N48	N	-0.807423	-0.863275	-0.371549
N49	N	-0.841793	-0.899238	-0.332789
C50	C	-0.141680	-0.888109	-0.344844
C51	C	-0.063575	-0.891052	-0.341729
C52	C	-0.317560	-0.874945	-0.535435
C53	C	-0.314404	-0.872279	-0.613538
C54	C	-0.324981	-0.044623	-0.352175
C55	C	-0.324979	-0.114265	-0.352172
C56	C	-0.357863	-0.909399	-0.652033
C57	C	-0.354890	-0.906894	-0.725418
C58	C	-0.308460	-0.867266	-0.760309
C59	C	-0.264996	-0.830145	-0.721809
C60	C	-0.267967	-0.832654	-0.648425
C61	C	-0.294754	-0.855653	-0.979592
C62	C	-0.291788	-0.853146	-1.052981
C63	C	-0.381681	-0.929896	-1.056586
C64	C	-0.384650	-0.932398	-0.983200
C65	C	-0.341184	-0.895280	-0.944706
N66	N	-0.305421	-0.864704	-0.835321
N67	N	-0.344220	-0.897846	-0.869696
C68	C	-0.332290	-0.887471	-0.169586
C69	C	-0.335247	-0.890265	-0.091476
H70	H	-0.403333	-0.233223	-0.436834
H71	H	-0.926882	-0.971750	-0.254626
Cl72	Cl	-0.206624	-0.780330	-0.765671
H73	H	-0.390279	-0.937121	-0.756757
H74	H	-0.210479	-0.326812	-0.337688
H75	H	-0.595721	-0.946739	-0.281414
Cl76	Cl	-1.077068	-0.984681	-0.240766
Cl77	Cl	-1.068955	-0.796719	-0.443443
H78	H	-0.403339	-0.114516	-0.436843
Cl79	Cl	-0.903320	-0.802842	-0.436780
H80	H	-0.253974	-0.820877	-1.081387
H81	H	-0.589193	-0.795671	-0.444339
H82	H	-0.728849	-0.941831	-0.286790
H83	H	-0.417068	-0.960117	-1.087935
Cl84	Cl	-0.443020	-0.982220	-0.939343
Cl85	Cl	-0.182525	-0.461142	-0.334169
H86	H	-0.246586	-0.648527	-0.267472
Cl87	Cl	-0.416239	-0.959216	-0.608178
Cl88	Cl	-0.240112	-0.808986	-0.931210
H89	H	-0.232575	-0.802428	-0.617083
H90	H	-0.439447	-0.317515	-0.366630
Cl91	Cl	-0.227459	-0.516747	-0.246814
H92	H	-0.439439	-0.436228	-0.366625
H93	H	-0.403317	-0.518153	-0.436821
H94	H	-0.403320	-0.636861	-0.436803
Cl95	Cl	-0.227478	-0.260799	-0.246827
H96	H	-0.246616	-0.126174	-0.267495
H97	H	-0.722334	-0.790762	-0.449707
