data_functionalizedCrystal
_audit_creation_method	'MofGen! by Chris Wilmer'
_symmetry_space_group_name_H-M	'P1'
_symmetry_Int_Tables_number	1
_symmetry_cell_setting	triclinic
loop_
_symmetry_equiv_pos_as_xyz
  x,y,z
_cell_length_a	12.645331
_cell_length_b	29.839131
_cell_length_c	12.645323
_cell_angle_alpha	90.032712
_cell_angle_beta	90.015738
_cell_angle_gamma	90.040656
loop_
_atom_site_label
_atom_site_type_symbol
_atom_site_fract_x
_atom_site_fract_y
_atom_site_fract_z
Zn1	Zn	1.620556	-0.178859	0.599192
Zn2	Zn	1.620365	-0.253991	0.421908
Zn3	Zn	1.443271	-0.178875	0.421958
Zn4	Zn	1.443179	-0.253962	0.599145
O5	O	1.531843	-0.216421	0.510551
O6	O	1.768878	-0.188831	0.575674
O7	O	1.596831	-0.244045	0.273567
O8	O	1.466907	-0.116005	0.445509
O9	O	1.768737	-0.244030	0.445424
O10	O	1.597158	-0.115994	0.575722
O11	O	1.466721	-0.188857	0.273604
O12	O	1.294912	-0.188829	0.445463
O13	O	1.466751	-0.243981	0.747499
O14	O	1.294844	-0.243996	0.575642
O15	O	1.597069	-0.188803	0.747533
O16	O	1.596742	-0.316854	0.445378
O17	O	1.466565	-0.316833	0.575593
C18	C	1.256413	-0.216411	0.510554
C19	C	1.138583	-0.216418	0.510580
C20	C	0.971012	-0.251313	0.592048
C21	C	1.093572	-0.251201	0.592389
C22	C	1.094151	-0.169100	0.541117
C23	C	0.971553	-0.169313	0.541690
C24	C	0.971326	-0.228459	0.398317
C25	C	1.093931	-0.229494	0.398922
C26	C	1.531651	-0.333144	0.510498
C27	C	1.531666	-0.383079	0.510511
C28	C	1.599749	-0.692720	0.442847
C29	C	1.599880	-0.880393	0.442888
O30	O	1.657615	-0.904657	0.385317
N31	N	1.532063	-0.903864	0.510631
C32	C	1.464212	-0.880413	0.578373
O33	O	1.406540	-0.904682	0.636001
C34	C	1.464088	-0.692740	0.578336
C35	C	1.531902	-0.669273	0.510582
C36	C	1.667559	-0.669253	0.375098
C37	C	1.667522	-0.622337	0.375085
C38	C	1.599674	-0.598889	0.442819
C39	C	1.531865	-0.622357	0.510568
C40	C	1.396244	-0.669290	0.646083
C41	C	1.396220	-0.622369	0.646070
C42	C	1.464035	-0.598902	0.578315
C43	C	1.463980	-0.551994	0.578289
N44	N	1.531798	-0.528524	0.510546
C45	C	1.599645	-0.551972	0.442811
C46	C	1.464281	-0.978943	0.578386
C47	C	1.464311	-1.025861	0.578394
C48	C	1.599980	-1.025839	0.442910
C49	C	1.599945	-0.978920	0.442897
C50	C	1.532099	-0.955473	0.510643
C51	C	1.599560	-0.453446	0.442787
C52	C	1.599514	-0.406526	0.442776
C53	C	1.463849	-0.406553	0.578264
C54	C	1.463891	-0.453468	0.578271
C55	C	1.531755	-0.476914	0.510529
O56	O	1.406284	-0.527702	0.635838
O57	O	1.657325	-0.527694	0.385209
C58	C	1.599787	-0.739636	0.442860
C59	C	1.531977	-0.763104	0.510609
C60	C	1.464130	-0.739656	0.578344
C61	C	1.532007	-0.810021	0.510617
C62	C	1.599854	-0.833469	0.442882
C63	C	1.667672	-0.809999	0.375139
C64	C	1.667634	-0.763083	0.375126
C65	C	1.396312	-0.763126	0.646086
C66	C	1.396354	-0.810042	0.646094
C67	C	1.464202	-0.833489	0.578359
C68	C	1.808348	-0.216432	0.510549
C69	C	1.926178	-0.216436	0.510548
C70	C	1.531921	-0.216387	0.787056
C71	C	1.531954	-0.216372	0.904886
C72	C	1.532064	-0.099243	0.510627
C73	C	1.532158	-0.049309	0.510659
C74	C	1.531826	-0.216424	0.235121
C75	C	1.531998	-0.216312	0.117292
C76	C	1.449718	-0.250921	1.072429
C77	C	1.449933	-0.251092	0.949869
C78	C	1.643641	-0.229221	0.949389
C79	C	1.643190	-0.229438	1.071987
C80	C	1.503559	-0.168781	1.072103
C81	C	1.501067	-0.169066	0.949497
H82	H	1.122979	-0.264312	0.375891
F83	F	1.739877	-0.834962	0.303048
H84	H	1.124886	-0.158717	0.622274
F85	F	1.573688	-0.133580	0.909488
F86	F	0.934213	-0.155986	0.648931
H87	H	1.706588	-0.204811	0.920254
F88	F	1.671789	-0.478391	0.370688
F89	F	1.398963	-0.153472	1.112511
H90	H	1.367112	-0.243051	0.919779
F91	F	1.473962	-0.296685	1.112755
H92	H	1.123310	-0.142408	0.483611
F93	F	1.131948	-0.240801	0.701083
H94	H	1.563488	-0.142996	1.101118
H95	H	1.722814	-0.688339	0.319940
F96	F	1.675700	-0.274161	0.909260
H97	H	0.941898	-0.142396	0.485052
H98	H	1.667301	-0.264184	1.100583
F99	F	1.341139	-0.240510	1.110959
H100	H	1.408674	-0.472577	0.633446
H101	H	1.123610	-0.286289	0.573249
F102	F	1.133972	-0.198698	0.315290
H103	H	0.941486	-0.286518	0.573119
F104	F	1.324009	-0.597418	0.718178
H105	H	1.706571	-0.205325	1.101665
F106	F	1.671694	-0.381553	0.370659
H107	H	0.940228	-0.243460	0.674723
F108	F	1.391647	-0.381590	0.650351
H109	H	1.418876	-0.159376	0.920411
F110	F	0.933429	-0.195255	0.318943
H111	H	1.722855	-0.743979	0.319954
H112	H	1.468704	-0.286328	0.920541
F113	F	0.930851	-0.272785	0.362032
F114	F	1.739712	-0.597367	0.302982
F115	F	1.672122	-0.953948	0.370785
H116	H	1.655225	-1.044938	0.387758
H117	H	1.409080	-1.044964	0.633557
H118	H	1.409030	-0.959856	0.633554
F119	F	1.324097	-0.738177	0.718184
H120	H	1.341017	-0.688390	0.701251
F121	F	1.324169	-0.835013	0.718210
