data_functionalizedCrystal
_audit_creation_method	'MofGen! by Chris Wilmer'
_symmetry_space_group_name_H-M	'P1'
_symmetry_Int_Tables_number	1
_symmetry_cell_setting	triclinic
loop_
_symmetry_equiv_pos_as_xyz
  x,y,z
_cell_length_a	12.759401
_cell_length_b	12.594516
_cell_length_c	12.759393
_cell_angle_alpha	89.970672
_cell_angle_beta	89.982620
_cell_angle_gamma	90.016214
loop_
_atom_site_label
_atom_site_type_symbol
_atom_site_fract_x
_atom_site_fract_y
_atom_site_fract_z
Zn1	Zn	1.606234	-0.423673	-0.593999
Zn2	Zn	1.606128	-0.601693	-0.418327
Zn3	Zn	1.430539	-0.423729	-0.418339
Zn4	Zn	1.430520	-0.601610	-0.593968
O5	O	1.518355	-0.512676	-0.506158
O6	O	1.753241	-0.447298	-0.570704
O7	O	1.582799	-0.578143	-0.271307
O8	O	1.453898	-0.274776	-0.441658
O9	O	1.753163	-0.578089	-0.441638
O10	O	1.582980	-0.274734	-0.570715
O11	O	1.453795	-0.447394	-0.271316
O12	O	1.283516	-0.447314	-0.441628
O13	O	1.453866	-0.577948	-0.740993
O14	O	1.283502	-0.578003	-0.570663
O15	O	1.582962	-0.447218	-0.741016
O16	O	1.582780	-0.750627	-0.441608
O17	O	1.453763	-0.750567	-0.570651
C18	C	1.245388	-0.512656	-0.506144
C19	C	1.128611	-0.512674	-0.506163
C20	C	1.518286	-0.789217	-0.506148
C21	C	1.518353	-0.907522	-0.506179
C22	C	1.073770	-0.580832	-0.573240
C23	C	0.964045	-0.580846	-0.573251
C24	C	0.964015	-0.444539	-0.439099
C25	C	1.073737	-0.444521	-0.439094
C26	C	1.073786	-0.659531	-0.650688
C27	C	0.964062	-0.659544	-0.650700
C28	C	1.448174	-0.976781	-0.576316
C29	C	1.422576	-1.047652	-0.480449
C30	C	1.544046	-1.047451	-0.602062
C31	C	1.492705	-0.976835	-0.410261
C32	C	1.614220	-0.976627	-0.531938
C33	C	1.588659	-1.047466	-0.436006
C34	C	1.792389	-0.512696	-0.506173
C35	C	1.909165	-0.512705	-0.506179
C36	C	1.518424	-0.512568	-0.780192
C37	C	1.518453	-0.512521	-0.896968
C38	C	1.518453	-0.235055	-0.506192
C39	C	1.518495	-0.116750	-0.506206
C40	C	1.451309	-0.444428	-0.951841
C41	C	1.451341	-0.444396	-1.061565
C42	C	1.585669	-0.580555	-1.061534
C43	C	1.585631	-0.580591	-0.951812
C44	C	1.373758	-0.365814	-0.951860
C45	C	1.373790	-0.365783	-1.061584
C46	C	1.518348	-0.512707	-0.233191
C47	C	1.518522	-0.512454	-0.116415
H48	H	1.118385	-0.389013	-0.384480
H49	H	1.402924	-0.287524	-0.917840
H50	H	1.565721	-1.078470	-0.683138
H51	H	1.296492	-0.395290	-1.095611
H52	H	1.640291	-0.636055	-0.907139
C53	C	0.923801	-0.770871	-0.621071
H54	H	0.981701	-0.816643	-0.608866
H55	H	0.882460	-0.798333	-0.676717
H56	H	0.882415	-0.766314	-0.559332
H57	H	1.388719	-0.945744	-0.635542
H58	H	1.341569	-1.078873	-0.458684
C59	C	1.403297	-0.254419	-1.101841
H60	H	1.415421	-0.208644	-1.043939
H61	H	1.347635	-0.227007	-1.143207
H62	H	1.465059	-0.258907	-1.143200
C63	C	1.723625	-0.934444	-0.561397
H64	H	1.750513	-0.892963	-0.505344
H65	H	1.718551	-0.891837	-0.622638
H66	H	1.769316	-0.992515	-0.574372
H67	H	1.470937	-0.945944	-0.329163
C68	C	1.659569	-0.655418	-1.121861
H69	H	1.699549	-0.695981	-1.073463
H70	H	1.705374	-0.614693	-1.164672
H71	H	1.619372	-0.701783	-1.164653
C72	C	0.903649	-0.369581	-0.365327
H73	H	0.830448	-0.379355	-0.374933
H74	H	0.921649	-0.298083	-0.380821
H75	H	0.921601	-0.385077	-0.294705
C76	C	1.114062	-0.629826	-0.760652
H77	H	1.056168	-0.617611	-0.805879
H78	H	1.155425	-0.686269	-0.787591
H79	H	1.155428	-0.567254	-0.756324
C80	C	1.668911	-1.089142	-0.355809
H81	H	1.650539	-1.064834	-0.287768
H82	H	1.736757	-1.063749	-0.373516
H83	H	1.668929	-1.164567	-0.356652
C84	C	1.119743	-0.765256	-0.611142
H85	H	1.064282	-0.812352	-0.593540
H86	H	1.161630	-0.752530	-0.550905
H87	H	1.161659	-0.796122	-0.664596
C88	C	1.263818	-0.395643	-0.911620
H89	H	1.263796	-0.395655	-0.837163
H90	H	1.245622	-0.464320	-0.936417
H91	H	1.214212	-0.345337	-0.936444
C92	C	0.918125	-0.619797	-0.755187
H93	H	0.973593	-0.602093	-0.801714
H94	H	0.876225	-0.558741	-0.742810
H95	H	0.876225	-0.674047	-0.785507
