data_functionalizedCrystal
_audit_creation_method	'MofGen! by Chris Wilmer'
_symmetry_space_group_name_H-M	'P1'
_symmetry_Int_Tables_number	1
_symmetry_cell_setting	triclinic
loop_
_symmetry_equiv_pos_as_xyz
  x,y,z
_cell_length_a	21.295420
_cell_length_b	25.639240
_cell_length_c	21.295411
_cell_angle_alpha	90.021594
_cell_angle_beta	89.975408
_cell_angle_gamma	89.961055
loop_
_atom_site_label
_atom_site_type_symbol
_atom_site_fract_x
_atom_site_fract_y
_atom_site_fract_z
Zn1	Zn	0.962300	0.208269	-0.355912
Zn2	Zn	1.295633	0.541603	-0.022579
Zn3	Zn	1.628967	0.874936	0.310755
Zn4	Zn	0.962179	0.295689	-0.250638
Zn5	Zn	1.295512	0.629023	0.082696
Zn6	Zn	1.628846	0.962356	0.416029
Zn7	Zn	0.857023	0.208263	-0.250657
Zn8	Zn	1.190356	0.541596	0.082676
Zn9	Zn	1.523690	0.874930	0.416010
Zn10	Zn	0.856969	0.295669	-0.355869
Zn11	Zn	1.190303	0.629002	-0.022536
Zn12	Zn	1.523636	0.962336	0.310797
O13	O	0.909618	0.251973	-0.303269
O14	O	1.242951	0.585306	0.030064
O15	O	1.576285	0.918639	0.363398
O16	O	1.050373	0.219877	-0.341957
O17	O	1.383707	0.553210	-0.008624
O18	O	1.717040	0.886543	0.324710
O19	O	0.948202	0.284098	-0.162551
O20	O	1.281535	0.617431	0.170783
O21	O	1.614869	0.950765	0.504116
O22	O	0.871061	0.135099	-0.264645
O23	O	1.204395	0.468432	0.068688
O24	O	1.537728	0.801765	0.402021
O25	O	1.050284	0.284104	-0.264612
O26	O	1.383618	0.617437	0.068721
O27	O	1.716951	0.950770	0.402054
O28	O	0.948408	0.135103	-0.341976
O29	O	1.281741	0.468437	-0.008643
O30	O	1.615074	0.801770	0.324691
O31	O	0.870944	0.219866	-0.162565
O32	O	1.204278	0.553200	0.170768
O33	O	1.537611	0.886533	0.504102
O34	O	0.768927	0.219847	-0.264604
O35	O	1.102260	0.553180	0.068729
O36	O	1.435593	0.886513	0.402063
O37	O	0.870970	0.284069	-0.443964
O38	O	1.204303	0.617403	-0.110631
O39	O	1.537636	0.950736	0.222702
O40	O	0.768887	0.284063	-0.341903
O41	O	1.102220	0.617397	-0.008570
O42	O	1.435554	0.950730	0.324764
O43	O	0.948356	0.219857	-0.443996
O44	O	1.281689	0.553190	-0.110663
O45	O	1.615022	0.886524	0.222671
O46	O	0.948150	0.368852	-0.264571
O47	O	1.281483	0.702185	0.068763
O48	O	1.614816	1.035518	0.402096
O49	O	0.870852	0.368837	-0.341884
O50	O	1.204186	0.702170	-0.008551
O51	O	1.537519	1.035504	0.324783
C52	C	0.746066	0.251953	-0.303251
C53	C	1.079400	0.585286	0.030082
C54	C	1.412733	0.918619	0.363415
C55	C	0.676098	0.251957	-0.303259
C56	C	1.009432	0.585290	0.030075
C57	C	1.342765	0.918623	0.363408
C58	C	0.176686	0.218608	-0.343617
C59	C	0.510019	0.551942	-0.010284
C60	C	0.843352	0.885275	0.323049
C61	C	0.242428	0.218605	-0.343617
C62	C	0.575762	0.551938	-0.010284
C63	C	0.909095	0.885271	0.323049
C64	C	0.275259	0.251989	-0.303284
C65	C	0.608592	0.585322	0.030050
C66	C	0.941925	0.918655	0.363383
C67	C	0.242341	0.285388	-0.262959
C68	C	0.575675	0.618722	0.070375
C69	C	0.909008	0.952055	0.403708
C70	C	0.176600	0.285395	-0.262964
C71	C	0.509933	0.618728	0.070369
C72	C	0.843267	0.952062	0.403702
N73	N	0.378448	0.255922	-0.248164
N74	N	0.711781	0.589255	0.085169
N75	N	1.045114	0.922589	0.418503
N76	N	0.440899	0.255913	-0.248160
N77	N	0.774232	0.589246	0.085173
N78	N	1.107566	0.922579	0.418506
C79	C	0.473333	0.251971	-0.303265
C80	C	0.806667	0.585305	0.030068
C81	C	1.140000	0.918638	0.363402
N82	N	0.440957	0.248030	-0.358375
N83	N	0.774291	0.581363	-0.025042
N84	N	1.107624	0.914696	0.308292
N85	N	0.378500	0.248036	-0.358378
N86	N	0.711833	0.581370	-0.025044
N87	N	1.045167	0.914703	0.308289
C88	C	0.346544	0.251985	-0.303273
C89	C	0.679877	0.585319	0.030060
C90	C	1.013211	0.918652	0.363393
C91	C	0.577529	0.218572	-0.343591
C92	C	0.910862	0.551905	-0.010257
C93	C	1.244195	0.885239	0.323076
C94	C	0.643272	0.218572	-0.343592
C95	C	0.976606	0.551905	-0.010258
C96	C	1.309939	0.885238	0.323075
C97	C	0.643184	0.285353	-0.262927
C98	C	0.976517	0.618686	0.070406
C99	C	1.309851	0.952020	0.403739
C100	C	0.577441	0.285356	-0.262932
C101	C	0.910775	0.618689	0.070401
C102	C	1.244108	0.952022	0.403735
C103	C	0.544618	0.251963	-0.303263
C104	C	0.877951	0.585296	0.030070
C105	C	1.211284	0.918629	0.363404
C106	C	0.909499	0.387815	-0.303234
C107	C	1.242833	0.721149	0.030099
C108	C	1.576166	1.054482	0.363432
C109	C	0.909506	0.445929	-0.303240
C110	C	1.242839	0.779263	0.030093
C111	C	1.576173	1.112596	0.363426
C112	C	0.949919	0.806287	-0.263057
C113	C	1.283253	1.139621	0.070277
C114	C	1.616586	1.472954	0.403610
C115	C	0.949939	0.860892	-0.263063
C116	C	1.283272	1.194225	0.070271
C117	C	1.616605	1.527558	0.403604
O118	O	0.984216	0.889124	-0.228877
O119	O	1.317549	1.222458	0.104456
O120	O	1.650883	1.555791	0.437790
N121	N	0.909669	0.888212	-0.303283
N122	N	1.243002	1.221545	0.030050
N123	N	1.576335	1.554878	0.363384
C124	C	0.869381	0.860925	-0.343505
C125	C	1.202715	1.194258	-0.010171
C126	C	1.536048	1.527591	0.323162
O127	O	0.835131	0.889176	-0.377716
O128	O	1.168464	1.222510	-0.044383
O129	O	1.501797	1.555843	0.288950
C130	C	0.869366	0.806321	-0.343501
C131	C	1.202699	1.139655	-0.010168
C132	C	1.536032	1.472988	0.323165
C133	C	0.909634	0.779004	-0.303274
C134	C	1.242967	1.112337	0.030060
C135	C	1.576300	1.445671	0.363393
C136	C	0.990185	0.778970	-0.222833
C137	C	1.323518	1.112304	0.110501
C138	C	1.656851	1.445637	0.443834
C139	C	0.990164	0.724370	-0.222826
C140	C	1.323498	1.057703	0.110507
C141	C	1.656831	1.391036	0.443841
C142	C	0.949879	0.697086	-0.263043
C143	C	1.283212	1.030420	0.070290
C144	C	1.616546	1.363753	0.403624
C145	C	0.909614	0.724404	-0.303267
C146	C	1.242947	1.057737	0.030066
C147	C	1.576280	1.391070	0.363400
C148	C	0.829082	0.779035	-0.383726
C149	C	1.162415	1.112368	-0.050392
C150	C	1.495749	1.445702	0.282941
C151	C	0.829070	0.724428	-0.383719
C152	C	1.162403	1.057761	-0.050386
C153	C	1.495737	1.391095	0.282947
C154	C	0.869338	0.697111	-0.343492
C155	C	1.202672	1.030444	-0.010158
C156	C	1.536005	1.363778	0.323175
C157	C	0.869308	0.642520	-0.343477
C158	C	1.202641	0.975853	-0.010144
C159	C	1.535974	1.309186	0.323189
N160	N	0.909578	0.615200	-0.303257
N161	N	1.242911	0.948533	0.030076
N162	N	1.576244	1.281866	0.363410
C163	C	0.949863	0.642483	-0.263040
C164	C	1.283197	0.975816	0.070294
C165	C	1.616530	1.309150	0.403627
C166	C	0.869418	0.975595	-0.343509
C167	C	1.202751	1.308928	-0.010176
C168	C	1.536085	1.642262	0.323157
C169	C	0.869430	1.030197	-0.343510
C170	C	1.202763	1.363531	-0.010177
C171	C	1.536097	1.696864	0.323157
C172	C	0.949988	1.030161	-0.263069
C173	C	1.283322	1.363494	0.070265
C174	C	1.616655	1.696828	0.403598
C175	C	0.949973	0.975558	-0.263065
C176	C	1.283306	1.308891	0.070268
C177	C	1.616639	1.642224	0.403601
C178	C	0.909688	0.948275	-0.303289
C179	C	1.243021	1.281609	0.030044
C180	C	1.576355	1.614942	0.363378
C181	C	0.949817	0.527818	-0.263028
C182	C	1.283151	0.861151	0.070305
C183	C	1.616484	1.194485	0.403638
C184	C	0.949792	0.473213	-0.263023
C185	C	1.283125	0.806546	0.070310
C186	C	1.616458	1.139879	0.403643
C187	C	0.869236	0.473254	-0.343467
C188	C	1.202569	0.806587	-0.010133
C189	C	1.535903	1.139921	0.323200
C190	C	0.869259	0.527855	-0.343470
C191	C	1.202592	0.861188	-0.010136
C192	C	1.535926	1.194521	0.323197
C193	C	0.909555	0.555135	-0.303248
C194	C	1.242888	0.888469	0.030085
C195	C	1.576221	1.221802	0.363418
O196	O	0.835050	0.614252	-0.377647
O197	O	1.168383	0.947586	-0.044314
O198	O	1.501716	1.280919	0.289019
O199	O	0.984114	0.614225	-0.228840
O200	O	1.317447	0.947558	0.104494
O201	O	1.650781	1.280891	0.437827
C202	C	1.073808	0.251993	-0.303287
C203	C	1.407141	0.585326	0.030046
C204	C	1.740475	0.918660	0.363379
C205	C	1.143776	0.252002	-0.303295
C206	C	1.477110	0.585335	0.030038
C207	C	1.810443	0.918669	0.363372
C208	C	0.909670	0.251962	-0.467459
C209	C	1.243003	0.585295	-0.134126
C210	C	1.576337	0.918628	0.199207
C211	C	0.909692	0.251957	-0.537427
C212	C	1.243026	0.585290	-0.204094
C213	C	1.576359	0.918624	0.129239
C214	C	0.909730	1.115600	-0.303307
C215	C	1.243064	1.448933	0.030027
C216	C	1.576397	1.782266	0.363360
C217	C	0.909718	1.057486	-0.303295
C218	C	1.243051	1.390819	0.030038
C219	C	1.576385	1.724152	0.363372
C220	C	0.949985	0.218520	-0.570312
C221	C	1.283319	0.551853	-0.236978
C222	C	1.616652	0.885187	0.096355
C223	C	0.949985	0.218497	-0.636054
C224	C	1.283318	0.551831	-0.302721
C225	C	1.616651	0.885164	0.030613
C226	C	0.909697	0.251921	-0.668910
C227	C	1.243031	0.585254	-0.335577
C228	C	1.576364	0.918588	-0.002243
C229	C	0.869396	0.285360	-0.636018
C230	C	1.202730	0.618693	-0.302685
C231	C	1.536063	0.952027	0.030649
C232	C	0.869394	0.285378	-0.570277
C233	C	1.202727	0.618711	-0.236943
C234	C	1.536061	0.952045	0.096390
N235	N	0.904828	0.297659	-0.772125
N236	N	1.238162	0.630992	-0.438792
N237	N	1.571495	0.964325	-0.105459
N238	N	0.904834	0.297640	-0.834577
N239	N	1.238168	0.630973	-0.501244
N240	N	1.571501	0.964307	-0.167910
C241	C	0.909701	0.251868	-0.866985
C242	C	1.243035	0.585201	-0.533652
C243	C	1.576368	0.918535	-0.200318
N244	N	0.914574	0.206114	-0.834582
N245	N	1.247908	0.539447	-0.501249
N246	N	1.581241	0.872781	-0.167915
N247	N	0.914571	0.206133	-0.772125
N248	N	1.247905	0.539466	-0.438792
N249	N	1.581238	0.872800	-0.105458
C250	C	0.909695	0.251905	-0.740195
C251	C	1.243028	0.585238	-0.406862
C252	C	1.576362	0.918572	-0.073529
C253	C	0.949996	0.218404	-0.971155
C254	C	1.283329	0.551737	-0.637821
C255	C	1.616662	0.885070	-0.304488
C256	C	0.949990	0.218380	-1.036898
C257	C	1.283324	0.551713	-0.703565
C258	C	1.616657	0.885047	-0.370232
C259	C	0.869405	0.285247	-1.036861
C260	C	1.202739	0.618581	-0.703528
C261	C	1.536072	0.951914	-0.370194
C262	C	0.869407	0.285266	-0.971118
C263	C	1.202741	0.618600	-0.637785
C264	C	1.536074	0.951933	-0.304452
C265	C	0.909706	0.251845	-0.938269
C266	C	1.243039	0.585178	-0.604936
C267	C	1.576372	0.918512	-0.271603
C268	C	0.909602	0.251946	-0.139717
C269	C	1.242935	0.585279	0.193616
C270	C	1.576269	0.918613	0.526949
C271	C	0.909702	0.251803	-0.069750
C272	C	1.243035	0.585137	0.263584
C273	C	1.576368	0.918470	0.596917
H274	H	0.669914	0.312539	-0.230092
H275	H	1.003247	0.645872	0.103241
H276	H	1.336580	0.979206	0.436575
C277	C	0.278452	0.322108	-0.218591
C278	C	0.611785	0.655442	0.114742
C279	C	0.945118	0.988775	0.448076
H280	H	0.322319	0.317318	-0.224358
H281	H	0.655652	0.650651	0.108976
H282	H	0.988985	0.983985	0.442309
H283	H	0.267661	0.357250	-0.227727
H284	H	0.600994	0.690583	0.105606
H285	H	0.934328	1.023917	0.438939
H286	H	0.267659	0.314404	-0.176312
H287	H	0.600993	0.647737	0.157022
H288	H	0.934326	0.981071	0.490355
H289	H	1.022994	0.801179	-0.190083
H290	H	1.356327	1.134512	0.143251
H291	H	1.689660	1.467845	0.476584
H292	H	0.550646	0.312546	-0.230095
H293	H	0.883980	0.645879	0.103239
H294	H	1.217313	0.979213	0.436572
C295	C	0.994321	0.181605	-1.073074
C296	C	1.327655	0.514938	-0.739741
C297	C	1.660988	0.848271	-0.406407
H298	H	0.988549	0.186377	-1.116932
H299	H	1.321883	0.519711	-0.783599
H300	H	1.655216	0.853044	-0.450266
H301	H	1.036605	0.189274	-1.062314
H302	H	1.369939	0.522607	-0.728981
H303	H	1.703272	0.855940	-0.395648
H304	H	0.985151	0.146472	-1.062300
H305	H	1.318484	0.479806	-0.728967
H306	H	1.651818	0.813139	-0.395634
C307	C	0.824930	0.443238	-0.387710
C308	C	1.158264	0.776571	-0.054376
C309	C	1.491597	1.109904	0.278957
H310	H	0.800948	0.467324	-0.411668
H311	H	1.134281	0.800658	-0.078335
H312	H	1.467614	1.133991	0.254998
H313	H	0.849000	0.421909	-0.415151
H314	H	1.182333	0.755243	-0.081818
H315	H	1.515666	1.088576	0.251516
H316	H	0.797504	0.421966	-0.363604
H317	H	1.130837	0.755299	-0.030270
H318	H	1.464170	1.088632	0.303063
H319	H	0.550802	0.191381	-0.376430
H320	H	0.884135	0.524714	-0.043097
H321	H	1.217469	0.858048	0.290236
H322	H	0.982799	0.191305	-0.543570
H323	H	1.316132	0.524639	-0.210236
H324	H	1.649466	0.857972	0.123097
H325	H	0.670066	0.191380	-0.376432
H326	H	1.003399	0.524714	-0.043098
H327	H	1.336733	0.858047	0.290235
H328	H	0.982583	0.450973	-0.230263
H329	H	1.315916	0.784306	0.103070
H330	H	1.649249	1.117639	0.436404
H331	H	0.269228	0.191409	-0.376452
H332	H	0.602562	0.524743	-0.043118
H333	H	0.935895	0.858076	0.290215
H334	H	0.982631	0.550024	-0.230278
H335	H	1.315965	0.883357	0.103056
H336	H	1.649298	1.216690	0.436389
C337	C	0.825089	0.322051	-0.934944
C338	C	1.158422	0.655385	-0.601611
C339	C	1.491756	0.988718	-0.268278
H340	H	0.801097	0.341957	-0.963926
H341	H	1.134431	0.675290	-0.630593
H342	H	1.467764	1.008624	-0.297259
H343	H	0.797681	0.302055	-0.909288
H344	H	1.131015	0.635388	-0.575955
H345	H	1.464348	0.968721	-0.242622
H346	H	0.849149	0.344845	-0.909308
H347	H	1.182483	0.678178	-0.575975
H348	H	1.515816	1.011511	-0.242641
H349	H	1.022956	0.702131	-0.190071
H350	H	1.356289	1.035465	0.143262
H351	H	1.689623	1.368798	0.476596
C352	C	0.140580	0.181884	-0.387985
C353	C	0.473913	0.515218	-0.054652
C354	C	0.807247	0.848551	0.278682
H355	H	0.096713	0.186668	-0.382213
H356	H	0.430046	0.520001	-0.048879
H357	H	0.763379	0.853335	0.284454
H358	H	0.151374	0.189585	-0.430262
H359	H	0.484707	0.522919	-0.096928
H360	H	0.818040	0.856252	0.236405
H361	H	0.151372	0.146741	-0.378844
H362	H	0.484705	0.480074	-0.045511
H363	H	0.818038	0.813407	0.287823
C364	C	0.994272	0.945514	-0.218820
C365	C	1.327605	1.278847	0.114513
C366	C	1.660939	1.612180	0.447846
H367	H	1.018267	0.969588	-0.194874
H368	H	1.351600	1.302921	0.138460
H369	H	1.684934	1.636254	0.471793
H370	H	0.970204	0.924239	-0.191368
H371	H	1.303538	1.257572	0.141966
H372	H	1.636871	1.590905	0.475299
H373	H	1.021687	0.924186	-0.242928
H374	H	1.355020	1.257520	0.090405
H375	H	1.688354	1.590853	0.423738
C376	C	0.994300	1.060180	-0.218828
C377	C	1.327634	1.393513	0.114505
C378	C	1.660967	1.726846	0.447839
H379	H	0.988542	1.096611	-0.224598
H380	H	1.321876	1.429944	0.108736
H381	H	1.655209	1.763278	0.442069
H382	H	0.985105	1.051255	-0.176524
H383	H	1.318439	1.384588	0.156810
H384	H	1.651772	1.717922	0.490143
H385	H	1.036593	1.051199	-0.228080
H386	H	1.369926	1.384532	0.105254
H387	H	1.703259	1.717865	0.438587
C388	C	0.140398	0.322126	-0.218604
C389	C	0.473731	0.655459	0.114730
C390	C	0.807065	0.988792	0.448063
H391	H	0.169364	0.342007	-0.194579
H392	H	0.502697	0.675340	0.138754
H393	H	0.836030	1.008673	0.472088
H394	H	0.114746	0.344936	-0.242634
H395	H	0.448079	0.678270	0.090699
H396	H	0.781412	1.011603	0.424032
H397	H	0.114756	0.302090	-0.191218
H398	H	0.448089	0.635423	0.142115
H399	H	0.781422	0.968757	0.475448
C400	C	0.825131	1.060240	-0.387756
C401	C	1.158465	1.393574	-0.054423
C402	C	1.491798	1.726907	0.278910
H403	H	0.801141	1.036166	-0.411708
H404	H	1.134475	1.369500	-0.078375
H405	H	1.467808	1.702833	0.254958
H406	H	0.797721	1.081574	-0.363658
H407	H	1.131054	1.414907	-0.030325
H408	H	1.464388	1.748241	0.303009
H409	H	0.849208	1.081509	-0.415214
H410	H	1.182542	1.414842	-0.081880
H411	H	1.515875	1.748175	0.251453
H412	H	0.836608	0.953384	-0.376262
H413	H	1.169941	1.286718	-0.042929
H414	H	1.503275	1.620051	0.290404
C415	C	0.994315	0.181640	-0.935015
C416	C	1.327648	0.514973	-0.601681
C417	C	1.660982	0.848307	-0.268348
H418	H	0.988549	0.186445	-0.891151
H419	H	1.321883	0.519778	-0.557818
H420	H	1.655216	0.853111	-0.224485
H421	H	0.985138	0.146506	-0.945784
H422	H	1.318472	0.479839	-0.612451
H423	H	1.651805	0.813173	-0.279118
H424	H	1.036605	0.189297	-0.945808
H425	H	1.369938	0.522630	-0.612474
H426	H	1.703271	0.855964	-0.279141
H427	H	0.796288	0.801267	-0.416480
H428	H	1.129622	1.134601	-0.083147
H429	H	1.462955	1.467934	0.250186
H430	H	0.796266	0.702217	-0.416476
H431	H	1.129599	1.035551	-0.083143
H432	H	1.462933	1.368884	0.250190
H433	H	0.836579	0.312606	-0.543503
H434	H	1.169913	0.645939	-0.210170
H435	H	1.503246	0.979272	0.123164
C436	C	0.825094	0.322016	-1.072995
C437	C	1.158427	0.655350	-0.739661
C438	C	1.491761	0.988683	-0.406328
H439	H	0.830869	0.317220	-1.116858
H440	H	1.164203	0.650553	-0.783525
H441	H	1.497536	0.983887	-0.450191
H442	H	0.782805	0.314367	-1.062206
H443	H	1.116138	0.647700	-0.728872
H444	H	1.449471	0.981033	-0.395539
H445	H	0.834280	0.357151	-1.062221
H446	H	1.167614	0.690484	-0.728887
H447	H	1.500947	1.023817	-0.395554
H448	H	0.836471	0.550097	-0.376228
H449	H	1.169805	0.883431	-0.042895
H450	H	1.503138	1.216764	0.290438
H451	H	0.982795	0.191266	-0.662834
H452	H	1.316128	0.524600	-0.329500
H453	H	1.649461	0.857933	0.003833
C454	C	0.825084	0.322127	-0.672157
C455	C	1.158418	0.655461	-0.338823
C456	C	1.491751	0.988794	-0.005490
H457	H	0.830862	0.317332	-0.716020
H458	H	1.164195	0.650666	-0.382687
H459	H	1.497528	0.983999	-0.049353
H460	H	0.782796	0.314475	-0.661369
H461	H	1.116129	0.647808	-0.328036
H462	H	1.449462	0.981142	0.005297
H463	H	0.834267	0.357262	-0.661382
H464	H	1.167600	0.690595	-0.328048
H465	H	1.500934	1.023929	0.005285
