data_functionalizedCrystal
_audit_creation_method	'MofGen! by Chris Wilmer'
_symmetry_space_group_name_H-M	'P1'
_symmetry_Int_Tables_number	1
_symmetry_cell_setting	triclinic
loop_
_symmetry_equiv_pos_as_xyz
  x,y,z
_cell_length_a	29.839131
_cell_length_b	19.121246
_cell_length_c	19.120904
_cell_angle_alpha	89.874251
_cell_angle_beta	87.586696
_cell_angle_gamma	87.524876
loop_
_atom_site_label
_atom_site_type_symbol
_atom_site_fract_x
_atom_site_fract_y
_atom_site_fract_z
Zn1	Zn	-0.162218	-1.054794	0.442219
Zn2	Zn	-0.234014	-1.059681	0.324983
Zn3	Zn	-0.161950	-0.942561	0.319986
Zn4	Zn	-0.240377	-0.937487	0.437167
O5	O	-0.199640	-0.998631	0.381088
O6	O	-0.169191	-1.153551	0.430873
O7	O	-0.221679	-1.048313	0.226215
O8	O	-0.099117	-0.957527	0.336224
O9	O	-0.221939	-1.157141	0.344740
O10	O	-0.099314	-1.039984	0.426027
O11	O	-0.168735	-0.962265	0.222544
O12	O	-0.174905	-0.843779	0.331325
O13	O	-0.232784	-0.948879	0.535941
O14	O	-0.232525	-0.840051	0.417417
O15	O	-0.175361	-1.035064	0.539653
O16	O	-0.297727	-1.043394	0.339841
O17	O	-0.302402	-0.953618	0.422262
C18	C	-0.204377	-0.816477	0.373281
C19	C	-0.206414	-0.738550	0.369957
C20	C	-0.179956	-0.700068	0.413309
C21	C	-0.181868	-0.626847	0.410180
C22	C	-0.210241	-0.592110	0.363703
C23	C	-0.236701	-0.630597	0.320346
C24	C	-0.234786	-0.703817	0.323472
C25	C	-0.217393	-0.371129	0.352015
C26	C	-0.219307	-0.297905	0.348893
C27	C	-0.164473	-0.294160	0.438727
C28	C	-0.162563	-0.367380	0.441852
C29	C	-0.189020	-0.405861	0.398493
C30	C	-0.212198	-0.517267	0.360505
C31	C	-0.187061	-0.480703	0.401687
C32	C	-0.316365	-0.998504	0.381062
C33	C	-0.366300	-0.998513	0.381076
C34	C	-0.725333	-0.951913	0.424003
C35	C	-0.537662	-0.951822	0.423977
O36	O	-0.515481	-0.912049	0.460456
N37	N	-0.511744	-0.998586	0.381100
C38	C	-0.532746	-1.045380	0.338230
O39	O	-0.506394	-1.085159	0.301765
C40	C	-0.720416	-1.045474	0.338260
C41	C	-0.746332	-0.998702	0.381135
C42	C	-0.751249	-0.905146	0.466875
C43	C	-0.798164	-0.905166	0.466878
C44	C	-0.819163	-0.951955	0.424010
C45	C	-0.793247	-0.998723	0.381138
C46	C	-0.741417	-1.092271	0.295394
C47	C	-0.788338	-1.092292	0.295406
C48	C	-0.814254	-1.045520	0.338281
C49	C	-0.861161	-1.045533	0.338273
N50	N	-0.887080	-0.998768	0.381150
C51	C	-0.866081	-0.951979	0.424018
C52	C	-0.434216	-1.045326	0.338216
C53	C	-0.387299	-1.045302	0.338208
C54	C	-0.392218	-0.951744	0.423956
C55	C	-0.439137	-0.951766	0.423961
C56	C	-0.460135	-0.998562	0.381093
C57	C	-0.964605	-0.952026	0.424022
C58	C	-1.011524	-0.952049	0.424019
C59	C	-1.006601	-1.045609	0.338273
C60	C	-0.959686	-1.045584	0.338273
C61	C	-0.938689	-0.998790	0.381153
O62	O	-0.883372	-1.085290	0.301819
O63	O	-0.892440	-0.912217	0.460489
C64	C	-0.678418	-0.951893	0.424000
C65	C	-0.652502	-0.998661	0.381128
C66	C	-0.673501	-1.045449	0.338260
C67	C	-0.605585	-0.998636	0.381120
C68	C	-0.584586	-0.951847	0.423988
C69	C	-0.610504	-0.905083	0.466866
C70	C	-0.657419	-0.905104	0.466869
C71	C	-0.647583	-1.092214	0.295382
C72	C	-0.600668	-1.092189	0.295382
C73	C	-0.579669	-1.045400	0.338251
C74	C	-0.082459	-0.998776	0.381132
C75	C	-0.032523	-0.998838	0.381150
C76	C	-0.204813	-0.990861	0.563946
C77	C	-0.207017	-0.987550	0.641868
C78	C	-0.194882	-0.181496	0.388921
C79	C	-0.192848	-0.259423	0.392245
C80	C	-0.194454	-1.006411	0.198944
C81	C	-0.192120	-1.009857	0.121028
C82	C	-0.178157	-1.030864	0.680410
C83	C	-0.180226	-1.027744	0.753627
C84	C	-0.211159	-0.981313	0.788300
C85	C	-0.240020	-0.937995	0.749753
C86	C	-0.237948	-0.941111	0.676538
C87	C	-0.218909	-0.969655	1.009266
C88	C	-0.220980	-0.966543	1.082486
C89	C	-0.161185	-1.056292	1.086355
C90	C	-0.159118	-1.059408	1.013138
C91	C	-0.187977	-1.016086	0.974597
C92	C	-0.213276	-0.978125	0.863139
C93	C	-0.185858	-1.019272	0.899760
H94	H	-0.235299	-0.488976	0.322663
O95	O	-0.159463	-0.514334	0.446855
C96	C	-0.105305	-0.502900	0.535669
C97	C	-0.136529	-0.464717	0.484534
H98	H	-0.086762	-0.462801	0.566156
H99	H	-0.079947	-0.538540	0.505047
H100	H	-0.126118	-0.535632	0.573696
H101	H	-0.115754	-0.431948	0.446495
H102	H	-0.161889	-0.429119	0.515201
O103	O	-0.371836	-0.906199	0.465524
C104	C	-0.361632	-0.785473	0.494385
C105	C	-0.384738	-0.836966	0.447250
H106	H	-0.372061	-0.729488	0.479638
H107	H	-0.323644	-0.793435	0.487005
H108	H	-0.372109	-0.795383	0.551449
H109	H	-0.374296	-0.827087	0.390169
H110	H	-0.422721	-0.828993	0.454691
O111	O	-0.251086	-0.921474	1.116097
C112	C	-0.329023	-0.886410	1.137057
C113	C	-0.294979	-0.937480	1.098936
H114	H	-0.364519	-0.899342	1.123208
H115	H	-0.322231	-0.830488	1.120231
H116	H	-0.325521	-0.891620	1.196001
H117	H	-0.298462	-0.932333	1.039985
H118	H	-0.301782	-0.993381	1.115820
O119	O	-0.464290	-0.906406	0.465717
C120	C	-0.482878	-0.867186	0.583479
C121	C	-0.454375	-0.918607	0.536269
H122	H	-0.474865	-0.877023	0.640528
H123	H	-0.520026	-0.875237	0.576189
H124	H	-0.474820	-0.811192	0.568658
H125	H	-0.462394	-0.974622	0.551059
H126	H	-0.417235	-0.910496	0.543564
O127	O	-0.667978	-1.137789	0.253872
C128	C	-0.718109	-1.232945	0.248669
C129	C	-0.695050	-1.181346	0.295748
H130	H	-0.740010	-1.268164	0.282505
H131	H	-0.691519	-1.266407	0.218082
H132	H	-0.739896	-1.202423	0.210554
H133	H	-0.673265	-1.211812	0.333903
H134	H	-0.721663	-1.147884	0.326286
O135	O	-0.823382	-0.859834	0.508575
C136	C	-0.879235	-0.846330	0.602865
C137	C	-0.850715	-0.897746	0.555674
H138	H	-0.901333	-0.876962	0.640966
H139	H	-0.901307	-0.811079	0.569132
H140	H	-0.856150	-0.812880	0.633468
H141	H	-0.873766	-0.931242	0.525062
H142	H	-0.828638	-0.932949	0.589446
H143	H	-0.242414	-0.269624	0.311045
H144	H	-0.734156	-0.867045	0.501787
O145	O	-0.944286	-0.906505	0.465694
C146	C	-0.954129	-0.813739	0.550774
C147	C	-0.977198	-0.865245	0.503606
H148	H	-0.980729	-0.780377	0.581448
H149	H	-0.932250	-0.778414	0.517020
H150	H	-0.932325	-0.844335	0.588810
H151	H	-0.999026	-0.834705	0.465562
H152	H	-0.999050	-0.900570	0.537403
O153	O	-1.026959	-1.091147	0.296672
C154	C	-1.037222	-1.211875	0.267892
C155	C	-1.014125	-1.160382	0.315036
H156	H	-1.026862	-1.267863	0.282732
H157	H	-1.026731	-1.202073	0.210813
H158	H	-1.075204	-1.203806	0.275260
H159	H	-0.976140	-1.168421	0.307729
H160	H	-1.024652	-1.170197	0.372098
H161	H	-0.242415	-0.934390	0.977895
H162	H	-0.805432	-1.130402	0.260500
H163	H	-0.139460	-0.395658	0.479701
H164	H	-0.156853	-0.728345	0.451158
H165	H	-0.366201	-1.083380	0.303287
H166	H	-0.160324	-0.595518	0.445483
H167	H	-0.265204	-0.900187	0.777989
H168	H	-0.579570	-1.130275	0.260462
H169	H	-1.032623	-0.913960	0.458934
O170	O	-0.265938	-0.899065	0.638988
C171	C	-0.289263	-0.864119	0.524481
C172	C	-0.257532	-0.911768	0.566918
H173	H	-0.282485	-0.874383	0.466204
H174	H	-0.283248	-0.806971	0.536400
H175	H	-0.325573	-0.875762	0.539431
H176	H	-0.221211	-0.900187	0.551992
H177	H	-0.263586	-0.968901	0.554995
H178	H	-0.451308	-1.083434	0.303306
O179	O	-0.716299	-1.137682	0.253650
C180	C	-0.697674	-1.176875	0.135891
C181	C	-0.726154	-1.125412	0.183086
H182	H	-0.705625	-1.166963	0.078829
H183	H	-0.705751	-1.232884	0.150630
H184	H	-0.660534	-1.168845	0.143277
H185	H	-0.763302	-1.133378	0.175725
H186	H	-0.718039	-1.069422	0.168336
H187	H	-0.137689	-1.091561	1.117743
H188	H	-0.938584	-1.083663	0.303353
H189	H	-0.160671	-1.057072	0.871525
H190	H	-0.678516	-0.867018	0.501783
O191	O	-0.243370	-0.933125	0.896860
C192	C	-0.306584	-0.920102	0.979142
C193	C	-0.272540	-0.971145	0.940984
H194	H	-0.330171	-0.950819	1.014836
H195	H	-0.326894	-0.889687	0.939056
H196	H	-0.287867	-0.882000	1.011819
H197	H	-0.291221	-1.009289	0.908307
H198	H	-0.252231	-1.001509	0.981105
H199	H	-0.238937	-0.402452	0.316709
H200	H	-0.152969	-1.068675	0.652185
H201	H	-0.593399	-0.866983	0.501768
H202	H	-0.133930	-1.097218	0.984912
O203	O	-0.138787	-0.256674	0.480769
C204	C	-0.117452	-0.142215	0.515797
C205	C	-0.146561	-0.184581	0.468135
H206	H	-0.123733	-0.083920	0.505610
H207	H	-0.080483	-0.157110	0.504196
H208	H	-0.126612	-0.154256	0.572914
H209	H	-0.137440	-0.172563	0.411002
H210	H	-0.183521	-0.169681	0.479796
O211	O	-0.264252	-0.596745	0.275258
C212	C	-0.291486	-0.485610	0.230601
C213	C	-0.260270	-0.523856	0.281706
H214	H	-0.288270	-0.426674	0.235786
H215	H	-0.327704	-0.499406	0.243424
H216	H	-0.281569	-0.502445	0.174717
H217	H	-0.270147	-0.507042	0.337607
H218	H	-0.224060	-0.510060	0.268822
H219	H	-0.256330	-0.735148	0.288170
O220	O	-0.152143	-1.069716	0.791088
C221	C	-0.093589	-1.075699	0.874191
C222	C	-0.125366	-1.028085	0.831798
H223	H	-0.071938	-1.042060	0.907127
H224	H	-0.071096	-1.109403	0.836857
H225	H	-0.114234	-1.110891	0.910010
H226	H	-0.104757	-0.992851	0.795976
H227	H	-0.147860	-0.994429	0.869172
