data_functionalizedCrystal
_audit_creation_method	'MofGen! by Chris Wilmer'
_symmetry_space_group_name_H-M	'P1'
_symmetry_Int_Tables_number	1
_symmetry_cell_setting	triclinic
loop_
_symmetry_equiv_pos_as_xyz
  x,y,z
_cell_length_a	23.532361
_cell_length_b	23.532357
_cell_length_c	14.472310
_cell_angle_alpha	89.993352
_cell_angle_beta	89.991282
_cell_angle_gamma	82.828980
loop_
_atom_site_label
_atom_site_type_symbol
_atom_site_fract_x
_atom_site_fract_y
_atom_site_fract_z
O1	O	0.755272	0.069006	-0.076759
O2	O	0.589403	0.079037	-0.076783
O3	O	0.677354	-0.008913	-0.076751
O4	O	0.667321	0.156956	-0.076791
O5	O	0.677331	-0.008907	0.076931
O6	O	0.589380	0.079043	0.076899
O7	O	0.755249	0.069011	0.076923
Cu8	Cu	0.672313	0.074028	0.090943
Cu9	Cu	0.672339	0.074021	-0.090804
O10	O	0.667298	0.156962	0.076891
C11	C	0.568175	0.078789	0.000055
C12	C	0.504957	0.078034	0.000047
C13	C	0.231726	0.074727	-0.083719
C14	C	0.291126	0.075442	-0.083721
O15	O	0.321862	0.075790	-0.154965
N16	N	0.320819	0.075806	0.000051
C17	C	0.291110	0.075449	0.083831
O18	O	0.321821	0.075824	0.155086
C19	C	0.231712	0.074730	0.083833
C20	C	0.202021	0.074372	0.000055
C21	C	0.202035	0.074368	-0.167490
C22	C	0.142639	0.073655	-0.167487
C23	C	0.112935	0.073300	-0.083713
C24	C	0.142626	0.073658	0.000058
C25	C	0.202005	0.074369	0.167612
C26	C	0.142603	0.073650	0.167606
C27	C	0.112912	0.073292	0.083829
C28	C	0.053525	0.072589	0.083834
N29	N	0.023832	0.072225	0.000062
C30	C	0.053537	0.072581	-0.083712
C31	C	0.415850	0.076958	0.083822
C32	C	0.475247	0.077681	0.083821
C33	C	0.475258	0.077673	-0.083732
C34	C	0.415860	0.076954	-0.083730
C35	C	0.386157	0.076594	0.000050
C36	C	-0.071199	0.071082	-0.083700
C37	C	-0.130600	0.070370	-0.083689
C38	C	-0.130606	0.070376	0.083863
C39	C	-0.071210	0.071090	0.083853
C40	C	-0.041508	0.071441	0.000065
O41	O	0.022752	0.072239	0.155041
O42	O	0.022820	0.072198	-0.154954
C43	C	0.677092	-0.030127	0.000092
C44	C	0.676337	-0.093345	0.000101
C45	C	0.671613	-0.485358	-0.083722
C46	C	0.670895	-0.544758	-0.083727
O47	O	0.670516	-0.575476	-0.154972
N48	N	0.670527	-0.574466	0.000044
C49	C	0.670871	-0.544771	0.083826
O50	O	0.670492	-0.575495	0.155079
C51	C	0.671584	-0.485372	0.083830
C52	C	0.671958	-0.455668	0.000054
C53	C	0.671986	-0.455654	-0.167491
C54	C	0.672704	-0.396259	-0.167485
C55	C	0.673049	-0.366568	-0.083710
C56	C	0.672676	-0.396273	0.000059
C57	C	0.671924	-0.455678	0.167611
C58	C	0.672636	-0.396275	0.167608
C59	C	0.673010	-0.366571	0.083832
C60	C	0.673740	-0.307187	0.083840
N61	N	0.674108	-0.277479	0.000069
C62	C	0.673762	-0.307169	-0.083706
C63	C	0.669372	-0.669512	0.083810
C64	C	0.668663	-0.728911	0.083806
C65	C	0.668687	-0.728893	-0.083746
C66	C	0.669400	-0.669494	-0.083742
C67	C	0.669740	-0.639804	0.000039
C68	C	0.675271	-0.182436	-0.083687
C69	C	0.675992	-0.123036	-0.083674
C70	C	0.675966	-0.123058	0.083878
C71	C	0.675248	-0.182453	0.083865
C72	C	0.674899	-0.212140	0.000075
O73	O	0.674118	-0.276431	0.155049
O74	O	0.674134	-0.276438	-0.154947
C75	C	0.776477	0.069260	0.000082
C76	C	0.839695	0.070015	0.000085
C77	C	0.667560	0.178176	0.000045
C78	C	0.668315	0.241394	0.000031
N79	N	0.672298	0.074031	0.218774
N80	N	0.672359	0.074013	-0.218634
C81	C	0.672339	0.074019	0.592865
C82	C	0.625122	0.120923	0.553683
C83	C	0.625229	0.121093	0.446594
C84	C	0.672318	0.074025	0.407274
C85	C	0.731668	0.086659	0.446116
C86	C	0.731402	0.086992	0.553238
C87	C	0.660737	0.014340	0.553407
C88	C	0.659372	0.014746	0.446279
C89	C	0.672310	0.074028	0.302386
C90	C	0.672350	0.074018	0.697753
H91	H	-0.154802	0.070089	0.152070
C92	C	0.671612	-0.488305	-0.259652
H93	H	0.671941	-0.462100	-0.309533
H94	H	0.638121	-0.506941	-0.263160
H95	H	0.704558	-0.516011	-0.263131
C96	C	0.668303	-0.761557	-0.175901
H97	H	0.668629	-0.735362	-0.225798
H98	H	0.634807	-0.780189	-0.179384
H99	H	0.701245	-0.789268	-0.179377
H100	H	0.691555	-0.021766	0.419518
C101	C	-0.163257	0.069975	-0.175848
H102	H	-0.137054	0.070283	-0.225739
H103	H	-0.190967	0.102912	-0.179343
H104	H	-0.181887	0.036475	-0.179323
C105	C	0.707252	-0.032809	0.587643
H106	H	0.733619	-0.016237	0.625799
H107	H	0.726936	-0.050907	0.536133
H108	H	0.689897	-0.060365	0.622140
C109	C	0.234700	0.074764	-0.259649
H110	H	0.208502	0.074451	-0.309531
H111	H	0.262416	0.041830	-0.263140
H112	H	0.253325	0.108267	-0.263141
H113	H	0.669651	-0.645343	0.152039
H114	H	0.674984	-0.206599	-0.151917
H115	H	0.391689	0.076663	-0.151949
C116	C	0.234652	0.074765	0.259769
H117	H	0.208447	0.074445	0.309654
H118	H	0.253283	0.108261	0.263253
H119	H	0.262363	0.041824	0.263266
H120	H	-0.047022	0.071369	-0.151928
C121	C	0.507941	0.078061	-0.175882
H122	H	0.547569	0.078535	-0.163878
H123	H	0.493672	0.111158	-0.210317
H124	H	0.502753	0.044721	-0.210294
H125	H	0.499415	0.077982	0.152042
H126	H	0.118422	0.073362	0.235832
C127	C	0.383180	0.076574	0.175985
H128	H	0.409375	0.076899	0.225871
H129	H	0.364548	0.043079	0.179489
H130	H	0.355470	0.109516	0.179459
H131	H	-0.047036	0.071393	0.152072
C132	C	0.109985	0.073254	-0.259641
H133	H	0.070353	0.072780	-0.247654
H134	H	0.124267	0.040154	-0.294049
H135	H	0.115184	0.106591	-0.294069
H136	H	0.767616	0.054157	0.579156
C137	C	0.668257	-0.761580	0.175960
H138	H	0.668562	-0.735384	0.225850
H139	H	0.701192	-0.789294	0.179453
H140	H	0.634755	-0.780208	0.179438
C141	C	0.676404	-0.090361	-0.175829
H142	H	0.676887	-0.050734	-0.163834
H143	H	0.643076	-0.095552	-0.210260
H144	H	0.709513	-0.104637	-0.210241
H145	H	0.767629	0.053390	0.420645
C146	C	0.673104	-0.363590	-0.259640
H147	H	0.672789	-0.389786	-0.309527
H148	H	0.706598	-0.344955	-0.263131
H149	H	0.640160	-0.335882	-0.263124
C150	C	0.669805	-0.636824	-0.175895
H151	H	0.669495	-0.663018	-0.225784
H152	H	0.703299	-0.618188	-0.179376
H153	H	0.636862	-0.609116	-0.179384
C154	C	0.671507	-0.488339	0.259766
H155	H	0.671806	-0.462140	0.309652
H156	H	0.704441	-0.516053	0.263271
H157	H	0.638004	-0.506966	0.263239
C158	C	0.673013	-0.363620	0.259770
H159	H	0.672692	-0.389822	0.309657
H160	H	0.640076	-0.335907	0.263250
H161	H	0.706514	-0.344992	0.263264
C162	C	0.674838	-0.215130	0.176016
H163	H	0.675144	-0.188937	0.225910
H164	H	0.707770	-0.242847	0.179509
H165	H	0.641333	-0.233753	0.179487
H166	H	0.632602	0.165387	0.420951
H167	H	0.676249	-0.098874	0.152086
C168	C	0.745896	0.144768	0.409860
H169	H	0.715748	0.161404	0.371063
H170	H	0.780590	0.139199	0.375627
H171	H	0.750115	0.169558	0.460531
H172	H	0.581102	0.113617	0.420334
C173	C	0.745277	0.145774	0.586971
H174	H	0.751020	0.169227	0.535207
H175	H	0.779062	0.140779	0.623515
H176	H	0.714299	0.163589	0.622989
C177	C	0.565315	0.111006	0.588523
H178	H	0.568603	0.078174	0.627282
H179	H	0.541484	0.105193	0.537286
H180	H	0.548965	0.143533	0.622518
H181	H	0.632390	0.164968	0.580583
C182	C	0.603554	-0.002175	0.589929
H183	H	0.586219	0.027176	0.629587
H184	H	0.610411	-0.037121	0.623300
H185	H	0.578747	-0.006753	0.539424
C186	C	0.600398	0.001776	0.411987
H187	H	0.592812	-0.034135	0.435817
H188	H	0.600344	0.000499	0.346383
H189	H	0.571652	0.030964	0.432619
