data_functionalizedCrystal
_audit_creation_method	'MofGen! by Chris Wilmer'
_symmetry_space_group_name_H-M	'P1'
_symmetry_Int_Tables_number	1
_symmetry_cell_setting	triclinic
loop_
_symmetry_equiv_pos_as_xyz
  x,y,z
_cell_length_a	10.968094
_cell_length_b	11.026607
_cell_length_c	16.776229
_cell_angle_alpha	89.996140
_cell_angle_beta	102.120330
_cell_angle_gamma	96.379842
loop_
_atom_site_label
_atom_site_type_symbol
_atom_site_fract_x
_atom_site_fract_y
_atom_site_fract_z
O1	O	1.693901	0.170470	0.166375
O2	O	1.334292	0.186803	0.116981
O3	O	1.484293	0.001737	0.137587
O4	O	1.543901	0.355537	0.145769
O5	O	1.484265	0.001725	0.270160
O6	O	1.334264	0.186792	0.249553
O7	O	1.693873	0.170458	0.298948
Zn8	Zn	1.514064	0.178623	0.295299
Zn9	Zn	1.514101	0.178639	0.120629
O10	O	1.543873	0.355525	0.278341
C11	C	1.287525	0.185611	0.176845
C12	C	1.148212	0.182062	0.157710
C13	C	0.942090	0.176792	0.198072
C14	C	1.086079	0.180470	0.217858
C15	C	1.473282	-0.043571	0.202362
C16	C	1.440501	-0.178557	0.197856
C17	C	1.531016	-0.251612	0.210288
C18	C	1.497137	-0.391127	0.205632
C19	C	1.740640	0.171651	0.239081
C20	C	1.879954	0.175200	0.258212
C21	C	1.554883	0.400833	0.213565
C22	C	1.587665	0.535819	0.218065
N23	N	1.514048	0.178612	0.414508
N24	N	1.514125	0.178640	0.001421
C25	C	1.580502	0.096699	0.465354
C26	C	1.580508	0.096698	0.548808
C27	C	1.514068	0.178617	0.581414
C28	C	1.447606	0.260534	0.530561
C29	C	1.447593	0.260528	0.447108
C30	C	1.447657	0.260559	0.867115
C31	C	1.447678	0.260561	0.950574
C32	C	1.580572	0.096728	0.968814
C33	C	1.580559	0.096722	0.885362
C34	C	1.514092	0.178634	0.834515
C35	C	1.514084	0.178633	0.744026
C36	C	1.514083	0.178625	0.671903
H37	H	0.888688	0.175426	0.131937
H38	H	1.633590	-0.210870	0.224382
H39	H	1.634689	0.030026	1.010222
N40	N	1.077495	0.180265	0.070098
H41	H	1.138746	0.181832	0.032684
H42	H	1.016403	0.103639	0.058602
N43	N	1.361254	-0.445072	0.186959
H44	H	1.356312	-0.537090	0.186278
H45	H	1.318272	-0.417056	0.230204
N46	N	1.156793	0.182261	0.305470
H47	H	1.249629	0.184633	0.307186
H48	H	1.140746	0.256914	0.334840
N49	N	1.723551	-0.410245	0.236737
H50	H	1.766610	-0.438175	0.193506
H51	H	1.728394	-0.318236	0.237435
H52	H	1.634619	0.029997	0.590207
N53	N	1.304625	-0.232508	0.179185
H54	H	1.299683	-0.324526	0.178504
H55	H	1.261643	-0.204492	0.222430
N56	N	1.375933	0.348884	0.565723
H57	H	1.386026	0.336462	0.626306
H58	H	1.409737	0.435261	0.555767
H59	H	0.933355	0.176553	0.324347
N60	N	1.375963	0.348896	0.812279
H61	H	1.333879	0.400791	0.845601
H62	H	1.435877	0.403072	0.785867
H63	H	1.634611	0.029996	0.438814
N64	N	1.375918	0.348884	0.392270
H65	H	1.435769	0.403138	0.365852
H66	H	1.310126	0.301841	0.348670
N67	N	1.375997	0.348912	0.985738
H68	H	1.310228	0.301950	1.011342
H69	H	1.435945	0.403156	1.028537
H70	H	1.634666	0.030020	0.858818
