data_functionalizedCrystal
_audit_creation_method	'MofGen! by Chris Wilmer'
_symmetry_space_group_name_H-M	'P1'
_symmetry_Int_Tables_number	1
_symmetry_cell_setting	triclinic
loop_
_symmetry_equiv_pos_as_xyz
  x,y,z
_cell_length_a	18.101398
_cell_length_b	19.121073
_cell_length_c	18.101389
_cell_angle_alpha	87.582834
_cell_angle_beta	90.024327
_cell_angle_gamma	92.466048
loop_
_atom_site_label
_atom_site_type_symbol
_atom_site_fract_x
_atom_site_fract_y
_atom_site_fract_z
Zn1	Zn	1.119546	-0.279777	0.431393
Zn2	Zn	1.114163	-0.397213	0.312820
Zn3	Zn	0.995705	-0.279770	0.307553
Zn4	Zn	0.990379	-0.397183	0.436608
O5	O	1.054948	-0.338486	0.372093
O6	O	1.222464	-0.295371	0.415685
O7	O	1.098426	-0.381643	0.208489
O8	O	1.016615	-0.181486	0.319594
O9	O	1.218510	-0.381650	0.328571
O10	O	1.107600	-0.181491	0.410578
O11	O	1.011396	-0.295358	0.204619
O12	O	0.891366	-0.295329	0.324651
O13	O	1.007536	-0.381599	0.539548
O14	O	0.887453	-0.381592	0.419467
O15	O	1.102435	-0.295342	0.535717
O16	O	1.093261	-0.495494	0.333628
O17	O	1.002317	-0.495472	0.424574
C18	C	0.862539	-0.338457	0.372054
C19	C	0.780225	-0.338462	0.372055
C20	C	1.046647	-0.520967	0.380254
C21	C	1.043164	-0.599033	0.383770
C22	C	0.481132	-0.338506	0.372119
C23	C	0.514907	-0.283960	0.312731
C24	C	0.600518	-0.284107	0.312494
C25	C	0.629515	-0.338483	0.372087
C26	C	0.595072	-0.412466	0.354082
C27	C	0.509440	-0.412163	0.353673
C28	C	0.513591	-0.319712	0.449675
C29	C	0.599316	-0.318064	0.449173
C30	C	0.713375	-0.338475	0.372071
C31	C	0.397272	-0.338519	0.372134
C32	C	1.021110	-1.040561	0.406089
C33	C	1.024383	-0.967209	0.402777
C34	C	1.073404	-0.930524	0.353804
C35	C	1.119161	-0.967194	0.308146
C36	C	1.115892	-1.040544	0.311462
C37	C	1.085651	-0.709053	0.341428
C38	C	1.088916	-0.635698	0.338114
C39	C	0.994138	-0.635718	0.432746
C40	C	0.990869	-0.709070	0.436055
C41	C	1.036629	-0.745733	0.390399
C42	C	1.076749	-0.855547	0.350416
C43	C	1.033287	-0.820709	0.393792
C44	C	1.248109	-0.338515	0.372134
C45	C	1.330422	-0.338527	0.372151
C46	C	1.054992	-0.338468	0.565255
C47	C	1.055010	-0.338460	0.647568
C48	C	1.063302	-0.155292	0.363917
C49	C	1.066862	-0.077226	0.360432
C50	C	1.054950	-0.338453	0.179681
C51	C	1.055084	-0.338262	0.097359
C52	C	1.055059	-0.338329	0.946654
C53	C	0.995162	-0.392427	0.917731
C54	C	0.995306	-0.392678	0.832124
C55	C	1.055035	-0.338394	0.798274
C56	C	1.132157	-0.358491	0.830281
C57	C	1.131820	-0.358846	0.915942
C58	C	1.038518	-0.264013	0.911743
C59	C	1.036763	-0.264442	0.826112
C60	C	1.055025	-0.338430	0.714416
C61	C	1.055074	-0.338295	1.030512
H62	H	0.624025	-0.229245	0.323399
F63	F	1.089978	-0.208961	0.795680
F64	F	1.095594	-0.211330	0.935880
H65	H	1.177838	-0.320327	0.808223
H66	H	0.496810	-0.228931	0.323481
F67	F	1.141086	-0.596656	0.285980
H68	H	0.491549	-0.359441	0.493884
F69	F	1.008897	-0.463980	0.949120
H70	H	0.492805	-0.296243	0.255526
H71	H	1.146887	-0.412239	0.811251
F72	F	0.626526	-0.300341	0.237290
H73	H	0.613561	-0.454194	0.396130
H74	H	0.938013	-0.380101	0.810527
H75	H	0.488712	-0.428102	0.297074
F76	F	1.171339	-0.928149	0.256029
F77	F	0.945444	-0.596693	0.481336
H78	H	1.122909	-0.738896	0.304249
H79	H	1.153150	-1.070396	0.274285
F80	F	1.009262	-0.464670	0.808579
H81	H	1.116663	-0.825672	0.310540
F82	F	0.479884	-0.467082	0.407977
H83	H	0.615758	-0.428682	0.298115
F84	F	1.150658	-0.429853	0.945250
F85	F	0.488512	-0.250425	0.471908
F86	F	1.191865	-0.309549	0.940842
F87	F	0.966518	-0.240083	0.938881
F88	F	0.981119	-0.859753	0.445914
F89	F	0.968929	-1.079597	0.458208
H90	H	0.622107	-0.263622	0.462810
H91	H	0.980024	-0.249287	0.805100
F92	F	0.975689	-0.928191	0.451374
H93	H	0.619066	-0.354898	0.495525
H94	H	0.950942	-0.738934	0.475925
F95	F	0.920037	-0.376154	0.943901
