data_functionalizedCrystal
_audit_creation_method	'MofGen! by Chris Wilmer'
_symmetry_space_group_name_H-M	'P1'
_symmetry_Int_Tables_number	1
_symmetry_cell_setting	triclinic
loop_
_symmetry_equiv_pos_as_xyz
  x,y,z
_cell_length_a	13.262397
_cell_length_b	11.804917
_cell_length_c	13.339070
_cell_angle_alpha	74.891556
_cell_angle_beta	99.432227
_cell_angle_gamma	117.338718
loop_
_atom_site_label
_atom_site_type_symbol
_atom_site_fract_x
_atom_site_fract_y
_atom_site_fract_z
O1	O	-1.491659	-0.384101	-0.057533
O2	O	-1.174549	-0.281394	-0.093465
O3	O	-1.296710	-0.320964	0.069489
O4	O	-1.369497	-0.344531	-0.220488
O5	O	-1.328865	-0.529417	0.112330
O6	O	-1.206703	-0.489847	-0.050624
O7	O	-1.523813	-0.592554	-0.014692
Cu8	Cu	-1.368194	-0.560234	-0.028746
Cu9	Cu	-1.330168	-0.313714	-0.079411
O10	O	-1.401652	-0.552984	-0.177647
C11	C	-1.149210	-0.372207	-0.073969
C12	C	-1.025801	-0.332236	-0.079690
N13	N	-1.394948	-0.733625	0.006890
C14	C	-0.950294	-0.199826	-0.105730
C15	C	-0.834347	-0.162275	-0.111115
C16	C	-0.793894	-0.257129	-0.090452
C17	C	-0.869400	-0.389541	-0.064404
C18	C	-0.985360	-0.427096	-0.059027
C19	C	-0.828960	-0.484398	-0.043749
C20	C	-0.904466	-0.616810	-0.017702
C21	C	-1.020414	-0.654360	-0.012325
C22	C	-1.060867	-0.559506	-0.032987
C23	C	-0.713000	-0.446843	-0.049127
C24	C	-0.748066	-0.674113	-0.002424
C25	C	-0.864013	-0.711664	0.002961
C26	C	-1.459185	-0.816742	0.092513
C27	C	-1.479416	-0.947946	0.119505
C28	C	-1.435419	-0.996047	0.060871
C29	C	-1.371187	-0.912932	-0.024759
C30	C	-1.350947	-0.781713	-0.051748
C31	C	-1.327181	-0.961018	-0.083390
C32	C	-1.262949	-0.877903	-0.169020
C33	C	-1.242713	-0.746698	-0.196006
C34	C	-1.286710	-0.698596	-0.137372
C35	C	-1.347421	-1.092237	-0.056401
C36	C	-1.239183	-1.057208	-0.200662
C37	C	-1.218953	-0.926004	-0.227654
C38	C	-0.549151	-0.501739	-0.034188
C39	C	-0.672559	-0.541703	-0.028464
C40	C	-1.300492	-0.421206	0.127830
C41	C	-1.263842	-0.409331	0.237839
N42	N	-1.303421	-0.140325	-0.115038
C43	C	-1.397870	-0.452739	-0.235988
C44	C	-1.434519	-0.464606	-0.345998
C45	C	-1.548808	-0.501628	0.620451
C46	C	-1.583247	-0.512793	0.517094
C47	C	-1.503399	-0.486928	0.447276
C48	C	-1.389105	-0.449897	0.480824
C49	C	-1.354664	-0.438740	0.584193
C50	C	-1.309255	-0.424040	0.411017
C51	C	-1.194962	-0.387009	0.444565
C52	C	-1.160526	-0.375853	0.547924
C53	C	-1.240375	-0.401718	0.617743
C54	C	-1.343696	-0.435197	0.307648
C55	C	-1.149552	-0.372309	0.271389
C56	C	-1.115113	-0.361144	0.374746
H57	H	-0.651533	-0.339032	-0.070336
H58	H	-1.022053	-0.330992	0.402076
H59	H	-1.436754	-0.465349	0.280344
H60	H	-0.772877	-0.054465	-0.132323
H61	H	-0.925507	-0.819476	0.024168
H62	H	-1.155279	-0.590074	-0.028597
H63	H	-1.494994	-0.777566	0.140250
H64	H	-1.081892	-0.762179	0.008875
H65	H	-0.983244	-0.122611	-0.122558
H66	H	-0.715131	-0.751351	0.014398
H67	H	-1.399719	-1.159898	0.013320
H68	H	-1.531446	-0.496022	0.363119
H69	H	-1.166653	-0.858316	-0.297376
H70	H	-1.203354	-1.096369	-0.248406
H71	H	-1.084533	-0.351254	0.214543
H72	H	-1.676305	-0.542946	0.489788
H73	H	-1.451894	-1.102879	0.082852
H74	H	-1.531711	-1.015613	0.189225
H75	H	-1.212339	-0.392624	0.701905
H76	H	-1.613810	-0.522693	0.677308
H77	H	-1.270242	-0.591762	-0.159351
H78	H	-1.190401	-0.679021	-0.265724
H79	H	-1.067463	-0.345709	0.575236
H80	H	-0.699483	-0.226546	-0.094838
