data_functionalizedCrystal
_audit_creation_method	'MofGen! by Chris Wilmer'
_symmetry_space_group_name_H-M	'P1'
_symmetry_Int_Tables_number	1
_symmetry_cell_setting	triclinic
loop_
_symmetry_equiv_pos_as_xyz
  x,y,z
_cell_length_a	14.971486
_cell_length_b	10.540539
_cell_length_c	14.048226
_cell_angle_alpha	89.995726
_cell_angle_beta	89.998499
_cell_angle_gamma	84.069810
loop_
_atom_site_label
_atom_site_type_symbol
_atom_site_fract_x
_atom_site_fract_y
_atom_site_fract_z
O1	O	1.187879	0.165423	-0.079046
O2	O	0.927591	0.185233	-0.079072
O3	O	1.063673	-0.009446	-0.079057
O4	O	1.051796	0.360102	-0.079061
O5	O	1.063657	-0.009457	0.079264
O6	O	0.927574	0.185221	0.079249
O7	O	1.187862	0.165412	0.079275
Zn8	Zn	1.057716	0.175315	0.104399
Zn9	Zn	1.057737	0.175330	-0.104196
O10	O	1.051780	0.360090	0.079260
C11	C	0.894253	0.184341	0.000085
C12	C	0.794940	0.181686	0.000076
C13	C	0.738360	0.296055	0.000076
C14	C	0.645046	0.293553	0.000090
C15	C	0.608315	0.176681	0.000097
C16	C	0.664903	0.062303	0.000100
C17	C	0.758215	0.064807	0.000092
C18	C	0.470412	0.057094	0.000113
C19	C	0.377093	0.054590	0.000119
C20	C	0.357242	0.285839	0.000111
C21	C	0.450554	0.288343	0.000103
C22	C	0.507136	0.173965	0.000104
C23	C	1.062774	-0.056745	0.000101
C24	C	1.060109	-0.197662	0.000096
C25	C	0.958001	-0.379931	-0.000269
C26	C	0.960702	-0.233343	0.000087
C27	C	1.107939	-0.259870	0.090510
C28	C	1.104547	-0.406376	0.090586
C29	C	1.106587	-0.406904	-0.089455
C30	C	1.107503	-0.259932	-0.090650
C31	C	1.221200	0.166303	0.000115
C32	C	1.320512	0.168958	0.000119
C33	C	1.052679	0.407389	0.000099
C34	C	1.055344	0.548307	0.000099
N35	N	1.057707	0.175303	0.246760
N36	N	1.057753	0.175331	-0.246557
C37	C	1.117984	0.089135	0.296584
C38	C	1.117990	0.089135	0.396242
C39	C	1.057723	0.175309	0.446073
C40	C	0.997440	0.261481	0.396242
C41	C	0.997430	0.261475	0.296586
C42	C	0.997466	0.261491	0.603956
C43	C	0.997476	0.261499	0.703619
C44	C	1.118025	0.089150	0.703612
C45	C	1.118016	0.089144	0.603956
C46	C	1.057733	0.175318	0.554132
H47	H	0.923066	-0.190308	-0.064725
N48	N	0.528197	-0.059751	0.000127
N49	N	0.495393	-0.164094	0.000134
H50	H	0.536204	-0.246615	0.000142
N51	N	1.179599	0.001101	0.754486
N52	N	1.233406	-0.075831	0.709983
H53	H	1.276893	-0.138013	0.745915
H54	H	0.768258	0.391225	0.000069
N55	N	0.935885	0.349521	0.447137
N56	N	0.937852	0.466855	0.435993
H57	H	0.894378	0.529038	0.471936
N58	N	0.935900	0.349516	0.754508
N59	N	0.882071	0.426433	0.710013
H60	H	0.838577	0.488592	0.745953
N61	N	1.179616	0.001133	0.553092
N62	N	1.177693	-0.116209	0.564233
H63	H	1.221213	-0.178361	0.528319
N64	N	0.935849	0.349497	0.245703
N65	N	0.882042	0.426432	0.290204
H66	H	0.838546	0.488598	0.254269
H67	H	0.634990	-0.032856	0.000119
N68	N	1.179535	0.001107	0.447161
N69	N	1.235305	0.041473	0.502791
H70	H	1.278759	-0.020711	0.538762
N71	N	0.935880	0.349518	0.553075
N72	N	0.882076	0.426457	0.597575
H73	H	0.838584	0.488630	0.561641
H74	H	1.180941	-0.238344	0.093879
H75	H	1.074700	-0.216898	0.157786
N76	N	0.587263	0.410389	0.000095
N77	N	0.620069	0.514730	0.000085
H78	H	0.579261	0.597253	0.000090
H79	H	1.069184	-0.434179	0.158165
N80	N	0.908949	-0.417229	0.080630
N81	N	0.879060	-0.335520	0.140186
H82	H	0.844425	-0.361857	0.197330
N83	N	1.179545	0.001087	0.245704
N84	N	1.235340	0.041427	0.190083
H85	H	1.278818	-0.020775	0.154161
H86	H	0.804283	-0.028324	0.000092
H87	H	0.480457	0.383510	0.000088
H88	H	0.918739	-0.408080	-0.065107
N89	N	1.196667	-0.467144	-0.090232
N90	N	1.261236	-0.400905	-0.087963
H91	H	1.324853	-0.443451	-0.088508
N92	N	0.913142	-0.180397	0.081513
N93	N	0.846384	-0.100112	0.070917
H94	H	0.812793	-0.062717	0.128427
N95	N	0.299438	0.402664	0.000123
N96	N	0.216125	0.400418	0.000144
H97	H	0.175296	0.482922	0.000155
H98	H	0.347191	-0.040578	0.000126
H99	H	1.179979	-0.236533	-0.096103
N100	N	1.194231	-0.467563	0.095771
N101	N	1.242902	-0.447453	0.165318
H102	H	1.306241	-0.490663	0.168988
N103	N	1.066253	-0.446038	-0.175427
N104	N	1.061796	-0.561878	-0.191381
H105	H	1.033305	-0.589520	-0.252096
N106	N	1.063650	-0.208073	-0.174555
N107	N	0.997738	-0.125556	-0.167620
H108	H	0.966764	-0.088923	-0.226876
