data_functionalizedCrystal
_audit_creation_method	'MofGen! by Chris Wilmer'
_symmetry_space_group_name_H-M	'P1'
_symmetry_Int_Tables_number	1
_symmetry_cell_setting	triclinic
loop_
_symmetry_equiv_pos_as_xyz
  x,y,z
_cell_length_a	14.971482
_cell_length_b	14.044220
_cell_length_c	13.448316
_cell_angle_alpha	89.993057
_cell_angle_beta	89.993258
_cell_angle_gamma	88.400743
loop_
_atom_site_label
_atom_site_type_symbol
_atom_site_fract_x
_atom_site_fract_y
_atom_site_fract_z
O1	O	1.196681	0.123521	-0.082682
O2	O	1.696681	0.623521	0.417318
O3	O	0.937446	0.138318	-0.082687
O4	O	1.437446	0.638318	0.417313
O5	O	1.063172	-0.007070	-0.082675
O6	O	1.563172	0.492930	0.417325
O7	O	1.070955	0.268908	-0.082694
O8	O	1.570955	0.768908	0.417306
O9	O	1.063153	-0.007078	0.082709
O10	O	1.563153	0.492922	0.582709
O11	O	0.937427	0.138310	0.082697
O12	O	1.437427	0.638310	0.582697
O13	O	1.196662	0.123513	0.082702
O14	O	1.696662	0.623513	0.582702
Cu15	Cu	1.067042	0.130911	0.097800
Cu16	Cu	1.567042	0.630911	0.597800
Cu17	Cu	1.067065	0.130920	-0.097785
Cu18	Cu	1.567065	0.630920	0.402215
O19	O	1.070935	0.268900	0.082690
O20	O	1.570935	0.768900	0.582690
C21	C	0.904059	0.137653	0.000004
C22	C	1.404059	0.637653	0.500004
C23	C	0.804606	0.135672	0.000003
C24	C	1.304606	0.635672	0.500003
C25	C	0.757877	0.134734	0.090155
C26	C	1.257877	0.634734	0.590155
C27	C	0.664431	0.132858	0.090156
C28	C	1.164431	0.632858	0.590156
C29	C	0.617715	0.131925	0.000004
C30	C	1.117715	0.631925	0.500004
C31	C	0.664450	0.132860	-0.090155
C32	C	1.164450	0.632860	0.409845
C33	C	0.757895	0.134730	-0.090155
C34	C	1.257895	0.634730	0.409845
C35	C	0.469682	0.128965	-0.090148
C36	C	0.969682	0.628965	0.409852
C37	C	0.376230	0.127096	-0.090148
C38	C	0.876230	0.627096	0.409852
C39	C	0.376217	0.127093	0.090163
C40	C	0.876217	0.627093	0.590163
C41	C	0.469662	0.128962	0.090163
C42	C	0.969662	0.628962	0.590163
C43	C	0.516391	0.129899	0.000003
C44	C	1.016391	0.629899	0.500003
C45	C	1.059756	-0.042392	0.000018
C46	C	1.559756	0.457608	0.500018
C47	C	1.049595	-0.147629	0.000019
C48	C	1.549595	0.352371	0.500019
C49	C	1.031018	-0.340311	0.000004
C50	C	1.531018	0.159689	0.500004
C51	C	1.103085	-0.397864	0.000002
C52	C	1.603085	0.102136	0.500002
C53	C	1.092749	-0.505079	-0.000006
C54	C	1.592749	-0.005079	0.499994
C55	C	1.041353	-0.233086	0.000012
C56	C	1.541353	0.266914	0.500012
C57	C	1.230048	0.124178	0.000009
C58	C	1.730048	0.624178	0.500009
C59	C	1.329501	0.126159	0.000004
C60	C	1.829501	0.626159	0.500004
C61	C	1.074351	0.304223	-0.000005
C62	C	1.574351	0.804223	0.499995
C63	C	1.084513	0.409460	-0.000012
C64	C	1.584513	0.909460	0.499988
N65	N	1.067033	0.130904	0.235365
N66	N	1.567033	0.630904	0.735365
C67	C	1.122725	0.066553	0.287410
C68	C	1.622725	0.566553	0.787410
C69	C	1.122729	0.066553	0.391514
C70	C	1.622729	0.566553	0.891514
C71	C	1.067046	0.130909	0.443569
C72	C	1.567046	0.630909	0.943569
C73	C	1.011348	0.195263	0.391516
C74	C	1.511348	0.695263	0.891516
C75	C	1.011339	0.195257	0.287415
C76	C	1.511339	0.695257	0.787415
C77	C	1.011371	0.195271	0.608496
C78	C	1.511371	0.695271	1.108496
C79	C	1.011381	0.195277	0.712605
C80	C	1.511381	0.695277	1.212605
C81	C	1.122762	0.066566	0.712595
C82	C	1.622762	0.566566	1.212595
C83	C	1.122753	0.066561	0.608494
C84	C	1.622753	0.566561	1.108494
C85	C	1.067056	0.130916	0.556448
C86	C	1.567056	0.630916	1.056448
N87	N	1.067073	0.130926	0.764651
N88	N	1.567073	0.630926	1.264651
H89	H	0.626389	0.132079	0.163567
H90	H	1.126389	0.632079	0.663567
H91	H	1.168077	0.014153	0.433889
H92	H	1.668077	0.514153	0.933889
H93	H	1.172547	-0.366615	-0.000063
H94	H	1.672547	0.133385	0.499937
H95	H	0.961562	-0.371558	0.000000
H96	H	1.461562	0.128442	0.500000
O97	O	0.325824	0.126118	0.187411
O98	O	0.825824	0.626118	0.687411
H99	H	0.252998	0.124663	0.172269
H100	H	0.752998	0.624663	0.672269
O101	O	1.182780	-0.002864	0.231266
O102	O	1.682780	0.497136	0.731266
H103	H	1.221499	-0.047618	0.284950
H104	H	1.721499	0.452382	0.784950
O105	O	0.614071	0.131841	-0.187394
O106	O	1.114071	0.631841	0.312606
H107	H	0.629193	0.196756	-0.230639
H108	H	1.129193	0.696756	0.269361
H109	H	1.168099	0.014162	0.566110
H110	H	1.668099	0.514162	1.066110
H111	H	1.168112	0.014166	0.754977
H112	H	1.668112	0.514166	1.254977
O113	O	0.325843	0.126088	-0.187383
O114	O	0.825843	0.626088	0.312617
H115	H	0.286087	0.060680	-0.191679
H116	H	0.786087	0.560680	0.308321
O117	O	0.951304	0.264668	0.768757
O118	O	1.451304	0.764668	1.268757
H119	H	0.912557	0.309402	0.715079
H120	H	1.412557	0.809402	1.215079
H121	H	0.966013	0.247673	0.566124
H122	H	1.466013	0.747673	1.066124
O123	O	0.951294	0.264686	0.447654
O124	O	1.451294	0.764686	0.947654
H125	H	0.904642	0.224715	0.495113
H126	H	1.404642	0.724715	0.995113
O127	O	0.951276	0.264668	0.231271
O128	O	1.451276	0.764668	0.731271
H129	H	0.912564	0.309427	0.284956
H130	H	1.412564	0.809427	0.784956
O131	O	0.520087	0.129981	-0.187388
O132	O	1.020087	0.629981	0.312612
H133	H	0.471905	0.129031	-0.250077
H134	H	0.971905	0.629031	0.249923
H135	H	0.507696	0.129728	0.163572
H136	H	1.007696	0.629728	0.663572
O137	O	0.808263	0.135752	0.187390
O138	O	1.308263	0.635752	0.687390
H139	H	0.760067	0.134780	0.250078
H140	H	1.260067	0.634780	0.750078
H141	H	0.795940	0.135495	-0.163566
H142	H	1.295940	0.635495	0.336434
