data_functionalizedCrystal
_audit_creation_method	'MofGen! by Chris Wilmer'
_symmetry_space_group_name_H-M	'P1'
_symmetry_Int_Tables_number	1
_symmetry_cell_setting	triclinic
loop_
_symmetry_equiv_pos_as_xyz
  x,y,z
_cell_length_a	15.944493
_cell_length_b	15.538191
_cell_length_c	14.185569
_cell_angle_alpha	82.127072
_cell_angle_beta	103.152917
_cell_angle_gamma	65.373569
loop_
_atom_site_label
_atom_site_type_symbol
_atom_site_fract_x
_atom_site_fract_y
_atom_site_fract_z
O1	O	1.052024	0.142594	-0.083394
O2	O	0.802881	0.157632	-0.083398
O3	O	0.975948	0.012977	-0.083400
O4	O	0.878956	0.287250	-0.083392
O5	O	1.027073	-0.029751	0.083434
O6	O	0.854005	0.114904	0.083436
O7	O	1.103148	0.099867	0.083440
Cu8	Cu	0.983245	0.103484	0.098671
Cu9	Cu	0.922784	0.154015	-0.098629
O10	O	0.930080	0.244522	0.083442
C11	C	1.011658	-0.043484	0.000014
C12	C	1.041883	-0.148060	0.000004
C13	C	0.797335	0.135654	0.000018
C14	C	0.704648	0.133812	0.000017
C15	C	0.741579	-0.435804	0.000021
C16	C	0.770005	-0.534075	0.000024
C17	C	0.929891	-0.556546	0.000026
C18	C	0.901476	-0.458273	0.000018
C19	C	0.807320	-0.397910	0.000017
C20	C	0.967217	-0.420379	0.000014
C21	C	0.938807	-0.322116	0.000012
C22	C	0.844655	-0.261748	0.000014
C23	C	0.778909	-0.299647	0.000015
C24	C	1.061376	-0.480746	0.000023
C25	C	1.127117	-0.442852	0.000018
C26	C	1.098704	-0.344586	0.000009
C27	C	1.004553	-0.284217	0.000011
C28	C	1.164450	-0.306686	0.000008
C29	C	1.136040	-0.208424	0.000005
C30	C	0.976142	-0.185954	0.000008
C31	C	0.442923	0.218959	0.000018
C32	C	0.431575	0.151974	0.082279
C33	C	0.534969	0.130397	0.000018
C34	C	0.381181	0.194080	-0.082206
C35	C	0.371062	0.127107	0.000016
C36	C	0.524862	0.063419	0.082347
C37	C	0.474445	0.105556	-0.082212
C38	C	0.463156	0.038501	0.000069
C39	C	0.629390	0.132295	0.000021
C40	C	0.276647	0.125200	0.000021
C41	C	1.108693	0.121846	0.000021
C42	C	1.201378	0.123689	0.000017
C43	C	0.894370	0.300983	0.000026
C44	C	0.864143	0.405561	0.000029
N45	N	1.025775	0.067943	0.237442
N46	N	0.880262	0.189548	-0.237400
C47	C	0.755319	0.293927	0.605095
C48	C	0.787539	0.267012	0.710116
C49	C	0.940799	0.138967	0.710075
C50	C	0.908590	0.165869	0.605052
C51	C	0.815849	0.243350	0.552570
C52	C	0.969120	0.115292	0.552527
C53	C	0.936915	0.142195	0.447513
C54	C	0.844179	0.219675	0.395024
C55	C	0.783644	0.270253	0.447556
C56	C	1.061863	0.037815	0.605011
C57	C	1.122394	-0.012762	0.552486
C58	C	1.090186	0.014136	0.447470
C59	C	0.997450	0.091617	0.394981
C60	C	1.150721	-0.036442	0.394938
C61	C	1.118516	-0.009539	0.289924
C62	C	0.965245	0.118520	0.289967
H63	H	0.899468	-0.136800	-0.000000
H64	H	0.412544	0.171564	0.151826
H65	H	1.088083	0.015916	0.690520
H66	H	0.319524	0.249307	-0.151741
H67	H	0.817961	0.241582	0.309514
H68	H	0.493475	0.085996	-0.151762
H69	H	1.167807	-0.050723	0.247157
Cl70	Cl	1.238980	-0.110163	0.618470
H71	H	0.470984	-0.037854	0.000114
Cl72	Cl	0.660535	-0.223751	0.000003
Cl73	Cl	1.218692	-0.160786	0.000019
Cl74	Cl	0.431179	0.336703	0.000141
H75	H	0.586421	0.008212	0.151961
H76	H	0.664905	-0.386650	0.000013
H77	H	1.084502	-0.560755	0.000015
Cl78	Cl	0.848648	0.215918	0.223985
H79	H	0.708121	0.333340	0.404823
H80	H	0.679796	0.357014	0.562362
Cl81	Cl	1.245483	-0.518747	0.000028
H82	H	1.006554	-0.605708	0.000031
Cl83	Cl	0.711430	0.330609	0.776140
Cl84	Cl	1.057385	0.041566	0.776059
Cl85	Cl	1.282820	-0.382587	0.000029
H86	H	0.821527	-0.181738	0.000017
Cl87	Cl	0.687350	-0.581711	0.000036
H88	H	1.226235	-0.099522	0.437682
