data_functionalizedCrystal
_audit_creation_method	'MofGen! by Chris Wilmer'
_symmetry_space_group_name_H-M	'P1'
_symmetry_Int_Tables_number	1
_symmetry_cell_setting	triclinic
loop_
_symmetry_equiv_pos_as_xyz
  x,y,z
_cell_length_a	16.959455
_cell_length_b	16.959447
_cell_length_c	16.959454
_cell_angle_alpha	89.973264
_cell_angle_beta	89.981311
_cell_angle_gamma	90.015720
loop_
_atom_site_label
_atom_site_type_symbol
_atom_site_fract_x
_atom_site_fract_y
_atom_site_fract_z
Zn1	Zn	-1.208384	-0.446958	-0.314695
Zn2	Zn	-0.708384	0.053042	0.185305
Zn3	Zn	-1.208306	-0.314788	-0.446888
Zn4	Zn	-0.708306	0.185212	0.053112
Zn5	Zn	-1.076212	-0.314792	-0.314724
Zn6	Zn	-0.576212	0.185208	0.185276
Zn7	Zn	-1.076177	-0.446923	-0.446832
Zn8	Zn	-0.576177	0.053077	0.053168
O9	O	-1.142270	-0.380865	-0.380785
O10	O	-0.642270	0.119135	0.119215
O11	O	-1.318984	-0.429438	-0.332242
O12	O	-0.818984	0.070562	0.167758
O13	O	-1.190766	-0.204177	-0.429391
O14	O	-0.690766	0.295823	0.070609
O15	O	-1.093792	-0.332341	-0.204109
O16	O	-0.593792	0.167659	0.295891
O17	O	-1.318927	-0.332333	-0.429363
O18	O	-0.818927	0.167667	0.070637
O19	O	-1.190898	-0.429442	-0.204088
O20	O	-0.690898	0.070558	0.295912
O21	O	-1.093717	-0.204181	-0.332291
O22	O	-0.593717	0.295819	0.167709
O23	O	-0.965597	-0.332307	-0.332237
O24	O	-0.465597	0.167693	0.167763
O25	O	-1.093732	-0.557539	-0.429269
O26	O	-0.593732	-0.057539	0.070731
O27	O	-0.965571	-0.429383	-0.429297
O28	O	-0.465571	0.070617	0.070703
O29	O	-1.190864	-0.557564	-0.332188
O30	O	-0.690864	-0.057564	0.167812
O31	O	-1.190732	-0.332299	-0.557491
O32	O	-0.690732	0.167701	-0.057491
O33	O	-1.093657	-0.429378	-0.557451
O34	O	-0.593657	0.070622	-0.057451
C35	C	-0.936904	-0.380842	-0.380765
C36	C	-0.436904	0.119158	0.119235
C37	C	-0.849047	-0.380851	-0.380775
C38	C	-0.349047	0.119149	0.119225
C39	C	-0.807741	-0.330220	-0.431269
C40	C	-0.307741	0.169780	0.068731
C41	C	-0.807799	-0.431486	-0.330286
C42	C	-0.307799	0.068514	0.169714
C43	C	-0.725253	-0.431494	-0.330291
C44	C	-0.225253	0.068506	0.169709
C45	C	-0.683948	-0.380864	-0.380785
C46	C	-0.183948	0.119136	0.119215
C47	C	-0.725188	-0.330225	-0.431274
C48	C	-0.225188	0.169775	0.068726
C49	C	-0.684006	-0.482126	-0.279798
C50	C	-0.184006	0.017874	0.220202
C51	C	-0.601455	-0.482136	-0.279800
C52	C	-0.101455	0.017864	0.220200
C53	C	-0.560149	-0.431509	-0.330299
C54	C	-0.060149	0.068491	0.169701
C55	C	-0.601394	-0.380868	-0.380790
C56	C	-0.101394	0.119132	0.119210
C57	C	-0.560088	-0.330238	-0.431284
C58	C	-0.060088	0.169762	0.068716
C59	C	-0.601332	-0.279601	-0.481780
C60	C	-0.101332	0.220399	0.018220
C61	C	-0.683881	-0.279597	-0.481773
C62	C	-0.183881	0.220403	0.018227
C63	C	-0.477600	-0.431512	-0.330306
C64	C	0.022400	0.068488	0.169694
C65	C	-0.477535	-0.330242	-0.431289
C66	C	0.022465	0.169758	0.068711
C67	C	-1.142204	-0.380852	-0.586151
C68	C	-0.642204	0.119148	-0.086151
C69	C	-1.142248	-0.380872	-0.674008
C70	C	-0.642248	0.119128	-0.174008
C71	C	-1.142303	-0.587033	-0.380719
C72	C	-0.642303	-0.087033	0.119281
C73	C	-1.142317	-0.674890	-0.380691
C74	C	-0.642317	-0.174890	0.119309
C75	C	-0.348438	-0.380884	-0.380802
C76	C	0.151562	0.119116	0.119198
C77	C	-0.436295	-0.380881	-0.380800
C78	C	0.063705	0.119119	0.119200
C79	C	-1.091839	-1.046355	-0.431153
C80	C	-0.591839	-0.546355	0.068847
C81	C	-1.192983	-1.046377	-0.330063
C82	C	-0.692983	-0.546377	0.169937
C83	C	-1.192962	-0.963831	-0.330079
C84	C	-0.692962	-0.463831	0.169921
C85	C	-1.142380	-0.922543	-0.380635
C86	C	-0.642380	-0.422543	0.119365
C87	C	-1.091818	-0.963801	-0.431173
C88	C	-0.591818	-0.463801	0.068827
C89	C	-1.243529	-0.922566	-0.279547
C90	C	-0.743529	-0.422566	0.220453
C91	C	-1.243510	-0.840015	-0.279563
C92	C	-0.743510	-0.340015	0.220437
C93	C	-1.192923	-0.798726	-0.330115
C94	C	-0.692923	-0.298726	0.169885
C95	C	-1.142359	-0.839990	-0.380655
C96	C	-0.642359	-0.339990	0.119345
C97	C	-1.091776	-0.798702	-0.431210
C98	C	-0.591776	-0.298702	0.068790
C99	C	-1.041207	-0.839964	-0.481747
C100	C	-0.541207	-0.339964	0.018253
C101	C	-1.041231	-0.922512	-0.481725
C102	C	-0.541231	-0.422512	0.018275
C103	C	-1.192899	-0.716178	-0.330136
C104	C	-0.692899	-0.216178	0.169864
C105	C	-1.091755	-0.716148	-0.431230
C106	C	-0.591755	-0.216148	0.068770
C107	C	-1.142283	-0.175499	-0.380793
C108	C	-0.642283	0.324501	0.119207
C109	C	-1.142422	-0.087643	-0.380598
C110	C	-0.642422	0.412357	0.119402
C111	C	-1.091796	-0.431409	-1.045492
C112	C	-0.591796	0.068591	-0.545492
C113	C	-1.192964	-0.330402	-1.045474
C114	C	-0.692964	0.169598	-0.545474
C115	C	-1.192936	-0.330395	-0.962928
C116	C	-0.692936	0.169605	-0.462928
C117	C	-1.142337	-0.380894	-0.921661
C118	C	-0.642337	0.119106	-0.421661
C119	C	-1.091765	-0.431402	-0.962938
C120	C	-0.591765	0.068598	-0.462938
C121	C	-1.243501	-0.279883	-0.921644
C122	C	-0.743501	0.220117	-0.421644
C123	C	-1.243475	-0.279873	-0.839093
C124	C	-0.743475	0.220127	-0.339093
C125	C	-1.192879	-0.330377	-0.797824
C126	C	-0.692879	0.169623	-0.297824
C127	C	-1.142306	-0.380887	-0.839107
C128	C	-0.642306	0.119113	-0.339107
C129	C	-1.091707	-0.431387	-0.797839
C130	C	-0.591707	0.068613	-0.297839
C131	C	-1.041137	-0.481901	-0.839121
C132	C	-0.541137	0.018099	-0.339121
C133	C	-1.041170	-0.481906	-0.921669
C134	C	-0.541170	0.018094	-0.421669
C135	C	-1.192847	-0.330373	-0.715276
C136	C	-0.692847	0.169627	-0.215276
C137	C	-1.091676	-0.431379	-0.715286
C138	C	-0.591676	0.068621	-0.215286
C139	C	-1.142358	-0.380896	-0.174617
C140	C	-0.642358	0.119104	0.325383
C141	C	-1.142395	-0.380909	-0.086760
C142	C	-0.642395	0.119091	0.413240
H143	H	-0.717469	-0.238370	-0.522882
H144	H	-0.217469	0.261630	-0.022882
N145	N	-1.298048	-0.795514	-0.225059
N146	N	-0.798048	-0.295514	0.274941
H147	H	-1.330095	-0.834197	-0.193031
H148	H	-0.830095	-0.334197	0.306969
H149	H	-1.265879	-0.761275	-0.188483
H150	H	-0.765879	-0.261275	0.311517
N151	N	-1.037093	-0.485843	-0.670780
N152	N	-0.537093	0.014157	-0.170780
H153	H	-1.044742	-0.478173	-0.612221
H154	H	-0.544742	0.021827	-0.112221
H155	H	-1.049364	-0.542309	-0.685165
H156	H	-0.549364	-0.042309	-0.185165
H157	H	-1.050665	-1.079954	-0.472297
H158	H	-0.550665	-0.579954	0.027703
N159	N	-1.247543	-1.090904	-0.275543
N160	N	-0.747543	-0.590904	0.224457
H161	H	-1.239885	-1.149459	-0.283200
H162	H	-0.739885	-0.649459	0.216800
H163	H	-1.235259	-1.076490	-0.219092
H164	H	-0.735259	-0.576490	0.280908
H165	H	-1.234154	-0.289282	-1.079080
H166	H	-0.734154	0.210718	-0.579080
H167	H	-0.999936	-0.523015	-0.805511
H168	H	-0.499936	-0.023015	-0.305511
N169	N	-0.986628	-0.536382	-0.966192
N170	N	-0.486628	-0.036382	-0.466192
H171	H	-0.994323	-0.528718	-1.024748
H172	H	-0.494323	-0.028718	-0.524748
H173	H	-0.930180	-0.524022	-0.951807
H174	H	-0.430180	-0.024022	-0.451807
N175	N	-0.852353	-0.486105	-0.275846
N176	N	-0.352353	0.013895	0.224154
H177	H	-0.886610	-0.454052	-0.239174
H178	H	-0.386610	0.045948	0.260826
H179	H	-0.886553	-0.522656	-0.308088
H180	H	-0.386553	-0.022656	0.191912
N181	N	-0.433112	-0.486120	-0.275854
N182	N	0.066888	0.013880	0.224146
H183	H	-0.398860	-0.454057	-0.239192
H184	H	0.101140	0.045943	0.260808
H185	H	-0.471852	-0.518181	-0.243915
H186	H	0.028148	-0.018181	0.256085
N187	N	-1.037249	-0.485886	-1.090007
N188	N	-0.537249	0.014114	-0.590007
H189	H	-1.049482	-0.542371	-1.075598
H190	H	-0.549482	-0.042371	-0.575598
H191	H	-1.044968	-0.478166	-1.148550
H192	H	-0.544968	0.021834	-0.648550
H193	H	-1.234074	-0.682586	-0.288992
H194	H	-0.734074	-0.182586	0.211008
N195	N	-0.556986	-0.536758	-0.225341
N196	N	-0.056986	-0.036758	0.274659
H197	H	-0.522743	-0.573340	-0.257507
H198	H	-0.022743	-0.073340	0.242493
H199	H	-0.522778	-0.504647	-0.188682
H200	H	-0.022778	-0.004647	0.311318
H201	H	-1.050557	-0.682538	-0.472392
H202	H	-0.550557	-0.182538	0.027608
N203	N	-1.298056	-0.225402	-0.966152
N204	N	-0.798056	0.274598	-0.466152
H205	H	-1.290400	-0.233072	-1.024709
H206	H	-0.790400	0.266928	-0.524709
H207	H	-1.354499	-0.237741	-0.951682
H208	H	-0.854499	0.262259	-0.451682
N209	N	-1.298021	-0.225401	-0.794571
N210	N	-0.798021	0.274599	-0.294571
H211	H	-1.330081	-0.193413	-0.833241
H212	H	-0.830081	0.306587	-0.333241
H213	H	-1.334565	-0.257616	-0.760285
H214	H	-0.834565	0.242384	-0.260285
H215	H	-0.841326	-0.288995	-0.472384
H216	H	-0.341326	0.211005	0.027616
H217	H	-1.284715	-0.956189	-0.238393
H218	H	-0.784715	-0.456189	0.261607
N219	N	-1.247376	-0.275892	-0.670750
N220	N	-0.747376	0.224108	-0.170750
H221	H	-1.279432	-0.243898	-0.709419
H222	H	-0.779432	0.256102	-0.209419
H223	H	-1.283926	-0.308095	-0.636457
H224	H	-0.783926	0.191905	-0.136457
N225	N	-0.432981	-0.275635	-0.485749
N226	N	0.067019	0.224365	0.014251
H227	H	-0.447333	-0.287819	-0.542239
H228	H	0.052667	0.212181	-0.042239
H229	H	-0.447351	-0.219200	-0.473341
H230	H	0.052649	0.280800	0.026659
H231	H	-0.567691	-0.238374	-0.522889
H232	H	-0.067691	0.261626	-0.022889
H233	H	-1.000026	-0.806337	-0.522912
H234	H	-0.500026	-0.306337	-0.022912
H235	H	-1.000063	-0.956115	-0.522872
H236	H	-0.500063	-0.456115	-0.022872
H237	H	-0.717643	-0.523344	-0.238685
H238	H	-0.217643	-0.023344	0.261315
