data_functionalizedCrystal
_audit_creation_method	'MofGen! by Chris Wilmer'
_symmetry_space_group_name_H-M	'P1'
_symmetry_Int_Tables_number	1
_symmetry_cell_setting	triclinic
loop_
_symmetry_equiv_pos_as_xyz
  x,y,z
_cell_length_a	19.288862
_cell_length_b	19.288865
_cell_length_c	18.366186
_cell_angle_alpha	90.011479
_cell_angle_beta	90.025700
_cell_angle_gamma	83.135763
loop_
_atom_site_label
_atom_site_type_symbol
_atom_site_fract_x
_atom_site_fract_y
_atom_site_fract_z
O1	O	-0.921354	-0.086641	-0.060839
O2	O	-0.421354	0.413359	0.439161
O3	O	-0.719093	-0.098331	-0.060780
O4	O	-0.219093	0.401669	0.439220
O5	O	-0.826068	0.008644	-0.060797
O6	O	-0.326068	0.508644	0.439203
O7	O	-0.814379	-0.193616	-0.060822
O8	O	-0.314379	0.306384	0.439178
O9	O	-0.826050	0.008650	0.060303
O10	O	-0.326050	0.508650	0.560303
O11	O	-0.719075	-0.098326	0.060320
O12	O	-0.219075	0.401674	0.560320
O13	O	-0.921336	-0.086636	0.060261
O14	O	-0.421336	0.413364	0.560261
Zn15	Zn	-0.820202	-0.092480	0.079517
Zn16	Zn	-0.320202	0.407520	0.579517
Zn17	Zn	-0.820226	-0.092487	-0.080036
Zn18	Zn	-0.320226	0.407513	0.419964
O19	O	-0.814361	-0.193611	0.060277
O20	O	-0.314361	0.306389	0.560277
C21	C	-0.693207	-0.097953	-0.000222
C22	C	-0.193207	0.402047	0.499778
C23	C	-0.616104	-0.096824	-0.000199
C24	C	-0.116104	0.403176	0.499801
C25	C	-0.571407	-0.159593	-0.000216
C26	C	-0.071407	0.340407	0.499784
C27	C	-0.498960	-0.158533	-0.000221
C28	C	0.001040	0.341467	0.499779
C29	C	-0.471213	-0.094701	-0.000222
C30	C	0.028787	0.405299	0.499778
C31	C	-0.515919	-0.031924	-0.000201
C32	C	-0.015919	0.468076	0.499799
C33	C	-0.588364	-0.032986	-0.000189
C34	C	-0.088364	0.467014	0.499811
C35	C	-0.362957	-0.044524	-0.042661
C36	C	0.137043	0.455476	0.457339
C37	C	-0.290512	-0.043465	-0.042677
C38	C	0.209488	0.456535	0.457323
C39	C	-0.247767	-0.091423	-0.000254
C40	C	0.252233	0.408577	0.499746
C41	C	-0.277473	-0.140452	0.042175
C42	C	0.222527	0.359548	0.542175
C43	C	-0.349919	-0.141514	0.042187
C44	C	0.150081	0.358486	0.542187
C45	C	-0.392659	-0.093542	-0.000234
C46	C	0.107341	0.406458	0.499766
C47	C	-0.124514	-0.153046	-0.000275
C48	C	0.375486	0.346954	0.499725
C49	C	-0.052066	-0.151983	-0.000275
C50	C	0.447934	0.348017	0.499725
C51	C	-0.069027	-0.025373	-0.000262
C52	C	0.430973	0.474627	0.499738
C53	C	-0.141473	-0.026438	-0.000255
C54	C	0.358527	0.473562	0.499745
C55	C	-0.169212	-0.090276	-0.000265
C56	C	0.330788	0.409724	0.499735
N57	N	-0.820191	-0.092475	0.188408
N58	N	-0.320191	0.407525	0.688408
C59	C	-0.825683	0.034523	-0.000245
C60	C	-0.325683	0.534523	0.499755
C61	C	-0.824554	0.111627	-0.000238
C62	C	-0.324554	0.611627	0.499762
C63	C	0.052779	-0.087016	-0.000286
C64	C	0.552779	0.412984	0.499714
C65	C	-0.024324	-0.088151	-0.000275
C66	C	0.475676	0.411849	0.499725
C67	C	-0.814746	-0.219490	-0.000276
C68	C	-0.314746	0.280510	0.499724
C69	C	-0.815875	-0.296594	-0.000288
C70	C	-0.315875	0.203406	0.499712
C71	C	-0.887322	0.156324	-0.000253
C72	C	-0.387322	0.656324	0.499747
C73	C	-0.886261	0.228771	-0.000264
C74	C	-0.386261	0.728771	0.499736
C75	C	-0.822429	0.256518	-0.000246
C76	C	-0.322429	0.756518	0.499754
C77	C	-0.759652	0.211811	-0.000235
C78	C	-0.259652	0.711811	0.499765
C79	C	-0.760715	0.139366	-0.000231
C80	C	-0.260715	0.639366	0.499769
C81	C	-0.772243	0.364807	0.042188
C82	C	-0.272243	0.864807	0.542188
C83	C	-0.771183	0.437251	0.042188
C84	C	-0.271183	0.937251	0.542188
C85	C	-0.819149	0.479963	-0.000261
C86	C	-0.319149	0.979963	0.499739
C87	C	-0.868187	0.450224	-0.042701
C88	C	-0.368187	0.950224	0.457299
C89	C	-0.869249	0.377778	-0.042697
C90	C	-0.369249	0.877778	0.457303
C91	C	-0.821270	0.335072	-0.000250
C92	C	-0.321270	0.835072	0.499750
C93	C	-0.880771	0.603216	-0.000289
C94	C	-0.380771	1.103216	0.499711
C95	C	-0.879708	0.675664	-0.000305
C96	C	-0.379708	1.175664	0.499695
C97	C	-0.753098	0.658703	-0.000268
C98	C	-0.253098	1.158703	0.499732
C99	C	-0.754163	0.586257	-0.000260
C100	C	-0.254163	1.086257	0.499740
C101	C	-0.818001	0.558518	-0.000267
C102	C	-0.318001	1.058518	0.499733
N103	N	-0.820243	-0.092487	-0.188928
N104	N	-0.320243	0.407513	0.311072
C105	C	-0.867575	-0.045129	0.226501
C106	C	-0.367575	0.454871	0.726501
C107	C	-0.867579	-0.045126	0.302729
C108	C	-0.367579	0.454874	0.802729
C109	C	-0.820207	-0.092481	0.340861
C110	C	-0.320207	0.407519	0.840861
C111	C	-0.772814	-0.139830	0.302759
C112	C	-0.272814	0.360170	0.802759
C113	C	-0.772806	-0.139827	0.226533
C114	C	-0.272806	0.360173	0.726533
C115	C	-0.810908	-0.155769	0.461615
C116	C	-0.310908	0.344231	0.961615
C117	C	-0.810921	-0.155772	0.537840
C118	C	-0.310921	0.344228	1.037840
C119	C	-0.820226	-0.092489	0.575969
C120	C	-0.320226	0.407511	1.075969
C121	C	-0.829534	-0.029200	0.537863
C122	C	-0.329534	0.470800	1.037863
C123	C	-0.829526	-0.029197	0.461636
C124	C	-0.329526	0.470803	0.961636
C125	C	-0.820209	-0.092489	0.423516
C126	C	-0.320209	0.407511	0.923516
C127	C	-0.867618	-0.045136	0.696717
C128	C	-0.367618	0.454864	1.196717
C129	C	-0.867617	-0.045132	0.772946
C130	C	-0.367617	0.454868	1.272946
C131	C	-0.772855	-0.139842	0.772974
C132	C	-0.272855	0.360158	1.272974
C133	C	-0.772852	-0.139840	0.696746
C134	C	-0.272852	0.360160	1.196746
C135	C	-0.820237	-0.092488	0.658622
C136	C	-0.320237	0.407512	1.158622
H137	H	-0.374103	-0.181433	0.076736
H138	H	0.125897	0.318567	0.576736
H139	H	-0.462562	-0.209648	-0.000233
H140	H	0.037438	0.290352	0.499767
C141	C	-0.950987	0.572697	-0.000306
C142	C	-0.450987	1.072697	0.499694
H143	H	-0.942631	0.523149	-0.000291
H144	H	-0.442631	1.023149	0.499709
H145	H	-0.976830	0.588041	-0.042544
H146	H	-0.476830	1.088041	0.457456
H147	H	-0.976816	0.588065	0.041921
H148	H	-0.476816	1.088065	0.541921
C149	C	-0.190641	0.042608	-0.000248
C150	C	0.309359	0.542608	0.499752
H151	H	-0.163742	0.080777	-0.000255
H152	H	0.336258	0.580777	0.499745
H153	H	-0.219233	0.044830	0.041986
H154	H	0.280767	0.544830	0.541986
H155	H	-0.219276	0.044821	-0.042480
H156	H	0.280724	0.544821	0.457520
H157	H	-0.242671	-0.179504	0.076720
H158	H	0.257329	0.320496	0.576720
C159	C	-0.601917	-0.229812	-0.000214
C160	C	-0.101917	0.270188	0.499786
H161	H	-0.564917	-0.267043	-0.000217
H162	H	-0.064917	0.232957	0.499783
H163	H	-0.629853	-0.232864	-0.042436
H164	H	-0.129853	0.267136	0.457564
H165	H	-0.629798	-0.232853	0.042029
H166	H	-0.129798	0.267147	0.542029
H167	H	-0.147101	-0.205027	-0.000272
H168	H	0.352899	0.294973	0.499728
H169	H	-0.906157	-0.006571	0.195463
H170	H	-0.406157	0.493429	0.695463
H171	H	-0.906201	-0.006574	0.803962
H172	H	-0.406201	0.493426	1.303962
C173	C	-0.002897	-0.221030	-0.000294
C174	C	0.497103	0.278970	0.499706
H175	H	0.044223	-0.211257	-0.000292
H176	H	0.544223	0.288743	0.499708
H177	H	-0.011308	-0.247212	-0.042528
H178	H	0.488692	0.252788	0.457472
H179	H	-0.011263	-0.247216	0.041937
H180	H	0.488737	0.252784	0.541937
H181	H	-0.930823	0.712056	-0.000321
H182	H	-0.430823	1.212056	0.499679
C183	C	-0.720737	-0.191928	0.654842
C184	C	-0.220737	0.308072	1.154842
H185	H	-0.692527	-0.220135	0.688467
H186	H	-0.192527	0.279865	1.188467
H187	H	-0.691901	-0.167017	0.625127
H188	H	-0.191901	0.332983	1.125127
H189	H	-0.745633	-0.220780	0.625087
H190	H	-0.245633	0.279220	1.125087
H191	H	-0.939304	0.133744	-0.000261
H192	H	-0.439304	0.633744	0.499739
C193	C	-0.920949	0.497197	-0.089402
C194	C	-0.420949	0.997197	0.410598
H195	H	-0.913289	0.544601	-0.083336
H196	H	-0.413289	1.044601	0.416664
H197	H	-0.967077	0.491487	-0.074501
H198	H	-0.467077	0.991487	0.425499
H199	H	-0.915019	0.484489	-0.139187
H200	H	-0.415019	0.984489	0.360813
H201	H	-0.906166	-0.006570	0.333750
H202	H	-0.406166	0.493430	0.833750
C203	C	-0.637532	0.036062	-0.000179
C204	C	-0.137532	0.536062	0.499821
H205	H	-0.610634	0.074232	-0.000184
H206	H	-0.110634	0.574232	0.499816
H207	H	-0.666127	0.038283	0.042052
H208	H	-0.166127	0.538283	0.542052
H209	H	-0.666164	0.038274	-0.042413
H210	H	-0.166164	0.538274	0.457587
C211	C	-0.720687	-0.191914	0.184629
C212	C	-0.220687	0.308086	0.684629
H213	H	-0.692475	-0.220120	0.218253
H214	H	-0.192475	0.279880	0.718253
H215	H	-0.691853	-0.167002	0.154912
H216	H	-0.191853	0.332998	0.654912
H217	H	-0.745584	-0.220767	0.154875
H218	H	-0.245584	0.279233	0.654875
C219	C	-0.682883	0.689216	-0.000251
C220	C	-0.182883	1.189216	0.499749
H221	H	-0.691239	0.738764	-0.000252
H222	H	-0.191239	1.238764	0.499748
H223	H	-0.657054	0.673848	-0.042472
H224	H	-0.157054	1.173848	0.457528
H225	H	-0.657042	0.673870	0.041993
H226	H	-0.157042	1.173870	0.541993
C227	C	-0.720707	-0.191920	0.344701
C228	C	-0.220707	0.308080	0.844701
H229	H	-0.727503	-0.185146	0.395555
H230	H	-0.227503	0.314854	0.895555
H231	H	-0.674375	-0.184495	0.332240
H232	H	-0.174375	0.315505	0.832240
H233	H	-0.728106	-0.238260	0.332190
H234	H	-0.228106	0.261740	0.832190
H235	H	-0.733181	0.330035	0.076759
H236	H	-0.233181	0.830035	0.576759
C237	C	-0.720745	-0.191931	0.814910
C238	C	-0.220745	0.308069	1.314910
H239	H	-0.727538	-0.185155	0.865764
H240	H	-0.227538	0.314845	1.365764
H241	H	-0.674414	-0.184507	0.802446
H242	H	-0.174414	0.315493	1.302446
H243	H	-0.728145	-0.238271	0.802402
H244	H	-0.228145	0.261729	1.302402
H245	H	-0.803347	-0.207306	0.568860
H246	H	-0.303347	0.292694	1.068860
H247	H	-0.046435	0.026600	-0.000309
H248	H	0.453565	0.526600	0.499691
H249	H	-0.837111	0.022331	0.568905
H250	H	-0.337111	0.522331	1.068905
C251	C	-0.257838	0.010458	-0.089350
C252	C	0.242162	0.510458	0.410650
H253	H	-0.208569	0.004216	-0.083290
H254	H	0.291431	0.504216	0.416710
H255	H	-0.275854	0.056240	-0.074426
H256	H	0.224146	0.556240	0.425574
H257	H	-0.268924	0.004174	-0.139136
H258	H	0.231076	0.504174	0.360864
C259	C	-0.955306	0.277949	-0.000275
C260	C	-0.455306	0.777949	0.499725
H261	H	-0.945529	0.325067	-0.000280
H262	H	-0.445529	0.825067	0.499720
H263	H	-0.981480	0.269569	0.041951
H264	H	-0.481480	0.769569	0.541951
H265	H	-0.981501	0.269555	-0.042515
H266	H	-0.481501	0.769555	0.457485
H267	H	-0.493322	0.020048	-0.000212
H268	H	0.006678	0.520048	0.499788
C269	C	-0.800677	-0.225384	0.419681
C270	C	-0.300677	0.274616	0.919681
H271	H	-0.795147	-0.263076	0.453291
H272	H	-0.295147	0.236924	0.953291
H273	H	-0.760228	-0.226897	0.389965
H274	H	-0.260228	0.273103	0.889965
H275	H	-0.840356	-0.229131	0.389924
H276	H	-0.340356	0.270869	0.889924
H277	H	-0.397755	-0.005470	-0.077211
H278	H	0.102245	0.494530	0.422789
C279	C	-0.923179	0.345066	-0.089385
C280	C	-0.423179	0.845066	0.410615
H281	H	-0.951593	0.380874	-0.114673
H282	H	-0.451593	0.880874	0.385327
H283	H	-0.951634	0.320565	-0.058808
H284	H	-0.451634	0.820565	0.441192
H285	H	-0.899575	0.313582	-0.123493
H286	H	-0.399575	0.813582	0.376507
C287	C	-0.685119	0.537085	-0.000239
C288	C	-0.185119	1.037085	0.499761
H289	H	-0.694894	0.489966	-0.000246
H290	H	-0.194894	0.989966	0.499754
H291	H	-0.658925	0.545481	0.041996
H292	H	-0.158925	1.045481	0.541996
H293	H	-0.658946	0.545466	-0.042470
H294	H	-0.158946	1.045466	0.457530
C295	C	-0.717245	0.469958	0.088870
C296	C	-0.217245	0.969958	0.588870
H297	H	-0.688822	0.434145	0.114141
H298	H	-0.188822	0.934145	0.614141
H299	H	-0.740835	0.501443	0.122980
H300	H	-0.240835	1.001443	0.622980
H301	H	-0.688791	0.494456	0.058282
H302	H	-0.188791	0.994456	0.558282
H303	H	-0.707680	0.234407	-0.000222
H304	H	-0.207680	0.734407	0.499778
H305	H	-0.709600	0.102973	-0.000219
H306	H	-0.209600	0.602973	0.499781
H307	H	-0.837103	0.022336	0.430614
H308	H	-0.337103	0.522336	0.930614
C309	C	-0.919731	0.006954	0.654777
C310	C	-0.419731	0.506954	1.154777
H311	H	-0.947945	0.035161	0.688384
H312	H	-0.447945	0.535161	1.188384
H313	H	-0.948562	-0.017956	0.625018
H314	H	-0.448562	0.482044	1.125018
H315	H	-0.894829	0.035807	0.625063
H316	H	-0.394829	0.535807	1.125063
