data_functionalizedCrystal
_audit_creation_method	'MofGen! by Chris Wilmer'
_symmetry_space_group_name_H-M	'P1'
_symmetry_Int_Tables_number	1
_symmetry_cell_setting	triclinic
loop_
_symmetry_equiv_pos_as_xyz
  x,y,z
_cell_length_a	19.121102
_cell_length_b	19.120786
_cell_length_c	18.050582
_cell_angle_alpha	87.534997
_cell_angle_beta	87.546607
_cell_angle_gamma	89.915559
loop_
_atom_site_label
_atom_site_type_symbol
_atom_site_fract_x
_atom_site_fract_y
_atom_site_fract_z
Zn1	Zn	1.059826	-0.324966	-0.452986
Zn2	Zn	1.393159	0.008368	-0.119653
Zn3	Zn	1.726493	0.341701	0.213680
Zn4	Zn	1.054747	-0.442199	-0.323274
Zn5	Zn	1.388080	-0.108866	0.010059
Zn6	Zn	1.721413	0.224468	0.343393
Zn7	Zn	0.942598	-0.319967	-0.323755
Zn8	Zn	1.275932	0.013366	0.009578
Zn9	Zn	1.609265	0.346700	0.342912
Zn10	Zn	0.937556	-0.437162	-0.442370
Zn11	Zn	1.270889	-0.103828	-0.109037
Zn12	Zn	1.604223	0.229505	0.224296
O13	O	0.998682	-0.381073	-0.385596
O14	O	1.332015	-0.047740	-0.052263
O15	O	1.665348	0.285593	0.281070
O16	O	1.157257	-0.344717	-0.440022
O17	O	1.490590	-0.011384	-0.106688
O18	O	1.823924	0.321950	0.226645
O19	O	1.039855	-0.426001	-0.219412
O20	O	1.373188	-0.092667	0.113922
O21	O	1.706521	0.240666	0.447255
O22	O	0.962385	-0.222521	-0.345542
O23	O	1.295718	0.110812	-0.012209
O24	O	1.629052	0.444145	0.321125
O25	O	1.153525	-0.430848	-0.344722
O26	O	1.486859	-0.097514	-0.011389
O27	O	1.820192	0.235819	0.321944
O28	O	1.048512	-0.226194	-0.440488
O29	O	1.381845	0.107140	-0.107154
O30	O	1.715178	0.440473	0.226179
O31	O	0.957460	-0.336197	-0.219765
O32	O	1.290793	-0.002864	0.113568
O33	O	1.624126	0.330469	0.446902
O34	O	0.843825	-0.331313	-0.335248
O35	O	1.177158	0.002020	-0.001915
O36	O	1.510491	0.335354	0.331419
O37	O	0.953791	-0.422263	-0.547705
O38	O	1.287124	-0.088929	-0.214371
O39	O	1.620457	0.244404	0.118962
O40	O	0.840120	-0.417416	-0.422394
O41	O	1.173453	-0.084082	-0.089061
O42	O	1.506787	0.249251	0.244273
O43	O	1.043622	-0.339833	-0.555504
O44	O	1.376955	-0.006499	-0.222171
O45	O	1.710289	0.326834	0.111162
O46	O	1.034965	-0.539640	-0.334428
O47	O	1.368298	-0.206306	-0.001095
O48	O	1.701632	0.127027	0.332238
O49	O	0.948866	-0.535939	-0.421928
O50	O	1.282199	-0.202606	-0.088594
O51	O	1.615532	0.130728	0.244739
C52	C	0.816535	-0.373276	-0.377722
C53	C	1.149868	-0.039942	-0.044388
C54	C	1.483201	0.293391	0.288945
C55	C	0.738611	-0.369957	-0.374369
C56	C	1.071944	-0.036624	-0.041036
C57	C	1.405277	0.296710	0.292297
C58	C	0.700089	-0.413294	-0.418089
C59	C	1.033422	-0.079961	-0.084756
C60	C	1.366755	0.253372	0.248577
C61	C	0.626871	-0.410166	-0.414944
C62	C	0.960204	-0.076833	-0.081610
C63	C	1.293538	0.256500	0.251723
C64	C	0.592177	-0.363704	-0.368074
C65	C	0.925510	-0.030371	-0.034740
C66	C	1.258844	0.302962	0.298593
C67	C	0.630705	-0.320362	-0.324352
C68	C	0.964038	0.012971	0.008981
C69	C	1.297371	0.346304	0.342314
C70	C	0.703921	-0.323487	-0.327502
C71	C	1.037254	0.009846	0.005831
C72	C	1.370588	0.343180	0.339164
C73	C	0.371207	-0.352020	-0.356300
C74	C	0.704540	-0.018687	-0.022967
C75	C	1.037874	0.314646	0.310366
C76	C	0.297985	-0.348901	-0.353152
C77	C	0.631319	-0.015567	-0.019819
C78	C	0.964652	0.317766	0.313515
C79	C	0.294157	-0.438704	-0.443744
C80	C	0.627490	-0.105371	-0.110411
C81	C	0.960824	0.227963	0.222922
C82	C	0.367375	-0.441828	-0.446887
C83	C	0.700708	-0.108494	-0.113554
C84	C	1.034041	0.224839	0.219780
C85	C	0.405896	-0.398483	-0.403169
C86	C	0.739229	-0.065150	-0.069835
C87	C	1.072563	0.268184	0.263498
C88	C	0.517337	-0.360508	-0.364856
C89	C	0.850670	-0.027175	-0.031522
C90	C	1.184004	0.306159	0.301811
C91	C	0.480735	-0.401677	-0.406391
C92	C	0.814068	-0.068343	-0.073058
C93	C	1.147402	0.264990	0.260275
C94	C	0.990836	-0.563229	-0.376991
C95	C	1.324169	-0.229895	-0.043657
C96	C	1.657503	0.103438	0.289676
C97	C	0.987544	-0.641158	-0.373337
C98	C	1.320877	-0.307825	-0.040004
C99	C	1.654210	0.025509	0.293330
C100	C	1.030805	-0.679620	-0.421091
C101	C	1.364138	-0.346286	-0.087757
C102	C	1.697472	-0.012953	0.245576
C103	C	1.027709	-0.752843	-0.417659
C104	C	1.361042	-0.419509	-0.084325
C105	C	1.694375	-0.086176	0.249008
C106	C	0.981354	-0.787603	-0.366469
C107	C	1.314687	-0.454269	-0.033135
C108	C	1.648021	-0.120936	0.300198
C109	C	0.938088	-0.749136	-0.318713
C110	C	1.271421	-0.415802	0.014621
C111	C	1.604755	-0.082469	0.347954
C112	C	0.941181	-0.675914	-0.322149
C113	C	1.274514	-0.342581	0.011184
C114	C	1.607848	-0.009247	0.344518
C115	C	0.969769	-1.008592	-0.353622
C116	C	1.303103	-0.675259	-0.020289
C117	C	1.636436	-0.341926	0.313045
C118	C	0.966681	-1.081819	-0.350188
C119	C	1.300014	-0.748486	-0.016854
C120	C	1.633347	-0.415153	0.316479
C121	C	1.056301	-1.085521	-0.449135
C122	C	1.389634	-0.752188	-0.115802
C123	C	1.722968	-0.418855	0.217532
C124	C	1.059393	-1.012298	-0.452564
C125	C	1.392726	-0.678965	-0.119230
C126	C	1.726060	-0.345632	0.214103
C127	C	1.016124	-0.973837	-0.404810
C128	C	1.349458	-0.640504	-0.071477
C129	C	1.682791	-0.307171	0.261856
C130	C	0.978189	-0.862448	-0.362958
C131	C	1.311523	-0.529115	-0.029624
C132	C	1.644856	-0.195782	0.303709
C133	C	1.019286	-0.898993	-0.408325
C134	C	1.352619	-0.565660	-0.074992
C135	C	1.685953	-0.232326	0.258341
C136	C	1.181540	-0.388902	-0.393502
C137	C	1.514873	-0.055569	-0.060169
C138	C	1.848207	0.277765	0.273164
C139	C	1.259463	-0.392238	-0.396872
C140	C	1.592797	-0.058905	-0.063538
C141	C	1.926130	0.274429	0.269795
C142	C	0.998711	-0.381043	-0.579305
C143	C	1.332044	-0.047710	-0.245971
C144	C	1.665377	0.285623	0.087362
C145	C	0.998723	-0.381031	-0.661852
C146	C	1.332056	-0.047697	-0.328518
C147	C	1.665390	0.285636	0.004815
C148	C	1.006577	-0.198208	-0.394253
C149	C	1.339911	0.135126	-0.060919
C150	C	1.673244	0.468459	0.272414
C151	C	1.009942	-0.120281	-0.397942
C152	C	1.343275	0.213052	-0.064608
C153	C	1.676609	0.546385	0.268725
C154	C	0.949911	-0.425794	-0.857066
C155	C	1.283244	-0.092460	-0.523732
C156	C	1.616578	0.240873	-0.190399
C157	C	1.013142	-0.445665	-0.908408
C158	C	1.346476	-0.112332	-0.575075
C159	C	1.679809	0.221002	-0.241742
C160	C	0.998760	-0.380979	-0.812986
C161	C	1.332093	-0.047645	-0.479653
C162	C	1.665426	0.285688	-0.146320
C163	C	0.935565	-0.361089	-0.908728
C164	C	1.268898	-0.027756	-0.575394
C165	C	1.602231	0.305577	-0.242061
C166	C	0.998790	-0.380929	-0.958975
C167	C	1.332123	-0.047596	-0.625642
C168	C	1.665456	0.285737	-0.292308
C169	C	1.062023	-0.400885	-0.863242
C170	C	1.395356	-0.067552	-0.529908
C171	C	1.728690	0.265782	-0.196575
C172	C	0.984403	-0.316278	-0.863556
C173	C	1.317737	0.017056	-0.530223
C174	C	1.651070	0.350389	-0.196889
C175	C	1.047680	-0.336127	-0.914880
C176	C	1.381013	-0.002793	-0.581546
C177	C	1.714346	0.330540	-0.248213
C178	C	0.998741	-0.381009	-0.728886
C179	C	1.332075	-0.047675	-0.395552
C180	C	1.665408	0.285658	-0.062219
C181	C	0.998815	-0.380900	-1.043074
C182	C	1.332148	-0.047566	-0.709741
C183	C	1.665482	0.285767	-0.376407
C184	C	0.998696	-0.381054	-0.192646
C185	C	1.332029	-0.047721	0.140688
C186	C	1.665362	0.285612	0.474021
C187	C	0.998828	-0.380875	-0.110114
C188	C	1.332161	-0.047542	0.223219
C189	C	1.665494	0.285791	0.556552
H190	H	0.262785	-0.473992	-0.479339
H191	H	0.596119	-0.140659	-0.146005
H192	H	0.929452	0.192675	0.187328
O193	O	1.102468	-0.285896	-0.948151
O194	O	1.435802	0.047438	-0.614817
O195	O	1.769135	0.380771	-0.281484
H196	H	1.140782	-0.314822	-0.983194
H197	H	1.474115	0.018511	-0.649861
H198	H	1.807449	0.351845	-0.316528
H199	H	0.395617	-0.479664	-0.485052
H200	H	0.728951	-0.146330	-0.151718
H201	H	1.062284	0.187003	0.181615
O202	O	0.916689	-1.119310	-0.294961
O203	O	1.250023	-0.785976	0.038372
O204	O	1.583356	-0.452643	0.371705
H205	H	0.921820	-1.176687	-0.300586
H206	H	1.255154	-0.843354	0.032747
H207	H	1.588487	-0.510020	0.366080
H208	H	0.508986	-0.439503	-0.444556
H209	H	0.842319	-0.106169	-0.111222
H210	H	1.175653	0.227164	0.222111
H211	H	0.972223	-0.261597	-0.843761
H212	H	1.305557	0.071737	-0.510428
H213	H	1.638890	0.405070	-0.177094
H214	H	0.269740	-0.311057	-0.314990
H215	H	0.603074	0.022276	0.018344
H216	H	0.936407	0.355609	0.351677
H217	H	0.402562	-0.316731	-0.320696
H218	H	0.735896	0.016602	0.012638
H219	H	1.069229	0.349935	0.345971
H220	H	1.097139	-0.983998	-0.494246
H221	H	1.430472	-0.650665	-0.160913
H222	H	1.763805	-0.317332	0.172420
H223	H	1.062942	-0.784155	-0.456539
H224	H	1.396275	-0.450822	-0.123206
H225	H	1.729609	-0.117489	0.210127
H226	H	0.602451	-0.282529	-0.286193
H227	H	0.935784	0.050804	0.047140
H228	H	1.269118	0.384138	0.380473
O229	O	0.745475	-0.276754	-0.280339
O230	O	1.078809	0.056580	0.052994
O231	O	1.412142	0.389913	0.386327
H232	H	0.709051	-0.243927	-0.247211
H233	H	1.042384	0.089406	0.086123
H234	H	1.375718	0.422740	0.419456
O235	O	0.479903	-0.310422	-0.314284
O236	O	0.813236	0.022912	0.019050
O237	O	1.146570	0.356245	0.352383
H238	H	0.448076	-0.273375	-0.347821
H239	H	0.781409	0.059958	-0.014488
H240	H	1.114743	0.393291	0.318846
O241	O	1.080810	-0.642136	-0.476300
O242	O	1.414143	-0.308802	-0.142966
O243	O	1.747477	0.024531	0.190367
H244	H	1.050823	-0.607436	-0.514263
H245	H	1.384157	-0.274103	-0.180930
H246	H	1.717490	0.059231	0.152403
H247	H	1.091527	-1.116844	-0.488014
H248	H	1.424860	-0.783511	-0.154680
H249	H	1.758194	-0.450177	0.178653
O250	O	0.923118	-0.967114	-0.302105
O251	O	1.256451	-0.633780	0.031228
O252	O	1.589784	-0.300447	0.364562
H253	H	0.890376	-1.003589	-0.265925
H254	H	1.223709	-0.670255	0.067409
H255	H	1.557043	-0.336922	0.400742
O256	O	0.888098	-0.786622	-0.263489
O257	O	1.221432	-0.453288	0.069844
O258	O	1.554765	-0.119955	0.403177
H259	H	0.893223	-0.844000	-0.269113
H260	H	1.226556	-0.510667	0.064221
H261	H	1.559889	-0.177333	0.397554
O262	O	0.894527	-0.634425	-0.270638
O263	O	1.227861	-0.301091	0.062695
O264	O	1.561194	0.032242	0.396028
H265	H	0.861780	-0.670896	-0.234459
H266	H	1.195113	-0.337562	0.098875
H267	H	1.528447	-0.004229	0.432208
O268	O	1.069289	-0.861508	-0.463531
O269	O	1.402623	-0.528175	-0.130197
O270	O	1.735956	-0.194842	0.203136
H271	H	1.039303	-0.826809	-0.501495
H272	H	1.372636	-0.493475	-0.168161
H273	H	1.705970	-0.160142	0.165172
H274	H	0.940449	-0.890758	-0.321277
H275	H	1.273783	-0.557425	0.012057
H276	H	1.607116	-0.224092	0.345390
O277	O	0.864760	-0.338821	-0.935275
O278	O	1.198093	-0.005488	-0.601942
O279	O	1.531426	0.327846	-0.268608
H280	H	0.824297	-0.376122	-0.911988
H281	H	1.157630	-0.042789	-0.578655
H282	H	1.490963	0.290545	-0.245321
O283	O	0.895245	-0.476060	-0.823603
O284	O	1.228578	-0.142727	-0.490270
O285	O	1.561911	0.190607	-0.156937
H286	H	0.907349	-0.529715	-0.841508
H287	H	1.240683	-0.196382	-0.508174
H288	H	1.574016	0.136951	-0.174841
H289	H	1.025303	-0.500361	-0.928185
H290	H	1.358636	-0.167027	-0.594852
H291	H	1.691970	0.166306	-0.261519
H292	H	1.115492	-0.417749	-0.843286
H293	H	1.448825	-0.084415	-0.509953
H294	H	1.782158	0.248918	-0.176620
H295	H	0.595509	-0.445457	-0.450544
H296	H	0.928843	-0.112124	-0.117211
H297	H	1.262176	0.221210	0.216123
O298	O	0.737508	-0.463404	-0.468645
O299	O	1.070842	-0.130071	-0.135312
O300	O	1.404175	0.203262	0.198022
H301	H	0.698418	-0.493008	-0.498524
H302	H	1.031751	-0.159674	-0.165190
H303	H	1.365084	0.173659	0.168143
