data_functionalizedCrystal
_audit_creation_method	'MofGen! by Chris Wilmer'
_symmetry_space_group_name_H-M	'P1'
_symmetry_Int_Tables_number	1
_symmetry_cell_setting	triclinic
loop_
_symmetry_equiv_pos_as_xyz
  x,y,z
_cell_length_a	14.908993
_cell_length_b	19.121063
_cell_length_c	14.908308
_cell_angle_alpha	84.445373
_cell_angle_beta	83.629285
_cell_angle_gamma	95.622943
loop_
_atom_site_label
_atom_site_type_symbol
_atom_site_fract_x
_atom_site_fract_y
_atom_site_fract_z
Zn1	Zn	1.340281	-0.239371	0.445940
Zn2	Zn	1.840281	0.260629	0.945940
Zn3	Zn	1.342455	-0.350224	0.301022
Zn4	Zn	1.842455	0.149776	0.801022
Zn5	Zn	1.197653	-0.239405	0.303321
Zn6	Zn	1.697653	0.260595	0.803321
Zn7	Zn	1.181586	-0.364638	0.461889
Zn8	Zn	1.681586	0.135362	0.961889
O9	O	1.265494	-0.298410	0.378043
O10	O	1.765494	0.201590	0.878043
O11	O	1.467585	-0.248030	0.419080
O12	O	1.967585	0.251970	0.919080
O13	O	1.330881	-0.329505	0.174316
O14	O	1.830881	0.170495	0.674316
O15	O	1.222387	-0.140598	0.316527
O16	O	1.722387	0.359402	0.816527
O17	O	1.469182	-0.329472	0.312609
O18	O	1.969182	0.170528	0.812609
O19	O	1.327176	-0.140573	0.421309
O20	O	1.827176	0.359427	0.921309
O21	O	1.224495	-0.248087	0.176005
O22	O	1.724495	0.251913	0.676005
O23	O	1.068507	-0.262064	0.331992
O24	O	1.568507	0.237936	0.831992
O25	O	1.195003	-0.354040	0.586784
O26	O	1.695003	0.145960	1.086784
O27	O	1.056702	-0.354072	0.448492
O28	O	1.556702	0.145928	0.948492
O29	O	1.311596	-0.262007	0.575066
O30	O	1.811596	0.237993	1.075066
O31	O	1.315301	-0.450938	0.328074
O32	O	1.815301	0.049062	0.828074
O33	O	1.197111	-0.461529	0.446263
O34	O	1.697111	0.038471	0.946263
C35	C	1.029671	-0.309637	0.392222
C36	C	1.529671	0.190363	0.892222
C37	C	0.928782	-0.314458	0.398311
C38	C	1.428782	0.185542	0.898311
C39	C	0.751440	-0.227581	0.288595
C40	C	1.251440	0.272419	0.788595
C41	C	0.656647	-0.232108	0.294313
C42	C	1.156647	0.267892	0.794313
C43	C	0.644401	-0.328043	0.415459
C44	C	1.144401	0.171957	0.915459
C45	C	0.739194	-0.323515	0.409741
C46	C	1.239194	0.176485	0.909741
C47	C	0.792711	-0.273282	0.346308
C48	C	1.292711	0.226718	0.846308
C49	C	0.887506	-0.268752	0.340596
C50	C	1.387506	0.231248	0.840596
C51	C	0.875258	-0.364689	0.461737
C52	C	1.375258	0.135311	0.961737
C53	C	0.780464	-0.369216	0.467454
C54	C	1.280464	0.130784	0.967454
C55	C	1.254722	-0.481852	0.388668
C56	C	1.754722	0.018148	0.888668
C57	C	1.250195	-0.560326	0.393238
C58	C	1.750195	-0.060326	0.893238
C59	C	1.309646	-0.591657	0.333897
C60	C	1.809646	-0.091657	0.833897
C61	C	1.305393	-0.665393	0.338200
C62	C	1.805393	-0.165393	0.838200
C63	C	1.241685	-0.707797	0.401842
C64	C	1.741685	-0.207797	0.901842
C65	C	1.182232	-0.676461	0.461190
C66	C	1.682232	-0.176461	0.961190
C67	C	1.186489	-0.602727	0.456890
C68	C	1.686489	-0.102727	0.956890
C69	C	1.225753	-0.930704	0.417906
C70	C	1.725753	-0.430704	0.917906
C71	C	1.221499	-1.004443	0.422200
C72	C	1.721499	-0.504443	0.922200
C73	C	1.344662	-0.993369	0.299210
C74	C	1.844662	-0.493369	0.799210
C75	C	1.348910	-0.919634	0.294912
C76	C	1.848910	-0.419634	0.794912
C77	C	1.289460	-0.888305	0.354263
C78	C	1.789460	-0.388305	0.854263
C79	C	1.237335	-0.783166	0.406241
C80	C	1.737335	-0.283166	0.906241
C81	C	1.293815	-0.812937	0.349868
C82	C	1.793815	-0.312937	0.849868
C83	C	1.502238	-0.287139	0.363809
C84	C	2.002238	0.212861	0.863809
C85	C	1.603124	-0.282336	0.357743
C86	C	2.103124	0.217664	0.857743
C87	C	1.251265	-0.309628	0.614778
C88	C	1.751265	0.190372	1.114778
C89	C	1.245201	-0.314408	0.715661
C90	C	1.745201	0.185592	1.215661
C91	C	1.276331	-0.114251	0.367395
C92	C	1.776331	0.385749	0.867395
C93	C	1.280949	-0.035774	0.362858
C94	C	1.780949	0.464226	0.862858
C95	C	1.279723	-0.287182	0.142223
C96	C	1.779723	0.212818	0.642223
C97	C	1.285974	-0.282194	0.041319
C98	C	1.785974	0.217806	0.541319
C99	C	1.355214	-0.227541	0.893029
C100	C	1.855214	0.272459	1.393029
C101	C	1.349520	-0.232030	0.987817
C102	C	1.849520	0.267970	1.487817
C103	C	1.228115	-0.327871	1.000026
C104	C	1.728115	0.172129	1.500026
C105	C	1.233809	-0.323382	0.905238
C106	C	1.733809	0.176618	1.405238
C107	C	1.297362	-0.273216	0.851743
C108	C	1.797362	0.226784	1.351743
C109	C	1.303060	-0.268731	0.756953
C110	C	1.803060	0.231269	1.256953
C111	C	1.181651	-0.364569	0.769164
C112	C	1.681651	0.135431	1.269164
C113	C	1.175957	-0.369058	0.863952
C114	C	1.675957	0.130942	1.363952
H115	H	0.795015	-0.186671	0.236956
H116	H	1.295015	0.313329	0.736956
H117	H	1.353804	-0.690898	0.289877
H118	H	1.853804	-0.190898	0.789877
Cl119	Cl	1.419400	-1.032759	0.224608
Cl120	Cl	1.919400	-0.532759	0.724608
Cl121	Cl	1.157246	-0.836480	0.486245
Cl122	Cl	1.657246	-0.336480	0.986245
H123	H	1.354809	-0.227884	0.713399
H124	H	1.854809	0.272116	1.213399
H125	H	1.400786	-0.885110	0.243090
H126	H	1.900786	-0.385110	0.743090
Cl127	Cl	0.713178	-0.432371	0.547183
Cl128	Cl	1.213178	0.067629	1.047183
Cl129	Cl	0.604767	-0.174654	0.221754
Cl130	Cl	1.104767	0.325346	0.721754
Cl131	Cl	1.141391	-1.057751	0.502202
Cl132	Cl	1.641391	-0.557751	1.002202
H133	H	1.406965	-0.186697	0.849472
H134	H	1.906965	0.313303	1.349472
H135	H	1.138079	-0.577219	0.505214
H136	H	1.638079	-0.077219	1.005214
Cl137	Cl	0.577108	-0.391212	0.495164
Cl138	Cl	1.077108	0.108788	0.995164
H139	H	1.177345	-0.905202	0.466230
H140	H	1.677345	-0.405202	0.966230
Cl141	Cl	1.373906	-0.759628	0.269868
Cl142	Cl	1.873906	-0.259628	0.769868
Cl143	Cl	0.927145	-0.422132	0.534312
Cl144	Cl	1.427145	0.077868	1.034312
Cl145	Cl	1.389735	-0.538356	0.253880
Cl146	Cl	1.889735	-0.038356	0.753880
H147	H	1.130363	-0.710992	0.513013
H148	H	1.630363	-0.210992	1.013013
H149	H	1.396627	-0.194834	1.021428
H150	H	1.896627	0.305166	1.521428
H151	H	1.176374	-0.368714	1.043598
H152	H	1.676374	0.131286	1.543598
Cl153	Cl	1.096066	-0.432120	0.931211
Cl154	Cl	1.596066	0.067880	1.431211
Cl155	Cl	1.108928	-0.422000	0.717256
Cl156	Cl	1.608928	0.078000	1.217256
H157	H	0.931078	-0.227845	0.288950
H158	H	1.431078	0.272155	0.788950
