data_functionalizedCrystal
_audit_creation_method	'MofGen! by Chris Wilmer'
_symmetry_space_group_name_H-M	'P1'
_symmetry_Int_Tables_number	1
_symmetry_cell_setting	triclinic
loop_
_symmetry_equiv_pos_as_xyz
  x,y,z
_cell_length_a	19.188930
_cell_length_b	19.188930
_cell_length_c	18.266242
_cell_angle_alpha	89.993204
_cell_angle_beta	89.979776
_cell_angle_gamma	83.144779
loop_
_atom_site_label
_atom_site_type_symbol
_atom_site_fract_x
_atom_site_fract_y
_atom_site_fract_z
O1	O	0.926147	0.087164	-0.061124
O2	O	0.722836	0.098898	-0.061075
O3	O	0.830359	-0.008624	-0.061087
O4	O	0.818624	0.194687	-0.061113
O5	O	0.830345	-0.008621	0.060675
O6	O	0.722822	0.098902	0.060687
O7	O	0.926133	0.087168	0.060638
Zn8	Zn	0.824475	0.093035	0.079994
Zn9	Zn	0.824494	0.093031	-0.080432
O10	O	0.818611	0.194690	0.060649
C11	C	0.696818	0.098520	-0.000188
C12	C	0.619313	0.097380	-0.000169
C13	C	0.574389	0.160470	-0.000188
C14	C	0.501566	0.159399	-0.000196
C15	C	0.473669	0.095233	-0.000199
C16	C	0.518603	0.032133	-0.000175
C17	C	0.591425	0.033207	-0.000160
N18	N	0.365694	0.046184	-0.041663
N19	N	0.296515	0.045169	-0.041679
C20	C	0.254260	0.091994	-0.000243
N21	N	0.283796	0.139884	0.041200
N22	N	0.352981	0.140902	0.041213
C23	C	0.394707	0.094062	-0.000215
C24	C	0.130372	0.153928	-0.000270
C25	C	0.057547	0.152853	-0.000274
C26	C	0.074586	0.025586	-0.000261
C27	C	0.147409	0.026662	-0.000250
C28	C	0.175298	0.090835	-0.000258
C29	C	0.829972	-0.034634	-0.000204
C30	C	0.828831	-0.112138	-0.000197
C31	C	0.891922	-0.157062	-0.000209
C32	C	0.890850	-0.229886	-0.000220
C33	C	0.826684	-0.257782	-0.000206
C34	C	0.763585	-0.212849	-0.000198
C35	C	0.764658	-0.140026	-0.000194
N36	N	0.777632	-0.365786	0.041244
N37	N	0.776617	-0.434965	0.041242
C38	C	0.823446	-0.477191	-0.000220
N39	N	0.871340	-0.447627	-0.041669
N40	N	0.872357	-0.378442	-0.041664
C41	C	0.825513	-0.336745	-0.000210
C42	C	0.885379	-0.601079	-0.000245
C43	C	0.884305	-0.673904	-0.000261
C44	C	0.757038	-0.656865	-0.000231
C45	C	0.758114	-0.584042	-0.000222
C46	C	0.822286	-0.556154	-0.000226
C47	C	0.952151	0.087546	-0.000252
C48	C	1.029656	0.088687	-0.000276
C49	C	0.818997	0.220700	-0.000236
C50	C	0.820138	0.298204	-0.000247
N51	N	0.824468	0.093038	0.189481
N52	N	0.824506	0.093023	-0.189919
C53	C	0.866721	0.135258	0.771741
C54	C	0.866713	0.135265	0.695096
C55	C	0.824500	0.093024	0.656794
C56	C	0.782277	0.050785	0.695143
C57	C	0.782281	0.050785	0.771786
N58	N	0.822809	0.031863	0.536465
N59	N	0.822810	0.031866	0.463657
C60	C	0.824487	0.093024	0.425872
N61	N	0.826176	0.154180	0.463645
N62	N	0.826179	0.154177	0.536460
C63	C	0.824492	0.093020	0.573687
C64	C	0.866695	0.135271	0.304425
C65	C	0.866683	0.135279	0.227779
C66	C	0.782251	0.050793	0.227826
C67	C	0.782259	0.050791	0.304471
C68	C	0.824485	0.093029	0.342766
H69	H	0.183988	-0.024713	-0.000238
H70	H	0.935683	-0.710481	-0.000274
H71	H	0.713281	-0.103449	-0.000184
H72	H	0.937632	-0.578372	-0.000251
H73	H	0.942228	-0.266470	-0.000233
H74	H	0.704792	-0.679578	-0.000222
H75	H	0.901088	0.169662	0.663874
C76	C	0.487923	-0.038449	-0.000180
H77	H	0.525111	-0.075872	-0.000161
H78	H	0.459893	-0.041516	-0.042647
H79	H	0.459846	-0.041510	0.042280
C80	C	0.688713	-0.534624	-0.000197
H81	H	0.650343	-0.561666	-0.000183
H82	H	0.686489	-0.505852	-0.042654
H83	H	0.686485	-0.505872	0.042274
C84	C	0.735830	0.004327	0.346650
H85	H	0.741874	0.010380	0.397781
H86	H	0.748946	-0.043479	0.334090
H87	H	0.688017	0.017425	0.334108
H88	H	0.747906	0.016394	0.663952
H89	H	0.901103	0.169653	0.802916
H90	H	0.628003	-0.018171	-0.000145
H91	H	0.747903	0.016391	0.803002
C92	C	0.043912	-0.044997	-0.000261
H93	H	0.081101	-0.082419	-0.000244
H94	H	0.015878	-0.048065	-0.042725
H95	H	0.015839	-0.048058	0.042203
C96	C	0.605063	0.231057	-0.000184
H97	H	0.567874	0.268479	-0.000189
H98	H	0.633143	0.234124	-0.042636
H99	H	0.633090	0.234120	0.042291
C100	C	0.913130	0.181739	0.346552
H101	H	0.938262	0.206904	0.312738
H102	H	0.945353	0.153050	0.376441
H103	H	0.884415	0.213944	0.376458
C104	C	0.913121	0.181741	0.185605
H105	H	0.938272	0.206889	0.219392
H106	H	0.884414	0.213950	0.155716
H107	H	0.945338	0.153042	0.155696
C108	C	0.161053	0.224513	-0.000272
H109	H	0.123865	0.261936	-0.000274
H110	H	0.189127	0.227577	-0.042729
H111	H	0.189086	0.227577	0.042198
H112	H	0.747876	0.016403	0.196641
C113	C	0.962507	-0.126385	-0.000216
H114	H	0.954112	-0.076580	-0.000205
H115	H	0.988486	-0.141813	-0.042680
H116	H	0.988464	-0.141826	0.042247
C117	C	0.452138	0.228799	-0.000221
H118	H	0.404773	0.218967	-0.000225
H119	H	0.460594	0.255116	-0.042684
H120	H	0.460546	0.255124	0.042243
C121	C	0.008130	0.222257	-0.000295
H122	H	0.035172	0.260626	-0.000305
H123	H	-0.020654	0.224490	0.042160
H124	H	-0.020609	0.224477	-0.042768
H125	H	0.711340	-0.235567	-0.000187
