data_functionalizedCrystal
_audit_creation_method	'MofGen! by Chris Wilmer'
_symmetry_space_group_name_H-M	'P1'
_symmetry_Int_Tables_number	1
_symmetry_cell_setting	triclinic
loop_
_symmetry_equiv_pos_as_xyz
  x,y,z
_cell_length_a	16.959454
_cell_length_b	12.759395
_cell_length_c	12.759387
_cell_angle_alpha	90.020674
_cell_angle_beta	89.969920
_cell_angle_gamma	89.982448
loop_
_atom_site_label
_atom_site_type_symbol
_atom_site_fract_x
_atom_site_fract_y
_atom_site_fract_z
Zn1	Zn	-0.314693	-1.606229	-0.594015
Zn2	Zn	-0.446893	-1.606104	-0.418338
Zn3	Zn	-0.314727	-1.430528	-0.418351
Zn4	Zn	-0.446828	-1.430503	-0.593976
O5	O	-0.380785	-1.518341	-0.506170
O6	O	-0.332243	-1.753234	-0.570721
O7	O	-0.429403	-1.582770	-0.271318
O8	O	-0.204111	-1.453898	-0.441675
O9	O	-0.429370	-1.753141	-0.441652
O10	O	-0.204087	-1.582985	-0.570735
O11	O	-0.332301	-1.453776	-0.271328
O12	O	-0.332237	-1.283503	-0.441638
O13	O	-0.429258	-1.453856	-0.741002
O14	O	-0.429291	-1.283486	-0.570669
O15	O	-0.332179	-1.582962	-0.741031
O16	O	-0.557495	-1.582747	-0.441614
O17	O	-0.557447	-1.453734	-0.570655
C18	C	-0.380761	-1.245374	-0.506151
C19	C	-0.380770	-1.128597	-0.506168
C20	C	-0.279795	-1.128674	-0.640785
C21	C	-0.229315	-1.073852	-0.708101
C22	C	-0.229326	-0.964130	-0.708112
C23	C	-0.279820	-0.909228	-0.640797
C24	C	-0.330299	-0.964050	-0.573481
C25	C	-0.330285	-1.073775	-0.573480
C26	C	-0.431269	-0.963973	-0.438860
C27	C	-0.431264	-1.073695	-0.438853
C28	C	-0.481763	-0.909072	-0.371546
C29	C	-0.532248	-0.963894	-0.304234
C30	C	-0.532236	-1.073622	-0.304227
C31	C	-0.481743	-1.128517	-0.371538
C32	C	-0.586151	-1.518253	-0.506152
C33	C	-0.674008	-1.518311	-0.506180
C34	C	-1.045488	-1.451262	-0.573354
C35	C	-1.045479	-1.585713	-0.439093
C36	C	-0.962933	-1.585676	-0.439083
C37	C	-0.921661	-1.518430	-0.506209
C38	C	-0.962935	-1.451221	-0.573345
C39	C	-0.921653	-1.652877	-0.371941
C40	C	-0.839102	-1.652842	-0.371928
C41	C	-0.797828	-1.585601	-0.439060
C42	C	-0.839107	-1.518389	-0.506199
C43	C	-0.797836	-1.451143	-0.573325
C44	C	-0.839113	-1.383936	-0.640470
C45	C	-0.921662	-1.383979	-0.640477
C46	C	-0.715280	-1.585558	-0.439054
C47	C	-0.715282	-1.451102	-0.573315
C48	C	-0.174617	-1.518458	-0.506211
C49	C	-0.086760	-1.518508	-0.506228
C50	C	-0.380708	-1.518420	-0.780204
C51	C	-0.380675	-1.518454	-0.896980
C52	C	-0.380802	-0.792374	-0.506184
C53	C	-0.380790	-0.909151	-0.506176
C54	C	-0.279593	-1.652900	-0.897030
C55	C	-0.229041	-1.720138	-0.951915
C56	C	-0.229012	-1.720164	-1.061637
C57	C	-0.279539	-1.652942	-1.116476
C58	C	-0.330092	-1.585704	-1.061590
C59	C	-0.330117	-1.585688	-0.951866
C60	C	-0.431168	-1.451254	-1.061541
C61	C	-0.431202	-1.451233	-0.951819
C62	C	-0.481696	-1.384033	-1.116379
C63	C	-0.532253	-1.316799	-1.061494
C64	C	-0.532281	-1.316777	-0.951765
C65	C	-0.481755	-1.383995	-0.896933
C66	C	-0.380805	-1.518322	-0.233202
C67	C	-0.380616	-1.518492	-0.116426
H68	H	-0.481766	-0.819730	-0.371556
H69	H	-0.481775	-1.383988	-0.807592
H70	H	-0.279778	-1.218015	-0.640779
C71	C	-0.577056	-1.241782	-0.244430
C72	C	-0.587724	-1.133881	-0.230228
H73	H	-0.611310	-1.278978	-0.198740
H74	H	-0.588695	-1.259785	-0.314982
H75	H	-0.523928	-1.259761	-0.229181
H76	H	-0.640850	-1.115900	-0.245485
H77	H	-0.576090	-1.115870	-0.159660
H78	H	-0.681683	-1.396346	-0.627982
C79	C	-0.556858	-1.410786	-1.273534
C80	C	-0.481667	-1.384057	-1.236987
H81	H	-0.556843	-1.410795	-1.347993
H82	H	-0.570536	-1.478563	-1.248722
H83	H	-0.594188	-1.361114	-1.248687
H84	H	-0.444339	-1.433734	-1.261829
H85	H	-0.467980	-1.316270	-1.261811
H86	H	-0.188217	-0.919494	-0.762920
H87	H	-0.187843	-1.774908	-1.106325
H88	H	-0.279818	-0.819887	-0.640803
H89	H	-0.481724	-1.217858	-0.371533
H90	H	-0.805500	-1.329179	-0.695120
H91	H	-1.079100	-1.396546	-0.628025
H92	H	-0.805499	-1.707566	-0.317256
C93	C	-0.913379	-1.251078	-0.773200
C94	C	-0.967034	-1.310107	-0.714276
H95	H	-0.941394	-1.205478	-0.818763
H96	H	-0.881225	-1.210899	-0.727389
H97	H	-0.881140	-1.296827	-0.813424
H98	H	-0.999270	-1.264358	-0.674046
H99	H	-0.999203	-1.350290	-0.760092
C100	C	-0.577091	-0.795663	-0.244470
C101	C	-0.587746	-0.903546	-0.230250
H102	H	-0.611359	-0.758406	-0.198799
H103	H	-0.523976	-0.777700	-0.229216
H104	H	-0.588726	-0.777718	-0.315038
H105	H	-0.576106	-0.921493	-0.159684
H106	H	-0.640874	-0.921516	-0.245497
C107	C	-0.723566	-1.718447	-0.306331
C108	C	-0.669908	-1.659421	-0.365252
H109	H	-0.695554	-1.764053	-0.260771
H110	H	-0.755802	-1.672704	-0.266113
H111	H	-0.755724	-1.758630	-0.352151
H112	H	-0.637754	-1.619232	-0.319432
H113	H	-0.637658	-1.705169	-0.405472
H114	H	-1.079087	-1.640456	-0.384435
C115	C	-0.632203	-1.183893	-0.962748
C116	C	-0.587860	-1.242878	-0.891439
H117	H	-0.666521	-1.138279	-0.925506
H118	H	-0.597747	-1.143731	-1.005535
H119	H	-0.662424	-1.229670	-1.005554
H120	H	-0.557635	-1.197101	-0.848638
H121	H	-0.622321	-1.283042	-0.848635
H122	H	-0.279505	-1.652960	-1.205817
C123	C	-0.224607	-1.726078	-0.739879
C124	C	-0.279628	-1.652879	-0.776422
H125	H	-0.224625	-1.726060	-0.665421
H126	H	-0.238285	-1.793860	-0.764709
H127	H	-0.173591	-1.707944	-0.764714
H128	H	-0.330644	-1.671018	-0.751594
H129	H	-0.265953	-1.585083	-0.751582
H130	H	-0.955262	-1.707618	-0.317283
C131	C	-0.129123	-1.853043	-0.962984
C132	C	-0.173502	-1.794026	-0.891637
H133	H	-0.094832	-1.898652	-0.925770
H134	H	-0.163558	-1.893213	-1.005774
H135	H	-0.098872	-1.807286	-1.005782
H136	H	-0.203758	-1.839783	-0.848843
H137	H	-0.139062	-1.753854	-0.848828
C138	C	-0.184467	-1.242085	-0.767879
C139	C	-0.173817	-1.134201	-0.782095
H140	H	-0.150206	-1.279337	-0.813564
H141	H	-0.172825	-1.260035	-0.697325
H142	H	-0.237591	-1.260050	-0.783127
H143	H	-0.120693	-1.116235	-0.766840
H144	H	-0.185453	-1.116245	-0.852665
H145	H	-0.573385	-1.262067	-1.106152
