data_functionalizedCrystal
_audit_creation_method	'MofGen! by Chris Wilmer'
_symmetry_space_group_name_H-M	'P1'
_symmetry_Int_Tables_number	1
_symmetry_cell_setting	triclinic
loop_
_symmetry_equiv_pos_as_xyz
  x,y,z
_cell_length_a	13.032831
_cell_length_b	13.032721
_cell_length_c	13.033454
_cell_angle_alpha	90.931327
_cell_angle_beta	90.908350
_cell_angle_gamma	90.902885
loop_
_atom_site_label
_atom_site_type_symbol
_atom_site_fract_x
_atom_site_fract_y
_atom_site_fract_z
Zn1	Zn	1.429259	-0.491741	0.834510
Zn2	Zn	1.929259	0.008259	1.334510
Zn3	Zn	1.423754	-0.684992	0.683598
Zn4	Zn	1.923754	-0.184992	1.183598
Zn5	Zn	1.278339	-0.497140	0.641330
Zn6	Zn	1.778339	0.002860	1.141330
Zn7	Zn	1.235997	-0.642551	0.829103
Zn8	Zn	1.735997	-0.142551	1.329103
O9	O	1.341837	-0.579106	0.747135
O10	O	1.841837	-0.079106	1.247135
O11	O	1.570267	-0.532879	0.834444
O12	O	2.070267	-0.032879	1.334444
O13	O	1.419881	-0.680095	0.536250
O14	O	1.919881	-0.180095	1.036250
O15	O	1.318383	-0.354693	0.651529
O16	O	1.818383	0.145307	1.151529
O17	O	1.566222	-0.674860	0.723570
O18	O	2.066222	-0.174860	1.223570
O19	O	1.429263	-0.350727	0.793458
O20	O	1.929263	0.149273	1.293458
O21	O	1.313045	-0.542081	0.505196
O22	O	1.813045	-0.042081	1.005196
O23	O	1.130984	-0.500927	0.646285
O24	O	1.630984	-0.000927	1.146285
O25	O	1.246217	-0.602524	0.971561
O26	O	1.746217	-0.102524	1.471561
O27	O	1.099876	-0.607759	0.784241
O28	O	1.599876	-0.107759	1.284241
O29	O	1.388206	-0.491725	0.975534
O30	O	1.888206	0.008275	1.475534
O31	O	1.378824	-0.821093	0.718326
O32	O	1.878824	-0.321093	1.218326
O33	O	1.240879	-0.789911	0.825228
O34	O	1.740879	-0.289911	1.325228
C35	C	1.078679	-0.550324	0.710091
C36	C	1.578679	-0.050324	1.210091
C37	C	0.966092	-0.538032	0.694269
C38	C	1.466092	-0.038032	1.194269
C39	C	0.900530	-0.585522	0.755392
C40	C	1.400530	-0.085522	1.255392
C41	C	0.784165	-0.572818	0.739042
C42	C	1.284165	-0.072818	1.239042
C43	C	1.304685	-0.842252	0.775803
C44	C	1.804685	-0.342252	1.275803
C45	C	1.288879	-0.954832	0.788114
C46	C	1.788879	-0.454832	1.288114
C47	C	1.350135	-1.020416	0.740763
C48	C	1.850135	-0.520416	1.240763
C49	C	1.333801	-1.136774	0.753486
C50	C	1.833801	-0.636774	1.253486
C51	C	1.606023	-0.608001	0.784325
C52	C	2.106023	-0.108001	1.284325
C53	C	1.718603	-0.620315	0.800173
C54	C	2.218603	-0.120315	1.300173
C55	C	1.313102	-0.541788	1.011327
C56	C	1.813102	-0.041788	1.511327
C57	C	1.300857	-0.525885	1.123910
C58	C	1.800857	-0.025885	1.623910
C59	C	1.379160	-0.314933	0.718382
C60	C	1.879160	0.185067	1.218382
C61	C	1.395065	-0.202358	0.706129
C62	C	1.895065	0.297642	1.206129
C63	C	1.370529	-0.616213	0.483972
C64	C	1.870529	-0.116213	0.983972
C65	C	1.383011	-0.631852	0.371386
C66	C	1.883011	-0.131852	0.871386
C67	C	1.348258	-0.587081	1.189468
C68	C	1.848258	-0.087081	1.689468
C69	C	1.335603	-0.570647	1.305828
C70	C	1.835603	-0.070647	1.805828
H71	H	0.936075	-0.487964	0.629839
H72	H	1.436075	0.012036	1.129839
C73	C	1.437321	-0.979902	0.673270
C74	C	1.937321	-0.479902	1.173270
N75	N	1.502990	-0.949389	0.622431
N76	N	2.002990	-0.449389	1.122431
C77	C	1.415741	-0.674301	1.148920
C78	C	1.915741	-0.174301	1.648920
N79	N	1.466569	-0.739999	1.118381
N80	N	1.966569	-0.239999	1.618381
H81	H	1.269265	-1.166762	0.803452
H82	H	1.769265	-0.666762	1.303452
C83	C	1.482257	-1.161852	0.638632
C84	C	1.982257	-0.661852	1.138632
N85	N	1.547928	-1.131341	0.587793
N86	N	2.047928	-0.631341	1.087793
H87	H	1.224348	-0.984825	0.838076
H88	H	1.724348	-0.484825	1.338076
H89	H	1.285654	-0.506078	1.335842
H90	H	1.785654	-0.006078	1.835842
H91	H	1.432970	-0.696413	1.341374
H92	H	1.932970	-0.196413	1.841374
H93	H	1.250911	-0.461321	1.153928
H94	H	1.750911	0.038679	1.653928
H95	H	0.930547	-0.635580	0.819830
H96	H	1.430547	-0.135580	1.319830
H97	H	0.748614	-0.670375	0.864618
H98	H	1.248614	-0.170375	1.364618
C99	C	0.743624	-0.505180	0.651988
C100	C	1.243624	-0.005180	1.151988
N101	N	0.713086	-0.454236	0.586419
N102	N	1.213086	0.045764	1.086419
