data_functionalizedCrystal
_audit_creation_method	'MofGen! by Chris Wilmer'
_symmetry_space_group_name_H-M	'P1'
_symmetry_Int_Tables_number	1
_symmetry_cell_setting	triclinic
loop_
_symmetry_equiv_pos_as_xyz
  x,y,z
_cell_length_a	10.654541
_cell_length_b	15.995350
_cell_length_c	9.130307
_cell_angle_alpha	89.998938
_cell_angle_beta	89.999822
_cell_angle_gamma	83.988152
loop_
_atom_site_label
_atom_site_type_symbol
_atom_site_fract_x
_atom_site_fract_y
_atom_site_fract_z
O1	O	1.666303	0.117592	-0.121747
O2	O	1.300677	0.128798	-0.121759
O3	O	1.493484	0.001365	-0.121751
O4	O	1.473495	0.245024	-0.121754
O5	O	1.493478	0.001364	0.121848
O6	O	1.300671	0.128797	0.121840
O7	O	1.666296	0.117590	0.121852
Cu8	Cu	1.483483	0.123193	0.144089
Cu9	Cu	1.483490	0.123195	-0.143995
O10	O	1.473489	0.245023	0.121845
C11	C	1.253887	0.127975	0.000039
C12	C	1.114475	0.125514	0.000034
C13	C	1.084514	0.277895	0.000014
C14	C	1.004039	0.352926	-0.000002
C15	C	0.873052	0.350609	-0.000003
C16	C	0.822537	0.273253	0.000016
C17	C	0.903011	0.198222	0.000032
C18	C	1.034000	0.200547	0.000029
C19	C	0.932972	0.045843	0.000063
C20	C	1.063961	0.048158	0.000054
C21	C	0.882458	-0.031513	0.000082
C22	C	0.962933	-0.106546	0.000087
C23	C	1.093928	-0.104226	0.000087
C24	C	1.144435	-0.026873	0.000070
C25	C	1.492655	-0.029835	0.000046
C26	C	1.490177	-0.122800	0.000037
C27	C	1.481280	-0.460599	0.000042
C28	C	1.343966	-0.413961	-0.000509
C29	C	1.346444	-0.317257	0.000040
C30	C	1.485693	-0.293013	0.000039
C31	C	1.553418	-0.333698	0.139146
C32	C	1.549968	-0.430354	0.139262
C33	C	1.552812	-0.430694	-0.137756
C34	C	1.552779	-0.333749	-0.139594
C35	C	1.488195	-0.198301	0.000042
C36	C	1.478783	-0.555311	0.000049
C37	C	1.713087	0.118413	0.000051
C38	C	1.852498	0.120874	0.000047
C39	C	1.474318	0.276223	0.000045
C40	C	1.476796	0.369188	0.000044
N41	N	1.483487	0.123192	0.346712
N42	N	1.483496	0.123190	-0.346618
C43	C	1.654287	0.010383	0.346709
C44	C	1.739695	-0.046019	0.423374
C45	C	1.739708	-0.046019	0.576707
C46	C	1.654300	0.010387	0.653379
C47	C	1.568892	0.066788	0.576714
C48	C	1.568891	0.066785	0.423377
C49	C	1.398088	0.179592	0.576717
C50	C	1.398079	0.179598	0.423384
C51	C	1.312680	0.235998	0.653389
C52	C	1.227276	0.292405	0.576724
C53	C	1.227268	0.292404	0.423381
C54	C	1.312671	0.236000	0.346718
H55	H	1.251090	-0.024976	0.000052
C56	C	1.270805	-0.438934	-0.133651
C57	C	1.233783	-0.367415	-0.217823
C58	C	1.166401	-0.390395	-0.340499
H59	H	1.198123	-0.463760	-0.102574
H60	H	1.322909	-0.478205	-0.190866
H61	H	1.181681	-0.328159	-0.160617
H62	H	1.306440	-0.342580	-0.248937
H63	H	1.218505	-0.429665	-0.397715
H64	H	1.093725	-0.415221	-0.309409
H65	H	1.141283	-0.341875	-0.397632
H66	H	1.312689	0.235991	0.778241
C67	C	1.832255	-0.107255	0.339900
C68	C	1.765425	-0.158922	0.251799
C69	C	1.850660	-0.215317	0.174855
H70	H	1.883191	-0.140929	0.407317
H71	H	1.884462	-0.076783	0.280024
H72	H	1.713240	-0.189392	0.311669
H73	H	1.714494	-0.125272	0.184354
H74	H	1.902867	-0.184845	0.114979
H75	H	1.901591	-0.248985	0.242283
H76	H	1.805329	-0.250375	0.115059
H77	H	1.293208	-0.289143	-0.099677
H78	H	1.289324	-0.433873	0.098688
H79	H	1.809250	-0.091950	0.639128
H80	H	1.655720	-0.318979	0.144318
C81	C	1.688251	-0.312636	-0.150950
C82	C	1.770200	-0.387013	-0.149273
C83	C	1.895002	-0.367589	-0.159777
H84	H	1.706702	-0.278388	-0.070394
H85	H	1.698873	-0.283266	-0.239792
H86	H	1.759584	-0.416370	-0.060441
H87	H	1.751789	-0.421271	-0.229825
H88	H	1.905624	-0.338218	-0.248619
H89	H	1.913440	-0.333339	-0.079218
H90	H	1.950619	-0.418050	-0.158654
H91	H	1.157738	0.338323	0.639159
C92	C	1.275001	-0.280676	0.133360
C93	C	1.229429	-0.345660	0.213729
C94	C	1.163628	-0.311996	0.336573
H95	H	1.206197	-0.242116	0.102536
H96	H	1.330095	-0.252328	0.193015
H97	H	1.174338	-0.373994	0.154085
H98	H	1.298207	-0.384225	0.244589
H99	H	1.218723	-0.283648	0.396228
H100	H	1.094831	-0.273437	0.305735
H101	H	1.132710	-0.356083	0.391126
H102	H	1.500578	-0.448942	0.243247
H103	H	1.191169	0.279789	-0.000017
H104	H	1.045183	0.415908	-0.000014
C105	C	1.134480	0.353736	0.340414
C106	C	1.059715	0.403141	0.440385
C107	C	0.974236	0.459658	0.364017
H108	H	1.082091	0.323386	0.280595
H109	H	1.179608	0.388924	0.280629
H110	H	1.014590	0.367958	0.500145
H111	H	1.112069	0.433509	0.500207
H112	H	1.019363	0.494846	0.304231
H113	H	0.921856	0.429301	0.304200
H114	H	0.923505	0.493191	0.431835
C115	C	1.684473	-0.472423	0.147777
C116	C	1.768483	-0.410780	0.152791
C117	C	1.892393	-0.449497	0.160664
H118	H	1.701971	-0.506833	0.063931
H119	H	1.694046	-0.506082	0.233589
H120	H	1.758915	-0.377134	0.066988
H121	H	1.751025	-0.376365	0.236634
H122	H	1.901966	-0.483157	0.246476
H123	H	1.909878	-0.483907	0.076815
H124	H	1.949408	-0.407679	0.164080
C125	C	1.490689	-0.296396	0.277305
C126	C	1.444544	-0.360380	0.359691
C127	C	1.386758	-0.326053	0.486977
H128	H	1.422833	-0.255776	0.251423
H129	H	1.550662	-0.270338	0.333664
H130	H	1.384576	-0.386425	0.303343
H131	H	1.512375	-0.401005	0.385611
H132	H	1.446731	-0.299996	0.543336
H133	H	1.318908	-0.285433	0.461081
H134	H	1.355452	-0.369462	0.542898
H135	H	0.807528	0.411706	-0.000006
C136	C	1.493166	-0.458548	-0.278389
C137	C	1.582712	-0.510309	-0.358127
C138	C	1.527792	-0.535992	-0.487667
H139	H	1.464659	-0.410593	-0.335351
H140	H	1.423681	-0.488829	-0.255203
H141	H	1.652174	-0.480028	-0.381317
H142	H	1.611226	-0.558276	-0.301209
H143	H	1.458308	-0.566274	-0.464480
H144	H	1.499287	-0.488033	-0.544616
H145	H	1.588537	-0.571121	-0.541779
H146	H	1.312676	0.235997	0.221866
H147	H	0.715878	0.271373	0.000032
H148	H	0.775800	-0.033395	0.000089
H149	H	1.503264	-0.306787	-0.242501
H150	H	0.921792	-0.169523	0.000102
H151	H	1.654053	-0.461868	-0.138691
H152	H	1.654296	0.010385	0.221856
H153	H	1.654306	0.010376	0.778231
H154	H	1.159444	-0.165325	0.000106
