data_functionalizedCrystal
_audit_creation_method	'MofGen! by Chris Wilmer'
_symmetry_space_group_name_H-M	'P1'
_symmetry_Int_Tables_number	1
_symmetry_cell_setting	triclinic
loop_
_symmetry_equiv_pos_as_xyz
  x,y,z
_cell_length_a	16.992694
_cell_length_b	15.944551
_cell_length_c	16.053934
_cell_angle_alpha	92.575630
_cell_angle_beta	87.253259
_cell_angle_gamma	87.083481
loop_
_atom_site_label
_atom_site_type_symbol
_atom_site_fract_x
_atom_site_fract_y
_atom_site_fract_z
O1	O	1.037105	0.181416	0.069327
O2	O	1.537105	0.681416	0.569327
O3	O	0.808819	0.179463	0.069352
O4	O	1.308819	0.679463	0.569352
O5	O	0.929196	0.058583	0.069331
O6	O	1.429196	0.558583	0.569331
O7	O	0.916728	0.302297	0.069348
O8	O	1.416728	0.802297	0.569348
O9	O	0.935786	0.051951	-0.069526
O10	O	1.435786	0.551951	0.430474
O11	O	0.815409	0.172832	-0.069506
O12	O	1.315409	0.672832	0.430494
O13	O	1.043695	0.174785	-0.069530
O14	O	1.543695	0.674785	0.430470
Zn15	Zn	0.930598	0.172756	-0.091564
Zn16	Zn	1.430598	0.672756	0.408436
Zn17	Zn	0.921916	0.181493	0.091386
Zn18	Zn	1.421916	0.681493	0.591386
O19	O	0.923318	0.295666	-0.069510
O20	O	1.423318	0.795666	0.430490
C21	C	0.782901	0.173634	-0.000074
C22	C	1.282901	0.673634	0.499926
C23	C	0.695856	0.166135	-0.000065
C24	C	1.195856	0.666135	0.499935
C25	C	0.931974	0.023938	-0.000097
C26	C	1.431974	0.523938	0.499903
C27	C	0.930422	-0.069412	-0.000098
C28	C	1.430422	0.430588	0.499902
C29	C	0.645619	0.238500	-0.000061
C30	C	1.145619	0.738500	0.499939
C31	C	0.563833	0.231447	-0.000073
C32	C	1.063833	0.731447	0.499927
C33	C	0.532284	0.152029	-0.000083
C34	C	1.032284	0.652029	0.499917
C35	C	0.582528	0.079658	-0.000089
C36	C	1.082528	0.579658	0.499911
C37	C	0.664313	0.086711	-0.000083
C38	C	1.164313	0.586711	0.499917
C39	C	0.288686	0.122797	-0.000107
C40	C	0.788686	0.622797	0.499893
C41	C	0.206895	0.115749	-0.000111
C42	C	0.706895	0.615749	0.499889
C43	C	0.188205	0.267539	-0.000095
C44	C	0.688205	0.767539	0.499905
C45	C	0.269992	0.274585	-0.000084
C46	C	0.769992	0.774585	0.499916
C47	C	0.320229	0.202214	-0.000095
C48	C	0.820229	0.702214	0.499905
N49	N	0.448686	0.144818	-0.000092
N50	N	0.948686	0.644818	0.499908
N51	N	0.403826	0.209425	-0.000092
N52	N	0.903826	0.709425	0.499908
C53	C	0.852097	-0.289520	-0.000078
C54	C	1.352097	0.210480	0.499922
C55	C	0.891717	-0.351368	-0.068547
C56	C	1.391717	0.148632	0.431453
C57	C	0.927614	-0.240326	-0.000091
C58	C	1.427614	0.259674	0.499909
C59	C	0.885238	-0.344812	0.068356
C60	C	1.385238	0.155188	0.568356
C61	C	0.924897	-0.405420	-0.000081
C62	C	1.424897	0.094580	0.499919
C63	C	0.967258	-0.300947	-0.068617
C64	C	1.467258	0.199053	0.431383
C65	C	0.960766	-0.294382	0.068347
C66	C	1.460766	0.205618	0.568347
C67	C	1.000442	-0.356210	-0.000138
C68	C	1.500442	0.143790	0.499862
C69	C	0.929178	-0.145219	-0.000098
C70	C	1.429178	0.354781	0.499902
C71	C	0.923339	-0.500526	-0.000080
C72	C	1.423339	-0.000526	0.499920
C73	C	1.069613	0.180614	-0.000103
C74	C	1.569613	0.680614	0.499897
C75	C	1.156658	0.188114	-0.000106
C76	C	1.656658	0.688114	0.499894
C77	C	0.920540	0.330310	-0.000079
C78	C	1.420540	0.830310	0.499921
C79	C	0.922092	0.423660	-0.000073
C80	C	1.422092	0.923660	0.499927
N81	N	0.936529	0.166792	-0.216423
N82	N	1.436529	0.666792	0.283577
C83	C	0.885299	0.218206	-0.260129
C84	C	1.385299	0.718206	0.239871
C85	C	0.889471	0.214033	-0.347535
C86	C	1.389471	0.714033	0.152465
C87	C	0.944870	0.158441	-0.391233
C88	C	1.444870	0.658441	0.108767
C89	C	0.996106	0.107025	-0.347521
C90	C	1.496106	0.607025	0.152479
C91	C	0.991938	0.111203	-0.260117
C92	C	1.491938	0.611203	0.239883
C93	C	0.963058	0.140212	-0.652639
C94	C	1.463058	0.640212	-0.152639
C95	C	0.967221	0.136036	-0.740049
C96	C	1.467221	0.636036	-0.240049
C97	C	0.860586	0.243046	-0.740057
C98	C	1.360586	0.743046	-0.240057
C99	C	0.856419	0.247215	-0.652651
C100	C	1.356419	0.747215	-0.152651
C101	C	0.907658	0.195802	-0.608946
C102	C	1.407658	0.695802	-0.108946
N103	N	0.949134	0.154172	-0.480576
N104	N	1.449134	0.654172	0.019424
N105	N	0.903397	0.200076	-0.519605
N106	N	1.403397	0.700076	-0.019605
N107	N	0.915991	0.187450	0.216245
N108	N	1.415991	0.687450	0.716245
H109	H	0.671299	0.303171	-0.000052
H110	H	1.171299	0.803171	0.499948
F111	F	1.055071	0.047863	-0.394029
F112	F	1.555071	0.547863	0.105971
F113	F	0.853561	-0.384065	-0.144199
F114	F	1.353561	0.115935	0.355801
F115	F	0.342141	0.045772	-0.000119
F116	F	0.842141	0.545772	0.499881
H117	H	1.063181	-0.385163	-0.000184
H118	H	1.563181	0.114837	0.499816
H119	H	0.847755	0.255899	-0.383120
H120	H	1.347755	0.755899	0.116880
H121	H	1.001922	-0.281583	-0.126565
H122	H	1.501922	0.218417	0.373435
H123	H	0.522932	0.290375	-0.000068
H124	H	1.022932	0.790375	0.499932
H125	H	0.295672	0.339256	-0.000066
H126	H	0.795672	0.839256	0.499934
F127	F	0.998889	-0.261658	0.144003
F128	F	1.498889	0.238342	0.644003
F129	F	0.548950	-0.004865	-0.000106
F130	F	1.048950	0.495135	0.499894
F131	F	1.017588	0.085493	-0.606132
F132	F	1.517588	0.585493	-0.106132
F133	F	1.026188	0.076862	-0.786551
F134	F	1.526188	0.576862	-0.286551
F135	F	0.770170	-0.251484	-0.000154
F136	F	1.270170	0.248516	0.499846
H137	H	0.818871	0.284904	-0.775649
H138	H	1.318871	0.784904	-0.275649
F139	F	0.717779	0.009690	-0.000091
F140	F	1.217779	0.509690	0.499909
H141	H	1.033656	0.069337	-0.224533
H142	H	1.533656	0.569337	0.275467
F143	F	0.826331	0.277372	-0.213630
F144	F	1.326331	0.777372	0.286370
F145	F	0.134735	0.344555	-0.000085
F146	F	0.634735	0.844555	0.499915
F147	F	0.839882	-0.370261	0.144010
F148	F	1.339882	0.129739	0.644010
H149	H	0.811309	0.292483	-0.617073
H150	H	1.311309	0.792483	-0.117073
H151	H	0.181212	0.051074	-0.000118
H152	H	0.681212	0.551074	0.499882
