data_functionalizedCrystal
_audit_creation_method	'MofGen! by Chris Wilmer'
_symmetry_space_group_name_H-M	'P1'
_symmetry_Int_Tables_number	1
_symmetry_cell_setting	triclinic
loop_
_symmetry_equiv_pos_as_xyz
  x,y,z
_cell_length_a	6.817900
_cell_length_b	16.886426
_cell_length_c	12.200722
_cell_angle_alpha	83.188255
_cell_angle_beta	107.140920
_cell_angle_gamma	83.786827
loop_
_atom_site_label
_atom_site_type_symbol
_atom_site_fract_x
_atom_site_fract_y
_atom_site_fract_z
V1	V	-3.965934	0.248711	-0.161104
O2	O	-3.935586	0.243890	0.005282
O3	O	-3.936159	0.247094	-0.317076
O4	O	-3.882659	0.357145	-0.159705
O5	O	-3.989456	0.133077	-0.153179
V6	V	-4.451668	0.234870	-0.141075
O7	O	-4.222344	0.279073	-0.205040
O8	O	-4.645456	0.204509	-0.097139
O9	O	-4.258236	0.236488	0.014898
O10	O	-4.599412	0.239692	-0.307461
O11	O	-4.545542	0.350504	-0.149000
O12	O	-4.311736	0.126437	-0.142474
C13	C	-3.786819	0.243192	-0.355066
C14	C	-3.843529	0.242593	-0.482582
C15	C	-3.889579	0.242098	-0.586138
C16	C	-3.947370	0.241482	-0.716055
C17	C	-4.139165	0.100006	-0.147861
C18	C	-4.105083	0.011360	-0.147967
C19	C	-3.915854	-0.026226	-0.153789
C20	C	-3.883849	-0.109517	-0.153901
C21	C	-4.041081	-0.155221	-0.148198
C22	C	-4.230324	-0.117630	-0.142372
C23	C	-4.262320	-0.034341	-0.142253
C24	C	-3.953134	-0.406904	-0.148264
C25	C	-3.921124	-0.490198	-0.148387
C26	C	-3.574649	-0.482079	-0.159913
C27	C	-3.606667	-0.398788	-0.159800
C28	C	-3.795901	-0.361205	-0.153968
C29	C	-4.008374	-0.240358	-0.148316
C30	C	-3.828601	-0.276071	-0.153843
C31	C	-3.718574	0.383572	-0.154321
C32	C	-3.731895	0.472217	-0.154209
C33	C	-4.070920	0.240387	0.052881
C34	C	-3.993447	0.240992	0.180396
H35	H	-3.787816	0.010981	-0.158438
C36	C	-4.091546	-0.539937	-0.142011
C37	C	-4.018840	-0.598817	-0.042509
C38	C	-4.175757	-0.644658	-0.036607
H39	H	-4.208912	-0.505726	-0.138453
H40	H	-4.129919	-0.565317	-0.209060
H41	H	-3.980496	-0.573439	0.024523
H42	H	-3.901495	-0.633047	-0.046045
H43	H	-4.214130	-0.670038	-0.103656
H44	H	-4.293113	-0.610440	-0.033053
H45	H	-4.126442	-0.684617	0.030898
C46	C	-4.158608	-0.365987	-0.142127
C47	C	-4.251517	-0.307581	-0.240956
C48	C	-4.440800	-0.269864	-0.235335
H49	H	-4.247885	-0.405047	-0.138807
H50	H	-4.134694	-0.340946	-0.074596
H51	H	-4.275439	-0.332621	-0.308468
H52	H	-4.162299	-0.268505	-0.244295
H53	H	-4.416887	-0.244824	-0.167805
H54	H	-4.530060	-0.308930	-0.232013
H55	H	-4.503854	-0.230227	-0.302383
C56	C	-4.467789	0.006598	-0.136124
C57	C	-4.560669	0.065004	-0.234956
C58	C	-4.749935	0.102740	-0.229338
H59	H	-4.557094	-0.032451	-0.132801
H60	H	-4.443857	0.031642	-0.068595
H61	H	-4.584610	0.039961	-0.302466
H62	H	-4.471424	0.104069	-0.238298
H63	H	-4.726002	0.127784	-0.161810
H64	H	-4.839221	0.063685	-0.226013
H65	H	-4.812968	0.142378	-0.296388
H66	H	-3.729772	-0.140113	-0.158656
H67	H	-3.478629	-0.361581	-0.164448
H68	H	-3.420578	-0.512688	-0.164660
H69	H	-4.358337	-0.154850	-0.137721
H70	H	-3.700580	-0.238856	-0.158478
H71	H	-4.136387	-0.277579	-0.143670
