data_functionalizedCrystal
_audit_creation_method	'MofGen! by Chris Wilmer'
_symmetry_space_group_name_H-M	'P1'
_symmetry_Int_Tables_number	1
_symmetry_cell_setting	triclinic
loop_
_symmetry_equiv_pos_as_xyz
  x,y,z
_cell_length_a	19.188930
_cell_length_b	19.188930
_cell_length_c	10.065918
_cell_angle_alpha	99.900945
_cell_angle_beta	99.848379
_cell_angle_gamma	83.144779
loop_
_atom_site_label
_atom_site_type_symbol
_atom_site_fract_x
_atom_site_fract_y
_atom_site_fract_z
O1	O	0.096287	0.935316	0.113955
O2	O	0.346287	1.185316	0.363955
O3	O	0.596287	1.435316	0.613955
O4	O	0.846287	1.685316	0.863955
O5	O	0.108014	0.731997	0.113863
O6	O	0.358014	0.981997	0.363863
O7	O	0.608014	1.231997	0.613863
O8	O	0.858014	1.481997	0.863863
O9	O	0.000493	0.839522	0.113885
O10	O	0.250493	1.089522	0.363885
O11	O	0.500493	1.339522	0.613885
O12	O	0.750493	1.589522	0.863885
O13	O	0.203808	0.827792	0.113933
O14	O	0.453808	1.077792	0.363933
O15	O	0.703808	1.327792	0.613933
O16	O	0.953808	1.577792	0.863933
O17	O	-0.017677	0.821243	-0.113117
O18	O	0.232323	1.071243	0.136883
O19	O	0.482323	1.321243	0.386883
O20	O	0.732323	1.571243	0.636883
O21	O	0.089844	0.713719	-0.113138
O22	O	0.339844	0.963719	0.136862
O23	O	0.589844	1.213719	0.386862
O24	O	0.839844	1.463719	0.636862
O25	O	0.078117	0.917037	-0.113047
O26	O	0.328117	1.167037	0.136953
O27	O	0.578117	1.417037	0.386953
O28	O	0.828117	1.667037	0.636953
Zn29	Zn	0.081096	0.812476	-0.149134
Zn30	Zn	0.331096	1.062476	0.100866
Zn31	Zn	0.581096	1.312476	0.350866
Zn32	Zn	0.831096	1.562476	0.600866
Zn33	Zn	0.105036	0.836559	0.149950
Zn34	Zn	0.355036	1.086559	0.399950
Zn35	Zn	0.605036	1.336559	0.649950
Zn36	Zn	0.855036	1.586559	0.899950
O37	O	0.185638	0.809513	-0.113069
O38	O	0.435638	1.059513	0.136931
O39	O	0.685638	1.309513	0.386931
O40	O	0.935638	1.559513	0.636931
C41	C	-0.034603	0.830002	0.000380
C42	C	0.215397	1.080002	0.250380
C43	C	0.465397	1.330002	0.500380
C44	C	0.715397	1.580002	0.750380
C45	C	-0.112109	0.828861	0.000368
C46	C	0.137891	1.078861	0.250368
C47	C	0.387891	1.328861	0.500368
C48	C	0.637891	1.578861	0.750368
C49	C	0.098548	0.696846	0.000350
C50	C	0.348548	0.946846	0.250350
C51	C	0.598548	1.196846	0.500350
C52	C	0.848548	1.446846	0.750350
C53	C	0.097405	0.619339	0.000314
C54	C	0.347405	0.869339	0.250314
C55	C	0.597405	1.119339	0.500314
C56	C	0.847405	1.369339	0.750314
C57	C	0.160498	0.574418	0.000351
C58	C	0.410498	0.824418	0.250351
C59	C	0.660498	1.074418	0.500351
C60	C	0.910498	1.324418	0.750351
C61	C	0.159428	0.501595	0.000365
C62	C	0.409428	0.751595	0.250365
C63	C	0.659428	1.001595	0.500365
C64	C	0.909428	1.251595	0.750365
C65	C	0.095262	0.473699	0.000371
C66	C	0.345262	0.723699	0.250371
C67	C	0.595262	0.973699	0.500371
C68	C	0.845262	1.223699	0.750371
C69	C	0.032160	0.518629	0.000327
C70	C	0.282160	0.768629	0.250327
C71	C	0.532160	1.018629	0.500327
C72	C	0.782160	1.268629	0.750327
C73	C	0.033231	0.591449	0.000299
C74	C	0.283231	0.841449	0.250299
C75	C	0.533231	1.091449	0.500299
C76	C	0.783231	1.341449	0.750299
N77	N	0.052403	0.371943	0.077673
N78	N	0.302403	0.621943	0.327673
N79	N	0.552403	0.871943	0.577673
N80	N	0.802403	1.121943	0.827673
N81	N	0.051390	0.302767	0.077703
N82	N	0.301390	0.552767	0.327703
N83	N	0.551390	0.802767	0.577703
N84	N	0.801390	1.052767	0.827703
C85	C	0.092031	0.254297	0.000454
C86	C	0.342031	0.504297	0.250454
C87	C	0.592031	0.754297	0.500454
C88	C	0.842031	1.004297	0.750454
N89	N	0.133735	0.277616	-0.076809
N90	N	0.383735	0.527616	0.173191
N91	N	0.633735	0.777616	0.423191
N92	N	0.883735	1.027616	0.673191
N93	N	0.134751	0.346799	-0.076833
N94	N	0.384751	0.596799	0.173167
N95	N	0.634751	0.846799	0.423167
N96	N	0.884751	1.096799	0.673167
C97	C	0.094094	0.394739	0.000401
C98	C	0.344094	0.644739	0.250401
C99	C	0.594094	0.894739	0.500401
C100	C	0.844094	1.144739	0.750401
C101	C	0.153968	0.130413	0.000504
C102	C	0.403968	0.380413	0.250504
C103	C	0.653968	0.630413	0.500504
C104	C	0.903968	0.880413	0.750504
C105	C	0.152894	0.057588	0.000511
C106	C	0.402894	0.307588	0.250511
C107	C	0.652894	0.557588	0.500511
C108	C	0.902894	0.807588	0.750511
C109	C	0.025625	0.074625	0.000486
C110	C	0.275625	0.324625	0.250486
C111	C	0.525625	0.574625	0.500486
C112	C	0.775625	0.824625	0.750486
C113	C	0.026700	0.147447	0.000466
C114	C	0.276700	0.397447	0.250466
C115	C	0.526700	0.647447	0.500466
C116	C	0.776700	0.897447	0.750466
C117	C	0.090874	0.175336	0.000482
C118	C	0.340874	0.425336	0.250482
C119	C	0.590874	0.675336	0.500482
C120	C	0.840874	0.925336	0.750482
C121	C	-0.157031	0.891953	0.000390
C122	C	0.092969	1.141953	0.250390
C123	C	0.342969	1.391953	0.500390
C124	C	0.592969	1.641953	0.750390
C125	C	-0.229853	0.890883	0.000411
C126	C	0.020147	1.140883	0.250411
C127	C	0.270147	1.390883	0.500411
C128	C	0.520147	1.640883	0.750411
C129	C	-0.257752	0.826715	0.000383
C130	C	-0.007752	1.076715	0.250383
C131	C	0.242248	1.326715	0.500383
C132	C	0.492248	1.576715	0.750383
C133	C	-0.212819	0.763615	0.000369
C134	C	0.037181	1.013615	0.250369
C135	C	0.287181	1.263615	0.500369
C136	C	0.537181	1.513615	0.750369
C137	C	-0.139998	0.764687	0.000361
C138	C	0.110002	1.014687	0.250361
C139	C	0.360002	1.264687	0.500361
C140	C	0.610002	1.514687	0.750361
N141	N	-0.371942	0.771445	-0.076892
N142	N	-0.121942	1.021445	0.173108
N143	N	0.128058	1.271445	0.423108
N144	N	0.378058	1.521445	0.673108
N145	N	-0.441120	0.770430	-0.076888
N146	N	-0.191120	1.020430	0.173112
N147	N	0.058880	1.270430	0.423112
N148	N	0.308880	1.520430	0.673112
C149	C	-0.477158	0.823479	0.000409
C150	C	-0.227158	1.073479	0.250409
C151	C	0.022842	1.323479	0.500409
C152	C	0.272842	1.573479	0.750409
N153	N	-0.441407	0.877590	0.077684
N154	N	-0.191407	1.127590	0.327684
N155	N	0.058593	1.377590	0.577684
N156	N	0.308593	1.627590	0.827684
N157	N	-0.372224	0.878607	0.077674
N158	N	-0.122224	1.128607	0.327674
N159	N	0.127776	1.378607	0.577674
N160	N	0.377776	1.628607	0.827674
C161	C	-0.336714	0.825545	0.000392
C162	C	-0.086714	1.075545	0.250392
C163	C	0.163286	1.325545	0.500392
C164	C	0.413286	1.575545	0.750392
C165	C	-0.601043	0.885416	0.000456
C166	C	-0.351043	1.135416	0.250456
C167	C	-0.101043	1.385416	0.500456
C168	C	0.148957	1.635416	0.750456
C169	C	-0.673865	0.884344	0.000486
C170	C	-0.423865	1.134344	0.250486
C171	C	-0.173865	1.384344	0.500486
C172	C	0.076135	1.634344	0.750486
C173	C	-0.656831	0.757072	0.000430
C174	C	-0.406831	1.007072	0.250430
C175	C	-0.156831	1.257072	0.500430
C176	C	0.093169	1.507072	0.750430
C177	C	-0.584009	0.758147	0.000414
C178	C	-0.334009	1.008147	0.250414
C179	C	-0.084009	1.258147	0.500414
C180	C	0.165991	1.508147	0.750414
C181	C	-0.556120	0.822320	0.000421
C182	C	-0.306120	1.072320	0.250421
C183	C	-0.056120	1.322320	0.500421
C184	C	0.193880	1.572320	0.750421
C185	C	0.220735	0.819033	0.000439
C186	C	0.470735	1.069033	0.250439
C187	C	0.720735	1.319033	0.500439
C188	C	0.970735	1.569033	0.750439
C189	C	0.298241	0.820175	0.000460
C190	C	0.548241	1.070175	0.250460
C191	C	0.798241	1.320175	0.500460
C192	C	1.048241	1.570175	0.750460
C193	C	0.087584	0.952189	0.000469
C194	C	0.337584	1.202189	0.250469
C195	C	0.587584	1.452189	0.500469
C196	C	0.837584	1.702189	0.750469
C197	C	0.088728	1.029697	0.000514
C198	C	0.338728	1.279697	0.250514
C199	C	0.588728	1.529697	0.500514
C200	C	0.838728	1.779697	0.750514
N201	N	0.064757	0.796045	-0.353251
N202	N	0.314757	1.046045	-0.103251
N203	N	0.564757	1.296045	0.146749
N204	N	0.814757	1.546045	0.396749
C205	C	0.099351	0.830837	-0.421006
C206	C	0.349351	1.080837	-0.171006
C207	C	0.599351	1.330837	0.078994
C208	C	0.849351	1.580837	0.328994
C209	C	0.086770	0.818198	-0.578182
C210	C	0.336770	1.068198	-0.328182
C211	C	0.586770	1.318198	-0.078182
C212	C	0.836770	1.568198	0.171818
N213	N	0.121369	0.852995	0.354068
N214	N	0.371369	1.102995	0.604068
N215	N	0.621369	1.352995	0.854068
N216	N	0.871369	1.602995	1.104068
H217	H	0.212754	0.597120	0.000366
H218	H	0.462754	0.847120	0.250366
H219	H	0.712754	1.097120	0.500366
H220	H	0.962754	1.347120	0.750366
H221	H	0.138280	0.869985	-0.362650
H222	H	0.388280	1.119985	-0.112650
H223	H	0.638280	1.369985	0.137350
H224	H	0.888280	1.619985	0.387350
H225	H	0.047834	0.779053	-0.636532
H226	H	0.297834	1.029053	-0.386532
H227	H	0.547834	1.279053	-0.136532
H228	H	0.797834	1.529053	0.113468
H229	H	-0.134328	0.944208	0.000400
H230	H	0.115672	1.194208	0.250400
H231	H	0.365672	1.444208	0.500400
H232	H	0.615672	1.694208	0.750400
H233	H	-0.103421	0.713308	0.000343
H234	H	0.146579	0.963308	0.250343
H235	H	0.396579	1.213308	0.500343
H236	H	0.646579	1.463308	0.750343
H237	H	0.210808	0.465013	0.000391
H238	H	0.460808	0.715013	0.250391
H239	H	0.710808	0.965013	0.500391
H240	H	0.960808	1.215013	0.750391
H241	H	-0.020083	0.495913	0.000351
H242	H	0.229917	0.745913	0.250351
H243	H	0.479917	0.995913	0.500351
H244	H	0.729917	1.245913	0.750351
H245	H	-0.266435	0.942263	0.000434
H246	H	-0.016435	1.192263	0.250434
H247	H	0.233565	1.442263	0.500434
H248	H	0.483565	1.692263	0.750434
H249	H	0.204274	0.021013	0.000532
H250	H	0.454274	0.271013	0.250532
H251	H	0.704274	0.521013	0.500532
H252	H	0.954274	0.771013	0.750532
H253	H	0.160301	0.892144	-0.587584
H254	H	0.410301	1.142144	-0.337584
H255	H	0.660301	1.392144	-0.087584
H256	H	0.910301	1.642144	0.162416
H257	H	-0.024678	0.184023	0.000444
H258	H	0.225322	0.434023	0.250444
H259	H	0.475322	0.684023	0.500444
H260	H	0.725322	0.934023	0.750444
H261	H	-0.235539	0.711368	0.000349
H262	H	0.014461	0.961368	0.250349
H263	H	0.264461	1.211368	0.500349
H264	H	0.514461	1.461368	0.750349
H265	H	0.025824	0.756903	-0.411606
H266	H	0.275824	1.006903	-0.161606
H267	H	0.525824	1.256903	0.088394
H268	H	0.775824	1.506903	0.338394
H269	H	-0.018149	0.628025	0.000270
H270	H	0.231851	0.878025	0.250270
H271	H	0.481851	1.128025	0.500270
H272	H	0.731851	1.378025	0.750270
H273	H	-0.026613	0.051920	0.000575
H274	H	0.223387	0.301920	0.250575
H275	H	0.473387	0.551920	0.500575
H276	H	0.723387	0.801920	0.750575
H277	H	0.206221	0.153120	0.000497
H278	H	0.456221	0.403120	0.250497
H279	H	0.706221	0.653120	0.500497
H280	H	0.956221	0.903120	0.750497
H281	H	-0.578334	0.937670	0.000468
H282	H	-0.328334	1.187670	0.250468
H283	H	-0.078334	1.437670	0.500468
H284	H	0.171666	1.687670	0.750468
H285	H	-0.710440	0.935724	0.000511
H286	H	-0.460440	1.185724	0.250511
H287	H	-0.210440	1.435724	0.500511
H288	H	0.039560	1.685724	0.750511
H289	H	-0.679545	0.704826	0.000414
H290	H	-0.429545	0.954826	0.250414
H291	H	-0.179545	1.204826	0.500414
H292	H	0.070455	1.454826	0.750414
H293	H	-0.547433	0.706770	0.000389
H294	H	-0.297433	0.956770	0.250389
H295	H	-0.047433	1.206770	0.500389
H296	H	0.202567	1.456770	0.750389
