data_functionalizedCrystal
_audit_creation_method	'MofGen! by Chris Wilmer'
_symmetry_space_group_name_H-M	'P1'
_symmetry_Int_Tables_number	1
_symmetry_cell_setting	triclinic
loop_
_symmetry_equiv_pos_as_xyz
  x,y,z
_cell_length_a	14.853566
_cell_length_b	13.930277
_cell_length_c	9.065218
_cell_angle_alpha	89.992402
_cell_angle_beta	95.674850
_cell_angle_gamma	89.995720
loop_
_atom_site_label
_atom_site_type_symbol
_atom_site_fract_x
_atom_site_fract_y
_atom_site_fract_z
O1	O	1.197796	-0.079763	-0.192584
O2	O	1.697796	0.420237	0.307416
O3	O	0.935506	-0.079779	-0.215531
O4	O	1.435506	0.420221	0.284469
O5	O	1.072072	-0.079769	0.010692
O6	O	1.572072	0.420231	0.510692
O7	O	1.061229	-0.079773	-0.418807
O8	O	1.561229	0.420227	0.081193
O9	O	1.072051	0.079893	0.010653
O10	O	1.572051	0.579893	0.510653
O11	O	0.935484	0.079883	-0.215571
O12	O	1.435484	0.579883	0.284429
O13	O	1.197774	0.079898	-0.192623
O14	O	1.697774	0.579898	0.307377
Zn15	Zn	1.066626	0.105240	-0.204103
Zn16	Zn	1.566626	0.605240	0.295897
Zn17	Zn	1.066654	-0.105121	-0.204051
Zn18	Zn	1.566654	0.394879	0.295949
O19	O	1.061208	0.079888	-0.418847
O20	O	1.561208	0.579888	0.081153
C21	C	0.901899	0.000050	-0.214511
C22	C	1.401899	0.500050	0.285489
C23	C	0.801792	0.000044	-0.211397
C24	C	1.301792	0.500044	0.288603
C25	C	0.378521	-0.086971	-0.198201
C26	C	0.878521	0.413029	0.301799
C27	C	0.378519	0.087099	-0.198245
C28	C	0.878519	0.587099	0.301755
C29	C	0.472575	0.087096	-0.201170
C30	C	0.972575	0.587096	0.298830
C31	C	0.519608	0.000058	-0.202612
C32	C	1.019608	0.500058	0.297388
C33	C	0.472585	-0.086976	-0.201130
C34	C	0.972585	0.413024	0.298870
C35	C	0.519603	0.174129	-0.202667
C36	C	1.019603	0.674129	0.297333
C37	C	0.613664	0.174130	-0.205594
C38	C	1.113664	0.674130	0.294406
C39	C	0.660700	0.087091	-0.207026
C40	C	1.160700	0.587091	0.292974
C41	C	0.613672	0.000053	-0.205542
C42	C	1.113672	0.500053	0.294458
C43	C	0.660705	-0.086985	-0.206985
C44	C	1.160705	0.413015	0.293015
C45	C	0.613679	-0.174024	-0.205490
C46	C	1.113679	0.325976	0.294510
C47	C	0.519621	-0.174015	-0.202563
C48	C	1.019621	0.325985	0.297437
C49	C	0.754759	0.087082	-0.209954
C50	C	1.254759	0.587082	0.290046
C51	C	0.754769	-0.086990	-0.209915
C52	C	1.254769	0.413010	0.290085
N53	N	1.066613	0.248807	-0.204138
N54	N	1.566613	0.748807	0.295862
C55	C	1.122065	0.701068	-0.293692
C56	C	1.622065	1.201068	0.206308
C57	C	1.011254	0.701053	-0.114399
C58	C	1.511254	1.201053	0.385601
C59	C	1.011242	0.600557	-0.114420
C60	C	1.511242	1.100557	0.385580
C61	C	1.066643	0.550312	-0.204076
C62	C	1.566643	1.050312	0.295924
C63	C	1.122056	0.600563	-0.293712
C64	C	1.622056	1.100563	0.206288
C65	C	0.955836	0.550299	-0.024775
C66	C	1.455836	1.050299	0.475225
C67	C	0.955822	0.449797	-0.024791
C68	C	1.455822	0.949797	0.475209
C69	C	1.011219	0.399550	-0.114456
C70	C	1.511219	0.899550	0.385544
C71	C	1.066634	0.449807	-0.204097
C72	C	1.566634	0.949807	0.295903
C73	C	1.122035	0.399562	-0.293753
C74	C	1.622035	0.899562	0.206247
C75	C	1.177446	0.449818	-0.383402
C76	C	1.677446	0.949818	0.116598
C77	C	1.177453	0.550316	-0.383377
C78	C	1.677453	1.050316	0.116623
C79	C	1.011212	0.299051	-0.114482
C80	C	1.511212	0.799051	0.385518
C81	C	1.122026	0.299057	-0.293773
C82	C	1.622026	0.799057	0.206227
C83	C	1.231381	0.000067	-0.193643
C84	C	1.731381	0.500067	0.306357
C85	C	1.331488	0.000067	-0.196758
C86	C	1.831488	0.500067	0.303242
C87	C	1.071019	0.000060	0.065639
C88	C	1.571019	0.500060	0.565639
C89	C	1.067903	0.000056	0.229420
C90	C	1.567903	0.500056	0.729420
N91	N	1.066664	0.751313	-0.204035
N92	N	1.566664	1.251313	0.295965
C93	C	1.062260	0.000057	-0.473793
C94	C	1.562260	0.500057	0.026207
C95	C	1.065376	0.000056	-0.637574
C96	C	1.565376	0.500056	-0.137574
H97	H	0.651945	0.245002	-0.206807
H98	H	1.151945	0.745002	0.293193
H99	H	0.340229	-0.157836	-0.196978
H100	H	0.840229	0.342164	0.303022
Cl101	Cl	0.319390	0.196511	-0.196447
Cl102	Cl	0.819390	0.696511	0.303553
Cl103	Cl	1.191672	0.235900	-0.406500
Cl104	Cl	1.691672	0.735900	0.093500
H105	H	0.793057	-0.157868	-0.211085
H106	H	1.293057	0.342132	0.288915
H107	H	0.966100	0.258138	-0.041486
H108	H	1.466100	0.758138	0.458514
H109	H	0.793042	0.157948	-0.211185
H110	H	1.293042	0.657948	0.288815
Cl111	Cl	0.672817	-0.283438	-0.207315
Cl112	Cl	1.172817	0.216562	0.292685
Cl113	Cl	0.886148	0.386628	0.087882
Cl114	Cl	1.386148	0.886628	0.587882
H115	H	0.966155	0.741968	-0.041395
H116	H	1.466155	1.241968	0.458605
H117	H	0.481301	0.244990	-0.201502
H118	H	0.981301	0.744990	0.298498
Cl119	Cl	0.886192	0.613468	0.087925
Cl120	Cl	1.386192	1.113468	0.587925
Cl121	Cl	1.247096	0.386641	-0.496098
Cl122	Cl	1.747096	0.886641	0.003902
H123	H	0.481324	-0.244877	-0.201344
H124	H	0.981324	0.255123	0.298656
H125	H	1.222567	0.591243	-0.456362
H126	H	1.722567	1.091243	0.043638
H127	H	1.167176	0.741990	-0.366686
H128	H	1.667176	1.241990	0.133314
