data_functionalizedCrystal
_audit_creation_method	'MofGen! by Chris Wilmer'
_symmetry_space_group_name_H-M	'P1'
_symmetry_Int_Tables_number	1
_symmetry_cell_setting	triclinic
loop_
_symmetry_equiv_pos_as_xyz
  x,y,z
_cell_length_a	11.792241
_cell_length_b	10.268362
_cell_length_c	11.792241
_cell_angle_alpha	90.005910
_cell_angle_beta	95.806584
_cell_angle_gamma	90.004128
loop_
_atom_site_label
_atom_site_type_symbol
_atom_site_fract_x
_atom_site_fract_y
_atom_site_fract_z
O1	O	-1.506902	0.108155	0.155570
O2	O	-1.006902	0.608155	0.655570
O3	O	-1.176561	0.108189	0.171603
O4	O	-0.676561	0.608189	0.671603
O5	O	-1.349748	0.108162	-0.001584
O6	O	-0.849748	0.608162	0.498416
O7	O	-1.333715	0.108182	0.328757
O8	O	-0.833715	0.608182	0.828757
O9	O	-1.349746	-0.108438	-0.001594
O10	O	-0.849746	0.391562	0.498406
O11	O	-1.176559	-0.108411	0.171593
O12	O	-0.676559	0.391589	0.671593
O13	O	-1.506900	-0.108446	0.155560
O14	O	-1.006900	0.391554	0.655560
Cu15	Cu	-1.341729	-0.128206	0.163576
Cu16	Cu	-0.841729	0.371794	0.663576
Cu17	Cu	-1.341732	0.127949	0.163588
Cu18	Cu	-0.841732	0.627949	0.663588
O19	O	-1.333713	-0.108419	0.328747
O20	O	-0.833713	0.391581	0.828747
C21	C	-1.134269	-0.000106	0.170591
C22	C	-0.634269	0.499894	0.670591
C23	C	-1.008255	-0.000093	0.167576
C24	C	-0.508255	0.499907	0.667576
N25	N	-1.341736	-0.308372	0.163566
N26	N	-0.841736	0.191628	0.663566
C27	C	-0.777543	-0.000128	0.162034
C28	C	-0.277543	0.499872	0.662034
C29	C	-0.905928	-0.000109	0.165113
C30	C	-0.405928	0.499891	0.665113
C31	C	-1.348740	-0.000138	-0.043880
C32	C	-0.848740	0.499862	0.456120
C33	C	-1.345726	-0.000136	-0.169894
C34	C	-0.845726	0.499864	0.330106
C35	C	-0.549192	-0.000144	0.156572
C36	C	-0.049192	0.499856	0.656572
C37	C	-0.675206	-0.000139	0.159587
C38	C	-0.175206	0.499861	0.659587
N39	N	-1.341734	0.308115	0.163588
N40	N	-0.841734	0.808115	0.663588
C41	C	-1.341731	0.573786	0.163581
C42	C	-0.841731	1.073786	0.663581
C43	C	-1.341730	0.425948	0.163588
C44	C	-0.841730	0.925948	0.663588
C45	C	-1.340183	-0.000114	-0.400606
C46	C	-0.840183	0.499886	0.099394
C47	C	-1.343262	-0.000126	-0.272221
C48	C	-0.843262	0.499874	0.227779
C49	C	-1.334721	-0.000116	0.371043
C50	C	-0.834721	0.499884	0.871043
C51	C	-1.337736	-0.000109	0.497057
C52	C	-0.837736	0.499891	0.997057
