data_functionalizedCrystal
_audit_creation_method	'MofGen! by Chris Wilmer'
_symmetry_space_group_name_H-M	'P1'
_symmetry_Int_Tables_number	1
_symmetry_cell_setting	triclinic
loop_
_symmetry_equiv_pos_as_xyz
  x,y,z
_cell_length_a	21.295419
_cell_length_b	21.295419
_cell_length_c	21.395355
_cell_angle_alpha	89.975456
_cell_angle_beta	90.005030
_cell_angle_gamma	89.983482
loop_
_atom_site_label
_atom_site_type_symbol
_atom_site_fract_x
_atom_site_fract_y
_atom_site_fract_z
Zn1	Zn	0.250433	0.962481	-0.354320
Zn2	Zn	0.583767	1.295815	-0.020987
Zn3	Zn	0.917100	1.629148	0.312347
Zn4	Zn	0.355685	0.962437	-0.249567
Zn5	Zn	0.689018	1.295770	0.083766
Zn6	Zn	1.022352	1.629103	0.417099
Zn7	Zn	0.250461	0.857205	-0.249557
Zn8	Zn	0.583794	1.190538	0.083777
Zn9	Zn	0.917127	1.523871	0.417110
Zn10	Zn	0.355696	0.857227	-0.354307
Zn11	Zn	0.689029	1.190560	-0.020974
Zn12	Zn	1.022363	1.523894	0.312359
O13	O	0.303069	0.909837	-0.301938
O14	O	0.636402	1.243171	0.031395
O15	O	0.969735	1.576504	0.364729
O16	O	0.264379	1.050565	-0.340434
O17	O	0.597713	1.383898	-0.007101
O18	O	0.931046	1.717232	0.326233
O19	O	0.341734	0.948449	-0.161888
O20	O	0.675067	1.281783	0.171445
O21	O	1.008400	1.615116	0.504779
O22	O	0.162368	0.871179	-0.263455
O23	O	0.495701	1.204513	0.069879
O24	O	0.829034	1.537846	0.403212
O25	O	0.341707	1.050532	-0.263473
O26	O	0.675040	1.383865	0.069861
O27	O	1.008374	1.717199	0.403194
O28	O	0.162348	0.948526	-0.340424
O29	O	0.495681	1.281859	-0.007091
O30	O	0.829014	1.615192	0.326243
O31	O	0.264426	0.871136	-0.161880
O32	O	0.597759	1.204469	0.171453
O33	O	0.931092	1.537803	0.504786
O34	O	0.264436	0.769118	-0.263443
O35	O	0.597770	1.102452	0.069891
O36	O	0.931103	1.435785	0.403224
O37	O	0.341726	0.871217	-0.441987
O38	O	0.675059	1.204551	-0.108654
O39	O	1.008392	1.537884	0.224680
O40	O	0.341752	0.769135	-0.340402
O41	O	0.675086	1.102468	-0.007069
O42	O	1.008419	1.435801	0.326264
O43	O	0.264390	0.948547	-0.441996
O44	O	0.597723	1.281881	-0.108663
O45	O	0.931057	1.615214	0.224670
O46	O	0.443776	0.948471	-0.263460
O47	O	0.777109	1.281804	0.069873
O48	O	1.110442	1.615138	0.403206
O49	O	0.443784	0.871174	-0.340413
O50	O	0.777117	1.204507	-0.007079
O51	O	1.110450	1.537841	0.326254
C52	C	0.303099	0.746286	-0.301920
C53	C	0.636432	1.079619	0.031413
C54	C	0.969766	1.412952	0.364746
C55	C	0.303127	0.676318	-0.301928
C56	C	0.636460	1.009651	0.031406
C57	C	0.969794	1.342984	0.364739
C58	C	0.262928	0.643491	-0.342063
C59	C	0.596262	0.976824	-0.008730
C60	C	0.929595	1.310157	0.324603
C61	C	0.262911	0.577748	-0.342066
C62	C	0.596245	0.911081	-0.008733
C63	C	0.929578	1.244415	0.324601
C64	C	0.303104	0.544835	-0.301939
C65	C	0.636438	0.878169	0.031394
C66	C	0.969771	1.211502	0.364728
C67	C	0.343306	0.577670	-0.261796
C68	C	0.676639	0.911004	0.071538
C69	C	1.009973	1.244337	0.404871
C70	C	0.343317	0.643411	-0.261790
C71	C	0.676651	0.976745	0.071544
C72	C	1.009984	1.310078	0.404877
N73	N	0.358182	0.441587	-0.297058
N74	N	0.691515	0.774921	0.036275
N75	N	1.024848	1.108254	0.369609
N76	N	0.358169	0.379136	-0.297067
N77	N	0.691502	0.712469	0.036266
N78	N	1.024836	1.045803	0.369600
C79	C	0.303072	0.346760	-0.301953
C80	C	0.636405	0.680094	0.031380
C81	C	0.969739	1.013427	0.364714
N82	N	0.247986	0.379196	-0.306842
N83	N	0.581320	0.712529	0.026492
N84	N	0.914653	1.045862	0.359825
N85	N	0.248000	0.441653	-0.306836
N86	N	0.581333	0.774986	0.026498
N87	N	0.914666	1.108320	0.359831
C88	C	0.303096	0.473550	-0.301941
C89	C	0.636430	0.806883	0.031393
C90	C	0.969763	1.140216	0.364726
C91	C	0.262851	0.242648	-0.342093
C92	C	0.596185	0.575981	-0.008760
C93	C	0.929518	0.909315	0.324573
C94	C	0.262833	0.176904	-0.342091
C95	C	0.596167	0.510238	-0.008758
C96	C	0.929500	0.843571	0.324575
C97	C	0.343234	0.176827	-0.261824
C98	C	0.676567	0.510161	0.071509
C99	C	1.009900	0.843494	0.404842
C100	C	0.343246	0.242570	-0.261823
C101	C	0.676579	0.575903	0.071510
C102	C	1.009913	0.909237	0.404844
C103	C	0.303056	0.275476	-0.301961
C104	C	0.636389	0.608810	0.031372
C105	C	0.969722	0.942143	0.364706
C106	C	0.138878	0.909855	-0.301940
C107	C	0.472212	1.243188	0.031394
C108	C	0.805545	1.576522	0.364727
C109	C	0.068910	0.909862	-0.301940
C110	C	0.402244	1.243196	0.031393
C111	C	0.735577	1.576529	0.364726
C112	C	0.036052	0.869618	-0.342002
C113	C	0.369386	1.202951	-0.008669
C114	C	0.702719	1.536285	0.324665
C115	C	-0.029690	0.869624	-0.342011
C116	C	0.303643	1.202957	-0.008677
C117	C	0.636977	1.536291	0.324656
C118	C	-0.062572	0.909868	-0.301947
C119	C	0.270761	1.243201	0.031387
C120	C	0.604095	1.576534	0.364720
C121	C	-0.029706	0.950120	-0.261882
C122	C	0.303627	1.283453	0.071451
C123	C	0.636960	1.616787	0.404784
C124	C	0.036035	0.950117	-0.261879
C125	C	0.369368	1.283451	0.071454
C126	C	0.702702	1.616784	0.404788
N127	N	-0.165791	0.914681	-0.247108
N128	N	0.167542	1.248015	0.086226
N129	N	0.500876	1.581348	0.419559
N130	N	-0.228243	0.914680	-0.247113
N131	N	0.105091	1.248014	0.086221
N132	N	0.438424	1.581347	0.419554
C133	C	-0.260647	0.909879	-0.301955
C134	C	0.072686	1.243213	0.031378
C135	C	0.406020	1.576546	0.364712
N136	N	-0.228241	0.905067	-0.356794
N137	N	0.105093	1.238400	-0.023461
N138	N	0.438426	1.571734	0.309873
N139	N	-0.165783	0.905065	-0.356788
N140	N	0.167550	1.238398	-0.023455
N141	N	0.500883	1.571732	0.309878
C142	C	-0.133858	0.909875	-0.301946
C143	C	0.199476	1.243209	0.031387
C144	C	0.532809	1.576542	0.364721
C145	C	-0.364790	0.869639	-0.342030
C146	C	-0.031457	1.202973	-0.008696
C147	C	0.301876	1.536306	0.324637
C148	C	-0.430534	0.869650	-0.342040
C149	C	-0.097201	1.202983	-0.008706
C150	C	0.236133	1.536316	0.324627
C151	C	-0.430549	0.950142	-0.261906
C152	C	-0.097216	1.283476	0.071428
C153	C	0.236118	1.616809	0.404761
C154	C	-0.364807	0.950135	-0.261901
C155	C	-0.031473	1.283468	0.071432
C156	C	0.301860	1.616802	0.404765
C157	C	-0.331931	0.909880	-0.301962
C158	C	0.001402	1.243214	0.031371
C159	C	0.334735	1.576547	0.364704
C160	C	0.466620	0.909837	-0.301950
C161	C	0.799954	1.243170	0.031383
C162	C	1.133287	1.576504	0.364717
C163	C	0.536588	0.909895	-0.301976
C164	C	0.869922	1.243228	0.031357
C165	C	1.203255	1.576561	0.364691
C166	C	0.303056	0.909890	-0.465361
C167	C	0.636389	1.243223	-0.132028
C168	C	0.969723	1.576556	0.201305
C169	C	0.303051	0.909912	-0.535003
C170	C	0.636384	1.243245	-0.201669
C171	C	0.969717	1.576579	0.131664
C172	C	0.303039	1.074028	-0.301956
C173	C	0.636372	1.407361	0.031377
C174	C	0.969706	1.740694	0.364711
C175	C	0.303026	1.143996	-0.301964
C176	C	0.636359	1.477329	0.031370
C177	C	0.969693	1.810662	0.364703
C178	C	0.262780	0.950176	-0.567721
C179	C	0.596113	1.283509	-0.234388
C180	C	0.929447	1.616843	0.098945
C181	C	0.262753	0.950175	-0.633157
C182	C	0.596086	1.283508	-0.299824
C183	C	0.929420	1.616842	0.033510
C184	C	0.303008	0.909917	-0.665871
C185	C	0.636341	1.243250	-0.332538
C186	C	0.969674	1.576583	0.000796
C187	C	0.343281	0.869645	-0.633144
C188	C	0.676614	1.202978	-0.299811
C189	C	1.009948	1.536312	0.033523
C190	C	0.343302	0.869643	-0.567710
C191	C	0.676636	1.202976	-0.234377
C192	C	1.009969	1.536309	0.098957
C193	C	0.359689	0.904946	-0.769550
C194	C	0.693022	1.238280	-0.436216
C195	C	1.026356	1.571613	-0.102883
C196	C	0.359669	0.904953	-0.834983
C197	C	0.693002	1.238286	-0.501649
C198	C	1.026335	1.571620	-0.168316
C199	C	0.302941	0.909921	-0.867692
C200	C	0.636274	1.243254	-0.534358
C201	C	0.969608	1.576587	-0.201025
C202	C	0.246232	0.914895	-0.834960
C203	C	0.579566	1.248228	-0.501626
C204	C	0.912899	1.581561	-0.168293
C205	C	0.246254	0.914892	-0.769526
C206	C	0.579587	1.248226	-0.436192
C207	C	0.912920	1.581559	-0.102859
C208	C	0.302989	0.909915	-0.736823
C209	C	0.636322	1.243248	-0.403490
C210	C	0.969655	1.576581	-0.070157
C211	C	0.262638	0.950186	-0.971363
C212	C	0.595971	1.283519	-0.638030
C213	C	0.929305	1.616853	-0.304697
C214	C	0.262610	0.950181	-1.036800
C215	C	0.595943	1.283514	-0.703467
C216	C	0.929276	1.616847	-0.370133
C217	C	0.343143	0.869654	-1.036786
C218	C	0.676477	1.202987	-0.703452
C219	C	1.009810	1.536320	-0.370119
C220	C	0.343166	0.869656	-0.971350
C221	C	0.676499	1.202989	-0.638017
C222	C	1.009832	1.536322	-0.304684
C223	C	0.302914	0.909925	-0.938643
C224	C	0.636247	1.243259	-0.605310
C225	C	0.969581	1.576592	-0.271976
C226	C	0.303036	0.909822	-0.139150
C227	C	0.636369	1.243155	0.194183
C228	C	0.969703	1.576488	0.527516
C229	C	0.302864	0.909921	-0.069509
C230	C	0.636197	1.243255	0.263824
C231	C	0.969531	1.576588	0.597157
H232	H	0.375960	0.150030	-0.229152
H233	H	0.709293	0.483364	0.104181
H234	H	1.042626	0.816697	0.437514
H235	H	0.230122	0.269442	-0.374772
H236	H	0.563455	0.602775	-0.041439
H237	H	0.896789	0.936108	0.291895
H238	H	-0.338022	0.836870	-0.374658
H239	H	-0.004688	1.170203	-0.041325
H240	H	0.328645	1.503536	0.292008
H241	H	0.376031	0.550868	-0.229124
H242	H	0.709364	0.884202	0.104210
H243	H	1.042698	1.217535	0.437543
N244	N	0.384314	0.276096	-0.220822
N245	N	0.717647	0.609429	0.112511
N246	N	1.050981	0.942763	0.445845
N247	N	0.420197	0.246705	-0.184995
N248	N	0.753530	0.580038	0.148339
N249	N	1.086863	0.913372	0.481672
H250	H	0.449202	0.270382	-0.156034
H251	H	0.782535	0.603715	0.177299
H252	H	1.115868	0.937049	0.510633
H253	H	0.230095	0.150177	-0.374774
H254	H	0.563428	0.483511	-0.041441
H255	H	0.896762	0.816844	0.291893
N256	N	0.069623	0.828497	-0.382927
N257	N	0.402956	1.161831	-0.049594
N258	N	0.736290	1.495164	0.283740
N259	N	0.040272	0.792568	-0.418695
N260	N	0.373605	1.125901	-0.085362
N261	N	0.706939	1.459235	0.247971
H262	H	0.063982	0.763526	-0.447600
H263	H	0.397315	1.096860	-0.114267
H264	H	0.730648	1.430193	0.219066
H265	H	0.375913	0.836868	-1.063421
H266	H	0.709246	1.170202	-0.730088
H267	H	1.042580	1.503535	-0.396754
N268	N	0.221864	0.544210	-0.383084
N269	N	0.555197	0.877543	-0.049751
N270	N	0.888531	1.210876	0.283582
N271	N	0.226149	0.551582	-0.440890
N272	N	0.559482	0.884915	-0.107556
N273	N	0.892815	1.218249	0.225777
H274	H	0.197165	0.527895	-0.469863
H275	H	0.530498	0.861228	-0.136530
H276	H	0.863831	1.194562	0.196803
N277	N	0.384298	0.828521	-0.937927
N278	N	0.717631	1.161855	-0.604593
N279	N	1.050965	1.495188	-0.271260
N280	N	0.380128	0.770436	-0.945212
N281	N	0.713461	1.103770	-0.611879
N282	N	1.046794	1.437103	-0.278546
H283	H	0.409177	0.741380	-0.921608
H284	H	0.742511	1.074714	-0.588274
H285	H	1.075844	1.408047	-0.254941
N286	N	0.384393	0.676947	-0.220802
N287	N	0.717727	1.010280	0.112532
N288	N	1.051060	1.343613	0.445865
N289	N	0.424547	0.713620	-0.242784
N290	N	0.757881	1.046953	0.090549
N291	N	1.091214	1.380286	0.423883
H292	H	0.453560	0.737305	-0.213837
H293	H	0.786893	1.070639	0.119496
H294	H	1.120226	1.403972	0.452830
N295	N	0.188279	0.919954	-0.868360
N296	N	0.521612	1.253287	-0.535027
N297	N	0.854945	1.586620	-0.201693
N298	N	0.146478	0.879421	-0.861019
N299	N	0.479811	1.212754	-0.527686
N300	N	0.813145	1.546088	-0.194353
H301	H	0.105549	0.882994	-0.884610
H302	H	0.438882	1.216327	-0.551277
H303	H	0.772216	1.549661	-0.217943
N304	N	-0.063253	0.828512	-0.382941
N305	N	0.270080	1.161845	-0.049608
N306	N	0.603413	1.495179	0.283726
N307	N	-0.033893	0.792577	-0.418708
N308	N	0.299441	1.125911	-0.085375
N309	N	0.632774	1.459244	0.247959
H310	H	-0.057595	0.763542	-0.447615
H311	H	0.275739	1.096875	-0.114282
H312	H	0.609072	1.430208	0.219051
H313	H	-0.056482	0.982888	-0.229263
H314	H	0.276851	1.316221	0.104071
H315	H	0.610184	1.649555	0.437404
H316	H	0.230202	0.670279	-0.374746
H317	H	0.563535	1.003612	-0.041413
H318	H	0.896868	1.336946	0.291920
N319	N	0.069592	0.991233	-0.220952
N320	N	0.402926	1.324566	0.112381
N321	N	0.736259	1.657900	0.445714
N322	N	0.040230	1.027167	-0.185186
N323	N	0.373563	1.360500	0.148147
N324	N	0.706896	1.693833	0.481480
H325	H	0.063930	1.056205	-0.156280
H326	H	0.397263	1.389539	0.177053
H327	H	0.730596	1.722872	0.510387
N328	N	-0.464090	0.828540	-0.382973
N329	N	-0.130757	1.161873	-0.049640
N330	N	0.202576	1.495207	0.283693
N331	N	-0.434726	0.792605	-0.418738
N332	N	-0.101393	1.125939	-0.085404
N333	N	0.231940	1.459272	0.247929
H334	H	-0.458425	0.763571	-0.447649
H335	H	-0.125092	1.096904	-0.114315
H336	H	0.208241	1.430237	0.219018
H337	H	0.405844	0.900907	-0.861628
H338	H	0.739178	1.234240	-0.528295
H339	H	1.072511	1.567573	-0.194961
N340	N	0.417633	0.899866	-0.736131
N341	N	0.750966	1.233200	-0.402798
N342	N	1.084299	1.566533	-0.069465
N343	N	0.451784	0.852686	-0.743415
N344	N	0.785118	1.186019	-0.410081
N345	N	1.118451	1.519352	-0.076748
H346	H	0.492704	0.849099	-0.719810
H347	H	0.826037	1.182432	-0.386476
H348	H	1.159370	1.515765	-0.053143
N349	N	-0.464139	0.991241	-0.220979
N350	N	-0.130805	1.324575	0.112354
N351	N	0.202528	1.657908	0.445688
N352	N	-0.522836	0.991235	-0.220982
N353	N	-0.189502	1.324568	0.112352
N354	N	0.143831	1.657901	0.445685
H355	H	-0.546562	1.020260	-0.192074
H356	H	-0.213229	1.353593	0.141260
H357	H	0.120105	1.686926	0.474593
N358	N	-0.331249	0.991249	-0.220975
N359	N	0.002084	1.324582	0.112358
N360	N	0.335418	1.657916	0.445691
N361	N	-0.360613	1.027182	-0.185209
N362	N	-0.027279	1.360516	0.148124
N363	N	0.306054	1.693849	0.481457
H364	H	-0.336913	1.056224	-0.156305
H365	H	-0.003580	1.389557	0.177028
H366	H	0.329753	1.722890	0.510361
H367	H	0.230003	0.982966	-0.541095
H368	H	0.563336	1.316299	-0.207762
H369	H	0.896670	1.649632	0.125571
H370	H	0.229956	0.982962	-0.659802
H371	H	0.563290	1.316295	-0.326469
H372	H	0.896623	1.649628	0.006865
H373	H	0.200079	0.918941	-0.742878
H374	H	0.533413	1.252274	-0.409544
H375	H	0.866746	1.585607	-0.076211
N376	N	0.384442	0.828506	-0.534295
N377	N	0.717775	1.161839	-0.200961
N378	N	1.051108	1.495173	0.132372
N379	N	0.420377	0.792558	-0.563507
N380	N	0.753711	1.125892	-0.230174
N381	N	1.087044	1.459225	0.103160
H382	H	0.449433	0.763505	-0.539907
H383	H	0.782767	1.096838	-0.206574
H384	H	1.116100	1.430171	0.126760
H385	H	0.229859	0.982972	-0.944732
H386	H	0.563192	1.316305	-0.611398
H387	H	0.896526	1.649639	-0.278065
N388	N	0.221463	0.991311	-1.070214
N389	N	0.554797	1.324644	-0.736881
N390	N	0.888130	1.657978	-0.403547
N391	N	0.185529	1.027259	-1.041000
N392	N	0.518863	1.360592	-0.707667
N393	N	0.852196	1.693926	-0.374334
H394	H	0.156468	1.056309	-1.064599
H395	H	0.489802	1.389642	-0.731266
H396	H	0.823135	1.722975	-0.397932
N397	N	0.384392	0.828522	-0.666567
N398	N	0.717725	1.161855	-0.333234
N399	N	1.051059	1.495189	0.000100
N400	N	0.384368	0.828529	-0.724990
N401	N	0.717702	1.161863	-0.391656
N402	N	1.051035	1.495196	-0.058323
H403	H	0.413402	0.799483	-0.748595
H404	H	0.746735	1.132816	-0.415262
H405	H	1.080069	1.466149	-0.081929
