data_functionalizedCrystal
_audit_creation_method	'MofGen! by Chris Wilmer'
_symmetry_space_group_name_H-M	'P1'
_symmetry_Int_Tables_number	1
_symmetry_cell_setting	triclinic
loop_
_symmetry_equiv_pos_as_xyz
  x,y,z
_cell_length_a	6.817900
_cell_length_b	12.840946
_cell_length_c	17.982959
_cell_angle_alpha	81.772463
_cell_angle_beta	76.724534
_cell_angle_gamma	88.344365
loop_
_atom_site_label
_atom_site_type_symbol
_atom_site_fract_x
_atom_site_fract_y
_atom_site_fract_z
V1	V	-3.894555	0.281457	0.107221
O2	O	-3.888434	0.320370	-0.003294
O3	O	-3.843275	0.236955	0.210814
O4	O	-3.790184	0.423635	0.106387
O5	O	-3.941893	0.132397	0.101856
V6	V	-4.385809	0.268801	0.093906
O7	O	-4.138856	0.309220	0.136429
O8	O	-4.591706	0.241037	0.064698
O9	O	-4.213883	0.313303	-0.009687
O10	O	-4.509327	0.229888	0.204421
O11	O	-4.455869	0.417861	0.099271
O12	O	-4.266974	0.126622	0.094740
C13	C	-3.689386	0.221528	0.236042
C14	C	-3.728372	0.186090	0.320736
C15	C	-3.926616	0.173062	0.364423
C16	C	-3.963276	0.139779	0.444005
C17	C	-3.801689	0.119518	0.479897
C18	C	-3.603428	0.132551	0.436204
C19	C	-3.566771	0.165840	0.356625
C20	C	-3.621675	0.459658	0.102832
C21	C	-3.617527	0.577789	0.102835
C22	C	-4.081852	-0.027541	0.098324
C23	C	-4.098853	0.090594	0.098308
V24	V	-3.877525	0.767616	0.107243
O25	O	-3.914258	0.921009	0.101887
O26	O	-3.783288	0.620775	0.106400
O27	O	-3.824708	0.766742	0.210836
O28	O	-3.872551	0.774031	-0.003272
V29	V	-4.366836	0.810493	0.093934
O30	O	-4.123761	0.740169	0.136452
O31	O	-4.570004	0.860624	0.064731
O32	O	-4.238259	0.946087	0.094775
O33	O	-4.447293	0.663015	0.099292
O34	O	-4.489000	0.809992	0.204451
O35	O	-4.196839	0.800120	-0.009661
C36	C	-4.031115	0.328725	-0.034911
C37	C	-3.971365	0.364170	-0.119604
C38	C	-3.670371	0.763982	0.236059
C39	C	-3.708023	0.766409	0.320753
C40	C	-4.015111	0.785914	-0.034892
C41	C	-3.956734	0.782451	-0.119588
C42	C	-3.905619	0.771397	0.364454
C43	C	-3.940985	0.773683	0.444032
C44	C	-3.778753	0.770974	0.479908
C45	C	-3.581140	0.765989	0.436201
C46	C	-3.545776	0.763711	0.356624
C47	C	-3.723755	0.775180	0.757127
C48	C	-3.759136	0.777456	0.836711
C49	C	-4.118964	0.785153	0.844536
C50	C	-4.083600	0.782874	0.764958
C51	C	-3.885991	0.777895	0.721257
C52	C	-3.847645	0.775418	0.634970
C53	C	-3.817097	0.773444	0.566195
C54	C	-4.118107	0.377200	-0.163291
C55	C	-4.061989	0.410488	-0.242872
C56	C	-3.859129	0.430752	-0.278763
C57	C	-3.712377	0.417716	-0.235071
C58	C	-3.768494	0.384422	-0.155493
H59	H	-4.124721	0.129170	0.479568
N60	N	-3.352942	0.179890	0.309509
H61	H	-3.256156	0.161999	0.344328
H62	H	-3.328442	0.131746	0.268566
N63	N	-3.429155	0.110668	0.474917
H64	H	-3.482481	0.087590	0.531957
H65	H	-3.342776	0.053104	0.451541
N66	N	-3.610197	0.370387	-0.108383
H67	H	-3.640362	0.418531	-0.067435
H68	H	-3.611055	0.294919	-0.082999
N69	N	-4.337017	0.355797	-0.124537
H70	H	-4.350366	0.332881	-0.067474
H71	H	-4.417534	0.422056	-0.132505
N72	N	-3.510631	0.769784	0.710004
H73	H	-3.512830	0.768753	0.654147
H74	H	-3.432348	0.833308	0.714447
H75	H	-3.831565	0.092412	0.544695
H76	H	-4.058213	0.189549	0.335210
H77	H	-4.181509	0.421098	-0.278435
H78	H	-4.037733	0.773595	0.335251
H79	H	-3.813462	0.457861	-0.343562
N80	N	-4.332105	0.790548	0.891668
H81	H	-4.360698	0.726863	0.932624
H82	H	-4.348756	0.856520	0.917042
N83	N	-4.258576	0.785808	0.726261
H84	H	-4.257822	0.720227	0.701177
H85	H	-4.389026	0.789358	0.766062
N86	N	-3.493584	0.439579	-0.273788
H87	H	-3.480326	0.462653	-0.330827
H88	H	-3.441752	0.497137	-0.250416
H89	H	-3.449050	0.763790	0.465417
N90	N	-3.332657	0.758324	0.309483
H91	H	-3.304084	0.822019	0.268535
H92	H	-3.235382	0.756915	0.344338
N93	N	-4.154120	0.779060	0.491157
H94	H	-4.232488	0.715531	0.486775
H95	H	-4.151764	0.780133	0.546992
N96	N	-3.584150	0.774533	0.875408
H97	H	-3.453597	0.771035	0.835649
H98	H	-3.585117	0.840120	0.900500
