data_functionalizedCrystal
_audit_creation_method	'MofGen! by Chris Wilmer'
_symmetry_space_group_name_H-M	'P1'
_symmetry_Int_Tables_number	1
_symmetry_cell_setting	triclinic
loop_
_symmetry_equiv_pos_as_xyz
  x,y,z
_cell_length_a	10.489741
_cell_length_b	10.723024
_cell_length_c	9.798715
_cell_angle_alpha	90.001978
_cell_angle_beta	90.001001
_cell_angle_gamma	84.503522
loop_
_atom_site_label
_atom_site_type_symbol
_atom_site_fract_x
_atom_site_fract_y
_atom_site_fract_z
O1	O	-1.693940	-0.176060	-0.113403
O2	O	-1.193940	0.323940	0.386597
O3	O	-1.322734	-0.192587	-0.113424
O4	O	-0.822734	0.307413	0.386576
O5	O	-1.516899	-0.002753	-0.113408
O6	O	-1.016899	0.497247	0.386592
O7	O	-1.499774	-0.365895	-0.113419
O8	O	-0.999774	0.134105	0.386581
O9	O	-1.516885	-0.002752	0.113574
O10	O	-1.016885	0.497248	0.613574
O11	O	-1.322719	-0.192586	0.113558
O12	O	-0.822719	0.307414	0.613558
O13	O	-1.693925	-0.176060	0.113579
O14	O	-1.193925	0.323940	0.613579
Zn15	Zn	-1.508320	-0.184323	0.149607
Zn16	Zn	-1.008320	0.315677	0.649607
Zn17	Zn	-1.508339	-0.184324	-0.149452
Zn18	Zn	-1.008339	0.315676	0.350548
O19	O	-1.499760	-0.365894	0.113563
O20	O	-0.999760	0.134106	0.613563
C21	C	-1.515646	0.043748	0.000082
C22	C	-1.015646	0.543748	0.500082
C23	C	-1.511917	0.182305	0.000077
C24	C	-1.011917	0.682305	0.500077
C25	C	-1.275196	-0.191338	0.000065
C26	C	-0.775196	0.308662	0.500065
C27	C	-1.133569	-0.187604	0.000057
C28	C	-0.633569	0.312396	0.500057
C29	C	-1.741464	-0.177308	0.000088
C30	C	-1.241464	0.322692	0.500088
C31	C	-1.883091	-0.181043	0.000087
C32	C	-1.383091	0.318957	0.500087
C33	C	-1.065506	-0.066818	0.000073
C34	C	-0.565506	0.433182	0.500073
C35	C	-0.973349	-0.123876	-0.111840
C36	C	-0.473349	0.376124	0.388160
C37	C	-0.973369	-0.123905	0.111947
C38	C	-0.473369	0.376095	0.611947
C39	C	-1.043278	-0.244712	-0.111949
C40	C	-0.543278	0.255288	0.388051
C41	C	-1.043307	-0.244723	0.111939
C42	C	-0.543307	0.255277	0.611939
C43	C	-0.951178	-0.301869	-0.000002
C44	C	-0.451178	0.198131	0.499998
C45	C	-1.501013	-0.412395	0.000071
C46	C	-1.001013	0.087605	0.500071
C47	C	-1.504742	-0.550951	0.000067
C48	C	-1.004742	-0.050951	0.500067
N49	N	-1.508316	-0.184322	0.353707
N50	N	-1.008316	0.315678	0.853707
C51	C	-1.620562	0.257221	0.000081
C52	C	-1.120562	0.757221	0.500081
C53	C	-1.616711	0.400426	0.000076
C54	C	-1.116711	0.900426	0.500076
N55	N	-1.508353	-0.184315	-0.353551
N56	N	-1.008353	0.315685	0.146449
C57	C	-1.589841	-0.104264	0.421490
C58	C	-1.089841	0.395736	0.921490
C59	C	-1.589861	-0.104260	0.578653
C60	C	-1.089861	0.395740	1.078653
H61	H	-1.115259	0.032476	-0.000064
H62	H	-0.615259	0.532476	0.499936
H63	H	-1.709719	0.464802	0.000085
H64	H	-1.209719	0.964802	0.500085
H65	H	-0.942374	-0.072769	-0.206453
H66	H	-0.442374	0.427231	0.293547
Cl67	Cl	-0.925585	-0.044970	0.258027
Cl68	Cl	-0.425585	0.455030	0.758027
H69	H	-1.411728	0.384681	0.000073
H70	H	-0.911728	0.884681	0.500073
H71	H	-1.438557	-0.252864	0.588167
H72	H	-0.938557	0.247136	1.088167
H73	H	-0.901691	-0.401268	-0.000066
H74	H	-0.401691	0.098732	0.499934
Cl75	Cl	-1.400567	-0.290137	0.443737
Cl76	Cl	-0.900567	0.209863	0.943737
Cl77	Cl	-1.363900	0.246954	0.000055
Cl78	Cl	-0.863900	0.746954	0.500055
Cl79	Cl	-1.090825	-0.323555	-0.258193
Cl80	Cl	-0.590825	0.176445	0.241807
H81	H	-1.074314	-0.295789	0.206556
H82	H	-0.574314	0.204211	0.706556
H83	H	-1.659663	-0.035724	0.636944
H84	H	-1.159663	0.464276	1.136944
Cl85	Cl	-1.768579	0.192572	0.000081
Cl86	Cl	-1.268579	0.692572	0.500081
Cl87	Cl	-1.697293	0.001839	0.331461
Cl88	Cl	-1.197293	0.501839	0.831461
