data_functionalizedCrystal
_audit_creation_method	'MofGen! by Chris Wilmer'
_symmetry_space_group_name_H-M	'P1'
_symmetry_Int_Tables_number	1
_symmetry_cell_setting	triclinic
loop_
_symmetry_equiv_pos_as_xyz
  x,y,z
_cell_length_a	12.837943
_cell_length_b	14.519709
_cell_length_c	11.892095
_cell_angle_alpha	93.895429
_cell_angle_beta	85.689438
_cell_angle_gamma	89.254542
loop_
_atom_site_label
_atom_site_type_symbol
_atom_site_fract_x
_atom_site_fract_y
_atom_site_fract_z
O1	O	1.382515	0.234472	-0.093988
O2	O	1.080688	0.222627	-0.093995
O3	O	1.239604	0.095003	-0.093981
O4	O	1.223600	0.362096	-0.094002
O5	O	1.226354	0.105626	0.094025
O6	O	1.067438	0.233250	0.094012
O7	O	1.369265	0.245095	0.094018
Zn8	Zn	1.216248	0.240859	0.123865
Zn9	Zn	1.233706	0.226863	-0.123842
O10	O	1.210350	0.372719	0.094005
C11	C	1.035435	0.223937	0.000008
C12	C	0.920336	0.212002	0.000006
C13	C	0.679644	0.355473	0.000011
C14	C	0.571497	0.344264	0.000010
C15	C	0.595894	0.178377	0.000010
C16	C	0.704041	0.189586	0.000012
C17	C	0.745911	0.278137	0.000010
C18	C	0.854060	0.289344	0.000003
C19	C	0.878455	0.123458	0.000012
C20	C	0.770308	0.112249	0.000011
C21	C	1.232233	0.065890	0.000022
C22	C	1.229998	-0.036684	0.000023
C23	C	1.221771	-0.412293	-0.000007
C24	C	1.224055	-0.307787	0.000002
C25	C	1.225884	-0.224492	0.000009
C26	C	1.228169	-0.119979	0.000016
C27	C	1.414519	0.243785	0.000013
C28	C	1.529618	0.255719	0.000008
C29	C	1.217721	0.401831	-0.000001
C30	C	1.219957	0.504405	-0.000009
N31	N	1.204341	0.250411	0.292918
N32	N	1.245621	0.217304	-0.292895
C33	C	1.328473	0.150784	0.529576
C34	C	1.320158	0.157468	0.647918
C35	C	1.179391	0.270458	0.647944
C36	C	1.187707	0.263774	0.529603
C37	C	1.262251	0.203936	0.470423
C38	C	1.270570	0.197257	0.352080
C39	C	1.129800	0.310242	0.352108
C40	C	1.121484	0.316926	0.470449
H41	H	0.713735	0.427575	0.000008
H42	H	0.888149	0.361447	0.000004
C43	C	1.055068	0.066976	0.000007
C44	C	0.951300	0.038442	0.000010
H45	H	1.100037	0.014490	0.000007
H46	H	1.072389	0.099186	-0.065550
H47	H	1.063154	0.106590	0.065574
H48	H	0.943212	-0.001168	-0.065563
H49	H	0.933974	0.006216	0.065573
C50	C	1.302116	0.066158	0.219058
C51	C	1.352477	0.131439	0.287053
H52	H	1.352676	0.025514	0.178921
H53	H	1.255633	0.031824	0.265257
H54	H	1.263900	0.096867	0.166869
H55	H	1.390687	0.100730	0.339249
H56	H	1.398978	0.165777	0.240850
C57	C	1.478907	0.135760	0.396497
C58	C	1.410440	0.085033	0.464536
H59	H	1.529521	0.095171	0.356356
H60	H	1.440655	0.166433	0.344322
H61	H	1.512992	0.180068	0.442677
H62	H	1.376349	0.040729	0.418355
H63	H	1.448697	0.054345	0.516717
C64	C	0.440937	0.087548	0.000030
C65	C	0.549855	0.081048	0.000023
H66	H	0.412518	0.027460	0.000033
H67	H	0.413599	0.123493	0.065586
H68	H	0.422830	0.116088	-0.065539
H69	H	0.567963	0.052515	0.065596
H70	H	0.577204	0.045090	-0.065540
H71	H	1.118692	0.319170	0.696143
H72	H	1.075880	0.353524	0.303932
H73	H	1.374081	0.114185	0.696077
C74	C	0.805287	-0.050597	0.000004
C75	C	0.724279	0.014917	0.000008
H76	H	0.776870	-0.110686	0.000006
H77	H	0.851577	-0.046472	-0.065553
H78	H	0.842343	-0.039071	0.065571
H79	H	0.687228	0.003394	-0.065564
H80	H	0.677972	0.010789	0.065572
C81	C	0.558250	0.509360	-0.000003
C82	C	0.498655	0.429274	0.000001
H83	H	0.513279	0.561842	-0.000015
H84	H	0.596314	0.513984	0.065557
H85	H	0.605564	0.506572	-0.065568
H86	H	0.451346	0.432060	0.065570
H87	H	0.460574	0.424650	-0.065566
C88	C	1.046238	0.377347	0.651871
C89	C	1.039553	0.382702	0.535506
H90	H	0.995661	0.417962	0.692029
H91	H	1.033492	0.315896	0.671263
H92	H	1.114092	0.394567	0.671237
H93	H	0.971701	0.365474	0.516138
H94	H	1.052291	0.444166	0.516105
