data_functionalizedCrystal
_audit_creation_method	'MofGen! by Chris Wilmer'
_symmetry_space_group_name_H-M	'P1'
_symmetry_Int_Tables_number	1
_symmetry_cell_setting	triclinic
loop_
_symmetry_equiv_pos_as_xyz
  x,y,z
_cell_length_a	9.065218
_cell_length_b	16.109304
_cell_length_c	15.186229
_cell_angle_alpha	89.997472
_cell_angle_beta	90.005739
_cell_angle_gamma	84.239262
loop_
_atom_site_label
_atom_site_type_symbol
_atom_site_fract_x
_atom_site_fract_y
_atom_site_fract_z
O1	O	1.957458	0.121901	0.073225
O2	O	1.527931	0.131900	0.073225
O3	O	1.754492	0.005960	0.073225
O4	O	1.730897	0.247840	0.073225
O5	O	1.754465	0.005967	-0.073232
O6	O	1.527904	0.131907	-0.073232
O7	O	1.957431	0.121908	-0.073233
Zn8	Zn	1.742664	0.126908	-0.096486
Zn9	Zn	1.742699	0.126899	0.096478
O10	O	1.730870	0.247847	-0.073233
C11	C	1.472954	0.130942	-0.000003
C12	C	1.309181	0.128069	-0.000003
C13	C	1.753522	-0.025019	-0.000001
C14	C	1.750654	-0.117336	0.000005
C15	C	1.744044	-0.329728	0.079835
C16	C	1.741336	-0.416469	0.079835
C17	C	1.741314	-0.416458	-0.079841
C18	C	1.744011	-0.329718	-0.079839
C19	C	1.745384	-0.286356	0.000001
C20	C	1.739978	-0.459837	-0.000001
C21	C	1.737042	-0.553885	-0.000003
C22	C	1.748317	-0.192301	0.000003
C23	C	2.012408	0.122865	-0.000002
C24	C	2.176181	0.125739	0.000003
C25	C	1.731840	0.278826	-0.000004
C26	C	1.734708	0.371143	-0.000004
N27	N	1.742650	0.126914	-0.228178
C28	C	1.832126	0.178030	-0.453901
C29	C	1.832142	0.178024	-0.546091
C30	C	1.653244	0.075765	-0.546099
C31	C	1.653237	0.075767	-0.453912
C32	C	1.742675	0.126904	-0.407815
C33	C	1.742699	0.126897	-0.592192
C34	C	1.742715	0.126890	-0.692149
C35	C	1.742661	0.126910	-0.307852
N36	N	1.742723	0.126887	0.228171
H37	H	1.745157	-0.294425	0.144847
C38	C	1.745484	-0.282006	-0.167668
N39	N	1.746589	-0.246069	-0.233817
H40	H	1.904983	0.219654	-0.583611
H41	H	1.904952	0.219669	-0.416372
C42	C	1.554852	0.019526	-0.596814
N43	N	1.480735	-0.022831	-0.635012
H44	H	1.740241	-0.451778	0.144843
C45	C	1.739810	-0.464165	-0.167661
N46	N	1.738681	-0.500098	-0.233810
H47	H	1.580395	0.034131	-0.416387
