data_functionalizedCrystal
_audit_creation_method	'MofGen! by Chris Wilmer'
_symmetry_space_group_name_H-M	'P1'
_symmetry_Int_Tables_number	1
_symmetry_cell_setting	triclinic
loop_
_symmetry_equiv_pos_as_xyz
  x,y,z
_cell_length_a	19.805407
_cell_length_b	16.120484
_cell_length_c	19.805399
_cell_angle_alpha	92.871043
_cell_angle_beta	89.980427
_cell_angle_gamma	92.925608
loop_
_atom_site_label
_atom_site_type_symbol
_atom_site_fract_x
_atom_site_fract_y
_atom_site_fract_z
Zn1	Zn	1.021075	-0.331927	-0.396377
Zn2	Zn	1.271075	-0.081927	-0.146377
Zn3	Zn	1.521075	0.168073	0.103623
Zn4	Zn	1.771075	0.418073	0.353623
Zn5	Zn	1.015252	-0.471346	-0.288925
Zn6	Zn	1.265252	-0.221346	-0.038925
Zn7	Zn	1.515252	0.028654	0.211075
Zn8	Zn	1.765252	0.278654	0.461075
Zn9	Zn	0.907889	-0.331950	-0.283203
Zn10	Zn	1.157889	-0.081950	-0.033203
Zn11	Zn	1.407889	0.168050	0.216797
Zn12	Zn	1.657889	0.418050	0.466797
Zn13	Zn	0.902117	-0.471302	-0.402070
Zn14	Zn	1.152117	-0.221302	-0.152070
Zn15	Zn	1.402117	0.028698	0.097930
Zn16	Zn	1.652117	0.278698	0.347930
O17	O	0.961584	-0.401631	-0.342644
O18	O	1.211584	-0.151631	-0.092644
O19	O	1.461584	0.098369	0.157356
O20	O	1.711584	0.348369	0.407356
O21	O	1.115019	-0.350431	-0.382136
O22	O	1.365019	-0.100431	-0.132136
O23	O	1.615019	0.149569	0.117864
O24	O	1.865019	0.399569	0.367864
O25	O	1.000989	-0.452883	-0.193451
O26	O	1.250989	-0.202883	0.056549
O27	O	1.500989	0.047117	0.306549
O28	O	1.750989	0.297117	0.556549
O29	O	0.927756	-0.215281	-0.293438
O30	O	1.177756	0.034719	-0.043438
O31	O	1.427756	0.284719	0.206562
O32	O	1.677756	0.534719	0.456562
O33	O	1.110741	-0.452861	-0.303191
O34	O	1.360741	-0.202861	-0.053191
O35	O	1.610741	0.047139	0.196809
O36	O	1.860741	0.297139	0.446809
O37	O	1.010913	-0.215264	-0.376587
O38	O	1.260913	0.034736	-0.126587
O39	O	1.510913	0.284736	0.123413
O40	O	1.760913	0.534736	0.373413
O41	O	0.922109	-0.350470	-0.189246
O42	O	1.172109	-0.100470	0.060754
O43	O	1.422109	0.149530	0.310754
O44	O	1.672109	0.399530	0.560754
O45	O	0.812407	-0.350427	-0.298958
O46	O	1.062407	-0.100427	-0.048958
O47	O	1.312407	0.149573	0.201042
O48	O	1.562407	0.399573	0.451042
O49	O	0.917919	-0.452785	-0.496030
O50	O	1.167919	-0.202785	-0.246030
O51	O	1.417919	0.047215	0.003970
O52	O	1.667919	0.297215	0.253970
O53	O	0.808167	-0.452807	-0.386290
O54	O	1.058167	-0.202807	-0.136290
O55	O	1.308167	0.047193	0.113710
O56	O	1.558167	0.297193	0.363710
O57	O	1.005317	-0.350388	-0.491848
O58	O	1.255317	-0.100388	-0.241848
O59	O	1.505317	0.149612	0.008152
O60	O	1.755317	0.399612	0.258152
O61	O	0.995392	-0.588006	-0.308712
O62	O	1.245392	-0.338006	-0.058712
O63	O	1.495392	-0.088006	0.191288
O64	O	1.745392	0.161994	0.441288
O65	O	0.912273	-0.587974	-0.391839
O66	O	1.162273	-0.337974	-0.141839
O67	O	1.412273	-0.087974	0.108161
O68	O	1.662273	0.162026	0.358161
C69	C	0.785728	-0.401615	-0.342621
C70	C	1.035728	-0.151615	-0.092621
C71	C	1.285728	0.098385	0.157379
C72	C	1.535728	0.348385	0.407379
C73	C	0.710496	-0.401629	-0.342628
C74	C	0.960496	-0.151629	-0.092628
C75	C	1.210496	0.098371	0.157372
C76	C	1.460496	0.348371	0.407372
C77	C	0.672958	-0.455019	-0.388035
C78	C	0.922958	-0.205019	-0.138035
C79	C	1.172958	0.044981	0.111965
C80	C	1.422958	0.294981	0.361965
C81	C	0.602269	-0.455020	-0.388045
C82	C	0.852269	-0.205020	-0.138045
C83	C	1.102269	0.044980	0.111955
C84	C	1.352269	0.294980	0.361955
C85	C	0.569120	-0.401635	-0.342644
C86	C	0.819120	-0.151635	-0.092644
C87	C	1.069120	0.098365	0.157356
C88	C	1.319120	0.348365	0.407356
C89	C	0.606663	-0.348239	-0.297235
C90	C	0.856663	-0.098239	-0.047235
C91	C	1.106663	0.151761	0.202765
C92	C	1.356663	0.401761	0.452765
C93	C	0.677350	-0.348234	-0.297229
C94	C	0.927350	-0.098234	-0.047229
C95	C	1.177350	0.151766	0.202771
C96	C	1.427350	0.401766	0.452771
C97	C	0.321589	-0.348258	-0.297258
C98	C	0.571589	-0.098258	-0.047258
C99	C	0.821589	0.151742	0.202742
C100	C	1.071589	0.401742	0.452742
C101	C	0.250896	-0.348269	-0.297266
C102	C	0.500896	-0.098269	-0.047266
C103	C	0.750896	0.151731	0.202734
C104	C	1.000896	0.401731	0.452734
C105	C	0.246508	-0.455043	-0.388074
C106	C	0.496508	-0.205043	-0.138074
C107	C	0.746508	0.044957	0.111926
C108	C	0.996508	0.294957	0.361926
C109	C	0.317195	-0.455038	-0.388068
C110	C	0.567195	-0.205038	-0.138068
C111	C	0.817195	0.044962	0.111932
C112	C	1.067195	0.294962	0.361932
C113	C	0.354732	-0.401640	-0.342662
C114	C	0.604732	-0.151640	-0.092662
C115	C	0.854732	0.098360	0.157338
C116	C	1.104732	0.348360	0.407338
C117	C	0.431381	-0.401638	-0.342653
C118	C	0.681381	-0.151638	-0.092653
C119	C	0.931381	0.098362	0.157347
C120	C	1.181381	0.348362	0.407347
C121	C	0.492472	-0.401641	-0.342649
C122	C	0.742472	-0.151641	-0.092649
C123	C	0.992472	0.098359	0.157351
C124	C	1.242472	0.348359	0.407351
C125	C	0.952593	-0.618240	-0.351529
C126	C	1.202593	-0.368240	-0.101529
C127	C	1.452593	-0.118240	0.148471
C128	C	1.702593	0.131760	0.398471
C129	C	0.948809	-0.710906	-0.355353
C130	C	1.198809	-0.460906	-0.105353
C131	C	1.448809	-0.210906	0.144647
C132	C	1.698809	0.039094	0.394647
C133	C	0.941903	-0.880568	-0.362347
C134	C	1.191903	-0.630568	-0.112347
C135	C	1.441903	-0.380568	0.137653
C136	C	1.691903	-0.130568	0.387653
C137	C	0.981385	-0.921854	-0.322951
C138	C	1.231385	-0.671854	-0.072951
C139	C	1.481385	-0.421854	0.177049
C140	C	1.731385	-0.171854	0.427049
C141	C	0.977543	-1.016260	-0.326843
C142	C	1.227543	-0.766260	-0.076843
C143	C	1.477543	-0.516260	0.173157
C144	C	1.727543	-0.266260	0.423157
C145	C	0.945745	-0.786154	-0.358456
C146	C	1.195745	-0.536154	-0.108456
C147	C	1.445745	-0.286154	0.141544
C148	C	1.695745	-0.036154	0.391544
C149	C	1.138126	-0.401648	-0.342667
C150	C	1.388126	-0.151648	-0.092667
C151	C	1.638126	0.098352	0.157333
C152	C	1.888126	0.348352	0.407333
C153	C	1.213357	-0.401655	-0.342677
C154	C	1.463357	-0.151655	-0.092677
C155	C	1.713357	0.098345	0.157323
C156	C	1.963357	0.348345	0.407323
C157	C	0.961624	-0.401579	-0.519184
C158	C	1.211624	-0.151579	-0.269184
C159	C	1.461624	0.098421	-0.019184
C160	C	1.711624	0.348421	0.230816
C161	C	0.961641	-0.401556	-0.594416
C162	C	1.211641	-0.151556	-0.344416
C163	C	1.461641	0.098444	-0.094416
C164	C	1.711641	0.348444	0.155584
C165	C	0.970628	-0.184177	-0.333739
C166	C	1.220628	0.065823	-0.083739
C167	C	1.470628	0.315823	0.166261
C168	C	1.720628	0.565823	0.416261
C169	C	0.974482	-0.091511	-0.329944
C170	C	1.224482	0.158489	-0.079944
C171	C	1.474482	0.408489	0.170056
C172	C	1.724482	0.658489	0.420056
C173	C	1.007150	-0.348235	-0.627583
C174	C	1.257150	-0.098235	-0.377583
C175	C	1.507150	0.151765	-0.127583
C176	C	1.757150	0.401765	0.122417
C177	C	1.007158	-0.348211	-0.698270
C178	C	1.257158	-0.098211	-0.448270
C179	C	1.507158	0.151789	-0.198270
C180	C	1.757158	0.401789	0.051730
C181	C	0.961659	-0.401513	-0.735789
C182	C	1.211659	-0.151513	-0.485789
C183	C	1.461659	0.098487	-0.235789
C184	C	1.711659	0.348487	0.014211
C185	C	0.916145	-0.454836	-0.702617
C186	C	1.166145	-0.204836	-0.452617
C187	C	1.416145	0.045164	-0.202617
C188	C	1.666145	0.295164	0.047383
C189	C	0.916135	-0.454856	-0.631931
C190	C	1.166135	-0.204856	-0.381931
C191	C	1.416135	0.045144	-0.131931
C192	C	1.666135	0.295144	0.118069
C193	C	0.916187	-0.454759	-0.987688
C194	C	1.166187	-0.204759	-0.737688
C195	C	1.416187	0.045241	-0.487688
C196	C	1.666187	0.295241	-0.237688
C197	C	0.916202	-0.454737	-1.058379
C198	C	1.166202	-0.204737	-0.808379
C199	C	1.416202	0.045263	-0.558379
C200	C	1.666202	0.295263	-0.308379
C201	C	1.007210	-0.348114	-1.054027
C202	C	1.257210	-0.098114	-0.804027
C203	C	1.507210	0.151886	-0.554027
C204	C	1.757210	0.401886	-0.304027
C205	C	1.007199	-0.348133	-0.983340
C206	C	1.257199	-0.098133	-0.733340
C207	C	1.507199	0.151867	-0.483340
C208	C	1.757199	0.401867	-0.233340
C209	C	0.961683	-0.401453	-0.950174
C210	C	1.211683	-0.151453	-0.700174
C211	C	1.461683	0.098547	-0.450174
C212	C	1.711683	0.348547	-0.200174
C213	C	0.961674	-0.401478	-0.873527
C214	C	1.211674	-0.151478	-0.623527
C215	C	1.461674	0.098522	-0.373527
C216	C	1.711674	0.348522	-0.123527
C217	C	0.961671	-0.401493	-0.812436
C218	C	1.211671	-0.151493	-0.562436
C219	C	1.461671	0.098507	-0.312436
C220	C	1.711671	0.348507	-0.062436
C221	C	0.961585	-0.401623	-0.166787
C222	C	1.211585	-0.151623	0.083213
C223	C	1.461585	0.098377	0.333213
C224	C	1.711585	0.348377	0.583213
C225	C	0.961709	-0.401411	-0.091547
C226	C	1.211709	-0.151411	0.158453
C227	C	1.461709	0.098589	0.408453
C228	C	1.711709	0.348589	0.658453
H229	H	0.344182	-0.498513	-0.425036
H230	H	0.594182	-0.248513	-0.175036
H231	H	0.844182	0.001487	0.074964
H232	H	1.094182	0.251487	0.324964
H233	H	1.044269	-0.304695	-1.081039
H234	H	1.294269	-0.054695	-0.831039
H235	H	1.544269	0.195305	-0.581039
H236	H	1.794269	0.445305	-0.331039
Cl237	Cl	0.858999	-0.521749	-1.105545
Cl238	Cl	1.108999	-0.271749	-0.855545
Cl239	Cl	1.358999	-0.021749	-0.605545
Cl240	Cl	1.608999	0.228251	-0.355545
Cl241	Cl	0.885263	-0.935459	-0.418929
Cl242	Cl	1.135263	-0.685459	-0.168929
Cl243	Cl	1.385263	-0.435459	0.081071
Cl244	Cl	1.635263	-0.185459	0.331071
H245	H	0.879097	-0.498232	-0.733171
H246	H	1.129097	-0.248232	-0.483171
H247	H	1.379097	0.001768	-0.233171
H248	H	1.629097	0.251768	0.016829
H249	H	0.571709	-0.498496	-0.425019
H250	H	0.821709	-0.248496	-0.175019
H251	H	1.071709	0.001504	0.074981
H252	H	1.321709	0.251504	0.324981
Cl253	Cl	1.064355	-0.281228	-0.580423
Cl254	Cl	1.314355	-0.031228	-0.330423
Cl255	Cl	1.564355	0.218772	-0.080423
Cl256	Cl	1.814355	0.468772	0.169577
Cl257	Cl	0.209223	-0.281150	-0.240187
Cl258	Cl	0.459223	-0.031150	0.009813
Cl259	Cl	0.709223	0.218850	0.259813
Cl260	Cl	0.959223	0.468850	0.509813
H261	H	0.352142	-0.304784	-0.260281
H262	H	0.602142	-0.054784	-0.010281
H263	H	0.852142	0.195216	0.239719
H264	H	1.102142	0.445216	0.489719
Cl265	Cl	0.858919	-0.521888	-0.590235
Cl266	Cl	1.108919	-0.271888	-0.340235
Cl267	Cl	1.358919	-0.021888	-0.090235
Cl268	Cl	1.608919	0.228112	0.159765
Cl269	Cl	0.564989	-0.281121	-0.240163
Cl270	Cl	0.814989	-0.031121	0.009837
Cl271	Cl	1.064989	0.218879	0.259837
Cl272	Cl	1.314989	0.468879	0.509837
Cl273	Cl	0.724541	-0.281111	-0.240146
Cl274	Cl	0.974541	-0.031111	0.009854
Cl275	Cl	1.224541	0.218889	0.259854
Cl276	Cl	1.474541	0.468889	0.509854
H277	H	0.699943	-0.498494	-0.425004
H278	H	0.949943	-0.248494	-0.175004
H279	H	1.199943	0.001506	0.074996
H280	H	1.449943	0.251506	0.324996
Cl281	Cl	1.064400	-0.281213	-0.739965
Cl282	Cl	1.314400	-0.031213	-0.489965
Cl283	Cl	1.564400	0.218787	-0.239965
Cl284	Cl	1.814400	0.468787	0.010035
Cl285	Cl	0.199315	-0.522174	-0.445157
Cl286	Cl	0.449315	-0.272174	-0.195157
Cl287	Cl	0.699315	-0.022174	0.054843
Cl288	Cl	0.949315	0.227826	0.304843
Cl289	Cl	1.038024	-0.866964	-0.266361
Cl290	Cl	1.288024	-0.616964	-0.016361
Cl291	Cl	1.538024	-0.366964	0.233639
Cl292	Cl	1.788024	-0.116964	0.483639
H293	H	0.879134	-0.498187	-0.960693
H294	H	1.129134	-0.248187	-0.710693
H295	H	1.379134	0.001813	-0.460693
H296	H	1.629134	0.251813	-0.210693
H297	H	1.044251	-0.304733	-0.952796
H298	H	1.294251	-0.054733	-0.702796
H299	H	1.544251	0.195267	-0.452796
H300	H	1.794251	0.445267	-0.202796
