data_functionalizedCrystal
_audit_creation_method	'MofGen! by Chris Wilmer'
_symmetry_space_group_name_H-M	'P1'
_symmetry_Int_Tables_number	1
_symmetry_cell_setting	triclinic
loop_
_symmetry_equiv_pos_as_xyz
  x,y,z
_cell_length_a	27.731996
_cell_length_b	11.026607
_cell_length_c	10.065875
_cell_angle_alpha	79.303208
_cell_angle_beta	98.708141
_cell_angle_gamma	95.603702
loop_
_atom_site_label
_atom_site_type_symbol
_atom_site_fract_x
_atom_site_fract_y
_atom_site_fract_z
O1	O	0.196523	1.624147	-0.113532
O2	O	0.173513	1.271283	-0.113532
O3	O	0.115610	1.458703	-0.113502
O4	O	0.254426	1.436728	-0.113561
O5	O	0.126708	1.422963	0.113481
O6	O	0.184611	1.235544	0.113451
O7	O	0.207621	1.588408	0.113451
Zn8	Zn	0.197878	1.406301	0.149490
Zn9	Zn	0.183256	1.453390	-0.149570
O10	O	0.265524	1.400988	0.113422
C11	C	0.174817	1.208284	-0.000040
C12	C	0.162162	1.073813	-0.000039
C13	C	0.103111	1.440381	-0.000006
C14	C	0.049333	1.439018	0.000008
C15	C	0.206317	1.651407	-0.000044
C16	C	0.218971	1.785880	-0.000054
C17	C	-0.290206	1.449952	-0.123787
C18	C	-0.492330	1.444790	-0.123811
O19	O	-0.523611	1.460639	-0.229039
N20	N	-0.511556	1.424668	-0.000084
C21	C	-0.480247	1.405826	0.123658
O22	O	-0.501238	1.388579	0.228895
C23	C	-0.278124	1.410979	0.123681
C24	C	-0.258901	1.431115	-0.000055
C25	C	-0.270983	1.470086	-0.247513
C26	C	-0.220454	1.471382	-0.247505
C27	C	-0.189149	1.452546	-0.123773
C28	C	-0.208373	1.432412	-0.000048
C29	C	-0.246816	1.392128	0.247421
C30	C	-0.196283	1.393415	0.247416
C31	C	-0.177060	1.413552	0.123680
C32	C	-0.126540	1.414872	0.123692
N33	N	-0.107314	1.434995	-0.000035
C34	C	-0.138619	1.453832	-0.123768
C35	C	-0.586365	1.403124	0.123637
C36	C	-0.636895	1.401838	0.123632
C37	C	-0.648975	1.440801	-0.123838
C38	C	-0.598444	1.442095	-0.123831
C39	C	-0.567139	1.423247	-0.000090
C40	C	-0.032505	1.456555	-0.123743
C41	C	0.018028	1.457855	-0.123725
C42	C	0.030103	1.418886	0.123744
C43	C	-0.020425	1.417592	0.123727
C44	C	-0.051729	1.436424	-0.000028
O45	O	-0.095231	1.399019	0.228864
O46	O	-0.117620	1.471049	-0.228989
C47	C	-0.340734	1.448655	-0.123795
C48	C	-0.359958	1.428522	-0.000069
C49	C	-0.328653	1.409685	0.123663
C50	C	-0.410488	1.427236	-0.000075
C51	C	-0.441793	1.446072	-0.123807
C52	C	-0.422568	1.466195	-0.247534
C53	C	-0.372039	1.467492	-0.247527
C54	C	-0.347878	1.389562	0.247391
C55	C	-0.398407	1.388268	0.247373
C56	C	-0.429712	1.407105	0.123641
C57	C	0.278022	1.419311	-0.000078
C58	C	0.331800	1.420675	-0.000100
N59	N	0.207857	1.374174	0.353590
C60	C	0.184030	1.860355	-0.000041
C61	C	0.197108	1.999339	-0.000052
N62	N	0.173273	1.485527	-0.353671
C63	C	0.186724	1.442204	0.421380
C64	C	0.194409	1.417487	0.578543
H65	H	0.033676	1.474256	-0.224489
H66	H	0.122559	2.034702	-0.000110
Cl67	Cl	0.149873	1.560111	0.331357
Cl68	Cl	0.244574	1.255989	0.443613
H69	H	0.236706	2.038466	-0.000063
H70	H	-0.057988	1.471884	-0.224516
Cl71	Cl	0.280106	1.846285	-0.000073
Cl72	Cl	0.231127	1.299297	0.668561
H73	H	-0.204808	1.487775	-0.348264
Cl74	Cl	-0.310330	1.493772	-0.403084
Cl75	Cl	-0.688340	1.464474	-0.279387
Cl76	Cl	-0.574283	1.467406	-0.279389
Cl77	Cl	-0.661054	1.376546	0.279192
Cl78	Cl	-0.547017	1.379421	0.279215
Cl79	Cl	0.136677	1.603968	0.556315
Cl80	Cl	-0.422566	1.362957	0.402943
Cl81	Cl	-0.156932	1.369720	0.402987
Cl82	Cl	-0.270970	1.366805	0.402985
Cl83	Cl	-0.044591	1.392300	0.279281
H84	H	0.144436	1.821218	-0.000001
Cl85	Cl	-0.308531	1.365870	0.402957
H86	H	0.055601	1.403555	0.224484
Cl87	Cl	-0.347882	1.492805	-0.403089
H88	H	-0.448065	1.481538	-0.348282
