data_functionalizedCrystal
_audit_creation_method	'MofGen! by Chris Wilmer'
_symmetry_space_group_name_H-M	'P1'
_symmetry_Int_Tables_number	1
_symmetry_cell_setting	triclinic
loop_
_symmetry_equiv_pos_as_xyz
  x,y,z
_cell_length_a	15.995300
_cell_length_b	15.995350
_cell_length_c	15.072220
_cell_angle_alpha	89.998899
_cell_angle_beta	89.985917
_cell_angle_gamma	96.517909
loop_
_atom_site_label
_atom_site_type_symbol
_atom_site_fract_x
_atom_site_fract_y
_atom_site_fract_z
O1	O	1.111022	-0.107720	-0.073811
O2	O	1.611022	0.392280	0.426189
O3	O	0.867241	-0.121092	-0.073805
O4	O	1.367241	0.378908	0.426195
O5	O	0.995796	0.007483	-0.073807
O6	O	1.495796	0.507483	0.426193
O7	O	0.982468	-0.236295	-0.073808
O8	O	1.482468	0.263705	0.426192
O9	O	0.995764	0.007476	0.073758
O10	O	1.495764	0.507476	0.573758
O11	O	0.867209	-0.121099	0.073760
O12	O	1.367209	0.378901	0.573760
O13	O	1.110990	-0.107727	0.073755
O14	O	1.610990	0.392273	0.573755
Zn15	Zn	0.989095	-0.114414	0.097187
Zn16	Zn	1.489095	0.385586	0.597187
Zn17	Zn	0.989137	-0.114405	-0.097237
Zn18	Zn	1.489137	0.385595	0.402763
O19	O	0.982436	-0.236302	0.073757
O20	O	1.482436	0.263698	0.573757
C21	C	0.836030	-0.120550	-0.000021
C22	C	1.336030	0.379450	0.499979
C23	C	0.743077	-0.118915	-0.000019
C24	C	1.243077	0.381085	0.499981
C25	C	0.572894	-0.115896	-0.000026
C26	C	1.072894	0.384104	0.499974
C27	C	0.525428	-0.207443	-0.000025
C28	C	1.025428	0.292557	0.499975
C29	C	0.428741	-0.205773	-0.000362
C30	C	0.928741	0.294227	0.499638
C31	C	0.405337	-0.112924	-0.000032
C32	C	0.905337	0.387076	0.499968
C33	C	0.446488	-0.067500	-0.084132
C34	C	0.946488	0.432500	0.415868
C35	C	0.543122	-0.069816	-0.084201
C36	C	1.043122	0.430184	0.415799
C37	C	0.543365	-0.068469	0.083614
C38	C	1.043365	0.431531	0.583614
C39	C	0.446420	-0.068477	0.084717
C40	C	0.946420	0.431523	0.584717
C41	C	0.310642	-0.111239	-0.000038
C42	C	0.810642	0.388761	0.499962
C43	C	0.667590	-0.117577	-0.000026
C44	C	1.167590	0.382423	0.499974
C45	C	0.995229	0.038674	-0.000026
C46	C	1.495229	0.538674	0.499974
C47	C	0.993577	0.131624	-0.000031
C48	C	1.493577	0.631624	0.499969
C49	C	1.142202	-0.108269	-0.000031
C50	C	1.642202	0.391731	0.499969
C51	C	1.235154	-0.109904	-0.000039
C52	C	1.735154	0.390096	0.499961
C53	C	0.983003	-0.267493	-0.000026
C54	C	1.483003	0.232507	0.499974
C55	C	0.984655	-0.360443	-0.000027
C56	C	1.484655	0.139557	0.499973
N57	N	0.989072	-0.114420	0.229875
N58	N	1.489072	0.385580	0.729875
C59	C	0.987644	0.469370	-0.000028
C60	C	1.487644	0.969370	0.499972
C61	C	0.896090	0.421920	-0.000357
C62	C	1.396090	0.921920	0.499643
C63	C	0.897743	0.325230	-0.000024
C64	C	1.397743	0.825230	0.499976
C65	C	0.990587	0.301810	-0.000030
C66	C	1.490587	0.801810	0.499970
C67	C	1.035727	0.342892	0.084234
C68	C	1.535727	0.842892	0.584234
C69	C	1.033427	0.439527	0.084305
C70	C	1.533427	0.939527	0.584305
C71	C	1.035354	0.439894	-0.083504
C72	C	1.535354	0.939894	0.416496
C73	C	1.035333	0.342948	-0.084618
C74	C	1.535333	0.842948	0.415382
C75	C	0.992255	0.207113	-0.000028
C76	C	1.492255	0.707113	0.499972
C77	C	0.985979	0.564068	-0.000024
C78	C	1.485979	1.064068	0.499976
N79	N	0.989166	-0.114392	-0.229926
N80	N	1.489166	0.385608	0.270074
C81	C	0.989135	-0.114402	0.589077
C82	C	1.489135	0.385598	1.089077
C83	C	0.920117	-0.182969	0.551471
C84	C	1.420117	0.317031	1.051471
C85	C	0.920275	-0.183219	0.448645
C86	C	1.420275	0.316781	0.948645
C87	C	0.989103	-0.114411	0.410873
C88	C	1.489103	0.385589	0.910873
C89	C	1.076470	-0.133477	0.448162
C90	C	1.576470	0.366523	0.948162
C91	C	1.076083	-0.133964	0.551020
C92	C	1.576083	0.366036	1.051020
C93	C	0.971565	-0.026565	0.551178
C94	C	1.471565	0.473435	1.051178
C95	C	0.969560	-0.027152	0.448315
C96	C	1.469560	0.472848	0.948315
C97	C	0.989091	-0.114415	0.310160
C98	C	1.489091	0.385585	0.810160
C99	C	0.989153	-0.114400	0.689790
C100	C	1.489153	0.385600	1.189790
H101	H	0.575396	-0.002592	-0.087794
H102	H	1.075396	0.497408	0.412206
O103	O	1.031830	0.043597	0.414264
O104	O	1.531830	0.543597	0.914264
H105	H	0.997830	0.088970	0.376747
H106	H	1.497830	0.588970	0.876747
H107	H	0.543906	-0.244237	0.060275
H108	H	1.043906	0.255763	0.560275
O109	O	0.426069	0.021182	0.091766
O110	O	0.926069	0.521182	0.591766
H111	H	0.485350	0.064598	0.091098
H112	H	0.985350	0.564598	0.591098
O113	O	0.847617	0.446472	-0.080384
O114	O	1.347617	0.946472	0.419616
H115	H	0.888257	0.492761	-0.120781
H116	H	1.388257	0.992761	0.379219
O117	O	0.585471	0.020934	0.084706
O118	O	1.085471	0.520934	0.584706
H119	H	0.627232	0.031579	0.026001
H120	H	1.127232	0.531579	0.526001
H121	H	1.002330	0.315697	-0.146954
H122	H	1.502330	0.815697	0.353046
O123	O	0.410187	-0.112412	0.167136
O124	O	0.910187	0.387588	0.667136
H125	H	0.439544	-0.080628	0.226737
H126	H	0.939544	0.419372	0.726737
O127	O	1.038223	0.041032	0.583394
O128	O	1.538223	0.541032	1.083394
H129	H	1.083652	0.012264	0.626190
H130	H	1.583652	0.512264	1.126190
H131	H	0.861994	0.297356	0.060485
H132	H	1.361994	0.797356	0.560485
O133	O	0.551402	-0.255442	-0.079802
O134	O	1.051402	0.244558	0.420198
H135	H	0.620260	-0.259024	-0.077453
H136	H	1.120260	0.240976	0.422547
O137	O	1.122459	0.482262	0.089396
O138	O	1.622459	0.982262	0.589396
H139	H	1.121484	0.551537	0.089486
H140	H	1.621484	1.051537	0.589486
H141	H	0.931182	-0.247784	0.577309
H142	H	1.431182	0.252216	1.077309
H143	H	0.400906	-0.241306	-0.061000
H144	H	0.900906	0.258694	0.439000
H145	H	0.931495	-0.248401	0.424031
H146	H	1.431495	0.251599	0.924031
O147	O	1.097466	-0.217366	0.414038
O148	O	1.597466	0.282634	0.914038
H149	H	1.157011	-0.208076	0.375627
H150	H	1.657011	0.291924	0.875627
H151	H	0.432389	0.000724	-0.087023
H152	H	0.932389	0.500724	0.412977
O153	O	0.408952	-0.108768	-0.167356
O154	O	0.908952	0.391232	0.332644
H155	H	0.360999	-0.161622	-0.149034
H156	H	0.860999	0.338378	0.350966
H157	H	1.091566	-0.198022	0.575000
H158	H	1.591566	0.301978	1.075000
H159	H	1.103936	0.328778	0.087364
H160	H	1.603936	0.828778	0.587364
O161	O	0.567416	-0.113179	-0.167782
O162	O	1.067416	0.386821	0.332218
H163	H	0.510169	-0.132303	-0.207770
H164	H	1.010169	0.367697	0.292230
H165	H	1.103040	0.327599	-0.089710
H166	H	1.603040	0.827599	0.410290
H167	H	1.102857	0.471667	-0.084075
H168	H	1.602857	0.971667	0.415925
H169	H	0.862259	0.296804	-0.060428
H170	H	1.362259	0.796804	0.439572
O171	O	0.847811	0.447843	0.079247
O172	O	1.347811	0.947843	0.579247
H173	H	0.888740	0.494374	0.119046
H174	H	1.388740	0.994374	0.619046
H175	H	1.000484	0.457820	0.147298
H176	H	1.500484	0.957820	0.647298
O177	O	0.994173	0.305292	0.167309
O178	O	1.494173	0.805292	0.667309
H179	H	0.941378	0.257358	0.148795
H180	H	1.441378	0.757358	0.648795
H181	H	1.005434	0.460431	-0.147372
H182	H	1.505434	0.960431	0.352628
H183	H	0.400264	-0.241465	0.059911
H184	H	0.900264	0.258535	0.559911
O185	O	0.834251	-0.168193	0.415241
O186	O	1.334251	0.331807	0.915241
H187	H	0.792161	-0.160685	0.472554
H188	H	1.292161	0.339315	0.972554
O189	O	0.570488	-0.108396	0.168083
O190	O	1.070488	0.391604	0.668083
H191	H	0.605322	-0.162495	0.151389
H192	H	1.105322	0.337505	0.651389
O193	O	0.833812	-0.168193	0.584282
O194	O	1.333812	0.331807	1.084282
H195	H	0.839183	-0.111824	0.627747
H196	H	1.339183	0.388176	1.127747
O197	O	1.146158	-0.070337	0.583980
O198	O	1.646158	0.429663	1.083980
H199	H	1.180176	-0.039361	0.526451
H200	H	1.680176	0.460639	1.026451
O201	O	1.146134	-0.069090	0.415754
O202	O	1.646134	0.430910	0.915754
H203	H	1.119162	-0.022710	0.372619
H204	H	1.619162	0.477290	0.872619
H205	H	0.909241	-0.008228	0.577170
H206	H	1.409241	0.491772	1.077170
H207	H	0.905292	-0.012682	0.423944
H208	H	1.405292	0.487318	0.923944
