data_functionalizedCrystal
_audit_creation_method	'MofGen! by Chris Wilmer'
_symmetry_space_group_name_H-M	'P1'
_symmetry_Int_Tables_number	1
_symmetry_cell_setting	triclinic
loop_
_symmetry_equiv_pos_as_xyz
  x,y,z
_cell_length_a	6.817900
_cell_length_b	17.110477
_cell_length_c	17.110486
_cell_angle_alpha	96.939211
_cell_angle_beta	99.060439
_cell_angle_gamma	99.060298
loop_
_atom_site_label
_atom_site_type_symbol
_atom_site_fract_x
_atom_site_fract_y
_atom_site_fract_z
V1	V	-3.954938	-0.109247	-0.246618
O2	O	-3.966477	0.005492	-0.242029
O3	O	-3.885154	-0.216852	-0.244831
O4	O	-3.885155	-0.107460	-0.354223
O5	O	-3.966476	-0.104657	-0.131879
V6	V	-4.444108	-0.095536	-0.232907
O7	O	-4.203810	-0.139325	-0.276696
O8	O	-4.645433	-0.065458	-0.202830
O9	O	-4.290685	0.012069	-0.234695
O10	O	-4.549965	-0.210275	-0.237496
O11	O	-4.549966	-0.100126	-0.347646
O12	O	-4.290684	-0.097322	-0.125302
C13	C	-3.725645	-0.243087	-0.240914
C14	C	-3.749732	-0.331054	-0.240170
C15	C	-3.725645	-0.103546	-0.380454
C16	C	-3.749732	-0.102797	-0.468421
C17	C	-3.941549	-0.376408	-0.243763
C18	C	-3.964171	-0.459064	-0.243069
C19	C	-3.794973	-0.496363	-0.238775
C20	C	-3.603142	-0.451003	-0.235183
C21	C	-3.580524	-0.368350	-0.235884
C22	C	-3.854236	-0.745721	-0.236467
C23	C	-3.876869	-0.828379	-0.235765
C24	C	-4.237899	-0.836434	-0.243652
C25	C	-4.215261	-0.753779	-0.244347
C26	C	-4.023435	-0.708427	-0.240760
C27	C	-3.818092	-0.580849	-0.238062
C28	C	-4.000321	-0.623943	-0.241478
C29	C	-3.941550	-0.106395	-0.513775
C30	C	-3.964170	-0.105690	-0.596429
C31	C	-3.794972	-0.101394	-0.633728
C32	C	-3.603137	-0.097794	-0.588367
C33	C	-3.580518	-0.098493	-0.505714
C34	C	-3.854235	-0.099083	-0.883085
C35	C	-3.876871	-0.098387	-0.965745
C36	C	-4.237903	-0.106281	-0.973801
C37	C	-4.215268	-0.106984	-0.891147
C38	C	-4.023435	-0.103380	-0.845792
C39	C	-3.818089	-0.100677	-0.718214
C40	C	-4.000318	-0.104092	-0.761307
C41	C	-4.113536	0.038300	-0.238609
C42	C	-4.068686	0.126267	-0.239358
C43	C	-4.113536	-0.101239	-0.099067
C44	C	-4.068689	-0.101984	-0.011099
H45	H	-4.079330	-0.346045	-0.247252
Cl46	Cl	-3.390435	-0.497894	-0.229790
H47	H	-4.120364	-0.108615	-0.633353
H48	H	-3.698046	-0.096176	-0.846172
Cl49	Cl	-4.205321	-0.516077	-0.247585
H50	H	-3.465373	-0.094292	-0.618742
Cl51	Cl	-3.613083	-0.688717	-0.231951
Cl52	Cl	-3.339374	-0.311334	-0.231370
Cl53	Cl	-4.213019	-0.577052	-0.246880
Cl54	Cl	-4.427988	-0.112388	-0.844264
Cl55	Cl	-3.664149	-0.875270	-0.230378
Cl56	Cl	-3.605396	-0.095289	-0.765113
Cl57	Cl	-4.154275	-0.111801	-0.466895
Cl58	Cl	-3.605394	-0.627746	-0.232660
Cl59	Cl	-4.479050	-0.110808	-1.030822
H60	H	-3.739078	-0.094886	-0.996110
Cl61	Cl	-3.339363	-0.093963	-0.448695
H62	H	-4.353047	-0.723417	-0.247849
Cl63	Cl	-4.479040	-0.893452	-0.248163
H64	H	-4.138076	-0.107587	-0.730935
