data_functionalizedCrystal
_audit_creation_method	'MofGen! by Chris Wilmer'
_symmetry_space_group_name_H-M	'P1'
_symmetry_Int_Tables_number	1
_symmetry_cell_setting	triclinic
loop_
_symmetry_equiv_pos_as_xyz
  x,y,z
_cell_length_a	11.026607
_cell_length_b	10.654550
_cell_length_c	9.730223
_cell_angle_alpha	90.000193
_cell_angle_beta	89.999798
_cell_angle_gamma	83.464540
loop_
_atom_site_label
_atom_site_type_symbol
_atom_site_fract_x
_atom_site_fract_y
_atom_site_fract_z
O1	O	1.614591	-0.526872	-0.114287
O2	O	1.260779	-0.466877	-0.114290
O3	O	1.445820	-0.315901	-0.114283
O4	O	1.429550	-0.677848	-0.114294
O5	O	1.445818	-0.315905	0.114297
O6	O	1.260777	-0.466881	0.114290
O7	O	1.614588	-0.526877	0.114292
Zn8	Zn	1.437683	-0.496880	0.150583
Zn9	Zn	1.437685	-0.496874	-0.150580
O10	O	1.429548	-0.677852	0.114286
C11	C	1.215474	-0.455811	0.000000
C12	C	1.080483	-0.422816	-0.000001
C13	C	1.444624	-0.268846	0.000005
C14	C	1.441050	-0.128627	0.000000
N15	N	1.437689	-0.496885	0.356120
C16	C	1.007444	-0.513920	-0.000004
C17	C	0.867922	-0.479820	-0.000005
C18	C	1.659893	-0.537943	-0.000000
C19	C	1.794885	-0.570937	-0.000008
C20	C	1.430744	-0.724907	-0.000005
C21	C	1.434318	-0.865126	-0.000009
C22	C	1.549999	-0.072791	0.000005
C23	C	1.546633	0.058961	-0.000005
C24	C	1.325361	0.079029	-0.000018
C25	C	1.328727	-0.052720	-0.000018
C26	C	1.677749	-0.084376	0.000019
C27	C	1.674383	0.047376	0.000009
N28	N	1.437688	-0.496861	-0.356117
C29	C	1.519647	-0.430066	0.428049
C30	C	1.519643	-0.430050	0.571932
C31	C	1.355722	-0.563681	0.571944
C32	C	1.355720	-0.563689	0.428064
C33	C	1.614289	-0.352920	0.428042
C34	C	1.614286	-0.352904	0.571925
H35	H	1.048204	-0.617161	0.000001
C36	C	1.574734	-0.222678	0.631224
C37	C	1.456290	-0.180914	0.586558
C38	C	1.419832	-0.060948	0.641135
H39	H	1.575984	-0.226982	0.728731
H40	H	1.629094	-0.165317	0.601013
H41	H	1.401944	-0.238261	0.616778
H42	H	1.455009	-0.176581	0.489060
H43	H	1.474192	-0.003587	0.610923
H44	H	1.421089	-0.065263	0.738639
H45	H	1.339469	-0.032591	0.610827
C46	C	1.026216	-0.285128	0.000283
C47	C	1.065123	-0.225438	0.117900
C48	C	1.015148	-0.098602	0.118216
H49	H	1.052470	-0.244257	-0.079334
H50	H	0.939658	-0.280453	0.000357
H51	H	1.151662	-0.230106	0.117814
H52	H	1.038869	-0.266271	0.197536
H53	H	0.928590	-0.093927	0.118290
H54	H	1.041406	-0.057744	0.038594
H55	H	1.041530	-0.058090	0.198023
H56	H	1.233911	0.140848	-0.000034
H57	H	0.835638	-0.674186	-0.000002
C58	C	1.744349	-0.137746	-0.127641
C59	C	1.781723	-0.038677	-0.205730
C60	C	1.843060	-0.087792	-0.323345
H61	H	1.813790	-0.193564	-0.101247
H62	H	1.691147	-0.182432	-0.180865
H63	H	1.834922	0.005989	-0.152517
H64	H	1.712305	0.017149	-0.232160
H65	H	1.789858	-0.132478	-0.376569
H66	H	1.912496	-0.143609	-0.296938
H67	H	1.868416	-0.020581	-0.376350
C68	C	1.731980	-0.419473	0.368740
C69	C	1.747370	-0.545189	0.413438
C70	C	1.855780	-0.606543	0.358864
H71	H	1.728070	-0.417351	0.271234
H72	H	1.798997	-0.377942	0.398930
H73	H	1.680370	-0.586708	0.383240
H74	H	1.751302	-0.547348	0.510937
H75	H	1.922798	-0.565013	0.389054
H76	H	1.851861	-0.604412	0.261359
H77	H	1.866243	-0.691844	0.389193
C78	C	1.731737	-0.143406	0.131858
C79	C	1.764132	-0.048219	0.219169
C80	C	1.813725	-0.102537	0.340704
H81	H	1.673002	-0.188147	0.176099
H82	H	1.802160	-0.200068	0.110830
H83	H	1.693719	0.008422	0.240199
H84	H	1.822879	-0.003470	0.174971
H85	H	1.884148	-0.159200	0.319676
H86	H	1.754983	-0.147278	0.384933
H87	H	1.835721	-0.037963	0.399954
C88	C	1.266675	-0.636352	0.350217
C89	C	1.194916	-0.694879	0.444022
C90	C	1.112881	-0.761841	0.372360
H91	H	1.215579	-0.579736	0.294083
H92	H	1.310807	-0.698714	0.294120
H93	H	1.150787	-0.632525	0.500095
H94	H	1.245979	-0.751516	0.500159
H95	H	1.157014	-0.824203	0.316264
H96	H	1.061793	-0.705216	0.316229
H97	H	1.064191	-0.801569	0.435996
H98	H	0.827168	-0.376572	-0.000037
H99	H	1.722517	0.078685	0.095668
C100	C	1.266675	-0.635999	0.650237
C101	C	1.191715	-0.552098	0.732855
C102	C	1.109680	-0.618676	0.805009
H103	H	1.217745	-0.675806	0.586948
H104	H	1.310812	-0.698260	0.706452
H105	H	1.147581	-0.489860	0.676645
H106	H	1.240610	-0.512288	0.796169
H107	H	1.153817	-0.680936	0.861223
H108	H	1.060759	-0.658480	0.741710
H109	H	1.058817	-0.561761	0.861083
H110	H	1.240011	-0.098176	-0.000041
H111	H	1.712992	0.084640	-0.098685
H112	H	1.593531	-0.251881	0.388991
H113	H	1.707716	-0.394703	0.610976
