data_functionalizedCrystal
_audit_creation_method	'MofGen! by Chris Wilmer'
_symmetry_space_group_name_H-M	'P1'
_symmetry_Int_Tables_number	1
_symmetry_cell_setting	triclinic
loop_
_symmetry_equiv_pos_as_xyz
  x,y,z
_cell_length_a	10.654543
_cell_length_b	9.565339
_cell_length_c	10.654550
_cell_angle_alpha	89.999615
_cell_angle_beta	95.516448
_cell_angle_gamma	90.001072
loop_
_atom_site_label
_atom_site_type_symbol
_atom_site_fract_x
_atom_site_fract_y
_atom_site_fract_z
O1	O	-1.667845	0.116109	0.176350
O2	O	-1.302366	0.116145	0.193165
O3	O	-1.493509	0.116117	0.002018
O4	O	-1.476703	0.116137	0.367497
O5	O	-1.493493	-0.116403	0.002030
O6	O	-1.302351	-0.116375	0.193177
O7	O	-1.667830	-0.116411	0.176362
Zn8	Zn	-1.485088	-0.153311	0.184771
Zn9	Zn	-1.485108	0.153045	0.184755
O10	O	-1.476687	-0.116383	0.367509
C11	C	-1.255560	-0.000111	0.191938
C12	C	-1.116116	-0.000097	0.188249
N13	N	-1.485084	-0.362390	0.184781
C14	C	-1.036631	-0.000093	0.300793
C15	C	-0.905609	-0.000114	0.297319
C16	C	-0.933573	-0.000137	0.068749
C17	C	-1.064591	-0.000126	0.072224
C18	C	-1.396659	-0.453580	0.273150
C19	C	-1.510363	-0.546769	0.298506
C20	C	-1.371429	-0.546757	0.159435
C21	C	-1.598845	-0.453527	0.210193
C22	C	-1.459836	-0.453506	0.071073
C23	C	-1.573621	-0.546653	0.096381
C24	C	-0.714635	-0.000145	0.177595
C25	C	-0.854077	-0.000129	0.181301
C26	C	-1.492267	-0.000142	-0.044774
C27	C	-1.488575	-0.000139	-0.184217
N28	N	-1.485122	0.362124	0.184735
C29	C	-1.601117	-0.000150	-0.263706
C30	C	-1.597641	-0.000132	-0.394726
C31	C	-1.369070	-0.000100	-0.366758
C32	C	-1.372548	-0.000107	-0.235740
C33	C	-1.477929	-0.000121	0.414301
C34	C	-1.481621	-0.000114	0.553744
H35	H	-1.078578	-0.000080	0.395268
H36	H	-1.694999	-0.412747	0.231726
H37	H	-1.129313	-0.000133	-0.019428
H38	H	-1.321951	-0.412715	0.347951
Cl39	Cl	-1.543377	-0.610019	0.446936
Cl40	Cl	-0.805689	-0.000111	0.438810
Cl41	Cl	-0.868788	-0.000164	-0.077103
H42	H	-1.648498	-0.587262	0.021627
H43	H	-1.438419	-0.412509	-0.025037
Cl44	Cl	-1.223011	-0.609987	0.126365
Cl45	Cl	-1.746979	-0.000186	-0.198939
H46	H	-1.689284	-0.000138	-0.459441
H47	H	-1.274605	-0.000076	-0.408724
Cl48	Cl	-1.231055	-0.000082	-0.135803
