data_functionalizedCrystal
_audit_creation_method	'MofGen! by Chris Wilmer'
_symmetry_space_group_name_H-M	'P1'
_symmetry_Int_Tables_number	1
_symmetry_cell_setting	triclinic
loop_
_symmetry_equiv_pos_as_xyz
  x,y,z
_cell_length_a	11.026607
_cell_length_b	22.010155
_cell_length_c	11.026607
_cell_angle_alpha	89.992657
_cell_angle_beta	108.586017
_cell_angle_gamma	90.009689
loop_
_atom_site_label
_atom_site_type_symbol
_atom_site_fract_x
_atom_site_fract_y
_atom_site_fract_z
O1	O	1.726739	0.050524	0.533608
O2	O	1.360159	0.050525	0.472844
O3	O	1.513067	0.050522	0.319936
O4	O	1.573831	0.050526	0.686516
O5	O	1.513038	-0.050528	0.319958
O6	O	1.360130	-0.050526	0.472866
O7	O	1.726710	-0.050527	0.533629
Cu8	Cu	1.543417	-0.059753	0.503250
Cu9	Cu	1.543452	0.059751	0.503224
O10	O	1.573802	-0.050524	0.686538
C11	C	1.312485	-0.000000	0.461645
C12	C	1.170471	-0.000000	0.428228
C13	C	1.116821	0.000001	0.520498
C14	C	0.970043	0.000002	0.485962
N15	N	1.543402	-0.143805	0.503269
C16	C	1.611167	-0.563586	0.435530
C17	C	1.611171	-0.627194	0.435522
O18	O	1.668740	-0.660086	0.377933
N19	N	1.543445	-0.659013	0.503197
C20	C	1.475700	-0.627221	0.570874
O21	O	1.418093	-0.660126	0.628435
C22	C	1.475689	-0.563614	0.570873
C23	C	1.543430	-0.531798	0.503204
C24	C	1.678901	-0.531770	0.367865
C25	C	1.678899	-0.468167	0.367875
C26	C	1.611162	-0.436380	0.435549
C27	C	1.543428	-0.468195	0.503214
C28	C	1.407938	-0.531823	0.638541
C29	C	1.407932	-0.468213	0.638533
C30	C	1.475673	-0.436397	0.570865
C31	C	1.475689	-0.372805	0.570897
N32	N	1.543415	-0.340986	0.503223
C33	C	1.611152	-0.372773	0.435548
C34	C	1.475726	-0.760798	0.570868
C35	C	1.475743	-0.824404	0.570877
C36	C	1.611212	-0.824372	0.435524
C37	C	1.611202	-0.760766	0.435523
C38	C	1.543452	-0.728979	0.503193
C39	C	1.611143	-0.239202	0.435575
C40	C	1.611139	-0.175593	0.435595
C41	C	1.475664	-0.175630	0.570942
C42	C	1.475673	-0.239233	0.570928
C43	C	1.543415	-0.271018	0.503235
O44	O	1.418145	-0.339872	0.628453
O45	O	1.668735	-0.339860	0.377983
C46	C	1.774384	-0.000000	0.544828
C47	C	1.916398	0.000003	0.578245
C48	C	1.501843	-0.000002	0.272287
C49	C	1.468426	-0.000000	0.130273
N50	N	1.543475	0.143803	0.503197
C51	C	1.560695	0.000000	0.076624
C52	C	1.526160	0.000003	-0.070155
C53	C	1.585026	0.000002	0.734187
C54	C	1.618443	0.000003	0.876200
H55	H	0.979125	0.000000	0.682816
H56	H	1.666365	-0.850265	0.380418
O57	O	1.409837	-0.855211	0.636643
C58	C	1.350085	-0.813507	0.696398
H59	H	1.337240	-0.768164	0.643836
H60	H	1.252552	-0.831890	0.693549
H61	H	1.412140	-0.806745	0.800127
H62	H	0.907314	0.000016	0.381393
O63	O	1.401453	0.000086	-0.145112
C64	C	1.376647	0.052431	-0.222884
H65	H	1.469918	0.069879	-0.233911
H66	H	1.306940	0.040663	-0.321073
H67	H	1.333026	0.089076	-0.176560
H68	H	1.179555	-0.000001	0.625061
O69	O	1.343614	0.000029	0.055632
C70	C	1.264527	0.000011	0.134014
H71	H	1.319865	0.019139	0.232145
H72	H	1.176617	0.029351	0.088245
H73	H	1.233147	-0.048468	0.145031
O74	O	1.095589	0.000107	0.303501
C75	C	1.017787	0.052434	0.278685
H76	H	1.063861	0.089013	0.352105
H77	H	1.007150	0.070001	0.178556
H78	H	0.919441	0.040602	0.285326
H79	H	1.666306	-0.149690	0.380492
O80	O	1.677057	-0.269977	0.369796
C81	C	1.736804	-0.228246	0.310055
H82	H	1.749644	-0.182912	0.362634
H83	H	1.834338	-0.246607	0.312896
H84	H	1.674747	-0.221473	0.206330
H85	H	1.734055	-0.442266	0.312769
H86	H	1.666361	-0.734865	0.380421
O87	O	1.744823	-0.562548	0.302104
C88	C	1.804567	-0.520815	0.242364
H89	H	1.817387	-0.475479	0.294933
H90	H	1.902110	-0.539171	0.245219
H91	H	1.742517	-0.514049	0.138633
O92	O	1.342100	-0.437431	0.704388
C93	C	1.282293	-0.479157	0.764079
H94	H	1.334863	-0.524492	0.776953
H95	H	1.285071	-0.460792	0.861593
H96	H	1.178586	-0.485927	0.701963
H97	H	1.420527	-0.265138	0.626045
O98	O	1.410113	-0.729857	0.636719
C99	C	1.495535	-0.693076	0.730310
H100	H	1.584165	-0.683526	0.701389
H101	H	1.446734	-0.648358	0.738839
H102	H	1.524778	-0.717600	0.826381
H103	H	1.352776	-0.557719	0.693642
H104	H	1.420518	-0.149739	0.626046
O105	O	1.685377	-0.000028	0.151640
C106	C	1.692102	-0.000013	0.281491
H107	H	1.599413	-0.019143	0.290846
H108	H	1.776005	-0.029352	0.338793
H109	H	1.706327	0.048466	0.319835
O110	O	1.743151	0.000084	-0.048846
C111	C	1.767994	0.052426	0.028916
H112	H	1.674737	0.069874	0.039946
H113	H	1.837698	0.040655	0.127105
H114	H	1.811635	0.089073	-0.017418
