data_functionalizedCrystal
_audit_creation_method	'MofGen! by Chris Wilmer'
_symmetry_space_group_name_H-M	'P1'
_symmetry_Int_Tables_number	1
_symmetry_cell_setting	triclinic
loop_
_symmetry_equiv_pos_as_xyz
  x,y,z
_cell_length_a	10.723024
_cell_length_b	15.944493
_cell_length_c	9.198806
_cell_angle_alpha	90.002690
_cell_angle_beta	89.996352
_cell_angle_gamma	83.971457
loop_
_atom_site_label
_atom_site_type_symbol
_atom_site_fract_x
_atom_site_fract_y
_atom_site_fract_z
O1	O	1.655663	0.117811	-0.120862
O2	O	2.155663	0.617811	0.379138
O3	O	1.292365	0.129088	-0.120865
O4	O	1.792365	0.629088	0.379135
O5	O	1.483972	0.001228	-0.120876
O6	O	1.983972	0.501228	0.379124
O7	O	1.464055	0.245671	-0.120852
O8	O	1.964055	0.745671	0.379148
O9	O	1.483957	0.001228	0.120909
O10	O	1.983957	0.501228	0.620909
O11	O	1.292349	0.129088	0.120920
O12	O	1.792349	0.629088	0.620920
O13	O	1.655648	0.117811	0.120923
O14	O	2.155648	0.617811	0.620923
Cu15	Cu	1.473997	0.123449	0.142998
Cu16	Cu	1.973997	0.623449	0.642998
Cu17	Cu	1.474015	0.123450	-0.142941
Cu18	Cu	1.974015	0.623450	0.357059
O19	O	1.464040	0.245670	0.120933
O20	O	1.964040	0.745670	0.620933
C21	C	1.245868	0.128267	0.000027
C22	C	1.745868	0.628267	0.500027
C23	C	1.107346	0.125812	0.000025
C24	C	1.607346	0.625812	0.500025
C25	C	0.916575	0.049543	0.000014
C26	C	1.416575	0.549543	0.500014
C27	C	1.059746	0.052079	0.000017
C28	C	1.559746	0.552079	0.500017
C29	C	1.483151	-0.030071	0.000011
C30	C	1.983151	0.469929	0.500011
C31	C	1.480710	-0.123334	-0.000008
C32	C	1.980710	0.376666	0.499992
C33	C	1.593495	-0.358448	0.000021
C34	C	2.093495	0.141552	0.500021
C35	C	1.532682	-0.409364	-0.119192
C36	C	2.032682	0.090636	0.380808
C37	C	1.476188	-0.294081	0.000010
C38	C	1.976188	0.205919	0.500010
C39	C	1.532640	-0.409341	0.119189
C40	C	2.032640	0.090659	0.619189
C41	C	1.471829	-0.459015	0.000033
C42	C	1.971829	0.040985	0.500033
C43	C	1.415407	-0.343768	-0.119301
C44	C	1.915407	0.156232	0.380699
C45	C	1.415381	-0.343741	0.119187
C46	C	1.915381	0.156259	0.619187
C47	C	1.354482	-0.394625	-0.000054
C48	C	1.854482	0.105375	0.499946
C49	C	1.478703	-0.199066	-0.000005
C50	C	1.978703	0.300934	0.499995
C51	C	1.469305	-0.554027	0.000038
C52	C	1.969305	-0.054027	0.500038
C53	C	1.702144	0.118632	0.000028
C54	C	2.202144	0.618632	0.500028
C55	C	1.840667	0.121087	0.000020
C56	C	2.340667	0.621087	0.500020
C57	C	1.464862	0.276970	0.000044
C58	C	1.964862	0.776970	0.500044
C59	C	1.467302	0.370233	0.000053
C60	C	1.967302	0.870233	0.500053
N61	N	1.473994	0.123448	0.344112
N62	N	1.973994	0.623448	0.844112
N63	N	1.474029	0.123444	-0.344055
N64	N	1.974029	0.623444	0.155945
C65	C	1.554447	0.069527	0.416305
C66	C	2.054447	0.569527	0.916305
C67	C	1.554467	0.069524	0.583717
C68	C	2.054467	0.569524	1.083717
H69	H	1.042128	0.187062	0.000024
H70	H	1.542128	0.687062	0.500024
H71	H	1.582228	-0.438026	-0.219978
H72	H	2.082228	0.061974	0.280022
F73	F	0.862986	-0.032973	0.000015
F74	F	1.362986	0.467027	0.500015
F75	F	1.383997	0.183792	0.574812
F76	F	1.883997	0.683792	1.074812
H77	H	1.405124	0.169607	0.406244
H78	H	1.905124	0.669607	0.906244
F79	F	1.644240	0.009039	0.335100
F80	F	2.144240	0.509039	0.835100
H81	H	1.694540	-0.342241	-0.000098
H82	H	2.194540	0.157759	0.499902
H83	H	0.881672	0.184215	0.000036
H84	H	1.381672	0.684215	0.500036
H85	H	1.365901	-0.315232	-0.220193
H86	H	1.865901	0.184768	0.279807
F87	F	1.222308	-0.415600	-0.000136
F88	F	1.722308	0.084400	0.499864
F89	F	1.144996	-0.027978	-0.000001
F90	F	1.644996	0.472022	0.499999
H91	H	1.623351	0.023363	0.645800
H92	H	2.123351	0.523363	1.145800
F93	F	1.597413	-0.446783	0.250916
F94	F	2.097413	0.053217	0.750916
H95	H	1.365877	-0.315064	0.219977
H96	H	1.865877	0.184936	0.719977
