data_functionalizedCrystal
_audit_creation_method	'MofGen! by Chris Wilmer'
_symmetry_space_group_name_H-M	'P1'
_symmetry_Int_Tables_number	1
_symmetry_cell_setting	triclinic
loop_
_symmetry_equiv_pos_as_xyz
  x,y,z
_cell_length_a	15.625950
_cell_length_b	17.699083
_cell_length_c	16.176319
_cell_angle_alpha	90.005533
_cell_angle_beta	71.930347
_cell_angle_gamma	96.211973
loop_
_atom_site_label
_atom_site_type_symbol
_atom_site_fract_x
_atom_site_fract_y
_atom_site_fract_z
O1	O	1.195846	-0.098930	-0.289623
O2	O	1.695846	0.401070	0.210377
O3	O	0.933378	-0.110673	-0.210965
O4	O	1.433378	0.389327	0.289035
O5	O	1.072027	0.005367	-0.252523
O6	O	1.572027	0.505367	0.247477
O7	O	1.057197	-0.214971	-0.248064
O8	O	1.557197	0.285029	0.251936
O9	O	1.072014	0.005346	-0.390013
O10	O	1.572014	0.505346	0.109987
O11	O	0.933364	-0.110694	-0.348454
O12	O	1.433364	0.389306	0.151546
O13	O	1.195833	-0.098951	-0.427112
O14	O	1.695833	0.401049	0.072888
Cu15	Cu	1.064597	-0.104825	-0.400337
Cu16	Cu	1.564597	0.395175	0.099663
Cu17	Cu	1.064613	-0.104800	-0.237740
Cu18	Cu	1.564613	0.395200	0.262260
O19	O	1.057183	-0.214992	-0.385553
O20	O	1.557183	0.285008	0.114447
C21	C	0.899789	-0.110147	-0.269645
C22	C	1.399789	0.389853	0.230355
C23	C	0.799724	-0.108538	-0.239657
C24	C	1.299724	0.391462	0.260343
C25	C	0.470493	-0.103345	-0.515656
C26	C	0.970493	0.396655	-0.015656
C27	C	0.376465	-0.101848	-0.487439
C28	C	0.876465	0.398152	0.012561
C29	C	0.376526	-0.101826	-0.337568
C30	C	0.876526	0.398174	0.162432
C31	C	0.470556	-0.103327	-0.365772
C32	C	0.970556	0.396673	0.134228
C33	C	0.517532	-0.104085	-0.454817
C34	C	1.017532	0.395915	0.045183
C35	C	0.517595	-0.104067	-0.304933
C36	C	1.017595	0.395933	0.195067
C37	C	0.611617	-0.105563	-0.333136
C38	C	1.111617	0.394437	0.166864
C39	C	0.658600	-0.106320	-0.422177
C40	C	1.158600	0.393680	0.077823
C41	C	0.611554	-0.105582	-0.483020
C42	C	1.111554	0.394418	0.016980
C43	C	0.470617	-0.103303	-0.215889
C44	C	0.970617	0.396697	0.284111
C45	C	0.517656	-0.104043	-0.155050
C46	C	1.017656	0.395957	0.344950
C47	C	0.611679	-0.105545	-0.183252
C48	C	1.111679	0.394455	0.316748
C49	C	0.658663	-0.106301	-0.272293
C50	C	1.158663	0.393699	0.227707
C51	C	0.658725	-0.106283	-0.122409
C52	C	1.158725	0.393717	0.377591
C53	C	0.752747	-0.107779	-0.150612
C54	C	1.252747	0.392221	0.349388
C55	C	0.752685	-0.107798	-0.300496
C56	C	1.252685	0.392202	0.199504
C57	C	1.071489	0.033555	-0.321109
C58	C	1.571489	0.533555	0.178891
C59	C	1.069895	0.117578	-0.320631
C60	C	1.569895	0.617578	0.179369
C61	C	1.229422	-0.099478	-0.368430
C62	C	1.729422	0.400522	0.131570
C63	C	1.329487	-0.101087	-0.398413
C64	C	1.829487	0.398913	0.101587
C65	C	1.057721	-0.243180	-0.316966
C66	C	1.557721	0.256820	0.183034
C67	C	1.059316	-0.327202	-0.317438
C68	C	1.559316	0.172798	0.182562
N69	N	1.064593	-0.104842	-0.514701
N70	N	1.564593	0.395158	-0.014701
C71	C	1.151280	0.165979	-0.345023
C72	C	1.651280	0.665979	0.154977
C73	C	1.149776	0.244926	-0.344565
C74	C	1.649776	0.744926	0.155435
C75	C	1.066887	0.275471	-0.319721
C76	C	1.566887	0.775471	0.180279
C77	C	0.985497	0.227064	-0.295326
C78	C	1.485497	0.727064	0.204674
C79	C	0.987001	0.148118	-0.295778
C80	C	1.487001	0.648118	0.204222
C81	C	0.979428	0.545443	-0.293501
C82	C	1.479428	1.045443	0.206499
C83	C	0.977930	0.624395	-0.293053
C84	C	1.477930	1.124395	0.206947
C85	C	1.142203	0.642251	-0.342287
C86	C	1.642203	1.142251	0.157713
C87	C	1.143708	0.563306	-0.342739
C88	C	1.643708	1.063306	0.157261
C89	C	1.062317	0.514905	-0.318340
C90	C	1.562317	1.014905	0.181660
C91	C	1.063949	0.429302	-0.318835
C92	C	1.563949	0.929302	0.181165
C93	C	1.065255	0.361073	-0.319232
C94	C	1.565255	0.861073	0.180768
C95	C	1.010056	-0.058788	-1.063750
C96	C	1.510056	0.441212	-0.563750
C97	C	1.010055	-0.058794	-0.977202
C98	C	1.510055	0.441206	-0.477202
C99	C	1.064617	-0.104793	-0.950283
C100	C	1.564617	0.395207	-0.450283
C101	C	1.119192	-0.150784	-1.009920
C102	C	1.619192	0.349216	-0.509920
C103	C	1.119198	-0.150773	-1.096467
C104	C	1.619198	0.349227	-0.596467
C105	C	1.119169	-0.150826	-0.660885
C106	C	1.619169	0.349174	-0.160885
C107	C	1.119157	-0.150835	-0.574329
C108	C	1.619157	0.349165	-0.074329
C109	C	1.010026	-0.058847	-0.541620
C110	C	1.510026	0.441153	-0.041620
C111	C	1.010032	-0.058837	-0.628167
C112	C	1.510032	0.441163	-0.128167
C113	C	1.064610	-0.104824	-0.687797
C114	C	1.564610	0.395176	-0.187797
C115	C	1.064613	-0.104816	-0.781642
C116	C	1.564613	0.395184	-0.281642
C117	C	1.064610	-0.104806	-0.856439
C118	C	1.564610	0.395194	-0.356439
N119	N	1.064625	-0.104777	-0.123378
N120	N	1.564625	0.395223	0.376622
H121	H	0.649803	-0.106211	-0.555529
H122	H	1.149803	0.393789	-0.055529
H123	H	0.918007	0.251939	-0.275093
H124	H	1.418007	0.751939	0.224907
H125	H	1.163610	-0.188272	-0.709425
H126	H	1.663610	0.311728	-0.209425
O127	O	0.521173	-0.104167	-0.611698
O128	O	1.021173	0.395833	-0.111698
H129	H	0.472671	-0.103399	-0.649270
H130	H	0.972671	0.396601	-0.149270
H131	H	0.394058	-0.102088	-0.192929
H132	H	0.894058	0.397912	0.307071
H133	H	0.910428	0.649261	-0.272823
H134	H	1.410428	1.149261	0.227177
H135	H	0.913155	0.506044	-0.273633
H136	H	1.413155	1.006044	0.226367
O137	O	1.240683	0.133037	-0.371820
O138	O	1.740683	0.633037	0.128180
H139	H	1.245297	0.097496	-0.317167
H140	H	1.745297	0.597496	0.182833
H141	H	1.163591	-0.188295	-0.552417
H142	H	1.663591	0.311705	-0.052417
O143	O	0.760011	-0.107933	-0.452597
O144	O	1.260011	0.392067	0.047403
H145	H	0.784773	-0.108331	-0.524735
H146	H	1.284773	0.391669	-0.024735
H147	H	0.965620	-0.021335	-1.085658
H148	H	1.465620	0.478665	-0.585658
H149	H	1.208475	0.681669	-0.362150
H150	H	1.708475	1.181669	0.137850
H151	H	1.163622	-0.188233	-0.987997
H152	H	1.663622	0.311767	-0.487997
H153	H	0.791047	-0.108386	-0.101071
H154	H	1.291047	0.391614	0.398929
O155	O	0.325724	-0.101057	-0.553061
O156	O	0.825724	0.398943	-0.053061
H157	H	0.374188	-0.101842	-0.619715
H158	H	0.874188	0.398158	-0.119715
O159	O	0.608045	-0.105455	-0.026374
O160	O	1.108045	0.394545	0.473626
H161	H	0.634240	-0.054188	0.001700
H162	H	1.134240	0.445812	0.501700
O163	O	0.325858	-0.101013	-0.241528
O164	O	0.825858	0.398987	0.258472
H165	H	0.252574	-0.099853	-0.232136
H166	H	0.752574	0.400147	0.267864
H167	H	0.479396	-0.103422	-0.082549
H168	H	0.979396	0.396578	0.417451
H169	H	0.965599	-0.021383	-0.650078
H170	H	1.465599	0.478617	-0.150078
O171	O	1.178049	-0.200378	-1.160786
O172	O	1.678049	0.299622	-0.660786
H173	H	1.215982	-0.232372	-1.127527
H174	H	1.715982	0.267628	-0.627527
H175	H	0.790934	-0.108427	-0.373005
H176	H	1.290934	0.391573	0.126995
O177	O	1.233108	0.530358	-0.369522
O178	O	1.733108	1.030358	0.130478
H179	H	1.289449	0.577279	-0.386395
H180	H	1.789449	1.077279	0.113605
O181	O	1.237554	0.297133	-0.370886
O182	O	1.737554	0.797133	0.129114
H183	H	1.295444	0.262630	-0.388251
H184	H	1.795444	0.762630	0.111749
O185	O	0.899223	0.095908	-0.269480
O186	O	1.399223	0.595908	0.230520
H187	H	0.841332	0.130409	-0.252138
H188	H	1.341332	0.630409	0.247862
O189	O	0.951193	-0.009199	-0.912884
O190	O	1.451193	0.490801	-0.412884
H191	H	0.913243	0.022780	-0.946139
H192	H	1.413243	0.522780	-0.446139
H193	H	0.965589	-0.021400	-0.493059
H194	H	1.465589	0.478600	0.006941
