data_functionalizedCrystal
_audit_creation_method	'MofGen! by Chris Wilmer'
_symmetry_space_group_name_H-M	'P1'
_symmetry_Int_Tables_number	1
_symmetry_cell_setting	triclinic
loop_
_symmetry_equiv_pos_as_xyz
  x,y,z
_cell_length_a	16.959455
_cell_length_b	21.295417
_cell_length_c	16.959447
_cell_angle_alpha	89.965854
_cell_angle_beta	89.985678
_cell_angle_gamma	90.026649
loop_
_atom_site_label
_atom_site_type_symbol
_atom_site_fract_x
_atom_site_fract_y
_atom_site_fract_z
Zn1	Zn	1.208331	-0.250648	-0.446888
Zn2	Zn	1.208231	-0.355925	-0.314700
Zn3	Zn	1.076159	-0.250668	-0.314725
Zn4	Zn	1.076102	-0.355878	-0.446839
O5	O	1.142206	-0.303280	-0.380788
O6	O	1.318929	-0.264625	-0.429363
O7	O	1.190694	-0.341990	-0.204093
O8	O	1.093758	-0.162576	-0.332288
O9	O	1.318855	-0.341971	-0.332245
O10	O	1.190864	-0.162561	-0.429387
O11	O	1.093661	-0.264658	-0.204111
O12	O	0.965541	-0.264613	-0.332240
O13	O	1.093660	-0.341891	-0.557456
O14	O	0.965499	-0.341910	-0.429304
O15	O	1.190808	-0.264579	-0.557492
O16	O	1.190638	-0.444008	-0.332198
O17	O	1.093563	-0.443973	-0.429280
C18	C	0.936840	-0.303259	-0.380770
C19	C	0.848983	-0.303265	-0.380781
C20	C	0.477505	-0.262998	-0.330353
C21	C	0.477510	-0.343613	-0.431269
C22	C	0.560056	-0.343604	-0.431264
C23	C	0.601330	-0.303292	-0.380802
C24	C	0.560058	-0.262989	-0.330345
C25	C	0.601333	-0.383911	-0.481714
C26	C	0.683884	-0.383904	-0.481711
C27	C	0.725160	-0.343588	-0.431252
C28	C	0.683884	-0.303283	-0.380794
C29	C	0.725158	-0.262971	-0.330332
C30	C	0.683883	-0.222662	-0.279877
C31	C	0.601334	-0.222673	-0.279886
C32	C	0.807709	-0.343577	-0.431243
C33	C	0.807711	-0.262962	-0.330324
C34	C	1.142105	-0.466831	-0.380748
C35	C	1.142134	-0.536799	-0.380757
C36	C	1.192668	-0.569601	-0.431353
C37	C	1.192696	-0.635344	-0.431372
C38	C	1.142198	-0.668282	-0.380782
C39	C	1.091654	-0.635472	-0.330183
C40	C	1.091622	-0.569731	-0.330170
N41	N	1.136233	-0.771547	-0.311606
N42	N	1.136268	-0.833998	-0.311620
C43	C	1.142291	-0.866356	-0.380818
N44	N	1.148292	-0.833904	-0.450002
N45	N	1.148261	-0.771447	-0.449987
C46	C	1.142227	-0.739567	-0.380790
C47	C	1.192858	-0.970444	-0.431439
C48	C	1.192880	-1.036188	-0.431460
C49	C	1.091842	-1.036315	-0.330263
C50	C	1.091816	-0.970572	-0.330249
C51	C	1.142328	-0.937641	-0.380836
C52	C	1.348374	-0.303301	-0.380807
C53	C	1.436231	-0.303310	-0.380815
C54	C	1.142239	-0.303228	-0.586956
C55	C	1.142253	-0.303205	-0.674813
C56	C	1.142328	-0.139089	-0.380845
C57	C	1.142381	-0.069121	-0.380870
C58	C	1.091767	-0.343392	-1.046273
C59	C	1.192928	-0.262886	-1.046305
C60	C	1.192907	-0.262900	-0.963759
C61	C	1.142316	-0.303160	-0.922466
C62	C	1.091746	-0.343407	-0.963719
C63	C	1.243482	-0.222658	-0.922500
C64	C	1.243463	-0.222670	-0.839949
C65	C	1.192867	-0.262928	-0.798654
C66	C	1.142295	-0.303176	-0.839912
C67	C	1.091704	-0.343437	-0.798619
C68	C	1.041126	-0.383682	-0.839876
C69	C	1.041150	-0.383665	-0.922425
C70	C	1.192844	-0.262945	-0.716106
C71	C	1.091683	-0.343453	-0.716066
C72	C	1.142219	-0.303286	-0.175422
C73	C	1.142358	-0.303131	-0.087566
H74	H	0.841311	-0.376398	-0.472320
O75	O	0.723858	-0.183487	-0.230781
C76	C	0.669734	-0.147899	-0.186263
H77	H	0.610872	-0.173678	-0.183474
H78	H	0.693568	-0.141126	-0.123998
H79	H	0.660995	-0.100118	-0.215316
H80	H	1.234121	-0.230111	-1.079931
O81	O	1.042640	-0.667396	-0.280929
C82	C	1.059968	-0.651377	-0.202161
H83	H	1.090330	-0.603624	-0.200540
H84	H	1.002943	-0.649189	-0.166668
H85	H	1.100642	-0.688364	-0.175579
O86	O	0.437294	-0.223903	-0.281368
C87	C	0.355582	-0.232537	-0.292209
H88	H	0.344291	-0.281143	-0.317984
H89	H	0.324190	-0.228208	-0.233016
H90	H	0.332192	-0.195242	-0.334392
H91	H	0.841311	-0.230131	-0.289236
O92	O	1.042758	-0.938607	-0.281168
C93	C	1.053572	-0.873520	-0.291990
H94	H	1.079415	-0.864488	-0.353012
H95	H	0.994358	-0.848578	-0.286570
H96	H	1.095687	-0.854864	-0.245140
O97	O	1.241829	-0.667281	-0.480415
C98	C	1.292942	-0.705288	-0.435464
H99	H	1.265105	-0.715194	-0.375541
H100	H	1.303542	-0.751490	-0.467680
H101	H	1.351510	-0.679915	-0.426822
O102	O	1.042453	-0.382475	-0.675924
C103	C	0.991429	-0.346645	-0.628170
H104	H	0.986589	-0.297059	-0.653063
H105	H	0.930582	-0.369406	-0.627226
H106	H	1.015854	-0.344496	-0.565609
H107	H	0.567721	-0.189857	-0.238807
H108	H	1.050586	-0.376157	-1.079867
O109	O	0.991879	-0.422767	-0.799852
C110	C	0.913108	-0.408994	-0.820001
H111	H	0.911490	-0.384779	-0.879945
H112	H	0.877639	-0.454424	-0.822806
H113	H	0.886499	-0.376643	-0.773548
O114	O	1.241890	-0.938353	-0.480508
C115	C	1.231017	-0.873293	-0.469658
H116	H	1.205168	-0.864369	-0.408631
H117	H	1.290209	-0.848266	-0.475069
H118	H	1.188883	-0.854635	-0.516498
H119	H	1.234031	-1.062894	-0.472665
O120	O	1.042425	-0.537933	-0.281055
C121	C	0.963639	-0.554024	-0.298276
H122	H	0.962001	-0.601739	-0.328670
H123	H	0.928234	-0.556331	-0.241199
H124	H	0.936976	-0.517016	-0.338883
O125	O	1.042744	-1.068370	-0.281232
C126	C	0.991667	-1.106389	-0.326201
H127	H	1.019514	-1.116185	-0.386127
H128	H	0.981108	-1.152644	-0.294005
H129	H	0.933076	-1.081082	-0.334832
H130	H	0.443899	-0.376437	-0.472348
O131	O	0.992140	-0.422825	-0.962538
C132	C	1.037127	-0.463466	-1.010282
H133	H	1.099369	-0.467368	-0.985397
H134	H	1.008502	-0.511907	-1.011203
H135	H	1.039886	-0.443989	-1.072852
O136	O	1.292513	-0.183490	-0.962649
C137	C	1.247557	-0.142828	-1.010433
H138	H	1.185302	-0.138928	-0.985552
H139	H	1.276190	-0.094390	-1.011401
H140	H	1.244825	-0.162284	-1.072984
O141	O	1.292657	-0.183657	-0.799834
C142	C	1.343658	-0.219496	-0.752037
H143	H	1.348535	-0.269070	-0.776887
H144	H	1.404496	-0.196721	-0.751095
H145	H	1.319185	-0.221677	-0.689480
H146	H	0.717483	-0.416725	-0.522795
H147	H	1.234025	-0.230179	-0.682519
O148	O	0.561199	-0.422974	-0.530813
C149	C	0.513472	-0.387181	-0.581933
H150	H	0.538385	-0.337609	-0.586928
H151	H	0.512535	-0.410007	-0.642712
H152	H	0.450905	-0.384985	-0.557499
H153	H	1.233796	-0.542790	-0.472546
