data_functionalizedCrystal
_audit_creation_method	'MofGen! by Chris Wilmer'
_symmetry_space_group_name_H-M	'P1'
_symmetry_Int_Tables_number	1
_symmetry_cell_setting	triclinic
loop_
_symmetry_equiv_pos_as_xyz
  x,y,z
_cell_length_a	17.699083
_cell_length_b	17.699083
_cell_length_c	16.776229
_cell_angle_alpha	89.992455
_cell_angle_beta	89.998886
_cell_angle_gamma	83.283015
loop_
_atom_site_label
_atom_site_type_symbol
_atom_site_fract_x
_atom_site_fract_y
_atom_site_fract_z
O1	O	1.004078	0.095713	-0.066178
O2	O	0.783700	0.108165	-0.066204
O3	O	0.900116	-0.008250	-0.066183
O4	O	0.887663	0.212128	-0.066199
O5	O	0.900100	-0.008257	0.066393
O6	O	0.783685	0.108158	0.066372
O7	O	1.004063	0.095706	0.066398
Zn8	Zn	0.893871	0.101931	0.087435
Zn9	Zn	0.893892	0.101940	-0.087241
O10	O	0.887648	0.212121	0.066378
C11	C	0.755495	0.107716	0.000081
C12	C	0.671477	0.106377	0.000071
C13	C	0.622856	0.174710	0.000066
C14	C	0.543913	0.173448	0.000077
C15	C	0.513592	0.103852	0.000086
C16	C	0.562219	0.035513	0.000093
C17	C	0.641161	0.036776	0.000088
C18	C	0.243856	0.030418	0.000113
C19	C	0.164908	0.029160	0.000115
C20	C	0.146608	0.167090	0.000101
C21	C	0.225550	0.168353	0.000097
C22	C	0.274170	0.100015	0.000108
C23	C	0.359769	0.101384	0.000098
C24	C	0.427995	0.102481	0.000090
C25	C	0.899662	-0.036451	0.000105
C26	C	0.898323	-0.120469	0.000105
C27	C	0.966656	-0.169090	0.000114
C28	C	0.965394	-0.248033	0.000107
C29	C	0.895798	-0.278354	0.000096
C30	C	0.827459	-0.229727	0.000085
C31	C	0.828722	-0.150785	0.000086
C32	C	0.822364	-0.548090	0.000078
C33	C	0.821106	-0.627038	0.000078
C34	C	0.959036	-0.645338	0.000099
C35	C	0.960299	-0.566396	0.000100
C36	C	0.891961	-0.517776	0.000084
C37	C	0.893330	-0.432177	0.000090
C38	C	0.894427	-0.363951	0.000096
C39	C	1.032268	0.096156	0.000112
C40	C	1.116286	0.097494	0.000116
C41	C	0.888102	0.240322	0.000087
C42	C	0.889440	0.324340	0.000082
N43	N	0.893863	0.101924	0.206646
N44	N	0.893906	0.101941	-0.206452
C45	C	0.945428	0.050396	0.248372
C46	C	0.945432	0.050396	0.331824
C47	C	0.893875	0.101927	0.373549
C48	C	0.842305	0.153457	0.331817
C49	C	0.842297	0.153454	0.248366
C50	C	0.842332	0.153472	0.668364
C51	C	0.842345	0.153473	0.751820
C52	C	0.945466	0.050414	0.751822
C53	C	0.945459	0.050411	0.668372
C54	C	0.893887	0.101938	0.626647
C55	C	0.893882	0.101937	0.536158
C56	C	0.893882	0.101932	0.464036
H57	H	0.107012	0.222734	0.000097
H58	H	1.021038	-0.287618	0.000116
C59	C	0.709515	-0.238429	-0.068092
C60	C	0.750958	-0.263056	0.000069
H61	H	0.662287	-0.259009	-0.068101
H62	H	0.700487	-0.184462	-0.068087
H63	H	0.737661	-0.255126	-0.114314
H64	H	0.722814	-0.246353	0.046291
H65	H	0.759983	-0.317034	0.000071
H66	H	0.140225	-0.027517	0.000124
C67	C	0.703163	-0.635746	-0.068108
C68	C	0.744601	-0.660369	0.000057
H69	H	0.655937	-0.656329	-0.068122
H70	H	0.694132	-0.581780	-0.068105
H71	H	0.731314	-0.652443	-0.114327
H72	H	0.716452	-0.643667	0.046276
H73	H	0.753629	-0.714347	0.000061
C74	C	1.037658	-0.744718	-0.068053
C75	C	1.034158	-0.698783	0.000104
H76	H	1.084036	-0.777707	-0.068049
H77	H	0.996035	-0.774073	-0.068055
H78	H	1.035288	-0.713525	-0.114277
H79	H	1.036522	-0.729976	0.046329
H80	H	1.075792	-0.669425	0.000114
C81	C	0.343240	-0.048182	-0.068039
C82	C	0.297292	-0.044699	0.000114
H83	H	0.376233	-0.094558	-0.068036
H84	H	0.312061	-0.045802	-0.114261
H85	H	0.372597	-0.006553	-0.068033
H86	H	0.267931	-0.086326	0.000105
H87	H	0.328474	-0.047087	0.046348
H88	H	0.987444	0.008452	0.634402
C89	C	1.048461	0.033860	0.425670
C90	C	1.002114	-0.006239	0.377698
H91	H	1.083451	-0.001106	0.453995
H92	H	1.075620	0.065324	0.393106
H93	H	1.017743	0.064547	0.462455
H94	H	1.032831	-0.036922	0.340909
H95	H	0.974953	-0.037716	0.410265
C96	C	0.449335	-0.027670	0.000099
C97	C	0.528893	-0.040990	0.000101
H98	H	0.428764	-0.074902	0.000098
H99	H	0.432642	0.000452	0.046327
H100	H	0.432645	0.000464	-0.046138
H101	H	0.545583	-0.069119	0.046342
H102	H	0.545592	-0.069123	-0.046131
H103	H	0.766718	-0.508512	0.000065
C104	C	0.750114	-0.051391	0.068226
C105	C	0.753609	-0.097336	0.000077
H106	H	0.703742	-0.018392	0.068213
H107	H	0.752476	-0.082571	0.114451
H108	H	0.791748	-0.022040	0.068224
H109	H	0.711978	-0.126690	0.000082
H110	H	0.751239	-0.066152	-0.046160
C111	C	1.096515	-0.592417	0.000110
C112	C	1.036801	-0.533068	0.000108
H113	H	1.143744	-0.571841	0.000107
H114	H	1.093152	-0.622829	0.046340
H115	H	1.093152	-0.622823	-0.046126
H116	H	1.040161	-0.502666	0.046347
H117	H	1.040166	-0.502643	-0.046126
C118	C	0.961994	-0.052664	0.154587
C119	C	1.002082	-0.006285	0.202532
H120	H	0.996966	-0.087666	0.126293
H121	H	0.930531	-0.079809	0.187167
H122	H	0.931306	-0.021970	0.117777
H123	H	1.032766	-0.036979	0.239347
H124	H	1.033558	0.020862	0.169950
H125	H	0.987457	0.008456	0.785804
C126	C	0.533753	0.309916	0.000051
C127	C	0.490469	0.248563	0.000068
H128	H	0.500757	0.356289	0.000041
H129	H	0.564925	0.307540	0.046277
H130	H	0.564923	0.307532	-0.046188
H131	H	0.459303	0.250943	0.046310
H132	H	0.459283	0.250940	-0.046164
C133	C	0.711237	0.198067	0.777537
C134	C	0.785663	0.210113	0.797688
H135	H	0.676248	0.233029	0.805859
H136	H	0.703853	0.205445	0.721873
H137	H	0.703134	0.147559	0.791226
H138	H	0.793768	0.260620	0.783993
H139	H	0.793051	0.202741	0.853365
H140	H	0.800342	0.195428	0.634398
H141	H	0.800322	0.195412	0.365793
C142	C	0.681074	-0.080397	-0.068063
C143	C	0.694611	-0.038336	0.000087
H144	H	0.714075	-0.126767	-0.068062
H145	H	0.629727	-0.091110	-0.068053
H146	H	0.690251	-0.051841	-0.114292
H147	H	0.685429	-0.066890	0.046317
H148	H	0.745970	-0.027626	0.000085
H149	H	1.023330	-0.144409	0.000128
H150	H	0.647537	0.231384	0.000058
H151	H	0.800308	0.195412	0.214393
H152	H	0.250232	0.225025	0.000085
