data_functionalizedCrystal
_audit_creation_method	'MofGen! by Chris Wilmer'
_symmetry_space_group_name_H-M	'P1'
_symmetry_Int_Tables_number	1
_symmetry_cell_setting	triclinic
loop_
_symmetry_equiv_pos_as_xyz
  x,y,z
_cell_length_a	19.121102
_cell_length_b	25.639239
_cell_length_c	19.120904
_cell_angle_alpha	92.410104
_cell_angle_beta	90.088173
_cell_angle_gamma	87.592882
loop_
_atom_site_label
_atom_site_type_symbol
_atom_site_fract_x
_atom_site_fract_y
_atom_site_fract_z
Zn1	Zn	1.054765	-0.255751	-0.442042
Zn2	Zn	1.554765	0.244249	0.057958
Zn3	Zn	1.059658	-0.339618	-0.324799
Zn4	Zn	1.559658	0.160382	0.175201
Zn5	Zn	0.942536	-0.248315	-0.319827
Zn6	Zn	1.442536	0.251685	0.180173
Zn7	Zn	0.937469	-0.339266	-0.437001
Zn8	Zn	1.437469	0.160734	0.062999
O9	O	0.998607	-0.295738	-0.380917
O10	O	1.498607	0.204262	0.119083
O11	O	1.153518	-0.270136	-0.430680
O12	O	1.653518	0.229864	0.069320
O13	O	1.048290	-0.324541	-0.226035
O14	O	1.548290	0.175459	0.273965
O15	O	0.957496	-0.176139	-0.336067
O16	O	1.457496	0.323861	0.163933
O17	O	1.157113	-0.331752	-0.344542
O18	O	1.657113	0.168248	0.155458
O19	O	1.039950	-0.181603	-0.425859
O20	O	1.539950	0.318397	0.074141
O21	O	0.962241	-0.257461	-0.222382
O22	O	1.462241	0.242539	0.277618
O23	O	0.843760	-0.257121	-0.331180
O24	O	1.343760	0.242879	0.168820
O25	O	0.948861	-0.331153	-0.535775
O26	O	1.448861	0.168847	-0.035775
O27	O	0.840037	-0.323942	-0.417267
O28	O	1.340037	0.176058	0.082733
O29	O	1.035037	-0.269795	-0.539478
O30	O	1.535037	0.230205	-0.039478
O31	O	1.043377	-0.412733	-0.339654
O32	O	1.543377	0.087267	0.160346
O33	O	0.953605	-0.412475	-0.422089
O34	O	1.453605	0.087525	0.077911
C35	C	0.816461	-0.289687	-0.373137
C36	C	1.316461	0.210313	0.126863
C37	C	0.738537	-0.287111	-0.369826
C38	C	1.238537	0.212889	0.130174
C39	C	0.700012	-0.320740	-0.413021
C40	C	1.200012	0.179260	0.086979
C41	C	0.626794	-0.318313	-0.409912
C42	C	1.126794	0.181687	0.090088
C43	C	0.592104	-0.282260	-0.363605
C44	C	1.092104	0.217740	0.136395
C45	C	0.630634	-0.248627	-0.320408
C46	C	1.130634	0.251373	0.179592
C47	C	0.703850	-0.251052	-0.323520
C48	C	1.203850	0.248948	0.176480
C49	C	0.371134	-0.273194	-0.351972
C50	C	0.871134	0.226806	0.148028
C51	C	0.297913	-0.270773	-0.348862
C52	C	0.797913	0.229227	0.151138
C53	C	0.294078	-0.340458	-0.438367
C54	C	0.794078	0.159542	0.061633
C55	C	0.367296	-0.342882	-0.441472
C56	C	0.867296	0.157118	0.058528
C57	C	0.405820	-0.309247	-0.398278
C58	C	0.905820	0.190753	0.101722
C59	C	0.517264	-0.279779	-0.360425
C60	C	1.017264	0.220221	0.139575
C61	C	0.480658	-0.311726	-0.401462
C62	C	0.980658	0.188274	0.098538
C63	C	0.998491	-0.431575	-0.380880
C64	C	1.498491	0.068425	0.119120
C65	C	0.998504	-0.489690	-0.380890
C66	C	1.498504	0.010310	0.119110
C67	C	1.045465	-0.850185	-0.338075
C68	C	1.545465	-0.350185	0.161925
C69	C	1.045491	-0.904791	-0.338085
C70	C	1.545491	-0.404791	0.161915
O71	O	1.085298	-0.933135	-0.301642
O72	O	1.585298	-0.433135	0.198358
N73	N	0.998728	-0.931982	-0.380969
N74	N	1.498728	-0.431982	0.119031
C75	C	0.951940	-0.904565	-0.423850
C76	C	1.451940	-0.404565	0.076150
O77	O	0.912167	-0.932708	-0.460327
O78	O	1.412167	-0.432708	0.039673
C79	C	0.951917	-0.849961	-0.423843
C80	C	1.451917	-0.349961	0.076157
C81	C	0.998679	-0.822772	-0.380951
C82	C	1.498679	-0.322772	0.119049
C83	C	1.092223	-0.822997	-0.295188
C84	C	1.592223	-0.322997	0.204812
C85	C	1.092195	-0.768395	-0.295176
C86	C	1.592195	-0.268395	0.204824
C87	C	1.045409	-0.740982	-0.338052
C88	C	1.545409	-0.240982	0.161948
C89	C	0.998651	-0.768171	-0.380940
C90	C	1.498651	-0.268171	0.119060
C91	C	0.905133	-0.822546	-0.466727
C92	C	1.405133	-0.322546	0.033273
C93	C	0.905115	-0.767938	-0.466716
C94	C	1.405115	-0.267938	0.033284
C95	C	0.951876	-0.740749	-0.423825
C96	C	1.451876	-0.240749	0.076175
C97	C	0.951837	-0.686156	-0.423805
C98	C	1.451837	-0.186156	0.076195
N99	N	0.998600	-0.658965	-0.380921
N100	N	1.498600	-0.158965	0.119079
C101	C	1.045386	-0.686378	-0.338045
C102	C	1.545386	-0.186378	0.161955
C103	C	0.951992	-1.019238	-0.423863
C104	C	1.451992	-0.519238	0.076137
C105	C	0.952011	-1.073841	-0.423867
C106	C	1.452011	-0.573841	0.076133
C107	C	1.045564	-1.074063	-0.338103
C108	C	1.545564	-0.574063	0.161897
C109	C	1.045541	-1.019459	-0.338096
C110	C	1.545541	-0.519459	0.161904
C111	C	0.998756	-0.992047	-0.380980
C112	C	1.498756	-0.492047	0.119020
C113	C	1.045324	-0.571710	-0.338024
C114	C	1.545324	-0.071710	0.161976
C115	C	1.045290	-0.517103	-0.338014
C116	C	1.545290	-0.017103	0.161986
C117	C	0.951740	-0.516886	-0.423780
C118	C	1.451740	-0.016886	0.076220
C119	C	0.951771	-0.571488	-0.423788
C120	C	1.451771	-0.071488	0.076212
C121	C	0.998569	-0.598899	-0.380907
C122	C	1.498569	-0.098899	0.119093
O123	O	0.912052	-0.657777	-0.460232
O124	O	1.412052	-0.157777	0.039768
O125	O	1.085159	-0.658229	-0.301581
O126	O	1.585159	-0.158229	0.198419
C127	C	1.181464	-0.301813	-0.388728
C128	C	1.681464	0.198187	0.111272
C129	C	1.259387	-0.304401	-0.392057
C130	C	1.759387	0.195599	0.107943
C131	C	0.990838	-0.301264	-0.563775
C132	C	1.490838	0.198736	-0.063775
C133	C	0.987527	-0.303619	-0.641698
C134	C	1.487527	0.196381	-0.141698
C135	C	0.998742	-0.159371	-0.380971
C136	C	1.498742	0.340629	0.119029
C137	C	0.998800	-0.101259	-0.380993
C138	C	1.498800	0.398741	0.119007
C139	C	1.030837	-0.272781	-0.680236
C140	C	1.530837	0.227219	-0.180236
C141	C	1.027718	-0.274992	-0.753453
C142	C	1.527718	0.225008	-0.253453
C143	C	0.981292	-0.308044	-0.788130
C144	C	1.481292	0.191956	-0.288130
C145	C	0.937977	-0.338883	-0.749587
C146	C	1.437977	0.161117	-0.249587
C147	C	0.941093	-0.336669	-0.676372
C148	C	1.441093	0.163331	-0.176372
C149	C	0.969635	-0.316324	-1.009097
C150	C	1.469635	0.183676	-0.509097
C151	C	0.966523	-0.318536	-1.082318
C152	C	1.466523	0.181464	-0.582318
C153	C	1.056263	-0.254644	-1.086178
C154	C	1.556263	0.245356	-0.586178
C155	C	1.059378	-0.252436	-1.012961
C156	C	1.559378	0.247564	-0.512961
C157	C	1.016061	-0.283273	-0.974424
C158	C	1.516061	0.216727	-0.474424
C159	C	0.978104	-0.310306	-0.862970
C160	C	1.478104	0.189694	-0.362970
C161	C	1.019246	-0.281008	-0.899586
C162	C	1.519246	0.218992	-0.399586
C163	C	1.006386	-0.290196	-0.198772
C164	C	1.506386	0.209804	0.301228
C165	C	1.009833	-0.287698	-0.120856
C166	C	1.509833	0.212302	0.379144
H167	H	0.262704	-0.367840	-0.473534
H168	H	0.762704	0.132160	0.026466
N169	N	1.106797	-0.218678	-0.977526
N170	N	1.606797	0.281322	-0.477526
N171	N	1.153186	-0.237324	-0.938571
N172	N	1.653186	0.262676	-0.438571
H173	H	1.186677	-0.213484	-0.913542
H174	H	1.686677	0.286516	-0.413542
N175	N	0.919071	-0.352285	-1.117730
N176	N	1.419071	0.147715	-0.617730
N177	N	0.880383	-0.379803	-1.083314
N178	N	1.380383	0.120197	-0.583314
H179	H	0.846863	-0.403631	-1.108323
H180	H	1.346863	0.096369	-0.608323
N181	N	0.904249	-1.101618	-0.467674
N182	N	1.404249	-0.601618	0.032326
N183	N	0.904273	-1.150372	-0.467685
N184	N	1.404273	-0.650372	0.032315
H185	H	0.870542	-1.169989	-0.498628
H186	H	1.370542	-0.669989	0.001372
H187	H	0.913696	-0.593627	-0.458716
H188	H	1.413696	-0.093627	0.041284
H189	H	1.062987	-0.249882	-0.784827
H190	H	1.562987	0.250118	-0.284827
N191	N	1.139949	-0.740624	-0.251351
N192	N	1.639949	-0.240624	0.248649
N193	N	1.117200	-0.708027	-0.205591
N194	N	1.617200	-0.208027	0.294409
H195	H	1.150926	-0.688418	-0.174632
H196	H	1.650926	-0.188418	0.325368
H197	H	1.091528	-0.229538	-1.117562
H198	H	1.591528	0.270462	-0.617562
H199	H	1.068644	-0.245869	-0.652007
H200	H	1.568644	0.254131	-0.152007
N201	N	0.903962	-0.488870	-0.467576
N202	N	1.403962	0.011130	0.032424
N203	N	0.926690	-0.460534	-0.513308
N204	N	1.426690	0.039466	-0.013308
H205	H	0.892950	-0.440745	-0.544242
H206	H	1.392950	0.059255	-0.044242
N207	N	0.410469	-0.238838	-0.307843
N208	N	0.910469	0.261162	0.192157
N209	N	0.379484	-0.206653	-0.266497
N210	N	0.879484	0.293347	0.233503
H211	H	0.407266	-0.182389	-0.235326
H212	H	0.907266	0.317611	0.264674
H213	H	0.934373	-0.341441	-0.977730
H214	H	1.434373	0.158559	-0.477730
H215	H	0.728252	-0.350100	-0.450727
H216	H	1.228252	0.149900	0.049273
N217	N	0.262484	-0.233934	-0.301563
N218	N	0.762484	0.266066	0.198437
N219	N	0.270494	-0.186110	-0.306687
N220	N	0.770494	0.313890	0.193313
H221	H	0.245473	-0.160094	-0.273284
H222	H	0.745473	0.339906	0.226716
H223	H	0.602383	-0.219270	-0.282707
H224	H	1.102383	0.280730	0.217293
N225	N	0.516079	-0.348553	-0.448770
N226	N	1.016079	0.151447	0.051230
N227	N	0.505172	-0.346851	-0.513123
N228	N	1.005172	0.153149	-0.013123
H229	H	0.530192	-0.372862	-0.546534
H230	H	1.030192	0.127138	-0.046534
H231	H	0.900174	-0.365793	-0.777828
H232	H	1.400174	0.134207	-0.277828
N233	N	0.896844	-0.368169	-0.637015
N234	N	1.396844	0.131831	-0.137015
N235	N	0.855393	-0.397677	-0.667983
N236	N	1.355393	0.102323	-0.167983
H237	H	0.824137	-0.419923	-0.640188
H238	H	1.324137	0.080077	-0.140188
N239	N	1.093351	-1.102069	-0.294298
N240	N	1.593351	-0.602069	0.205702
N241	N	1.070633	-1.130403	-0.248559
N242	N	1.570633	-0.630403	0.251441
H243	H	1.104379	-1.150183	-0.217622
H244	H	1.604379	-0.650183	0.282378
N245	N	0.743195	-0.216692	-0.279400
N246	N	1.243195	0.283308	0.220600
N247	N	0.712214	-0.184502	-0.238059
N248	N	1.212214	0.315498	0.261941
H249	H	0.740000	-0.160231	-0.206901
H250	H	1.240000	0.339769	0.293099
H251	H	1.057043	-0.254095	-0.871348
H252	H	1.557043	0.245905	-0.371348
N253	N	0.481838	-0.242955	-0.313112
N254	N	0.981838	0.257045	0.186888
N255	N	0.516239	-0.212932	-0.274542
N256	N	1.016239	0.287068	0.225458
H257	H	0.491219	-0.186924	-0.241128
H258	H	0.991219	0.313076	0.258872
N259	N	1.093059	-0.489339	-0.294191
N260	N	1.593059	0.010661	0.205809
N261	N	1.134828	-0.513826	-0.255914
N262	N	1.634828	-0.013826	0.244086
H263	H	1.168564	-0.494219	-0.224964
H264	H	1.668564	0.005781	0.275036
N265	N	1.093129	-0.599696	-0.294218
N266	N	1.593129	-0.099696	0.205782
N267	N	1.134868	-0.575404	-0.255930
N268	N	1.634868	-0.075404	0.244070
H269	H	1.168627	-0.595168	-0.224987
H270	H	1.668627	-0.095168	0.275013
N271	N	0.930675	-0.344055	-0.898403
N272	N	1.430675	0.155945	-0.398403
N273	N	0.884289	-0.325399	-0.937353
N274	N	1.384289	0.174601	-0.437353
H275	H	0.850789	-0.349231	-0.962384
H276	H	1.350789	0.150769	-0.462384
N277	N	0.587452	-0.352665	-0.454044
N278	N	1.087452	0.147335	0.045956
N279	N	0.618434	-0.384854	-0.495386
N280	N	1.118434	0.115146	0.004614
H281	H	0.590650	-0.409116	-0.526558
H282	H	1.090650	0.090884	-0.026558
H283	H	0.395536	-0.372241	-0.479179
H284	H	0.895536	0.127759	0.020821
N285	N	0.857379	-0.850311	-0.510552
N286	N	1.357379	-0.350311	-0.010552
N287	N	0.880126	-0.882913	-0.556307
N288	N	1.380126	-0.382913	-0.056307
H289	H	0.846399	-0.902523	-0.587263
H290	H	1.346399	-0.402523	-0.087263
H291	H	1.130325	-0.845310	-0.260273
H292	H	1.630325	-0.345310	0.239727
H293	H	1.083618	-0.997325	-0.303171
H294	H	1.583618	-0.497325	0.196829
H295	H	0.913888	-0.996922	-0.458781
H296	H	1.413888	-0.496922	0.041219
N297	N	0.857322	-0.739947	-0.510531
N298	N	1.357322	-0.239947	-0.010531
N299	N	0.815580	-0.764233	-0.548821
N300	N	1.315580	-0.264233	-0.048821
H301	H	0.781826	-0.744466	-0.579765
H302	H	1.281826	-0.244466	-0.079765
