data_functionalizedCrystal
_audit_creation_method	'MofGen! by Chris Wilmer'
_symmetry_space_group_name_H-M	'P1'
_symmetry_Int_Tables_number	1
_symmetry_cell_setting	triclinic
loop_
_symmetry_equiv_pos_as_xyz
  x,y,z
_cell_length_a	23.532355
_cell_length_b	16.992695
_cell_length_c	16.053802
_cell_angle_alpha	87.258926
_cell_angle_beta	87.441319
_cell_angle_gamma	93.252139
loop_
_atom_site_label
_atom_site_type_symbol
_atom_site_fract_x
_atom_site_fract_y
_atom_site_fract_z
O1	O	0.762239	-0.091640	-0.069316
O2	O	0.597057	-0.105449	-0.069342
O3	O	0.678985	0.015593	-0.069323
O4	O	0.680310	-0.212681	-0.069336
O5	O	0.674475	0.008957	0.069535
O6	O	0.592546	-0.112084	0.069516
O7	O	0.757728	-0.098275	0.069542
Zn8	Zn	0.674421	-0.106233	0.091575
Zn9	Zn	0.680364	-0.097491	-0.091376
O10	O	0.675799	-0.219317	0.069522
C11	C	0.573568	-0.108421	0.000083
C12	C	0.510298	-0.107383	0.000073
C13	C	0.115501	-0.104480	0.075800
C14	C	0.056052	-0.103493	0.075803
O15	O	0.023216	-0.106032	0.140175
N16	N	0.028778	-0.099386	0.000112
C17	C	0.060957	-0.096259	-0.075587
O18	O	0.032299	-0.092675	-0.139968
C19	C	0.120404	-0.097241	-0.075590
C20	C	0.147675	-0.101355	0.000106
C21	C	0.142772	-0.108594	0.151490
C22	C	0.202216	-0.109582	0.151486
C23	C	0.234390	-0.106457	0.075793
C24	C	0.207119	-0.102344	0.000103
C25	C	0.152582	-0.094108	-0.151288
C26	C	0.212033	-0.095089	-0.151284
C27	C	0.239304	-0.099204	-0.075588
C28	C	0.298737	-0.100208	-0.075594
N29	N	0.326011	-0.104314	0.000097
C30	C	0.293837	-0.107439	0.075790
C31	C	-0.063888	-0.094197	-0.075576
C32	C	-0.123334	-0.093220	-0.075575
C33	C	-0.128235	-0.100453	0.075816
C34	C	-0.068787	-0.101434	0.075814
C35	C	-0.036614	-0.098303	0.000115
C36	C	0.418675	-0.109516	0.075777
C37	C	0.478125	-0.110507	0.075767
C38	C	0.483020	-0.103271	-0.075623
C39	C	0.423575	-0.102283	-0.075614
C40	C	0.391404	-0.105403	0.000093
O41	O	0.331610	-0.097668	-0.139933
O42	O	0.322503	-0.111012	0.140160
C43	C	0.675026	0.041474	0.000106
C44	C	0.669943	0.128477	0.000105
C45	C	0.781217	-0.095303	0.000115
C46	C	0.844487	-0.096341	0.000119
C47	C	0.679759	-0.245198	0.000092
C48	C	0.684842	-0.332201	0.000087
N49	N	0.670369	-0.112199	0.216435
C50	C	0.718990	0.179112	0.000114
C51	C	0.714210	0.260860	0.000105
C52	C	0.660384	0.291972	0.000094
C53	C	0.611333	0.241331	0.000082
C54	C	0.616113	0.159585	0.000085
C55	C	0.640572	0.535412	0.000079
C56	C	0.635795	0.617165	0.000079
C57	C	0.738673	0.636688	0.000100
C58	C	0.743448	0.554939	0.000108
C59	C	0.694398	0.504305	0.000092
N60	N	0.655497	0.375532	0.000087
N61	N	0.699285	0.420747	0.000092
N62	N	0.684420	-0.091519	-0.216235
C63	C	0.705244	-0.060714	0.260137
C64	C	0.702415	-0.064894	0.347543
C65	C	0.664714	-0.120564	0.391245
C66	C	0.629835	-0.172051	0.347537
C67	C	0.632661	-0.167867	0.260132
C68	C	0.652368	-0.138822	0.652652
C69	C	0.649545	-0.143004	0.740063
C70	C	0.722125	-0.035845	0.740063
C71	C	0.724950	-0.031669	0.652657
C72	C	0.690069	-0.083153	0.608956
N73	N	0.661823	-0.124840	0.480588
N74	N	0.692958	-0.078873	0.519614
H75	H	-0.145533	-0.089883	-0.137214
O76	O	0.577737	0.650726	0.000072
H77	H	0.574942	0.690215	-0.056518
H78	H	0.735947	-0.015385	0.224561
O79	O	-0.162901	-0.103862	0.157499
H80	H	-0.155276	-0.159232	0.193735
H81	H	0.787280	0.529614	0.000117
O82	O	-0.029187	-0.090834	-0.157227
H83	H	-0.058145	-0.087822	-0.209853
O84	O	0.123179	-0.089629	-0.232932
H85	H	0.155549	-0.087598	-0.285558
H86	H	0.576174	0.118358	0.000078
H87	H	0.754149	0.302084	0.000114
H88	H	0.599135	-0.217377	0.383124
O89	O	0.231630	-0.114015	0.233127
H90	H	0.255943	-0.168071	0.236745
H91	H	0.604262	-0.209790	0.224551
H92	H	0.500325	-0.113861	0.137410
O93	O	0.777049	0.145565	0.000121
H94	H	0.779855	0.106093	0.056722
O95	O	0.246735	-0.091717	-0.232932
H96	H	0.217781	-0.088698	-0.285561
H97	H	0.778607	0.677922	0.000111
H98	H	0.600632	0.494195	0.000066
H99	H	0.401370	-0.098946	-0.137252
H100	H	0.730813	-0.022970	0.383125
O101	O	0.383979	-0.112891	0.157430
H102	H	0.412937	-0.115926	0.210054
O103	O	0.108021	-0.112022	0.233093
H104	H	0.120853	-0.060543	0.269466
O105	O	-0.039374	-0.105876	0.157455
H106	H	-0.071740	-0.107884	0.210085
H107	H	0.755649	0.013662	0.617076
O108	O	0.517727	-0.099883	-0.157263
H109	H	0.563645	-0.101246	-0.144541
H110	H	0.567506	0.266669	0.000068
H111	H	0.750523	0.006072	0.775652
O112	O	0.608880	-0.203051	0.787205
H113	H	0.578432	-0.172157	0.827047
H114	H	0.623967	-0.180744	0.617078
