data_functionalizedCrystal
_audit_creation_method	'MofGen! by Chris Wilmer'
_symmetry_space_group_name_H-M	'P1'
_symmetry_Int_Tables_number	1
_symmetry_cell_setting	triclinic
loop_
_symmetry_equiv_pos_as_xyz
  x,y,z
_cell_length_a	19.188930
_cell_length_b	19.188924
_cell_length_c	15.186229
_cell_angle_alpha	89.994194
_cell_angle_beta	89.982767
_cell_angle_gamma	83.143372
loop_
_atom_site_label
_atom_site_type_symbol
_atom_site_fract_x
_atom_site_fract_y
_atom_site_fract_z
O1	O	0.926142	0.087167	-0.073516
O2	O	1.259475	0.420500	0.259818
O3	O	1.592808	0.753834	0.593151
O4	O	0.722830	0.098901	-0.073456
O5	O	1.056163	0.432235	0.259878
O6	O	1.389497	0.765568	0.593211
O7	O	0.830355	-0.008622	-0.073477
O8	O	1.163689	0.324712	0.259856
O9	O	1.497022	0.658045	0.593190
O10	O	0.818616	0.194690	-0.073494
O11	O	1.151950	0.528023	0.259839
O12	O	1.485283	0.861357	0.593172
O13	O	0.830348	-0.008623	0.072980
O14	O	1.163682	0.324710	0.406314
O15	O	1.497015	0.658043	0.739647
O16	O	0.722823	0.098900	0.073001
O17	O	1.056156	0.432233	0.406335
O18	O	1.389490	0.765566	0.739668
O19	O	0.926134	0.087166	0.072942
O20	O	1.259468	0.420499	0.406275
O21	O	1.592801	0.753832	0.739608
Zn22	Zn	0.824478	0.093032	0.096225
Zn23	Zn	1.157811	0.426366	0.429558
Zn24	Zn	1.491144	0.759699	0.762891
Zn25	Zn	0.824487	0.093034	-0.096739
Zn26	Zn	1.157820	0.426368	0.236594
Zn27	Zn	1.491154	0.759701	0.569928
O28	O	0.818609	0.194689	0.072963
O29	O	1.151942	0.528022	0.406296
O30	O	1.485276	0.861355	0.739630
C31	C	0.696815	0.098521	-0.000219
C32	C	1.030149	0.431854	0.333114
C33	C	1.363482	0.765187	0.666447
C34	C	0.619311	0.097380	-0.000196
C35	C	0.952644	0.430713	0.333137
C36	C	1.285978	0.764047	0.666471
C37	C	0.574385	0.160471	-0.000215
C38	C	0.907719	0.493804	0.333118
C39	C	1.241052	0.827138	0.666451
C40	C	0.501562	0.159399	-0.000225
C41	C	0.834895	0.492733	0.333108
C42	C	1.168228	0.826066	0.666442
C43	C	0.473667	0.095233	-0.000233
C44	C	0.807000	0.428566	0.333100
C45	C	1.140333	0.761900	0.666434
C46	C	0.518602	0.032134	-0.000209
C47	C	0.851935	0.365467	0.333124
C48	C	1.185269	0.698800	0.666458
C49	C	0.591424	0.033207	-0.000190
C50	C	0.924758	0.366540	0.333143
C51	C	1.258091	0.699874	0.666476
N52	N	0.365690	0.046186	-0.050110
N53	N	0.699023	0.379520	0.283223
N54	N	1.032357	0.712853	0.616557
N55	N	0.296512	0.045171	-0.050129
N56	N	0.629845	0.378504	0.283204
N57	N	0.963178	0.711838	0.616537
C58	C	0.254258	0.091995	-0.000287
C59	C	0.587591	0.425328	0.333047
C60	C	0.920925	0.758661	0.666380
N61	N	0.283795	0.139883	0.049565
N62	N	0.617129	0.473216	0.382899
N63	N	0.950462	0.806550	0.716232
N64	N	0.352980	0.140901	0.049581
N65	N	0.686313	0.474234	0.382914
N66	N	1.019647	0.807567	0.716247
C67	C	0.394704	0.094062	-0.000252
C68	C	0.728038	0.427395	0.333081
C69	C	1.061371	0.760728	0.666414
C70	C	0.130368	0.153928	-0.000315
C71	C	0.463702	0.487262	0.333018
C72	C	0.797035	0.820595	0.666352
C73	C	0.057543	0.152854	-0.000319
C74	C	0.390877	0.486187	0.333014
C75	C	0.724210	0.819521	0.666348
C76	C	0.074585	0.025586	-0.000312
C77	C	0.407919	0.358920	0.333021
C78	C	0.741252	0.692253	0.666355
C79	C	0.147409	0.026663	-0.000299
C80	C	0.480742	0.359996	0.333034
C81	C	0.814075	0.693329	0.666368
C82	C	0.175295	0.090835	-0.000305
C83	C	0.508629	0.424169	0.333029
C84	C	0.841962	0.757502	0.666362
C85	C	0.829973	-0.034634	-0.000248
C86	C	1.163306	0.298700	0.333086
C87	C	1.496639	0.632033	0.666419
C88	C	0.828834	-0.112138	-0.000245
C89	C	1.162167	0.221195	0.333089
C90	C	1.495500	0.554528	0.666422
C91	C	0.828306	-0.148537	-0.080079
C92	C	1.161640	0.184797	0.253255
C93	C	1.494973	0.518130	0.586588
C94	C	0.827226	-0.221359	-0.080085
C95	C	1.160560	0.111974	0.253248
C96	C	1.493893	0.445307	0.586582
C97	C	0.826688	-0.257783	-0.000253
C98	C	1.160021	0.075550	0.333080
C99	C	1.493355	0.408884	0.666414
C100	C	0.827212	-0.221376	0.079591
C101	C	1.160545	0.111958	0.412925
C102	C	1.493878	0.445291	0.746258
C103	C	0.828285	-0.148553	0.079596
C104	C	1.161618	0.184780	0.412929
C105	C	1.494951	0.518113	0.746262
N106	N	0.864733	-0.377447	0.059153
N107	N	1.198066	-0.044113	0.392486
N108	N	1.531400	0.289220	0.725819
N109	N	0.863715	-0.446625	0.059143
N110	N	1.197049	-0.113292	0.392477
N111	N	1.530382	0.220042	0.725810
C112	C	0.823454	-0.477192	-0.000261
C113	C	1.156787	-0.143859	0.333073
C114	C	1.490121	0.189475	0.666406
N115	N	0.784258	-0.435969	-0.059668
N116	N	1.117591	-0.102635	0.273665
N117	N	1.450924	0.230698	0.606998
N118	N	0.785279	-0.366784	-0.059662
N119	N	1.118612	-0.033451	0.273672
N120	N	1.451945	0.299882	0.607005
C121	C	0.825524	-0.336746	-0.000249
C122	C	1.158858	-0.003413	0.333085
C123	C	1.492191	0.329920	0.666418
C124	C	0.821754	-0.592553	-0.080107
C125	C	1.155088	-0.259219	0.253226
C126	C	1.488421	0.074114	0.586560
C127	C	0.820670	-0.665376	-0.080110
C128	C	1.154003	-0.332043	0.253223
C129	C	1.487337	0.001290	0.586557
C130	C	0.820663	-0.665392	0.079569
C131	C	1.153996	-0.332059	0.412902
C132	C	1.487329	0.001275	0.746236
C133	C	0.821740	-0.592569	0.079570
C134	C	1.155073	-0.259236	0.412903
C135	C	1.488407	0.074098	0.746236
C136	C	0.822289	-0.556154	-0.000271
C137	C	1.155622	-0.222821	0.333063
C138	C	1.488956	0.110512	0.666396
C139	C	0.952149	0.087546	-0.000297
C140	C	1.285482	0.420880	0.333037
C141	C	1.618816	0.754213	0.666370
C142	C	1.029654	0.088687	-0.000326
C143	C	1.362987	0.422020	0.333008
C144	C	1.696320	0.755354	0.666341
C145	C	0.818992	0.220700	-0.000269
C146	C	1.152325	0.554034	0.333065
C147	C	1.485659	0.887367	0.666398
C148	C	0.820131	0.298205	-0.000277
C149	C	1.153464	0.631539	0.333056
C150	C	1.486797	0.964872	0.666390
N151	N	0.824476	0.093031	0.227917
N152	N	1.157810	0.426364	0.561251
N153	N	1.491143	0.759697	0.894584
N154	N	0.824494	0.093031	-0.228432
N155	N	1.157827	0.426364	0.104902
N156	N	1.491161	0.759697	0.438235
C157	C	0.872105	0.045435	0.453631
C158	C	1.205438	0.378769	0.786964
C159	C	1.538771	0.712102	1.120298
C160	C	0.872107	0.045434	0.545821
C161	C	1.205440	0.378767	0.879154
C162	C	1.538773	0.712100	1.212487
C163	C	0.776860	0.140628	0.545849
C164	C	1.110194	0.473962	0.879182
C165	C	1.443527	0.807295	1.212515
C166	C	0.776855	0.140626	0.453661
C167	C	1.110189	0.473959	0.786994
C168	C	1.443522	0.807293	1.120327
C169	C	0.824481	0.093030	0.407554
C170	C	1.157815	0.426364	0.740887
C171	C	1.491148	0.759697	1.074221
C172	C	0.824489	0.093031	0.591932
C173	C	1.157822	0.426364	0.925265
C174	C	1.491155	0.759698	1.258598
C175	C	0.824491	0.093029	0.691888
C176	C	1.157824	0.426363	1.025221
C177	C	1.491157	0.759696	1.358555
C178	C	0.824479	0.093031	0.307592
C179	C	1.157812	0.426364	0.640925
C180	C	1.491145	0.759697	0.974258
H181	H	0.051874	-0.026659	-0.000373
H182	H	0.385208	0.306674	0.332960
H183	H	0.718541	0.640008	0.666294
C184	C	0.161046	0.224519	-0.000310
C185	C	0.494379	0.557852	0.333023
C186	C	0.827713	0.891185	0.666356
N187	N	0.184151	0.277688	-0.000305
N188	N	0.517484	0.611022	0.333028
N189	N	0.850817	0.944355	0.666362
C190	C	0.605056	0.231063	-0.000204
C191	C	0.938390	0.564396	0.333129
C192	C	1.271723	0.897730	0.666463
N193	N	0.628159	0.284234	-0.000190
N194	N	0.961492	0.617567	0.333144
N195	N	1.294825	0.950900	0.666477
H196	H	0.910885	0.006677	0.583334
H197	H	1.244218	0.340010	0.916667
H198	H	1.577552	0.673343	1.250000
C199	C	0.822328	-0.552531	0.167395
C200	C	1.155661	-0.219197	0.500728
C201	C	1.488994	0.114136	0.834061
N202	N	0.822769	-0.522374	0.233548
N203	N	1.156103	-0.189040	0.566882
N204	N	1.489436	0.144293	0.900215
C205	C	0.724473	0.192979	0.596574
C206	C	1.057807	0.526313	0.929907
C207	C	1.391140	0.859646	1.263241
N208	N	0.685014	0.232411	0.634780
N209	N	1.018347	0.565744	0.968113
N210	N	1.351681	0.899078	1.301447
C211	C	0.828904	-0.108484	-0.167906
C212	C	1.162237	0.224850	0.165428
C213	C	1.495570	0.558183	0.498761
N214	N	0.829352	-0.078314	-0.234058
N215	N	1.162685	0.255019	0.099275
N216	N	1.496019	0.588352	0.432609
H217	H	0.183988	-0.024713	-0.000288
H218	H	0.517322	0.308620	0.333045
H219	H	0.850655	0.641953	0.666379
H220	H	0.020965	0.204232	-0.000330
H221	H	0.354298	0.537566	0.333004
H222	H	0.687632	0.870899	0.666337
C223	C	0.826642	-0.261405	-0.167912
C224	C	1.159975	0.071929	0.165421
C225	C	1.493308	0.405262	0.498755
N226	N	0.826200	-0.291565	-0.234064
N227	N	1.159534	0.041769	0.099270
N228	N	1.492867	0.375102	0.432603
C229	C	0.724495	0.193019	0.402973
C230	C	1.057828	0.526352	0.736306
C231	C	1.391162	0.859685	1.069640
N232	N	0.685069	0.232489	0.364795
N233	N	1.018403	0.565823	0.698129
N234	N	1.351736	0.899156	1.031462
C235	C	0.826618	-0.261443	0.167407
C236	C	1.159951	0.071890	0.500740
C237	C	1.493285	0.405224	0.834074
N238	N	0.826168	-0.291621	0.233552
N239	N	1.159502	0.041712	0.566886
N240	N	1.492835	0.375045	0.900219
C241	C	0.924489	-0.006927	0.402917
C242	C	1.257822	0.326407	0.736250
C243	C	1.591156	0.659740	1.069584
N244	N	0.963944	-0.046370	0.364722
N245	N	1.297278	0.286964	0.698055
N246	N	1.630611	0.620297	1.031389
C247	C	0.828869	-0.108515	0.167423
C248	C	1.162203	0.224819	0.500756
C249	C	1.495536	0.558152	0.834090
N250	N	0.829312	-0.078357	0.233576
N251	N	1.162645	0.254976	0.566909
N252	N	1.495979	0.588310	0.900243
H253	H	0.464976	0.210777	-0.000238
H254	H	0.798310	0.544110	0.333095
H255	H	1.131643	0.877444	0.666429
C256	C	0.820125	-0.705419	-0.167938
C257	C	1.153458	-0.372085	0.165395
C258	C	1.486792	-0.038752	0.498728
N259	N	0.819729	-0.735581	-0.234093
N260	N	1.153062	-0.402248	0.099241
N261	N	1.486395	-0.068914	0.432574
H262	H	0.495885	-0.020111	-0.000228
H263	H	0.829219	0.313222	0.333106
H264	H	1.162552	0.646556	0.666439
C265	C	0.822348	-0.552493	-0.167932
C266	C	1.155681	-0.219159	0.165401
C267	C	1.489015	0.114174	0.498735
N268	N	0.822793	-0.522321	-0.234083
N269	N	1.156126	-0.188988	0.099251
N270	N	1.489460	0.144346	0.432584
H271	H	0.628003	-0.018171	-0.000175
H272	H	0.961337	0.315162	0.333158
H273	H	1.294670	0.648496	0.666491
C274	C	0.820070	-0.705454	0.167386
C275	C	1.153404	-0.372121	0.500719
C276	C	1.486737	-0.038787	0.834052
N277	N	0.819623	-0.735632	0.233532
N278	N	1.152957	-0.402299	0.566865
N279	N	1.486290	-0.068965	0.900198
