data_functionalizedCrystal
_audit_creation_method	'MofGen! by Chris Wilmer'
_symmetry_space_group_name_H-M	'P1'
_symmetry_Int_Tables_number	1
_symmetry_cell_setting	triclinic
loop_
_symmetry_equiv_pos_as_xyz
  x,y,z
_cell_length_a	9.065218
_cell_length_b	9.065218
_cell_length_c	8.140239
_cell_angle_alpha	90.001686
_cell_angle_beta	90.002802
_cell_angle_gamma	85.015885
loop_
_atom_site_label
_atom_site_type_symbol
_atom_site_fract_x
_atom_site_fract_y
_atom_site_fract_z
O1	O	-1.960398	-0.216355	-0.136610
O2	O	-1.627065	0.116979	0.196723
O3	O	-1.293731	0.450312	0.530056
O4	O	-1.531113	-0.234101	-0.136612
O5	O	-1.197780	0.099232	0.196721
O6	O	-0.864446	0.432566	0.530055
O7	O	-1.754629	-0.010585	-0.136608
O8	O	-1.421295	0.322748	0.196726
O9	O	-1.087962	0.656081	0.530059
O10	O	-1.736882	-0.439870	-0.136615
O11	O	-1.403549	-0.106537	0.196719
O12	O	-1.070216	0.226796	0.530052
O13	O	-1.754616	-0.010583	0.136619
O14	O	-1.421283	0.322751	0.469953
O15	O	-1.087950	0.656084	0.803286
O16	O	-1.531101	-0.234098	0.136615
O17	O	-1.197767	0.099235	0.469948
O18	O	-0.864434	0.432568	0.803282
O19	O	-1.960385	-0.216352	0.136617
O20	O	-1.627052	0.116981	0.469950
O21	O	-1.293719	0.450315	0.803283
Zn22	Zn	-1.745741	-0.225225	0.179997
Zn23	Zn	-1.412408	0.108109	0.513330
Zn24	Zn	-1.079074	0.441442	0.846663
Zn25	Zn	-1.745758	-0.225228	-0.179992
Zn26	Zn	-1.412424	0.108105	0.153341
Zn27	Zn	-1.079091	0.441438	0.486675
O28	O	-1.736870	-0.439868	0.136613
O29	O	-1.403536	-0.106534	0.469946
O30	O	-1.070203	0.226799	0.803279
C31	C	-1.752917	0.044403	0.000003
C32	C	-1.419584	0.377736	0.333336
C33	C	-1.086250	0.711069	0.666670
C34	C	-1.747817	0.208245	-0.000005
C35	C	-1.414484	0.541579	0.333329
C36	C	-1.081151	0.874912	0.666662
C37	C	-1.476120	-0.232394	0.000001
C38	C	-1.142787	0.100939	0.333335
C39	C	-0.809454	0.434273	0.666668
C40	C	-1.312277	-0.227294	0.000000
C41	C	-0.978944	0.106039	0.333334
C42	C	-0.645611	0.439372	0.666667
C43	C	-2.015378	-0.218059	-0.000000
C44	C	-1.682045	0.115275	0.333333
C45	C	-1.348712	0.448608	0.666667
C46	C	-2.179221	-0.223158	-0.000010
C47	C	-1.845888	0.110175	0.333323
C48	C	-1.512555	0.443508	0.666657
N49	N	-1.745741	-0.225221	0.425679
N50	N	-1.412407	0.108112	0.759012
N51	N	-1.079074	0.441445	1.092346
C52	C	-1.738582	-0.494855	-0.000002
C53	C	-1.405248	-0.161522	0.333331
C54	C	-1.071915	0.171811	0.666665
C55	C	-1.743681	-0.658698	-0.000005
C56	C	-1.410348	-0.325365	0.333328
C57	C	-1.077015	0.007968	0.666662
N58	N	-1.745770	-0.225220	-0.425674
N59	N	-1.412436	0.108113	-0.092341
N60	N	-1.079103	0.441447	0.240992
