data_functionalizedCrystal
_audit_creation_method	'MofGen! by Chris Wilmer'
_symmetry_space_group_name_H-M	'P1'
_symmetry_Int_Tables_number	1
_symmetry_cell_setting	triclinic
loop_
_symmetry_equiv_pos_as_xyz
  x,y,z
_cell_length_a	12.645331
_cell_length_b	12.759400
_cell_length_c	12.645324
_cell_angle_alpha	89.967510
_cell_angle_beta	89.977874
_cell_angle_gamma	90.014859
loop_
_atom_site_label
_atom_site_type_symbol
_atom_site_fract_x
_atom_site_fract_y
_atom_site_fract_z
Zn1	Zn	1.620746	-0.418182	-0.599444
Zn2	Zn	1.620640	-0.593905	-0.422182
Zn3	Zn	1.443463	-0.418242	-0.422188
Zn4	Zn	1.443452	-0.593820	-0.599397
O5	O	1.532075	-0.506037	-0.510803
O6	O	1.769080	-0.441502	-0.575947
O7	O	1.597097	-0.570664	-0.273835
O8	O	1.467029	-0.271213	-0.445724
O9	O	1.769001	-0.570606	-0.445713
O10	O	1.597279	-0.271169	-0.575954
O11	O	1.466926	-0.441605	-0.273840
O12	O	1.295114	-0.441522	-0.445678
O13	O	1.467011	-0.570460	-0.747750
O14	O	1.295106	-0.570518	-0.575872
O15	O	1.597268	-0.441419	-0.747785
O16	O	1.597086	-0.740915	-0.445667
O17	O	1.466907	-0.740852	-0.575866
C18	C	1.256646	-0.506018	-0.510771
C19	C	1.138816	-0.506035	-0.510783
C20	C	1.093903	-0.424757	-0.429011
C21	C	0.971343	-0.424457	-0.429292
C22	C	0.970983	-0.476496	-0.622691
C23	C	1.093581	-0.475889	-0.622180
C24	C	1.093607	-0.617095	-0.481703
C25	C	0.970999	-0.616515	-0.479277
C26	C	1.532013	-0.779004	-0.510784
C27	C	1.532083	-0.895781	-0.510811
C28	C	1.599874	-0.950530	-0.578679
C29	C	1.599934	-1.060254	-0.578708
C30	C	1.464408	-1.060470	-0.442992
C31	C	1.464344	-0.950748	-0.442969
C32	C	1.637832	-1.210077	-0.703797
C33	C	1.705640	-1.264830	-0.771656
C34	C	1.809049	-1.229121	-0.788019
C35	C	1.844672	-1.138661	-0.736508
C36	C	1.776870	-1.083913	-0.668641
C37	C	1.673446	-1.119621	-0.652298
C38	C	1.426456	-0.800923	-0.317879
C39	C	1.358659	-0.746174	-0.250006
C40	C	1.255247	-0.781881	-0.233632
C41	C	1.219628	-0.872345	-0.285125
C42	C	1.287426	-0.927094	-0.352998
C43	C	1.390836	-0.891379	-0.369373
C44	C	1.808581	-0.506057	-0.510835
C45	C	1.926411	-0.506066	-0.510849
C46	C	1.532167	-0.232004	-0.510845
C47	C	1.532206	-0.115227	-0.510863
C48	C	1.532150	-0.505923	-0.787308
C49	C	1.532182	-0.505875	-0.905138
C50	C	1.614145	-0.424678	-0.950042
C51	C	1.614497	-0.424890	-1.072602
C52	C	1.562144	-0.616645	-1.073018
C53	C	1.562708	-0.616203	-0.950420
C54	C	1.420115	-0.477212	-0.950309
C55	C	1.420747	-0.474742	-1.072916
C56	C	1.532062	-0.506075	-0.235373
C57	C	1.532235	-0.505827	-0.117544
H58	H	1.124725	-0.342930	-0.448070
H59	H	1.510657	-0.771831	-0.331220
F60	F	1.391252	-0.368146	-1.110959
H61	H	1.805875	-1.010264	-0.626699
F62	F	1.669767	-0.647892	-0.913055
H63	H	1.135423	-0.901421	-0.271790
F64	F	1.881214	-1.287398	-0.860238
F65	F	1.723051	-0.449730	-1.110959
F66	F	1.131595	-0.696246	-0.559528
H67	H	1.595808	-0.342733	-1.102710
F68	F	1.590004	-0.316964	-0.911549
F69	F	1.392317	-1.118980	-0.370795
H70	H	1.504291	-0.678783	-1.102124
F71	F	1.396575	-0.649901	-0.195192
F72	F	1.671966	-0.892034	-0.650886
H73	H	1.200048	-0.737295	-0.178361
F74	F	0.931943	-0.448562	-0.320912
F75	F	1.488047	-0.697998	-0.911585
F76	F	1.722072	-0.449220	-0.909806
F77	F	1.132370	-0.448567	-0.320269
F78	F	1.384409	-0.373400	-0.909918
F79	F	1.132427	-0.549932	-0.704571
H80	H	1.643153	-0.641309	-1.103758
H81	H	1.359053	-0.536347	-0.921265
F82	F	1.954742	-1.100671	-0.753914
F83	F	0.933023	-0.316904	-0.454536
H84	H	1.122195	-0.394721	-0.646762
F85	F	0.932954	-0.551518	-0.704542
H86	H	0.941862	-0.638820	-0.396965
H87	H	1.356458	-0.529526	-1.103504
F88	F	0.930877	-0.371582	-0.655399
F89	F	1.527764	-1.248079	-0.686403
H90	H	1.124474	-0.644091	-0.401503
H91	H	1.676626	-1.338483	-0.813596
F92	F	0.931055	-0.699864	-0.551438
F93	F	1.249512	-1.023372	-0.407805
