data_functionalizedCrystal
_audit_creation_method	'MofGen! by Chris Wilmer'
_symmetry_space_group_name_H-M	'P1'
_symmetry_Int_Tables_number	1
_symmetry_cell_setting	triclinic
loop_
_symmetry_equiv_pos_as_xyz
  x,y,z
_cell_length_a	21.295417
_cell_length_b	12.759395
_cell_length_c	12.759387
_cell_angle_alpha	90.020509
_cell_angle_beta	89.961464
_cell_angle_gamma	89.967956
loop_
_atom_site_label
_atom_site_type_symbol
_atom_site_fract_x
_atom_site_fract_y
_atom_site_fract_z
Zn1	Zn	-0.250550	-1.606153	-0.593949
Zn2	Zn	-0.355833	-1.605995	-0.418245
Zn3	Zn	-0.250585	-1.430451	-0.418285
Zn4	Zn	-0.355788	-1.430395	-0.593884
O5	O	-0.303189	-1.518249	-0.506091
O6	O	-0.264521	-1.753153	-0.570651
O7	O	-0.341905	-1.582667	-0.271229
O8	O	-0.162491	-1.453848	-0.441631
O9	O	-0.341871	-1.753037	-0.441563
O10	O	-0.162465	-1.582936	-0.570690
O11	O	-0.264579	-1.453695	-0.271259
O12	O	-0.264536	-1.283423	-0.441569
O13	O	-0.341795	-1.453753	-0.740914
O14	O	-0.341828	-1.283382	-0.570581
O15	O	-0.264477	-1.582881	-0.740961
O16	O	-0.443917	-1.582612	-0.441501
O17	O	-0.443884	-1.453600	-0.570542
C18	C	-0.303181	-1.245281	-0.506073
C19	C	-0.303193	-1.128505	-0.506090
C20	C	-0.466741	-1.518111	-0.506033
C21	C	-0.536709	-1.518148	-0.506043
C22	C	-0.303127	-1.518328	-0.780125
C23	C	-0.303101	-1.518362	-0.896901
C24	C	-0.569572	-1.585385	-0.438920
C25	C	-0.635314	-1.585434	-0.438944
C26	C	-0.668191	-1.518228	-0.506079
C27	C	-0.635320	-1.450987	-0.573215
C28	C	-0.569579	-1.450947	-0.573197
N29	N	-0.771458	-1.426321	-0.514083
N30	N	-0.833909	-1.426362	-0.514094
C31	C	-0.866266	-1.518346	-0.506139
N32	N	-0.833812	-1.610289	-0.498153
N33	N	-0.771355	-1.610247	-0.498137
C34	C	-0.739477	-1.518264	-0.506107
C35	C	-0.970414	-1.585641	-0.439039
C36	C	-1.036158	-1.585692	-0.439070
C37	C	-1.036163	-1.451236	-0.573336
C38	C	-0.970421	-1.451194	-0.573310
C39	C	-0.937550	-1.518395	-0.506156
C40	C	-0.138999	-1.518416	-0.506172
C41	C	-0.069031	-1.518487	-0.506207
C42	C	-0.303197	-1.792282	-0.506110
C43	C	-0.303201	-1.909059	-0.506118
C44	C	-0.383808	-1.128500	-0.640213
C45	C	-0.424121	-1.073637	-0.707277
C46	C	-0.424129	-0.963916	-0.707290
C47	C	-0.383818	-0.909055	-0.640233
C48	C	-0.343506	-0.963918	-0.573169
C49	C	-0.343504	-1.073642	-0.573161
C50	C	-0.262888	-0.963922	-0.439053
C51	C	-0.262883	-1.073644	-0.439034
C52	C	-0.222578	-0.909061	-0.371997
C53	C	-0.182267	-0.963924	-0.304926
C54	C	-0.182262	-1.073652	-0.304915
C55	C	-0.222570	-1.128507	-0.371969
C56	C	-0.222595	-1.652833	-0.896970
C57	C	-0.182333	-1.720083	-0.951865
C58	C	-0.182310	-1.720108	-1.061587
C59	C	-0.222552	-1.652874	-1.116416
C60	C	-0.262815	-1.585624	-1.061521
C61	C	-0.262835	-1.585608	-0.951797
C62	C	-0.343316	-1.451150	-1.061452
C63	C	-0.343344	-1.451128	-0.951730
C64	C	-0.383559	-1.383916	-1.116281
C65	C	-0.423825	-1.316670	-1.061386
C66	C	-0.423847	-1.316648	-0.951657
C67	C	-0.383606	-1.383878	-0.896835
C68	C	-0.303205	-1.518230	-0.233123
C69	C	-0.303054	-1.518400	-0.116347
H70	H	-0.542810	-1.640107	-0.384242
Cl71	Cl	-0.474804	-0.894942	-0.791606
H72	H	-0.662076	-1.640190	-0.384284
Cl73	Cl	-0.383811	-1.266437	-0.640187
H74	H	-1.062931	-1.396520	-0.628003
H75	H	-0.222616	-1.652829	-0.807629
Cl76	Cl	-0.383530	-1.383948	-1.254218
H77	H	-0.149447	-0.919247	-0.250339
Cl78	Cl	-0.929105	-1.366658	-0.657693
H79	H	-0.149430	-1.118315	-0.250310
H80	H	-0.222525	-1.652892	-1.205757
Cl81	Cl	-0.474407	-1.232152	-1.130318
Cl82	Cl	-0.131730	-1.804576	-0.882933
Cl83	Cl	-0.474463	-1.232094	-0.882655
Cl84	Cl	-0.474799	-1.142610	-0.791565
Cl85	Cl	-0.383633	-1.383861	-0.758898
H86	H	-0.662093	-1.396269	-0.627879
Cl87	Cl	-0.383820	-0.771118	-0.640267
Cl88	Cl	-0.528264	-1.366413	-0.657587
Cl89	Cl	-0.929088	-1.670121	-0.354618
H90	H	-0.222584	-0.819720	-0.372017
Cl91	Cl	-0.131684	-1.804635	-1.130602
H92	H	-1.062914	-1.640451	-0.384412
H93	H	-0.222571	-1.217848	-0.371964
