data_functionalizedCrystal
_audit_creation_method	'MofGen! by Chris Wilmer'
_symmetry_space_group_name_H-M	'P1'
_symmetry_Int_Tables_number	1
_symmetry_cell_setting	triclinic
loop_
_symmetry_equiv_pos_as_xyz
  x,y,z
_cell_length_a	27.731994
_cell_length_b	14.853569
_cell_length_c	13.330367
_cell_angle_alpha	89.994190
_cell_angle_beta	89.998540
_cell_angle_gamma	83.128050
loop_
_atom_site_label
_atom_site_type_symbol
_atom_site_fract_x
_atom_site_fract_y
_atom_site_fract_z
O1	O	0.641447	0.107036	-0.083283
O2	O	0.500727	0.123398	-0.083317
O3	O	0.574846	-0.016075	-0.083290
O4	O	0.567329	0.246509	-0.083311
O5	O	0.574835	-0.016078	0.083558
O6	O	0.500716	0.123395	0.083530
O7	O	0.641437	0.107033	0.083564
Cu8	Cu	0.571075	0.115214	0.098782
Cu9	Cu	0.571088	0.115217	-0.098535
O10	O	0.567318	0.246506	0.083537
C11	C	0.482712	0.123061	0.000102
C12	C	0.429051	0.122049	0.000090
C13	C	0.096297	0.115677	0.091077
C14	C	-0.105379	0.111832	0.091089
O15	O	-0.131459	0.111295	0.168437
N16	N	-0.130590	0.111356	0.000141
C17	C	-0.105379	0.111836	-0.090817
O18	O	-0.131449	0.111333	-0.168174
C19	C	0.096297	0.115674	-0.090827
C20	C	0.121505	0.116159	0.000127
C21	C	0.121505	0.116161	0.182024
C22	C	0.171921	0.117127	0.182020
C23	C	0.197129	0.117609	0.091070
C24	C	0.171921	0.117125	0.000123
C25	C	0.121508	0.116147	-0.181784
C26	C	0.171930	0.117105	-0.181779
C27	C	0.197138	0.117590	-0.090824
C28	C	0.247544	0.118574	-0.090832
N29	N	0.272755	0.119049	0.000117
C30	C	0.247547	0.118567	0.091067
C31	C	-0.211262	0.109822	-0.090805
C32	C	-0.261680	0.108864	-0.090802
C33	C	-0.261677	0.108859	0.091104
C34	C	-0.211258	0.109824	0.091101
C35	C	-0.186050	0.110298	0.000144
C36	C	0.353424	0.120597	0.091052
C37	C	0.403844	0.121567	0.091041
C38	C	0.403836	0.121567	-0.090865
C39	C	0.353420	0.120602	-0.090854
C40	C	0.328216	0.120114	0.000113
O41	O	0.273656	0.119101	-0.168139
O42	O	0.273628	0.119050	0.168413
C43	C	0.045882	0.114711	0.091081
C44	C	0.020673	0.114227	0.000135
C45	C	0.045881	0.114709	-0.090816
C46	C	-0.029745	0.113269	0.000137
C47	C	-0.054953	0.112787	0.091088
C48	C	-0.029742	0.113263	0.182036
C49	C	0.020674	0.114229	0.182032
C50	C	0.020670	0.114233	-0.181764
C51	C	-0.029746	0.113268	-0.181753
C52	C	-0.054953	0.112786	-0.090802
C53	C	0.574499	-0.049659	0.000134
C54	C	0.573478	-0.149726	0.000135
C55	C	0.528971	-0.185363	0.000126
C56	C	0.617026	-0.208116	0.000136
C57	C	0.616069	-0.302135	0.000132
C58	C	0.571561	-0.337771	0.000123
C59	C	0.528012	-0.279389	0.000119
C60	C	0.659617	-0.360523	0.000126
C61	C	0.658661	-0.454548	0.000120
C62	C	0.614153	-0.490186	0.000119
C63	C	0.570602	-0.431798	0.000115
C64	C	0.526095	-0.467434	0.000106
C65	C	0.482543	-0.409048	0.000110
C66	C	0.483504	-0.315027	0.000117
C67	C	0.613192	-0.584206	0.000112
C68	C	0.525136	-0.561461	0.000099
C69	C	0.659451	0.107371	0.000142
C70	C	0.713112	0.108382	0.000148
N71	N	0.571070	0.115211	0.237563
C72	C	0.567664	0.280091	0.000111
C73	C	0.568685	0.380158	0.000103
N74	N	0.571097	0.115213	-0.237316
C75	C	0.538267	0.176952	0.710174
C76	C	0.603922	0.053476	0.710166
C77	C	0.603917	0.053473	0.605148
C78	C	0.571086	0.115212	0.552638
C79	C	0.538261	0.176953	0.605146
C80	C	0.636745	-0.008261	0.552632
C81	C	0.636741	-0.008266	0.447607
C82	C	0.603908	0.053469	0.395095
C83	C	0.571081	0.115213	0.447609
C84	C	0.538250	0.176951	0.395099
C85	C	0.505421	0.238691	0.447612
C86	C	0.505428	0.238688	0.552634
C87	C	0.603900	0.053472	0.290073
C88	C	0.538245	0.176952	0.290071
H89	H	-0.190737	0.110220	0.165164
H90	H	0.488892	-0.590468	0.000101
H91	H	0.630654	0.003214	0.752923
H92	H	0.478692	0.288963	0.404846
H93	H	0.663472	-0.058538	0.404857
H94	H	0.424369	0.121964	-0.164915
H95	H	0.446305	-0.438075	0.000097
H96	H	0.448047	-0.267481	0.000118
H97	H	0.630632	0.003209	0.247322
H98	H	0.100987	0.115767	0.256091
H99	H	0.653262	-0.179095	0.000163
H100	H	0.424366	0.121965	0.165110
H101	H	0.041189	0.114623	-0.255829
H102	H	0.663477	-0.058523	0.595389
H103	H	0.511536	0.227217	0.752932
H104	H	0.695853	-0.331501	0.000195
H105	H	0.493512	-0.137820	0.000133
H106	H	0.192451	0.117491	-0.255849
H107	H	0.332908	0.120208	0.165126
H108	H	0.694124	-0.502079	0.000119
H109	H	0.648651	-0.631740	0.000099
H110	H	0.192441	0.117517	0.256085
H111	H	-0.282210	0.108469	0.165160
H112	H	-0.282201	0.108484	-0.164866
H113	H	0.100992	0.115751	-0.255849
H114	H	-0.190742	0.110208	-0.164877
H115	H	0.511508	0.227225	0.247324
H116	H	0.332894	0.120222	-0.164916
H117	H	0.041194	0.114624	0.256096
H118	H	0.478700	0.288955	0.595396
H119	H	-0.050275	0.112875	0.256091
H120	H	-0.050266	0.112881	-0.255825
