data_functionalizedCrystal
_audit_creation_method	'MofGen! by Chris Wilmer'
_symmetry_space_group_name_H-M	'P1'
_symmetry_Int_Tables_number	1
_symmetry_cell_setting	triclinic
loop_
_symmetry_equiv_pos_as_xyz
  x,y,z
_cell_length_a	14.044220
_cell_length_b	13.339070
_cell_length_c	12.503584
_cell_angle_alpha	85.519063
_cell_angle_beta	93.835451
_cell_angle_gamma	104.409086
loop_
_atom_site_label
_atom_site_type_symbol
_atom_site_fract_x
_atom_site_fract_y
_atom_site_fract_z
O1	O	-1.327425	-0.244336	-0.089193
O2	O	-0.827425	0.255664	0.410807
O3	O	-1.049086	-0.235319	-0.089221
O4	O	-0.549086	0.264681	0.410779
O5	O	-1.156311	-0.089681	-0.089207
O6	O	-0.656311	0.410319	0.410793
O7	O	-1.220200	-0.389974	-0.089207
O8	O	-0.720200	0.110026	0.410793
O9	O	-1.148252	-0.100656	0.089434
O10	O	-0.648252	0.399344	0.589434
O11	O	-1.041028	-0.246294	0.089420
O12	O	-0.541028	0.253706	0.589420
O13	O	-1.319366	-0.255310	0.089447
O14	O	-0.819366	0.244690	0.589447
Cu15	Cu	-1.179461	-0.251804	0.105745
Cu16	Cu	-0.679461	0.248196	0.605745
Cu17	Cu	-1.188992	-0.238825	-0.105519
Cu18	Cu	-0.688992	0.261175	0.394481
O19	O	-1.212141	-0.400948	0.089434
O20	O	-0.712141	0.099052	0.589434
C21	C	-1.008705	-0.236860	0.000096
C22	C	-0.508705	0.263140	0.500096
C23	C	-0.900384	-0.225089	0.000085
C24	C	-0.400384	0.274911	0.500085
C25	C	-1.141490	-0.056505	0.000111
C26	C	-0.641490	0.443495	0.500111
C27	C	-1.109322	0.058700	0.000103
C28	C	-0.609322	0.558700	0.500103
C29	C	-1.359748	-0.253769	0.000128
C30	C	-0.859748	0.246231	0.500128
C31	C	-1.468069	-0.265540	0.000132
C32	C	-0.968069	0.234460	0.500132
C33	C	-0.702062	-0.203571	0.000106
C34	C	-0.202062	0.296429	0.500106
C35	C	-0.666384	-0.287053	0.000111
C36	C	-0.166384	0.212947	0.500111
C37	C	-0.556031	-0.275080	0.000123
C38	C	-0.056031	0.224920	0.500123
C39	C	-0.812425	-0.215543	0.000094
C40	C	-0.312425	0.284457	0.500094
C41	C	-1.226963	-0.434124	0.000113
C42	C	-0.726963	0.065876	0.500113
C43	C	-1.259132	-0.549329	0.000114
C44	C	-0.759132	-0.049329	0.500114
N45	N	-1.172765	-0.260932	0.254336
N46	N	-0.672765	0.239068	0.754336
C47	C	-1.359447	0.400920	0.000129
C48	C	-0.859447	0.900920	0.500129
C49	C	-1.389673	0.292679	0.000142
C50	C	-0.889673	0.792679	0.500142
C51	C	-1.319588	0.234179	0.000132
C52	C	-0.819588	0.734179	0.500132
C53	C	-1.219271	0.283931	0.000109
C54	C	-0.719271	0.783931	0.500109
C55	C	-1.189041	0.392182	0.000105
C56	C	-0.689041	0.892182	0.500105
C57	C	-1.149182	0.225441	0.000108
C58	C	-0.649182	0.725441	0.500108
C59	C	-1.048865	0.275192	0.000085
C60	C	-0.548865	0.775192	0.500085
C61	C	-1.018640	0.383433	0.000080
C62	C	-0.518640	0.883433	0.500080
C63	C	-1.088726	0.441933	0.000090
C64	C	-0.588726	0.941933	0.500090
C65	C	-1.179412	0.117189	0.000112
C66	C	-0.679412	0.617189	0.500112
C67	C	-1.009006	0.108451	0.000088
C68	C	-0.509006	0.608451	0.500088
C69	C	-0.978780	0.216692	0.000075
C70	C	-0.478780	0.716692	0.500075
C71	C	-1.162916	-0.274369	0.473450
C72	C	-0.662916	0.225631	0.973450
C73	C	-1.205539	-0.216266	0.526783
C74	C	-0.705539	0.283734	1.026783
C75	C	-1.200059	-0.223742	0.648705
C76	C	-0.700059	0.276258	1.148705
C77	C	-1.168395	-0.266894	0.351517
C78	C	-0.668395	0.233106	0.851517
N79	N	-1.195693	-0.229700	0.745890
N80	N	-0.695693	0.270300	1.245890
H81	H	-0.718717	-0.367515	0.000105
H82	H	-0.218717	0.132485	0.500105
Br83	Br	-1.095242	-0.366636	0.549959
Br84	Br	-0.595242	0.133364	1.049959
H85	H	-1.261091	0.076692	0.000131
H86	H	-0.761091	0.576692	0.500131
Br87	Br	-0.614842	-0.069469	0.000112
Br88	Br	-0.114842	0.430531	0.500112
H89	H	-0.936956	0.423937	0.000070
H90	H	-0.436956	0.923937	0.500070
Br91	Br	-1.360611	0.087278	0.000146
Br92	Br	-0.860611	0.587278	0.500146
Br93	Br	-1.047713	0.588848	-0.000073
Br94	Br	-0.547713	1.088848	0.499927
Br95	Br	-1.525812	0.225167	0.000149
Br96	Br	-1.025812	0.725167	0.500149
Br97	Br	-0.913883	0.029067	0.000087
Br98	Br	-0.413883	0.529067	0.500087
Br99	Br	-1.454549	0.480314	0.000168
Br100	Br	-0.954549	0.980314	0.500168
H101	H	-0.897100	0.257215	0.000058
H102	H	-0.397100	0.757215	0.500058
Br103	Br	-1.273744	-0.124471	0.450275
Br104	Br	-0.773744	0.375529	0.950275
