data_functionalizedCrystal
_audit_creation_method	'MofGen! by Chris Wilmer'
_symmetry_space_group_name_H-M	'P1'
_symmetry_Int_Tables_number	1
_symmetry_cell_setting	triclinic
loop_
_symmetry_equiv_pos_as_xyz
  x,y,z
_cell_length_a	13.033293
_cell_length_b	29.839131
_cell_length_c	13.032268
_cell_angle_alpha	82.855359
_cell_angle_beta	90.920818
_cell_angle_gamma	97.211142
loop_
_atom_site_label
_atom_site_type_symbol
_atom_site_fract_x
_atom_site_fract_y
_atom_site_fract_z
Zn1	Zn	1.498328	-0.139775	0.781461
Zn2	Zn	1.831662	0.193558	1.114794
Zn3	Zn	2.164995	0.526891	1.448128
Zn4	Zn	1.520009	-0.204339	0.609478
Zn5	Zn	1.853343	0.128995	0.942811
Zn6	Zn	2.186676	0.462328	1.276145
Zn7	Zn	1.348191	-0.137403	0.587637
Zn8	Zn	1.681524	0.195930	0.920970
Zn9	Zn	2.014857	0.529264	1.254304
Zn10	Zn	1.326242	-0.223067	0.759515
Zn11	Zn	1.659575	0.110266	1.092849
Zn12	Zn	1.992909	0.443599	1.426182
O13	O	1.423193	-0.176146	0.684523
O14	O	1.756526	0.157187	1.017856
O15	O	2.089859	0.490521	1.351190
O16	O	1.645130	-0.141495	0.776972
O17	O	1.978463	0.191839	1.110305
O18	O	2.311796	0.525172	1.443639
O19	O	1.515476	-0.186629	0.462674
O20	O	1.848810	0.146705	0.796007
O21	O	2.182143	0.480038	1.129340
O22	O	1.368219	-0.074847	0.613392
O23	O	1.701552	0.258487	0.946725
O24	O	2.034886	0.591820	1.280059
O25	O	1.661058	-0.188929	0.650617
O26	O	1.994392	0.144404	0.983950
O27	O	2.327725	0.477738	1.317284
O28	O	1.478524	-0.076590	0.755794
O29	O	1.811858	0.256744	1.089127
O30	O	2.145191	0.590077	1.422460
O31	O	1.389242	-0.137451	0.446627
O32	O	1.722575	0.195882	0.779961
O33	O	2.055909	0.529216	1.113294
O34	O	1.201354	-0.155612	0.592112
O35	O	1.534687	0.177722	0.925445
O36	O	1.868021	0.511055	1.258779
O37	O	1.330810	-0.220850	0.906334
O38	O	1.664144	0.112484	1.239667
O39	O	1.997477	0.445817	1.573000
O40	O	1.185228	-0.218549	0.718390
O41	O	1.518562	0.114784	1.051724
O42	O	1.851895	0.448118	1.385057
O43	O	1.457241	-0.159655	0.922457
O44	O	1.790575	0.173678	1.255790
O45	O	2.123908	0.507011	1.589124
O46	O	1.494193	-0.269694	0.629337
O47	O	1.827527	0.063639	0.962670
O48	O	2.160860	0.396973	1.296004
O49	O	1.351834	-0.283454	0.739569
O50	O	1.685167	0.049879	1.072902
O51	O	2.018500	0.383213	1.406235
C52	C	1.155973	-0.188856	0.650500
C53	C	1.489306	0.144478	0.983834
C54	C	1.822639	0.477811	1.317167
C55	C	1.041652	-0.194305	0.635970
C56	C	1.374985	0.139028	0.969303
C57	C	1.708319	0.472362	1.302636
C58	C	0.982790	-0.173313	0.692106
C59	C	1.316124	0.160020	1.025440
C60	C	1.649457	0.493353	1.358773
C61	C	0.864633	-0.178945	0.677090
C62	C	1.197967	0.154388	1.010423
C63	C	1.531300	0.487722	1.343756
C64	C	1.423010	-0.292876	0.684468
C65	C	1.756343	0.040458	1.017801
C66	C	2.089676	0.373791	1.351134
C67	C	1.423021	-0.342811	0.684490
C68	C	1.756354	-0.009477	1.017824
C69	C	2.089688	0.323856	1.351157
C70	C	1.349109	-0.706568	0.741921
C71	C	1.682442	-0.373235	1.075255
C72	C	2.015775	-0.039902	1.408588
C73	C	1.348977	-0.518900	0.741872
C74	C	1.682310	-0.185567	1.075205
C75	C	2.015643	0.147767	1.408539
O76	O	1.285912	-0.500741	0.790654
O77	O	1.619246	-0.167408	1.123988
O78	O	1.952579	0.165925	1.457321
N79	N	1.423126	-0.488253	0.684535
N80	N	1.756459	-0.154919	1.017868
N81	N	2.089792	0.178414	1.351201
C82	C	1.497317	-0.504525	0.627211
C83	C	1.830650	-0.171191	0.960544
C84	C	2.163984	0.162142	1.293878
O85	O	1.560389	-0.474151	0.578450
O86	O	1.893722	-0.140818	0.911783
O87	O	2.227056	0.192515	1.245116
C88	C	1.497453	-0.692193	0.627267
C89	C	1.830786	-0.358859	0.960600
C90	C	2.164119	-0.025526	1.293934
C91	C	1.423292	-0.722838	0.684600
C92	C	1.756626	-0.389505	1.017933
C93	C	2.089959	-0.056171	1.351267
C94	C	1.274955	-0.737213	0.799250
C95	C	1.608288	-0.403880	1.132584
C96	C	1.941622	-0.070546	1.465917
C97	C	1.274985	-0.784127	0.799258
C98	C	1.608319	-0.450794	1.132591
C99	C	1.941652	-0.117461	1.465924
C100	C	1.349169	-0.800397	0.741936
C101	C	1.682502	-0.467063	1.075269
C102	C	2.015836	-0.133730	1.408603
C103	C	1.423323	-0.769752	0.684607
C104	C	1.756656	-0.436419	1.017941
C105	C	2.089989	-0.103085	1.351274
C106	C	1.571648	-0.708464	0.569950
C107	C	1.904981	-0.375131	0.903283
C108	C	2.238314	-0.041797	1.236617
C109	C	1.571677	-0.755385	0.569971
C110	C	1.905010	-0.422051	0.903305
C111	C	2.238343	-0.088718	1.236638
C112	C	1.497516	-0.786030	0.627304
C113	C	1.830850	-0.452697	0.960637
C114	C	2.164183	-0.119363	1.293971
C115	C	1.497537	-0.832936	0.627293
C116	C	1.830870	-0.499602	0.960626
C117	C	2.164203	-0.166269	1.293960
N118	N	1.423388	-0.863583	0.684630
N119	N	1.756721	-0.530250	1.017963
N120	N	2.090054	-0.196916	1.351297
C121	C	1.349204	-0.847314	0.741952
C122	C	1.682537	-0.513980	1.075285
C123	C	2.015871	-0.180647	1.408618
C124	C	1.497239	-0.405997	0.627184
C125	C	1.830573	-0.072664	0.960518
C126	C	2.163906	0.260670	1.293851
C127	C	1.497205	-0.359080	0.627169
C128	C	1.830538	-0.025747	0.960502
C129	C	2.163871	0.307587	1.293835
C130	C	1.348865	-0.373459	0.741831
C131	C	1.682199	-0.040125	1.075165
C132	C	2.015532	0.293208	1.408498
C133	C	1.348896	-0.420376	0.741840
C134	C	1.682230	-0.087043	1.075174
C135	C	2.015563	0.246291	1.408507
C136	C	1.423091	-0.436644	0.684521
C137	C	1.756424	-0.103311	1.017855
C138	C	2.089757	0.230022	1.351188
C139	C	1.349272	-0.945836	0.741962
C140	C	1.682606	-0.612503	1.075295
C141	C	2.015939	-0.279170	1.408629
C142	C	1.349307	-0.992754	0.741961
C143	C	1.682640	-0.659421	1.075294
C144	C	2.015973	-0.326087	1.408628
C145	C	1.497649	-0.978372	0.627303
C146	C	1.830982	-0.645038	0.960636
C147	C	2.164316	-0.311705	1.293970
C148	C	1.497612	-0.931458	0.627299
C149	C	1.830945	-0.598125	0.960633
C150	C	2.164279	-0.264791	1.293966
C151	C	1.423419	-0.915192	0.684637
C152	C	1.756753	-0.581859	1.017970
C153	C	2.090086	-0.248525	1.351304
O154	O	1.560575	-0.851126	0.578545
O155	O	1.893909	-0.517793	0.911879
O156	O	2.227242	-0.184460	1.245212
O157	O	1.286156	-0.877694	0.790724
O158	O	1.619489	-0.544361	1.124058
O159	O	1.952822	-0.211028	1.457391
C160	C	1.349078	-0.659654	0.741914
C161	C	1.682412	-0.326321	1.075247
C162	C	2.015745	0.007012	1.408581
C163	C	1.423232	-0.629009	0.684585
C164	C	1.756565	-0.295676	1.017919
C165	C	2.089899	0.037657	1.351252
C166	C	1.497416	-0.645279	0.627264
C167	C	1.830749	-0.311946	0.960597
C168	C	2.164082	0.021388	1.293930
C169	C	1.423197	-0.582093	0.684570
C170	C	1.756530	-0.248759	1.017903
C171	C	2.089864	0.084574	1.351236
C172	C	1.349013	-0.565823	0.741891
C173	C	1.682347	-0.232490	1.075225
C174	C	2.015680	0.100843	1.408558
C175	C	1.274864	-0.596471	0.799228
C176	C	1.608198	-0.263137	1.132562
C177	C	1.941531	0.070196	1.465895
C178	C	1.274895	-0.643385	0.799236
C179	C	1.608228	-0.310051	1.132569
C180	C	1.941561	0.023282	1.465902
C181	C	1.571565	-0.614632	0.569926
C182	C	1.904898	-0.281298	0.903260
C183	C	2.238231	0.052035	1.236593
C184	C	1.571528	-0.567718	0.569923
C185	C	1.904861	-0.234385	0.903256
C186	C	2.238194	0.098949	1.236589
C187	C	1.497344	-0.551448	0.627244
C188	C	1.830677	-0.218115	0.960578
C189	C	2.164010	0.115218	1.293911
C190	C	1.691456	-0.163387	0.718679
C191	C	2.024789	0.169946	1.052012
C192	C	2.358122	0.503279	1.385345
C193	C	1.805773	-0.157950	0.733234
C194	C	2.139107	0.175383	1.066567
C195	C	2.472440	0.508716	1.399901
C196	C	1.389159	-0.192606	0.952752
C197	C	1.722492	0.140727	1.286085
C198	C	2.055826	0.474061	1.619419
C199	C	1.374656	-0.199620	1.067055
C200	C	1.707989	0.133713	1.400389
C201	C	2.041323	0.467046	1.733722
C202	C	1.423401	-0.058961	0.684605
C203	C	1.756735	0.274373	1.017938
C204	C	2.090068	0.607706	1.351271
C205	C	1.423490	-0.009023	0.684639
C206	C	1.756824	0.324310	1.017973
C207	C	2.090157	0.657643	1.351306
C208	C	1.457153	-0.159715	0.417345
C209	C	1.790486	0.173618	0.750678
C210	C	2.123819	0.506952	1.084011
C211	C	1.471855	-0.152565	0.303067
C212	C	1.805188	0.180769	0.636401
C213	C	2.138522	0.514102	0.969734
C214	C	1.430746	-0.172470	1.125993
C215	C	1.764079	0.160863	1.459326
C216	C	2.097412	0.494197	1.792660
C217	C	1.415758	-0.179719	1.244132
C218	C	1.749091	0.153614	1.577465
C219	C	2.082424	0.486948	1.910798
H220	H	0.842849	-0.135805	0.792411
H221	H	1.176183	0.197528	1.125745
H222	H	1.509516	0.530862	1.459078
F223	F	1.195910	-0.579147	0.860231
F224	F	1.529243	-0.245814	1.193565
F225	F	1.862577	0.087520	1.526898
F226	F	1.338477	-0.217117	1.292486
F227	F	1.671810	0.116217	1.625819
F228	F	2.005143	0.449550	1.959153
H229	H	1.530970	-0.123949	1.266070
H230	H	1.864304	0.209384	1.599403
H231	H	2.197637	0.542718	1.932736
F232	F	0.993190	-0.223243	0.558613
F233	F	1.326524	0.110090	0.891946
F234	F	1.659857	0.443423	1.225280
H235	H	0.827557	-0.201087	0.617906
H236	H	1.160890	0.132247	0.951239
H237	H	1.494224	0.465580	1.284572
H238	H	1.557991	-0.906505	0.580602
H239	H	1.891324	-0.573172	0.913936
H240	H	2.224657	-0.239839	1.247269
H241	H	1.214595	-0.809075	0.845942
H242	H	1.547928	-0.475742	1.179275
H243	H	1.881262	-0.142409	1.512609
F244	F	1.650463	-0.535107	0.508894
F245	F	1.983796	-0.201774	0.842227
F246	F	2.317129	0.131560	1.175560
H247	H	1.019872	-0.151170	0.751280
H248	H	1.353205	0.182163	1.084614
H249	H	1.686539	0.515496	1.417947
F250	F	1.297379	-0.237016	1.115414
F251	F	1.630713	0.096317	1.448748
F252	F	1.964046	0.429650	1.782081
F253	F	1.507997	-0.135064	1.077631
F254	F	1.841330	0.198269	1.410964
F255	F	2.174663	0.531603	1.744297
H256	H	1.288914	-1.017704	0.788650
H257	H	1.622247	-0.684371	1.121984
H258	H	1.955581	-0.351038	1.455317
H259	H	1.214546	-0.723972	0.845933
H260	H	1.547879	-0.390638	1.179267
H261	H	1.881212	-0.057305	1.512600
F262	F	1.270308	-0.928532	0.802987
F263	F	1.603641	-0.595198	1.136320
F264	F	1.936975	-0.261865	1.469653
H265	H	1.288513	-0.445325	0.788532
H266	H	1.621847	-0.111992	1.121865
H267	H	1.955180	0.221342	1.455199
H268	H	1.288460	-0.360204	0.788503
H269	H	1.621794	-0.026871	1.121836
H270	H	1.955127	0.306462	1.455170
F271	F	1.576126	-0.326470	0.566134
F272	F	1.909459	0.006864	0.899468
F273	F	2.242793	0.340197	1.232801
F274	F	1.576211	-0.423304	0.566172
F275	F	1.909545	-0.089971	0.899505
F276	F	2.242878	0.243362	1.232839
F277	F	1.650648	-0.772695	0.508965
F278	F	1.983982	-0.439362	0.842298
F279	F	2.317315	-0.106028	1.175632
F280	F	1.650588	-0.675859	0.508937
F281	F	1.983922	-0.342525	0.842271
F282	F	2.317255	-0.009192	1.175604
F283	F	1.576599	-0.995695	0.566303
F284	F	1.909932	-0.662362	0.899637
F285	F	2.243266	-0.329029	1.232970
F286	F	1.195965	-0.675994	0.860261
F287	F	1.529298	-0.342661	1.193594
F288	F	1.862632	-0.009328	1.526928
H289	H	1.631976	-0.627872	0.523248
H290	H	1.965309	-0.294539	0.856582
H291	H	2.298643	0.038794	1.189915
