data_functionalizedCrystal
_audit_creation_method	'MofGen! by Chris Wilmer'
_symmetry_space_group_name_H-M	'P1'
_symmetry_Int_Tables_number	1
_symmetry_cell_setting	triclinic
loop_
_symmetry_equiv_pos_as_xyz
  x,y,z
_cell_length_a	15.995350
_cell_length_b	9.130313
_cell_length_c	10.654550
_cell_angle_alpha	89.999890
_cell_angle_beta	83.988639
_cell_angle_gamma	90.003412
loop_
_atom_site_label
_atom_site_type_symbol
_atom_site_fract_x
_atom_site_fract_y
_atom_site_fract_z
O1	O	1.111921	-0.121671	0.161867
O2	O	0.868262	-0.121701	0.181857
O3	O	0.995693	-0.121680	-0.010950
O4	O	0.984489	-0.121692	0.354674
O5	O	0.995692	0.121919	-0.010945
O6	O	0.868260	0.121898	0.181862
O7	O	1.111919	0.121927	0.161873
Cu8	Cu	0.990089	0.144155	0.171868
Cu9	Cu	0.990091	-0.143929	0.171862
O10	O	0.984487	0.121906	0.354680
C11	C	0.837061	0.000095	0.181033
C12	C	0.744096	0.000083	0.178555
N13	N	0.990094	0.346778	0.171871
N14	N	0.990093	-0.346551	0.171848
C15	C	0.406297	0.000114	0.169658
C16	C	0.452934	0.000662	0.032344
C17	C	0.549639	0.000103	0.034822
C18	C	0.573883	0.000100	0.174071
C19	C	0.533190	-0.139004	0.241796
C20	C	0.436535	-0.139110	0.238347
C21	C	0.436210	0.137907	0.241190
C22	C	0.533156	0.139736	0.241157
C23	C	0.668595	0.000086	0.176573
C24	C	0.311585	0.000117	0.167161
C25	C	1.143119	0.000129	0.162696
C26	C	1.236084	0.000130	0.165174
C27	C	0.994870	0.000117	-0.057735
C28	C	0.992409	0.000112	-0.197146
C29	C	1.046536	0.423439	0.086525
C30	C	1.046533	0.576776	0.086510
C31	C	0.933646	0.576777	0.257198
C32	C	0.933644	0.423443	0.257206
C33	C	1.111713	0.423440	-0.012017
C34	C	1.111711	0.576777	-0.012032
C35	C	1.067438	0.000126	-0.277612
C36	C	1.065121	0.000115	-0.408603
C37	C	0.912737	0.000084	-0.378648
C38	C	0.915055	0.000084	-0.247660
C39	C	1.155416	0.000150	-0.294907
C40	C	1.153098	0.000140	-0.425897
C41	C	0.985311	0.000106	0.401464
C42	C	0.987772	0.000101	0.540875
H43	H	0.434092	0.100419	-0.022541
O44	O	0.568953	0.276047	0.175659
H45	H	0.517416	0.339798	0.139639
O46	O	0.426553	-0.130729	-0.040041
H47	H	0.482548	-0.198889	-0.070090
O48	O	1.192532	0.139473	-0.248196
H49	H	1.145335	0.194555	-0.180288
H50	H	1.176054	0.618400	0.008646
H51	H	1.189828	-0.101784	-0.266000
H52	H	1.179687	-0.105036	-0.471890
O53	O	0.554289	0.150886	0.375665
H54	H	0.594322	0.056648	0.396901
H55	H	0.849758	0.000059	-0.419794
O56	O	0.394912	0.139180	0.375289
H57	H	0.353278	0.042205	0.390977
H58	H	1.172504	0.375888	0.017777
O59	O	1.196999	0.135169	-0.481816
H60	H	1.164691	0.234380	-0.440719
O61	O	0.586895	0.132193	-0.035677
H62	H	0.535845	0.197042	-0.071859
O63	O	0.552680	-0.145886	0.377310
H64	H	0.621803	-0.150777	0.380024
O65	O	0.872768	0.659463	0.349247
H66	H	0.882253	0.778966	0.334910
O67	O	0.872765	0.340750	0.349251
H68	H	0.833520	0.419825	0.408593
H69	H	1.091368	0.624324	-0.102989
H70	H	0.577186	-0.099783	-0.018777
O71	O	1.092769	0.368288	-0.139626
H72	H	1.083486	0.462892	-0.202104
H73	H	0.404872	-0.145425	0.339160
O74	O	0.834128	0.000072	-0.160876
H75	H	0.797150	-0.099218	-0.178844
O76	O	0.411903	-0.276827	0.172896
H77	H	0.431041	-0.373970	0.225619
O78	O	0.570397	-0.276141	0.179482
H79	H	0.617860	-0.245578	0.100289
H80	H	0.415414	0.243344	0.196301
