data_functionalizedCrystal
_audit_creation_method	'MofGen! by Chris Wilmer'
_symmetry_space_group_name_H-M	'P1'
_symmetry_Int_Tables_number	1
_symmetry_cell_setting	triclinic
loop_
_symmetry_equiv_pos_as_xyz
  x,y,z
_cell_length_a	16.120530
_cell_length_b	16.120484
_cell_length_c	21.295411
_cell_angle_alpha	87.126946
_cell_angle_beta	92.913216
_cell_angle_gamma	90.167327
loop_
_atom_site_label
_atom_site_type_symbol
_atom_site_fract_x
_atom_site_fract_y
_atom_site_fract_z
Zn1	Zn	-1.254439	0.395645	-0.419035
Zn2	Zn	-1.247290	0.534696	-0.318814
Zn3	Zn	-1.115388	0.388602	-0.308193
Zn4	Zn	-1.108291	0.527598	-0.418459
O5	O	-1.181352	0.461636	-0.366125
O6	O	-1.369856	0.420009	-0.410426
O7	O	-1.229771	0.515339	-0.229316
O8	O	-1.139795	0.273173	-0.318693
O9	O	-1.364604	0.522168	-0.336794
O10	O	-1.241955	0.278348	-0.400128
O11	O	-1.132863	0.408005	-0.221513
O12	O	-0.998081	0.401123	-0.318134
O13	O	-1.127700	0.510072	-0.506625
O14	O	-0.992867	0.503242	-0.399146
O15	O	-1.235074	0.413127	-0.507048
O16	O	-1.222890	0.650118	-0.336236
O17	O	-1.120768	0.644904	-0.409445
C18	C	-0.965302	0.450649	-0.357425
C19	C	-0.872874	0.445968	-0.353719
C20	C	-1.170306	0.677684	-0.373945
C21	C	-1.165657	0.770114	-0.377314
C22	C	-1.181393	0.461593	-0.530315
C23	C	-1.181410	0.461575	-0.600284
C24	C	-1.398246	0.472666	-0.374859
C25	C	-1.490673	0.477366	-0.378581
C26	C	-0.703647	0.437404	-0.346958
C27	C	-0.659894	0.485928	-0.385341
C28	C	-0.565731	0.481163	-0.381579
C29	C	-0.797819	0.442168	-0.350719
C30	C	-1.192464	0.244745	-0.358290
C31	C	-1.197199	0.152319	-0.354951
C32	C	-1.157173	0.939345	-0.383479
C33	C	-1.205680	0.983093	-0.348788
C34	C	-1.200960	1.077259	-0.352218
C35	C	-1.161892	0.845171	-0.380050
C36	C	-1.231972	0.517296	-1.103803
C37	C	-1.231955	0.517322	-1.038061
C38	C	-1.181495	0.461449	-1.001122
C39	C	-1.131032	0.405561	-1.029930
C40	C	-1.131043	0.405542	-1.095671
N41	N	-1.178827	0.388366	-0.895014
N42	N	-1.178820	0.388387	-0.832564
C43	C	-1.181456	0.461504	-0.803047
N44	N	-1.184114	0.534602	-0.838342
N45	N	-1.184124	0.534581	-0.900799
C46	C	-1.181476	0.461464	-0.929836
C47	C	-1.231894	0.517421	-0.702962
C48	C	-1.231872	0.517447	-0.637218
C49	C	-1.130953	0.405679	-0.629088
C50	C	-1.130970	0.405659	-0.694831
C51	C	-1.181445	0.461529	-0.731764
C52	C	-1.181363	0.461620	-0.202573
C53	C	-1.181518	0.461412	-0.132604
H54	H	-0.670389	0.392287	-0.311274
O55	O	-1.286291	0.577731	-0.606155
H56	H	-1.277796	0.568368	-0.554235
O57	O	-1.097463	0.983412	-0.426222
H58	H	-1.112495	0.967481	-0.475617
H59	H	-1.273053	0.562821	-1.014606
O60	O	-1.076613	0.345290	-0.990093
H61	H	-1.032400	0.380361	-0.959774
H62	H	-1.273070	0.562792	-1.133870
O63	O	-0.703946	0.545698	-0.432613
H64	H	-0.683989	0.610116	-0.423447
H65	H	-1.250754	0.949825	-0.316511
H66	H	-1.089957	0.360033	-1.119120
H67	H	-1.272992	0.562915	-0.733034
O68	O	-1.076527	0.345411	-0.589258
H69	H	-1.084998	0.354808	-0.538704
H70	H	-1.089889	0.360149	-0.718280
