data_functionalizedCrystal
_audit_creation_method	'MofGen! by Chris Wilmer'
_symmetry_space_group_name_H-M	'P1'
_symmetry_Int_Tables_number	1
_symmetry_cell_setting	triclinic
loop_
_symmetry_equiv_pos_as_xyz
  x,y,z
_cell_length_a	25.639239
_cell_length_b	12.759401
_cell_length_c	12.759393
_cell_angle_alpha	89.981504
_cell_angle_beta	90.037052
_cell_angle_gamma	89.961153
loop_
_atom_site_label
_atom_site_type_symbol
_atom_site_fract_x
_atom_site_fract_y
_atom_site_fract_z
Zn1	Zn	-0.208118	-1.606080	0.593941
Zn2	Zn	-0.295564	-1.605901	0.418245
Zn3	Zn	-0.208145	-1.430382	0.418281
Zn4	Zn	-0.295524	-1.430297	0.593886
O5	O	-0.251838	-1.518165	0.506088
O6	O	-0.219723	-1.753078	0.570643
O7	O	-0.283996	-1.582579	0.271228
O8	O	-0.134976	-1.453799	0.441621
O9	O	-0.283970	-1.752946	0.441559
O10	O	-0.134956	-1.582884	0.570678
O11	O	-0.219770	-1.453626	0.271255
O12	O	-0.219731	-1.283350	0.441567
O13	O	-0.283901	-1.453655	0.740914
O14	O	-0.283928	-1.283288	0.570584
O15	O	-0.219684	-1.582802	0.740955
O16	O	-0.368724	-1.582496	0.441505
O17	O	-0.368695	-1.453481	0.570549
C18	C	-0.251828	-1.245198	0.506074
C19	C	-0.251837	-1.128421	0.506093
C20	C	-0.387680	-1.517989	0.506040
C21	C	-0.445795	-1.518009	0.506055
C22	C	-0.251785	-1.518239	0.780122
C23	C	-0.251763	-1.518270	0.896898
C24	C	-0.806160	-1.585519	0.439010
C25	C	-0.860765	-1.585560	0.439024
O26	O	-0.889004	-1.642775	0.381967
N27	N	-0.888077	-1.518350	0.506158
C28	C	-0.860782	-1.451103	0.573289
O29	O	-0.889027	-1.393940	0.630394
C30	C	-0.806179	-1.451068	0.573280
C31	C	-0.778869	-1.518275	0.506134
C32	C	-0.778851	-1.652721	0.371870
C33	C	-0.724250	-1.652678	0.371855
C34	C	-0.696959	-1.585434	0.438980
C35	C	-0.724269	-1.518232	0.506119
C36	C	-0.778885	-1.383827	0.640416
C37	C	-0.724278	-1.383799	0.640401
C38	C	-0.696968	-1.451005	0.573256
C39	C	-0.642377	-1.450946	0.573228
N40	N	-0.615065	-1.518155	0.506094
C41	C	-0.642356	-1.585399	0.438970
C42	C	-0.975453	-1.451182	0.573306
C43	C	-1.030055	-1.451210	0.573311
C44	C	-1.030034	-1.585669	0.439046
C45	C	-0.975430	-1.585634	0.439037
C46	C	-0.948140	-1.518391	0.506172
C47	C	-0.527691	-1.585305	0.438943
C48	C	-0.473086	-1.585253	0.438930
C49	C	-0.473111	-1.450799	0.573198
C50	C	-0.527712	-1.450846	0.573207
C51	C	-0.555000	-1.518108	0.506076
O52	O	-0.614103	-1.393762	0.630258
O53	O	-0.614104	-1.642562	0.381885
C54	C	-0.115465	-1.518371	0.506159
C55	C	-0.057351	-1.518459	0.506190
C56	C	-0.251848	-1.792198	0.506103
C57	C	-0.251852	-1.908975	0.506109
C58	C	-0.285318	-1.073554	0.573160
C59	C	-0.285324	-0.963830	0.573172
C60	C	-0.218368	-0.963850	0.439039
C61	C	-0.218359	-1.073572	0.439033
C62	C	-0.318796	-1.128404	0.640220
C63	C	-0.352280	-1.073536	0.707292
C64	C	-0.352286	-0.963812	0.707303
C65	C	-0.318809	-0.908955	0.640242
C66	C	-0.251853	-1.518152	0.233121
C67	C	-0.251728	-1.518325	0.116345
C68	C	-0.218322	-1.585526	0.951783
C69	C	-0.218303	-1.585551	1.061507
C70	C	-0.285170	-1.451061	1.061452
C71	C	-0.285186	-1.451032	0.951730
C72	C	-0.184898	-1.652765	0.896952
C73	C	-0.151455	-1.720027	0.951837
C74	C	-0.151436	-1.720052	1.061561
C75	C	-0.184860	-1.652815	1.116400
H76	H	-0.549903	-1.640078	0.384280
C77	C	-0.314841	-1.391405	1.229627
C78	C	-0.321915	-1.377170	1.121729
H79	H	-0.337530	-1.345793	1.266836
H80	H	-0.279713	-1.376081	1.247629
H81	H	-0.322492	-1.461994	1.247591
H82	H	-0.314260	-1.306582	1.103764
H83	H	-0.357050	-1.392486	1.103720
C84	C	-1.113732	-1.645555	0.379594
C85	C	-1.060039	-1.659681	0.365354
H86	H	-1.132256	-1.691274	0.334131
H87	H	-1.122740	-1.575017	0.364071
H88	H	-1.122615	-1.660813	0.450235
H89	H	-1.051156	-1.644416	0.294714
H90	H	-1.051028	-1.730235	0.380869
H91	H	-0.184911	-1.652754	0.807609
H92	H	-0.191092	-1.118246	0.384429
H93	H	-0.124238	-1.774763	0.907179
C94	C	-0.795636	-1.332593	0.818288
C95	C	-0.808893	-1.309958	0.714235
H96	H	-0.814164	-1.286991	0.863864
H97	H	-0.759213	-1.322954	0.827866
H98	H	-0.804549	-1.403184	0.833706
H99	H	-0.799977	-1.239369	0.698815
H100	H	-0.845324	-1.319588	0.704653
C101	C	-0.662830	-1.369084	0.781709
C102	C	-0.694281	-1.309882	0.714200
H103	H	-0.644314	-1.323449	0.827270
H104	H	-0.638751	-1.409088	0.741721
H105	H	-0.684098	-1.414853	0.821933
H106	H	-0.673012	-1.264118	0.673970
H107	H	-0.718362	-1.269860	0.754192
C108	C	-0.211037	-0.840424	0.297742
C109	C	-0.181577	-0.903558	0.365313
H110	H	-0.188324	-0.803211	0.252219
H111	H	-0.230971	-0.792046	0.337688
H112	H	-0.233789	-0.883205	0.257480
H113	H	-0.158827	-0.860776	0.405581
H114	H	-0.161633	-0.951943	0.325363
C115	C	-0.377848	-1.107370	0.885098
C116	C	-0.389073	-1.133832	0.781008
H117	H	-0.400562	-1.144599	0.930607
H118	H	-0.382646	-1.034180	0.894696
H119	H	-0.342726	-1.125403	0.900586
H120	H	-0.424195	-1.115792	0.765517
H121	H	-0.384280	-1.207038	0.771405
C122	C	-0.359644	-0.840477	0.848618
C123	C	-0.389088	-0.903502	0.781032
H124	H	-0.382367	-0.803252	0.894138
H125	H	-0.339715	-0.792109	0.808683
H126	H	-0.336887	-0.883334	0.888883
H127	H	-0.411842	-0.860644	0.740762
H128	H	-0.409026	-0.951875	0.820972
H129	H	-0.450852	-1.639981	0.384249
H130	H	-0.124201	-1.774813	1.106245
H131	H	-0.549949	-1.396125	0.627886
H132	H	-0.450883	-1.396046	0.627847
H133	H	-0.702018	-1.707407	0.317183
C134	C	-0.351303	-1.318141	0.962688
C135	C	-0.321959	-1.377132	0.891392
H136	H	-0.374010	-1.272528	0.925435
H137	H	-0.328520	-1.277978	1.005482
H138	H	-0.371287	-1.363915	1.005486
H139	H	-0.301972	-1.331359	0.848598
H140	H	-0.344745	-1.417298	0.848579
H141	H	-0.801065	-1.707485	0.317210
H142	H	-0.953198	-1.640360	0.384362
H143	H	-0.318813	-0.819611	0.640266
C144	C	-0.355241	-1.285573	0.713234
C145	C	-0.318788	-1.249013	0.640212
H146	H	-0.355233	-1.360031	0.713229
H147	H	-0.388966	-1.260709	0.694934
H148	H	-0.346239	-1.260783	0.781065
H149	H	-0.327791	-1.273796	0.572378
H150	H	-0.285055	-1.273887	0.658506
H151	H	-1.052286	-1.396474	0.627977
H152	H	-0.953236	-1.396416	0.627972
H153	H	-0.184836	-1.652828	1.205745
