data_functionalizedCrystal
_audit_creation_method	'MofGen! by Chris Wilmer'
_symmetry_space_group_name_H-M	'P1'
_symmetry_Int_Tables_number	1
_symmetry_cell_setting	triclinic
loop_
_symmetry_equiv_pos_as_xyz
  x,y,z
_cell_length_a	16.109301
_cell_length_b	10.723023
_cell_length_c	15.186229
_cell_angle_alpha	89.997261
_cell_angle_beta	89.999362
_cell_angle_gamma	83.964514
loop_
_atom_site_label
_atom_site_type_symbol
_atom_site_fract_x
_atom_site_fract_y
_atom_site_fract_z
O1	O	1.104074	0.160391	-0.073171
O2	O	0.862130	0.180351	-0.073185
O3	O	0.988683	-0.011279	-0.073174
O4	O	0.977521	0.352021	-0.073182
O5	O	0.988674	-0.011282	0.073283
O6	O	0.862121	0.180348	0.073273
O7	O	1.104066	0.160388	0.073286
Zn8	Zn	0.983092	0.170368	0.096533
Zn9	Zn	0.983103	0.170371	-0.096431
O10	O	0.977512	0.352018	0.073276
C11	C	0.831146	0.179541	0.000042
C12	C	0.738836	0.177117	0.000037
C13	C	0.517199	0.285190	0.000045
C14	C	0.430466	0.282903	0.000051
C15	C	0.449002	0.055540	0.000052
C16	C	0.535735	0.057829	0.000052
C17	C	0.569831	0.172658	0.000044
C18	C	0.396365	0.168081	0.000050
C19	C	0.302324	0.165601	0.000056
C20	C	0.663877	0.175139	0.000040
C21	C	0.987867	-0.057770	0.000054
C22	C	0.985437	-0.196292	0.000051
C23	C	0.981837	-0.401219	0.075914
C24	C	0.984349	-0.258050	0.075918
C25	C	1.135049	0.161198	0.000058
C26	C	1.227359	0.163622	0.000057
C27	C	0.978329	0.398509	0.000046
C28	C	0.980758	0.537031	0.000043
N29	N	0.983090	0.170365	0.228225
N30	N	0.983111	0.170365	-0.228124
C31	C	1.039148	0.085539	0.453953
C32	C	1.039150	0.085536	0.546143
C33	C	0.927048	0.255194	0.546142
C34	C	0.927042	0.255190	0.453954
C35	C	0.983097	0.170364	0.407862
C36	C	0.983105	0.170365	0.592240
C37	C	0.983107	0.170363	0.692196
C38	C	0.983093	0.170365	0.307900
H39	H	0.578589	-0.033815	0.000055
N40	N	0.984223	-0.266603	-0.086004
H41	H	0.931831	-0.310481	-0.089536
H42	H	0.985331	-0.205626	-0.136574
N43	N	0.373698	0.404277	0.000100
H44	H	0.408462	0.477362	0.000111
H45	H	0.337285	0.408328	-0.054177
N46	N	1.099582	-0.005967	0.404228
H47	H	1.136664	0.041719	0.365968
H48	H	1.135033	-0.059694	0.447467
H49	H	0.980897	-0.454345	0.140866
H50	H	1.084791	0.016463	0.583667
N51	N	0.866592	0.346682	0.595856
H52	H	0.875101	0.333817	0.661251
H53	H	0.876697	0.435208	0.579735
H54	H	0.881395	0.324265	0.416424
N55	N	0.553970	0.409041	0.000038
H56	H	0.534823	0.458335	0.054331
H57	H	0.616894	0.393320	0.000002
N58	N	0.412227	-0.068306	0.000065
H59	H	0.349296	-0.052683	0.000064
H60	H	0.431435	-0.117551	-0.054226
N61	N	0.985587	-0.187724	0.161966
H62	H	0.987208	-0.095418	0.149772
H63	H	0.933737	-0.200276	0.196848
H64	H	0.981687	-0.409842	-0.064909
