data_functionalizedCrystal
_audit_creation_method	'MofGen! by Chris Wilmer'
_symmetry_space_group_name_H-M	'P1'
_symmetry_Int_Tables_number	1
_symmetry_cell_setting	triclinic
loop_
_symmetry_equiv_pos_as_xyz
  x,y,z
_cell_length_a	14.971491
_cell_length_b	16.098524
_cell_length_c	14.971506
_cell_angle_alpha	93.059874
_cell_angle_beta	83.619312
_cell_angle_gamma	93.063509
loop_
_atom_site_label
_atom_site_type_symbol
_atom_site_fract_x
_atom_site_fract_y
_atom_site_fract_z
O1	O	1.190526	0.069289	0.120159
O2	O	0.930128	0.069283	0.134113
O3	O	1.067297	0.069284	-0.003063
O4	O	1.053357	0.069288	0.257335
O5	O	1.060136	-0.069229	-0.010215
O6	O	0.922967	-0.069231	0.126961
O7	O	1.183366	-0.069224	0.113007
Zn8	Zn	1.052029	-0.091219	0.118848
Zn9	Zn	1.061464	0.091278	0.128271
O10	O	1.046196	-0.069225	0.250183
C11	C	0.893222	0.000025	0.129912
C12	C	0.793925	0.000023	0.128039
N13	N	1.045597	-0.215769	0.112417
C14	C	0.370124	0.075546	0.123858
C15	C	0.463424	0.075543	0.125615
C16	C	0.506166	0.000036	0.122601
C17	C	0.455604	-0.075472	0.117820
C18	C	0.362307	-0.075468	0.116057
C19	C	0.650066	-0.075475	0.121497
C20	C	0.743370	-0.075480	0.123262
C21	C	0.751183	0.075536	0.131055
C22	C	0.657886	0.075540	0.129292
C23	C	0.607330	0.000031	0.124513
C24	C	1.097654	-0.259349	0.164509
C25	C	1.093166	-0.346538	0.160004
C26	C	1.036616	-0.390147	0.103411
C27	C	0.984557	-0.346561	0.051313
C28	C	0.989050	-0.259373	0.055814
C29	C	1.020337	-0.653398	0.087099
C30	C	1.015846	-0.740592	0.082604
C31	C	1.124458	-0.740563	0.191294
C32	C	1.128942	-0.653374	0.195793
C33	C	1.076886	-0.609796	0.143692
C34	C	1.032025	-0.479268	0.098807
C35	C	1.081482	-0.520676	0.148292
C36	C	1.220271	0.000035	0.117208
C37	C	1.319568	0.000043	0.119081
C38	C	1.063090	0.000029	-0.039963
C39	C	1.061212	0.000032	-0.139259
N40	N	1.067904	0.215828	0.134696
C41	C	1.134630	0.000034	-0.577540
C42	C	1.136387	0.000028	-0.484240
C43	C	1.055795	0.000029	-0.427022
C44	C	0.973440	0.000027	-0.463108
C45	C	0.971684	0.000026	-0.556407
C46	C	0.977107	0.000030	-0.268645
C47	C	0.978864	0.000032	-0.175340
C48	C	1.141811	0.000032	-0.196478
C49	C	1.140054	0.000032	-0.289777
C50	C	1.057699	0.000031	-0.325857
C51	C	1.050403	0.000032	0.287083
C52	C	1.052282	0.000034	0.386379
H53	H	0.335329	0.137032	0.126319
H54	H	0.608905	-0.136963	0.117617
H55	H	1.200258	0.000040	-0.624122
H56	H	1.127528	-0.485166	0.194366
Br57	Br	1.163820	-0.405679	0.230703
Br58	Br	0.907812	-0.405743	-0.025496
H59	H	0.490413	-0.136951	0.115360
Br60	Br	0.293696	-0.177940	0.109561
Br61	Br	0.918410	-0.200229	-0.014898
H62	H	0.985981	-0.514784	0.052730
Br63	Br	1.174402	-0.200174	0.241320
H64	H	1.174994	-0.617874	0.241874
Br65	Br	0.819791	0.178012	0.137556
H66	H	1.208872	0.000109	-0.167094
Br67	Br	1.195101	-0.799709	0.261998
Br68	Br	1.249431	0.000039	-0.367431
H69	H	1.203444	0.000027	-0.454869
H70	H	0.913238	0.000028	-0.128754
Br71	Br	0.865338	0.000022	-0.317610
H72	H	0.907820	0.000023	-0.416513
Br73	Br	0.939093	-0.799776	0.005796
Br74	Br	0.859920	0.000018	-0.605374
Br75	Br	0.532033	0.178015	0.132091
Br76	Br	0.599877	0.178014	0.133394
H77	H	0.778167	-0.136964	0.120812
Br78	Br	0.949653	-0.594268	0.016426
