data_functionalizedCrystal
_audit_creation_method	'MofGen! by Chris Wilmer'
_symmetry_space_group_name_H-M	'P1'
_symmetry_Int_Tables_number	1
_symmetry_cell_setting	triclinic
loop_
_symmetry_equiv_pos_as_xyz
  x,y,z
_cell_length_a	10.654537
_cell_length_b	17.666332
_cell_length_c	10.654545
_cell_angle_alpha	89.995921
_cell_angle_beta	84.483702
_cell_angle_gamma	89.991570
loop_
_atom_site_label
_atom_site_type_symbol
_atom_site_fract_x
_atom_site_fract_y
_atom_site_fract_z
O1	O	-1.667857	0.062929	-0.176358
O2	O	-1.302377	0.062933	-0.193174
O3	O	-1.493519	0.062930	-0.002026
O4	O	-1.476715	0.062931	-0.367505
O5	O	-1.493485	-0.062967	-0.002016
O6	O	-1.302343	-0.062964	-0.193163
O7	O	-1.667823	-0.062968	-0.176348
Cu8	Cu	-1.485080	-0.074461	-0.184754
Cu9	Cu	-1.485120	0.074426	-0.184767
O10	O	-1.476681	-0.062965	-0.367495
C11	C	-1.255562	-0.000015	-0.191936
C12	C	-1.116118	-0.000013	-0.188247
N13	N	-1.485061	-0.179181	-0.184745
C14	C	-1.088148	-0.000003	-0.416812
C15	C	-1.008654	0.000005	-0.529357
C16	C	-0.877636	0.000005	-0.525883
C17	C	-0.826110	-0.000005	-0.409853
C18	C	-0.905604	-0.000013	-0.297309
C19	C	-1.036624	-0.000010	-0.300794
C20	C	-0.933574	-0.000028	-0.068747
C21	C	-1.064592	-0.000023	-0.072217
C22	C	-0.882048	-0.000038	0.047284
C23	C	-0.961542	-0.000041	0.159831
C24	C	-1.092568	-0.000040	0.156353
C25	C	-1.144086	-0.000031	0.040327
C26	C	-1.569727	-0.218792	-0.100147
C27	C	-1.569734	-0.298039	-0.100141
C28	C	-1.485088	-0.337673	-0.184755
C29	C	-1.400406	-0.298052	-0.269359
C30	C	-1.400392	-0.218806	-0.269354
N31	N	-1.470069	-0.462091	-0.295745
N32	N	-1.470089	-0.537371	-0.295746
C33	C	-1.485121	-0.576437	-0.184773
N34	N	-1.500156	-0.537378	-0.073795
N35	N	-1.500142	-0.462091	-0.073795
C36	C	-1.485092	-0.423602	-0.184769
C37	C	-1.569799	-0.701977	-0.100161
C38	C	-1.569798	-0.781226	-0.100153
C39	C	-1.400475	-0.781238	-0.269382
C40	C	-1.400471	-0.701990	-0.269379
C41	C	-1.485139	-0.662365	-0.184770
C42	C	-0.714637	-0.000020	-0.177590
C43	C	-0.854080	-0.000020	-0.181291
C44	C	-1.492268	-0.000017	0.044777
C45	C	-1.488575	-0.000012	0.184220
N46	N	-1.485149	0.179146	-0.184766
C47	C	-1.477932	-0.000017	-0.414298
C48	C	-1.481624	-0.000016	-0.553741
C49	C	-1.488628	0.137244	0.184217
C50	C	-1.486923	0.205872	0.249725
C51	C	-1.483454	0.205873	0.380744
C52	C	-1.481685	0.137239	0.446257
C53	C	-1.483389	0.068611	0.380749
C54	C	-1.486862	0.068617	0.249727
C55	C	-1.483328	-0.068644	0.380751
C56	C	-1.486807	-0.068647	0.249733
C57	C	-1.481559	-0.137279	0.446263
C58	C	-1.483273	-0.205908	0.380756
C59	C	-1.486743	-0.205906	0.249730
C60	C	-1.488511	-0.137275	0.184224
H61	H	-1.194829	0.000014	-0.419652
C62	C	-1.595832	0.322857	0.222600
C63	C	-1.488879	0.281319	0.177730
H64	H	-1.597032	0.369438	0.178164
H65	H	-1.669480	0.294653	0.210057
H66	H	-1.593504	0.332662	0.310008
H67	H	-1.491211	0.271509	0.090323
H68	H	-1.415211	0.309529	0.190262
C69	C	-0.945025	-0.064773	0.355717
C70	C	-0.904903	-0.000052	0.287359
H71	H	-0.910048	-0.064780	0.434445
H72	H	-1.034420	-0.064763	0.369755
H73	H	-0.917797	-0.108670	0.309314
H74	H	-0.932139	0.043845	0.333758
H75	H	-0.815489	-0.000056	0.273325
C76	C	-1.589920	-0.322909	0.434290
C77	C	-1.481325	-0.281345	0.452764
H78	H	-1.588712	-0.369483	0.478743
H79	H	-1.662455	-0.294716	0.464713
H80	H	-1.592226	-0.332726	0.346883
H81	H	-1.479024	-0.271523	0.540171
H82	H	-1.408771	-0.309544	0.422348
H83	H	-1.331483	-0.330326	-0.338251
C84	C	-1.368911	0.099884	0.620753
C85	C	-1.477858	0.137241	0.590273
H86	H	-1.366547	0.099890	0.709663
H87	H	-1.369690	0.049195	0.591125
H88	H	-1.296608	0.125240	0.582156
H89	H	-1.550162	0.111881	0.628862
H90	H	-1.477090	0.187939	0.619915
C91	C	-1.233121	-0.709964	-0.436660
C92	C	-1.307416	-0.658445	-0.362387
H93	H	-1.175675	-0.683079	-0.494084
H94	H	-1.187498	-0.740880	-0.383965
H95	H	-1.285808	-0.740864	-0.482318
H96	H	-1.254730	-0.627548	-0.316722
H97	H	-1.353042	-0.627515	-0.415089
H98	H	-0.812911	0.000006	-0.617527
C99	C	-1.368850	-0.099899	0.620778
C100	C	-1.477754	-0.137276	0.590282
H101	H	-1.366512	-0.099895	0.709691
H102	H	-1.296524	-0.125242	0.582213
H103	H	-1.369670	-0.049206	0.591129
H104	H	-1.476929	-0.187972	0.619924
H105	H	-1.550098	-0.111935	0.628863
C106	C	-1.644938	-0.419518	-0.025025
C107	C	-1.662809	-0.341593	-0.007150
H108	H	-1.702395	-0.446403	0.032388
H109	H	-1.659297	-0.432489	-0.108968
H110	H	-1.561005	-0.432511	-0.010597
H111	H	-1.746739	-0.328599	-0.021587
H112	H	-1.648460	-0.328617	0.076813
H113	H	-0.775365	-0.000042	0.050104
C114	C	-0.630822	0.064710	-0.467093
C115	C	-0.682093	-0.000010	-0.406033
H116	H	-0.541913	0.064707	-0.464724
H117	H	-0.650130	0.064708	-0.552287
H118	H	-0.665641	0.108607	-0.425659
H119	H	-0.647281	-0.043908	-0.447473
H120	H	-0.662775	-0.000015	-0.320823
C121	C	-1.156757	0.064669	0.350109
C122	C	-1.179947	-0.000045	0.280066
H123	H	-1.210705	0.064666	0.426481
H124	H	-1.071363	0.064658	0.368778
H125	H	-1.172497	0.108570	0.302573
H126	H	-1.164198	-0.043947	0.327598
H127	H	-1.265361	-0.000042	0.261399
H128	H	-1.488111	-0.261792	0.196398
H129	H	-1.331550	-0.813507	-0.338272
H130	H	-1.482055	0.261756	0.434079
C131	C	-1.339403	0.064685	0.097566
C132	C	-1.288102	-0.000028	0.036500
H133	H	-1.428312	0.064686	0.095191
H134	H	-1.320103	0.064672	0.182763
H135	H	-1.304600	0.108587	0.056142
H136	H	-1.322899	-0.043930	0.077930
H137	H	-1.307414	-0.000022	-0.048713
H138	H	-1.050621	0.000011	-0.623826
C139	C	-1.737092	-0.226747	0.067129
C140	C	-1.662780	-0.175237	-0.007132
H141	H	-1.794530	-0.199855	0.124558
H142	H	-1.782723	-0.257640	0.014427
H143	H	-1.684416	-0.257671	0.112781
H144	H	-1.715456	-0.144316	-0.052792
H145	H	-1.617145	-0.144330	0.045577
C146	C	-1.737155	-0.709923	0.067124
C147	C	-1.662850	-0.658415	-0.007148
H148	H	-1.794594	-0.683029	0.124551
H149	H	-1.782787	-0.740821	0.014428
H150	H	-1.684475	-0.740842	0.112779
H151	H	-1.715529	-0.627498	-0.052810
H152	H	-1.617214	-0.627504	0.045554
C153	C	-1.601370	0.099874	0.009725
C154	C	-1.492456	0.137247	0.040201
H155	H	-1.603735	0.099882	-0.079185
H156	H	-1.600546	0.049184	0.039357
H157	H	-1.673696	0.125219	0.048320
H158	H	-1.420130	0.111898	0.001613
H159	H	-1.493269	0.187945	0.010554
H160	H	-1.491342	-0.137266	0.077543
H161	H	-1.331446	-0.186554	-0.338245
H162	H	-1.638739	-0.813478	-0.031257
