data_functionalizedCrystal
_audit_creation_method	'MofGen! by Chris Wilmer'
_symmetry_space_group_name_H-M	'P1'
_symmetry_Int_Tables_number	1
_symmetry_cell_setting	triclinic
loop_
_symmetry_equiv_pos_as_xyz
  x,y,z
_cell_length_a	19.377369
_cell_length_b	19.377372
_cell_length_c	19.377372
_cell_angle_alpha	86.411506
_cell_angle_beta	62.069167
_cell_angle_gamma	117.941843
loop_
_atom_site_label
_atom_site_type_symbol
_atom_site_fract_x
_atom_site_fract_y
_atom_site_fract_z
Zr1	Zr	0.939463	0.001256	0.435549
O2	O	1.070589	0.082286	0.306590
O3	O	0.808337	-0.000849	0.485587
O4	O	0.987395	0.130266	0.437727
O5	O	0.853721	-0.178116	0.380253
O6	O	1.025205	0.142252	0.529222
O7	O	0.891531	-0.048829	0.354449
O8	O	0.704902	-0.092289	0.614833
O9	O	1.174023	0.056425	0.294641
O10	O	0.890487	-0.020269	0.562517
O11	O	0.834053	-0.125699	0.513493
O12	O	1.044871	0.028672	0.457145
O13	O	0.988437	-0.076759	0.408120
Zr14	Zr	0.939461	-0.185824	0.622626
Zr15	Zr	0.999764	0.020373	0.581473
Zr16	Zr	0.879160	-0.204941	0.476703
Zr17	Zr	1.104428	-0.039989	0.416492
Zr18	Zr	0.774496	-0.144579	0.641683
O19	O	1.070587	-0.183718	0.572589
O20	O	1.156330	0.109468	0.514074
O21	O	0.984846	-0.210900	0.365105
O22	O	0.808335	-0.266854	0.751585
O23	O	0.894078	0.026333	0.693071
O24	O	0.722594	-0.294036	0.544101
O25	O	1.025203	-0.006452	0.677923
O26	O	0.891529	-0.314834	0.620448
O27	O	0.853719	-0.326820	0.528953
O28	O	0.987393	-0.135738	0.703726
O29	O	1.221955	0.071621	0.410631
O30	O	0.656969	-0.256188	0.647545
O31	O	0.704901	-0.240993	0.763534
O32	O	0.752834	-0.077093	0.730823
O33	O	1.126090	-0.107474	0.327352
O34	O	1.174022	-0.092279	0.443342
O35	O	0.834053	-0.213239	0.601031
O36	O	0.890487	-0.107809	0.650055
O37	O	1.044871	-0.058868	0.544683
O38	O	0.988437	-0.164299	0.495658
C39	C	0.733115	-0.040692	0.552925
C40	C	0.663083	-0.023183	0.561015
C41	C	1.014892	0.165638	0.477611
C42	C	1.040492	0.253174	0.460141
C43	C	0.864032	-0.350206	0.580564
C44	C	0.838432	-0.437742	0.598035
C45	C	0.285198	-0.240999	0.460015
C46	C	0.219319	-0.224603	0.467724
C47	C	0.278242	-0.114541	0.518902
C48	C	0.344123	-0.130931	0.511202
C49	C	0.347595	-0.194161	0.481757
C50	C	0.406521	-0.084093	0.532943
C51	C	0.472400	-0.100479	0.525238
C52	C	0.475881	-0.163703	0.495793
C53	C	0.413474	-0.210547	0.474052
C54	C	0.403052	-0.020860	0.562382
C55	C	0.465450	0.025979	0.584123
C56	C	0.531326	0.009589	0.576424
C57	C	0.534807	-0.053635	0.546979
C58	C	0.593732	0.056433	0.598165
C59	C	0.659611	0.040047	0.590460
C60	C	0.600686	-0.070021	0.539274
C61	C	1.145808	-0.143875	0.505250
C62	C	1.215840	-0.161385	0.497160
C63	C	0.864034	-0.116196	0.346560
C64	C	0.838434	-0.124312	0.284612
C65	C	0.721756	0.413338	0.677675
C66	C	0.745831	0.495598	0.661241
C67	C	0.906996	0.546679	0.551240
C68	C	0.882935	0.464422	0.567667
C69	C	0.790313	0.397757	0.630885
C70	C	0.951493	0.448841	0.520878
C71	C	0.927433	0.366591	0.537301
C72	C	0.834815	0.299922	0.600514
C73	C	0.766253	0.315507	0.647309
C74	C	1.044113	0.515507	0.457656
C75	C	1.112671	0.499925	0.410867
C76	C	1.088613	0.417675	0.427294
C77	C	0.995994	0.351006	0.490507
C78	C	1.157174	0.402089	0.380499
C79	C	1.133114	0.319839	0.396923
C80	C	0.971934	0.268755	0.506930
C81	C	1.157167	-0.023268	-0.194140
C82	C	1.133091	-0.030902	-0.252335
C83	C	0.971926	-0.081992	-0.142325
C84	C	0.995988	-0.074366	-0.084118
C85	C	1.088610	-0.045003	-0.110033
C86	C	0.927430	-0.096101	-0.000011
C87	C	0.951492	-0.088472	0.058189
C88	C	1.044110	-0.059108	0.032282
C89	C	1.112671	-0.037374	-0.051833
C90	C	0.834810	-0.125459	0.025901
C91	C	0.766253	-0.147194	0.110008
C92	C	0.790312	-0.139570	0.168211
C93	C	0.882930	-0.110206	0.142304
C94	C	0.721751	-0.161305	0.252326
C95	C	0.745812	-0.153675	0.310526
C96	C	0.906992	-0.102577	0.200505
C97	C	1.014890	-0.068371	0.711615
C98	C	1.040490	-0.060256	0.773564
C99	C	0.808543	-0.016780	0.735453
C100	C	0.764111	0.008845	0.805491
C101	C	0.657686	-0.298614	0.604402
C102	C	0.562053	-0.368641	0.629962
C103	C	0.733114	-0.274702	0.786929
C104	C	0.663081	-0.336613	0.874438
C105	C	1.145810	0.090134	0.271246
C106	C	1.215843	0.152045	0.183737
C107	C	1.070380	-0.167788	0.322722
C108	C	1.114813	-0.193413	0.252684
C109	C	1.221238	0.114046	0.453774
C110	C	1.316871	0.184073	0.428213
C111	C	0.743248	0.066583	0.792686
C112	C	0.701511	0.090677	0.858485
C113	C	0.680632	0.057028	0.937089
C114	C	0.701501	-0.000713	0.949892
C115	C	0.743243	-0.024801	0.884093
C116	C	0.517141	-0.447230	0.687662
C117	C	0.427290	-0.513038	0.711677
C118	C	0.382350	-0.500253	0.677996
C119	C	0.427271	-0.421657	0.620290
C120	C	0.517123	-0.355852	0.596271
C121	C	0.659653	-0.310652	0.941130
C122	C	0.593864	-0.368818	1.023357
C123	C	0.531499	-0.452942	1.038891
C124	C	0.534930	-0.478903	0.972192
C125	C	0.600723	-0.420739	0.889966
C126	C	1.219279	0.126082	0.117044
C127	C	1.285088	0.184243	0.034815
C128	C	1.347457	0.268366	0.019280
C129	C	1.344021	0.294329	0.085980
C130	C	1.278217	0.236168	0.168208
C131	C	1.135685	-0.251144	0.265486
C132	C	1.177447	-0.275220	0.199682
C133	C	1.198329	-0.241568	0.121077
C134	C	1.177456	-0.183831	0.108275
C135	C	1.135702	-0.159751	0.174077
C136	C	1.361783	0.171264	0.461909
C137	C	1.451634	0.237058	0.437908
C138	C	1.496574	0.315658	0.380206
C139	C	1.451654	0.328466	0.346509
C140	C	1.361802	0.262675	0.370515
H141	H	0.529528	-0.177041	0.489516
H142	H	0.646335	0.359055	0.729157
H143	H	0.710426	-0.242156	0.928497
O144	O	0.274709	-0.053178	0.547526
C145	C	0.203201	-0.048742	0.549642
H146	H	0.149117	-0.111301	0.553423
H147	H	0.166663	-0.034210	0.606835
H148	H	0.235997	0.002872	0.490382
H149	H	0.309187	-0.553843	0.697561
O150	O	0.882018	0.203898	0.568344
C151	C	0.875484	0.127962	0.572790
H152	H	0.948697	0.140981	0.545254
H153	H	0.825981	0.083913	0.641006
H154	H	0.846491	0.097587	0.535706
H155	H	0.815225	0.232949	0.613881
O156	O	0.590448	-0.343738	1.088232
C157	C	0.519003	-0.413104	1.164144
H158	H	0.504477	-0.473302	1.151105
H159	H	0.543188	-0.407637	1.208210
H160	H	0.451573	-0.414465	1.194503
O161	O	1.495469	0.404861	0.290435
C162	C	1.584396	0.460177	0.276493
H163	H	1.609199	0.422632	0.292709
H164	H	1.637820	0.503260	0.207829
H165	H	1.578079	0.499369	0.317665
O166	O	1.288558	0.159027	-0.030008
C167	C	1.378994	0.175839	-0.085364
H168	H	1.413728	0.180082	-0.050440
H169	H	1.371835	0.123265	-0.111012
H170	H	1.424546	0.237764	-0.139403
O171	O	1.199659	0.304605	0.351605
C172	C	1.210367	0.264851	0.405706
H173	H	1.143390	0.232447	0.471887
H174	H	1.223103	0.216409	0.383206
H175	H	1.273266	0.313548	0.405770
H176	H	0.689981	-0.171390	0.379015
O177	O	0.676229	0.250755	0.708633
C178	C	0.613276	0.249040	0.690214
H179	H	0.653201	0.282210	0.620045
H180	H	0.554262	0.181253	0.709888
H181	H	0.581460	0.282267	0.725814
H182	H	1.118706	-0.112745	0.163643
H183	H	0.477930	-0.500294	1.105849
H184	H	0.484144	-0.547405	0.984853
O185	O	0.383514	-0.589385	0.767814
C186	C	0.297195	-0.610367	0.838596
H187	H	0.272267	-0.573961	0.820569
H188	H	0.241745	-0.680435	0.862652
H189	H	0.307771	-0.593675	0.889801
O190	O	0.681111	-0.033347	1.026313
C191	C	0.639812	0.000315	1.081629
H192	H	0.607103	0.023092	1.058547
H193	H	0.582487	-0.050058	1.146904
H194	H	0.696448	0.055128	1.084168
O195	O	0.679122	0.510587	0.706803
C196	C	0.592212	0.434104	0.766103
H197	H	0.605923	0.385257	0.779190
H198	H	0.553891	0.443520	0.826674
H199	H	0.546544	0.411688	0.740396
O200	O	0.996931	0.611539	0.489888
C201	C	1.003462	0.687475	0.485408
H202	H	0.944722	0.679053	0.547940
H203	H	1.075167	0.738566	0.470888
H204	H	0.995782	0.706212	0.433774
H205	H	0.760222	-0.071820	0.894531
H206	H	1.063699	-0.052895	0.079675
H207	H	0.390668	-0.411260	0.592872
H208	H	1.118684	-0.278557	0.329486
O209	O	0.604195	-0.445828	0.825086
C210	C	0.675616	-0.376458	0.749175
H211	H	0.729730	-0.326153	0.757630
H212	H	0.712142	-0.397100	0.698080
H213	H	0.642731	-0.350025	0.730432
H214	H	0.553719	-0.457655	0.715094
O215	O	1.318253	0.094980	0.518000
C216	C	1.377184	0.097795	0.542572
H217	H	1.428677	0.165337	0.531846
H218	H	1.331965	0.057933	0.611824
H219	H	1.418562	0.072390	0.503917
O220	O	1.238846	-0.265085	0.057262
C221	C	1.252805	-0.323243	0.085422
H222	H	1.201718	-0.355021	0.156446
H223	H	1.239288	-0.372485	0.055263
H224	H	1.328696	-0.289253	0.067330
H225	H	0.553682	-0.291862	0.549291
O226	O	1.158804	0.044391	0.131972
C227	C	1.175953	0.033966	0.055465
H228	H	1.251285	0.086625	0.002074
H229	H	1.166702	-0.028916	0.057816
H230	H	1.123740	0.035758	0.044638
O231	O	1.067495	0.595408	0.441834
C232	C	1.051108	0.615141	0.514417
H233	H	1.052484	0.572565	0.556382
H234	H	1.108583	0.683273	0.495807
H235	H	0.979009	0.605543	0.549752
O236	O	1.197537	-0.331427	0.212215
C237	C	1.113392	-0.407466	0.275867
H238	H	1.050256	-0.411938	0.281008
H239	H	1.116025	-0.462207	0.259966
H240	H	1.105854	-0.409740	0.338098
H241	H	0.690841	-0.171099	0.131097
O242	O	1.318335	0.275253	0.337663
C243	C	1.377267	0.358742	0.281602
H244	H	1.453868	0.384995	0.258107
H245	H	1.370587	0.360600	0.226215
H246	H	1.355003	0.398142	0.315150
H247	H	0.760253	0.093998	0.728686
H248	H	0.590902	0.107920	0.622131
H249	H	0.646642	0.076649	0.990660
O250	O	1.197762	-0.151258	0.031875
C251	C	1.239107	-0.184886	-0.023453
H252	H	1.217782	-0.247229	0.014071
H253	H	1.213530	-0.195219	-0.066569
H254	H	1.319439	-0.139405	-0.062600
O255	O	1.495410	0.224674	0.470497
C256	C	1.581728	0.240171	0.405197
H257	H	1.606654	0.283116	0.343877
H258	H	1.637179	0.271537	0.419839
H259	H	1.571150	0.178394	0.399074
H260	H	1.401035	0.315717	-0.047678
H261	H	1.569738	0.369222	0.360665
H262	H	1.232581	0.000614	-0.215239
H263	H	0.603511	-0.121510	0.515298
H264	H	0.416300	-0.262035	0.450076
H265	H	1.394810	0.362829	0.073321
H266	H	0.288023	-0.292487	0.436039
O267	O	0.338927	-0.005071	0.569999
C268	C	0.246682	-0.077669	0.626171
H269	H	0.247379	-0.119605	0.669456
H270	H	0.197156	-0.059065	0.665064
H271	H	0.220920	-0.113042	0.589419
O272	O	0.461922	0.087289	0.612861
C273	C	0.371492	0.052180	0.686479
H274	H	0.336830	-0.017454	0.716911
H275	H	0.378646	0.084965	0.731911
H276	H	0.325877	0.060640	0.670146
H277	H	0.646341	-0.185204	0.273413
O278	O	1.274707	0.261305	0.233074
C279	C	1.184282	0.244519	0.288413
H280	H	1.130786	0.192534	0.280605
H281	H	1.162661	0.223866	0.355655
H282	H	1.186277	0.303580	0.273729
O283	O	0.720128	0.085594	0.611655
C284	C	0.702950	0.144927	0.639279
H285	H	0.627585	0.122974	0.661995
H286	H	0.712276	0.151837	0.692872
H287	H	0.755096	0.207945	0.585309
O288	O	1.202606	0.564785	0.349515
C289	C	1.209137	0.640722	0.345035
H290	H	1.150396	0.632300	0.407567
H291	H	1.280841	0.691812	0.330515
H292	H	1.201456	0.659458	0.293401
H293	H	0.168514	-0.262747	0.450015
H294	H	1.232584	0.456378	0.329022
H295	H	0.982406	-0.078695	0.179406
O296	O	1.202591	-0.008997	-0.076930
C297	C	1.201530	-0.070721	-0.033026
H298	H	1.134716	-0.134816	-0.009912
H299	H	1.266436	-0.070757	-0.076478
H300	H	1.202580	-0.056503	0.022811
O301	O	0.881894	-0.110632	-0.117037
C302	C	0.818966	-0.191993	-0.055863
H303	H	0.852755	-0.201749	-0.024746
H304	H	0.750512	-0.199891	-0.006584
H305	H	0.802745	-0.240129	-0.086792
O306	O	0.811285	-0.132886	-0.030532
C307	C	0.714832	-0.163476	0.010377
H308	H	0.690302	-0.148805	0.070128
H309	H	0.704935	-0.132194	-0.032790
H310	H	0.671266	-0.234161	0.026873
O311	O	0.681102	0.146650	0.846038
C312	C	0.617384	0.114419	0.821907
H313	H	0.577184	0.043224	0.844385
H314	H	0.565115	0.132814	0.851076
H315	H	0.658327	0.141156	0.750747
H316	H	1.188926	-0.013198	-0.320823
