data_functionalizedCrystal
_audit_creation_method	'MofGen! by Chris Wilmer'
_symmetry_space_group_name_H-M	'P1'
_symmetry_Int_Tables_number	1
_symmetry_cell_setting	triclinic
loop_
_symmetry_equiv_pos_as_xyz
  x,y,z
_cell_length_a	14.519709
_cell_length_b	17.019234
_cell_length_c	13.596369
_cell_angle_alpha	86.112711
_cell_angle_beta	90.000291
_cell_angle_gamma	83.533184
loop_
_atom_site_label
_atom_site_type_symbol
_atom_site_fract_x
_atom_site_fract_y
_atom_site_fract_z
O1	O	1.223524	0.103408	-0.090425
O2	O	1.473524	0.353408	0.159575
O3	O	1.723524	0.603408	0.409575
O4	O	1.973524	0.853408	0.659575
O5	O	0.955007	0.115586	-0.091487
O6	O	1.205007	0.365586	0.158513
O7	O	1.455007	0.615586	0.408513
O8	O	1.705007	0.865586	0.658513
O9	O	1.096766	-0.005327	-0.081220
O10	O	1.346766	0.244673	0.168780
O11	O	1.596766	0.494673	0.418780
O12	O	1.846766	0.744673	0.668780
O13	O	1.081766	0.224321	-0.100693
O14	O	1.331766	0.474321	0.149307
O15	O	1.581766	0.724321	0.399307
O16	O	1.831766	0.974321	0.649307
O17	O	1.096752	-0.005333	0.082364
O18	O	1.346752	0.244667	0.332364
O19	O	1.596752	0.494667	0.582364
O20	O	1.846752	0.744667	0.832364
O21	O	0.954993	0.115580	0.072096
O22	O	1.204993	0.365580	0.322096
O23	O	1.454993	0.615580	0.572096
O24	O	1.704993	0.865580	0.822096
O25	O	1.223510	0.103402	0.073158
O26	O	1.473510	0.353402	0.323158
O27	O	1.723510	0.603402	0.573158
O28	O	1.973510	0.853402	0.823158
Zn29	Zn	1.089249	0.109490	0.098600
Zn30	Zn	1.339249	0.359490	0.348600
Zn31	Zn	1.589249	0.609490	0.598600
Zn32	Zn	1.839249	0.859490	0.848600
Zn33	Zn	1.089268	0.109498	-0.116929
Zn34	Zn	1.339268	0.359498	0.133071
Zn35	Zn	1.589268	0.609498	0.383071
Zn36	Zn	1.839268	0.859498	0.633071
O37	O	1.081752	0.224315	0.062891
O38	O	1.331752	0.474315	0.312891
O39	O	1.581752	0.724315	0.562891
O40	O	1.831752	0.974315	0.812891
C41	C	0.920642	0.115015	-0.009651
C42	C	1.170642	0.365015	0.240349
C43	C	1.420642	0.615015	0.490349
C44	C	1.670642	0.865015	0.740349
C45	C	0.818267	0.113315	-0.009518
C46	C	1.068267	0.363315	0.240482
C47	C	1.318267	0.613315	0.490482
C48	C	1.568267	0.863315	0.740482
C49	C	0.443392	0.107054	-0.008943
C50	C	0.693392	0.357054	0.241057
C51	C	0.943392	0.607054	0.491057
C52	C	1.193392	0.857054	0.741057
C53	C	0.547694	0.108792	-0.009103
C54	C	0.797694	0.358792	0.240897
C55	C	1.047694	0.608792	0.490897
C56	C	1.297694	0.858792	0.740897
C57	C	0.630826	0.110184	-0.009231
C58	C	0.880826	0.360184	0.240769
C59	C	1.130826	0.610184	0.490769
C60	C	1.380826	0.860184	0.740769
C61	C	0.735135	0.111923	-0.009390
C62	C	0.985135	0.361923	0.240610
C63	C	1.235135	0.611923	0.490610
C64	C	1.485135	0.861923	0.740610
C65	C	1.096193	-0.034720	0.003062
C66	C	1.346193	0.215280	0.253062
C67	C	1.596193	0.465280	0.503062
C68	C	1.846193	0.715280	0.753062
C69	C	1.094496	-0.122295	0.010480
C70	C	1.344496	0.127705	0.260480
C71	C	1.594496	0.377705	0.510480
C72	C	1.844496	0.627705	0.760480
C73	C	1.084815	-0.617589	0.056870
C74	C	1.334815	-0.367589	0.306870
C75	C	1.584815	-0.117589	0.556870
C76	C	1.834815	0.132411	0.806870
C77	C	1.086418	-0.535304	0.049904
C78	C	1.336418	-0.285304	0.299904
C79	C	1.586418	-0.035304	0.549904
C80	C	1.836418	0.214696	0.799904
C81	C	1.087235	-0.494151	-0.042751
C82	C	1.337235	-0.244151	0.207249
C83	C	1.587235	0.005849	0.457249
C84	C	1.837235	0.255849	0.707249
C85	C	1.086438	-0.535285	-0.128445
C86	C	1.336438	-0.285285	0.121555
C87	C	1.586438	-0.035285	0.371555
C88	C	1.836438	0.214715	0.621555
C89	C	1.084828	-0.617567	-0.121478
C90	C	1.334828	-0.367567	0.128522
C91	C	1.584828	-0.117567	0.378522
C92	C	1.834828	0.132433	0.628522
C93	C	1.092090	-0.245711	-0.068247
C94	C	1.342090	0.004289	0.181753
C95	C	1.592090	0.254289	0.431753
C96	C	1.842090	0.504289	0.681753
C97	C	1.093703	-0.163423	-0.075207
C98	C	1.343703	0.086577	0.174793
C99	C	1.593703	0.336577	0.424793
C100	C	1.843703	0.586577	0.674793
C101	C	1.093681	-0.163448	0.103142
C102	C	1.343681	0.086552	0.353142
C103	C	1.593681	0.336552	0.603142
C104	C	1.843681	0.586552	0.853142
C105	C	1.092076	-0.245733	0.110101
C106	C	1.342076	0.004267	0.360101
C107	C	1.592076	0.254267	0.610101
C108	C	1.842076	0.504267	0.860101
C109	C	1.091275	-0.286859	0.024407
C110	C	1.341275	-0.036859	0.274407
C111	C	1.591275	0.213141	0.524407
C112	C	1.841275	0.463141	0.774407
C113	C	1.088876	-0.410043	-0.049873
C114	C	1.338876	-0.160043	0.200127
C115	C	1.588876	0.089957	0.450127
C116	C	1.838876	0.339957	0.700127
C117	C	1.089627	-0.370964	0.031530
C118	C	1.339627	-0.120964	0.281530
C119	C	1.589627	0.129036	0.531530
C120	C	1.839627	0.379036	0.781530
C121	C	1.257875	0.103973	-0.008680
C122	C	1.507875	0.353973	0.241320
C123	C	1.757875	0.603973	0.491320
C124	C	2.007875	0.853973	0.741320
C125	C	1.360251	0.105673	-0.008819
C126	C	1.610251	0.355673	0.241181
C127	C	1.860251	0.605673	0.491181
C128	C	2.110251	0.855673	0.741181
C129	C	1.082324	0.253709	-0.021393
C130	C	1.332324	0.503709	0.228607
C131	C	1.582324	0.753709	0.478607
C132	C	1.832324	1.003709	0.728607
C133	C	1.084021	0.341283	-0.028818
C134	C	1.334021	0.591283	0.221182
C135	C	1.584021	0.841283	0.471182
C136	C	1.834021	1.091283	0.721182
N137	N	1.089244	0.109484	0.245692
N138	N	1.339244	0.359484	0.495692
N139	N	1.589244	0.609484	0.745692
N140	N	1.839244	0.859484	0.995692
N141	N	1.089281	0.109498	-0.264020
N142	N	1.339281	0.359498	-0.014020
N143	N	1.589281	0.609498	0.235980
N144	N	1.839281	0.859498	0.485980
C145	C	1.089267	0.109499	0.646982
C146	C	1.339267	0.359499	0.896982
C147	C	1.589267	0.609499	1.146982
C148	C	1.839267	0.859499	1.396982
C149	C	1.089258	0.109497	0.535330
C150	C	1.339258	0.359497	0.785330
C151	C	1.589258	0.609497	1.035330
C152	C	1.839258	0.859497	1.285330
C153	C	1.089256	0.109492	0.446340
C154	C	1.339256	0.359492	0.696340
C155	C	1.589256	0.609492	0.946340
C156	C	1.839256	0.859492	1.196340
C157	C	1.089246	0.109489	0.334682
C158	C	1.339246	0.359489	0.584682
C159	C	1.589246	0.609489	0.834682
C160	C	1.839246	0.859489	1.084682
H161	H	1.084154	-0.651090	0.132319
H162	H	1.334154	-0.401090	0.382319
H163	H	1.584154	-0.151090	0.632319
H164	H	1.834154	0.098910	0.882319
Cl165	Cl	1.089950	-0.358306	-0.166349
Cl166	Cl	1.339950	-0.108306	0.083651
Cl167	Cl	1.589950	0.141694	0.333651
Cl168	Cl	1.839950	0.391694	0.583651
H169	H	1.091416	-0.279235	0.185550
H170	H	1.341416	-0.029235	0.435550
H171	H	1.591416	0.220765	0.685550
H172	H	1.841416	0.470765	0.935550
H173	H	1.091446	-0.279187	-0.138025
H174	H	1.341446	-0.029187	0.111975
H175	H	1.591446	0.220813	0.361975
H176	H	1.841446	0.470813	0.611975
Cl177	Cl	1.087396	-0.483601	0.157631
Cl178	Cl	1.337396	-0.233601	0.407631
Cl179	Cl	1.587396	0.016399	0.657631
Cl180	Cl	1.837396	0.266399	0.907631
H181	H	1.084177	-0.651052	-0.191254
H182	H	1.334177	-0.401052	0.058746
H183	H	1.584177	-0.151052	0.308746
H184	H	1.834177	0.098948	0.558746
Cl185	Cl	1.087486	-0.483551	-0.244926
Cl186	Cl	1.337486	-0.233551	0.005074
Cl187	Cl	1.587486	0.016449	0.255074
Cl188	Cl	1.837486	0.266449	0.505074
H189	H	1.088957	-0.404474	0.106969
H190	H	1.338957	-0.154474	0.356969
H191	H	1.588957	0.095526	0.606969
H192	H	1.838957	0.345526	0.856969
H193	H	1.094367	-0.129918	-0.150662
H194	H	1.344367	0.120082	0.099338
H195	H	1.594367	0.370082	0.349338
H196	H	1.844367	0.620082	0.599338
Cl197	Cl	1.094682	-0.111742	0.210865
Cl198	Cl	1.344682	0.138258	0.460865
Cl199	Cl	1.594682	0.388258	0.710865
Cl200	Cl	1.844682	0.638258	0.960865
