data_functionalizedCrystal
_audit_creation_method	'MofGen! by Chris Wilmer'
_symmetry_space_group_name_H-M	'P1'
_symmetry_Int_Tables_number	1
_symmetry_cell_setting	triclinic
loop_
_symmetry_equiv_pos_as_xyz
  x,y,z
_cell_length_a	9.065215
_cell_length_b	8.559649
_cell_length_c	8.140239
_cell_angle_alpha	89.998339
_cell_angle_beta	89.997810
_cell_angle_gamma	77.396681
loop_
_atom_site_label
_atom_site_type_symbol
_atom_site_fract_x
_atom_site_fract_y
_atom_site_fract_z
O1	O	1.931011	0.233881	-0.136586
O2	O	1.499314	0.253072	-0.136593
O3	O	1.753195	0.011424	-0.136587
O4	O	1.677130	0.475528	-0.136591
O5	O	1.753183	0.011421	0.136640
O6	O	1.499302	0.253069	0.136635
O7	O	1.930999	0.233878	0.136641
Zn8	Zn	1.715148	0.243473	0.180019
Zn9	Zn	1.715164	0.243477	-0.179970
O10	O	1.677118	0.475525	0.136636
C11	C	1.444553	0.251227	0.000020
C12	C	1.281402	0.245715	0.000017
C13	C	1.758954	-0.048024	0.000024
C14	C	1.776112	-0.225156	0.000015
C15	C	1.985760	0.235723	0.000025
C16	C	2.148910	0.241234	0.000017
C17	C	1.671359	0.534973	0.000021
C18	C	1.654200	0.712105	0.000020
N19	N	1.715148	0.243469	0.425701
N20	N	1.715178	0.243468	-0.425652
H21	H	1.536699	-0.206097	0.000023
H22	H	1.893621	-0.306962	0.000030
