data_functionalizedCrystal
_audit_creation_method	'MofGen! by Chris Wilmer'
_symmetry_space_group_name_H-M	'P1'
_symmetry_Int_Tables_number	1
_symmetry_cell_setting	triclinic
loop_
_symmetry_equiv_pos_as_xyz
  x,y,z
_cell_length_a	13.897449
_cell_length_b	12.594516
_cell_length_c	13.897441
_cell_angle_alpha	90.028053
_cell_angle_beta	90.023394
_cell_angle_gamma	90.012642
loop_
_atom_site_label
_atom_site_type_symbol
_atom_site_fract_x
_atom_site_fract_y
_atom_site_fract_z
Zn1	Zn	1.474742	-0.423685	0.545467
Zn2	Zn	1.724742	-0.173685	0.795467
Zn3	Zn	1.974742	0.076315	1.045467
Zn4	Zn	2.224742	0.326315	1.295467
Zn5	Zn	1.474653	-0.601695	0.384175
Zn6	Zn	1.724653	-0.351695	0.634175
Zn7	Zn	1.974653	-0.101695	0.884175
Zn8	Zn	2.224653	0.148305	1.134175
Zn9	Zn	1.313431	-0.423734	0.384178
Zn10	Zn	1.563431	-0.173734	0.634178
Zn11	Zn	1.813431	0.076266	0.884178
Zn12	Zn	2.063431	0.326266	1.134178
Zn13	Zn	1.313429	-0.601624	0.545420
Zn14	Zn	1.563429	-0.351624	0.795420
Zn15	Zn	1.813429	-0.101624	1.045420
Zn16	Zn	2.063429	0.148376	1.295420
O17	O	1.394064	-0.512685	0.464810
O18	O	1.644064	-0.262685	0.714810
O19	O	1.894064	-0.012685	0.964810
O20	O	2.144064	0.237315	1.214810
O21	O	1.609712	-0.447307	0.524090
O22	O	1.859712	-0.197307	0.774090
O23	O	2.109712	0.052693	1.024090
O24	O	2.359712	0.302693	1.274090
O25	O	1.453230	-0.578139	0.249194
O26	O	1.703230	-0.328139	0.499194
O27	O	1.953230	-0.078139	0.749194
O28	O	2.203230	0.171861	0.999194
O29	O	1.334868	-0.274782	0.405593
O30	O	1.584868	-0.024782	0.655593
O31	O	1.834868	0.225218	0.905593
O32	O	2.084868	0.475218	1.155593
O33	O	1.609646	-0.578091	0.405589
O34	O	1.859646	-0.328091	0.655589
O35	O	2.109646	-0.078091	0.905589
O36	O	2.359646	0.171909	1.155589
O37	O	1.453382	-0.274745	0.524092
O38	O	1.703382	-0.024745	0.774092
O39	O	1.953382	0.225255	1.024092
O40	O	2.203382	0.475255	1.274092
O41	O	1.334781	-0.447391	0.249196
O42	O	1.584781	-0.197391	0.499196
O43	O	1.834781	0.052609	0.749196
O44	O	2.084781	0.302609	0.999196
O45	O	1.178449	-0.447322	0.405548
O46	O	1.428449	-0.197322	0.655548
O47	O	1.678449	0.052678	0.905548
O48	O	1.928449	0.302678	1.155548
O49	O	1.334865	-0.577970	0.680408
O50	O	1.584865	-0.327970	0.930408
O51	O	1.834865	-0.077970	1.180408
O52	O	2.084865	0.172030	1.430408
O53	O	1.178448	-0.578017	0.524013
O54	O	1.428448	-0.328017	0.774013
O55	O	1.678448	-0.078017	1.024013
O56	O	1.928448	0.171983	1.274013
O57	O	1.453380	-0.447238	0.680442
O58	O	1.703380	-0.197238	0.930442
O59	O	1.953380	0.052762	1.180442
O60	O	2.203380	0.302762	1.430442
O61	O	1.453228	-0.750632	0.405544
O62	O	1.703228	-0.500632	0.655544
O63	O	1.953228	-0.250632	0.905544
O64	O	2.203228	-0.000632	1.155544
O65	O	1.334778	-0.750579	0.524011
O66	O	1.584778	-0.500579	0.774011
O67	O	1.834778	-0.250579	1.024011
O68	O	2.084778	-0.000579	1.274011
C69	C	1.143449	-0.512668	0.464776
C70	C	1.393449	-0.262668	0.714776
C71	C	1.643449	-0.012668	0.964776
C72	C	1.893449	0.237332	1.214776
C73	C	1.036236	-0.512687	0.464785
C74	C	1.286236	-0.262687	0.714785
C75	C	1.536236	-0.012687	0.964785
C76	C	1.786236	0.237313	1.214785
C77	C	0.949166	-0.512690	0.464801
C78	C	1.199166	-0.262690	0.714801
C79	C	1.449166	-0.012690	0.964801
C80	C	1.699166	0.237310	1.214801
C81	C	0.839933	-0.512698	0.464830
C82	C	1.089933	-0.262698	0.714830
C83	C	1.339933	-0.012698	0.964830
C84	C	1.589933	0.237302	1.214830
C85	C	1.394019	-0.789225	0.464793
C86	C	1.644019	-0.539225	0.714793
C87	C	1.894019	-0.289225	0.964793
C88	C	2.144019	-0.039225	1.214793
C89	C	1.394088	-0.907531	0.464818
C90	C	1.644088	-0.657531	0.714818
C91	C	1.894088	-0.407531	0.964818
C92	C	2.144088	-0.157531	1.214818
C93	C	1.458588	-0.976774	0.400453
C94	C	1.708588	-0.726774	0.650453
C95	C	1.958588	-0.476774	0.900453
C96	C	2.208588	-0.226774	1.150453
C97	C	1.482161	-1.047470	0.488495
C98	C	1.732161	-0.797470	0.738495
C99	C	1.982161	-0.547470	0.988495
C100	C	2.232161	-0.297470	1.238495
C101	C	1.370636	-1.047634	0.376833
C102	C	1.620636	-0.797634	0.626833
C103	C	1.870636	-0.547634	0.876833
C104	C	2.120636	-0.297634	1.126833
C105	C	1.417707	-0.976668	0.552906
C106	C	1.667707	-0.726668	0.802906
C107	C	1.917707	-0.476668	1.052906
C108	C	2.167707	-0.226668	1.302906
C109	C	1.306140	-0.976827	0.441184
C110	C	1.556140	-0.726827	0.691184
C111	C	1.806140	-0.476827	0.941184
C112	C	2.056140	-0.226827	1.191184
C113	C	1.329680	-1.047490	0.529287
C114	C	1.579680	-0.797490	0.779287
C115	C	1.829680	-0.547490	1.029287
C116	C	2.079680	-0.297490	1.279287
C117	C	1.645657	-0.512702	0.464844
C118	C	1.895657	-0.262702	0.714844
C119	C	2.145657	-0.012702	0.964844
C120	C	2.395657	0.237298	1.214844
C121	C	1.752871	-0.512709	0.464859
C122	C	2.002871	-0.262709	0.714859
C123	C	2.252871	-0.012709	0.964859
C124	C	2.502871	0.237291	1.214859
C125	C	1.394132	-0.512590	0.716403
C126	C	1.644132	-0.262590	0.966403
C127	C	1.894132	-0.012590	1.216403
C128	C	2.144132	0.237410	1.466403
C129	C	1.394161	-0.512550	0.823617
C130	C	1.644161	-0.262550	1.073617
C131	C	1.894161	-0.012550	1.323617
C132	C	2.144161	0.237450	1.573617
C133	C	1.394135	-0.235064	0.464848
C134	C	1.644135	0.014936	0.714848
C135	C	1.894135	0.264936	0.964848
C136	C	2.144135	0.514936	1.214848
C137	C	1.394165	-0.116758	0.464864
C138	C	1.644165	0.133242	0.714864
C139	C	1.894165	0.383242	0.964864
C140	C	2.144165	0.633242	1.214864
C141	C	1.394051	-0.512701	0.214196
C142	C	1.644051	-0.262701	0.464196
C143	C	1.894051	-0.012701	0.714196
C144	C	2.144051	0.237299	0.964196
C145	C	1.394209	-0.512442	0.106982
C146	C	1.644209	-0.262442	0.356982
C147	C	1.894209	-0.012442	0.606982
C148	C	2.144209	0.237558	0.856982
C149	C	1.394188	-0.512478	1.019912
C150	C	1.644188	-0.262478	1.269912
C151	C	1.894188	-0.012478	1.519912
C152	C	2.144188	0.237522	1.769912
C153	C	1.394170	-0.512521	0.910680
C154	C	1.644170	-0.262521	1.160680
C155	C	1.894170	-0.012521	1.410680
C156	C	2.144170	0.237479	1.660680
H157	H	1.513142	-0.945722	0.346071
H158	H	1.763142	-0.695722	0.596071
H159	H	2.013142	-0.445722	0.846071
H160	H	2.263142	-0.195722	1.096071
H161	H	1.350767	-1.078805	0.302405
H162	H	1.600767	-0.828805	0.552405
H163	H	1.850767	-0.578805	0.802405
H164	H	2.100767	-0.328805	1.052405
H165	H	1.556570	-1.078503	0.508511
H166	H	1.806570	-0.828503	0.758511
H167	H	2.056570	-0.578503	1.008511
H168	H	2.306570	-0.328503	1.258511
H169	H	1.437501	-0.945630	0.627398
H170	H	1.687501	-0.695630	0.877398
H171	H	1.937501	-0.445630	1.127398
H172	H	2.187501	-0.195630	1.377398
H173	H	1.275168	-1.078345	0.583801
H174	H	1.525168	-0.828345	0.833801
H175	H	1.775168	-0.578345	1.083801
H176	H	2.025168	-0.328345	1.333801
H177	H	1.231752	-0.945770	0.421142
H178	H	1.481752	-0.695770	0.671142
H179	H	1.731752	-0.445770	0.921142
H180	H	1.981752	-0.195770	1.171142
