data_functionalizedCrystal
_audit_creation_method	'MofGen! by Chris Wilmer'
_symmetry_space_group_name_H-M	'P1'
_symmetry_Int_Tables_number	1
_symmetry_cell_setting	triclinic
loop_
_symmetry_equiv_pos_as_xyz
  x,y,z
_cell_length_a	23.532407
_cell_length_b	14.853569
_cell_length_c	22.610064
_cell_angle_alpha	89.990737
_cell_angle_beta	90.015293
_cell_angle_gamma	83.242121
loop_
_atom_site_label
_atom_site_type_symbol
_atom_site_fract_x
_atom_site_fract_y
_atom_site_fract_z
O1	O	0.074363	1.195534	0.049164
O2	O	0.574363	1.695534	0.549164
O3	O	0.083220	0.932978	0.049172
O4	O	0.583220	1.432978	0.549172
O5	O	-0.004106	1.072173	0.049157
O6	O	0.495894	1.572173	0.549157
O7	O	0.161689	1.056339	0.049179
O8	O	0.661689	1.556339	0.549179
O9	O	-0.004120	1.072195	-0.049213
O10	O	0.495880	1.572195	0.450787
O11	O	0.083205	0.932999	-0.049198
O12	O	0.583205	1.432999	0.450802
O13	O	0.074349	1.195555	-0.049205
O14	O	0.574349	1.695555	0.450795
Zn15	Zn	0.078774	1.064280	-0.064820
Zn16	Zn	0.578774	1.564280	0.435180
Zn17	Zn	0.078794	1.064253	0.064786
Zn18	Zn	0.578794	1.564253	0.564786
O19	O	0.161674	1.056360	-0.049190
O20	O	0.661674	1.556360	0.450810
C21	C	0.082811	0.899404	-0.000012
C22	C	0.582811	1.399404	0.499988
C23	C	0.081608	0.799334	-0.000010
C24	C	0.581608	1.299334	0.499990
C25	C	0.029170	0.763531	-0.000014
C26	C	0.529170	1.263531	0.499986
C27	C	0.132915	0.741106	-0.000007
C28	C	0.632915	1.241106	0.499993
C29	C	0.131787	0.647085	-0.000008
C30	C	0.631787	1.147085	0.499992
C31	C	0.079349	0.611282	-0.000013
C32	C	0.579349	1.111282	0.499987
C33	C	0.028040	0.669500	-0.000017
C34	C	0.528040	1.169500	0.499983
C35	C	0.183095	0.588859	-0.000010
C36	C	0.683095	1.088859	0.499990
C37	C	0.181968	0.494831	-0.000012
C38	C	0.681968	0.994831	0.499988
C39	C	0.129530	0.459026	-0.000012
C40	C	0.629530	0.959026	0.499988
C41	C	0.078219	0.517251	-0.000016
C42	C	0.578219	1.017251	0.499984
C43	C	0.025782	0.481448	-0.000021
C44	C	0.525782	0.981448	0.499979
C45	C	-0.025530	0.539672	-0.000020
C46	C	0.474470	1.039672	0.499980
C47	C	-0.024398	0.633696	-0.000018
C48	C	0.475602	1.133696	0.499982
C49	C	0.128398	0.365002	-0.000014
C50	C	0.628398	0.865002	0.499986
C51	C	0.024651	0.387418	-0.000023
C52	C	0.524651	0.887418	0.499977
C53	C	-0.025331	1.071781	-0.000029
C54	C	0.474669	1.571781	0.499971
C55	C	-0.088553	1.070568	-0.000034
C56	C	0.411447	1.570568	0.499966
C57	C	-0.487330	1.145337	-0.000004
C58	C	0.012670	1.645337	0.499996
C59	C	-0.546735	1.144211	0.000001
C60	C	-0.046735	1.644211	0.500001
O61	O	-0.583177	1.213523	0.000020
O62	O	-0.083177	1.713523	0.500020
N63	N	-0.569722	1.061459	0.000003
N64	N	-0.069722	1.561459	0.500003
C65	C	-0.533301	0.979829	0.000006
C66	C	-0.033301	1.479829	0.500006
O67	O	-0.558309	0.909339	0.000009
O68	O	-0.058309	1.409339	0.500009
C69	C	-0.473897	0.980956	0.000006
C70	C	0.026103	1.480956	0.500006
C71	C	-0.450913	1.063713	-0.000002
C72	C	0.049087	1.563713	0.499998
C73	C	-0.464345	1.228088	-0.000011
C74	C	0.035655	1.728088	0.499989
C75	C	-0.404944	1.229213	-0.000017
C76	C	0.095056	1.729213	0.499983
C77	C	-0.368527	1.147589	-0.000015
C78	C	0.131473	1.647589	0.499985
C79	C	-0.391512	1.064839	-0.000008
C80	C	0.108488	1.564839	0.499992
C81	C	-0.437478	0.899326	0.000014
C82	C	0.062522	1.399326	0.500014
C83	C	-0.378070	0.900460	0.000014
C84	C	0.121930	1.400460	0.500014
C85	C	-0.355086	0.983217	0.000006
C86	C	0.144914	1.483217	0.500006
C87	C	-0.295695	0.984340	-0.000012
C88	C	0.204305	1.484340	0.499988
N89	N	-0.272707	1.067092	-0.000014
N90	N	0.227293	1.567092	0.499986
C91	C	-0.309123	1.148716	-0.000015
C92	C	0.190877	1.648716	0.499985
C93	C	-0.658054	0.977468	0.000008
C94	C	-0.158054	1.477468	0.500008
C95	C	-0.717457	0.976340	0.000004
C96	C	-0.217457	1.476340	0.500004
C97	C	-0.730886	1.140723	-0.000000
C98	C	-0.230886	1.640723	0.500000
C99	C	-0.671482	1.141850	-0.000001
C100	C	-0.171482	1.641850	0.499999
C101	C	-0.635067	1.060220	0.000006
C102	C	-0.135067	1.560220	0.500006
C103	C	-0.184376	1.151074	-0.000028
C104	C	0.315624	1.651074	0.499972
C105	C	-0.124969	1.152193	-0.000036
C106	C	0.375031	1.652193	0.499964
C107	C	-0.111545	0.987811	-0.000028
C108	C	0.388455	1.487811	0.499972
C109	C	-0.170947	0.986691	-0.000023
C110	C	0.329053	1.486691	0.499977
C111	C	-0.207362	1.068331	-0.000021
C112	C	0.292638	1.568331	0.499979
O113	O	-0.259218	0.915065	-0.000029
O114	O	0.240782	1.415065	0.499971
O115	O	-0.284108	1.219195	-0.000010
O116	O	0.215892	1.719195	0.499990
C117	C	0.182899	1.056752	-0.000003
C118	C	0.682899	1.556752	0.499997
C119	C	0.246121	1.057965	0.000005
C120	C	0.746121	1.557965	0.500005
C121	C	0.074757	1.229129	-0.000020
C122	C	0.574757	1.729129	0.499980
C123	C	0.075960	1.329199	-0.000019
C124	C	0.575960	1.829199	0.499981
N125	N	0.078803	1.064234	0.153238
N126	N	0.578803	1.564234	0.653238
N127	N	0.078761	1.064306	-0.153272
N128	N	0.578761	1.564306	0.346728
C129	C	0.040192	1.126044	0.561873
C130	C	0.540192	1.626044	1.061873
C131	C	0.040189	1.126050	0.623793
C132	C	0.540189	1.626050	1.123793
O133	O	0.007384	1.178588	0.655806
O134	O	0.507384	1.678588	1.155806
N135	N	0.078775	1.064299	0.654776
N136	N	0.578775	1.564299	1.154776
C137	C	0.117369	1.002543	0.623835
C138	C	0.617369	1.502543	1.123835
O139	O	0.150190	0.950020	0.655874
O140	O	0.650190	1.450020	1.155874
C141	C	0.117374	1.002542	0.561916
C142	C	0.617374	1.502542	1.061916
C143	C	0.078783	1.064291	0.530937
C144	C	0.578783	1.564291	1.030937
C145	C	0.001604	1.187788	0.530894
C146	C	0.501604	1.687788	1.030894
C147	C	0.001606	1.187780	0.468978
C148	C	0.501606	1.687780	0.968978
C149	C	0.040196	1.126027	0.438042
C150	C	0.540196	1.626027	0.938042
C151	C	0.078785	1.064283	0.469021
C152	C	0.578785	1.564283	0.969021
C153	C	0.155971	0.940791	0.530977
C154	C	0.655971	1.440791	1.030977
C155	C	0.155973	0.940795	0.469054
C156	C	0.655973	1.440795	0.969054
C157	C	0.117381	1.002544	0.438074
C158	C	0.617381	1.502544	0.938074
C159	C	0.117377	1.002521	0.376169
C160	C	0.617377	1.502521	0.876169
N161	N	0.078792	1.064273	0.345187
N162	N	0.578792	1.564273	0.845187
C163	C	0.040201	1.126026	0.376123
C164	C	0.540201	1.626026	0.876123
C165	C	0.117357	1.002553	0.753868
C166	C	0.617357	1.502553	1.253868
C167	C	0.117349	1.002550	0.815786
C168	C	0.617349	1.502550	1.315786
C169	C	0.040170	1.126058	0.815740
C170	C	0.540170	1.626058	1.315740
C171	C	0.040175	1.126056	0.753821
C172	C	0.540175	1.626056	1.253821
C173	C	0.078771	1.064304	0.722886
C174	C	0.578771	1.564304	1.222886
C175	C	0.040209	1.126003	0.246096
C176	C	0.540209	1.626003	0.746096
C177	C	0.040213	1.125987	0.184175
C178	C	0.540213	1.625987	0.684175
C179	C	0.117394	1.002482	0.184226
C180	C	0.617394	1.502482	0.684226
C181	C	0.117388	1.002495	0.246142
C182	C	0.617388	1.502495	0.746142
C183	C	0.078793	1.064263	0.277075
C184	C	0.578793	1.564263	0.777075
O185	O	0.150167	0.950013	0.344117
O186	O	0.650167	1.450013	0.844117
O187	O	0.007392	1.178548	0.344077
O188	O	0.507392	1.678548	0.844077
H189	H	0.175607	0.770263	-0.000007
H190	H	0.675607	1.270263	0.499993
Br191	Br	-0.012170	1.209832	0.288067
Br192	Br	0.487830	1.709832	0.788067
Br193	Br	-0.012381	1.209589	0.857737
Br194	Br	0.487619	1.709589	1.357737
H195	H	-0.029821	1.238079	0.556077
H196	H	0.470179	1.738079	1.056077
Br197	Br	-0.373761	1.341533	-0.000011
Br198	Br	0.126239	1.841533	0.499989
Br199	Br	0.169716	0.918730	0.857822
Br200	Br	0.669716	1.418730	1.357822
Br201	Br	-0.012202	1.209861	0.711785
Br202	Br	0.487798	1.709861	1.211785
H203	H	0.148812	0.952201	0.159028
H204	H	0.648812	1.452201	0.659028
Br205	Br	-0.012168	1.209791	0.142134
Br206	Br	0.487832	1.709791	0.642134
H207	H	0.225787	0.618017	-0.000010
H208	H	0.725787	1.118017	0.499990
Br209	Br	0.251604	0.415822	-0.000009
Br210	Br	0.751604	0.915822	0.499991
H211	H	-0.066173	0.681109	-0.000018
H212	H	0.433827	1.181109	0.499982
Br213	Br	-0.513757	1.338880	-0.000013
Br214	Br	-0.013757	1.838880	0.499987
H215	H	-0.029817	1.238064	0.443758
H216	H	0.470183	1.738064	0.943758
H217	H	-0.456180	0.831937	0.000024
H218	H	0.043820	1.331937	0.500024
H219	H	0.187397	0.890510	0.556191
H220	H	0.687397	1.390510	1.056191
Br221	Br	0.198029	0.285990	-0.000025
Br222	Br	0.698029	0.785990	0.499975
H223	H	-0.106260	1.219586	-0.000044
H224	H	0.393740	1.719586	0.499956
H225	H	-0.736165	0.908951	0.000000
H226	H	-0.236165	1.408951	0.500000
H227	H	-0.018050	0.358275	-0.000024
H228	H	0.481950	0.858275	0.499976
H229	H	-0.214019	1.217553	-0.000024
H230	H	0.285981	1.717553	0.499976
H231	H	-0.652773	1.209238	-0.000007
H232	H	-0.152773	1.709238	0.499993
Br233	Br	0.169757	0.918678	0.288184
Br234	Br	0.669757	1.418678	0.788184
H235	H	-0.760548	1.207186	0.000000
H236	H	-0.260548	1.707186	0.500000
H237	H	-0.628407	0.910990	0.000008
H238	H	-0.128407	1.410990	0.500008
Br239	Br	-0.328652	0.789670	0.000026
Br240	Br	0.171348	1.289670	0.500026
Br241	Br	-0.202141	0.874378	-0.000026
Br242	Br	0.297859	1.374378	0.499974
Br243	Br	-0.040464	0.842543	-0.000010
Br244	Br	0.459536	1.342543	0.499990
Br245	Br	0.169739	0.918733	0.711891
Br246	Br	0.669739	1.418733	1.211891
H247	H	-0.068225	0.510509	-0.000020
H248	H	0.431775	1.010509	0.499980
Br249	Br	0.208360	0.856986	0.427074
Br250	Br	0.708360	1.356986	0.927074
H251	H	-0.081885	0.921354	-0.000029
H252	H	0.418115	1.421354	0.499971
