data_functionalizedCrystal
_audit_creation_method	'MofGen! by Chris Wilmer'
_symmetry_space_group_name_H-M	'P1'
_symmetry_Int_Tables_number	1
_symmetry_cell_setting	triclinic
loop_
_symmetry_equiv_pos_as_xyz
  x,y,z
_cell_length_a	18.101398
_cell_length_b	18.215405
_cell_length_c	18.215398
_cell_angle_alpha	90.024832
_cell_angle_beta	90.008911
_cell_angle_gamma	90.022336
loop_
_atom_site_label
_atom_site_type_symbol
_atom_site_fract_x
_atom_site_fract_y
_atom_site_fract_z
Zn1	Zn	-1.132142	0.293112	-0.415912
Zn2	Zn	-0.798808	0.626446	-0.082578
Zn3	Zn	-0.465475	0.959779	0.250755
Zn4	Zn	-1.132045	0.416178	-0.292847
Zn5	Zn	-0.798711	0.749511	0.040487
Zn6	Zn	-0.465378	1.082845	0.373820
Zn7	Zn	-1.008300	0.293119	-0.292882
Zn8	Zn	-0.674967	0.626452	0.040452
Zn9	Zn	-0.341633	0.959785	0.373785
Zn10	Zn	-1.008259	0.416130	-0.415894
Zn11	Zn	-0.674926	0.749464	-0.082561
Zn12	Zn	-0.341592	1.082797	0.250772
O13	O	-1.070186	0.354635	-0.354384
O14	O	-0.736853	0.687968	-0.021050
O15	O	-0.403520	1.021302	0.312283
O16	O	-1.235762	0.309454	-0.399579
O17	O	-0.902428	0.642788	-0.066246
O18	O	-0.569095	0.976121	0.267087
O19	O	-1.115606	0.399877	-0.189867
O20	O	-0.782273	0.733210	0.143466
O21	O	-0.448939	1.066543	0.476800
O22	O	-1.024785	0.190134	-0.309224
O23	O	-0.691452	0.523467	0.024110
O24	O	-0.358119	0.856800	0.357443
O25	O	-1.235690	0.399870	-0.309164
O26	O	-0.902357	0.733204	0.024169
O27	O	-0.569024	1.066537	0.357503
O28	O	-1.115771	0.190129	-0.399613
O29	O	-0.782438	0.523462	-0.066280
O30	O	-0.449105	0.856796	0.267053
O31	O	-1.024691	0.309466	-0.189893
O32	O	-0.691358	0.642799	0.143441
O33	O	-0.358025	0.976132	0.476774
O34	O	-0.904662	0.309419	-0.309207
O35	O	-0.571328	0.642753	0.024126
O36	O	-0.237995	0.976086	0.357460
O37	O	-1.024716	0.399789	-0.518881
O38	O	-0.691383	0.733122	-0.185547
O39	O	-0.358049	1.066456	0.147786
O40	O	-0.904632	0.399795	-0.399584
O41	O	-0.571298	0.733129	-0.066250
O42	O	-0.237965	1.066462	0.267083
O43	O	-1.115732	0.309408	-0.518894
O44	O	-0.782399	0.642742	-0.185560
O45	O	-0.449065	0.976075	0.147773
O46	O	-1.115566	0.519156	-0.309147
O47	O	-0.782233	0.852489	0.024186
O48	O	-0.448900	1.185823	0.357519
O49	O	-1.024622	0.519121	-0.399550
O50	O	-0.691288	0.852454	-0.066216
O51	O	-0.357955	1.185788	0.267117
C52	C	-0.877776	0.354603	-0.354398
C53	C	-0.544442	0.687937	-0.021064
C54	C	-0.211109	1.021270	0.312269
C55	C	-0.795462	0.354608	-0.354421
C56	C	-0.462128	0.687941	-0.021088
C57	C	-0.128795	1.021274	0.312246
C58	C	-0.496371	0.354647	-0.354396
C59	C	-0.163037	0.687980	-0.021063
C60	C	0.170296	1.021314	0.312270
C61	C	-0.527702	0.411785	-0.410978
C62	C	-0.194368	0.745118	-0.077644
C63	C	0.138965	1.078451	0.255689
C64	C	-0.613320	0.411607	-0.411209
C65	C	-0.279987	0.744940	-0.077875
C66	C	0.053347	1.078274	0.255458
C67	C	-0.644753	0.354628	-0.354409
C68	C	-0.311420	0.687962	-0.021075
C69	C	0.021913	1.021295	0.312258
C70	C	-0.613694	0.277115	-0.375603
C71	C	-0.280361	0.610448	-0.042269
C72	C	0.052973	0.943781	0.291064
C73	C	-0.528049	0.277457	-0.376007
C74	C	-0.194716	0.610790	-0.042673
C75	C	0.138618	0.944123	0.290660
C76	C	-0.527919	0.374340	-0.276484
C77	C	-0.194586	0.707673	0.056849
C78	C	0.138748	1.041007	0.390183
C79	C	-0.613569	0.376042	-0.276899
C80	C	-0.280236	0.709375	0.056435
C81	C	0.053098	1.042709	0.389768
C82	C	-0.728613	0.354613	-0.354414
C83	C	-0.395279	0.687946	-0.021081
C84	C	-0.061946	1.021279	0.312252
C85	C	-0.412511	0.354657	-0.354392
C86	C	-0.079178	0.687991	-0.021059
C87	C	0.254155	1.021324	0.312274
C88	C	-1.070099	0.545841	-0.354359
C89	C	-0.736766	0.879175	-0.021025
C90	C	-0.403433	1.212508	0.312308
C91	C	-1.070130	0.627640	-0.354373
C92	C	-0.736796	0.960973	-0.021039
C93	C	-0.403463	1.294307	0.312294
C94	C	-1.070230	0.354593	-0.546337
C95	C	-0.736897	0.687926	-0.213003
C96	C	-0.403563	1.021259	0.120330
C97	C	-1.070249	0.354575	-0.628135
C98	C	-0.736916	0.687908	-0.294802
C99	C	-0.403582	1.021241	0.038531
C100	C	-0.263348	0.354664	-0.354375
C101	C	0.069985	0.687997	-0.021041
C102	C	0.403319	1.021330	0.312292
C103	C	-0.345662	0.354668	-0.354384
C104	C	-0.012329	0.688001	-0.021051
C105	C	0.321004	1.021334	0.312283
C106	C	-1.117525	0.892637	-0.401506
C107	C	-0.784191	1.225971	-0.068173
C108	C	-0.450858	1.559304	0.265160
C109	C	-1.117507	0.815779	-0.401496
C110	C	-0.784174	1.149112	-0.068163
C111	C	-0.450841	1.482445	0.265170
C112	C	-1.022846	0.815891	-0.307288
C113	C	-0.689513	1.149224	0.026046
C114	C	-0.356179	1.482558	0.359379
C115	C	-1.022868	0.892748	-0.307294
C116	C	-0.689534	1.226082	0.026039
C117	C	-0.356201	1.559415	0.359372
C118	C	-1.070206	0.931120	-0.354408
C119	C	-0.736873	1.264453	-0.021075
C120	C	-0.403539	1.597786	0.312259
C121	C	-1.070167	0.777404	-0.354391
C122	C	-0.736833	1.110737	-0.021058
C123	C	-0.403500	1.444070	0.312275
C124	C	-1.070148	0.694070	-0.354380
C125	C	-0.736814	1.027403	-0.021047
C126	C	-0.403481	1.360737	0.312287
C127	C	-1.070226	1.014459	-0.354419
C128	C	-0.736893	1.347792	-0.021085
C129	C	-0.403560	1.681125	0.312248
C130	C	-1.070270	1.162682	-0.354421
C131	C	-0.736936	1.496015	-0.021087
C132	C	-0.403603	1.829349	0.312246
C133	C	-1.070243	1.080883	-0.354426
C134	C	-0.736910	1.414216	-0.021093
C135	C	-0.403576	1.747550	0.312240
C136	C	-1.117622	0.401561	-0.893184
C137	C	-0.784289	0.734894	-0.559851
C138	C	-0.450955	1.068227	-0.226517
C139	C	-1.117611	0.401586	-0.816325
C140	C	-0.784277	0.734920	-0.482992
C141	C	-0.450944	1.068253	-0.149659
C142	C	-1.022932	0.307446	-0.816335
C143	C	-0.689598	0.640780	-0.483002
C144	C	-0.356265	0.974113	-0.149669
C145	C	-1.022940	0.307425	-0.893193
C146	C	-0.689606	0.640758	-0.559859
C147	C	-0.356273	0.974092	-0.226526
C148	C	-1.070289	0.354481	-0.931615
C149	C	-0.736956	0.687815	-0.598282
C150	C	-0.403622	1.021148	-0.264949
C151	C	-1.070270	0.354528	-0.777899
C152	C	-0.736936	0.687861	-0.444566
C153	C	-0.403603	1.021195	-0.111232
C154	C	-1.070257	0.354555	-0.694565
C155	C	-0.736924	0.687889	-0.361232
C156	C	-0.403590	1.021222	-0.027899
C157	C	-1.070301	0.354455	-1.014954
C158	C	-0.736968	0.687788	-0.681621
C159	C	-0.403634	1.021122	-0.348288
C160	C	-1.070185	0.354624	-0.163177
C161	C	-0.736852	0.687957	0.170156
C162	C	-0.403519	1.021291	0.503489
C163	C	-1.070310	0.354435	-0.081379
C164	C	-0.736977	0.687768	0.251955
C165	C	-0.403643	1.021101	0.585288
H166	H	-0.507090	0.469452	-0.397844
H167	H	-0.173757	0.802786	-0.064510
H168	H	0.159577	1.136119	0.268823
H169	H	-0.634055	0.233390	-0.335676
H170	H	-0.300722	0.566723	-0.002343
H171	H	0.032611	0.900057	0.330990
Br172	Br	-0.494149	0.304975	-0.206216
Br173	Br	-0.160816	0.638309	0.127117
Br174	Br	0.172518	0.971642	0.460450
Br175	Br	-0.958692	0.243571	-0.764186
Br176	Br	-0.625359	0.576904	-0.430853
Br177	Br	-0.292025	0.910237	-0.097520
Br178	Br	-0.958683	0.243541	-0.945354
Br179	Br	-0.625350	0.576874	-0.612021
Br180	Br	-0.292016	0.910208	-0.278688
H181	H	-0.984303	0.784642	-0.268930
H182	H	-0.650970	1.117975	0.064404
H183	H	-0.317636	1.451308	0.397737
Br184	Br	-0.648323	0.507419	-0.389102
Br185	Br	-0.314990	0.840753	-0.055769
Br186	Br	0.018343	1.174086	0.277565
Br187	Br	-0.958650	0.944979	-0.243365
Br188	Br	-0.625317	1.278313	0.089969
Br189	Br	-0.291983	1.611646	0.423302
H190	H	-1.156176	0.439878	-0.924465
H191	H	-0.822843	0.773211	-0.591132
H192	H	-0.489509	1.106544	-0.257799
H193	H	-1.156067	0.923877	-0.439872
H194	H	-0.822734	1.257210	-0.106539
H195	H	-0.489401	1.590544	0.226794
H196	H	-0.506191	0.398921	-0.468372
H197	H	-0.172857	0.732254	-0.135039
H198	H	0.160476	1.065587	0.198295
Br199	Br	-0.647498	0.389892	-0.507425
Br200	Br	-0.314165	0.723225	-0.174092
Br201	Br	0.019168	1.056559	0.159242
Br202	Br	-1.181848	0.465486	-0.764171
Br203	Br	-0.848515	0.798819	-0.430838
Br204	Br	-0.515181	1.132153	-0.097505
H205	H	-1.156039	0.784449	-0.439847
H206	H	-0.822706	1.117782	-0.106514
H207	H	-0.489373	1.451115	0.226819
H208	H	-0.508087	0.260753	-0.432964
H209	H	-0.174754	0.594087	-0.099631
H210	H	0.158580	0.927420	0.233703
H211	H	-0.635158	0.260110	-0.431940
H212	H	-0.301825	0.593444	-0.098607
H213	H	0.031509	0.926777	0.234727
Br214	Br	-0.493501	0.204099	-0.310317
Br215	Br	-0.160168	0.537432	0.023017
Br216	Br	0.173166	0.870766	0.356350
Br217	Br	-0.491887	0.466928	-0.244374
Br218	Br	-0.158554	0.800261	0.088959
Br219	Br	0.174779	1.133594	0.422293
H220	H	-0.633877	0.433080	-0.260914
H221	H	-0.300543	0.766414	0.072419
H222	H	0.032790	1.099747	0.405753
Br223	Br	-0.649226	0.311713	-0.202855
Br224	Br	-0.315893	0.645046	0.130479
Br225	Br	0.017441	0.978380	0.463812
