data_functionalizedCrystal
_audit_creation_method	'MofGen! by Chris Wilmer'
_symmetry_space_group_name_H-M	'P1'
_symmetry_Int_Tables_number	1
_symmetry_cell_setting	triclinic
loop_
_symmetry_equiv_pos_as_xyz
  x,y,z
_cell_length_a	19.188930
_cell_length_b	18.266242
_cell_length_c	19.188930
_cell_angle_alpha	90.011475
_cell_angle_beta	96.855221
_cell_angle_gamma	89.977082
loop_
_atom_site_label
_atom_site_type_symbol
_atom_site_fract_x
_atom_site_fract_y
_atom_site_fract_z
O1	O	0.926149	-0.061124	-0.087169
O2	O	1.426149	0.438876	0.412831
O3	O	0.722838	-0.061075	-0.098903
O4	O	1.222838	0.438925	0.401097
O5	O	0.830361	-0.061087	0.008620
O6	O	1.330361	0.438913	0.508620
O7	O	0.818627	-0.061113	-0.194691
O8	O	1.318627	0.438887	0.305309
O9	O	0.830343	0.060675	0.008625
O10	O	1.330343	0.560675	0.508625
O11	O	0.722820	0.060687	-0.098897
O12	O	1.222820	0.560687	0.401103
O13	O	0.926131	0.060638	-0.087163
O14	O	1.426131	0.560638	0.412837
Zn15	Zn	0.824473	0.079994	-0.093029
Zn16	Zn	1.324473	0.579994	0.406971
Zn17	Zn	0.824497	-0.080432	-0.093037
Zn18	Zn	1.324497	0.419568	0.406963
O19	O	0.818608	0.060649	-0.194686
O20	O	1.318608	0.560649	0.305314
C21	C	0.696818	-0.000188	-0.098520
C22	C	1.196818	0.499812	0.401480
C23	C	0.619313	-0.000169	-0.097380
C24	C	1.119313	0.499831	0.402620
N25	N	0.824461	0.189481	-0.093024
N26	N	1.324461	0.689481	0.406976
N27	N	0.824513	-0.189919	-0.093037
N28	N	1.324513	0.310081	0.406963
C29	C	0.574389	-0.000188	-0.160470
C30	C	1.074389	0.499812	0.339530
C31	C	0.501566	-0.000196	-0.159399
C32	C	1.001566	0.499804	0.340601
C33	C	0.473669	-0.000199	-0.095233
C34	C	0.973669	0.499801	0.404767
C35	C	0.518603	-0.000175	-0.032133
C36	C	1.018603	0.499825	0.467867
C37	C	0.591425	-0.000160	-0.033207
C38	C	1.091425	0.499840	0.466793
N39	N	0.365695	-0.041663	-0.046188
N40	N	0.865695	0.458337	0.453812
N41	N	0.296516	-0.041679	-0.045172
N42	N	0.796516	0.458321	0.454828
C43	C	0.254260	-0.000243	-0.091994
C44	C	0.754260	0.499757	0.408006
N45	N	0.283795	0.041200	-0.139881
N46	N	0.783795	0.541200	0.360119
N47	N	0.352980	0.041213	-0.140899
N48	N	0.852980	0.541213	0.359101
C49	C	0.394707	-0.000215	-0.094062
C50	C	0.894707	0.499785	0.405938
C51	C	0.130372	-0.000270	-0.153928
C52	C	0.630372	0.499730	0.346072
C53	C	0.057547	-0.000274	-0.152853
C54	C	0.557547	0.499726	0.347147
C55	C	0.074586	-0.000261	-0.025586
C56	C	0.574586	0.499739	0.474414
C57	C	0.147409	-0.000250	-0.026662
C58	C	0.647409	0.499750	0.473338
C59	C	0.175298	-0.000258	-0.090835
C60	C	0.675298	0.499742	0.409165
C61	C	0.952151	-0.000252	-0.087546
C62	C	1.452151	0.499748	0.412454
C63	C	1.029656	-0.000276	-0.088687
C64	C	1.529656	0.499724	0.411313
C65	C	0.829972	-0.000204	0.034634
C66	C	1.329972	0.499796	0.534634
C67	C	0.828831	-0.000197	0.112138
C68	C	1.328831	0.499803	0.612138
C69	C	0.872088	0.227785	-0.045436
C70	C	1.372088	0.727785	0.454564
C71	C	0.872092	0.304430	-0.045433
C72	C	1.372092	0.804430	0.454567
C73	C	0.824477	0.342768	-0.093030
C74	C	1.324477	0.842768	0.406970
C75	C	0.776841	0.304455	-0.140621
C76	C	1.276841	0.804455	0.359379
C77	C	0.776834	0.227812	-0.140618
C78	C	1.276834	0.727812	0.359382
N79	N	0.815401	0.463094	-0.154837
N80	N	1.315401	0.963094	0.345163
N81	N	0.815413	0.535902	-0.154838
N82	N	1.315413	1.035902	0.345162
C83	C	0.824496	0.573691	-0.093040
C84	C	1.324496	1.073691	0.406960
N85	N	0.833582	0.535920	-0.031239
N86	N	1.333582	1.035920	0.468761
N87	N	0.833574	0.463106	-0.031240
N88	N	1.333574	0.963106	0.468760
C89	C	0.824480	0.425875	-0.093038
C90	C	1.324480	0.925875	0.406962
C91	C	0.872131	0.695101	-0.045444
C92	C	1.372131	1.195101	0.454556
C93	C	0.872130	0.771748	-0.045440
C94	C	1.372130	1.271748	0.454560
C95	C	0.776882	0.771772	-0.140634
C96	C	1.276882	1.271772	0.359366
C97	C	0.776879	0.695127	-0.140632
C98	C	1.276879	1.195127	0.359368
C99	C	0.824507	0.656796	-0.093038
C100	C	1.324507	1.156796	0.406962
C101	C	0.818997	-0.000236	-0.220700
C102	C	1.318997	0.499764	0.279300
C103	C	0.820138	-0.000247	-0.298204
C104	C	1.320138	0.499753	0.201796
C105	C	0.891922	-0.000209	0.157062
C106	C	1.391922	0.499791	0.657062
C107	C	0.890850	-0.000220	0.229886
C108	C	1.390850	0.499780	0.729886
C109	C	0.826684	-0.000206	0.257782
C110	C	1.326684	0.499794	0.757782
C111	C	0.763585	-0.000198	0.212849
C112	C	1.263585	0.499802	0.712849
C113	C	0.764658	-0.000194	0.140026
C114	C	1.264658	0.499806	0.640026
N115	N	0.777631	0.041244	0.365789
N116	N	1.277631	0.541244	0.865789
N117	N	0.776615	0.041242	0.434968
N118	N	1.276615	0.541242	0.934968
C119	C	0.823446	-0.000220	0.477191
C120	C	1.323446	0.499780	0.977191
N121	N	0.871341	-0.041669	0.447624
N122	N	1.371341	0.458331	0.947624
N123	N	0.872359	-0.041664	0.378439
N124	N	1.372359	0.458336	0.878439
C125	C	0.825513	-0.000210	0.336745
C126	C	1.325513	0.499790	0.836745
C127	C	0.885379	-0.000245	0.601079
C128	C	1.385379	0.499755	1.101079
C129	C	0.884305	-0.000261	0.673904
C130	C	1.384305	0.499739	1.173904
C131	C	0.757038	-0.000231	0.656865
C132	C	1.257038	0.499769	1.156865
C133	C	0.758114	-0.000222	0.584042
C134	C	1.258114	0.499778	1.084042
C135	C	0.822287	-0.000226	0.556154
C136	C	1.322287	0.499774	1.056154
H137	H	0.597091	-0.000196	-0.212725
H138	H	1.097091	0.499804	0.287275
Cl139	Cl	0.039523	-0.000256	0.055081
Cl140	Cl	0.539523	0.499744	0.555081
Cl141	Cl	0.445079	-0.000219	-0.238719
Cl142	Cl	0.945079	0.499781	0.261281
Cl143	Cl	0.682919	-0.000185	0.247918
Cl144	Cl	1.182919	0.499815	0.747918
Cl145	Cl	0.716956	0.179655	-0.200449
Cl146	Cl	1.216956	0.679655	0.299551
Cl147	Cl	0.203888	-0.000230	0.052657
Cl148	Cl	0.703888	0.499770	0.552657
H149	H	0.706738	-0.000208	0.547464
H150	H	1.206738	0.499792	1.047464
Cl151	Cl	0.685337	-0.000179	0.083547
Cl152	Cl	1.185337	0.499821	0.583547
H153	H	0.937632	-0.000251	0.578372
H154	H	1.437632	0.499749	1.078372
H155	H	0.910868	0.196579	-0.006681
H156	H	1.410868	0.696579	0.493319
Cl157	Cl	0.963627	-0.000280	0.730382
Cl158	Cl	1.463627	0.499720	1.230382
Cl159	Cl	0.931972	0.352591	0.014397
Cl160	Cl	1.431972	0.852591	0.514397
Cl161	Cl	0.717007	0.646969	-0.200464
Cl162	Cl	1.217007	1.146969	0.299536
Cl163	Cl	0.932001	0.646913	0.014392
Cl164	Cl	1.432001	1.146913	0.514392
Cl165	Cl	0.716979	0.352650	-0.200454
Cl166	Cl	1.216979	0.852650	0.299546
H167	H	0.944176	-0.000214	0.134360
H168	H	1.444176	0.499786	0.634360
H169	H	0.153080	-0.000267	-0.206181
H170	H	0.653080	0.499733	0.293819
Cl171	Cl	0.483534	-0.000175	0.048533
Cl172	Cl	0.983534	0.499825	0.548533
Cl173	Cl	0.932004	0.819904	0.014394
Cl174	Cl	1.432004	1.319904	0.514394
H175	H	0.704792	-0.000222	0.679578
H176	H	1.204792	0.499778	1.179578
Cl177	Cl	0.717018	0.819963	-0.200465
Cl178	Cl	1.217018	1.319963	0.299535
H179	H	0.942228	-0.000233	0.266470
H180	H	1.442228	0.499767	0.766470
H181	H	0.628003	-0.000145	0.018171
H182	H	1.128003	0.499855	0.518171
H183	H	0.020970	-0.000285	-0.204232
H184	H	0.520970	0.499715	0.295768
