data_functionalizedCrystal
_audit_creation_method	'MofGen! by Chris Wilmer'
_symmetry_space_group_name_H-M	'P1'
_symmetry_Int_Tables_number	1
_symmetry_cell_setting	triclinic
loop_
_symmetry_equiv_pos_as_xyz
  x,y,z
_cell_length_a	15.944545
_cell_length_b	15.944551
_cell_length_c	9.616153
_cell_angle_alpha	89.996788
_cell_angle_beta	89.995919
_cell_angle_gamma	83.497455
loop_
_atom_site_label
_atom_site_type_symbol
_atom_site_fract_x
_atom_site_fract_y
_atom_site_fract_z
O1	O	1.114531	0.108304	-0.115559
O2	O	0.869980	0.121665	-0.115582
O3	O	0.998934	-0.007291	-0.115557
O4	O	0.985577	0.237259	-0.115583
O5	O	0.998916	-0.007288	0.115734
O6	O	0.869963	0.121668	0.115710
O7	O	1.114513	0.108306	0.115733
Zn8	Zn	0.992235	0.114988	0.152444
Zn9	Zn	0.992258	0.114984	-0.152293
O10	O	0.985560	0.237262	0.115708
C11	C	0.838677	0.121113	0.000061
C12	C	0.745431	0.119453	0.000053
C13	C	0.998370	-0.038583	0.000089
C14	C	0.996708	-0.131829	0.000090
C15	C	0.474798	0.034559	0.000077
C16	C	0.525371	0.075489	0.114115
C17	C	0.409787	0.113532	0.000077
C18	C	0.525369	0.075508	-0.113921
C19	C	0.574701	0.116437	0.000063
C20	C	0.459132	0.154441	0.114209
C21	C	0.459127	0.154448	-0.113928
C22	C	0.509667	0.195436	0.000137
C23	C	0.314785	0.111856	0.000087
C24	C	0.669700	0.118119	0.000064
C25	C	0.912803	-0.346684	0.000063
C26	C	0.951757	-0.407701	0.114107
C27	C	0.993701	-0.302555	0.000079
C28	C	0.951794	-0.407687	-0.113928
C29	C	0.990790	-0.467468	0.000062
C30	C	1.032677	-0.362343	0.114217
C31	C	1.032702	-0.362323	-0.113921
C32	C	1.071715	-0.423322	0.000152
C33	C	0.995375	-0.207553	0.000089
C34	C	0.989122	-0.562469	0.000061
C35	C	1.145816	0.108859	0.000087
C36	C	1.239062	0.110519	0.000086
C37	C	0.986123	0.268555	0.000059
C38	C	0.987785	0.361801	0.000049
N39	N	0.992225	0.114990	0.360418
N40	N	0.992275	0.114975	-0.360267
C41	C	0.923037	0.183745	0.580775
C42	C	0.923186	0.183999	0.419608
C43	C	1.079872	0.134136	0.418874
C44	C	1.079494	0.134622	0.580091
C45	C	0.974643	0.026856	0.580337
C46	C	0.972622	0.027447	0.419110
H47	H	0.554295	0.042138	0.210532
H48	H	0.430315	0.187770	0.210723
O49	O	1.078032	-0.335713	-0.241632
H50	H	1.133893	-0.304744	-0.209548
H51	H	0.934440	0.249392	0.381022
O52	O	0.563680	0.031321	-0.241630
H53	H	0.550004	-0.035404	-0.241374
H54	H	0.917533	-0.427807	0.210516
H55	H	0.459145	-0.033453	0.000195
O56	O	0.823863	-0.302551	0.000212
H57	H	0.825890	-0.233199	-0.000760
H58	H	0.525159	0.263501	0.000197
H59	H	1.095030	0.198887	0.617674
H60	H	1.066857	-0.342353	0.210738
O61	O	0.937738	0.269880	0.634405
H62	H	0.948163	0.311740	0.545322
H63	H	1.132625	0.086509	0.619089
H64	H	1.138922	-0.456483	0.000222
O65	O	0.420772	0.198582	-0.241639
H66	H	0.447426	0.165654	-0.336166
O67	O	1.035089	-0.043513	0.365774
H68	H	1.031905	-0.045555	0.250538
H69	H	1.132620	0.085382	0.380531
H70	H	0.917574	-0.427764	-0.210351
O71	O	1.041513	-0.040941	0.630846
H72	H	1.087091	-0.012071	0.697927
H73	H	0.858037	0.172590	0.380088
H74	H	1.095774	0.197670	0.378478
O75	O	0.891812	0.002478	0.634231
H76	H	0.862284	0.052903	0.703960
H77	H	0.857682	0.172523	0.619582
H78	H	0.908149	0.012916	0.380906
