data_functionalizedCrystal
_audit_creation_method	'MofGen! by Chris Wilmer'
_symmetry_space_group_name_H-M	'P1'
_symmetry_Int_Tables_number	1
_symmetry_cell_setting	triclinic
loop_
_symmetry_equiv_pos_as_xyz
  x,y,z
_cell_length_a	21.395362
_cell_length_b	12.594516
_cell_length_c	12.594517
_cell_angle_alpha	90.011943
_cell_angle_beta	90.028531
_cell_angle_gamma	90.031933
loop_
_atom_site_label
_atom_site_type_symbol
_atom_site_fract_x
_atom_site_fract_y
_atom_site_fract_z
Zn1	Zn	0.957828	-0.423409	0.602417
Zn2	Zn	0.957785	-0.601375	0.424444
Zn3	Zn	0.853071	-0.423460	0.424386
Zn4	Zn	0.853039	-0.601395	0.602315
O5	O	0.905431	-0.512410	0.513391
O6	O	1.045500	-0.446986	0.578875
O7	O	0.943890	-0.577787	0.275491
O8	O	0.866999	-0.274507	0.448021
O9	O	1.045469	-0.577737	0.448120
O10	O	0.943963	-0.274470	0.578819
O11	O	0.866957	-0.447074	0.275448
O12	O	0.765389	-0.447093	0.447922
O13	O	0.866944	-0.577772	0.751274
O14	O	0.765365	-0.577821	0.578646
O15	O	0.943932	-0.447006	0.751349
O16	O	0.943859	-0.750323	0.448021
O17	O	0.866902	-0.750338	0.578702
C18	C	0.742643	-0.512466	0.513267
C19	C	0.673002	-0.512516	0.513240
C20	C	0.640293	-0.580676	0.581205
C21	C	0.574857	-0.580650	0.581253
C22	C	0.542134	-0.512475	0.513315
C23	C	0.574850	-0.444301	0.445345
C24	C	0.640285	-0.444322	0.445307
C25	C	0.438423	-0.503901	0.417494
C26	C	0.372990	-0.503888	0.417530
C27	C	0.340313	-0.512405	0.513433
C28	C	0.373077	-0.520958	0.609302
C29	C	0.438511	-0.520978	0.609265
C30	C	0.471181	-0.512444	0.513349
C31	C	0.236651	-0.580541	0.581456
C32	C	0.171215	-0.580507	0.581505
C33	C	0.171209	-0.444164	0.445588
C34	C	0.236644	-0.444192	0.445548
C35	C	0.269362	-0.512386	0.513481
C36	C	0.905390	-0.788951	0.513380
C37	C	0.905429	-0.907256	0.513411
C38	C	0.863569	-0.976556	0.584439
C39	C	0.848315	-1.047404	0.487307
C40	C	0.920741	-1.047207	0.610560
C41	C	0.890145	-0.976546	0.416228
C42	C	0.962598	-0.976342	0.539546
C43	C	0.947366	-1.047159	0.442348
C44	C	1.068854	-0.512354	0.513515
C45	C	1.138495	-0.512330	0.513568
C46	C	0.905439	-0.512385	0.791011
C47	C	0.905442	-0.512375	0.909317
C48	C	0.905489	-0.234789	0.513424
C49	C	0.905514	-0.116483	0.513439
C50	C	0.947312	-0.441279	1.049374
C51	C	0.962619	-0.538368	0.978565
C52	C	0.890163	-0.415297	0.978554
C53	C	0.920777	-0.609556	1.049294
C54	C	0.848294	-0.486419	1.049288
C55	C	0.863579	-0.583575	0.978512
C56	C	0.905424	-0.512444	1.236850
C57	C	0.905440	-0.512416	1.118544
H58	H	0.346318	-0.496930	0.339467
C59	C	0.995179	-0.360142	1.091418
H60	H	1.035764	-0.378777	1.067203
H61	H	0.984725	-0.291339	1.066160
H62	H	0.994585	-0.360274	1.166840
H63	H	0.877241	-0.333182	0.947477
H64	H	1.010947	-0.560344	0.947496
C65	C	0.783057	-1.089578	0.457447
H66	H	0.785946	-1.131084	0.394647
H67	H	0.767348	-1.132156	0.513683
H68	H	0.755618	-1.031499	0.445573
H69	H	0.666927	-0.636203	0.636523
C70	C	0.538857	-0.369310	0.370616
H71	H	0.495202	-0.379067	0.380365
H72	H	0.549619	-0.297822	0.386307
H73	H	0.549540	-0.384791	0.299065
H74	H	0.877173	-0.945636	0.334059
H75	H	0.263276	-0.388694	0.390197
H76	H	0.548221	-0.636154	0.636603
C77	C	0.815744	-0.664903	0.936737
H78	H	0.785119	-0.629436	0.895203
H79	H	0.836541	-0.716225	0.894263
H80	H	0.796053	-0.699209	0.994980
C81	C	0.995235	-1.088788	0.361133
H82	H	0.984286	-1.064463	0.292195
H83	H	1.035693	-1.063381	0.379100
H84	H	0.995245	-1.164212	0.361987
H85	H	0.346473	-0.527892	0.687396
H86	H	0.933769	-0.691689	1.080237
C87	C	0.783028	-0.456691	1.091302
H88	H	0.772234	-0.387643	1.067126
H89	H	0.753179	-0.506503	1.065986
H90	H	0.783413	-0.457559	1.166724
C91	C	0.676269	-0.369347	0.370540
H92	H	0.719925	-0.379122	0.380251
H93	H	0.665502	-0.384810	0.299005
H94	H	0.665586	-0.297848	0.386254
H95	H	0.465185	-0.527939	0.687325
C96	C	0.938217	-1.089084	0.721536
H97	H	0.975212	-1.130495	0.716809
H98	H	0.945112	-1.030880	0.768080
H99	H	0.905110	-1.131714	0.748181
H100	H	0.465023	-0.496961	0.339393
H101	H	0.828105	-0.945553	0.644417
H102	H	0.144566	-0.388649	0.390277
H103	H	1.010894	-0.945109	0.561676
H104	H	0.263291	-0.636063	0.636776
H105	H	0.144584	-0.636010	0.636858
