data_functionalizedCrystal
_audit_creation_method	'MofGen! by Chris Wilmer'
_symmetry_space_group_name_H-M	'P1'
_symmetry_Int_Tables_number	1
_symmetry_cell_setting	triclinic
loop_
_symmetry_equiv_pos_as_xyz
  x,y,z
_cell_length_a	10.723024
_cell_length_b	10.723022
_cell_length_c	9.130313
_cell_angle_alpha	90.002755
_cell_angle_beta	89.998688
_cell_angle_gamma	84.467548
loop_
_atom_site_label
_atom_site_type_symbol
_atom_site_fract_x
_atom_site_fract_y
_atom_site_fract_z
O1	O	0.175009	1.657188	0.121786
O2	O	0.191765	1.294035	0.121790
O3	O	0.001811	1.483988	0.121783
O4	O	0.364963	1.467235	0.121794
O5	O	0.001822	1.483975	-0.121816
O6	O	0.191776	1.294022	-0.121808
O7	O	0.175021	1.657175	-0.121813
Cu8	Cu	0.183399	1.475597	-0.144053
Cu9	Cu	0.183386	1.475613	0.144031
O10	O	0.364974	1.467222	-0.121805
C11	C	0.190551	1.247529	-0.000008
C12	C	0.186904	1.108975	-0.000007
C13	C	-0.044683	1.482763	-0.000015
C14	C	-0.183238	1.479115	-0.000010
C15	C	0.289421	0.890796	-0.000001
C16	C	0.293192	1.033999	-0.000002
C17	C	-0.258221	1.585403	-0.000009
C18	C	-0.401424	1.581635	-0.000004
C19	C	0.411468	1.468448	-0.000004
C20	C	0.550023	1.472095	0.000000
C21	C	0.176234	1.703681	-0.000011
C22	C	0.179881	1.842235	-0.000003
N23	N	0.183408	1.475596	-0.346676
C24	C	0.259781	1.551924	-0.423340
C25	C	0.259758	1.551942	-0.576677
C26	C	0.106985	1.399293	-0.576671
C27	C	0.107003	1.399282	-0.423337
C28	C	0.347987	1.640051	-0.423345
C29	C	0.347964	1.640069	-0.576682
N30	N	0.183367	1.475624	0.346653
H31	H	0.386980	1.075811	-0.000009
H32	H	0.044799	1.337141	-0.360923
H33	H	0.441960	1.600759	-0.375807
H34	H	0.044779	1.337161	-0.639108
H35	H	-0.225059	1.385329	0.000001
C36	C	-0.241588	1.779996	-0.125224
C37	C	-0.201785	1.712022	-0.000005
H38	H	-0.206755	1.858171	-0.125212
H39	H	-0.214585	1.733871	-0.210158
H40	H	-0.330420	1.794061	-0.125210
H41	H	-0.112953	1.697950	-0.000025
H42	H	-0.228781	1.758157	0.084951
C43	C	0.480762	1.598590	-0.786270
C44	C	0.480803	1.598557	-0.632908
H45	H	0.562770	1.572969	-0.820978
H46	H	0.424338	1.542218	-0.820935
H47	H	0.455170	1.680615	-0.820902
H48	H	0.506386	1.516529	-0.598276
H49	H	0.537247	1.654930	-0.598229
H50	H	-0.385552	1.381100	-0.000010
C51	C	-0.613424	1.676968	0.000014
C52	C	-0.488397	1.704478	0.000004
H53	H	-0.667117	1.752810	0.000029
H54	H	-0.628980	1.629731	-0.084931
H55	H	-0.628971	1.629722	0.084967
H56	H	-0.472848	1.751716	-0.084955
H57	H	-0.472835	1.751735	0.084958
H58	H	0.317311	1.738476	-0.381715
H59	H	0.088892	0.906678	0.000003
C60	C	0.514268	0.876097	0.000020
C61	C	0.412262	0.803815	0.000013
H62	H	0.590106	0.822398	0.000040
H63	H	0.510955	0.927438	-0.084927
H64	H	0.510931	0.927463	0.084970
H65	H	0.415594	0.752456	-0.084943
H66	H	0.415576	0.752453	0.084969
H67	H	0.308724	1.734063	-0.624217
H68	H	0.093113	1.067171	0.000030
