data_functionalizedCrystal
_audit_creation_method	'MofGen! by Chris Wilmer'
_symmetry_space_group_name_H-M	'P1'
_symmetry_Int_Tables_number	1
_symmetry_cell_setting	triclinic
loop_
_symmetry_equiv_pos_as_xyz
  x,y,z
_cell_length_a	19.805407
_cell_length_b	18.215405
_cell_length_c	18.215399
_cell_angle_alpha	90.026474
_cell_angle_beta	90.018864
_cell_angle_gamma	90.019338
loop_
_atom_site_label
_atom_site_type_symbol
_atom_site_fract_x
_atom_site_fract_y
_atom_site_fract_z
Zn1	Zn	1.034763	-0.293045	0.416104
Zn2	Zn	1.534763	0.206955	0.916104
Zn3	Zn	1.034685	-0.416116	0.293041
Zn4	Zn	1.534685	0.083884	0.793041
Zn5	Zn	0.921576	-0.293062	0.293054
Zn6	Zn	1.421576	0.206938	0.793054
Zn7	Zn	0.921550	-0.416068	0.416068
Zn8	Zn	1.421550	0.083932	0.916068
O9	O	0.978144	-0.354573	0.354567
O10	O	1.478144	0.145427	0.854567
O11	O	1.129470	-0.309383	0.399790
O12	O	1.629470	0.190617	0.899790
O13	O	1.019659	-0.399820	0.190059
O14	O	1.519659	0.100180	0.690059
O15	O	0.936634	-0.190075	0.309397
O16	O	1.436634	0.309925	0.809397
O17	O	1.129412	-0.399803	0.309376
O18	O	1.629412	0.100197	0.809376
O19	O	1.019792	-0.190063	0.399802
O20	O	1.519792	0.309937	0.899802
O21	O	0.936558	-0.309412	0.190068
O22	O	1.436558	0.190588	0.690068
O23	O	0.826856	-0.309366	0.309362
O24	O	1.326856	0.190634	0.809362
O25	O	0.936590	-0.399722	0.519057
O26	O	1.436590	0.100278	1.019057
O27	O	0.826837	-0.399738	0.399740
O28	O	1.326837	0.100262	0.899740
O29	O	1.019768	-0.309337	0.519084
O30	O	1.519768	0.190663	1.019084
O31	O	1.019634	-0.519094	0.309341
O32	O	1.519634	-0.019094	0.809341
O33	O	0.936514	-0.519059	0.399728
O34	O	1.436514	-0.019059	0.899728
C35	C	0.978081	-0.545779	0.354545
C36	C	1.478081	-0.045779	0.854545
C37	C	0.978116	-0.627578	0.354560
C38	C	1.478116	-0.127578	0.854560
C39	C	0.802288	-0.354550	0.354549
C40	C	1.302288	0.145450	0.854549
C41	C	0.727056	-0.354557	0.354559
C42	C	1.227056	0.145443	0.854559
C43	C	1.021457	-0.892571	0.401706
C44	C	1.521457	-0.392571	0.901706
C45	C	1.021434	-0.815712	0.401695
C46	C	1.521434	-0.315712	0.901695
C47	C	0.934917	-0.815833	0.307470
C48	C	1.434917	-0.315833	0.807470
C49	C	0.934943	-0.892690	0.307478
C50	C	1.434943	-0.392690	0.807478
C51	C	0.978212	-0.931057	0.354600
C52	C	1.478212	-0.431057	0.854600
C53	C	0.978163	-0.777341	0.354581
C54	C	1.478163	-0.277341	0.854581
C55	C	0.978138	-0.694008	0.354569
C56	C	1.478138	-0.194008	0.854569
C57	C	0.978239	-1.014396	0.354612
C58	C	1.478239	-0.514396	0.854612
C59	C	0.691742	-0.307559	0.401709
C60	C	1.191742	0.192441	0.901709
C61	C	0.621054	-0.307563	0.401712
C62	C	1.121054	0.192437	0.901712
C63	C	0.585680	-0.354569	0.354568
C64	C	1.085680	0.145431	0.854568
C65	C	0.620998	-0.401570	0.307412
C66	C	1.120998	0.098430	0.807412
C67	C	0.691686	-0.401562	0.307406
C68	C	1.191686	0.098438	0.807406
C69	C	0.335925	-0.401603	0.307435
C70	C	0.835925	0.098397	0.807435
C71	C	0.265233	-0.401609	0.307446
C72	C	0.765233	0.098391	0.807446
C73	C	0.265293	-0.307604	0.401740
C74	C	0.765293	0.192396	0.901740
C75	C	0.335980	-0.307596	0.401734
C76	C	0.835980	0.192404	0.901734
C77	C	0.371293	-0.354593	0.354577
C78	C	0.871293	0.145407	0.854577
C79	C	0.447941	-0.354588	0.354573
C80	C	0.947941	0.145412	0.854573
C81	C	0.509033	-0.354579	0.354574
C82	C	1.009033	0.145421	0.854574
C83	C	1.154686	-0.354596	0.354585
C84	C	1.654686	0.145404	0.854585
C85	C	1.229918	-0.354606	0.354593
C86	C	1.729918	0.145394	0.854593
C87	C	0.978185	-0.354522	0.546520
C88	C	1.478185	0.145478	1.046520
C89	C	0.978202	-0.354500	0.628319
C90	C	1.478202	0.145500	1.128319
C91	C	0.978225	-0.162620	0.354605
C92	C	1.478225	0.337380	0.854605
C93	C	0.978260	-0.080821	0.354621
C94	C	1.478260	0.419179	0.854621
C95	C	0.978141	-0.354570	0.163361
C96	C	1.478141	0.145430	0.663361
C97	C	0.978255	-0.354384	0.081562
C98	C	1.478255	0.145616	0.581562
C99	C	1.021528	-0.307393	0.816528
C100	C	1.521528	0.192607	1.316528
C101	C	1.021536	-0.307371	0.893387
C102	C	1.521536	0.192629	1.393387
C103	C	0.934924	-0.401494	0.893348
C104	C	1.434924	0.098506	1.393348
C105	C	0.934913	-0.401511	0.816490
C106	C	1.434913	0.098489	1.316490
C107	C	0.978219	-0.354462	0.778082
C108	C	1.478219	0.145538	1.278082
C109	C	0.978238	-0.354423	0.931799
C110	C	1.478238	0.145577	1.431799
C111	C	0.978247	-0.354400	1.015132
C112	C	1.478247	0.145600	1.515132
C113	C	0.978210	-0.354483	0.694743
C114	C	1.478210	0.145517	1.194743
H115	H	1.056687	-0.923807	0.440079
H116	H	1.556687	-0.423807	0.940079
H117	H	1.056802	-0.269042	0.924686
H118	H	1.556802	0.230958	1.424686
H119	H	0.899641	-0.439839	0.785187
H120	H	1.399641	0.060161	1.285187
H121	H	0.364778	-0.269321	0.440126
H122	H	0.864778	0.230679	0.940126
H123	H	0.592305	-0.269293	0.440108
H124	H	1.092305	0.230707	0.940108
Br125	Br	1.080299	-0.243539	0.764405
Br126	Br	1.580299	0.256461	1.264405
H127	H	0.899687	-0.784587	0.269105
H128	H	1.399687	-0.284587	0.769105
Br129	Br	1.080129	-0.763483	0.465624
Br130	Br	1.580129	-0.263483	0.965624
H131	H	0.899668	-0.439801	0.924629
H132	H	1.399668	0.060199	1.424629
H133	H	0.720538	-0.269283	0.440101
H134	H	1.220538	0.230717	0.940101
Br135	Br	0.217366	-0.243820	0.465741
Br136	Br	0.717366	0.256180	0.965741
Br137	Br	0.876255	-0.944927	0.243539
Br138	Br	1.376255	-0.444927	0.743539
H139	H	0.236434	-0.439889	0.269053
H140	H	0.736434	0.060111	0.769053
Br141	Br	0.383840	-0.465366	0.243416
Br142	Br	0.883840	0.034634	0.743416
H143	H	0.592191	-0.439840	0.269023
H144	H	1.092191	0.060160	0.769023
H145	H	0.720437	-0.439832	0.269011
H146	H	1.220437	0.060168	0.769011
