data_functionalizedCrystal
_audit_creation_method	'MofGen! by Chris Wilmer'
_symmetry_space_group_name_H-M	'P1'
_symmetry_Int_Tables_number	1
_symmetry_cell_setting	triclinic
loop_
_symmetry_equiv_pos_as_xyz
  x,y,z
_cell_length_a	31.640172
_cell_length_b	14.809374
_cell_length_c	14.809374
_cell_angle_alpha	73.428020
_cell_angle_beta	98.946972
_cell_angle_gamma	52.841032
loop_
_atom_site_label
_atom_site_type_symbol
_atom_site_fract_x
_atom_site_fract_y
_atom_site_fract_z
Zr1	Zr	0.355025	1.000497	-0.008546
O2	O	0.268629	1.191221	-0.133254
O3	O	0.387248	0.809784	0.014953
O4	O	0.365082	1.000494	-0.154507
O5	O	0.301752	1.000509	0.186636
O6	O	0.434639	1.000479	-0.154515
O7	O	0.290795	1.000511	0.036206
O8	O	0.474289	0.659334	0.148618
O9	O	0.262102	1.341654	-0.116496
O10	O	0.445967	0.888211	0.042767
O11	O	0.402235	0.888221	0.155037
O12	O	0.376138	1.112757	-0.044480
O13	O	0.332406	1.112767	0.067790
Zr14	Zr	0.483435	1.000468	0.231361
Zr15	Zr	0.465959	1.000472	-0.008558
Zr16	Zr	0.372500	1.000493	0.231373
Zr17	Zr	0.344614	1.240420	0.018180
Zr18	Zr	0.493845	0.760545	0.204635
O19	O	0.451212	1.191180	0.207862
O20	O	0.426364	1.191186	-0.133271
O21	O	0.293477	1.191215	0.207880
O22	O	0.569830	0.809744	0.356069
O23	O	0.544982	0.809749	0.014935
O24	O	0.412096	0.809779	0.356086
O25	O	0.536708	1.000456	0.036179
O26	O	0.473377	1.000470	0.377322
O27	O	0.403821	1.000486	0.377330
O28	O	0.547665	1.000454	0.186609
O29	O	0.350280	1.341634	-0.116506
O30	O	0.488180	0.659331	0.339321
O31	O	0.576358	0.659311	0.339312
O32	O	0.562467	0.659314	0.148608
O33	O	0.275992	1.341651	0.074207
O34	O	0.364171	1.341631	0.074197
O35	O	0.462322	0.888208	0.267295
O36	O	0.506053	0.888198	0.155025
O37	O	0.436224	1.112744	0.067778
O38	O	0.392492	1.112754	0.180049
C39	C	0.432252	0.700375	0.077977
C40	C	0.436671	0.598522	0.066632
C41	C	0.416947	0.553117	0.117267
C42	C	0.421515	0.447846	0.105542
C43	C	0.280468	1.000513	0.111423
C44	C	0.233373	1.000524	0.111428
C45	C	-0.064667	1.000460	0.028534
C46	C	-0.241654	1.000444	0.028524
O47	O	-0.269655	1.000388	-0.041936
N48	N	-0.257748	1.000446	0.111396
C49	C	-0.229590	1.000442	0.194280
O50	O	-0.247336	1.000430	0.264773
C51	C	-0.052602	1.000449	0.194293
C52	C	-0.036514	1.000461	0.111410
C53	C	-0.048578	1.000471	-0.054342
C54	C	-0.004337	1.000482	-0.054341
C55	C	0.023817	1.000483	0.028535
C56	C	0.007728	1.000472	0.111411
C57	C	-0.024442	1.000437	0.277180
C58	C	0.019809	1.000435	0.277177
C59	C	0.035896	1.000447	0.194294
C60	C	0.080123	1.000484	0.194288
N61	N	0.096217	1.000483	0.111415
C62	C	0.068064	1.000482	0.028539
C63	C	-0.322513	1.000441	0.194267
C64	C	-0.366760	1.000442	0.194263
C65	C	-0.378820	1.000441	0.028507
C66	C	-0.334574	1.000450	0.028508
C67	C	-0.306418	1.000440	0.111395
C68	C	0.160975	1.000507	0.028546
C69	C	0.205220	1.000523	0.028552
C70	C	0.217278	1.000517	0.194310
C71	C	0.173035	1.000507	0.194302
C72	C	0.144886	1.000498	0.111415
O73	O	0.108154	1.000526	0.264716
O74	O	0.085828	1.000466	-0.041932
C75	C	-0.108909	1.000449	0.028533
C76	C	-0.124998	1.000439	0.111409
C77	C	-0.096844	1.000440	0.194285
C78	C	-0.169245	1.000440	0.111405
C79	C	-0.197398	1.000439	0.028529
C80	C	-0.181304	1.000438	-0.054344
C81	C	-0.137062	1.000449	-0.054343
C82	C	-0.112939	1.000441	0.277158
C83	C	-0.157182	1.000431	0.277150
C84	C	-0.185335	1.000431	0.194273
C85	C	0.557992	1.000452	0.111392
C86	C	0.605087	1.000441	0.111387
C87	C	0.397371	1.000487	-0.188694
C88	C	0.389952	1.000489	-0.290546
C89	C	0.406208	1.300590	0.144838
C90	C	0.401788	1.402443	0.156184
C91	C	0.423061	1.000482	-0.335959
C92	C	0.415394	1.000483	-0.441228
C93	C	0.441089	1.000478	0.411510
C94	C	0.448508	1.000476	0.513361
C95	C	0.571014	0.700344	0.077962
C96	C	0.622528	0.598480	0.066611
C97	C	0.454111	0.700370	0.378079
C98	C	0.465949	0.598515	0.468585
C99	C	0.592873	0.700339	0.378064
C100	C	0.651806	0.598474	0.468565
C101	C	0.245587	1.300625	-0.155249
C102	C	0.186654	1.402491	-0.245749
C103	C	0.267446	1.300621	0.144853
C104	C	0.215932	1.402485	0.156204
C105	C	0.384349	1.300595	-0.155264
C106	C	0.372510	1.402450	-0.245770
C107	C	0.615354	0.550651	0.002672
C108	C	0.663751	0.454952	-0.008014
C109	C	0.719321	0.407078	0.045244
C110	C	0.726494	0.454917	0.109186
C111	C	0.678097	0.550620	0.119866
C112	C	0.502874	0.550676	0.569696
C113	C	0.513995	0.454985	0.654746
C114	C	0.488195	0.407129	0.638684
C115	C	0.451266	0.454978	0.537563
C116	C	0.440141	0.550673	0.452515
C117	C	0.702314	0.550631	0.452461
C118	C	0.757690	0.454931	0.537488
C119	C	0.762558	0.407068	0.638618
C120	C	0.712045	0.454920	0.654720
C121	C	0.656669	0.550625	0.569695
C122	C	0.136145	1.450345	-0.229644
C123	C	0.080767	1.546075	-0.314668
C124	C	0.075899	1.593943	-0.415797
C125	C	0.126413	1.546085	-0.431901
C126	C	0.181789	1.450363	-0.346877
C127	C	0.223104	1.450324	0.220134
C128	C	0.174705	1.546050	0.230797
C129	C	0.119134	1.593927	0.177536
C130	C	0.111962	1.546084	0.113598
C131	C	0.160360	1.450367	0.102930
C132	C	0.398320	1.450276	-0.229675
C133	C	0.387208	1.545967	-0.314707
C134	C	0.350283	1.593837	-0.415833
C135	C	0.324473	1.546002	-0.431927
C136	C	0.335589	1.450306	-0.346896
H137	H	0.218315	1.000536	-0.038945
C138	C	0.823478	0.301780	0.732137
N139	N	0.869365	0.222471	0.802572
H140	H	0.716017	0.415936	0.737071
H141	H	0.140098	1.411376	-0.147308
C142	C	0.685999	0.603210	0.190217
N143	N	0.691956	0.642814	0.243209
C144	C	-0.174872	1.000417	0.368335
N145	N	-0.188190	1.000393	0.437019
H146	H	0.122442	1.585072	-0.514250
C147	C	0.469035	1.000439	-0.283190
N148	N	0.503666	1.000397	-0.243442
H149	H	0.154513	1.411418	0.050875
H150	H	0.408227	1.584904	-0.301582
C151	C	0.813248	0.402300	0.519751
N152	N	0.855093	0.362658	0.506388
C153	C	0.374406	0.455205	0.226482
N154	N	0.353782	0.494944	0.279432
H155	H	-0.123967	1.000458	-0.121834
C156	C	0.448897	0.395082	0.035244
N157	N	0.469523	0.355337	-0.017702
C158	C	0.338060	1.699108	-0.509359
N159	N	0.328855	1.778401	-0.579798
H160	H	0.079730	1.671866	0.186231
H161	H	-0.321479	1.000459	-0.038982
C162	C	0.014979	1.699230	-0.509317
N163	N	-0.030907	1.778527	-0.579753
C164	C	0.601113	0.603238	0.587426
N165	N	0.559270	0.642864	0.600790
H166	H	0.294408	1.584993	-0.514275
H167	H	0.570109	0.589629	-0.040712
C168	C	0.307183	1.397726	-0.364617
N169	N	0.285784	1.358130	-0.377972
H170	H	0.456936	0.559465	0.014596
H171	H	0.381372	1.000484	-0.480275
H172	H	0.657900	0.416013	-0.060081
H173	H	-0.379862	1.000452	0.261746
H174	H	-0.090019	1.000439	0.344647
C175	C	0.025210	1.598699	-0.296932
N176	N	-0.016634	1.638333	-0.283569
C177	C	0.284227	1.397683	0.278728
N178	N	0.330263	1.358046	0.322859
H179	H	0.396677	0.592184	0.169294
C180	C	0.182608	1.598649	0.301142
N181	N	0.188562	1.638262	0.354128
C182	C	0.130015	1.000502	-0.062637
N183	N	0.106694	1.000508	-0.131319
C184	C	0.050831	1.598745	0.055032
N185	N	0.004786	1.638402	0.010931
H186	H	0.008761	1.000486	-0.121829
H187	H	0.222913	1.411401	-0.360003
H188	H	0.410076	0.589611	0.370189
C189	C	-0.079538	1.000460	-0.145517
N190	N	-0.102856	1.000457	-0.214198
H191	H	0.758724	0.329148	0.036540
C192	C	0.494471	1.000474	-0.433891
N193	N	0.529089	1.000478	-0.394163
H194	H	0.771745	0.415923	0.152545
H195	H	-0.401751	1.000443	-0.038975
H196	H	0.355932	1.000490	-0.329597
H197	H	-0.299590	1.000434	0.261765
C198	C	0.554625	0.402357	0.765969
N199	N	0.585230	0.362717	0.849739
H200	H	0.428387	1.411314	-0.147340
H201	H	0.523886	0.589629	0.582795
H202	H	-0.037533	1.000426	0.344671
H203	H	0.042733	1.000423	0.344676
H204	H	0.430261	0.415999	0.524499
C205	C	0.155335	1.000505	0.285473
N206	N	0.142010	1.000490	0.354150
C207	C	0.248257	1.000510	0.285473
N208	N	0.271595	1.000493	0.354141
H209	H	-0.204236	1.000444	-0.121828
H210	H	0.497258	0.329208	0.707944
H211	H	0.698361	0.589587	0.370123
