data_functionalizedCrystal
_audit_creation_method	'MofGen! by Chris Wilmer'
_symmetry_space_group_name_H-M	'P1'
_symmetry_Int_Tables_number	1
_symmetry_cell_setting	triclinic
loop_
_symmetry_equiv_pos_as_xyz
  x,y,z
_cell_length_a	12.759401
_cell_length_b	25.639240
_cell_length_c	12.759393
_cell_angle_alpha	89.956840
_cell_angle_beta	89.979062
_cell_angle_gamma	90.034283
loop_
_atom_site_label
_atom_site_type_symbol
_atom_site_fract_x
_atom_site_fract_y
_atom_site_fract_z
Zn1	Zn	1.606135	-0.208104	-0.593928
Zn2	Zn	1.605970	-0.295549	-0.418209
Zn3	Zn	1.430433	-0.208132	-0.418263
Zn4	Zn	1.430370	-0.295513	-0.593846
O5	O	1.518227	-0.251825	-0.506061
O6	O	1.753134	-0.219708	-0.570630
O7	O	1.582643	-0.283980	-0.271195
O8	O	1.453836	-0.134963	-0.441622
O9	O	1.753013	-0.283953	-0.441530
O10	O	1.582923	-0.134943	-0.570682
O11	O	1.453676	-0.219755	-0.271235
O12	O	1.283404	-0.219720	-0.441543
O13	O	1.453728	-0.283891	-0.740878
O14	O	1.283357	-0.283918	-0.570543
O15	O	1.582861	-0.219672	-0.740938
O16	O	1.582581	-0.368710	-0.441451
O17	O	1.453568	-0.368683	-0.570491
C18	C	1.245260	-0.251818	-0.506041
C19	C	1.128483	-0.251828	-0.506057
C20	C	1.518078	-0.387667	-0.505979
C21	C	1.518111	-0.445781	-0.505979
C22	C	1.073624	-0.285307	-0.573121
C23	C	0.963900	-0.285309	-0.573142
C24	C	0.963903	-0.218352	-0.439024
C25	C	1.073625	-0.218347	-0.439010
C26	C	1.585476	-0.806095	-0.573384
C27	C	1.585507	-0.860699	-0.573406
O28	O	1.642606	-0.888894	-0.630631
N29	N	1.518373	-0.888064	-0.506163
C30	C	1.451196	-0.860821	-0.438902
O31	O	1.394095	-0.889110	-0.381710
C32	C	1.451160	-0.806217	-0.438887
C33	C	1.518306	-0.778856	-0.506126
C34	C	1.652616	-0.778734	-0.640619
C35	C	1.652586	-0.724133	-0.640596
C36	C	1.585416	-0.696894	-0.573338
C37	C	1.518276	-0.724255	-0.506103
C38	C	1.383979	-0.778975	-0.371632
C39	C	1.383948	-0.724368	-0.371623
C40	C	1.451094	-0.697007	-0.438863
C41	C	1.451077	-0.642416	-0.438822
N42	N	1.518211	-0.615052	-0.506065
C43	C	1.585381	-0.642291	-0.573323
C44	C	1.451274	-0.975491	-0.438941
C45	C	1.451314	-1.030094	-0.438950
C46	C	1.585624	-1.029969	-0.573455
C47	C	1.585589	-0.975365	-0.573440
C48	C	1.518408	-0.948127	-0.506183
C49	C	1.585314	-0.527626	-0.573269
C50	C	1.585281	-0.473020	-0.573237
C51	C	1.450967	-0.473150	-0.438736
C52	C	1.451003	-0.527751	-0.438764
C53	C	1.518180	-0.554987	-0.506039
O54	O	1.394004	-0.614186	-0.381629
O55	O	1.642462	-0.613995	-0.630516
C56	C	1.792260	-0.251831	-0.506083
C57	C	1.909037	-0.251834	-0.506092
C58	C	1.518306	-0.251774	-0.780095
C59	C	1.518339	-0.251753	-0.896872
C60	C	1.518405	-0.115452	-0.506167
C61	C	1.518480	-0.057337	-0.506212
C62	C	1.585584	-0.218309	-0.951766
C63	C	1.585602	-0.218286	-1.061491
C64	C	1.451127	-0.285156	-1.061415
C65	C	1.451105	-0.285176	-0.951693
C66	C	1.518209	-0.251837	-0.233094
C67	C	1.518379	-0.251711	-0.116318
H68	H	1.118286	-0.312568	-0.627718
O69	O	1.657773	-0.556993	-0.645829
H70	H	1.610745	-0.581861	-0.699265
H71	H	1.329238	-0.702194	-0.316856
O72	O	1.378543	-0.321234	-0.892473
H73	H	1.331794	-0.344472	-0.949025
H74	H	0.919239	-0.312570	-0.627754
H75	H	0.919225	-0.191094	-0.384436
H76	H	1.396281	-0.450964	-0.383972
O77	O	1.132810	-0.182237	-0.366674
H78	H	1.182756	-0.205607	-0.313136
O79	O	1.657717	-0.443508	-0.645750
H80	H	1.704424	-0.471626	-0.692523
H81	H	1.396336	-0.550030	-0.384003
O82	O	1.725023	-0.694624	-0.713103
H83	H	1.771731	-0.722746	-0.759867
O84	O	1.311549	-0.808475	-0.299108
H85	H	1.322848	-0.851022	-0.310401
O86	O	1.658119	-0.182211	-1.120705
H87	H	1.711542	-0.205601	-1.170701
O88	O	1.725073	-0.808109	-0.713163
H89	H	1.771750	-0.779901	-0.759901
H90	H	1.640264	-0.953091	-0.628192
H91	H	1.396389	-0.312369	-1.106065
O92	O	1.658063	-1.059352	-0.646015
H93	H	1.646791	-1.101917	-0.634734
O94	O	1.378900	-1.059603	-0.366421
H95	H	1.332187	-1.031483	-0.319658
O96	O	1.658089	-0.182258	-0.892632
H97	H	1.704844	-0.158995	-0.949242
H98	H	1.396571	-0.953317	-0.384163
