data_functionalizedCrystal
_audit_creation_method	'MofGen! by Chris Wilmer'
_symmetry_space_group_name_H-M	'P1'
_symmetry_Int_Tables_number	1
_symmetry_cell_setting	triclinic
loop_
_symmetry_equiv_pos_as_xyz
  x,y,z
_cell_length_a	19.288857
_cell_length_b	19.288840
_cell_length_c	18.366186
_cell_angle_alpha	90.013590
_cell_angle_beta	90.003709
_cell_angle_gamma	83.129562
loop_
_atom_site_label
_atom_site_type_symbol
_atom_site_fract_x
_atom_site_fract_y
_atom_site_fract_z
O1	O	0.086562	0.921359	0.060675
O2	O	0.419895	1.254693	0.394008
O3	O	0.753228	1.588026	0.727341
O4	O	0.098269	0.719096	0.060650
O5	O	0.431602	1.052429	0.393983
O6	O	0.764935	1.385763	0.727317
O7	O	-0.008716	0.826075	0.060654
O8	O	0.324617	1.159408	0.393988
O9	O	0.657951	1.492741	0.727321
O10	O	0.193546	0.814380	0.060670
O11	O	0.526880	1.147714	0.394004
O12	O	0.860213	1.481047	0.727337
O13	O	-0.008712	0.826061	-0.060445
O14	O	0.324621	1.159394	0.272888
O15	O	0.657954	1.492728	0.606222
O16	O	0.098272	0.719082	-0.060449
O17	O	0.431606	1.052415	0.272884
O18	O	0.764939	1.385749	0.606217
O19	O	0.086565	0.921345	-0.060425
O20	O	0.419899	1.254679	0.272909
O21	O	0.753232	1.588012	0.606242
Zn22	Zn	0.092419	0.820212	-0.079664
Zn23	Zn	0.425753	1.153545	0.253669
Zn24	Zn	0.759086	1.486878	0.587002
Zn25	Zn	0.092415	0.820230	0.079889
Zn26	Zn	0.425748	1.153563	0.413223
Zn27	Zn	0.759081	1.486896	0.746556
O28	O	0.193550	0.814367	-0.060429
O29	O	0.526883	1.147700	0.272904
O30	O	0.860217	1.481033	0.606238
C31	C	0.097897	0.693212	0.000097
C32	C	0.431230	1.026546	0.333430
C33	C	0.764563	1.359879	0.666764
C34	C	0.096775	0.616108	0.000087
C35	C	0.430108	0.949441	0.333420
C36	C	0.763441	1.282774	0.666754
C37	C	-0.034591	0.825693	0.000104
C38	C	0.298743	1.159026	0.333437
C39	C	0.632076	1.492359	0.666770
C40	C	-0.111695	0.824566	0.000102
C41	C	0.221639	1.157899	0.333435
C42	C	0.554972	1.491232	0.666768
C43	C	0.096234	0.579912	0.066100
C44	C	0.429567	0.913245	0.399434
C45	C	0.762900	1.246578	0.732767
C46	C	0.095172	0.507465	0.066109
C47	C	0.428505	0.840798	0.399442
C48	C	0.761838	1.174132	0.732776
C49	C	0.094637	0.471219	0.000101
C50	C	0.427970	0.804552	0.333434
C51	C	0.761303	1.137885	0.666768
C52	C	0.095182	0.507423	-0.065921
C53	C	0.428515	0.840756	0.267413
C54	C	0.761848	1.174090	0.600746
C55	C	0.096251	0.579867	-0.065928
C56	C	0.429584	0.913201	0.267406
C57	C	0.762917	1.246534	0.600739
C58	C	0.052260	0.361886	-0.050464
C59	C	0.385594	0.695220	0.282870
C60	C	0.718927	1.028553	0.616203
C61	C	0.051187	0.289444	-0.050454
C62	C	0.384520	0.622777	0.282879
C63	C	0.717854	0.956110	0.616213
C64	C	0.091342	0.247775	0.000120
C65	C	0.424676	0.581108	0.333453
C66	C	0.758009	0.914442	0.666786
C67	C	0.132563	0.278559	0.050696
C68	C	0.465896	0.611893	0.384029
C69	C	0.799229	0.945226	0.717363
C70	C	0.133632	0.351004	0.050689
C71	C	0.466965	0.684337	0.384022
C72	C	0.800298	1.017670	0.717356
C73	C	0.093478	0.392665	0.000101
C74	C	0.426811	0.725998	0.333435
C75	C	0.760144	1.059331	0.666768
C76	C	0.089651	0.133024	0.066147
C77	C	0.422984	0.466357	0.399480
C78	C	0.756317	0.799690	0.732814
C79	C	0.088593	0.060575	0.066153
C80	C	0.421926	0.393908	0.399486
C81	C	0.755260	0.727242	0.732820
C82	C	0.088596	0.060535	-0.065879
C83	C	0.421930	0.393869	0.267455
C84	C	0.755263	0.727202	0.600788
C85	C	0.089661	0.132982	-0.065883
C86	C	0.422994	0.466315	0.267451
C87	C	0.756328	0.799648	0.600784
C88	C	0.090185	0.169222	0.000132
C89	C	0.423518	0.502555	0.333465
C90	C	0.756852	0.835889	0.666799
C91	C	-0.147907	0.824047	0.066113
C92	C	0.185426	1.157381	0.399446
C93	C	0.518760	1.490714	0.732780
C94	C	-0.220353	0.822979	0.066118
C95	C	0.112980	1.156312	0.399452
C96	C	0.446314	1.489645	0.732785
C97	C	-0.256585	0.822442	0.000108
C98	C	0.076748	1.155776	0.333442
C99	C	0.410081	1.489109	0.666775
C100	C	-0.220364	0.822957	-0.065912
C101	C	0.112970	1.156290	0.267422
C102	C	0.446303	1.489623	0.600755
C103	C	-0.147918	0.824018	-0.065915
C104	C	0.185415	1.157352	0.267418
C105	C	0.518749	1.490685	0.600752
C106	C	-0.376819	0.861439	-0.050454
C107	C	-0.043486	1.194772	0.282879
C108	C	0.289848	1.528105	0.616212
C109	C	-0.449264	0.860381	-0.050448
C110	C	-0.115930	1.193714	0.282885
C111	C	0.217403	1.527048	0.616219
C112	C	-0.480031	0.819164	0.000116
C113	C	-0.146698	1.152498	0.333450
C114	C	0.186636	1.485831	0.666783
C115	C	-0.438346	0.779014	0.050687
C116	C	-0.105013	1.112348	0.384020
C117	C	0.228321	1.445681	0.717353
C118	C	-0.365901	0.780076	0.050683
C119	C	-0.032567	1.113409	0.384017
C120	C	0.300766	1.446743	0.717350
C121	C	-0.335140	0.821291	0.000105
C122	C	-0.001807	1.154624	0.333438
C123	C	0.331526	1.487957	0.666771
C124	C	-0.594798	0.817486	0.066138
C125	C	-0.261464	1.150820	0.399471
C126	C	0.071869	1.484153	0.732805
C127	C	-0.667244	0.816413	0.066140
C128	C	-0.333911	1.149746	0.399474
C129	C	-0.000578	1.483080	0.732807
C130	C	-0.667254	0.816398	-0.065891
C131	C	-0.333921	1.149732	0.267442
C132	C	-0.000588	1.483065	0.600775
C133	C	-0.594808	0.817464	-0.065892
C134	C	-0.261475	1.150798	0.267441
C135	C	0.071859	1.484131	0.600775
C136	C	-0.558585	0.818012	0.000125
C137	C	-0.225251	1.151345	0.333458
C138	C	0.108082	1.484678	0.666791
C139	C	0.219425	0.814749	0.000123
C140	C	0.552758	1.148082	0.333456
C141	C	0.886091	1.481416	0.666790
C142	C	0.296528	0.815876	0.000130
C143	C	0.629862	1.149209	0.333463
C144	C	0.963195	1.482542	0.666797
C145	C	0.086937	0.947229	0.000130
C146	C	0.420271	1.280562	0.333463
C147	C	0.753604	1.613896	0.666797
C148	C	0.088059	1.024334	0.000144
C149	C	0.421393	1.357667	0.333478
C150	C	0.754726	1.691000	0.666811
N151	N	0.092422	0.820204	-0.188555
N152	N	0.425756	1.153538	0.144778
N153	N	0.759089	1.486871	0.478111
C154	C	0.134416	0.862235	-0.773096
C155	C	0.467750	1.195568	-0.439763
C156	C	0.801083	1.528901	-0.106429
C157	C	0.134423	0.862227	-0.696868
C158	C	0.467757	1.195561	-0.363535
C159	C	0.801090	1.528894	-0.030202
C160	C	0.092407	0.820236	-0.658767
C161	C	0.425740	1.153570	-0.325433
C162	C	0.759074	1.486903	0.007900
C163	C	0.050394	0.778236	-0.696899
C164	C	0.383727	1.111569	-0.363566
C165	C	0.717061	1.444902	-0.030233
C166	C	0.050394	0.778239	-0.773126
C167	C	0.383727	1.111572	-0.439792
C168	C	0.717060	1.444906	-0.106459
C169	C	0.029782	0.818511	-0.538006
C170	C	0.363116	1.151844	-0.204673
C171	C	0.696449	1.485178	0.128661
C172	C	0.029781	0.818513	-0.461781
C173	C	0.363115	1.151846	-0.128448
C174	C	0.696448	1.485180	0.204885
C175	C	0.092409	0.820222	-0.423659
C176	C	0.425742	1.153556	-0.090326
C177	C	0.759075	1.486889	0.243007
C178	C	0.155038	0.821945	-0.461772
C179	C	0.488372	1.155278	-0.128438
C180	C	0.821705	1.488611	0.204895
C181	C	0.155038	0.821948	-0.537998
C182	C	0.488371	1.155281	-0.204665
C183	C	0.821704	1.488615	0.128669
C184	C	0.092403	0.820228	-0.576112
C185	C	0.425736	1.153561	-0.242779
C186	C	0.759070	1.486895	0.090555
C187	C	0.134430	0.862209	-0.302881
C188	C	0.467763	1.195542	0.030453
C189	C	0.801097	1.528875	0.363786
C190	C	0.134438	0.862197	-0.226652
C191	C	0.467772	1.195530	0.106682
C192	C	0.801105	1.528863	0.440015
C193	C	0.050402	0.778209	-0.226684
C194	C	0.383736	1.111542	0.106649
C195	C	0.717069	1.444876	0.439982
C196	C	0.050401	0.778217	-0.302912
C197	C	0.383734	1.111551	0.030421
C198	C	0.717067	1.444884	0.363755
C199	C	0.092413	0.820221	-0.341006
C200	C	0.425747	1.153554	-0.007672
C201	C	0.759080	1.486888	0.325661
N202	N	0.092406	0.820243	0.188781
N203	N	0.425739	1.153576	0.522114
N204	N	0.759073	1.486909	0.855447
H205	H	0.096660	0.609414	0.119855
H206	H	0.429994	0.942747	0.453188
H207	H	0.763327	1.276081	0.786521
H208	H	0.017620	0.264386	-0.091633
H209	H	0.350953	0.597719	0.241701
H210	H	0.684286	0.931052	0.575034
Br211	Br	-0.480091	0.723071	0.119313
Br212	Br	-0.146758	1.056404	0.452647
Br213	Br	0.186576	1.389738	0.785980
H214	H	0.090085	0.162531	0.119900
H215	H	0.423418	0.495865	0.453234
H216	H	0.756751	0.829198	0.786567
Br217	Br	0.240038	0.824271	-0.410045
Br218	Br	0.573371	1.157605	-0.076711
Br219	Br	0.906705	1.490938	0.256622
Br220	Br	-0.098749	0.824787	0.155706
Br221	Br	0.234584	1.158120	0.489040
Br222	Br	0.567918	1.491453	0.822373
Br223	Br	-0.006624	0.721244	-0.824869
Br224	Br	0.326709	1.054577	-0.491535
Br225	Br	0.660043	1.387911	-0.158202
Br226	Br	0.094439	0.458330	0.155705
Br227	Br	0.427772	0.791664	0.489038
Br228	Br	0.761105	1.124997	0.822371
H229	H	0.167196	0.376065	0.091868
H230	H	0.500529	0.709398	0.425202
H231	H	0.833863	1.042732	0.758535
H232	H	-0.021219	0.817113	-0.569039
H233	H	0.312114	1.150446	-0.235705
H234	H	0.645447	1.483779	0.097628
Br235	Br	-0.002239	0.418429	-0.119108
Br236	Br	0.331094	0.751763	0.214225
Br237	Br	0.664428	1.085096	0.547558
H238	H	0.165264	0.244633	0.091876
H239	H	0.498597	0.577967	0.425209
H240	H	0.831931	0.911300	0.758542
Br241	Br	0.087868	0.011449	0.155751
Br242	Br	0.421201	0.344782	0.489084
Br243	Br	0.754534	0.678116	0.822417
Br244	Br	-0.098768	0.824719	-0.155509
Br245	Br	0.234565	1.158052	0.177824
Br246	Br	0.567898	1.491385	0.511158
H247	H	-0.565302	0.817928	0.119893
H248	H	-0.231969	1.151261	0.453226
H249	H	0.101364	1.484594	0.786559
H250	H	0.016188	0.744026	-0.333952
H251	H	0.349521	1.077359	-0.000619
H252	H	0.682855	1.410693	0.332714
Br253	Br	0.087881	0.011351	-0.155463
Br254	Br	0.421214	0.344684	0.177870
Br255	Br	0.754547	0.678017	0.511204
H256	H	0.090097	0.162453	-0.119638
H257	H	0.423430	0.495787	0.213695
H258	H	0.756764	0.829120	0.547029
Br259	Br	-0.716391	0.815702	0.155735
Br260	Br	-0.383057	1.149035	0.489069
Br261	Br	-0.049724	1.482368	0.822402
H262	H	0.168628	0.896436	-0.804107
H263	H	0.501961	1.229769	-0.470774
H264	H	0.835294	1.563103	-0.137441
H265	H	0.094748	0.477906	-0.119665
H266	H	0.428081	0.811240	0.213668
H267	H	0.761414	1.144573	0.547002
H268	H	-0.021216	0.817115	-0.430756
H269	H	0.312117	1.150449	-0.097423
H270	H	0.645451	1.483782	0.235911
H271	H	0.096692	0.609338	-0.119685
H272	H	0.430025	0.942671	0.213648
H273	H	0.763359	1.276004	0.546981
Br274	Br	0.191431	0.919231	-0.645118
Br275	Br	0.524764	1.252565	-0.311784
Br276	Br	0.858097	1.585898	0.021549
Br277	Br	-0.006623	0.721242	-0.645192
Br278	Br	0.326710	1.054575	-0.311859
Br279	Br	0.660043	1.387908	0.021474
Br280	Br	-0.269509	0.822272	0.155711
Br281	Br	0.063824	1.155606	0.489045
Br282	Br	0.397157	1.488939	0.822378
Br283	Br	0.240031	0.824281	-0.589720
Br284	Br	0.573364	1.157615	-0.256387
Br285	Br	0.906697	1.490948	0.076947
H286	H	-0.249868	0.822518	-0.119657
H287	H	0.083465	1.155851	0.213676
H288	H	0.416798	1.489185	0.547009
H289	H	-0.696753	0.815956	-0.119638
H290	H	-0.363420	1.149290	0.213696
H291	H	-0.030087	1.482623	0.547029
H292	H	0.016196	0.744015	-0.195663
H293	H	0.349529	1.077348	0.137671
H294	H	0.682863	1.410682	0.471004
H295	H	0.168642	0.896407	-0.333898
H296	H	0.501976	1.229741	-0.000565
H297	H	0.835309	1.563074	0.332768
Br298	Br	0.191477	0.919172	-0.174911
Br299	Br	0.524810	1.252505	0.158423
Br300	Br	0.858143	1.585838	0.491756
H301	H	-0.331963	0.747383	0.091858
H302	H	0.001370	1.080716	0.425191
H303	H	0.334703	1.414049	0.758525
Br304	Br	-0.545658	0.818165	-0.155484
Br305	Br	-0.212325	1.151498	0.177849
Br306	Br	0.121008	1.484831	0.511183
H307	H	-0.483199	0.893076	-0.091623
H308	H	-0.149865	1.226410	0.241710
H309	H	0.183468	1.559743	0.575044
Br310	Br	-0.335074	0.917399	-0.119067
Br311	Br	-0.001740	1.250733	0.214266
Br312	Br	0.331593	1.584066	0.547600
