data_functionalizedCrystal
_audit_creation_method	'MofGen! by Chris Wilmer'
_symmetry_space_group_name_H-M	'P1'
_symmetry_Int_Tables_number	1
_symmetry_cell_setting	triclinic
loop_
_symmetry_equiv_pos_as_xyz
  x,y,z
_cell_length_a	19.288865
_cell_length_b	19.288864
_cell_length_c	18.366186
_cell_angle_alpha	90.022894
_cell_angle_beta	90.011479
_cell_angle_gamma	83.136245
loop_
_atom_site_label
_atom_site_type_symbol
_atom_site_fract_x
_atom_site_fract_y
_atom_site_fract_z
O1	O	-0.086649	-0.921353	-0.060791
O2	O	0.413351	-0.421353	0.439209
O3	O	-0.098337	-0.719092	-0.060743
O4	O	0.401663	-0.219092	0.439257
O5	O	0.008637	-0.826067	-0.060754
O6	O	0.508637	-0.326067	0.439246
O7	O	-0.193623	-0.814378	-0.060780
O8	O	0.306377	-0.314378	0.439220
O9	O	0.008643	-0.826049	0.060345
O10	O	0.508643	-0.326049	0.560345
O11	O	-0.098332	-0.719074	0.060357
O12	O	0.401668	-0.219074	0.560357
O13	O	-0.086643	-0.921335	0.060308
O14	O	0.413357	-0.421335	0.560308
Zn15	Zn	-0.092487	-0.820201	0.079559
Zn16	Zn	0.407513	-0.320201	0.579559
Zn17	Zn	-0.092494	-0.820225	-0.079994
Zn18	Zn	0.407506	-0.320225	0.420006
O19	O	-0.193618	-0.814360	0.060319
O20	O	0.306382	-0.314360	0.560319
C21	C	-0.097959	-0.693207	-0.000187
C22	C	0.402041	-0.193207	0.499813
C23	C	-0.096830	-0.616103	-0.000167
C24	C	0.403170	-0.116103	0.499833
C25	C	0.034516	-0.825682	-0.000202
C26	C	0.534516	-0.325682	0.499798
C27	C	0.111620	-0.824553	-0.000195
C28	C	0.611620	-0.324553	0.499805
C29	C	-0.087022	-0.947220	-0.000250
C30	C	0.412978	-0.447220	0.499750
C31	C	-0.088151	-1.024324	-0.000274
C32	C	0.411849	-0.524324	0.499726
C33	C	-0.219497	-0.814745	-0.000234
C34	C	0.280503	-0.314745	0.499766
C35	C	-0.296601	-0.815874	-0.000246
C36	C	0.203399	-0.315874	0.499754
C37	C	0.156316	-0.887321	-0.000207
C38	C	0.656316	-0.387321	0.499793
C39	C	0.228763	-0.886260	-0.000218
C40	C	0.728763	-0.386260	0.499782
C41	C	0.256511	-0.822428	-0.000203
C42	C	0.756511	-0.322428	0.499797
C43	C	0.211805	-0.759652	-0.000196
C44	C	0.711805	-0.259652	0.499804
C45	C	0.139359	-0.760714	-0.000192
C46	C	0.639359	-0.260714	0.499808
C47	C	0.364800	-0.772242	0.042227
C48	C	0.864800	-0.272242	0.542227
C49	C	0.437245	-0.771182	0.042228
C50	C	0.937245	-0.271182	0.542228
C51	C	0.479956	-0.819148	-0.000219
C52	C	0.979956	-0.319148	0.499781
C53	C	0.450216	-0.868186	-0.042657
C54	C	0.950216	-0.368186	0.457343
C55	C	0.377771	-0.869248	-0.042653
C56	C	0.877771	-0.369248	0.457347
C57	C	0.335065	-0.821269	-0.000208
C58	C	0.835065	-0.321269	0.499792
C59	C	0.603209	-0.880770	-0.000244
C60	C	1.103209	-0.380770	0.499756
C61	C	0.675657	-0.879707	-0.000259
C62	C	1.175657	-0.379707	0.499741
C63	C	0.658697	-0.753097	-0.000230
C64	C	1.158697	-0.253097	0.499770
C65	C	0.586250	-0.754162	-0.000221
C66	C	1.086250	-0.254162	0.499779
C67	C	0.558511	-0.818001	-0.000225
C68	C	1.058511	-0.318001	0.499775
N69	N	-0.092482	-0.820190	0.188451
N70	N	0.407518	-0.320190	0.688451
C71	C	-0.159598	-0.571407	-0.000187
C72	C	0.340402	-0.071407	0.499813
C73	C	-0.158537	-0.498960	-0.000195
C74	C	0.341463	0.001040	0.499805
C75	C	-0.094705	-0.471212	-0.000198
C76	C	0.405295	0.028788	0.499802
C77	C	-0.031929	-0.515918	-0.000174
C78	C	0.468071	-0.015918	0.499826
C79	C	-0.032991	-0.588364	-0.000159
C80	C	0.467009	-0.088364	0.499841
C81	C	-0.044527	-0.362956	-0.042642
C82	C	0.455473	0.137044	0.457358
C83	C	-0.043468	-0.290512	-0.042662
C84	C	0.456532	0.209488	0.457338
C85	C	-0.091425	-0.247767	-0.000241
C86	C	0.408575	0.252233	0.499759
C87	C	-0.140454	-0.277473	0.042189
C88	C	0.359546	0.222527	0.542189
C89	C	-0.141517	-0.349918	0.042205
C90	C	0.358483	0.150082	0.542205
C91	C	-0.093546	-0.392658	-0.000214
C92	C	0.406454	0.107342	0.499786
C93	C	-0.153047	-0.124514	-0.000269
C94	C	0.346953	0.375486	0.499731
C95	C	-0.151984	-0.052066	-0.000272
C96	C	0.348016	0.447934	0.499728
C97	C	-0.025374	-0.069026	-0.000259
C98	C	0.474626	0.430974	0.499741
C99	C	-0.026439	-0.141473	-0.000248
C100	C	0.473561	0.358527	0.499752
C101	C	-0.090278	-0.169212	-0.000256
C102	C	0.409722	0.330788	0.499744
N103	N	-0.092493	-0.820242	-0.188885
N104	N	0.407507	-0.320242	0.311115
C105	C	-0.045137	-0.867574	0.226546
C106	C	0.454863	-0.367574	0.726546
C107	C	-0.045134	-0.867578	0.302774
C108	C	0.454866	-0.367578	0.802774
C109	C	-0.092488	-0.820206	0.340903
C110	C	0.407512	-0.320206	0.840903
C111	C	-0.139836	-0.772813	0.302799
C112	C	0.360164	-0.272813	0.802799
C113	C	-0.139834	-0.772805	0.226572
C114	C	0.360166	-0.272805	0.726572
C115	C	-0.155775	-0.810907	0.461657
C116	C	0.344225	-0.310907	0.961657
C117	C	-0.155779	-0.810920	0.537882
C118	C	0.344221	-0.310920	1.037882
C119	C	-0.092496	-0.820225	0.576011
C120	C	0.407504	-0.320225	1.076011
C121	C	-0.029207	-0.829533	0.537905
C122	C	0.470793	-0.329533	1.037905
C123	C	-0.029204	-0.829525	0.461679
C124	C	0.470796	-0.329525	0.961679
C125	C	-0.092496	-0.820208	0.423558
C126	C	0.407504	-0.320208	0.923558
C127	C	-0.045144	-0.867617	0.696761
C128	C	0.454856	-0.367617	1.196761
C129	C	-0.045140	-0.867616	0.772990
C130	C	0.454860	-0.367616	1.272990
C131	C	-0.139849	-0.772854	0.773014
C132	C	0.360151	-0.272854	1.273014
C133	C	-0.139847	-0.772851	0.696786
C134	C	0.360153	-0.272851	1.196786
C135	C	-0.092495	-0.820236	0.658664
C136	C	0.407505	-0.320236	1.158664
H137	H	0.265162	-0.937375	-0.000231
H138	H	0.765162	-0.437375	0.499769
N139	N	-0.224038	-0.800876	0.578976
N140	N	0.275962	-0.300876	1.078976
H141	H	-0.214439	-0.802297	0.633050
H142	H	0.285561	-0.302297	1.133050
H143	H	-0.252872	-0.839393	0.565622
H144	H	0.247128	-0.339393	1.065622
N145	N	0.091142	-0.693014	-0.000165
N146	N	0.591142	-0.193014	0.499835
H147	H	0.060691	-0.690640	-0.045052
H148	H	0.560691	-0.190640	0.454948
H149	H	0.119755	-0.652451	-0.000130
H150	H	0.619755	-0.152451	0.499870
H151	H	0.353560	-0.909175	-0.077208
H152	H	0.853560	-0.409175	0.422792
H153	H	0.020044	-0.493322	-0.000187
H154	H	0.520044	0.006678	0.499813
N155	N	0.039053	-0.839562	0.420581
N156	N	0.539053	-0.339562	0.920581
H157	H	0.029449	-0.838148	0.366508
H158	H	0.529449	-0.338148	0.866508
H159	H	0.065490	-0.886215	0.433888
H160	H	0.565490	-0.386215	0.933888
H161	H	0.484991	-0.907244	-0.077221
H162	H	0.984991	-0.407244	0.422779
H163	H	-0.209652	-0.462561	-0.000209
H164	H	0.290348	0.037439	0.499791
N165	N	0.005951	-0.918698	0.655640
N166	N	0.505951	-0.418698	1.155640
H167	H	-0.001229	-0.911501	0.601569
H168	H	0.498771	-0.411501	1.101569
H169	H	-0.001929	-0.967953	0.668928
H170	H	0.498071	-0.467953	1.168928
H171	H	-0.207311	-0.803318	0.430619
H172	H	0.292689	-0.303318	0.930619
H173	H	0.580622	-0.932751	-0.000250
H174	H	1.080622	-0.432751	0.499750
H175	H	-0.003548	-0.266331	-0.077215
H176	H	0.496452	0.233669	0.422785
N177	N	0.688623	-0.684252	-0.000208
N178	N	1.188623	-0.184252	0.499792
H179	H	0.672320	-0.656757	0.044692
H180	H	1.172320	-0.156757	0.544692
H181	H	0.672293	-0.656821	-0.045121
H182	H	1.172293	-0.156821	0.454879
N183	N	-0.194386	-0.381965	0.087970
N184	N	0.305614	0.118035	0.587970
H185	H	-0.243075	-0.362825	0.072128
H186	H	0.256925	0.137175	0.572128
H187	H	-0.187665	-0.370189	0.140894
H188	H	0.312335	0.129811	0.640894
N189	N	0.039057	-0.839587	0.579014
N190	N	0.539057	-0.339587	1.079014
H191	H	0.067929	-0.801078	0.565774
H192	H	0.567929	-0.301078	1.065774
H193	H	0.065458	-0.886264	0.565703
H194	H	0.565458	-0.386264	1.065703
N195	N	-0.228449	-0.601326	-0.000201
N196	N	0.271551	-0.101326	0.499799
H197	H	-0.268051	-0.562013	-0.000217
H198	H	0.231949	-0.062013	0.499783
H199	H	-0.231653	-0.630990	0.044696
H200	H	0.268347	-0.130990	0.544696
N201	N	-0.192189	-0.231380	0.087943
N202	N	0.307811	0.268620	0.587943
H203	H	-0.184077	-0.180979	0.081500
H204	H	0.315923	0.319021	0.581500
H205	H	-0.185880	-0.244886	0.140866
H206	H	0.314120	0.255114	0.640866
H207	H	-0.006582	-0.906200	0.804008
H208	H	0.493418	-0.406200	1.304008
N209	N	-0.190902	-0.721693	0.185485
N210	N	0.309098	-0.221693	0.685485
H211	H	-0.240181	-0.729534	0.198734
H212	H	0.259819	-0.229534	0.698734
H213	H	-0.183657	-0.728901	0.131423
H214	H	0.316343	-0.228901	0.631423
N215	N	-0.190920	-0.721752	0.814128
N216	N	0.309080	-0.221752	1.314128
H217	H	-0.183737	-0.728945	0.868198
H218	H	0.316263	-0.228945	1.368198
H219	H	-0.240175	-0.729616	0.800789
H220	H	0.259825	-0.229616	1.300789
H221	H	-0.005473	-0.397755	-0.077191
H222	H	0.494527	0.102245	0.422809
N223	N	0.043473	-0.039105	-0.000255
N224	N	0.543473	0.460895	0.499745
H225	H	0.046736	-0.009449	-0.045151
H226	H	0.546736	0.490551	0.454849
H227	H	0.083037	-0.078454	-0.000215
H228	H	0.583037	0.421546	0.499785
N229	N	-0.190910	-0.721720	0.343925
N230	N	0.309090	-0.221720	0.843925
H231	H	-0.240188	-0.729557	0.330640
H232	H	0.259812	-0.229557	0.830640
H233	H	-0.182971	-0.672472	0.330673
H234	H	0.317029	-0.172472	0.830673
H235	H	-0.006579	-0.906156	0.195509
H236	H	0.493421	-0.406156	0.695509
N237	N	0.034715	-0.636572	-0.000137
N238	N	0.534715	-0.136572	0.499863
H239	H	0.062574	-0.627695	-0.045026
H240	H	0.562574	-0.127695	0.454974
H241	H	0.024300	-0.686656	-0.000101
H242	H	0.524300	-0.186656	0.499899
H243	H	0.133736	-0.939303	-0.000212
H244	H	0.633736	-0.439303	0.499788
H245	H	0.712049	-0.930822	-0.000273
H246	H	1.212049	-0.430822	0.499727
N247	N	0.538036	-0.686462	-0.000205
N248	N	1.038036	-0.186462	0.499795
H249	H	0.566605	-0.645862	-0.000196
H250	H	1.066605	-0.145862	0.499804
H251	H	0.507619	-0.684139	0.044691
H252	H	1.007619	-0.184139	0.544691
N253	N	-0.219687	-0.003854	-0.000235
N254	N	0.280313	0.496146	0.499765
H255	H	-0.260286	-0.032423	-0.000222
H256	H	0.239714	0.467577	0.499778
H257	H	-0.222037	0.026576	-0.045116
H258	H	0.277963	0.526576	0.454884
H259	H	0.461452	-0.731250	0.076779
H260	H	0.961452	-0.231250	0.576779
H261	H	-0.205028	-0.147101	-0.000265
H262	H	0.294972	0.352899	0.499735
N263	N	0.041261	-0.189687	-0.000227
N264	N	0.541261	0.310313	0.499773
H265	H	0.081861	-0.161118	-0.000229
H266	H	0.581861	0.338882	0.499771
H267	H	0.043578	-0.220141	-0.045112
H268	H	0.543578	0.279859	0.454888
H269	H	0.330029	-0.733180	0.076796
H270	H	0.830029	-0.233180	0.576796
N271	N	-0.190912	-0.721743	0.655692
N272	N	0.309088	-0.221743	1.155692
H273	H	-0.220910	-0.691732	0.691411
H274	H	0.279090	-0.191732	1.191411
H275	H	-0.221552	-0.748230	0.624041
H276	H	0.278448	-0.248230	1.124041
H277	H	0.234401	-0.707679	-0.000185
H278	H	0.734401	-0.207679	0.499815
H279	H	-0.006578	-0.906165	0.333797
H280	H	0.493422	-0.406165	0.833797
