data_functionalizedCrystal
_audit_creation_method	'MofGen! by Chris Wilmer'
_symmetry_space_group_name_H-M	'P1'
_symmetry_Int_Tables_number	1
_symmetry_cell_setting	triclinic
loop_
_symmetry_equiv_pos_as_xyz
  x,y,z
_cell_length_a	19.805407
_cell_length_b	19.077068
_cell_length_c	19.805398
_cell_angle_alpha	92.270943
_cell_angle_beta	89.984135
_cell_angle_gamma	92.327086
loop_
_atom_site_label
_atom_site_type_symbol
_atom_site_fract_x
_atom_site_fract_y
_atom_site_fract_z
Zn1	Zn	1.023878	-0.280230	-0.393534
Zn2	Zn	1.273878	-0.030230	-0.143534
Zn3	Zn	1.523878	0.219770	0.106466
Zn4	Zn	1.773878	0.469770	0.356466
Zn5	Zn	1.019250	-0.397926	-0.284888
Zn6	Zn	1.269250	-0.147926	-0.034888
Zn7	Zn	1.519250	0.102074	0.215112
Zn8	Zn	1.769250	0.352074	0.465112
Zn9	Zn	0.910699	-0.280246	-0.280360
Zn10	Zn	1.160699	-0.030246	-0.030360
Zn11	Zn	1.410699	0.219754	0.219640
Zn12	Zn	1.660699	0.469754	0.469640
Zn13	Zn	0.906108	-0.397892	-0.398034
Zn14	Zn	1.156108	-0.147892	-0.148034
Zn15	Zn	1.406108	0.102108	0.101966
Zn16	Zn	1.656108	0.352108	0.351966
O17	O	0.964984	-0.339073	-0.339204
O18	O	1.214984	-0.089073	-0.089204
O19	O	1.464984	0.160927	0.160796
O20	O	1.714984	0.410927	0.410796
O21	O	1.117980	-0.295850	-0.379134
O22	O	1.367980	-0.045850	-0.129134
O23	O	1.617980	0.204150	0.120866
O24	O	1.867980	0.454150	0.370866
O25	O	1.004836	-0.382336	-0.189572
O26	O	1.254836	-0.132336	0.060428
O27	O	1.504836	0.117664	0.310428
O28	O	1.754836	0.367664	0.560428
O29	O	0.929571	-0.181752	-0.291594
O30	O	1.179571	0.068248	-0.041594
O31	O	1.429571	0.318248	0.208406
O32	O	1.679571	0.568248	0.458406
O33	O	1.114581	-0.382321	-0.299313
O34	O	1.364581	-0.132321	-0.049313
O35	O	1.614581	0.117679	0.200687
O36	O	1.864581	0.367679	0.450687
O37	O	1.012723	-0.181741	-0.374743
O38	O	1.262723	0.068259	-0.124743
O39	O	1.512723	0.318259	0.125257
O40	O	1.762723	0.568259	0.375257
O41	O	0.925084	-0.295877	-0.186244
O42	O	1.175084	-0.045877	0.063756
O43	O	1.425084	0.204123	0.313756
O44	O	1.675084	0.454123	0.563756
O45	O	0.815374	-0.295844	-0.295957
O46	O	1.065374	-0.045844	-0.045957
O47	O	1.315374	0.204156	0.204043
O48	O	1.565374	0.454156	0.454043
O49	O	0.921745	-0.382263	-0.492153
O50	O	1.171745	-0.132263	-0.242153
O51	O	1.421745	0.117737	0.007847
O52	O	1.671745	0.367737	0.257847
O53	O	0.812001	-0.382278	-0.382412
O54	O	1.062001	-0.132278	-0.132412
O55	O	1.312001	0.117722	0.117588
O56	O	1.562001	0.367722	0.367588
O57	O	1.008271	-0.295817	-0.488847
O58	O	1.258271	-0.045817	-0.238847
O59	O	1.508271	0.204183	0.011153
O60	O	1.758271	0.454183	0.261153
O61	O	1.000384	-0.496413	-0.303675
O62	O	1.250384	-0.246413	-0.053675
O63	O	1.500384	0.003587	0.196325
O64	O	1.750384	0.253587	0.446325
O65	O	0.917258	-0.496388	-0.386803
O66	O	1.167258	-0.246388	-0.136803
O67	O	1.417258	0.003612	0.113197
O68	O	1.667258	0.253612	0.363197
C69	C	0.789128	-0.339060	-0.339182
C70	C	1.039128	-0.089060	-0.089182
C71	C	1.289128	0.160940	0.160818
C72	C	1.539128	0.410940	0.410818
C73	C	0.713896	-0.339071	-0.339189
C74	C	0.963896	-0.089071	-0.089189
C75	C	1.213896	0.160929	0.160811
C76	C	1.463896	0.410929	0.410811
C77	C	0.676810	-0.384145	-0.384138
C78	C	0.926810	-0.134145	-0.134138
C79	C	1.176810	0.115855	0.115862
C80	C	1.426810	0.365855	0.365862
C81	C	0.606122	-0.384146	-0.384148
C82	C	0.856122	-0.134146	-0.134148
C83	C	1.106122	0.115854	0.115852
C84	C	1.356122	0.365854	0.365852
C85	C	0.572520	-0.339077	-0.339204
C86	C	0.822520	-0.089077	-0.089204
C87	C	1.072520	0.160923	0.160796
C88	C	1.322520	0.410923	0.410796
C89	C	0.609611	-0.293998	-0.294252
C90	C	0.859611	-0.043998	-0.044252
C91	C	1.109611	0.206002	0.205748
C92	C	1.359611	0.456002	0.455748
C93	C	0.680298	-0.293993	-0.294247
C94	C	0.930298	-0.043993	-0.044247
C95	C	1.180298	0.206007	0.205753
C96	C	1.430298	0.456007	0.455753
C97	C	0.324537	-0.294013	-0.294275
C98	C	0.574537	-0.044013	-0.044275
C99	C	0.824537	0.205987	0.205725
C100	C	1.074537	0.455987	0.455725
C101	C	0.253845	-0.294022	-0.294283
C102	C	0.503845	-0.044022	-0.044283
C103	C	0.753845	0.205978	0.205717
C104	C	1.003845	0.455978	0.455717
C105	C	0.250361	-0.384166	-0.384176
C106	C	0.500361	-0.134166	-0.134176
C107	C	0.750361	0.115834	0.115824
C108	C	1.000361	0.365834	0.365824
C109	C	0.321048	-0.384162	-0.384171
C110	C	0.571048	-0.134162	-0.134171
C111	C	0.821048	0.115838	0.115829
C112	C	1.071048	0.365838	0.365829
C113	C	0.358133	-0.339081	-0.339222
C114	C	0.608133	-0.089081	-0.089222
C115	C	0.858133	0.160919	0.160778
C116	C	1.108133	0.410919	0.410778
C117	C	0.434781	-0.339079	-0.339213
C118	C	0.684781	-0.089079	-0.089213
C119	C	0.934781	0.160921	0.160787
C120	C	1.184781	0.410921	0.410787
C121	C	0.495873	-0.339081	-0.339209
C122	C	0.745873	-0.089081	-0.089209
C123	C	0.995873	0.160919	0.160791
C124	C	1.245873	0.410919	0.410791
C125	C	0.957839	-0.521938	-0.346234
C126	C	1.207839	-0.271938	-0.096234
C127	C	1.457839	-0.021938	0.153766
C128	C	1.707839	0.228062	0.403766
C129	C	0.954844	-0.600168	-0.349264
C130	C	1.204844	-0.350168	-0.099264
C131	C	1.454844	-0.100168	0.150736
C132	C	1.704844	0.149832	0.400736
C133	C	0.996750	-0.636910	-0.307443
C134	C	1.246750	-0.386910	-0.057443
C135	C	1.496750	-0.136910	0.192557
C136	C	1.746750	0.113090	0.442557
C137	C	0.993937	-0.710416	-0.310297
C138	C	1.243937	-0.460416	-0.060297
C139	C	1.493937	-0.210416	0.189703
C140	C	1.743937	0.039584	0.439703
C141	C	0.949215	-0.747178	-0.354968
C142	C	1.199215	-0.497178	-0.104968
C143	C	1.449215	-0.247178	0.145032
C144	C	1.699215	0.002822	0.395032
C145	C	0.907307	-0.710430	-0.396793
C146	C	1.157307	-0.460430	-0.146793
C147	C	1.407307	-0.210430	0.103207
C148	C	1.657307	0.039570	0.353207
C149	C	0.910124	-0.636926	-0.393943
C150	C	1.160124	-0.386926	-0.143943
C151	C	1.410124	-0.136926	0.106057
C152	C	1.660124	0.113074	0.356057
C153	C	0.936149	-0.967013	-0.368135
C154	C	1.186149	-0.717013	-0.118135
C155	C	1.436149	-0.467013	0.131865
C156	C	1.686149	-0.217013	0.381865
C157	C	0.933334	-1.040522	-0.370981
C158	C	1.183334	-0.790522	-0.120981
C159	C	1.433334	-0.540522	0.129019
C160	C	1.683334	-0.290522	0.379019
C161	C	1.019965	-1.040503	-0.284485
C162	C	1.269965	-0.790503	-0.034485
C163	C	1.519965	-0.540503	0.215515
C164	C	1.769965	-0.290503	0.465515
C165	C	1.022775	-0.966997	-0.281635
C166	C	1.272775	-0.716997	-0.031635
C167	C	1.522775	-0.466997	0.218365
C168	C	1.772775	-0.216997	0.468365
C169	C	0.980870	-0.930256	-0.323463
C170	C	1.230870	-0.680256	-0.073463
C171	C	1.480870	-0.430256	0.176537
C172	C	1.730870	-0.180256	0.426537
N173	N	0.946337	-0.822312	-0.357885
N174	N	1.196337	-0.572312	-0.107885
N175	N	1.446337	-0.322312	0.142115
N176	N	1.696337	-0.072312	0.392115
N177	N	0.983752	-0.855123	-0.320549
N178	N	1.233752	-0.605123	-0.070549
N179	N	1.483752	-0.355123	0.179451
N180	N	1.733752	-0.105123	0.429451
C181	C	1.141526	-0.339087	-0.339227
C182	C	1.391526	-0.089087	-0.089227
C183	C	1.641526	0.160913	0.160773
C184	C	1.891526	0.410913	0.410773
C185	C	1.216758	-0.339093	-0.339237
C186	C	1.466758	-0.089093	-0.089237
C187	C	1.716758	0.160907	0.160763
C188	C	1.966758	0.410907	0.410763
C189	C	0.965012	-0.339034	-0.515745
C190	C	1.215012	-0.089034	-0.265745
C191	C	1.465012	0.160966	-0.015745
C192	C	1.715012	0.410966	0.234255
C193	C	0.965024	-0.339018	-0.590977
C194	C	1.215024	-0.089018	-0.340977
C195	C	1.465024	0.160982	-0.090977
C196	C	1.715024	0.410982	0.159023
C197	C	0.972175	-0.155495	-0.332162
C198	C	1.222175	0.094505	-0.082162
C199	C	1.472175	0.344505	0.167838
C200	C	1.722175	0.594505	0.417838
C201	C	0.975240	-0.077265	-0.329161
C202	C	1.225240	0.172735	-0.079161
C203	C	1.475240	0.422735	0.170839
C204	C	1.725240	0.672735	0.420839
C205	C	1.010164	-0.293881	-1.051043
C206	C	1.260164	-0.043881	-0.801043
C207	C	1.510164	0.206119	-0.551043
C208	C	1.760164	0.456119	-0.301043
C209	C	1.010153	-0.293902	-0.980355
C210	C	1.260153	-0.043902	-0.730355
C211	C	1.510153	0.206098	-0.480355
C212	C	1.760153	0.456098	-0.230355
C213	C	0.965097	-0.338920	-0.946735
C214	C	1.215097	-0.088920	-0.696735
C215	C	1.465097	0.161080	-0.446735
C216	C	1.715097	0.411080	-0.196735
C217	C	0.920055	-0.383924	-0.983806
C218	C	1.170055	-0.133924	-0.733806
C219	C	1.420055	0.116076	-0.483806
C220	C	1.670055	0.366076	-0.233806
C221	C	0.920070	-0.383905	-1.054492
C222	C	1.170070	-0.133905	-0.804492
C223	C	1.420070	0.116095	-0.554492
C224	C	1.670070	0.366095	-0.304492
C225	C	0.919993	-0.384000	-0.698735
C226	C	1.169993	-0.134000	-0.448735
C227	C	1.419993	0.116000	-0.198735
C228	C	1.669993	0.366000	0.051265
C229	C	0.919980	-0.384014	-0.628044
C230	C	1.169980	-0.134014	-0.378044
C231	C	1.419980	0.115986	-0.128044
C232	C	1.669980	0.365986	0.121956
C233	C	1.010076	-0.293997	-0.624598
C234	C	1.260076	-0.043997	-0.374598
C235	C	1.510076	0.206003	-0.124598
C236	C	1.760076	0.456003	0.125402
C237	C	1.010091	-0.293979	-0.695285
C238	C	1.260091	-0.043979	-0.445285
C239	C	1.510091	0.206021	-0.195285
C240	C	1.760091	0.456021	0.054715
C241	C	0.965051	-0.338985	-0.732350
C242	C	1.215051	-0.088985	-0.482350
C243	C	1.465051	0.161015	-0.232350
C244	C	1.715051	0.411015	0.017650
C245	C	0.965065	-0.338962	-0.808997
C246	C	1.215065	-0.088962	-0.558997
C247	C	1.465065	0.161038	-0.308997
C248	C	1.715065	0.411038	-0.058997
C249	C	0.965080	-0.338940	-0.870088
C250	C	1.215080	-0.088940	-0.620088
C251	C	1.465080	0.161060	-0.370088
C252	C	1.715080	0.411060	-0.120088
C253	C	0.964997	-0.339061	-0.163347
C254	C	1.214997	-0.089061	0.086653
C255	C	1.464997	0.160939	0.336653
C256	C	1.714997	0.410939	0.586653
C257	C	0.965124	-0.338880	-0.088109
C258	C	1.215124	-0.088880	0.161891
C259	C	1.465124	0.161120	0.411891
C260	C	1.715124	0.411120	0.661891
H261	H	0.575930	-0.420851	-0.420750
H262	H	0.825930	-0.170851	-0.170750
H263	H	1.075930	0.079149	0.079250
H264	H	1.325930	0.329149	0.329250
H265	H	0.710493	-0.257286	-0.257648
H266	H	0.960493	-0.007286	-0.007648
H267	H	1.210493	0.242714	0.242352
H268	H	1.460493	0.492714	0.492352
H269	H	0.883286	-0.420672	-0.600672
H270	H	1.133286	-0.170672	-0.350672
H271	H	1.383286	0.079328	-0.100672
H272	H	1.633286	0.329328	0.149328
H273	H	1.054083	-1.070425	-0.250432
H274	H	1.304083	-0.820425	-0.000432
H275	H	1.554083	-0.570425	0.249568
H276	H	1.804083	-0.320425	0.499568
H277	H	0.348403	-0.420864	-0.420766
H278	H	0.598403	-0.170864	-0.170766
H279	H	0.848403	0.079136	0.079234
H280	H	1.098403	0.329136	0.329234
C281	C	1.045946	-0.596479	-0.258305
C282	C	1.295946	-0.346479	-0.008305
C283	C	1.545946	-0.096479	0.241695
C284	C	1.795946	0.153521	0.491695
H285	H	1.070504	-0.628891	-0.233812
H286	H	1.320504	-0.378891	0.016188
H287	H	1.570504	-0.128891	0.266188
H288	H	1.820504	0.121109	0.516188
H289	H	1.021174	-0.567845	-0.227678
H290	H	1.271174	-0.317845	0.022322
H291	H	1.521174	-0.067845	0.272322
H292	H	1.771174	0.182155	0.522322
H293	H	1.076522	-0.567764	-0.283116
H294	H	1.326522	-0.317764	-0.033116
H295	H	1.576522	-0.067764	0.216884
H296	H	1.826522	0.182236	0.466884
H297	H	0.902027	-0.937104	-0.402191
H298	H	1.152027	-0.687104	-0.152191
H299	H	1.402027	-0.437104	0.097809
H300	H	1.652027	-0.187104	0.347809
H301	H	0.896924	-1.070452	-0.407370
H302	H	1.146924	-0.820452	-0.157370
H303	H	1.396924	-0.570452	0.092630
H304	H	1.646924	-0.320452	0.342630
C305	C	0.209566	-0.433748	-0.433627
C306	C	0.459566	-0.183748	-0.183627
C307	C	0.709566	0.066252	0.066373
C308	C	0.959566	0.316252	0.316373
H309	H	0.162655	-0.427292	-0.427201
H310	H	0.412655	-0.177292	-0.177201
H311	H	0.662655	0.072708	0.072799
H312	H	0.912655	0.322708	0.322799
H313	H	0.219301	-0.481023	-0.425463
H314	H	0.469301	-0.231023	-0.175463
H315	H	0.719301	0.018977	0.074537
H316	H	0.969301	0.268977	0.324537
H317	H	0.221570	-0.423506	-0.478727
H318	H	0.471570	-0.173506	-0.228727
H319	H	0.721570	0.076494	0.021273
H320	H	0.971570	0.326494	0.271273
C321	C	0.858115	-0.750863	-0.445934
C322	C	1.108115	-0.500863	-0.195934
C323	C	1.358115	-0.250863	0.054066
C324	C	1.608115	-0.000863	0.304066
H325	H	0.833566	-0.718451	-0.470438
H326	H	1.083566	-0.468451	-0.220438
H327	H	1.333566	-0.218451	0.029562
H328	H	1.583566	0.031549	0.279562
H329	H	0.827539	-0.779580	-0.421131
H330	H	1.077539	-0.529580	-0.171131
H331	H	1.327539	-0.279580	0.078869
H332	H	1.577539	-0.029580	0.328869
H333	H	0.882896	-0.779494	-0.476562
H334	H	1.132896	-0.529494	-0.226562
H335	H	1.382896	-0.279494	0.023438
H336	H	1.632896	-0.029494	0.273438
C337	C	0.365324	-0.244431	-0.244833
C338	C	0.615324	0.005569	0.005167
C339	C	0.865324	0.255569	0.255167
C340	C	1.115324	0.505569	0.505167
H341	H	0.412236	-0.250874	-0.251268
H342	H	0.662236	-0.000874	-0.001268
H343	H	0.912236	0.249126	0.248732
H344	H	1.162236	0.499126	0.498732
H345	H	0.353324	-0.254667	-0.199734
H346	H	0.603324	-0.004667	0.050266
H347	H	0.853324	0.245333	0.300266
H348	H	1.103324	0.495333	0.550266
H349	H	0.355585	-0.197154	-0.253002
H350	H	0.605585	0.052846	-0.003002
H351	H	0.855585	0.302846	0.246998
H352	H	1.105585	0.552846	0.496998
H353	H	1.028060	-0.740328	-0.276241
H354	H	1.278060	-0.490328	-0.026241
H355	H	1.528060	-0.240328	0.223759
H356	H	1.778060	0.009672	0.473759
C357	C	1.059692	-0.244401	-0.939582
C358	C	1.309692	0.005599	-0.689582
C359	C	1.559692	0.255599	-0.439582
C360	C	1.809692	0.505599	-0.189582
H361	H	1.053236	-0.250863	-0.892669
H362	H	1.303236	-0.000863	-0.642669
H363	H	1.553236	0.249137	-0.392669
H364	H	1.803236	0.499137	-0.142669
H365	H	1.051637	-0.197109	-0.949350
H366	H	1.301637	0.052891	-0.699350
H367	H	1.551637	0.302891	-0.449350
H368	H	1.801637	0.552891	-0.199350
H369	H	1.104771	-0.254702	-0.951567
H370	H	1.354771	-0.004702	-0.701567
H371	H	1.604771	0.245298	-0.451567
H372	H	1.854771	0.495298	-0.201567
H373	H	0.226488	-0.257317	-0.257684
H374	H	0.476488	-0.007317	-0.007684
H375	H	0.726488	0.242683	0.242316
H376	H	0.976488	0.492683	0.492316
H377	H	0.876001	-0.607011	-0.427998
H378	H	1.126001	-0.357011	-0.177998
H379	H	1.376001	-0.107011	0.072002
H380	H	1.626001	0.142989	0.322002
C381	C	1.059727	-0.244363	-1.088019
C382	C	1.309727	0.005637	-0.838019
C383	C	1.559727	0.255637	-0.588019
C384	C	1.809727	0.505637	-0.338019
H385	H	1.086554	-0.217571	-1.055818
H386	H	1.336554	0.032429	-0.805818
H387	H	1.586554	0.282429	-0.555818
H388	H	1.836554	0.532429	-0.305818
H389	H	1.035046	-0.213686	-1.114416
H390	H	1.285046	0.036314	-0.864416
H391	H	1.535046	0.286314	-0.614416
H392	H	1.785046	0.536314	-0.364416
H393	H	1.088172	-0.271287	-1.116628
H394	H	1.338172	-0.021287	-0.866628
H395	H	1.588172	0.228713	-0.616628
H396	H	1.838172	0.478713	-0.366628
C397	C	0.870528	-0.433403	-1.095268
C398	C	1.120528	-0.183403	-0.845268
C399	C	1.370528	0.066597	-0.595268
C400	C	1.620528	0.316597	-0.345268
H401	H	0.876994	-0.426950	-1.142181
H402	H	1.126994	-0.176950	-0.892181
H403	H	1.376994	0.073050	-0.642181
H404	H	1.626994	0.323050	-0.392181
H405	H	0.825450	-0.423106	-1.083287
H406	H	1.075450	-0.173106	-0.833287
H407	H	1.325450	0.076894	-0.583287
H408	H	1.575450	0.326894	-0.333287
H409	H	0.878586	-0.480698	-1.085498
H410	H	1.128586	-0.230698	-0.835498
H411	H	1.378586	0.019302	-0.585498
H412	H	1.628586	0.269302	-0.335498
H413	H	1.046777	-0.257318	-0.722655
H414	H	1.296777	-0.007318	-0.472655
H415	H	1.546777	0.242682	-0.222655
H416	H	1.796777	0.492682	0.027345
H417	H	0.704164	-0.420848	-0.420734
H418	H	0.954164	-0.170848	-0.170734
H419	H	1.204164	0.079152	0.079266
H420	H	1.454164	0.329152	0.329266
H421	H	1.046751	-0.257353	-0.594411
H422	H	1.296751	-0.007353	-0.344411
H423	H	1.546751	0.242647	-0.094411
H424	H	1.796751	0.492647	0.155589
C425	C	0.870444	-0.433497	-0.739498
C426	C	1.120444	-0.183497	-0.489498
C427	C	1.370444	0.066503	-0.239498
C428	C	1.620444	0.316503	0.010502
H429	H	0.843604	-0.460302	-0.709349
H430	H	1.093604	-0.210302	-0.459349
H431	H	1.343604	0.039698	-0.209349
H432	H	1.593604	0.289698	0.040651
H433	H	0.895135	-0.464161	-0.768253
H434	H	1.145135	-0.214161	-0.518253
H435	H	1.395135	0.035839	-0.268253
H436	H	1.645135	0.285839	-0.018253
H437	H	0.842012	-0.406558	-0.766034
H438	H	1.092012	-0.156558	-0.516034
H439	H	1.342012	0.093442	-0.266034
H440	H	1.592012	0.343442	-0.016034
H441	H	0.582247	-0.257298	-0.257661
H442	H	0.832247	-0.007298	-0.007661
H443	H	1.082247	0.242702	0.242339
H444	H	1.332247	0.492702	0.492339
C445	C	1.071974	-0.926564	-0.232501
C446	C	1.321974	-0.676564	0.017499
C447	C	1.571974	-0.426564	0.267499
C448	C	1.821974	-0.176564	0.517499
H449	H	1.096533	-0.958975	-0.208006
H450	H	1.346533	-0.708975	0.041994
H451	H	1.596533	-0.458975	0.291994
H452	H	1.846533	-0.208975	0.541994
H453	H	1.047201	-0.897930	-0.201875
H454	H	1.297201	-0.647930	0.048125
H455	H	1.547201	-0.397930	0.298125
H456	H	1.797201	-0.147930	0.548125
H457	H	1.102550	-0.897850	-0.257313
H458	H	1.352550	-0.647850	-0.007313
H459	H	1.602550	-0.397850	0.242687
H460	H	1.852550	-0.147850	0.492687
C461	C	0.870494	-0.433441	-0.946825
C462	C	1.120494	-0.183441	-0.696825
C463	C	1.370494	0.066559	-0.446825
C464	C	1.620494	0.316559	-0.196825
H465	H	0.876929	-0.427002	-0.899418
H466	H	1.126929	-0.177002	-0.649418
H467	H	1.376929	0.072998	-0.399418
H468	H	1.626929	0.322998	-0.149418
H469	H	0.878547	-0.480729	-0.960224
H470	H	1.128547	-0.230729	-0.710224
H471	H	1.378547	0.019271	-0.460224
H472	H	1.628547	0.269271	-0.210224
H473	H	0.825421	-0.423128	-0.958013
H474	H	1.075421	-0.173128	-0.708013
H475	H	1.325421	0.076872	-0.458013
H476	H	1.575421	0.326872	-0.208013
