data_functionalizedCrystal
_audit_creation_method	'MofGen! by Chris Wilmer'
_symmetry_space_group_name_H-M	'P1'
_symmetry_Int_Tables_number	1
_symmetry_cell_setting	triclinic
loop_
_symmetry_equiv_pos_as_xyz
  x,y,z
_cell_length_a	10.540539
_cell_length_b	10.540539
_cell_length_c	9.616153
_cell_angle_alpha	90.000094
_cell_angle_beta	90.004826
_cell_angle_gamma	84.525492
loop_
_atom_site_label
_atom_site_type_symbol
_atom_site_fract_x
_atom_site_fract_y
_atom_site_fract_z
O1	O	-1.685892	-0.178895	-0.115573
O2	O	-1.316479	-0.195751	-0.115589
O3	O	-1.509614	-0.002617	-0.115579
O4	O	-1.492758	-0.372030	-0.115583
O5	O	-1.509587	-0.002621	0.115712
O6	O	-1.316452	-0.195755	0.115702
O7	O	-1.685865	-0.178899	0.115718
Zn8	Zn	-1.501155	-0.187328	0.152433
Zn9	Zn	-1.501190	-0.187323	-0.152304
O10	O	-1.492731	-0.372034	0.115708
C11	C	-1.269163	-0.194489	0.000054
C12	C	-1.128215	-0.190707	0.000048
C13	C	-1.508336	0.044684	0.000064
C14	C	-1.504554	0.185632	0.000056
C15	C	-1.733182	-0.180161	0.000072
C16	C	-1.874130	-0.183943	0.000069
C17	C	-0.944788	-0.045790	0.000589
C18	C	-1.091406	-0.049624	0.000054
C19	C	-1.066557	-0.258600	-0.132027
C20	C	-0.920013	-0.253785	-0.132123
C21	C	-0.919494	-0.256660	0.130899
C22	C	-1.066476	-0.257959	0.132630
C23	C	-1.494008	-0.419335	0.000062
C24	C	-1.497790	-0.560283	0.000060
N25	N	-1.501140	-0.187331	0.360407
C26	C	-1.359637	0.369059	-0.000469
C27	C	-1.363471	0.222441	0.000052
C28	C	-1.572435	0.247288	0.132138
C29	C	-1.567620	0.393832	0.132249
C30	C	-1.570519	0.394355	-0.130772
C31	C	-1.571819	0.247373	-0.132518
N32	N	-1.501215	-0.187310	-0.360278
C33	C	-1.397510	-0.290298	0.580772
C34	C	-1.397739	-0.290684	0.419604
C35	C	-1.633864	-0.217464	0.418862
C36	C	-1.633299	-0.218193	0.580080
C37	C	-1.473368	-0.053892	0.580319
C38	C	-1.470321	-0.054757	0.419092
H39	H	-1.134009	0.003797	0.094731
N40	N	-0.904800	0.027734	-0.124174
H41	H	-0.950628	0.116364	-0.123050
H42	H	-0.809752	0.033492	-0.120848
H43	H	-1.088911	-0.362208	-0.136942
N44	N	-1.122975	-0.196134	-0.262233
H45	H	-1.188459	-0.123870	-0.235969
H46	H	-1.053125	-0.161807	-0.318823
H47	H	-1.304122	0.399265	0.093714
H48	H	-0.916192	0.009944	0.095307
N49	N	-1.573495	0.047665	0.630825
H50	H	-1.619527	0.089894	0.548428
H51	H	-1.636525	0.007436	0.691908
N52	N	-1.146733	0.021643	-0.125565
H53	H	-1.075861	0.055666	-0.180812
H54	H	-1.192530	-0.038002	-0.185654
H55	H	-1.415178	-0.388722	0.621270
H56	H	-1.540848	0.025564	0.378801
H57	H	-1.415638	-0.389668	0.381024
H58	H	-1.674680	0.223152	-0.140490
N59	N	-1.666854	-0.344945	0.365384
H60	H	-1.748878	-0.333016	0.310591
H61	H	-1.595952	-0.383287	0.303362
N62	N	-1.702018	0.457366	0.140230
H63	H	-1.711780	0.511665	0.226809
H64	H	-1.720118	0.512789	0.055514
H65	H	-0.891814	-0.203603	-0.230849
N66	N	-1.509971	0.190850	0.262338
H67	H	-1.437716	0.125361	0.236066
H68	H	-1.475636	0.260686	0.318952
N69	N	-1.340946	-0.024537	0.368586
H70	H	-1.302454	-0.096408	0.307931
H71	H	-1.350319	0.057149	0.313055
H72	H	-0.872044	-0.355250	-0.138119
N73	N	-1.098550	-0.394213	0.143193
H74	H	-1.057626	-0.434921	0.229279
H75	H	-1.194062	-0.395734	0.149018
N76	N	-1.266469	-0.266662	0.632177
H77	H	-1.201355	-0.333796	0.593137
H78	H	-1.245714	-0.179590	0.600722
N79	N	-1.292205	0.167114	0.125672
H80	H	-1.258181	0.237986	0.180929
H81	H	-1.351855	0.121321	0.185749
N82	N	-0.856947	-0.391644	0.132088
H83	H	-0.799500	-0.405680	0.048340
H84	H	-0.804863	-0.406336	0.219771
H85	H	-0.887936	-0.211004	0.231010
N86	N	-1.120711	-0.192270	0.262064
H87	H	-1.185005	-0.119251	0.234948
H88	H	-1.163724	-0.255184	0.320641
H89	H	-1.299122	-0.272553	0.380085
H90	H	-1.310058	0.179839	-0.094630
H91	H	-1.303917	0.397661	-0.095187
H92	H	-1.517430	0.422030	0.230979
H93	H	-1.676042	0.224933	0.137054
N94	N	-1.705508	0.456889	-0.131947
H95	H	-1.720312	0.509041	-0.219569
H96	H	-1.767019	0.389113	-0.128807
N97	N	-1.510063	0.436151	-0.263384
H98	H	-1.434909	0.484924	-0.239989
H99	H	-1.480196	0.358720	-0.320700
N100	N	-1.506116	0.193172	-0.261958
H101	H	-1.433085	0.128887	-0.234850
H102	H	-1.569010	0.150156	-0.320569
H103	H	-1.657654	-0.315531	0.617668
H104	H	-1.378631	-0.025213	0.621052
N105	N	-1.738625	-0.122657	0.631746
H106	H	-1.785224	-0.080264	0.549789
H107	H	-1.800202	-0.167791	0.689966
N108	N	-1.738589	-0.120819	0.368083
H109	H	-1.700915	-0.056420	0.306548
H110	H	-1.802892	-0.165629	0.313399
