data_functionalizedCrystal
_audit_creation_method	'MofGen! by Chris Wilmer'
_symmetry_space_group_name_H-M	'P1'
_symmetry_Int_Tables_number	1
_symmetry_cell_setting	triclinic
loop_
_symmetry_equiv_pos_as_xyz
  x,y,z
_cell_length_a	14.971487
_cell_length_b	8.140239
_cell_length_c	14.971486
_cell_angle_alpha	90.003728
_cell_angle_beta	96.385734
_cell_angle_gamma	90.003450
loop_
_atom_site_label
_atom_site_type_symbol
_atom_site_fract_x
_atom_site_fract_y
_atom_site_fract_z
O1	O	-1.186942	0.136379	0.116564
O2	O	-0.686942	0.636379	0.616564
O3	O	-0.926542	0.136434	0.130522
O4	O	-0.426542	0.636434	0.630522
O5	O	-1.063722	0.136393	-0.006657
O6	O	-0.563722	0.636393	0.493343
O7	O	-1.049763	0.136420	0.253743
O8	O	-0.549763	0.636420	0.753743
O9	O	-1.063714	-0.136834	-0.006658
O10	O	-0.563714	0.363166	0.493342
O11	O	-0.926535	-0.136793	0.130521
O12	O	-0.426535	0.363207	0.630521
O13	O	-1.186935	-0.136848	0.116563
O14	O	-0.686935	0.363152	0.616563
Zn15	Zn	-1.056733	-0.180201	0.123541
Zn16	Zn	-0.556733	0.319799	0.623541
Zn17	Zn	-1.056743	0.179787	0.123544
Zn18	Zn	-0.556743	0.679787	0.623544
O19	O	-1.049755	-0.136807	0.253742
O20	O	-0.549755	0.363193	0.753742
C21	C	-0.893214	-0.000173	0.129897
C22	C	-0.393214	0.499827	0.629897
C23	C	-0.793917	-0.000152	0.128026
C24	C	-0.293917	0.499848	0.628026
N25	N	-1.056733	-0.425884	0.123540
N26	N	-0.556733	0.074116	0.623540
C27	C	-0.736691	-0.000144	0.208615
C28	C	-0.236691	0.499856	0.708615
C29	C	-0.643392	-0.000165	0.206852
C30	C	-0.143392	0.499835	0.706852
C31	C	-0.607320	-0.000182	0.124499
C32	C	-0.107320	0.499818	0.624499
C33	C	-0.664552	-0.000195	0.043903
C34	C	-0.164552	0.499805	0.543903
C35	C	-0.757850	-0.000186	0.045668
C36	C	-0.257850	0.499814	0.545668
C37	C	-0.470090	-0.000210	0.040232
C38	C	0.029910	0.499790	0.540232
C39	C	-0.376786	-0.000217	0.038467
C40	C	0.123214	0.499783	0.538467
C41	C	-0.355632	-0.000190	0.201416
C42	C	0.144368	0.499810	0.701416
C43	C	-0.448929	-0.000180	0.203181
C44	C	0.051071	0.499820	0.703181
C45	C	-0.506156	-0.000190	0.122585
C46	C	-0.006156	0.499810	0.622585
C47	C	-0.220263	-0.000228	0.117187
C48	C	0.279737	0.499772	0.617187
C49	C	-0.319560	-0.000209	0.119056
C50	C	0.180440	0.499791	0.619056
C51	C	-1.063094	-0.000220	-0.039982
C52	C	-0.563094	0.499780	0.460018
C53	C	-1.061223	-0.000218	-0.139279
C54	C	-0.561223	0.499782	0.360721
N55	N	-1.056751	0.425470	0.123538
N56	N	-0.556751	0.925470	0.623538
C57	C	-1.141812	-0.000236	-0.196504
C58	C	-0.641812	0.499764	0.303496
C59	C	-1.140049	-0.000219	-0.289804
C60	C	-0.640049	0.499781	0.210196
C61	C	-1.057696	-0.000196	-0.325876
C62	C	-0.557696	0.499804	0.174124
C63	C	-0.977100	-0.000173	-0.268644
C64	C	-0.477100	0.499827	0.231356
C65	C	-0.978864	-0.000178	-0.175346
C66	C	-0.478864	0.499822	0.324654
C67	C	-0.973429	-0.000166	-0.463107
C68	C	-0.473429	0.499834	0.036893
C69	C	-0.971665	-0.000164	-0.556411
C70	C	-0.471665	0.499836	-0.056411
C71	C	-1.134614	-0.000207	-0.577564
C72	C	-0.634614	0.499793	-0.077564
C73	C	-1.136378	-0.000212	-0.484266
C74	C	-0.636378	0.499788	0.015734
C75	C	-1.055782	-0.000192	-0.427040
C76	C	-0.555782	0.499808	0.072960
C77	C	-1.050383	-0.000191	0.287067
C78	C	-0.550383	0.499809	0.787067
C79	C	-1.052254	-0.000182	0.386364
C80	C	-0.552254	0.499818	0.886364
H81	H	-0.766053	-0.000129	0.275677
H82	H	-0.266053	0.499871	0.775677
H83	H	-0.913240	-0.000163	-0.128754
H84	H	-0.413240	0.499837	0.371246
Br85	Br	-0.864048	-0.000133	-0.385443
Br86	Br	-0.364048	0.499867	0.114557
H87	H	-0.596802	-0.000157	0.272476
H88	H	-0.096802	0.499843	0.772476
Br89	Br	-0.277969	-0.000174	0.310797
Br90	Br	0.222031	0.499826	0.810797
H91	H	-1.203437	-0.000243	-0.454900
H92	H	-0.703437	0.499757	0.045100
Br93	Br	-1.253583	-0.000291	-0.147559
Br94	Br	-0.753583	0.499709	0.352441
H95	H	-0.910047	-0.000143	-0.298021
H96	H	-0.410047	0.499857	0.201979
Br97	Br	-0.327830	-0.000295	-0.073299
Br98	Br	0.172170	0.499705	0.426701
H99	H	-0.516682	-0.000221	-0.025398
H100	H	-0.016682	0.499779	0.474602
H101	H	-0.635175	-0.000233	-0.023150
H102	H	-0.135175	0.499767	0.476850
Br103	Br	-0.497885	-0.000132	0.314947
Br104	Br	0.002115	0.499868	0.814947
H105	H	-1.200238	-0.000218	-0.624162
H106	H	-0.700238	0.499782	-0.124162
Br107	Br	-0.835515	-0.000211	-0.063708
Br108	Br	-0.335515	0.499789	0.436292
H109	H	-1.205673	-0.000237	-0.336394
H110	H	-0.705673	0.499763	0.163606
H111	H	-0.904606	-0.000171	-0.585777
H112	H	-0.404606	0.499829	-0.085777
