data_functionalizedCrystal
_audit_creation_method	'MofGen! by Chris Wilmer'
_symmetry_space_group_name_H-M	'P1'
_symmetry_Int_Tables_number	1
_symmetry_cell_setting	triclinic
loop_
_symmetry_equiv_pos_as_xyz
  x,y,z
_cell_length_a	18.215407
_cell_length_b	13.897448
_cell_length_c	18.215399
_cell_angle_alpha	89.973672
_cell_angle_beta	89.980167
_cell_angle_gamma	90.018140
loop_
_atom_site_label
_atom_site_type_symbol
_atom_site_fract_x
_atom_site_fract_y
_atom_site_fract_z
Zn1	Zn	1.125109	-0.384013	-0.416124
Zn2	Zn	1.125033	-0.545323	-0.293061
Zn3	Zn	1.002041	-0.384045	-0.293072
Zn4	Zn	1.002023	-0.545269	-0.416086
O5	O	1.063551	-0.464663	-0.354586
O6	O	1.228083	-0.405421	-0.399811
O7	O	1.108693	-0.523965	-0.190078
O8	O	1.018406	-0.249059	-0.309415
O9	O	1.228027	-0.523934	-0.309398
O10	O	1.108823	-0.249036	-0.399821
O11	O	1.018332	-0.405474	-0.190086
O12	O	0.899055	-0.405422	-0.309378
O13	O	1.018374	-0.523843	-0.519076
O14	O	0.899041	-0.523873	-0.399757
O15	O	1.108805	-0.405369	-0.519103
O16	O	1.108675	-0.680297	-0.309361
O17	O	1.018300	-0.680258	-0.399747
C18	C	0.872345	-0.464646	-0.354565
C19	C	0.790546	-0.464662	-0.354573
C20	C	1.063498	-0.715277	-0.354565
C21	C	1.063542	-0.822491	-0.354580
C22	C	0.602364	-0.526437	-0.401574
C23	C	0.525506	-0.526440	-0.401583
C24	C	0.525490	-0.402906	-0.307614
C25	C	0.602348	-0.402899	-0.307609
C26	C	0.640783	-0.464670	-0.354588
C27	C	0.487067	-0.464680	-0.354602
C28	C	0.403733	-0.464683	-0.354612
C29	C	0.724122	-0.464666	-0.354579
C30	C	1.063619	-1.018786	-0.354626
C31	C	1.063574	-0.909553	-0.354603
C32	C	1.255504	-0.464680	-0.354607
C33	C	1.337303	-0.464687	-0.354617
C34	C	1.063596	-0.464596	-0.546539
C35	C	1.063615	-0.464568	-0.628338
C36	C	1.063625	-0.213070	-0.354623
C37	C	1.063657	-0.105856	-0.354639
C38	C	1.110720	-0.402821	-0.816547
C39	C	1.110728	-0.402792	-0.893406
C40	C	1.016563	-0.526166	-0.893366
C41	C	1.016551	-0.526188	-0.816509
C42	C	1.063634	-0.464517	-0.778101
C43	C	1.063654	-0.464466	-0.931818
C44	C	1.063663	-0.464436	-1.015151
C45	C	1.063624	-0.464546	-0.694762
C46	C	1.063549	-0.464659	-0.163380
C47	C	1.063672	-0.464416	-0.081581
H48	H	0.633656	-0.576732	-0.439829
O49	O	1.156363	-0.342755	-0.930783
C50	C	1.166310	-0.212525	-1.017605
C51	C	1.114546	-0.280449	-0.975311
H52	H	1.132523	-0.162147	-1.053627
H53	H	1.199941	-0.168384	-0.976980
H54	H	1.204800	-0.256816	-1.053559
H55	H	1.076011	-0.236233	-0.939356
H56	H	1.080967	-0.324594	-1.015975
O57	O	0.639558	-0.342865	-0.261893
C58	C	0.631439	-0.220296	-0.168720
C59	C	0.589207	-0.288249	-0.220437
H60	H	0.590748	-0.176107	-0.135200
H61	H	0.667379	-0.264469	-0.130131
H62	H	0.667464	-0.169954	-0.202586
H63	H	0.553142	-0.338604	-0.186630
H64	H	0.553313	-0.244016	-0.259027
H65	H	0.494187	-0.352616	-0.269364
O66	O	0.488300	-0.586533	-0.447248
C67	C	0.496431	-0.709022	-0.540481
C68	C	0.538657	-0.641030	-0.488788
H69	H	0.537127	-0.753087	-0.574091
H70	H	0.460443	-0.759470	-0.506667
H71	H	0.460455	-0.664788	-0.578993
H72	H	0.574673	-0.685187	-0.450266
H73	H	0.574599	-0.590580	-0.522649
O74	O	0.970871	-0.586210	-0.930596
C75	C	0.935141	-0.750283	-0.954110
C76	C	0.986920	-0.682388	-0.911890
H77	H	0.948108	-0.828059	-0.939014
H78	H	0.875788	-0.733427	-0.938978
H79	H	0.943227	-0.739622	-1.015643
H80	H	0.978899	-0.693012	-0.850348
H81	H	1.046253	-0.699261	-0.927083
H82	H	0.978203	-0.576428	-0.785205
O83	O	1.156472	-0.342819	-0.779352
C84	C	1.249898	-0.220482	-0.787507
C85	C	1.198110	-0.288373	-0.829720
H86	H	1.283587	-0.176459	-0.828211
H87	H	1.216153	-0.169990	-0.751548
H88	H	1.288332	-0.264792	-0.751504
H89	H	1.159666	-0.244140	-0.865763
H90	H	1.231901	-0.338867	-0.865633
