data_functionalizedCrystal
_audit_creation_method	'MofGen! by Chris Wilmer'
_symmetry_space_group_name_H-M	'P1'
_symmetry_Int_Tables_number	1
_symmetry_cell_setting	triclinic
loop_
_symmetry_equiv_pos_as_xyz
  x,y,z
_cell_length_a	9.065215
_cell_length_b	14.853559
_cell_length_c	8.140239
_cell_angle_alpha	89.998672
_cell_angle_beta	89.997810
_cell_angle_gamma	84.323076
loop_
_atom_site_label
_atom_site_type_symbol
_atom_site_fract_x
_atom_site_fract_y
_atom_site_fract_z
O1	O	1.957774	0.132179	-0.136585
O2	O	1.528273	0.143025	-0.136592
O3	O	1.754503	0.006456	-0.136587
O4	O	1.731544	0.268747	-0.136591
O5	O	1.754490	0.006455	0.136640
O6	O	1.528261	0.143023	0.136635
O7	O	1.957761	0.132177	0.136642
Zn8	Zn	1.743009	0.137600	0.180019
Zn9	Zn	1.743025	0.137602	-0.179969
O10	O	1.731532	0.268746	0.136636
C11	C	1.473301	0.141982	0.000021
C12	C	1.309520	0.138867	0.000018
C13	C	1.753458	-0.027141	0.000024
C14	C	1.750348	-0.127248	0.000014
C15	C	1.737159	-0.550520	-0.148922
C16	C	1.737145	-0.550516	0.148961
C17	C	1.740080	-0.456461	0.148962
C18	C	1.741552	-0.409431	0.000019
C19	C	1.740089	-0.456456	-0.148925
C20	C	1.741528	-0.409428	0.297904
C21	C	1.744461	-0.315368	0.297911
C22	C	1.745944	-0.268336	0.148966
C23	C	1.744483	-0.315367	0.000016
C24	C	1.745955	-0.268337	-0.148927
C25	C	1.744504	-0.315366	-0.297879
C26	C	1.741572	-0.409425	-0.297870
C27	C	1.748876	-0.174278	0.148957
C28	C	1.748885	-0.174273	-0.148930
C29	C	2.012734	0.133220	0.000025
C30	C	2.176515	0.136335	0.000017
C31	C	1.732576	0.302343	0.000022
C32	C	1.735687	0.402450	0.000021
N33	N	1.743009	0.137598	0.425702
N34	N	1.743038	0.137597	-0.425652
H35	H	1.745692	-0.277061	-0.419148
C36	C	1.737420	-0.541067	0.443404
C37	C	1.735519	-0.602208	0.312674
H38	H	1.736408	-0.572983	0.544477
H39	H	1.824527	-0.510562	0.437212
H40	H	1.652597	-0.498199	0.437196
H41	H	1.820349	-0.645072	0.318875
H42	H	1.648403	-0.632728	0.318869
C43	C	1.732677	-0.694700	-0.281204
C44	C	1.735558	-0.602209	-0.312646
H45	H	1.731678	-0.726608	-0.382283
H46	H	1.818155	-0.716284	-0.220019
H47	H	1.646225	-0.703933	-0.220006
H48	H	1.822015	-0.592975	-0.373833
H49	H	1.650071	-0.580618	-0.373856
H50	H	1.740390	-0.447724	-0.419139
C51	C	1.753350	-0.030092	0.281215
C52	C	1.750464	-0.122582	0.312667
H53	H	1.754323	0.001821	0.382291
H54	H	1.839798	-0.020860	0.220040
H55	H	1.667868	-0.008509	0.220005
H56	H	1.835952	-0.144166	0.373867
H57	H	1.664007	-0.131819	0.373868
H58	H	1.740321	-0.447727	0.419165
H59	H	1.750091	-0.135988	-0.270219
H60	H	1.745648	-0.277084	0.419197
