data_functionalizedCrystal
_audit_creation_method	'MofGen! by Chris Wilmer'
_symmetry_space_group_name_H-M	'P1'
_symmetry_Int_Tables_number	1
_symmetry_cell_setting	triclinic
loop_
_symmetry_equiv_pos_as_xyz
  x,y,z
_cell_length_a	10.654544
_cell_length_b	10.654545
_cell_length_c	11.892095
_cell_angle_alpha	93.929293
_cell_angle_beta	86.062164
_cell_angle_gamma	84.485139
loop_
_atom_site_label
_atom_site_type_symbol
_atom_site_fract_x
_atom_site_fract_y
_atom_site_fract_z
O1	O	1.675805	0.168437	-0.094026
O2	O	1.310326	0.185244	-0.094021
O3	O	1.501468	-0.005899	-0.094023
O4	O	1.484663	0.359579	-0.094024
O5	O	1.485531	0.010013	0.093985
O6	O	1.294389	0.201156	0.093986
O7	O	1.659868	0.184349	0.093982
Zn8	Zn	1.474598	0.195279	0.123834
Zn9	Zn	1.495596	0.174314	-0.123874
O10	O	1.468726	0.375492	0.093983
C11	C	1.255559	0.191966	-0.000017
C12	C	1.116116	0.188274	-0.000015
C13	C	1.492265	-0.044741	-0.000021
C14	C	1.488573	-0.184185	-0.000028
C15	C	1.098716	0.205637	0.204956
C16	C	1.024506	0.212587	0.307439
C17	C	0.893488	0.209116	0.307434
C18	C	0.836678	0.198689	0.204935
C19	C	0.910887	0.191739	0.102453
C20	C	1.041907	0.195215	0.102469
C21	C	0.928289	0.174368	-0.102516
C22	C	1.059306	0.177848	-0.102514
C23	C	0.871478	0.163941	-0.205014
C24	C	0.945687	0.157000	-0.307499
C25	C	1.076713	0.160473	-0.307490
C26	C	1.133515	0.170898	-0.204996
C27	C	1.505964	-0.201541	-0.204999
C28	C	1.512929	-0.275730	-0.307485
C29	C	1.509460	-0.406749	-0.307486
C30	C	1.499021	-0.463581	-0.204991
C31	C	1.492056	-0.389393	-0.102506
C32	C	1.495530	-0.258372	-0.102515
C33	C	1.474657	-0.372035	0.102464
C34	C	1.478134	-0.241017	0.102467
C35	C	1.464218	-0.428867	0.204959
C36	C	1.457261	-0.354680	0.307447
C37	C	1.460732	-0.223654	0.307444
C38	C	1.471169	-0.166829	0.204953
C39	C	1.714635	0.177627	-0.000025
C40	C	1.854079	0.181318	-0.000034
C41	C	1.477929	0.414333	-0.000021
C42	C	1.481622	0.553777	-0.000022
N43	N	1.460277	0.209586	0.292889
N44	N	1.509927	0.159996	-0.292928
C45	C	1.609582	0.060366	0.529535
C46	C	1.599580	0.070376	0.647877
C47	C	1.430267	0.239610	0.647917
C48	C	1.440269	0.229600	0.529575
C49	C	1.529930	0.139976	0.470388
C50	C	1.539937	0.129973	0.352044
C51	C	1.370618	0.299200	0.352086
C52	C	1.360617	0.309210	0.470428
H53	H	1.205395	0.208482	0.204971
H54	H	1.070776	0.221072	0.390890
Br55	Br	0.792772	0.218527	0.446516
H56	H	1.515120	-0.467152	-0.390938
Br57	Br	0.693666	0.159238	-0.205023
H58	H	1.474002	-0.060148	0.204940
H59	H	1.455041	-0.163254	0.390900
Br60	Br	0.658867	0.193967	0.204930
H61	H	1.682596	-0.012600	0.481345
H62	H	1.612946	0.057001	0.303855
Br63	Br	1.459492	-0.606678	0.204959
Br64	Br	1.707677	-0.037676	0.728146
Br65	Br	1.177417	0.151025	-0.446581
H66	H	1.508803	-0.094862	-0.205009
Br67	Br	1.308573	0.361218	0.728252
H68	H	1.287613	0.382176	0.518631
Br69	Br	1.443075	-0.431813	0.446532
Br70	Br	0.868587	0.142810	-0.446588
Br71	Br	1.262527	0.407258	0.271804
H72	H	1.240195	0.173734	-0.204978
H73	H	1.496182	-0.570262	-0.205001
Br74	Br	1.527129	-0.198600	-0.446579
