data_functionalizedCrystal
_audit_creation_method	'MofGen! by Chris Wilmer'
_symmetry_space_group_name_H-M	'P1'
_symmetry_Int_Tables_number	1
_symmetry_cell_setting	triclinic
loop_
_symmetry_equiv_pos_as_xyz
  x,y,z
_cell_length_a	27.731994
_cell_length_b	12.837942
_cell_length_c	11.295498
_cell_angle_alpha	85.469065
_cell_angle_beta	85.935340
_cell_angle_gamma	91.275263
loop_
_atom_site_label
_atom_site_type_symbol
_atom_site_fract_x
_atom_site_fract_y
_atom_site_fract_z
O1	O	0.649965	-0.115965	-0.098853
O2	O	0.510101	-0.134762	-0.098892
O3	O	0.576931	0.025488	-0.098866
O4	O	0.583134	-0.276215	-0.098879
O5	O	0.571060	0.011433	0.099183
O6	O	0.504229	-0.148817	0.099156
O7	O	0.644094	-0.130021	0.099196
Cu8	Cu	0.573625	-0.140702	0.117259
Cu9	Cu	0.580569	-0.124080	-0.116956
O10	O	0.577263	-0.290270	0.099170
C11	C	0.489138	-0.141403	0.000127
C12	C	0.435425	-0.140240	0.000112
C13	C	0.099142	-0.140585	0.108115
C14	C	-0.102736	-0.136168	0.108128
O15	O	-0.131561	-0.142068	0.199941
N16	N	-0.124777	-0.127958	0.000172
C17	C	-0.096346	-0.120845	-0.107795
O18	O	-0.119725	-0.113750	-0.199618
C19	C	0.105531	-0.125254	-0.107807
C20	C	0.127569	-0.133476	0.000156
C21	C	0.121181	-0.148804	0.216069
C22	C	0.171647	-0.149914	0.216065
C23	C	0.200074	-0.142805	0.108106
C24	C	0.178036	-0.134585	0.000151
C25	C	0.133961	-0.118134	-0.215773
C26	C	0.184434	-0.119234	-0.215767
C27	C	0.206472	-0.127455	-0.107804
C28	C	0.256929	-0.128585	-0.107812
N29	N	0.278971	-0.136795	0.000144
C30	C	0.250543	-0.143905	0.108103
C31	C	-0.202334	-0.118533	-0.107781
C32	C	-0.252803	-0.117432	-0.107778
C33	C	-0.259189	-0.132754	0.108146
C34	C	-0.208720	-0.133861	0.108142
C35	C	-0.180293	-0.126743	0.000175
C36	C	0.356526	-0.146236	0.108085
C37	C	0.406997	-0.147349	0.108071
C38	C	0.413379	-0.132022	-0.107852
C39	C	0.362913	-0.130914	-0.107839
C40	C	0.334487	-0.138018	0.000140
O41	O	0.285784	-0.122678	-0.199576
O42	O	0.273932	-0.150976	0.199912
C43	C	0.048676	-0.139475	0.108119
C44	C	0.026637	-0.131256	0.000165
C45	C	0.055064	-0.124146	-0.107794
C46	C	-0.023832	-0.130156	0.000168
C47	C	-0.052260	-0.137265	0.108127
C48	C	-0.030218	-0.145475	0.216083
C49	C	0.020248	-0.146585	0.216078
C50	C	0.033023	-0.115936	-0.215750
C51	C	-0.017444	-0.114828	-0.215737
C52	C	-0.045871	-0.121938	-0.107778
C53	C	0.571900	0.057046	0.000157
C54	C	0.565651	0.172021	0.000153
C55	C	0.665056	-0.123379	0.000174
C56	C	0.718770	-0.124542	0.000181
C57	C	0.582294	-0.321829	0.000144
C58	C	0.588544	-0.436803	0.000140
N59	N	0.568745	-0.152392	0.281994
C60	C	0.640780	0.414215	0.000150
C61	C	0.634911	0.522244	0.000146
C62	C	0.548043	0.496113	0.000134
C63	C	0.553912	0.388083	0.000138
C64	C	0.600283	0.347138	0.000147
C65	C	0.606151	0.239106	0.000159
C66	C	0.519284	0.212977	0.000139
C67	C	0.513415	0.321007	0.000135
C68	C	0.620575	-0.028187	0.531304
C69	C	0.616891	-0.037029	0.655966
C70	C	0.557689	-0.178912	0.655983
C71	C	0.561374	-0.170070	0.531321
C72	C	0.592818	-0.094706	0.468985
C73	C	0.596505	-0.085870	0.344321
C74	C	0.537301	-0.227747	0.344340
C75	C	0.533617	-0.236589	0.469002
N76	N	0.585449	-0.112390	0.718310
H77	H	0.424938	-0.154048	0.195992
N78	N	-0.186212	-0.142231	0.218426
N79	N	-0.157674	-0.071509	0.242531
H80	H	-0.141781	-0.077417	0.320425
H81	H	0.207577	-0.113438	-0.303688
H82	H	-0.270742	-0.110754	-0.195692
H83	H	-0.179193	-0.112735	-0.195705
H84	H	0.508014	-0.297946	0.519770
N85	N	-0.288231	-0.140036	0.218427
N86	N	-0.318200	-0.214175	0.242513
H87	H	-0.338712	-0.219315	0.320396
H88	H	0.639493	0.017139	0.706702
N89	N	0.525572	-0.255891	0.719660
N90	N	0.531048	-0.350642	0.705750
H91	H	0.508363	-0.405008	0.750719
H92	H	0.514701	-0.281915	0.293586
H93	H	-0.053373	-0.151269	0.303987
H94	H	0.189586	-0.156602	0.303979
N95	N	0.327503	-0.153489	0.218391
N96	N	0.347195	-0.160827	0.314763
H97	H	0.326697	-0.165955	0.392667
N98	N	0.092155	-0.156061	0.326367
N99	N	0.111848	-0.163396	0.422737
H100	H	0.091352	-0.168527	0.500643
N101	N	-0.039944	-0.106442	-0.326038
N102	N	-0.014551	-0.100095	-0.422416
H103	H	-0.030440	-0.094165	-0.500316
N104	N	0.652648	0.048886	0.467641
N105	N	0.677398	0.108335	0.523298
H106	H	0.700031	0.162808	0.478339
H107	H	0.116027	-0.111438	-0.303689
N108	N	0.442425	-0.124736	-0.218122
N109	N	0.440027	-0.046431	-0.290394
H110	H	0.460543	-0.041276	-0.368272
H111	H	0.056164	-0.110144	-0.303665
H112	H	0.344968	-0.124237	-0.195751
H113	H	0.622110	-0.024508	0.293569
H114	H	0.038187	-0.153279	0.303993
H115	H	0.667889	0.576855	0.000144
H116	H	0.643908	0.205771	0.000172
H117	H	0.678536	0.380876	0.000169
N118	N	0.500685	0.537967	0.000101
N119	N	0.495454	0.634425	0.000082
H120	H	0.462007	0.663987	0.000055
N121	N	0.466055	0.362854	0.000115
N122	N	0.460820	0.459310	0.000105
H123	H	0.427371	0.488864	0.000092
N124	N	0.477918	0.144443	0.000147
N125	N	0.483163	0.047990	0.000159
H126	H	0.453949	-0.000415	0.000170
