data_functionalizedCrystal
_audit_creation_method	'MofGen! by Chris Wilmer'
_symmetry_space_group_name_H-M	'P1'
_symmetry_Int_Tables_number	1
_symmetry_cell_setting	triclinic
loop_
_symmetry_equiv_pos_as_xyz
  x,y,z
_cell_length_a	17.699077
_cell_length_b	17.019294
_cell_length_c	16.776229
_cell_angle_alpha	86.114377
_cell_angle_beta	89.993415
_cell_angle_gamma	83.337580
loop_
_atom_site_label
_atom_site_type_symbol
_atom_site_fract_x
_atom_site_fract_y
_atom_site_fract_z
O1	O	1.004150	0.099735	-0.073122
O2	O	0.783780	0.112718	-0.074017
O3	O	0.900112	-0.008619	-0.065683
O4	O	0.887818	0.221071	-0.081457
O5	O	0.900097	-0.008626	0.066894
O6	O	0.783764	0.112711	0.058560
O7	O	1.004135	0.099727	0.059455
Zn8	Zn	0.893947	0.106218	0.080057
Zn9	Zn	0.893967	0.106227	-0.094619
O10	O	0.887802	0.221064	0.051120
C11	C	0.755575	0.112250	-0.007697
C12	C	0.671556	0.110857	-0.007603
C13	C	0.632079	0.110196	0.064711
C14	C	0.553136	0.108874	0.064802
C15	C	0.513669	0.108219	-0.007421
C16	C	0.553151	0.108877	-0.079740
C17	C	0.632094	0.110193	-0.079831
C18	C	0.234784	0.103569	-0.079377
C19	C	0.155836	0.102255	-0.079281
C20	C	0.155826	0.102250	0.065256
C21	C	0.234769	0.103566	0.065165
C22	C	0.274245	0.104220	-0.007153
C23	C	0.359844	0.105651	-0.007251
C24	C	0.428070	0.106793	-0.007324
C25	C	0.899638	-0.038011	0.002622
C26	C	0.898239	-0.125579	0.008631
C27	C	0.897592	-0.166710	-0.060813
C28	C	0.896273	-0.248988	-0.055165
C29	C	0.895606	-0.290135	0.019928
C30	C	0.896251	-0.248998	0.089378
C31	C	0.897565	-0.166720	0.083729
C32	C	0.891634	-0.538561	0.040600
C33	C	0.890322	-0.620845	0.046244
C34	C	0.890343	-0.620830	-0.098300
C35	C	0.891661	-0.538551	-0.103942
C36	C	0.892302	-0.497420	-0.034493
C37	C	0.894260	-0.374238	0.025703
C38	C	0.893643	-0.413319	-0.040269
C39	C	1.032340	0.100195	-0.006867
C40	C	1.116359	0.101589	-0.006966
C41	C	0.888276	0.250456	-0.017187
C42	C	0.889675	0.338024	-0.023201
N43	N	0.893939	0.106211	0.199268
N44	N	0.893982	0.106228	-0.213831
C45	C	0.945466	0.052505	0.244674
C46	C	0.945471	0.052504	0.328127
C47	C	0.893950	0.106214	0.366171
C48	C	0.842417	0.159922	0.320759
C49	C	0.842410	0.159918	0.237309
C50	C	0.842444	0.159938	0.657305
C51	C	0.842457	0.159939	0.740762
C52	C	0.945505	0.052523	0.748123
C53	C	0.945498	0.052519	0.664673
C54	C	0.893963	0.106225	0.619268
C55	C	0.893958	0.106224	0.528780
C56	C	0.893958	0.106219	0.456658
H57	H	0.664206	0.110736	0.123523
H58	H	0.894180	-0.379813	-0.101409
C59	C	0.509652	0.108627	0.144311
H60	H	0.456967	0.107885	0.134013
H61	H	0.516911	0.154972	0.170510
H62	H	0.528227	0.062997	0.177448
C63	C	0.509740	0.108158	-0.159184
H64	H	0.457069	0.107288	-0.148776
H65	H	0.528503	0.062393	-0.185738
H66	H	0.516858	0.154365	-0.192049
C67	C	0.278179	0.104282	0.144611
H68	H	0.243362	0.103691	0.187693
H69	H	0.303153	0.150776	0.144425
H70	H	0.314796	0.058804	0.150733
C71	C	0.889647	-0.666072	-0.174689
H72	H	0.890242	-0.629783	-0.220220
H73	H	0.845025	-0.692076	-0.175921
H74	H	0.933261	-0.704262	-0.175061
H75	H	0.898139	-0.133214	-0.121962
C76	C	0.112394	0.101589	0.144802
H77	H	0.059724	0.100724	0.134515
H78	H	0.119525	0.147809	0.171275
H79	H	0.131129	0.055836	0.177682
H80	H	0.893720	-0.407749	0.086845
C81	C	0.112424	0.101530	-0.158730
H82	H	0.147241	0.102102	-0.201814
H83	H	0.075806	0.147002	-0.164859
H84	H	0.087453	0.055029	-0.158534
H85	H	0.987453	0.008787	0.633700
H86	H	0.898081	-0.133231	0.140278
C87	C	0.785765	0.219017	0.607370
H88	H	0.755090	0.251010	0.641982
H89	H	0.754286	0.190685	0.576772
H90	H	0.812954	0.251821	0.572554
C91	C	0.278197	0.104297	-0.158924
H92	H	0.243382	0.103727	-0.201923
H93	H	0.314817	0.058827	-0.158811
H94	H	0.303166	0.150800	-0.165122
H95	H	0.892205	-0.505055	-0.165091
C96	C	0.785769	0.219008	0.782610
H97	H	0.755067	0.250984	0.743618
H98	H	0.812947	0.251817	0.812906
H99	H	0.754306	0.190653	0.817117
H100	H	0.800464	0.203651	0.351740
C101	C	0.889580	-0.666104	0.128850
H102	H	0.890142	-0.629824	0.169403
H103	H	0.933182	-0.704302	0.134482
H104	H	0.844946	-0.692100	0.133628
C105	C	0.892352	-0.493330	0.116992
H106	H	0.891777	-0.529623	0.162521
H107	H	0.848751	-0.455131	0.117381
H108	H	0.936986	-0.467337	0.118209
H109	H	0.987423	0.008771	0.213704
C110	C	1.002188	-0.006562	0.798067
H111	H	1.032875	-0.038543	0.763456
H112	H	0.975006	-0.039365	0.832883
H113	H	1.033666	0.021779	0.828665
H114	H	0.800450	0.203650	0.200339
H115	H	0.664234	0.110733	-0.138716
H116	H	0.895749	-0.282474	-0.111714
H117	H	0.895703	-0.282506	0.150520
C118	C	1.002158	-0.006565	0.378070
H119	H	1.032848	-0.038544	0.343459
H120	H	0.974981	-0.039371	0.412889
H121	H	1.033632	0.021783	0.408664
