data_functionalizedCrystal
_audit_creation_method	'MofGen! by Chris Wilmer'
_symmetry_space_group_name_H-M	'P1'
_symmetry_Int_Tables_number	1
_symmetry_cell_setting	triclinic
loop_
_symmetry_equiv_pos_as_xyz
  x,y,z
_cell_length_a	10.654550
_cell_length_b	10.723024
_cell_length_c	9.730223
_cell_angle_alpha	89.996766
_cell_angle_beta	89.999957
_cell_angle_gamma	84.476400
loop_
_atom_site_label
_atom_site_type_symbol
_atom_site_fract_x
_atom_site_fract_y
_atom_site_fract_z
O1	O	1.667813	0.175275	-0.114183
O2	O	1.302332	0.191974	-0.114208
O3	O	1.493503	0.002049	-0.114190
O4	O	1.476642	0.365199	-0.114202
O5	O	1.493490	0.002044	0.114390
O6	O	1.302319	0.191968	0.114372
O7	O	1.667800	0.175269	0.114396
Zn8	Zn	1.485058	0.183618	0.150676
Zn9	Zn	1.485074	0.183625	-0.150488
O10	O	1.476629	0.365194	0.114378
C11	C	1.255528	0.190745	0.000078
C12	C	1.116085	0.187077	0.000069
C13	C	1.036583	0.298901	0.000069
C14	C	0.905562	0.295447	0.000093
C15	C	0.933560	0.068334	0.000111
C16	C	1.064577	0.071789	0.000097
C17	C	1.492269	-0.044453	0.000098
C18	C	1.488598	-0.183008	0.000093
C19	C	1.595567	-0.257975	0.000098
C20	C	1.591776	-0.401179	0.000093
C21	C	1.714604	0.176498	0.000107
C22	C	1.854047	0.180167	0.000107
C23	C	1.477863	0.411696	0.000087
C24	C	1.481534	0.550251	0.000083
N25	N	1.485056	0.183613	0.356212
N26	N	1.485086	0.183621	-0.356024
C27	C	1.569735	0.099550	0.428146
C28	C	1.569748	0.099550	0.572029
C29	C	1.400397	0.267687	0.572032
C30	C	1.400380	0.267680	0.428151
H31	H	1.078515	0.392775	0.000057
H32	H	0.840836	0.386506	0.000097
H33	H	1.683350	-0.465598	0.000104
O34	O	1.651852	0.017685	0.358356
C35	C	1.723593	-0.198655	0.314521
C36	C	1.630507	-0.106061	0.393592
H37	H	1.706387	-0.298723	0.343001
H38	H	1.709067	-0.184369	0.199303
H39	H	1.824312	-0.181410	0.342792
H40	H	1.529752	-0.123250	0.365436
H41	H	1.645144	-0.120369	0.508791
H42	H	1.389955	-0.385337	0.000088
H43	H	0.891606	-0.025530	0.000142
O44	O	1.376066	-0.233052	-0.000102
C45	C	1.239681	-0.364038	-0.118584
C46	C	1.367183	-0.307475	-0.118517
H47	H	1.232446	-0.424200	-0.214327
H48	H	1.232405	-0.424401	-0.022993
H49	H	1.159752	-0.285301	-0.118520
H50	H	1.447185	-0.386131	-0.118630
H51	H	1.374349	-0.247080	-0.214100
O52	O	1.708207	-0.208134	-0.000141
C53	C	1.904609	-0.191827	-0.118515
C54	C	1.777074	-0.248328	-0.118428
H55	H	1.960336	-0.224323	-0.214125
H56	H	1.887674	-0.085218	-0.118604
H57	H	1.960271	-0.224183	-0.022809
H58	H	1.721347	-0.216069	-0.214117
H59	H	1.794099	-0.354930	-0.118267
O60	O	1.317979	0.349224	0.641858
C61	C	1.100241	0.420370	0.685850
C62	C	1.193439	0.327938	0.606714
H63	H	0.999531	0.403211	0.657444
H64	H	1.114692	0.405936	0.801058
H65	H	1.117516	0.520465	0.657563
H66	H	1.176220	0.227807	0.634887
H67	H	1.178966	0.342482	0.491525
O68	O	1.318244	0.349520	0.358329
C69	C	1.246449	0.565826	0.314342
C70	C	1.339557	0.473292	0.393474
H71	H	1.263630	0.665915	0.342749
H72	H	1.260978	0.551486	0.199133
H73	H	1.145738	0.548569	0.342633
H74	H	1.440305	0.490492	0.365299
H75	H	1.324918	0.487653	0.508663
H76	H	1.129312	-0.019278	0.000100
H77	H	1.638700	0.031098	0.630594
