data_functionalizedCrystal
_audit_creation_method	'MofGen! by Chris Wilmer'
_symmetry_space_group_name_H-M	'P1'
_symmetry_Int_Tables_number	1
_symmetry_cell_setting	triclinic
loop_
_symmetry_equiv_pos_as_xyz
  x,y,z
_cell_length_a	15.072220
_cell_length_b	19.288864
_cell_length_c	19.288865
_cell_angle_alpha	83.136245
_cell_angle_beta	89.993617
_cell_angle_gamma	89.973672
loop_
_atom_site_label
_atom_site_type_symbol
_atom_site_fract_x
_atom_site_fract_y
_atom_site_fract_z
O1	O	0.074077	-0.921357	-0.086643
O2	O	0.074018	-0.719096	-0.098332
O3	O	0.074032	-0.826071	0.008643
O4	O	0.074063	-0.814382	-0.193618
O5	O	-0.073534	-0.826045	0.008637
O6	O	-0.073547	-0.719070	-0.098338
O7	O	-0.073488	-0.921331	-0.086649
Zn8	Zn	-0.096947	-0.820196	-0.092494
Zn9	Zn	0.097477	-0.820231	-0.092486
O10	O	-0.073502	-0.814356	-0.193624
C11	C	0.000227	-0.693207	-0.097959
C12	C	0.000204	-0.616103	-0.096830
N13	N	-0.229636	-0.820177	-0.092499
C14	C	0.000246	-0.825682	0.034516
C15	C	0.000238	-0.824553	0.111620
C16	C	-0.588837	-0.820229	-0.092484
C17	C	-0.551238	-0.762798	-0.149533
C18	C	-0.448412	-0.762929	-0.149740
C19	C	-0.410633	-0.820203	-0.092492
C20	C	-0.447900	-0.892628	-0.108094
C21	C	-0.550758	-0.892306	-0.108499
C22	C	-0.550954	-0.805882	-0.019661
C23	C	-0.448091	-0.804218	-0.020152
C24	C	-0.309920	-0.820193	-0.092494
C25	C	-0.689550	-0.820245	-0.092482
N26	N	0.230165	-0.820255	-0.092476
C27	C	0.000304	-0.947220	-0.087022
C28	C	0.000334	-1.024324	-0.088151
C29	C	0.000228	-0.571407	-0.159598
C30	C	0.000237	-0.498960	-0.158537
C31	C	0.000241	-0.471212	-0.094705
C32	C	0.000212	-0.515918	-0.031929
C33	C	0.000194	-0.588364	-0.032991
C34	C	0.051962	-0.362959	-0.044523
C35	C	0.051986	-0.290515	-0.043464
C36	C	0.000294	-0.247767	-0.091425
C37	C	-0.051410	-0.277470	-0.140458
C38	C	-0.051428	-0.349915	-0.141521
C39	C	0.000261	-0.392658	-0.093546
C40	C	0.000327	-0.124514	-0.153047
C41	C	0.000331	-0.052066	-0.151984
C42	C	0.000315	-0.069026	-0.025374
C43	C	0.000302	-0.141473	-0.026439
C44	C	0.000312	-0.169212	-0.090278
C45	C	0.000285	-0.814745	-0.219497
C46	C	0.000299	-0.815874	-0.296601
C47	C	0.000252	-0.887321	0.156316
C48	C	0.000266	-0.886260	0.228763
C49	C	0.000248	-0.822428	0.256511
C50	C	0.000239	-0.759652	0.211805
C51	C	0.000234	-0.760714	0.139359
C52	C	-0.051456	-0.772239	0.364796
C53	C	-0.051456	-0.771179	0.437241
C54	C	0.000267	-0.819148	0.479956
C55	C	0.051979	-0.868189	0.450220
C56	C	0.051974	-0.869251	0.377775
C57	C	0.000254	-0.821269	0.335065
C58	C	0.000297	-0.880770	0.603209
C59	C	0.000316	-0.879707	0.675657
C60	C	0.000280	-0.753097	0.658697
C61	C	0.000270	-0.754162	0.586250
C62	C	0.000274	-0.818001	0.558511
H63	H	-0.423219	-0.709087	-0.140478
Cl64	Cl	0.000212	-0.481037	0.048318
H65	H	0.000346	-0.015674	-0.203099
H66	H	-0.577064	-0.771809	-0.203274
H67	H	0.000304	-0.932751	0.580622
H68	H	-0.574726	-0.904983	-0.161601
Cl69	Cl	-0.410117	-0.960174	-0.045634
H70	H	0.000175	-0.624756	0.018124
H71	H	0.000259	-0.939303	0.133736
H72	H	0.000254	-0.462561	-0.209652
H73	H	0.000332	-0.930822	0.712049
H74	H	0.000323	-0.147101	-0.205028
Cl75	Cl	0.000278	-0.197666	0.052474
H76	H	0.000222	-0.709599	0.102967
Cl77	Cl	0.116993	-0.253180	0.018171
Cl78	Cl	0.000237	-0.606275	-0.239852
H79	H	0.094082	-0.909180	0.353567
H80	H	-0.576963	-0.754230	-0.004602
Cl81	Cl	0.000262	-0.672850	0.693572
Cl82	Cl	-0.410384	-0.777009	-0.233190
H83	H	-0.093580	-0.733175	0.330022
Cl84	Cl	-0.116428	-0.387256	-0.203156
Cl85	Cl	0.000309	-0.034151	0.054873
H86	H	0.000253	-0.703049	0.549857
H87	H	-0.423738	-0.750943	-0.008306
Cl88	Cl	-0.116469	-0.709532	0.474616
H89	H	-0.093502	-0.242665	-0.179513
Cl90	Cl	0.116951	-0.416693	0.015777
H91	H	-0.575626	-0.936364	-0.068573
Cl92	Cl	0.000284	-0.965174	0.284963
Cl93	Cl	0.000223	-0.679405	0.246686
H94	H	0.094097	-0.907249	0.484999
H95	H	-0.422117	-0.905614	-0.160589
Cl96	Cl	-0.408408	-0.864639	0.048438
Cl97	Cl	-0.589473	-0.679395	-0.135464
H98	H	-0.575267	-0.847767	0.022790
