data_functionalizedCrystal
_audit_creation_method	'MofGen! by Chris Wilmer'
_symmetry_space_group_name_H-M	'P1'
_symmetry_Int_Tables_number	1
_symmetry_cell_setting	triclinic
loop_
_symmetry_equiv_pos_as_xyz
  x,y,z
_cell_length_a	13.635800
_cell_length_b	10.912946
_cell_length_c	10.992410
_cell_angle_alpha	92.279421
_cell_angle_beta	108.764651
_cell_angle_gamma	107.496056
loop_
_atom_site_label
_atom_site_type_symbol
_atom_site_fract_x
_atom_site_fract_y
_atom_site_fract_z
V1	V	2.053801	0.177764	0.400589
O2	O	2.036348	-0.008542	0.392968
O3	O	2.039325	0.352475	0.397844
O4	O	2.042648	0.175029	0.575301
O5	O	2.033001	0.170132	0.214282
V6	V	2.292665	0.155479	0.378305
O7	O	2.190788	0.226646	0.449468
O8	O	2.380777	0.106597	0.329425
O9	O	2.195538	-0.019232	0.381050
O10	O	2.368817	0.341785	0.385926
O11	O	2.372163	0.163111	0.564612
O12	O	2.192214	0.158214	0.203593
V13	V	2.553801	0.177764	0.400589
O14	O	2.536348	-0.008542	0.392968
O15	O	2.539325	0.352475	0.397844
O16	O	2.542648	0.175029	0.575301
O17	O	2.533001	0.170132	0.214282
V18	V	2.792665	0.155479	0.378305
O19	O	2.690788	0.226646	0.449468
O20	O	2.880777	0.106597	0.329425
O21	O	2.695538	-0.019232	0.381050
O22	O	2.868817	0.341785	0.385926
O23	O	2.872163	0.163111	0.564612
O24	O	2.692214	0.158214	0.203593
C25	C	2.102765	-0.061817	0.387367
C26	C	2.063491	-0.204645	0.388454
C27	C	2.111029	-0.415582	0.382764
C28	C	2.151784	-0.267105	0.381124
C29	C	1.955699	-0.273874	0.269459
C30	C	1.915457	-0.422545	0.270456
C31	C	1.996305	-0.384235	0.516077
C32	C	2.039666	-0.235516	0.516411
C33	C	1.963769	0.395066	0.391524
C34	C	1.992663	0.537896	0.390445
C35	C	1.968007	0.168715	0.617886
C36	C	1.999595	0.167635	0.760714
C37	C	2.098526	0.164533	0.161001
C38	C	2.056557	0.165606	0.018172
C39	C	2.463769	0.395066	0.391524
C40	C	2.492663	0.537896	0.390445
C41	C	2.468007	0.168715	0.617886
C42	C	2.499595	0.167635	0.760714
C43	C	1.933340	0.157798	0.955838
C44	C	1.900534	0.159453	0.807354
C45	C	2.096235	0.294317	0.837815
C46	C	2.128413	0.293197	0.986382
C47	C	2.071881	0.047894	0.948356
C48	C	2.036537	0.047294	0.799343
C49	C	2.602765	-0.061817	0.387367
C50	C	2.563491	-0.204645	0.388454
C51	C	2.598526	0.164533	0.161001
C52	C	2.556557	0.165606	0.018172
C53	C	2.422844	0.733186	0.381673
C54	C	2.392582	0.584539	0.382286
C55	C	2.527245	0.576532	0.270631
C56	C	2.556586	0.725077	0.269374
C57	C	2.621618	0.763660	0.514993
C58	C	2.589867	0.615144	0.517581
C59	C	2.433340	0.157798	0.955838
C60	C	2.400534	0.159453	0.807354
C61	C	2.596235	0.294317	0.837815
C62	C	2.628413	0.293197	0.986382
C63	C	2.571881	0.047894	0.948356
C64	C	2.536537	0.047294	0.799343
H65	H	2.231923	-0.219941	0.466179
C66	C	2.063073	0.415022	0.803236
H67	H	1.990409	0.388478	0.741869
H68	H	2.112062	0.468581	0.766935
H69	H	2.066267	0.462459	0.879578
H70	H	2.565814	0.591247	0.606225
C71	C	2.504791	-0.082065	0.975848
H72	H	2.466803	-0.065746	1.030168
H73	H	2.552808	-0.127120	1.018116
H74	H	2.453345	-0.133492	0.896212
H75	H	2.607622	0.045806	0.766831
H76	H	2.466662	-0.046420	0.746988
H77	H	2.671225	0.304879	0.809011
H78	H	1.977037	-0.191448	0.529224
H79	H	2.111359	-0.469737	0.292131
H80	H	1.911204	-0.474379	0.175851
H81	H	2.661287	0.052498	0.989196
C82	C	1.880876	-0.423672	0.525290
H83	H	1.883599	-0.376290	0.601388
H84	H	1.856104	-0.514111	0.529221
H85	H	1.831713	-0.404926	0.450938
C86	C	2.069703	-0.418591	0.639328
H87	H	2.070778	-0.370561	0.714026
H88	H	2.142199	-0.397469	0.638097
H89	H	2.041401	-0.508949	0.641902
H90	H	2.376453	0.066082	0.974669
C91	C	2.192653	0.054095	1.003528
H92	H	2.201401	-0.017271	0.960957
H93	H	2.212897	0.050272	1.094089
H94	H	2.238168	0.133117	0.989556
H95	H	2.571684	0.383665	0.812207
H96	H	2.665322	0.584936	0.530960
C97	C	2.302647	0.036326	0.735280
H98	H	2.282451	0.037147	0.644227
H99	H	2.242253	0.034272	0.761375
H100	H	2.322885	-0.038437	0.755761
H101	H	2.171621	-0.440636	0.468391
C102	C	2.293481	0.513684	0.258974
H103	H	2.271588	0.575739	0.208302
H104	H	2.234355	0.463434	0.282936
H105	H	2.313369	0.458177	0.209589
H106	H	1.827920	-0.453572	0.270821
C107	C	2.179236	-0.241923	0.257079
H108	H	2.165485	-0.322503	0.207488
H109	H	2.254411	-0.191062	0.280267
H110	H	2.134723	-0.196687	0.206934
H111	H	1.887917	-0.233438	0.270302
H112	H	1.970524	-0.253701	0.174772
C113	C	2.144898	-0.172458	0.635447
H114	H	2.203116	-0.127505	0.607297
H115	H	2.163791	-0.237959	0.682805
H116	H	2.132705	-0.112950	0.689669
H117	H	2.171225	0.304879	0.809011
C118	C	2.674564	0.780317	0.269093
H119	H	2.693278	0.871391	0.268323
H120	H	2.679227	0.739804	0.194008
H121	H	2.723969	0.763845	0.344782
H122	H	2.710774	0.804777	0.521276
C123	C	1.802549	0.036413	0.735293
H124	H	1.782477	-0.015034	0.796712
H125	H	1.822574	-0.012287	0.679489
H126	H	1.742129	0.060657	0.685240
H127	H	2.370341	0.245205	0.782538
H128	H	1.876453	0.066082	0.974669
H129	H	2.364502	0.558775	0.467897
H130	H	1.919290	0.242375	1.003828
C131	C	1.859751	0.275297	0.773820
H132	H	1.863202	0.321537	0.850998
H133	H	1.786064	0.244313	0.714995
H134	H	1.904848	0.331532	0.734797
C135	C	2.115645	0.413593	1.048891
H136	H	2.090875	0.462723	0.983428
H137	H	2.184457	0.465668	1.110555
H138	H	2.063703	0.386659	1.091234
H139	H	2.409065	0.779607	0.466759
C140	C	2.344102	0.760947	0.258471
H141	H	2.270598	0.723045	0.255086
H142	H	2.352322	0.724742	0.183803
H143	H	2.360800	0.852195	0.260529
H144	H	2.419290	0.242375	1.003828
H145	H	2.219207	0.304213	1.029013
C146	C	2.004791	-0.082065	0.975848
H147	H	1.966803	-0.065746	1.030168
H148	H	2.052808	-0.127120	1.018116
H149	H	1.953345	-0.133492	0.896212
H150	H	2.600626	0.546295	0.272011
H151	H	1.966662	-0.046420	0.746988
C152	C	2.481300	0.748747	0.140871
H153	H	2.433104	0.667667	0.089929
H154	H	2.524751	0.795034	0.094404
H155	H	2.439578	0.798122	0.159007
H156	H	2.107622	0.045806	0.766831
H157	H	2.457964	0.522293	0.176509
H158	H	2.618965	0.382326	1.032650
H159	H	2.617523	0.813177	0.605658
H160	H	2.719207	0.304213	1.029013
