data_functionalizedCrystal
_audit_creation_method	'MofGen! by Chris Wilmer'
_symmetry_space_group_name_H-M	'P1'
_symmetry_Int_Tables_number	1
_symmetry_cell_setting	triclinic
loop_
_symmetry_equiv_pos_as_xyz
  x,y,z
_cell_length_a	16.992694
_cell_length_b	11.026607
_cell_length_c	15.455313
_cell_angle_alpha	93.255562
_cell_angle_beta	87.142206
_cell_angle_gamma	99.627120
loop_
_atom_site_label
_atom_site_type_symbol
_atom_site_fract_x
_atom_site_fract_y
_atom_site_fract_z
O1	O	1.079936	0.255850	-0.072014
O2	O	0.851247	0.252986	-0.072040
O3	O	0.946638	0.075927	-0.072026
O4	O	0.984545	0.432909	-0.072028
O5	O	0.941177	0.086007	0.072235
O6	O	0.845786	0.263067	0.072221
O7	O	1.074474	0.265931	0.072247
Cu8	Cu	0.959632	0.265419	0.085406
Cu9	Cu	0.966090	0.253498	-0.085199
O10	O	0.979084	0.442990	0.072233
C11	C	0.818785	0.254344	0.000087
C12	C	0.730190	0.243358	0.000077
C13	C	0.694911	0.349355	0.000078
C14	C	0.611666	0.339026	0.000090
C15	C	0.563702	0.222699	0.000095
C16	C	0.598986	0.116694	0.000098
C17	C	0.682229	0.127024	0.000092
C18	C	0.314060	0.179884	0.000119
C19	C	0.230811	0.169561	0.000122
C20	C	0.243497	0.391895	0.000115
C21	C	0.326741	0.402215	0.000104
C22	C	0.362018	0.296210	0.000111
N23	N	0.478612	0.212138	0.000105
N24	N	0.447106	0.306772	0.000108
C25	C	0.936914	0.035078	0.000103
C26	C	0.916067	-0.101658	0.000097
C27	C	0.973629	-0.169881	0.000103
C28	C	0.952084	-0.311205	0.000097
C29	C	1.106937	0.264572	0.000118
C30	C	1.195532	0.275558	0.000122
C31	C	0.988808	0.483838	0.000102
C32	C	1.009655	0.620574	0.000102
N33	N	0.955095	0.273804	0.205401
N34	N	0.970632	0.245104	-0.205194
C35	C	0.995642	0.198614	0.250801
C36	C	0.992220	0.204967	0.341609
C37	C	0.948255	0.286517	0.387014
C38	C	0.907702	0.361709	0.341608
C39	C	0.911120	0.355349	0.250802
C40	C	0.933497	0.313936	0.658594
C41	C	0.930084	0.320293	0.749406
C42	C	1.014601	0.163549	0.749400
C43	C	1.018019	0.157201	0.658593
C44	C	0.977463	0.232389	0.613194
N45	N	0.944758	0.293015	0.479834
N46	N	0.980956	0.225883	0.520376
H47	H	0.733959	0.444082	0.000072
F48	F	0.547936	-0.007112	0.000110
F49	F	0.860906	0.448496	0.389933
F50	F	0.377783	0.526026	0.000094
H51	H	1.038860	-0.123663	0.000115
H52	H	0.886850	-0.357418	0.000084
F53	F	0.719775	0.014207	0.000095
F54	F	1.094923	-0.319031	0.000108
H55	H	0.878101	0.416575	0.213838
H56	H	0.850837	-0.147876	0.000084
F57	F	1.042441	0.111823	0.202486
H58	H	1.025236	0.143741	0.378573
H59	H	0.582946	0.425341	0.000089
F60	F	1.064813	0.070408	0.610270
H61	H	1.047619	0.102333	0.786372
F62	F	0.883289	0.407098	0.797724
H63	H	0.900477	0.375160	0.621637
H64	H	0.214765	0.478198	0.000111
H65	H	0.342772	0.093566	0.000125
F66	F	0.179764	0.045745	0.000143
