data_functionalizedCrystal
_audit_creation_method	'MofGen! by Chris Wilmer'
_symmetry_space_group_name_H-M	'P1'
_symmetry_Int_Tables_number	1
_symmetry_cell_setting	triclinic
loop_
_symmetry_equiv_pos_as_xyz
  x,y,z
_cell_length_a	19.188930
_cell_length_b	10.654550
_cell_length_c	9.130313
_cell_angle_alpha	89.999890
_cell_angle_beta	89.985896
_cell_angle_gamma	83.814842
loop_
_atom_site_label
_atom_site_type_symbol
_atom_site_fract_x
_atom_site_fract_y
_atom_site_fract_z
O1	O	0.927166	0.156774	-0.122267
O2	O	0.723993	0.177880	-0.122166
O3	O	0.830251	-0.015511	-0.122214
O4	O	0.820908	0.350165	-0.122220
O5	O	0.830250	-0.015506	0.121385
O6	O	0.723992	0.177885	0.121433
O7	O	0.927165	0.156779	0.121332
Cu8	Cu	0.825578	0.167333	0.143625
Cu9	Cu	0.825580	0.167326	-0.144459
O10	O	0.820907	0.350170	0.121379
C11	C	0.829564	-0.062292	-0.000416
C12	C	0.827512	-0.201692	-0.000420
C13	C	0.697977	0.177199	-0.000354
C14	C	0.620459	0.175147	-0.000315
C15	C	0.890075	-0.282501	-0.000446
C16	C	0.888142	-0.413481	-0.000456
C17	C	0.761078	-0.382829	-0.000405
C18	C	0.763011	-0.251852	-0.000407
C19	C	0.963434	-0.300199	-0.000469
C20	C	0.961502	-0.431179	-0.000478
C21	C	0.576277	0.288622	-0.000340
C22	C	0.503441	0.286695	-0.000356
C23	C	0.474789	0.171286	-0.000377
C24	C	0.518981	0.057795	-0.000344
C25	C	0.591816	0.059726	-0.000313
N26	N	0.366233	0.083068	-0.083342
N27	N	0.297042	0.081241	-0.083374
C28	C	0.255343	0.165461	-0.000466
N29	N	0.285446	0.251596	0.082456
N30	N	0.354643	0.253426	0.082482
C31	C	0.395813	0.169179	-0.000409
C32	C	0.132183	0.276855	-0.000507
C33	C	0.059345	0.274922	-0.000514
C34	C	0.074887	0.046020	-0.000516
C35	C	0.147723	0.047955	-0.000494
C36	C	0.176366	0.163376	-0.000497
C37	C	0.953181	0.157460	-0.000484
C38	C	1.030699	0.159512	-0.000532
C39	C	0.821594	0.396951	-0.000422
C40	C	0.823646	0.536351	-0.000428
N41	N	0.825582	0.167336	0.346247
N42	N	0.825581	0.167313	-0.347082
C43	C	0.872645	0.081731	0.422878
C44	C	0.872643	0.081716	0.576215
C45	C	0.778513	0.252922	0.576276
C46	C	0.778512	0.252930	0.422942
C47	C	0.926993	-0.017109	0.422844
C48	C	0.926991	-0.017124	0.576181
H49	H	0.708564	-0.423686	-0.000396
H50	H	0.599593	0.382607	-0.000345
H51	H	0.712067	-0.186060	-0.000405
C52	C	0.509833	-0.137903	-0.125583
C53	C	0.487492	-0.069067	-0.000371
H54	H	0.490397	-0.216229	-0.125588
H55	H	0.494721	-0.091199	-0.210522
H56	H	0.559535	-0.152984	-0.125542
H57	H	0.437790	-0.053978	-0.000418
H58	H	0.502601	-0.115782	0.084589
H59	H	0.910029	-0.107988	0.623739
H60	H	0.992129	-0.271450	-0.102422
H61	H	0.740189	0.322609	0.638738
C62	C	1.023359	-0.392019	0.220600
C63	C	0.998805	-0.488351	0.137127
H64	H	1.046382	-0.427316	0.305551
H65	H	1.055371	-0.350199	0.163958
H66	H	0.984971	-0.333222	0.248921
H67	H	1.037194	-0.547144	0.108796
H68	H	0.966790	-0.530191	0.193780
H69	H	0.915073	-0.113389	0.381233
C70	C	0.495387	0.513149	-0.000404
C71	C	0.454864	0.411435	-0.000404
H72	H	0.465398	0.590156	-0.000447
H73	H	0.524094	0.509162	0.084557
H74	H	0.524143	0.509119	-0.085340
H75	H	0.426112	0.415460	0.084538
H76	H	0.426145	0.415425	-0.085374
C77	C	1.043343	0.027096	0.513034
C78	C	0.999416	0.010386	0.632340
H79	H	1.088052	0.044084	0.547708
H80	H	1.048299	-0.047452	0.455230
H81	H	1.023473	0.096005	0.455265
H82	H	1.019284	-0.058530	0.690103
H83	H	0.994462	0.084942	0.690168
H84	H	0.986794	-0.265064	0.104701
H85	H	0.983673	-0.477294	-0.105668
C86	C	0.682764	-0.070889	-0.125509
C87	C	0.640387	-0.065013	-0.000299
H88	H	0.712753	-0.147895	-0.125496
H89	H	0.654042	-0.066894	-0.210449
H90	H	0.710245	-0.001870	-0.125484
H91	H	0.612902	-0.134028	-0.000330
H92	H	0.669112	-0.069021	0.084663
H93	H	0.155505	0.370837	-0.000487
C94	C	0.051304	0.501373	-0.000545
C95	C	0.010777	0.399665	-0.000542
H96	H	0.021317	0.578384	-0.000572
H97	H	0.080017	0.497376	0.084407
H98	H	0.080054	0.497347	-0.085490
H99	H	-0.017970	0.403687	0.084409
H100	H	-0.017948	0.403665	-0.085503
C101	C	-0.029858	-0.058577	-0.000580
C102	C	0.043402	-0.080843	-0.000546
H103	H	-0.049296	-0.136901	-0.000606
H104	H	-0.045001	-0.011881	0.084361
H105	H	-0.044962	-0.011865	-0.085536
H106	H	0.058506	-0.127547	0.084416
H107	H	0.058550	-0.127558	-0.085496
H108	H	0.183697	-0.044449	-0.000482
C109	C	0.685464	0.422147	0.438411
C110	C	0.726775	0.347021	0.338708
H111	H	0.653526	0.480241	0.386405
H112	H	0.660107	0.369974	0.498224
H113	H	0.714747	0.467192	0.498207
H114	H	0.697492	0.301969	0.278919
H115	H	0.752134	0.399201	0.278871
H116	H	0.977683	0.012407	0.375260
