data_functionalizedCrystal
_audit_creation_method	'MofGen! by Chris Wilmer'
_symmetry_space_group_name_H-M	'P1'
_symmetry_Int_Tables_number	1
_symmetry_cell_setting	triclinic
loop_
_symmetry_equiv_pos_as_xyz
  x,y,z
_cell_length_a	8.597187
_cell_length_b	26.809956
_cell_length_c	8.559649
_cell_angle_alpha	90.006706
_cell_angle_beta	77.625088
_cell_angle_gamma	97.725690
loop_
_atom_site_label
_atom_site_type_symbol
_atom_site_fract_x
_atom_site_fract_y
_atom_site_fract_z
O1	O	2.053923	0.129746	0.238055
O2	O	1.594758	0.110014	0.256313
O3	O	1.864793	0.121618	0.015214
O4	O	1.783888	0.118142	0.479154
O5	O	1.864684	0.038654	0.015209
O6	O	1.594650	0.027050	0.256308
O7	O	2.053814	0.046782	0.238050
Zn8	Zn	1.824214	0.023743	0.247178
Zn9	Zn	1.824358	0.133052	0.247185
O10	O	1.783779	0.035178	0.479149
C11	C	1.536465	0.066029	0.254349
C12	C	1.362934	0.058572	0.248485
N13	N	1.824128	-0.050856	0.247173
C14	C	1.704685	-0.452872	0.353889
C15	C	1.704603	-0.243998	0.353888
O16	O	1.602853	-0.221370	0.444603
N17	N	1.824183	-0.212733	0.247169
C18	C	1.943786	-0.233688	0.140435
O19	O	2.045485	-0.202303	0.049652
C20	C	1.943860	-0.442562	0.140430
C21	C	1.824282	-0.473825	0.247167
C22	C	1.585115	-0.484135	0.460617
C23	C	1.585142	-0.536350	0.460622
C24	C	1.704738	-0.557303	0.353900
C25	C	1.824308	-0.526040	0.247172
C26	C	2.063455	-0.463517	0.033689
C27	C	2.063461	-0.515740	0.033694
C28	C	1.943882	-0.547003	0.140432
C29	C	1.943931	-0.599208	0.140455
N30	N	1.824351	-0.630473	0.247174
C31	C	1.704755	-0.609521	0.353897
C32	C	1.943741	-0.124027	0.140447
C33	C	1.943725	-0.071809	0.140450
C34	C	1.704539	-0.082122	0.353902
C35	C	1.704564	-0.134341	0.353906
C36	C	1.824161	-0.155293	0.247167
C37	C	1.704820	-0.719176	0.353900
C38	C	1.704862	-0.771395	0.353901
C39	C	1.944041	-0.761077	0.140444
C40	C	1.944006	-0.708863	0.140449
C41	C	1.824382	-0.687914	0.247183
O42	O	2.045618	-0.621871	0.049776
O43	O	1.603050	-0.640916	0.444642
C44	C	1.704658	-0.400657	0.353884
C45	C	1.824228	-0.369395	0.247157
C46	C	1.943825	-0.390347	0.140434
C47	C	1.824212	-0.317176	0.247160
C48	C	1.704615	-0.296224	0.353882
C49	C	1.585035	-0.327490	0.460602
C50	C	1.585062	-0.379705	0.460607
C51	C	2.063405	-0.359082	0.033715
C52	C	2.063370	-0.306867	0.033720
C53	C	1.943773	-0.285914	0.140442
C54	C	2.112107	0.090768	0.240014
C55	C	2.285638	0.098228	0.245879
N56	N	1.824458	0.207652	0.247178
C57	C	1.870870	0.080400	-0.044222
C58	C	1.889121	0.081187	-0.221317
C59	C	1.777702	0.076396	0.538585
C60	C	1.759452	0.075613	0.715680
H61	H	1.296349	0.018918	0.246247
C62	C	1.375583	0.151801	0.248915
H63	H	1.484333	0.149953	0.252573
H64	H	1.325816	0.168255	0.340773
H65	H	1.372111	0.170243	0.155246
C66	C	1.590614	0.068362	-0.174170
H67	H	1.600083	0.068775	-0.065601
H68	H	1.533754	0.036989	-0.194459
H69	H	1.533850	0.094856	-0.194474
H70	H	1.607410	-0.702126	0.440811
C71	C	1.573305	-0.805783	0.471298
H72	H	1.502064	-0.785823	0.534839
H73	H	1.621638	-0.824066	0.538612
H74	H	1.515026	-0.828668	0.412851
C75	C	1.453607	-0.570733	0.578039
H76	H	1.382382	-0.550769	0.641584
H77	H	1.501959	-0.589012	0.645345
H78	H	1.395307	-0.593622	0.519620
C79	C	1.453555	-0.461095	0.578031
H80	H	1.382365	-0.487199	0.641591
H81	H	1.395241	-0.443240	0.519631
H82	H	1.501903	-0.438640	0.645347
C83	C	2.057967	0.088443	-0.331474
H84	H	2.048501	0.088038	-0.440045
H85	H	2.114750	0.061956	-0.311173
H86	H	2.114807	0.119822	-0.311178
H87	H	1.607192	-0.159793	0.440820
C88	C	1.572987	-0.059068	0.471296
H89	H	1.590110	-0.023492	0.455995
H90	H	1.577156	-0.067439	0.578017
H91	H	1.470531	-0.072043	0.452268
C92	C	2.075269	-0.037425	0.023050
H93	H	2.146483	-0.057388	-0.040516
H94	H	2.133560	-0.014536	0.081465
H95	H	2.026910	-0.019145	-0.044262
C96	C	2.075320	-0.147067	0.023043
H97	H	2.146535	-0.120963	-0.040494
H98	H	2.027006	-0.169526	-0.044275
H99	H	2.133623	-0.164917	0.081482
C100	C	2.194983	-0.429140	-0.083737
H101	H	2.266188	-0.449105	-0.147303
H102	H	2.253286	-0.406248	-0.025340
H103	H	2.146614	-0.410863	-0.151048
C104	C	2.195019	-0.538786	-0.083717
H105	H	2.177910	-0.574363	-0.068446
H106	H	2.297471	-0.525804	-0.064714
H107	H	2.190815	-0.530413	-0.190436
C108	C	2.075544	-0.674472	0.023049
H109	H	2.146771	-0.694432	-0.040513
H110	H	2.133823	-0.651579	0.081464
H111	H	2.027176	-0.656197	-0.044266
C112	C	2.075581	-0.784133	0.023051
H113	H	2.058449	-0.819709	0.038337
H114	H	2.178042	-0.771157	0.042044
H115	H	2.071376	-0.775763	-0.083669
H116	H	1.487689	-0.405156	0.547522
H117	H	1.487659	-0.310421	0.547505
H118	H	2.160758	-0.281415	-0.053196
H119	H	2.160794	-0.376136	-0.053194
