data_functionalizedCrystal
_audit_creation_method	'MofGen! by Chris Wilmer'
_symmetry_space_group_name_H-M	'P1'
_symmetry_Int_Tables_number	1
_symmetry_cell_setting	triclinic
loop_
_symmetry_equiv_pos_as_xyz
  x,y,z
_cell_length_a	17.077404
_cell_length_b	18.101396
_cell_length_c	17.077396
_cell_angle_alpha	90.027670
_cell_angle_beta	89.983895
_cell_angle_gamma	89.965006
loop_
_atom_site_label
_atom_site_type_symbol
_atom_site_fract_x
_atom_site_fract_y
_atom_site_fract_z
Zn1	Zn	1.199960	0.294864	-0.443828
Zn2	Zn	1.199840	0.418714	-0.312566
Zn3	Zn	1.068697	0.294887	-0.312578
Zn4	Zn	1.068627	0.418663	-0.443792
O5	O	1.134281	0.356782	-0.378191
O6	O	1.309791	0.311304	-0.426425
O7	O	1.182422	0.402319	-0.202720
O8	O	1.086189	0.191251	-0.330009
O9	O	1.309703	0.402297	-0.329987
O10	O	1.182627	0.191234	-0.426438
O11	O	1.086072	0.311343	-0.202730
O12	O	0.958841	0.311294	-0.329974
O13	O	1.086070	0.402210	-0.553644
O14	O	0.958790	0.402233	-0.426376
O15	O	1.182560	0.311255	-0.553670
O16	O	1.182355	0.522340	-0.329953
O17	O	1.085954	0.522303	-0.426364
C18	C	0.930333	0.356761	-0.378173
C19	C	0.843083	0.356770	-0.378184
C20	C	0.802140	0.309474	-0.428476
C21	C	0.720159	0.309479	-0.428480
C22	C	0.679124	0.356784	-0.378195
C23	C	0.720073	0.404081	-0.327898
C24	C	0.802052	0.404072	-0.327891
C25	C	0.549203	0.404098	-0.327917
C26	C	0.467219	0.404108	-0.327925
C27	C	0.467310	0.309505	-0.428506
C28	C	0.549289	0.309496	-0.428499
C29	C	0.590233	0.356795	-0.378203
C30	C	1.134155	0.549193	-0.378170
C31	C	1.134173	0.631507	-0.378187
C32	C	1.134312	0.930598	-0.378233
C33	C	1.073803	0.899280	-0.439043
C34	C	1.073525	0.813662	-0.438852
C35	C	1.134243	0.782215	-0.378211
C36	C	1.111846	0.813367	-0.295482
C37	C	1.111447	0.899012	-0.295847
C38	C	1.217354	0.898944	-0.399424
C39	C	1.216875	0.813293	-0.401237
C40	C	1.134205	0.698356	-0.378194
C41	C	1.134348	1.014457	-0.378245
C42	C	1.339025	0.356804	-0.378209
C43	C	1.426275	0.356813	-0.378217
C44	C	1.134321	0.356725	-0.582935
C45	C	1.134337	0.356700	-0.670185
C46	C	1.134402	1.163620	-0.378232
C47	C	1.134383	1.081306	-0.378257
C48	C	1.084183	0.309324	-0.711180
C49	C	1.084196	0.309307	-0.793160
C50	C	1.134367	0.356663	-0.834145
C51	C	1.184524	0.404045	-0.793144
C52	C	1.184507	0.404065	-0.711165
C53	C	1.184558	0.403999	-0.964015
C54	C	1.184577	0.403978	-1.045999
C55	C	1.084247	0.309240	-1.046009
C56	C	1.084230	0.309260	-0.964030
C57	C	1.134388	0.356641	-0.923036
C58	C	1.134287	0.356786	-0.174243
C59	C	1.134422	0.356601	-0.086994
H60	H	0.433970	0.270991	-0.469458
O61	O	1.238687	0.455058	-1.090205
H62	H	1.203527	0.492712	-1.127549
O63	O	0.846216	0.455080	-0.273643
H64	H	0.883567	0.492793	-0.308698
O65	O	0.846393	0.258450	-0.482715
H66	H	0.910277	0.266392	-0.474268
H67	H	1.225409	0.442575	-0.930639
O68	O	0.992002	0.786593	-0.420255
H69	H	0.993572	0.752706	-0.366127
O70	O	1.238635	0.455123	-0.837352
H71	H	1.225116	0.513248	-0.821610
O72	O	1.238604	0.455166	-0.666950
H73	H	1.230158	0.447230	-0.603060
O74	O	0.422954	0.455121	-0.273684
H75	H	0.465195	0.488000	-0.238699
H76	H	1.051791	0.791980	-0.277209
H77	H	1.087538	0.792597	-0.500194
H78	H	0.582698	0.270981	-0.469450
O79	O	1.277014	0.925859	-0.340747
H80	H	1.304128	0.877763	-0.310914
O81	O	0.675996	0.258467	-0.482722
H82	H	0.718303	0.225578	-0.517693
O83	O	1.092259	0.926687	-0.520472
H84	H	1.104018	0.878874	-0.559464
H85	H	1.237769	0.920491	-0.458722
H86	H	0.582537	0.442612	-0.286958
H87	H	1.043352	0.270731	-0.826534
O88	O	0.675815	0.455098	-0.273656
H89	H	0.691529	0.513235	-0.287002
O90	O	0.992759	0.927855	-0.420685
H91	H	0.995387	0.964265	-0.368438
H92	H	1.050744	0.919053	-0.277897
H93	H	1.154536	0.792999	-0.248939
H94	H	1.153607	0.919732	-0.248995
O95	O	1.239265	0.786310	-0.481876
H96	H	1.191747	0.750909	-0.505464
O97	O	1.279760	0.784967	-0.346825
H98	H	1.252981	0.748133	-0.302322
H99	H	1.043332	0.270756	-0.677816
H100	H	1.043379	0.270695	-0.930663
H101	H	1.043408	0.270660	-1.079391
