data_functionalizedCrystal
_audit_creation_method	'MofGen! by Chris Wilmer'
_symmetry_space_group_name_H-M	'P1'
_symmetry_Int_Tables_number	1
_symmetry_cell_setting	triclinic
loop_
_symmetry_equiv_pos_as_xyz
  x,y,z
_cell_length_a	12.759400
_cell_length_b	19.805407
_cell_length_c	19.805399
_cell_angle_alpha	90.019573
_cell_angle_beta	89.976763
_cell_angle_gamma	89.985315
loop_
_atom_site_label
_atom_site_type_symbol
_atom_site_fract_x
_atom_site_fract_y
_atom_site_fract_z
Zn1	Zn	-0.418291	-1.034791	-0.382740
Zn2	Zn	0.081709	-0.534791	0.117260
Zn3	Zn	-0.593984	-1.034729	-0.269560
Zn4	Zn	-0.093984	-0.534729	0.230440
Zn5	Zn	-0.418320	-0.921605	-0.269565
Zn6	Zn	0.081680	-0.421605	0.230435
Zn7	Zn	-0.593928	-0.921592	-0.382707
Zn8	Zn	-0.093928	-0.421592	0.117293
O9	O	-0.506131	-0.978179	-0.326143
O10	O	-0.006131	-0.478179	0.173857
O11	O	-0.441608	-1.129499	-0.367739
O12	O	0.058392	-0.629499	0.132261
O13	O	-0.570717	-1.019702	-0.174844
O14	O	-0.070717	-0.519702	0.325156
O15	O	-0.271295	-0.936651	-0.284593
O16	O	0.228705	-0.436651	0.215407
O17	O	-0.570689	-1.129454	-0.284586
O18	O	-0.070689	-0.629454	0.215414
O19	O	-0.271273	-1.019808	-0.367743
O20	O	0.228727	-0.519808	0.132257
O21	O	-0.441657	-0.936591	-0.174848
O22	O	0.058343	-0.436591	0.325152
O23	O	-0.441603	-0.826887	-0.284561
O24	O	0.058397	-0.326887	0.215439
O25	O	-0.570594	-0.936629	-0.477428
O26	O	-0.070594	-0.436629	0.022572
O27	O	-0.570622	-0.826877	-0.367687
O28	O	-0.070622	-0.326877	0.132313
O29	O	-0.441554	-1.019795	-0.477452
O30	O	0.058446	-0.519795	0.022548
O31	O	-0.740998	-1.019689	-0.284554
O32	O	-0.240998	-0.519689	0.215446
O33	O	-0.740957	-0.936568	-0.367682
O34	O	-0.240957	-0.436568	0.132318
C35	C	-0.506110	-0.802323	-0.326121
C36	C	-0.006110	-0.302323	0.173879
C37	C	-0.506127	-0.727091	-0.326128
C38	C	-0.006127	-0.227091	0.173872
C39	C	-0.779098	-0.978139	-0.326129
C40	C	-0.279098	-0.478139	0.173871
C41	C	-0.895875	-0.978184	-0.326146
C42	C	-0.395875	-0.478184	0.173854
C43	C	-0.506064	-0.978217	-0.502686
C44	C	-0.006064	-0.478217	-0.002686
C45	C	-0.506036	-0.978233	-0.577918
C46	C	-0.006036	-0.478233	-0.077918
C47	C	-0.950723	-1.021513	-0.282908
C48	C	-0.450723	-0.521513	0.217092
C49	C	-1.060447	-1.021555	-0.282929
C50	C	-0.560447	-0.521555	0.217071
C51	C	-1.060464	-0.934932	-0.369426
C52	C	-0.560464	-0.434932	0.130574
C53	C	-0.950742	-0.934894	-0.369408
C54	C	-0.450742	-0.434894	0.130592
C55	C	-0.895855	-1.064802	-0.239646
C56	C	-0.395855	-0.564802	0.260354
C57	C	-0.950704	-1.108135	-0.196404
C58	C	-0.450704	-0.608135	0.303596
C59	C	-1.060428	-1.108176	-0.196425
C60	C	-0.560428	-0.608176	0.303575
C61	C	-1.115303	-1.064886	-0.239687
C62	C	-0.615303	-0.564886	0.260313
C63	C	-0.232097	-0.978238	-0.326172
C64	C	0.267903	-0.478238	0.173828
C65	C	-0.115321	-0.978263	-0.326184
C66	C	0.384679	-0.478263	0.173816
C67	C	-0.506152	-1.154722	-0.326165
C68	C	-0.006152	-0.654722	0.173835
C69	C	-0.506160	-1.229954	-0.326175
C70	C	-0.006160	-0.729954	0.173825
C71	C	-0.573408	-0.691760	-0.369341
C72	C	-0.073408	-0.191760	0.130659
C73	C	-0.573410	-0.621071	-0.369351
C74	C	-0.073410	-0.121071	0.130649
C75	C	-0.506135	-0.585716	-0.326143
C76	C	-0.006135	-0.085716	0.173857
C77	C	-0.438847	-0.621052	-0.282928
C78	C	0.061153	-0.121052	0.217072
C79	C	-0.438840	-0.691739	-0.282922
C80	C	0.061160	-0.191739	0.217078
C81	C	-0.438870	-0.335979	-0.282950
C82	C	0.061130	0.164021	0.217050
C83	C	-0.438884	-0.265287	-0.282958
C84	C	0.061116	0.234713	0.217042
C85	C	-0.573440	-0.265311	-0.369379
C86	C	-0.073440	0.234689	0.130621
C87	C	-0.573433	-0.335998	-0.369373
C88	C	-0.073433	0.164002	0.130627
C89	C	-0.506141	-0.371328	-0.326161
C90	C	-0.006141	0.128672	0.173839
C91	C	-0.506139	-0.447977	-0.326152
C92	C	-0.006139	0.052023	0.173848
C93	C	-0.506142	-0.509069	-0.326148
C94	C	-0.006142	-0.009069	0.173852
C95	C	-0.438842	-1.021539	-0.613276
C96	C	0.061158	-0.521539	-0.113276
C97	C	-0.438811	-1.021546	-0.683964
C98	C	0.061189	-0.521546	-0.183964
C99	C	-0.505981	-0.978250	-0.719294
C100	C	-0.005981	-0.478250	-0.219294
C101	C	-0.573179	-0.934940	-0.683931
C102	C	-0.073179	-0.434940	-0.183931
C103	C	-0.573203	-0.934930	-0.613244
C104	C	-0.073203	-0.434930	-0.113244
C105	C	-0.573081	-0.934978	-0.969004
C106	C	-0.073081	-0.434978	-0.469004
C107	C	-0.573054	-0.934992	-1.039696
C108	C	-0.073054	-0.434992	-0.539696
C109	C	-0.438689	-1.021594	-1.039725
C110	C	0.061311	-0.521594	-0.539725
C111	C	-0.438713	-1.021584	-0.969038
C112	C	0.061287	-0.521584	-0.469038
C113	C	-0.505906	-0.978272	-0.933681
C114	C	-0.005906	-0.478272	-0.433681
C115	C	-0.505937	-0.978264	-0.857033
C116	C	-0.005937	-0.478264	-0.357033
C117	C	-0.505957	-0.978261	-0.795941
C118	C	-0.005957	-0.478261	-0.295941
C119	C	-0.506121	-0.978180	-0.150287
C120	C	-0.006121	-0.478180	0.349713
C121	C	-0.505853	-0.978295	-0.075055
C122	C	-0.005853	-0.478295	0.424945
H123	H	-0.806512	-1.064772	-0.239622
H124	H	-0.306512	-0.564772	0.260378
H125	H	-1.105083	-1.143464	-0.161221
H126	H	-0.605083	-0.643464	0.338779
O127	O	-0.645951	-0.729893	-0.415955
O128	O	-0.145951	-0.229893	0.084045
H129	H	-0.699350	-0.762081	-0.385609
H130	H	-0.199350	-0.262081	0.114391
O131	O	-0.366191	-1.068292	-1.077868
O132	O	0.133809	-0.568292	-0.577868
H133	H	-0.413194	-1.102718	-1.110087
H134	H	0.086806	-0.602718	-0.610087
H135	H	-0.627754	-0.899733	-1.068460
H136	H	-0.127754	-0.399733	-0.568460
H137	H	-0.384020	-1.056843	-0.940276
H138	H	0.115980	-0.556843	-0.440276
O139	O	-0.366283	-0.582918	-0.236328
O140	O	0.133717	-0.082918	0.263672
H141	H	-0.319489	-0.619364	-0.206283
H142	H	0.180511	-0.119364	0.293717
H143	H	-0.628228	-0.236536	-0.404567
H144	H	-0.128228	0.263464	0.095433
O145	O	-0.891527	-1.154838	-0.149757
O146	O	-0.391527	-0.654838	0.350243
H147	H	-0.806015	-1.147530	-0.157004
H148	H	-0.306015	-0.647530	0.342996
O149	O	-0.645558	-0.888265	-0.930878
O150	O	-0.145558	-0.388265	-0.430878
H151	H	-0.634287	-0.895522	-0.875789
H152	H	-0.134287	-0.395522	-0.375789
O153	O	-1.233650	-1.064926	-0.239712
O154	O	-0.733650	-0.564926	0.260288
H155	H	-1.262574	-1.102327	-0.202376
H156	H	-0.762574	-0.602327	0.297624
H157	H	-0.628219	-0.364781	-0.404555
H158	H	-0.128219	0.135219	0.095445
H159	H	-0.384094	-0.236502	-0.247773
H160	H	0.115906	0.263498	0.252227
H161	H	-0.627909	-0.899659	-0.584456
H162	H	-0.127909	-0.399659	-0.084456
H163	H	-1.105153	-0.899686	-0.404648
H164	H	-0.605153	-0.399686	0.095352
O165	O	-0.891572	-0.888157	-0.416035
O166	O	-0.391572	-0.388157	0.083965
H167	H	-0.948156	-0.858052	-0.446113
H168	H	-0.448156	-0.358052	0.053887
H169	H	-0.628198	-0.592308	-0.404539
H170	H	-0.128198	-0.092308	0.095461
H171	H	-0.384085	-0.364736	-0.247759
H172	H	0.115915	0.135264	0.252241
H173	H	-0.384048	-0.720505	-0.247737
H174	H	0.115952	-0.220505	0.252263
O175	O	-0.366394	-1.068237	-0.575171
O176	O	0.133606	-0.568237	-0.075171
H177	H	-0.319657	-1.098347	-0.611636
H178	H	0.180343	-0.598347	-0.111636
O179	O	-0.366344	-1.068258	-0.722103
O180	O	0.133656	-0.568258	-0.222103
H181	H	-0.319652	-1.098370	-0.685661
H182	H	0.180348	-0.598370	-0.185661
H183	H	-0.627866	-0.899685	-0.712702
H184	H	-0.127866	-0.399685	-0.212702
