data_functionalizedCrystal
_audit_creation_method	'MofGen! by Chris Wilmer'
_symmetry_space_group_name_H-M	'P1'
_symmetry_Int_Tables_number	1
_symmetry_cell_setting	triclinic
loop_
_symmetry_equiv_pos_as_xyz
  x,y,z
_cell_length_a	10.654550
_cell_length_b	14.519709
_cell_length_c	9.730223
_cell_angle_alpha	89.997715
_cell_angle_beta	89.996251
_cell_angle_gamma	84.082524
loop_
_atom_site_label
_atom_site_type_symbol
_atom_site_fract_x
_atom_site_fract_y
_atom_site_fract_z
O1	O	1.666589	0.129528	-0.114406
O2	O	1.300991	0.141869	-0.114384
O3	O	1.493483	0.001510	-0.114384
O4	O	1.474097	0.269887	-0.114407
O5	O	1.493481	0.001514	0.114196
O6	O	1.300989	0.141873	0.114195
O7	O	1.666586	0.129532	0.114174
Zn8	Zn	1.483787	0.135703	0.150477
Zn9	Zn	1.483790	0.135698	-0.150687
O10	O	1.474094	0.269890	0.114173
C11	C	1.254201	0.140965	-0.000092
C12	C	1.114784	0.138254	-0.000083
C13	C	1.492579	-0.032852	-0.000093
C14	C	1.489871	-0.135247	-0.000092
C15	C	1.034504	0.220895	-0.000110
C16	C	0.903507	0.218342	-0.000134
C17	C	0.933085	0.050500	-0.000108
C18	C	1.064078	0.053054	-0.000075
C19	C	1.085209	0.306095	-0.000118
C20	C	1.004928	0.388743	-0.000147
C21	C	0.873931	0.386190	-0.000170
C22	C	0.823217	0.300989	-0.000165
C23	C	1.479904	-0.510195	-0.000127
C24	C	1.482672	-0.405873	-0.000117
C25	C	1.484887	-0.322725	-0.000109
C26	C	1.487656	-0.218396	-0.000101
C27	C	1.713377	0.130436	-0.000122
C28	C	1.852794	0.133147	-0.000140
C29	C	1.474999	0.304253	-0.000120
C30	C	1.477707	0.406648	-0.000130
N31	N	1.483795	0.135705	0.356013
N32	N	1.483793	0.135688	-0.356224
C33	C	1.569052	0.073576	0.427939
C34	C	1.569048	0.073565	0.571822
C35	C	1.398527	0.197821	0.571840
C36	C	1.398525	0.197827	0.427959
C37	C	1.654321	0.011455	0.355993
C38	C	1.739586	-0.050679	0.427920
C39	C	1.739583	-0.050691	0.571803
C40	C	1.654315	0.011432	0.643759
H41	H	1.046228	0.458110	-0.000140
O42	O	0.883615	-0.032179	-0.000176
C43	C	0.694917	-0.110495	-0.000147
C44	C	0.750770	-0.016797	-0.000095
H45	H	0.587505	-0.098092	-0.000053
H46	H	0.727901	-0.151392	-0.095820
H47	H	0.728010	-0.151375	0.095501
H48	H	0.717703	0.024158	-0.095679
H49	H	0.717792	0.024029	0.095641
H50	H	1.191871	0.308183	-0.000105
O51	O	1.141891	-0.027309	-0.000121
C52	C	1.157415	-0.194055	-0.000034
C53	C	1.069148	-0.103114	-0.000018
H54	H	1.098639	-0.255366	0.000078
H55	H	1.219483	-0.197116	-0.095703
H56	H	1.219484	-0.197001	0.095618
H57	H	1.007001	-0.100106	-0.095605
H58	H	1.007166	-0.100090	0.095714
O59	O	1.822317	-0.110968	0.357815
C60	C	1.897744	-0.166136	0.136153
C61	C	1.804032	-0.097772	0.215370
H62	H	1.882975	-0.155505	0.020972
H63	H	1.998404	-0.153479	0.164300
H64	H	1.881170	-0.240090	0.164557
H65	H	1.820490	-0.023793	0.187008
H66	H	1.703404	-0.110510	0.187216
H67	H	1.654311	0.011411	0.760918
H68	H	1.654334	0.011460	0.238836
O69	O	1.822521	-0.111081	0.641461
C70	C	1.991607	-0.234360	0.626250
C71	C	1.897760	-0.166005	0.547196
H72	H	2.052445	-0.278797	0.550071
H73	H	2.054510	-0.194163	0.693574
H74	H	1.937270	-0.280769	0.693647
H75	H	1.951994	-0.119579	0.479724
H76	H	1.834858	-0.206259	0.479958
H77	H	1.329100	0.248418	0.369396
H78	H	1.329106	0.248399	0.630436
H79	H	0.716549	0.298917	-0.000163
O80	O	0.796124	0.466555	-0.000253
C81	C	0.780621	0.633300	-0.000199
C82	C	0.868877	0.542354	-0.000130
H83	H	0.839406	0.694608	-0.000071
H84	H	0.718600	0.636361	-0.095896
H85	H	0.718505	0.636256	0.095425
H86	H	0.931072	0.539337	-0.095690
H87	H	0.930812	0.539331	0.095629
