data_functionalizedCrystal
_audit_creation_method	'MofGen! by Chris Wilmer'
_symmetry_space_group_name_H-M	'P1'
_symmetry_Int_Tables_number	1
_symmetry_cell_setting	triclinic
loop_
_symmetry_equiv_pos_as_xyz
  x,y,z
_cell_length_a	14.908506
_cell_length_b	14.908742
_cell_length_c	21.295420
_cell_angle_alpha	86.712408
_cell_angle_beta	86.704355
_cell_angle_gamma	89.836538
loop_
_atom_site_label
_atom_site_type_symbol
_atom_site_fract_x
_atom_site_fract_y
_atom_site_fract_z
Zn1	Zn	-0.437446	1.353880	0.318905
Zn2	Zn	0.062554	1.853880	0.818905
Zn3	Zn	-0.587747	1.345110	0.220045
Zn4	Zn	-0.087747	1.845110	0.720045
Zn5	Zn	-0.428741	1.203532	0.219368
Zn6	Zn	0.071259	1.703532	0.719368
Zn7	Zn	-0.579098	1.194815	0.330994
Zn8	Zn	-0.079098	1.694815	0.830994
O9	O	-0.508258	1.274334	0.272328
O10	O	-0.008258	1.774334	0.772328
O11	O	-0.464646	1.478537	0.301016
O12	O	0.035354	1.978537	0.801016
O13	O	-0.566631	1.326307	0.131866
O14	O	-0.066631	1.826307	0.631866
O15	O	-0.304069	1.230794	0.227229
O16	O	0.195931	1.730794	0.727229
O17	O	-0.575071	1.472094	0.228383
O18	O	-0.075071	1.972094	0.728383
O19	O	-0.310464	1.341254	0.300359
O20	O	0.189536	1.841254	0.800359
O21	O	-0.449810	1.222290	0.131368
O22	O	0.050190	1.722290	0.631368
O23	O	-0.441424	1.076555	0.238951
O24	O	0.058576	1.576555	0.738951
O25	O	-0.560331	1.215937	0.417480
O26	O	-0.060331	1.715937	0.917480
O27	O	-0.551890	1.070151	0.320962
O28	O	-0.051890	1.570151	0.820962
O29	O	-0.456259	1.332802	0.408598
O30	O	0.043741	1.832802	0.908598
O31	O	-0.712426	1.317855	0.240105
O32	O	-0.212426	1.817855	0.740105
O33	O	-0.706072	1.207434	0.321619
O34	O	-0.206072	1.707434	0.821619
C35	C	-0.494775	1.040729	0.281195
C36	C	0.005225	1.540729	0.781195
C37	C	-0.489028	0.940791	0.285004
C38	C	0.010972	1.440791	0.785004
C39	C	-0.741876	1.260771	0.282260
C40	C	-0.241876	1.760771	0.782260
C41	C	-0.841823	1.255051	0.286526
C42	C	-0.341823	1.755051	0.786526
C43	C	-0.423538	0.803277	0.328251
C44	C	0.076462	1.303277	0.828251
C45	C	-0.428930	0.897178	0.324675
C46	C	0.071070	1.397178	0.824675
C47	C	-0.543741	0.890495	0.248908
C48	C	-0.043741	1.390495	0.748908
C49	C	-0.538350	0.796593	0.252485
C50	C	-0.038350	1.296593	0.752485
C51	C	-0.478245	0.752988	0.292157
C52	C	0.021755	1.252988	0.792157
C53	C	-0.472850	0.659085	0.295729
C54	C	0.027150	1.159085	0.795729
C55	C	-0.587665	0.652402	0.219966
C56	C	-0.087665	1.152402	0.719966
C57	C	-0.593057	0.746304	0.216390
C58	C	-0.093057	1.246304	0.716390
C59	C	-0.979416	1.189454	0.334944
C60	C	-0.479416	1.689454	0.834944
C61	C	-0.885507	1.194826	0.330939
C62	C	-0.385507	1.694826	0.830939
C63	C	-0.892056	1.309909	0.246116
C64	C	-0.392056	1.809909	0.746116
C65	C	-0.985966	1.304537	0.250121
C66	C	-0.485966	1.804537	0.750121
C67	C	-1.029643	1.244306	0.294536
C68	C	-0.529643	1.744306	0.794536
C69	C	-1.123554	1.238929	0.298537
C70	C	-0.623554	1.738929	0.798537
C71	C	-1.130102	1.354016	0.213717
C72	C	-0.630102	1.854016	0.713717
C73	C	-1.036192	1.359389	0.209713
C74	C	-0.536192	1.859389	0.709713
C75	C	-0.273729	1.287975	0.262370
C76	C	0.226271	1.787975	0.762370
C77	C	-0.173787	1.293788	0.258127
C78	C	0.326213	1.793788	0.758127
C79	C	-0.508301	1.274375	0.436518
C80	C	-0.008301	1.774375	0.936518
C81	C	-0.508320	1.274393	0.506486
C82	C	-0.008320	1.774393	1.006486
C83	C	-0.521794	1.508851	0.263427
C84	C	-0.021794	2.008851	0.763427
C85	C	-0.527563	1.608789	0.259633
C86	C	-0.027563	2.108789	0.759633
C87	C	-0.454139	1.335235	0.534730
C88	C	0.045861	1.835235	1.034730
C89	C	-0.454123	1.335222	0.600473
C90	C	0.045877	1.835222	1.100473
C91	C	-0.508305	1.274376	0.637969
C92	C	-0.008305	1.774376	1.137969
C93	C	-0.562490	1.213522	0.609718
C94	C	-0.062490	1.713522	1.109718
C95	C	-0.562497	1.213531	0.543976
C96	C	-0.062497	1.713531	1.043976
N97	N	-0.586604	1.262890	0.744805
N98	N	-0.086604	1.762890	1.244805
N99	N	-0.586594	1.262888	0.807256
N100	N	-0.086594	1.762888	1.307256
C101	C	-0.508285	1.274345	0.836044
C102	C	-0.008285	1.774345	1.336044
N103	N	-0.429985	1.285823	0.800021
N104	N	0.070015	1.785823	1.300021
N105	N	-0.429995	1.285831	0.737564
N106	N	0.070005	1.785831	1.237564
C107	C	-0.508303	1.274360	0.709255
C108	C	-0.008303	1.774360	1.209255
C109	C	-0.454082	1.335177	0.935573
C110	C	0.045918	1.835177	1.435573
C111	C	-0.454065	1.335158	1.001317
C112	C	0.045935	1.835158	1.501317
C113	C	-0.562439	1.213462	1.010561
C114	C	-0.062439	1.713462	1.510561
C115	C	-0.562449	1.213477	0.944818
C116	C	-0.062449	1.713477	1.444818
C117	C	-0.508272	1.274339	0.907328
C118	C	-0.008272	1.774339	1.407328
C119	C	-0.508242	1.274296	1.108777
C120	C	-0.008242	1.774296	1.608777
C121	C	-0.508246	1.274310	1.038809
C122	C	-0.008246	1.774310	1.538809
H123	H	-0.374590	0.767773	0.360547
H124	H	0.125410	1.267773	0.860547
N125	N	-0.620901	1.147852	0.914363
N126	N	-0.120901	1.647852	1.414363
H127	H	-0.664686	1.181964	0.887483
H128	H	-0.164686	1.681964	1.387483
H129	H	-0.581897	1.108325	0.887138
H130	H	-0.081897	1.608325	1.387138
H131	H	-1.171006	1.398681	0.180814
H132	H	-0.671006	1.898681	0.680814
H133	H	-0.384381	0.938121	0.354067
H134	H	0.115619	1.438121	0.854067
N135	N	-0.408033	0.612052	0.338522
N136	N	0.091967	1.112052	0.838522
H137	H	-0.412915	0.544934	0.335311
H138	H	0.087085	1.044934	0.835311
H139	H	-0.344731	0.632178	0.325445
H140	H	0.155269	1.132178	0.825445
H141	H	-0.409939	1.384702	1.024311
H142	H	0.090061	1.884702	1.524311
H143	H	-0.410023	1.384793	0.504210
H144	H	0.089977	1.884793	1.004210
N145	N	-0.395683	1.400846	0.630947
N146	N	0.104317	1.900846	1.130947
H147	H	-0.361363	1.439402	0.597221
H148	H	0.138637	1.939402	1.097221
H149	H	-0.434690	1.440317	0.658212
H150	H	0.065310	1.940317	1.158212
N151	N	-0.620915	1.147881	0.650155
N152	N	-0.120915	1.647881	1.150155
H153	H	-0.612687	1.157105	0.696089
H154	H	-0.112687	1.657105	1.196089
H155	H	-0.685944	1.158127	0.640877
H156	H	-0.185944	1.658127	1.140877
H157	H	-0.592678	0.926015	0.216611
H158	H	-0.092678	1.426015	0.716611
N159	N	-0.657880	0.793338	0.173603
N160	N	-0.157880	1.293338	0.673603
H161	H	-0.652995	0.860455	0.176813
H162	H	-0.152995	1.360455	0.676813
H163	H	-0.642823	0.777717	0.128688
H164	H	-0.142823	1.277717	0.628688
H165	H	-0.632213	0.611447	0.190577
H166	H	-0.132213	1.111447	0.690577
H167	H	-1.159114	1.189889	0.334703
H168	H	-0.659114	1.689889	0.834703
N169	N	-0.620924	1.147894	0.513509
N170	N	-0.120924	1.647894	1.013509
H171	H	-0.655241	1.109338	0.547236
H172	H	-0.155241	1.609338	1.047236
H173	H	-0.664656	1.182065	0.486622
H174	H	-0.164656	1.682065	0.986622
N175	N	-1.026526	1.124485	0.382840
N176	N	-0.526526	1.624485	0.882840
H177	H	-1.010966	1.139338	0.426601
H178	H	-0.510966	1.639338	0.926601
H179	H	-1.093624	1.129433	0.379190
H180	H	-0.593624	1.629433	0.879190
N181	N	-0.831335	1.135654	0.374517
N182	N	-0.331335	1.635654	0.874517
H183	H	-0.765215	1.148194	0.365241
H184	H	-0.265215	1.648194	0.865241
H185	H	-0.848531	1.148667	0.419652
H186	H	-0.348531	1.648667	0.919652
H187	H	-0.409963	1.384729	0.905047
H188	H	0.090037	1.884729	1.405047
H189	H	-0.856483	1.358954	0.209959
H190	H	-0.356483	1.858954	0.709959
N191	N	-0.989082	1.424353	0.161814
N192	N	-0.489082	1.924353	0.661814
H193	H	-0.921969	1.419436	0.165409
H194	H	-0.421969	1.919436	0.665409
H195	H	-1.004712	1.409458	0.118079
H196	H	-0.504712	1.909458	0.618079
H197	H	-0.606546	1.163911	1.041090
H198	H	-0.106546	1.663911	1.541090
