data_functionalizedCrystal
_audit_creation_method	'MofGen! by Chris Wilmer'
_symmetry_space_group_name_H-M	'P1'
_symmetry_Int_Tables_number	1
_symmetry_cell_setting	triclinic
loop_
_symmetry_equiv_pos_as_xyz
  x,y,z
_cell_length_a	8.559649
_cell_length_b	8.634740
_cell_length_c	7.540329
_cell_angle_alpha	89.998819
_cell_angle_beta	89.997379
_cell_angle_gamma	85.174486
loop_
_atom_site_label
_atom_site_type_symbol
_atom_site_fract_x
_atom_site_fract_y
_atom_site_fract_z
O1	O	2.112215	-0.051378	-0.147455
O2	O	1.659052	0.026833	-0.147461
O3	O	1.864182	-0.234208	-0.147455
O4	O	1.907085	0.209663	-0.147461
O5	O	1.864167	-0.234209	0.147510
O6	O	1.659037	0.026832	0.147504
O7	O	2.112200	-0.051379	0.147510
Cu8	Cu	1.885617	-0.012274	0.174440
Cu9	Cu	1.885635	-0.012272	-0.174391
O10	O	1.907070	0.209662	0.147504
C11	C	1.600427	0.032760	0.000020
C12	C	1.425763	0.050402	0.000017
C13	C	1.854456	-0.290508	0.000024
C14	C	1.825478	-0.458259	0.000015
C15	C	2.170825	-0.057305	0.000025
C16	C	2.345489	-0.074948	0.000016
C17	C	1.916796	0.265962	0.000021
C18	C	1.945774	0.433714	0.000019
N19	N	1.885616	-0.012277	0.419788
N20	N	1.885646	-0.012282	-0.419739
H21	H	1.700317	-0.494107	0.000006
H22	H	2.070943	-0.530433	-0.000045
C23	C	1.433149	-0.238162	0.000023
H24	H	1.542980	-0.229008	0.000039
H25	H	1.405291	-0.293087	-0.102834
H26	H	1.405280	-0.293077	0.102900
C27	C	1.338096	0.213625	0.000013
H28	H	1.228265	0.204475	0.000021
H29	H	1.365970	0.268549	-0.102844
H30	H	1.365954	0.268539	0.102890
