data_functionalizedCrystal
_audit_creation_method	'MofGen! by Chris Wilmer'
_symmetry_space_group_name_H-M	'P1'
_symmetry_Int_Tables_number	1
_symmetry_cell_setting	triclinic
loop_
_symmetry_equiv_pos_as_xyz
  x,y,z
_cell_length_a	16.109301
_cell_length_b	10.654550
_cell_length_c	9.130313
_cell_angle_alpha	90.003780
_cell_angle_beta	89.997330
_cell_angle_gamma	96.026808
loop_
_atom_site_label
_atom_site_type_symbol
_atom_site_fract_x
_atom_site_fract_y
_atom_site_fract_z
O1	O	0.116770	-1.666250	-0.121925
O2	O	0.127896	-1.300621	-0.121902
O3	O	0.001362	-1.493479	-0.121899
O4	O	0.243304	-1.473391	-0.121928
O5	O	0.001365	-1.493477	0.121700
O6	O	0.127899	-1.300618	0.121697
O7	O	0.116774	-1.666248	0.121674
Cu8	Cu	0.122337	-1.483433	0.143928
Cu9	Cu	0.122333	-1.483435	-0.144156
O10	O	0.243308	-1.473389	0.121671
C11	C	0.127080	-1.253832	-0.000099
C12	C	0.124636	-1.114422	-0.000090
C13	C	-0.029616	-1.492665	-0.000099
C14	C	-0.121926	-1.490225	-0.000097
C15	C	0.117589	-1.713036	-0.000132
C16	C	0.120033	-1.852446	-0.000151
C17	C	-0.343552	-1.598991	-0.000127
C18	C	-0.430286	-1.596689	-0.000139
C19	C	-0.411772	-1.367868	-0.000119
C20	C	-0.325040	-1.370172	-0.000117
C21	C	-0.290932	-1.485737	-0.000114
C22	C	-0.464399	-1.481131	-0.000127
C23	C	-0.558440	-1.478634	-0.000140
C24	C	-0.196885	-1.488234	-0.000104
C25	C	0.274286	-1.474204	-0.000132
C26	C	0.366595	-1.476643	-0.000144
N27	N	0.122339	-1.483440	0.346551
C28	C	0.199138	-1.033926	-0.000120
C29	C	0.196836	-0.902936	-0.000145
C30	C	0.045526	-0.932952	-0.000116
C31	C	0.047828	-1.063939	-0.000081
C32	C	0.286496	-1.016595	-0.000143
C33	C	0.284194	-0.885606	-0.000168
N34	N	0.122324	-1.483438	-0.346779
C35	C	0.066329	-1.568859	0.423204
C36	C	0.066319	-1.568856	0.576541
C37	C	0.178336	-1.398010	0.576558
C38	C	0.178342	-1.398008	0.423223
C39	C	0.001659	-1.667500	0.423195
C40	C	0.001649	-1.667497	0.576532
H41	H	-0.315785	-1.693091	-0.000127
Cl42	Cl	0.248736	-1.290615	0.672955
Cl43	Cl	-0.454657	-1.222595	-0.000122
Cl44	Cl	0.032932	-1.807846	0.349743
H45	H	0.317108	-0.843427	-0.102126
Cl46	Cl	0.248745	-1.290604	0.326858
Cl47	Cl	-0.096999	-1.635732	0.358939
H48	H	-0.282194	-1.277941	-0.000111
H49	H	-0.473126	-1.688912	-0.000152
H50	H	-0.058739	-1.637803	0.624088
H51	H	0.015894	-1.763815	0.618141
H52	H	-0.012838	-1.129476	-0.000035
H53	H	-0.017009	-0.891833	-0.000131
H54	H	0.320663	-1.045462	0.101804
H55	H	0.314310	-1.051874	-0.105318
H56	H	0.310596	-0.839575	0.104997
