data_functionalizedCrystal
_audit_creation_method	'MofGen! by Chris Wilmer'
_symmetry_space_group_name_H-M	'P1'
_symmetry_Int_Tables_number	1
_symmetry_cell_setting	triclinic
loop_
_symmetry_equiv_pos_as_xyz
  x,y,z
_cell_length_a	15.995350
_cell_length_b	11.026607
_cell_length_c	10.065875
_cell_angle_alpha	100.697662
_cell_angle_beta	98.791555
_cell_angle_gamma	83.960804
loop_
_atom_site_label
_atom_site_type_symbol
_atom_site_fract_x
_atom_site_fract_y
_atom_site_fract_z
O1	O	0.340991	-1.627917	-0.113481
O2	O	0.840991	-1.127917	0.386519
O3	O	0.301065	-1.274611	-0.113484
O4	O	0.801065	-0.774611	0.386516
O5	O	0.200596	-1.460922	-0.113481
O6	O	0.700596	-0.960922	0.386519
O7	O	0.441460	-1.441606	-0.113484
O8	O	0.941460	-0.941606	0.386516
O9	O	0.219853	-1.425395	0.113507
O10	O	0.719853	-0.925395	0.613507
O11	O	0.320322	-1.239084	0.113504
O12	O	0.820322	-0.739084	0.613504
O13	O	0.360247	-1.592390	0.113508
O14	O	0.860247	-1.092390	0.613508
Zn15	Zn	0.343342	-1.410096	0.149545
Zn16	Zn	0.843342	-0.910096	0.649545
Zn17	Zn	0.317971	-1.456905	-0.149522
Zn18	Zn	0.817971	-0.956905	0.350478
O19	O	0.460716	-1.406079	0.113504
O20	O	0.960716	-0.906079	0.613504
C21	C	0.178909	-1.442360	0.000011
C22	C	0.678909	-0.942360	0.500011
C23	C	0.085597	-1.439967	0.000003
C24	C	0.585597	-0.939967	0.500003
C25	C	0.303328	-1.211637	0.000010
C26	C	0.803328	-0.711637	0.500010
C27	C	0.281371	-1.076923	0.000008
C28	C	0.781371	-0.576923	0.500008
C29	C	0.357984	-1.655365	0.000011
C30	C	0.857984	-1.155365	0.500011
C31	C	0.379940	-1.790080	0.000003
C32	C	0.879940	-1.290080	0.500003
C33	C	-0.253446	-1.431369	0.000007
C34	C	0.246554	-0.931369	0.500007
C35	C	-0.226055	-1.298762	-0.000503
C36	C	0.273945	-0.798762	0.499497
C37	C	-0.128960	-1.301076	0.000009
C38	C	0.371040	-0.801076	0.500009
C39	C	-0.085243	-1.435634	0.000004
C40	C	0.414757	-0.935634	0.500004
C41	C	-0.105459	-1.480793	0.129624
C42	C	0.394541	-0.980793	0.629624
C43	C	-0.202588	-1.477442	0.129732
C44	C	0.297412	-0.977442	0.629732
C45	C	-0.224432	-1.520584	-0.128396
C46	C	0.275568	-1.020584	0.371604
C47	C	-0.127636	-1.520821	-0.130109
C48	C	0.372364	-1.020821	0.369891
C49	C	0.009819	-1.438051	0.000007
C50	C	0.509819	-0.938051	0.500007
C51	C	-0.348507	-1.428955	0.000014
C52	C	0.151493	-0.928955	0.500014
C53	C	0.482403	-1.424641	0.000010
C54	C	0.982403	-0.924641	0.500010
C55	C	0.575714	-1.427036	0.000009
C56	C	1.075714	-0.927036	0.500009
N57	N	0.360658	-1.378160	0.353650
N58	N	0.860658	-0.878160	0.853650
C59	C	0.341997	-1.003118	0.000007
C60	C	0.841997	-0.503118	0.500007
C61	C	0.319305	-0.863884	0.000005
C62	C	0.819305	-0.363884	0.500005
N63	N	0.300649	-1.488851	-0.353627
N64	N	0.800649	-0.988851	0.146373
C65	C	0.323989	-1.445785	0.421430
C66	C	0.823989	-0.945785	0.921430
C67	C	0.337324	-1.421215	0.578597
C68	C	0.837324	-0.921215	1.078597
H69	H	-0.116175	-1.264174	-0.092908
H70	H	0.383825	-0.764174	0.407092
F71	F	0.469750	-0.842203	0.000019
F72	F	0.969750	-0.342203	0.500019
F73	F	0.431801	-1.055251	0.000010
F74	F	0.931801	-0.555251	0.500010
F75	F	0.191569	-1.024787	0.000018
F76	F	0.691569	-0.524787	0.500018
H77	H	0.250594	-0.824003	-0.000029
H78	H	0.750594	-0.324003	0.499971
H79	H	-0.075746	-1.420240	0.226085
H80	H	0.424254	-0.920240	0.726085
F81	F	-0.246770	-1.648633	-0.129542
F82	F	0.253230	-1.148633	0.370458
H83	H	0.282719	-1.521868	0.363107
H84	H	0.782719	-1.021868	0.863107
H85	H	0.378589	-1.345120	0.636917
H86	H	0.878589	-0.845120	1.136917
F87	F	0.414591	-1.278702	0.429880
F88	F	0.914591	-0.778702	0.929880
H89	H	-0.260465	-1.260276	-0.093456
H90	H	0.239535	-0.760276	0.406544
F91	F	-0.252154	-1.210714	0.119983
F92	F	0.247846	-0.710714	0.619983
H93	H	-0.101006	-1.234718	0.093083
H94	H	0.398994	-0.734718	0.593083
F95	F	-0.225171	-1.395238	0.256378
F96	F	0.274829	-0.895238	0.756378
F97	F	-0.224897	-1.603565	0.137430
F98	F	0.275103	-1.103565	0.637430
H99	H	-0.098149	-1.620171	-0.137938
H100	H	0.401851	-1.120171	0.362062
F101	F	0.246878	-1.588511	0.570152
F102	F	0.746878	-1.088511	1.070152
H103	H	-0.259845	-1.492579	-0.226640
H104	H	0.240155	-0.992579	0.273360
H105	H	-0.115735	-1.487979	-0.225998
H106	H	0.384265	-0.987979	0.274002
F107	F	-0.066988	-1.609019	0.135926
F108	F	0.433012	-1.109019	0.635926
