data_functionalizedCrystal
_audit_creation_method	'MofGen! by Chris Wilmer'
_symmetry_space_group_name_H-M	'P1'
_symmetry_Int_Tables_number	1
_symmetry_cell_setting	triclinic
loop_
_symmetry_equiv_pos_as_xyz
  x,y,z
_cell_length_a	17.077404
_cell_length_b	13.897447
_cell_length_c	17.077396
_cell_angle_alpha	90.026095
_cell_angle_beta	90.019501
_cell_angle_gamma	90.019755
loop_
_atom_site_label
_atom_site_type_symbol
_atom_site_fract_x
_atom_site_fract_y
_atom_site_fract_z
Zn1	Zn	1.200073	-0.384009	0.443856
Zn2	Zn	1.700073	0.115991	0.943856
Zn3	Zn	1.199988	-0.545322	0.312595
Zn4	Zn	1.699988	-0.045322	0.812595
Zn5	Zn	1.068805	-0.384043	0.312604
Zn6	Zn	1.568805	0.115957	0.812604
Zn7	Zn	1.068780	-0.545264	0.443819
Zn8	Zn	1.568780	-0.045264	0.943819
O9	O	1.134411	-0.464660	0.378218
O10	O	1.634411	0.035340	0.878218
O11	O	1.309909	-0.405417	0.426456
O12	O	1.809909	0.094583	0.926456
O13	O	1.182561	-0.523966	0.202749
O14	O	1.682561	-0.023966	0.702749
O15	O	1.086264	-0.249057	0.330034
O16	O	1.586264	0.250943	0.830034
O17	O	1.309846	-0.523933	0.330019
O18	O	1.809846	-0.023933	0.830019
O19	O	1.182706	-0.249032	0.426464
O20	O	1.682706	0.250968	0.926464
O21	O	1.086181	-0.405475	0.202756
O22	O	1.586181	0.094525	0.702756
O23	O	0.958955	-0.405420	0.329998
O24	O	1.458955	0.094580	0.829998
O25	O	1.086222	-0.523835	0.553671
O26	O	1.586222	-0.023835	1.053671
O27	O	0.958937	-0.523868	0.426401
O28	O	1.458937	-0.023868	0.926401
O29	O	1.182682	-0.405362	0.553698
O30	O	1.682682	0.094638	1.053698
O31	O	1.182537	-0.680296	0.329983
O32	O	1.682537	-0.180296	0.829983
O33	O	1.086139	-0.680254	0.426393
O34	O	1.586139	-0.180254	0.926393
C35	C	0.930464	-0.464642	0.378197
C36	C	1.430464	0.035358	0.878197
C37	C	0.843214	-0.464658	0.378206
C38	C	1.343214	0.035342	0.878206
C39	C	0.802235	-0.526427	0.428323
C40	C	1.302235	-0.026427	0.928323
C41	C	0.720254	-0.526429	0.428335
C42	C	1.220254	-0.026429	0.928335
C43	C	0.679254	-0.464666	0.378227
C44	C	1.179254	0.035334	0.878227
C45	C	0.720239	-0.402890	0.328108
C46	C	1.220239	0.097110	0.828108
C47	C	0.802218	-0.402884	0.328100
C48	C	1.302218	0.097116	0.828100
C49	C	0.549369	-0.402909	0.328127
C50	C	1.049369	0.097091	0.828127
C51	C	0.467384	-0.402916	0.328133
C52	C	0.967384	0.097084	0.828133
C53	C	0.467405	-0.526454	0.428362
C54	C	0.967405	-0.026454	0.928362
C55	C	0.549384	-0.526448	0.428354
C56	C	1.049384	-0.026448	0.928354
C57	C	0.590363	-0.464673	0.378234
C58	C	1.090363	0.035327	0.878234
C59	C	1.134348	-0.715274	0.378200
C60	C	1.634348	-0.215274	0.878200
C61	C	1.134392	-0.822488	0.378219
C62	C	1.634392	-0.322488	0.878219
C63	C	1.134430	-0.909558	0.378237
C64	C	1.634430	-0.409558	0.878237
C65	C	1.134485	-1.018790	0.378257
C66	C	1.634485	-0.518790	0.878257
C67	C	1.339156	-0.464678	0.378241
C68	C	1.839156	0.035322	0.878241
C69	C	1.426405	-0.464686	0.378250
C70	C	1.926405	0.035314	0.878250
C71	C	1.134459	-0.464588	0.582963
C72	C	1.634459	0.035412	1.082963
C73	C	1.134479	-0.464558	0.670213
C74	C	1.634479	0.035442	1.170213
C75	C	1.134497	-0.213067	0.378254
C76	C	1.634497	0.286933	0.878254
C77	C	1.134533	-0.105853	0.378269
C78	C	1.634533	0.394147	0.878269
C79	C	1.134409	-0.464661	0.174271
C80	C	1.634409	0.035339	0.674271
C81	C	1.134541	-0.464419	0.087021
C82	C	1.634541	0.035581	0.587021
C83	C	1.184708	-0.402864	0.711218
C84	C	1.684708	0.097136	1.211218
C85	C	1.184717	-0.402832	0.793199
C86	C	1.684717	0.097168	1.293199
C87	C	1.134501	-0.464500	0.834172
C88	C	1.634501	0.035500	1.334172
C89	C	1.084267	-0.526197	0.793161
C90	C	1.584267	-0.026197	1.293161
C91	C	1.084255	-0.526223	0.711182
C92	C	1.584255	-0.026223	1.211182
C93	C	1.084299	-0.526139	0.964031
C94	C	1.584299	-0.026139	1.464031
C95	C	1.084313	-0.526114	1.046016
C96	C	1.584313	-0.026114	1.546016
C97	C	1.184762	-0.402747	1.046048
C98	C	1.684762	0.097253	1.546048
C99	C	1.184749	-0.402774	0.964069
C100	C	1.684749	0.097226	1.464069
C101	C	1.134516	-0.464472	0.923063
C102	C	1.634516	0.035528	1.423063
H103	H	0.686893	-0.576729	0.469144
H104	H	1.186893	-0.076729	0.969144
O105	O	0.589145	-0.343011	0.279325
O106	O	1.089145	0.156989	0.779325
C107	C	0.569057	-0.363965	0.201065
C108	C	1.069057	0.136035	0.701065
H109	H	0.546496	-0.441017	0.197003
H110	H	1.046496	0.058983	0.697003
H111	H	0.622955	-0.355603	0.162289
H112	H	1.122955	0.144397	0.662289
H113	H	0.521478	-0.312219	0.180618
H114	H	1.021478	0.187781	0.680618
O115	O	0.680535	-0.342802	0.279406
O116	O	1.180535	0.157198	0.779406
C117	C	0.734287	-0.288298	0.235157
C118	C	1.234287	0.211702	0.735157
H119	H	0.792738	-0.285001	0.267309
H120	H	1.292738	0.214999	0.767309
H121	H	0.710613	-0.212288	0.226890
H122	H	1.210613	0.287712	0.726890
H123	H	0.742974	-0.323528	0.175490
H124	H	1.242974	0.176472	0.675490
H125	H	0.835582	-0.352580	0.287294
H126	H	1.335582	0.147420	0.787294
O127	O	1.233440	-0.342697	1.085907
O128	O	1.733440	0.157303	1.585907
C129	C	1.188775	-0.280386	1.133335
C130	C	1.688775	0.219614	1.633335
H131	H	1.126949	-0.274440	1.108618
H132	H	1.626949	0.225560	1.608618
H133	H	1.217188	-0.206153	1.134271
H134	H	1.717188	0.293847	1.634271
H135	H	1.186073	-0.310177	1.195464
H136	H	1.686073	0.189823	1.695464
H137	H	1.043421	-0.576327	1.079374
H138	H	1.543421	-0.076327	1.579374
O139	O	0.427434	-0.342976	0.279513
O140	O	0.927434	0.157024	0.779513
C141	C	0.346291	-0.356201	0.290296
C142	C	0.846291	0.143799	0.790296
H143	H	0.335086	-0.430703	0.315859
H144	H	0.835086	0.069297	0.815859
H145	H	0.315094	-0.349509	0.231523
H146	H	0.815094	0.150491	0.731523
H147	H	0.323079	-0.299086	0.332221
H148	H	0.823079	0.200914	0.832221
O149	O	1.035491	-0.586179	0.924318
O150	O	1.535491	-0.086179	1.424318
C151	C	0.991166	-0.640598	0.978059
C152	C	1.491166	-0.140598	1.478059
H153	H	1.023319	-0.643899	1.036507
H154	H	1.523319	-0.143899	1.536507
H155	H	0.982787	-0.716611	0.954366
H156	H	1.482787	-0.216611	1.454366
H157	H	0.931551	-0.605290	0.986761
H158	H	1.431551	-0.105290	1.486761
H159	H	0.434036	-0.576751	0.469174
H160	H	0.934036	-0.076751	0.969174
H161	H	1.043378	-0.576404	0.826528
H162	H	1.543378	-0.076404	1.326528
H163	H	1.043345	-0.576451	0.677796
H164	H	1.543345	-0.076451	1.177796
H165	H	0.835611	-0.576725	0.469124
H166	H	1.335611	-0.076725	0.969124
O167	O	1.233405	-0.342819	0.671457
O168	O	1.733405	0.157181	1.171457
C169	C	1.216295	-0.246677	0.691519
C170	C	1.716295	0.253323	1.191519
H171	H	1.153589	-0.241798	0.714042
H172	H	1.653589	0.258202	1.214042
H173	H	1.223065	-0.199037	0.637617
H174	H	1.723065	0.300963	1.137617
H175	H	1.258393	-0.221453	0.739118
H176	H	1.758393	0.278547	1.239118
O177	O	0.589177	-0.586343	0.477141
O178	O	1.089177	-0.086343	0.977141
C179	C	0.569170	-0.565403	0.555408
C180	C	1.069170	-0.065403	1.055408
H181	H	0.546652	-0.488353	0.559483
H182	H	1.046652	0.011647	1.059483
H183	H	0.623099	-0.573766	0.594170
H184	H	1.123099	-0.073766	1.094170
H185	H	0.521584	-0.617156	0.575860
H186	H	1.021584	-0.117156	1.075860
O187	O	1.233541	-0.343033	0.833123
O188	O	1.733541	0.156967	1.333123
C189	C	1.284239	-0.397933	0.880539
C190	C	1.784239	0.102067	1.380539
H191	H	1.256534	-0.471029	0.892801
H192	H	1.756534	0.028971	1.392801
H193	H	1.294768	-0.358622	0.938196
H194	H	1.794768	0.141378	1.438196
H195	H	1.342408	-0.408540	0.848964
H196	H	1.842408	0.091460	1.348964
O197	O	1.233554	-0.342781	0.924387
O198	O	1.733554	0.157219	1.424387
C199	C	1.277907	-0.288335	0.978156
C200	C	1.777907	0.211665	1.478156
H201	H	1.245769	-0.284968	1.036590
H202	H	1.745769	0.215032	1.536590
H203	H	1.286302	-0.212346	0.954479
H204	H	1.786302	0.287654	1.454479
H205	H	1.337514	-0.323661	0.986878
H206	H	1.837514	0.176339	1.486878
