data_functionalizedCrystal
_audit_creation_method	'MofGen! by Chris Wilmer'
_symmetry_space_group_name_H-M	'P1'
_symmetry_Int_Tables_number	1
_symmetry_cell_setting	triclinic
loop_
_symmetry_equiv_pos_as_xyz
  x,y,z
_cell_length_a	18.760487
_cell_length_b	23.196402
_cell_length_c	23.196401
_cell_angle_alpha	60.008822
_cell_angle_beta	90.048477
_cell_angle_gamma	60.020943
loop_
_atom_site_label
_atom_site_type_symbol
_atom_site_fract_x
_atom_site_fract_y
_atom_site_fract_z
Zr1	Zr	0.686682	0.630998	-0.075286
O2	O	0.572842	0.751265	-0.167389
O3	O	0.721577	0.510733	-0.047055
O4	O	0.721546	0.631000	-0.167320
O5	O	0.572902	0.630996	0.047748
O6	O	0.838849	0.630999	-0.167262
O7	O	0.572874	0.630998	-0.047124
O8	O	0.838905	0.415864	0.047871
O9	O	0.572846	0.846132	-0.167385
O10	O	0.824005	0.560199	-0.034967
O11	O	0.736484	0.560198	0.035791
O12	O	0.736447	0.701797	-0.105806
O13	O	0.648926	0.701796	-0.035048
Zr14	Zr	0.873812	0.630996	0.076116
Zr15	Zr	0.873767	0.630998	-0.075193
Zr16	Zr	0.686727	0.630996	0.076023
Zr17	Zr	0.686687	0.782301	-0.075279
Zr18	Zr	0.873806	0.479693	0.076110
O19	O	0.838916	0.751261	0.047885
O20	O	0.838853	0.751265	-0.167256
O21	O	0.572906	0.751262	0.047753
O22	O	0.987651	0.510729	0.168219
O23	O	0.987587	0.510732	-0.046922
O24	O	0.721641	0.510729	0.168087
O25	O	0.987592	0.630997	-0.046917
O26	O	0.838948	0.630994	0.168151
O27	O	0.721645	0.630994	0.168092
O28	O	0.987620	0.630996	0.047954
O29	O	0.721553	0.846132	-0.167311
O30	O	0.838941	0.415862	0.168141
O31	O	0.987648	0.415862	0.168215
O32	O	0.987612	0.415863	0.047945
O33	O	0.572881	0.846130	-0.047114
O34	O	0.721589	0.846130	-0.047040
O35	O	0.824047	0.560197	0.106636
O36	O	0.911568	0.560198	0.035878
O37	O	0.824010	0.701796	-0.034961
O38	O	0.736489	0.701795	0.035797
C39	C	0.780240	0.441741	0.000407
C40	C	0.780238	0.377509	0.000404
C41	C	0.546232	0.630997	0.000299
C42	C	0.466810	0.630997	0.000259
C43	C	0.825917	0.347339	-0.036533
C44	C	0.825926	0.286978	-0.036527
C45	C	0.780238	0.256801	0.000406
C46	C	0.734557	0.286975	0.037352
C47	C	0.734557	0.347329	0.037351
C48	C	0.703695	0.194772	-0.004906
C49	C	0.703692	0.134422	-0.004910
C50	C	0.780239	0.070646	0.000413
C51	C	0.856788	0.067234	0.005727
C52	C	0.856788	0.127588	0.005726
C53	C	0.780233	0.191356	0.000412
C54	C	0.825931	-0.024975	-0.036520
C55	C	0.825942	-0.085341	-0.036509
C56	C	0.734565	-0.085337	0.037366
C57	C	0.734563	-0.024979	0.037360
C58	C	0.780244	0.005202	0.000413
C59	C	0.085289	0.704913	-0.036439
C60	C	0.176706	0.557082	0.037518
C61	C	0.251328	0.557080	0.037457
C62	C	0.242933	0.630996	0.000447
C63	C	0.159916	0.704914	-0.036503
C64	C	0.334349	0.483165	0.074400
C65	C	0.408977	0.483160	0.074341
C66	C	0.400584	0.557077	0.037334
C67	C	0.317561	0.630997	0.000384
C68	C	0.309166	0.704913	-0.036627
C69	C	0.226144	0.778835	-0.073573
C70	C	0.151523	0.778831	-0.073509
C71	C	0.475205	0.557081	0.037270
C72	C	0.383794	0.704915	-0.036690
C73	C	1.014261	0.630997	0.000532
C74	C	1.093683	0.630997	0.000571
C75	C	0.780191	0.631000	-0.188849
C76	C	0.780172	0.631001	-0.253084
C77	C	0.780253	0.820253	0.000423
C78	C	0.780255	0.884485	0.000426
C79	C	0.734472	0.704911	-0.320234
C80	C	0.734494	0.704912	-0.380589
C81	C	0.780204	0.630999	-0.373790
C82	C	0.825914	0.557079	-0.306628
C83	C	0.825898	0.557080	-0.246274
C84	C	0.773711	0.574371	-0.441113
C85	C	0.773721	0.574373	-0.501466
C86	C	0.780260	0.630993	-0.559938
C87	C	0.786770	0.687624	-0.558055
C88	C	0.786754	0.687625	-0.497702
C89	C	0.780227	0.630989	-0.439229
C90	C	0.734581	0.704909	-0.692534
C91	C	0.734610	0.704907	-0.752889
C92	C	0.826024	0.557071	-0.678926
C93	C	0.826002	0.557076	-0.618573
C94	C	0.780275	0.630997	-0.625382
C95	C	0.780303	0.630994	0.189680
C96	C	0.780322	0.630993	0.253914
C97	C	1.014255	0.441740	0.000524
C98	C	1.093675	0.377509	0.000560
C99	C	0.780296	0.441738	0.189672
C100	C	0.780313	0.377505	0.253903
C101	C	1.014311	0.441738	0.189788
C102	C	1.093750	0.377505	0.254059
C103	C	0.546183	0.820256	-0.188957
C104	C	0.466744	0.884489	-0.253229
C105	C	0.546239	0.820253	0.000307
C106	C	0.466819	0.884485	0.000270
C107	C	0.780197	0.820256	-0.188841
C108	C	0.780180	0.884489	-0.253073
C109	C	1.085265	0.347345	-0.036409
C110	C	1.159881	0.287001	-0.036389
C111	C	1.242907	0.256817	0.000606
C112	C	1.251316	0.286986	0.037576
C113	C	1.176700	0.347333	0.037551
C114	C	0.826028	0.347340	0.321054
C115	C	0.826040	0.286995	0.381413
C116	C	0.780343	0.256812	0.374619
C117	C	0.734622	0.286983	0.307461
C118	C	0.734605	0.347331	0.247104
C119	C	1.176748	0.347341	0.247307
C120	C	1.251397	0.286995	0.307691
C121	C	1.243045	0.256811	0.374827
C122	C	1.160038	0.286981	0.381578
C123	C	1.085391	0.347329	0.321194
C124	C	0.383745	0.914661	-0.246476
C125	C	0.309097	0.975025	-0.306860
C126	C	0.317448	1.005212	-0.373996
C127	C	0.400455	0.975038	-0.380747
C128	C	0.475102	0.914680	-0.320364
C129	C	0.475229	0.914655	0.037233
C130	C	0.400613	0.975016	0.037196
C131	C	0.317587	1.005202	0.000200
C132	C	0.309178	0.975030	-0.036768
C133	C	0.383794	0.914674	-0.036735
C134	C	0.825887	0.914653	-0.246256
C135	C	0.825888	0.974999	-0.306603
C136	C	0.780177	1.005183	-0.373766
C137	C	0.734469	0.975013	-0.380581
C138	C	0.734474	0.914665	-0.320235
H139	H	0.863116	0.371908	-0.066615
H140	H	1.303657	0.207677	0.000621
H141	H	0.697250	0.890112	-0.325795
C142	C	0.343583	0.401863	0.115110
H143	H	0.403713	0.357840	0.137099
H144	H	0.316452	0.398791	0.150109
H145	H	0.316290	0.398793	0.083231
C146	C	0.684323	0.380501	0.173242
H147	H	0.657119	0.353872	0.177847
H148	H	0.641071	0.437480	0.148132
H149	H	0.723764	0.370596	0.148184
C150	C	0.235517	1.071590	0.000171
H151	H	0.252425	1.085225	0.027491
H152	H	0.201741	1.118684	-0.046928
H153	H	0.201763	1.051806	0.019949
C154	C	0.684303	0.786217	-0.700019
H155	H	0.657101	0.830238	-0.748659
H156	H	0.641050	0.789299	-0.678051
H157	H	0.723750	0.789282	-0.677975
C158	C	1.185957	0.380509	0.078220
H159	H	1.129633	0.420778	0.072907
H160	H	1.216985	0.337176	0.126853
H161	H	1.216960	0.404055	0.059976
H162	H	1.318925	0.262401	0.067696
C163	C	0.876305	0.475768	-0.671440
H164	H	0.869766	0.486351	-0.717001
H165	H	0.936424	0.445395	-0.646317
H166	H	0.853731	0.445400	-0.646392
C167	C	0.684322	0.253768	0.077996
H168	H	0.657127	0.280373	0.100005
H169	H	0.641066	0.263647	0.046090
H170	H	0.723797	0.196787	0.112988
C171	C	0.876286	0.380541	0.328541
H172	H	0.903499	0.353935	0.377182
H173	H	0.919528	0.370653	0.306560
H174	H	0.836824	0.437523	0.306513
C175	C	0.993946	0.380541	-0.077110
H176	H	0.999636	0.353934	-0.099129
H177	H	0.962939	0.370649	-0.045231
H178	H	0.962931	0.437524	-0.112098
C179	C	0.684337	0.786213	-0.826757
H180	H	0.657097	0.830234	-0.822164
H181	H	0.723782	0.789292	-0.851805
H182	H	0.641100	0.789279	-0.851870
C183	C	1.150863	0.253765	0.455429
H184	H	1.207211	0.213497	0.490418
H185	H	1.119861	0.297079	0.460725
H186	H	1.119868	0.230207	0.460709
H187	H	0.697416	0.262399	0.301940
C188	C	0.217847	1.008235	-0.077455
H189	H	0.174620	1.048493	-0.072169
H190	H	0.211270	1.031783	-0.126082
H191	H	0.211300	0.964906	-0.059199
H192	H	1.183565	0.371908	0.192647
H193	H	0.376929	0.890085	-0.191817
C194	C	1.342693	0.253812	0.300253
H195	H	1.336969	0.280424	0.251620
H196	H	1.373719	0.263706	0.322265
H197	H	1.373708	0.196829	0.322274
C198	C	0.684129	1.008269	-0.454460
H199	H	0.656891	0.981676	-0.449884
H200	H	0.640899	1.065246	-0.479515
H201	H	0.723530	0.998403	-0.479556
H202	H	0.863212	0.496890	-0.563895
H203	H	0.863108	0.999557	-0.301040
C204	C	0.876183	0.008222	-0.077151
H205	H	0.869631	0.048497	-0.071870
H206	H	0.936308	-0.035101	-0.058872
H207	H	0.853598	0.031766	-0.125786
H208	H	0.641352	0.246708	-0.009256
C209	C	0.876344	0.253810	0.455277
H210	H	0.903567	0.280422	0.450673
H211	H	0.836918	0.263706	0.480344
H212	H	0.919595	0.196828	0.480377
C213	C	0.876191	-0.118527	-0.077143
H214	H	0.903387	-0.091901	-0.099151
H215	H	0.919446	-0.175505	-0.045226
H216	H	0.836729	-0.108633	-0.112134
C217	C	0.766514	0.512088	-0.376800
H218	H	0.762624	0.478371	-0.386568
H219	H	0.816698	0.479339	-0.336844
H220	H	0.715763	0.540137	-0.367319
C221	C	0.216913	0.860139	-0.114286
H222	H	0.156785	0.904164	-0.136285
H223	H	0.244210	0.863208	-0.082412
H224	H	0.244043	0.863208	-0.149289
C225	C	0.780374	0.190425	0.441015
H226	H	0.814155	0.176781	0.481979
H227	H	0.722159	0.210198	0.441000
H228	H	0.804850	0.143328	0.441036
H229	H	0.863133	0.496898	-0.301095
C230	C	0.876145	0.475777	-0.172405
H231	H	0.869585	0.486364	-0.137435
H232	H	0.853574	0.445418	-0.167149
H233	H	0.936279	0.445395	-0.167052
C234	C	0.409873	1.008197	0.077861
H235	H	0.353548	1.048476	0.072538
H236	H	0.440890	0.964869	0.126497
H237	H	0.440885	1.031734	0.059622
C238	C	0.566550	0.881461	0.077929
H239	H	0.609792	0.841189	0.072664
H240	H	0.573090	0.924790	0.059678
H241	H	0.573108	0.857917	0.126557
C242	C	0.766596	0.512060	-0.503523
H243	H	0.762728	0.478323	-0.460049
H244	H	0.715875	0.540071	-0.541117
H245	H	0.816816	0.479324	-0.510654
C246	C	0.684213	0.786217	-0.454463
H247	H	0.656973	0.830241	-0.449874
H248	H	0.723653	0.789297	-0.479517
H249	H	0.640976	0.789276	-0.479569
C250	C	0.060204	0.860134	-0.114154
H251	H	0.016965	0.849545	-0.108822
H252	H	0.053722	0.890510	-0.095926
H253	H	0.053581	0.890499	-0.162798
H254	H	1.303835	0.207672	0.423989
H255	H	0.376934	0.890112	-0.066832
H256	H	0.407245	0.999625	-0.435416
C257	C	0.217801	1.008198	-0.299422
H258	H	0.223525	0.981561	-0.250789
H259	H	0.186779	1.065175	-0.321430
H260	H	0.186781	0.998306	-0.321447
H261	H	0.863110	0.890086	-0.191575
H262	H	1.153018	0.262444	-0.066494
C263	C	0.684289	0.380536	0.077966
H264	H	0.690830	0.420804	0.072673
H265	H	0.624168	0.404076	0.059680
H266	H	0.706865	0.337217	0.126605
H267	H	1.017813	0.371881	0.326702
H268	H	0.256659	1.054360	-0.423158
H269	H	0.542681	0.890115	-0.325870
C270	C	0.780172	1.071571	-0.440140
H271	H	0.813935	1.085215	-0.426455
H272	H	0.804628	1.051800	-0.467439
H273	H	0.721943	1.118668	-0.467469
H274	H	0.017690	0.765097	-0.066518
H275	H	0.863124	0.262409	-0.066607
H276	H	0.919123	0.015300	0.010071
C277	C	0.940985	0.123834	0.011581
H278	H	0.930016	0.168916	0.010814
H279	H	0.985327	0.074527	0.054585
H280	H	0.959547	0.125757	-0.027054
C281	C	0.684282	0.008241	0.077962
H282	H	0.690822	0.048509	0.072670
H283	H	0.624163	0.031782	0.059669
H284	H	0.706849	-0.035075	0.126602
C285	C	0.619492	0.138180	-0.010758
H286	H	0.573908	0.184798	-0.013917
H287	H	0.603414	0.141649	-0.051797
H288	H	0.629208	0.090415	0.029843
C289	C	0.374553	0.786224	-0.077404
H290	H	0.314422	0.830243	-0.099401
H291	H	0.401845	0.789297	-0.045532
H292	H	0.401680	0.789297	-0.112409
H293	H	0.697366	-0.109907	0.067438
H294	H	0.183534	0.496903	0.067648
H295	H	0.476570	0.422969	0.104424
H296	H	0.697242	0.765104	-0.325785
C297	C	0.793982	0.749897	-0.622360
H298	H	0.793075	0.741779	-0.658571
H299	H	0.746202	0.803562	-0.639337
H300	H	0.847136	0.742753	-0.608846
C301	C	0.793920	0.749908	-0.495624
H302	H	0.792967	0.741801	-0.451308
H303	H	0.847068	0.742783	-0.501907
H304	H	0.746132	0.803571	-0.532373
H305	H	0.542797	0.496896	0.067357
