data_functionalizedCrystal
_audit_creation_method	'MofGen! by Chris Wilmer'
_symmetry_space_group_name_H-M	'P1'
_symmetry_Int_Tables_number	1
_symmetry_cell_setting	triclinic
loop_
_symmetry_equiv_pos_as_xyz
  x,y,z
_cell_length_a	18.627264
_cell_length_b	18.627226
_cell_length_c	18.627297
_cell_angle_alpha	90.002030
_cell_angle_beta	120.002957
_cell_angle_gamma	59.999880
loop_
_atom_site_label
_atom_site_type_symbol
_atom_site_fract_x
_atom_site_fract_y
_atom_site_fract_z
O1	O	0.513851	0.611876	0.021372
O2	O	0.366839	0.507483	-0.021244
O3	O	0.513848	0.507477	0.125765
O4	O	0.366843	0.611882	-0.125638
O5	O	0.633250	0.388074	0.125765
O6	O	0.486241	0.388080	-0.021245
O7	O	0.633253	0.492474	0.021371
Zn8	Zn	0.578705	0.421319	0.000063
Zn9	Zn	0.421388	0.578637	0.000064
O10	O	0.486244	0.492479	-0.125638
C11	C	0.644060	0.742972	0.031084
C12	C	0.593664	0.837669	0.024990
C13	C	0.731068	0.699370	0.031693
C14	C	0.644054	0.612974	0.031075
C15	C	0.593654	0.568676	0.024973
C16	C	0.731063	0.569569	0.031685
C17	C	0.774061	0.612971	0.031083
C18	C	0.862663	0.568670	0.024989
C19	C	0.601259	0.699372	0.031685
C20	C	0.226049	0.386976	-0.030927
C21	C	0.137451	0.431277	-0.024829
C22	C	0.269045	0.300576	-0.031532
C23	C	0.356046	0.386977	-0.030933
C24	C	0.406441	0.431279	-0.024841
C25	C	0.398845	0.300577	-0.031538
C26	C	0.356051	0.256974	-0.030927
C27	C	0.406450	0.162276	-0.024827
C28	C	0.269041	0.430382	-0.031539
C29	C	0.356048	0.612981	-0.386938
C30	C	0.406446	0.568679	-0.431237
C31	C	0.269041	0.699381	-0.430344
C32	C	0.356047	0.612983	-0.256938
C33	C	0.406443	0.568682	-0.162240
C34	C	0.269040	0.699383	-0.300542
C35	C	0.226046	0.742984	-0.386941
C36	C	0.137445	0.837682	-0.431243
C37	C	0.398845	0.569577	-0.300539
O38	O	1.104445	0.388078	-0.021233
O39	O	0.895664	0.492469	0.021387
O40	O	0.895639	0.492483	-0.125624
O41	O	1.104470	0.388064	0.125778
O42	O	0.895645	0.611883	-0.125616
O43	O	0.895669	0.611868	0.021396
O44	O	1.104451	0.507478	-0.021225
Zn45	Zn	1.000061	0.578630	0.000087
Zn46	Zn	1.000054	0.421316	0.000076
O47	O	1.104475	0.507464	0.125787
O48	O	0.486248	1.125675	-0.021233
O49	O	0.633262	0.874272	0.021386
O50	O	0.486246	1.021263	-0.125625
O51	O	0.633265	0.978684	0.125778
O52	O	0.366851	1.021261	-0.125613
O53	O	0.513867	0.874270	0.021398
O54	O	0.366853	1.125673	-0.021222
Zn55	Zn	0.421404	0.999971	0.000090
Zn56	Zn	0.578712	0.999974	0.000075
O57	O	0.513870	0.978682	0.125790
O58	O	-0.104360	1.125687	-0.492450
O59	O	0.104440	0.874286	-0.388045
O60	O	0.104446	1.021283	-0.388039
O61	O	-0.104366	0.978690	-0.492456
O62	O	0.104449	1.021279	-0.507439
O63	O	0.104443	0.874283	-0.507445
O64	O	-0.104357	1.125684	-0.611850
Zn65	Zn	0.000044	0.999983	-0.578605
Zn66	Zn	0.000040	0.999987	-0.421290
O67	O	-0.104363	0.978687	-0.611856
O68	O	0.513847	0.507478	-0.611835
O69	O	0.366845	0.611879	-0.507439
O70	O	0.513852	0.611875	-0.507429
O71	O	0.366840	0.507482	-0.611845
O72	O	0.633255	0.492471	-0.388026
O73	O	0.486249	0.492475	-0.388036
O74	O	0.633250	0.388074	-0.492432
Zn75	Zn	0.578707	0.421317	-0.421276
Zn76	Zn	0.421388	0.578636	-0.578595
O77	O	0.486244	0.388078	-0.492442
C78	C	0.774048	0.256971	0.387068
C79	C	0.862649	0.162273	0.431369
C80	C	0.731054	0.300573	0.430471
C81	C	0.644047	0.386973	0.257065
C82	C	0.593649	0.431274	0.162368
C83	C	0.601249	0.430378	0.300667
C84	C	0.644047	0.386973	0.387066
C85	C	0.593649	0.431274	0.431365
C86	C	0.731054	0.300573	0.300668
C87	C	0.643993	0.743013	-0.386907
C88	C	0.593594	0.837712	-0.431200
C89	C	0.601182	0.699418	-0.430314
C90	C	0.774012	0.613000	-0.256916
C91	C	0.862632	0.568689	-0.162221
C92	C	0.731004	0.569603	-0.300520
C93	C	0.643982	0.613017	-0.386915
C94	C	0.593572	0.568724	-0.431217
C95	C	0.731015	0.699401	-0.300512
C96	C	1.356129	0.386933	0.387079
C97	C	1.406534	0.431228	0.431382
C98	C	1.398933	0.300529	0.430477
C99	C	1.226102	0.386947	0.257078
C100	C	1.137483	0.431258	0.162384
C101	C	1.269104	0.300544	0.300673
C102	C	1.356126	0.256933	0.387068
C103	C	1.406529	0.162232	0.431360
C104	C	1.269106	0.430346	0.300684
C105	C	0.226039	1.030934	-0.386914
C106	C	0.137440	1.024832	-0.431209
C107	C	0.269028	1.031538	-0.430324
C108	C	0.356044	1.030946	-0.256919
C109	C	0.406446	1.024858	-0.162221
C110	C	0.398836	1.031551	-0.300525
C111	C	0.356034	1.030936	-0.386924
C112	C	0.406426	1.024836	-0.431229
C113	C	0.269038	1.031549	-0.300516
O114	O	0.366776	1.125724	-0.611780
O115	O	0.513780	0.874321	-0.507399
O116	O	0.366803	1.021313	-0.507367
O117	O	0.513753	0.978731	-0.611811
O118	O	0.486231	1.021300	-0.387968
O119	O	0.633208	0.874308	-0.387999
O120	O	0.486204	1.125711	-0.492380
Zn121	Zn	0.578668	1.000007	-0.421233
Zn122	Zn	0.421316	1.000024	-0.578547
O123	O	0.633181	0.978719	-0.492412
C124	C	0.644084	0.969009	0.387089
C125	C	0.593693	0.975108	0.431395
C126	C	0.731089	0.968406	0.430489
C127	C	0.644073	0.968999	0.257083
C128	C	0.593670	0.975087	0.162386
C129	C	0.731078	0.968396	0.300680
C130	C	0.774078	0.969011	0.387079
C131	C	0.862677	0.975113	0.431373
C132	C	0.601281	0.968394	0.300691
H133	H	0.767050	0.734378	0.032674
Br134	Br	0.515544	0.451263	-0.242184
H135	H	0.531228	0.501363	0.265652
H136	H	0.767042	0.265564	0.501462
Br137	Br	0.791079	0.966779	0.548809
H138	H	0.468857	0.265575	-0.032516
H139	H	0.766991	0.498613	-0.265514
H140	H	0.767023	0.265554	0.265657
Br141	Br	0.484482	0.757767	-0.548633
Br142	Br	0.791002	0.757736	-0.242157
H143	H	0.531242	0.734384	0.032654
H144	H	1.233115	0.265543	0.265658
H145	H	0.767062	0.967404	0.265671
Br146	Br	0.209046	1.033166	-0.548644
Br147	Br	0.209080	0.757736	-0.548655
Br148	Br	0.791033	0.451254	0.033304
H149	H	0.233102	1.032458	-0.265486
Br150	Br	0.209072	0.242230	-0.033165
H151	H	0.233060	0.734387	-0.265533
Br152	Br	1.515587	0.242198	0.548817
Br153	Br	1.209133	0.548664	0.242340
H154	H	0.233051	0.501373	-0.032522
Br155	Br	0.515481	1.033249	-0.242212
Br156	Br	0.484591	0.966763	0.242349
