data_functionalizedCrystal
_audit_creation_method	'MofGen! by Chris Wilmer'
_symmetry_space_group_name_H-M	'P1'
_symmetry_Int_Tables_number	1
_symmetry_cell_setting	triclinic
loop_
_symmetry_equiv_pos_as_xyz
  x,y,z
_cell_length_a	14.044220
_cell_length_b	19.288865
_cell_length_c	17.766277
_cell_angle_alpha	89.988397
_cell_angle_beta	89.995720
_cell_angle_gamma	88.162563
loop_
_atom_site_label
_atom_site_type_symbol
_atom_site_fract_x
_atom_site_fract_y
_atom_site_fract_z
O1	O	1.256998	0.167413	-0.062531
O2	O	0.981055	0.161372	-0.062549
O3	O	1.127000	0.063774	-0.062525
O4	O	1.111053	0.265010	-0.062556
O5	O	1.126975	0.063767	0.062664
O6	O	0.981029	0.161365	0.062639
O7	O	1.256973	0.167406	0.062658
Cu8	Cu	1.118999	0.164385	0.074079
Cu9	Cu	1.119029	0.164393	-0.073971
O10	O	1.111028	0.265003	0.062633
C11	C	1.126474	0.037862	0.000072
C12	C	1.124934	-0.039341	0.000078
C13	C	0.945739	0.158724	0.000043
C14	C	0.840547	0.150836	0.000036
C15	C	1.210568	-0.078535	0.000088
C16	C	1.209121	-0.151075	0.000076
C17	C	1.122035	-0.184418	0.000069
C18	C	1.036390	-0.145215	0.000056
C19	C	1.037839	-0.072676	0.000060
C20	C	1.053566	-0.297107	0.043916
C21	C	1.052120	-0.369644	0.043916
C22	C	1.117560	-0.408151	0.000052
C23	C	1.184463	-0.374113	-0.043802
C24	C	1.185912	-0.301574	-0.043797
C25	C	1.120453	-0.263074	0.000064
C26	C	1.201631	-0.526002	0.000048
C27	C	1.200181	-0.598543	0.000031
C28	C	1.027447	-0.592681	0.000019
C29	C	1.028900	-0.520142	0.000028
C30	C	1.115995	-0.486806	0.000046
C31	C	0.647947	0.136416	0.000053
C32	C	0.590075	0.192359	0.000048
C33	C	0.482906	0.184335	0.000058
C34	C	0.755126	0.144438	0.000044
C35	C	1.292289	0.170054	0.000064
C36	C	1.397481	0.177942	0.000065
C37	C	1.111554	0.290916	0.000035
C38	C	1.113094	0.368119	0.000023
N39	N	1.118984	0.164379	0.178209
N40	N	1.119051	0.164394	-0.178101
C41	C	1.183630	0.121187	0.217607
C42	C	1.183635	0.121184	0.296409
C43	C	1.119004	0.164386	0.335810
C44	C	1.054347	0.207580	0.296403
C45	C	1.054337	0.207577	0.217602
C46	C	1.106318	0.226858	0.460638
C47	C	1.106335	0.226863	0.539437
C48	C	1.119030	0.164396	0.578856
C49	C	1.131728	0.101922	0.539467
C50	C	1.131718	0.101919	0.460667
C51	C	1.119008	0.164394	0.421256
C52	C	1.183684	0.121197	0.703700
C53	C	1.183683	0.121193	0.782503
C54	C	1.054400	0.207595	0.782495
C55	C	1.054396	0.207593	0.703694
C56	C	1.119044	0.164395	0.664301
H57	H	1.281487	-0.051398	0.000100
H58	H	1.096001	0.277733	0.571501
H59	H	1.236279	0.086011	0.328493
H60	H	0.621016	0.246280	0.000036
H61	H	1.000274	-0.265760	0.079639
H62	H	0.617008	0.082499	0.000066
H63	H	1.142055	0.051051	0.428600
H64	H	1.240385	-0.273863	-0.079506
H65	H	1.001760	0.242767	0.671614
H66	H	1.236267	0.086011	0.185536
H67	H	1.142065	0.051055	0.571561
H68	H	0.968103	-0.040764	0.000053
H69	H	0.965484	-0.172367	0.000049
H70	H	1.237750	-0.405464	-0.079520
H71	H	1.095964	0.277729	0.428549
H72	H	1.236322	0.086020	0.671625
H73	H	1.236323	0.086017	0.814582
H74	H	1.001722	0.242754	0.328487
H75	H	1.001772	0.242768	0.814575
H76	H	1.001694	0.242749	0.185524
H77	H	1.272549	-0.498859	0.000059
H78	H	1.278856	-0.182993	0.000080
H79	H	1.269917	-0.630454	0.000034
H80	H	0.956540	-0.619828	0.000010
H81	H	0.959167	-0.488229	0.000024
H82	H	0.997640	-0.397352	0.079620
