data_functionalizedCrystal
_audit_creation_method	'MofGen! by Chris Wilmer'
_symmetry_space_group_name_H-M	'P1'
_symmetry_Int_Tables_number	1
_symmetry_cell_setting	triclinic
loop_
_symmetry_equiv_pos_as_xyz
  x,y,z
_cell_length_a	19.188924
_cell_length_b	10.489741
_cell_length_c	18.266242
_cell_angle_alpha	89.997069
_cell_angle_beta	90.006564
_cell_angle_gamma	96.159431
loop_
_atom_site_label
_atom_site_type_symbol
_atom_site_fract_x
_atom_site_fract_y
_atom_site_fract_z
O1	O	0.098502	-1.691849	0.060839
O2	O	0.107748	-1.320446	0.060851
O3	O	0.001541	-1.516870	0.060836
O4	O	0.204709	-1.495425	0.060854
O5	O	0.001539	-1.516849	-0.060926
O6	O	0.107746	-1.320425	-0.060911
O7	O	0.098500	-1.691828	-0.060923
Zn8	Zn	0.103122	-1.506123	-0.080249
Zn9	Zn	0.103126	-1.506151	0.080178
O10	O	0.204707	-1.495404	-0.060908
C11	C	0.107049	-1.272919	-0.000028
C12	C	0.104959	-1.131337	-0.000024
C13	C	-0.024476	-1.516166	-0.000045
C14	C	-0.101995	-1.514086	-0.000047
N15	N	0.103120	-1.506113	-0.189736
C16	C	-0.138399	-1.513127	0.066325
C17	C	-0.211234	-1.511154	0.066331
C18	C	-0.247665	-1.510166	-0.000040
C19	C	-0.211252	-1.511118	-0.066421
C20	C	-0.138417	-1.513078	-0.066425
N21	N	-0.366864	-1.579662	-0.049440
N22	N	-0.436055	-1.577803	-0.049432
C23	C	-0.467114	-1.504258	-0.000032
N24	N	-0.426370	-1.432659	0.049370
N25	N	-0.357173	-1.434524	0.049364
C26	C	-0.326643	-1.508040	-0.000043
C27	C	-0.582495	-1.501158	0.066351
C28	C	-0.655332	-1.499177	0.066354
C29	C	-0.655349	-1.499155	-0.066400
C30	C	-0.582513	-1.501123	-0.066401
C31	C	-0.546090	-1.502130	-0.000024
C32	C	0.230724	-1.496107	-0.000024
C33	C	0.308243	-1.498188	-0.000018
C34	C	0.099199	-1.739354	-0.000041
C35	C	0.101289	-1.880937	-0.000041
C36	C	0.037383	-1.064711	-0.000037
C37	C	0.069307	-0.971879	0.059999
C38	C	0.069320	-0.971892	-0.060049
C39	C	0.136911	-1.040370	0.060062
C40	C	0.136915	-1.040392	-0.060040
C41	C	0.168888	-0.947587	0.000011
C42	C	0.056107	-1.593149	-0.772020
C43	C	0.056109	-1.593151	-0.695375
C44	C	0.103119	-1.506152	-0.657049
C45	C	0.150144	-1.419167	-0.695373
C46	C	0.150146	-1.419176	-0.772017
N47	N	0.111411	-1.393235	-0.536718
N48	N	0.111405	-1.393230	-0.463910
C49	C	0.103118	-1.506121	-0.426126
N50	N	0.094823	-1.619020	-0.463901
N51	N	0.094825	-1.619023	-0.536716
C52	C	0.103123	-1.506133	-0.573942
C53	C	0.056101	-1.593108	-0.304703
C54	C	0.056108	-1.593111	-0.228057
C55	C	0.150139	-1.419116	-0.228057
C56	C	0.150136	-1.419124	-0.304702
C57	C	0.103114	-1.506119	-0.343020
N58	N	0.103123	-1.506171	0.189665
H59	H	-0.108748	-1.513943	0.120375
H60	H	0.017822	-1.663982	-0.664172
O61	O	-0.246500	-1.510237	0.130874
C62	C	-0.238791	-1.510301	0.262545
C63	C	-0.198773	-1.511402	0.189505
H64	H	-0.200219	-1.511214	0.309968
H65	H	-0.278827	-1.598625	0.265931
H66	H	-0.266954	-1.420146	0.265806
H67	H	-0.170568	-1.601498	0.186196
H68	H	-0.158778	-1.423017	0.186150
H69	H	-0.552838	-1.501971	0.120400
O70	O	0.195905	-1.334731	-0.190871
C71	C	0.316909	-1.259261	-0.167450
C72	C	0.265153	-1.354917	-0.209598
H73	H	0.372907	-1.275530	-0.182587
H74	H	0.308898	-1.274191	-0.106079
H75	H	0.307231	-1.157174	-0.182519
H76	H	0.274799	-1.457042	-0.194590
H77	H	0.273177	-1.339875	-0.270959
O78	O	0.010400	-1.677731	-0.341818
C79	C	-0.082905	-1.850233	-0.333730
C80	C	-0.031171	-1.754495	-0.291610
H81	H	-0.116539	-1.912303	-0.293156
H82	H	-0.052466	-1.913872	-0.369592
H83	H	-0.118044	-1.795329	-0.369634
H84	H	0.003980	-1.809294	-0.255667
H85	H	-0.061654	-1.690857	-0.255795
H86	H	0.188432	-1.348347	-0.803214
H87	H	0.188422	-1.348333	-0.664164
H88	H	0.224499	-0.896917	0.000049
H89	H	-0.684970	-1.498390	0.120405
O90	O	0.170894	-1.076638	-0.120662
C91	C	0.173713	-1.083202	-0.252485
C92	C	0.135162	-1.042107	-0.183885
H93	H	0.144848	-1.055276	-0.303618
H94	H	0.175401	-1.191500	-0.251656
H95	H	0.229468	-1.033172	-0.252964
H96	H	0.079391	-1.092047	-0.183362
H97	H	0.133532	-0.933797	-0.184741
H98	H	-0.685009	-1.498341	-0.120441
O99	O	0.035104	-0.935860	-0.120581
C100	C	-0.072918	-0.955030	-0.188948
C101	C	-0.034240	-0.995960	-0.120380
H102	H	-0.128994	-1.003581	-0.188801
H103	H	-0.044706	-0.984605	-0.240134
H104	H	-0.073696	-0.846513	-0.188643
H105	H	-0.033451	-1.104470	-0.120614
H106	H	-0.062464	-0.966290	-0.069224
H107	H	-0.108777	-1.513854	-0.120475
O108	O	-0.547259	-1.502130	-0.130942
C109	C	-0.554960	-1.501838	-0.262613
C110	C	-0.594973	-1.500727	-0.189570
H111	H	-0.593518	-1.500677	-0.310033
H112	H	-0.526827	-1.592018	-0.265983
H113	H	-0.514899	-1.413540	-0.265893
H114	H	-0.635068	-1.588963	-0.186241
H115	H	-0.623059	-1.410489	-0.186231
O116	O	0.171037	-1.076158	0.120709
C117	C	0.231532	-1.007650	0.231858
C118	C	0.192918	-0.966937	0.163198
H119	H	0.249221	-0.919371	0.266237
H120	H	0.279232	-1.056521	0.214690
H121	H	0.194683	-1.077226	0.265502
H122	H	0.229711	-0.897322	0.129523
H123	H	0.145210	-0.918138	0.180416
O124	O	0.010415	-1.677792	-0.809127
C125	C	-0.082870	-1.850329	-0.801035
C126	C	-0.031154	-1.754555	-0.758918
H127	H	-0.116502	-1.912399	-0.760459
H128	H	-0.052416	-1.913965	-0.836883
H129	H	-0.118012	-1.795455	-0.836952
H130	H	0.004000	-1.809324	-0.722961
H131	H	-0.061652	-1.690920	-0.723116
O132	O	-0.246702	-1.509985	-0.130848
C133	C	-0.321553	-1.397242	-0.207901
C134	C	-0.281456	-1.398390	-0.134901
H135	H	-0.349650	-1.307013	-0.211209
H136	H	-0.361638	-1.485502	-0.211236
H137	H	-0.283009	-1.398325	-0.255329
H138	H	-0.319947	-1.397262	-0.087432
H139	H	-0.241361	-1.310138	-0.131630
O140	O	-0.028909	-1.125391	0.000158
C141	C	-0.139405	-1.159474	0.063653
C142	C	-0.064348	-1.090690	0.063525
H143	H	-0.168085	-1.131423	0.114872
H144	H	-0.137227	-1.267652	0.063181
H145	H	-0.168486	-1.130197	0.012963
H146	H	-0.035224	-1.119861	0.114206
H147	H	-0.066577	-0.982525	0.063959
O148	O	0.195706	-1.334567	-0.342006
C149	C	0.209638	-1.160257	-0.428512
C150	C	0.157950	-1.255967	-0.386325
H151	H	0.179132	-1.096666	-0.464343
H152	H	0.244802	-1.215056	-0.464436
H153	H	0.243252	-1.098133	-0.387941
H154	H	0.124289	-1.318116	-0.426843
H155	H	0.122833	-1.201090	-0.350390
H156	H	0.040715	-0.941514	0.110752
H157	H	0.017824	-1.663946	-0.196860
