data_functionalizedCrystal
_audit_creation_method	'MofGen! by Chris Wilmer'
_symmetry_space_group_name_H-M	'P1'
_symmetry_Int_Tables_number	1
_symmetry_cell_setting	triclinic
loop_
_symmetry_equiv_pos_as_xyz
  x,y,z
_cell_length_a	15.297475
_cell_length_b	17.640280
_cell_length_c	17.638161
_cell_angle_alpha	70.377761
_cell_angle_beta	89.720045
_cell_angle_gamma	67.467946
loop_
_atom_site_label
_atom_site_type_symbol
_atom_site_fract_x
_atom_site_fract_y
_atom_site_fract_z
Zn1	Zn	1.340818	-0.403561	-0.568485
Zn2	Zn	1.417314	-0.578837	-0.412468
Zn3	Zn	1.228276	-0.417162	-0.416514
Zn4	Zn	1.228173	-0.527071	-0.526446
O5	O	1.303646	-0.481658	-0.480978
O6	O	1.477220	-0.442784	-0.563689
O7	O	1.424295	-0.584748	-0.301704
O8	O	1.211234	-0.296007	-0.455961
O9	O	1.533422	-0.571559	-0.449064
O10	O	1.293918	-0.286014	-0.567613
O11	O	1.285410	-0.465966	-0.304678
O12	O	1.102008	-0.415770	-0.415197
O13	O	1.211059	-0.483331	-0.643322
O14	O	1.101932	-0.496520	-0.495963
O15	O	1.293818	-0.392588	-0.674208
O16	O	1.424195	-0.691322	-0.408300
O17	O	1.285234	-0.653289	-0.492039
C18	C	1.069233	-0.452004	-0.451458
C19	C	0.968951	-0.439334	-0.438844
C20	C	0.686398	-0.572220	-0.571129
C21	C	0.780620	-0.584131	-0.582977
C22	C	0.827708	-0.547932	-0.546945
C23	C	0.780563	-0.499821	-0.499063
C24	C	0.686334	-0.487915	-0.487209
C25	C	0.827643	-0.463627	-0.463025
C26	C	0.780499	-0.415516	-0.415142
C27	C	0.686279	-0.403611	-0.403291
C28	C	0.639191	-0.439810	-0.439323
C29	C	0.921873	-0.475534	-0.474879
C30	C	0.921809	-0.391229	-0.390958
C31	C	0.827586	-0.379318	-0.379111
C32	C	1.363024	-0.703251	-0.445189
C33	C	1.388501	-0.798053	-0.429915
C34	C	1.110385	-1.011017	-0.597347
C35	C	1.134334	-1.100105	-0.582970
C36	C	1.279075	-1.139626	-0.495884
C37	C	1.255141	-1.050540	-0.510257
C38	C	1.170794	-0.986242	-0.560989
C39	C	1.315550	-1.025765	-0.473899
C40	C	1.291615	-0.936686	-0.488268
C41	C	1.207271	-0.872384	-0.538995
C42	C	1.146859	-0.897164	-0.575357
C43	C	1.399894	-1.090065	-0.423163
C44	C	1.460303	-1.065289	-0.386805
C45	C	1.436372	-0.976209	-0.401178
C46	C	1.352027	-0.911907	-0.451905
C47	C	1.496783	-0.951429	-0.364815
C48	C	1.472848	-0.862351	-0.379184
C49	C	1.328092	-0.822828	-0.466274
C50	C	1.538973	-0.511428	-0.510614
C51	C	1.639255	-0.524115	-0.523243
C52	C	1.243894	-0.430668	-0.688431
C53	C	1.218432	-0.408939	-0.776835
C54	C	1.244055	-0.259199	-0.516928
C55	C	1.218661	-0.164400	-0.532247
C56	C	1.363200	-0.532395	-0.274349
C57	C	1.388772	-0.553906	-0.186006
C58	C	1.109745	-0.317111	0.097189
C59	C	1.133796	-0.337338	0.180200
C60	C	1.279049	-0.460345	0.183129
C61	C	1.255008	-0.440131	0.100117
C62	C	1.170356	-0.368512	0.057154
C63	C	1.315619	-0.491532	0.060082
C64	C	1.291582	-0.471317	-0.022923
C65	C	1.206935	-0.399700	-0.065893
C66	C	1.146319	-0.348297	-0.025852
C67	C	1.400274	-0.563146	0.103046
C68	C	1.460885	-0.614548	0.063011
C69	C	1.436845	-0.594336	-0.019995
C70	C	1.352198	-0.522720	-0.062965
C71	C	1.497461	-0.645739	-0.060036
C72	C	1.473425	-0.625524	-0.143042
C73	C	1.328162	-0.502504	-0.145970
H74	H	0.819000	-0.623305	-0.621961
F75	F	0.636110	-0.352414	-0.352324
F76	F	1.181356	-0.378181	-0.154238
H77	H	1.077385	-0.289980	-0.060835
F78	F	1.057092	-0.828726	-0.629359
H79	H	0.648054	-0.601694	-0.600456
H80	H	0.960249	-0.514706	-0.513865
H81	H	1.084436	-0.295472	0.212793
F82	F	0.538905	-0.427129	-0.426721
H83	H	1.187780	-0.799852	-0.550686
H84	H	1.259227	-0.444188	-0.180954
F85	F	1.019657	-0.240876	0.051455
H86	H	0.789188	-0.340145	-0.340124
H87	H	1.041706	-0.958661	-0.638664
F88	F	1.070024	-1.126468	-0.621663
F89	F	1.368842	-1.208065	-0.441895
H90	H	1.347974	-0.518654	0.218121
H91	H	0.960148	-0.361755	-0.361617
H92	H	1.259413	-0.770472	-0.507591
F93	F	1.425856	-0.584657	0.191388
F94	F	1.425385	-1.184868	-0.407897
H95	H	1.528976	-1.117653	-0.345497
F96	F	0.927987	-0.560609	-0.559557
H97	H	1.565454	-1.003794	-0.323504
H98	H	1.522039	-0.842181	-0.349576
H99	H	1.566389	-0.704046	-0.025045
F100	F	1.550978	-0.690763	0.108743
H101	H	1.522781	-0.667379	-0.175640
