data_functionalizedCrystal
_audit_creation_method	'MofGen! by Chris Wilmer'
_symmetry_space_group_name_H-M	'P1'
_symmetry_Int_Tables_number	1
_symmetry_cell_setting	triclinic
loop_
_symmetry_equiv_pos_as_xyz
  x,y,z
_cell_length_a	16.992695
_cell_length_b	16.109301
_cell_length_c	14.586319
_cell_angle_alpha	90.000787
_cell_angle_beta	89.995905
_cell_angle_gamma	92.935148
loop_
_atom_site_label
_atom_site_type_symbol
_atom_site_fract_x
_atom_site_fract_y
_atom_site_fract_z
O1	O	0.100784	-1.109856	-0.076183
O2	O	0.113326	-0.868631	-0.076198
O3	O	-0.007087	-0.988277	-0.076183
O4	O	0.221197	-0.990211	-0.076198
O5	O	-0.007089	-0.988268	0.076298
O6	O	0.113324	-0.868622	0.076283
O7	O	0.100782	-1.109847	0.076298
Cu8	Cu	0.107053	-0.989234	0.090213
Cu9	Cu	0.107055	-0.989244	-0.090113
O10	O	0.221196	-0.990202	0.076283
C11	C	0.112817	-0.837618	0.000041
C12	C	0.111294	-0.745221	0.000035
C13	C	-0.036300	-0.985784	0.000057
C14	C	-0.123343	-0.978361	0.000056
C15	C	0.101291	-1.140860	0.000057
C16	C	0.102814	-1.233257	0.000057
C17	C	-0.173601	-1.049987	0.000062
C18	C	-0.255386	-1.043007	0.000052
C19	C	-0.286911	-0.964400	0.000045
C20	C	-0.236645	-0.892768	0.000037
C21	C	-0.154862	-0.899749	0.000039
C22	C	-0.530501	-0.935467	0.000030
C23	C	-0.612291	-0.928491	0.000030
C24	C	-0.631026	-1.078731	0.000045
C25	C	-0.549240	-1.085704	0.000053
C26	C	-0.498982	-1.014073	0.000040
N27	N	-0.370508	-0.957263	0.000038
N28	N	-0.415387	-1.021210	0.000040
C29	C	0.250408	-0.992694	0.000041
C30	C	0.337451	-1.000118	0.000036
N31	N	0.107051	-0.989232	0.217045
C32	C	0.179203	-0.527480	0.000042
C33	C	0.177766	-0.440664	0.000048
C34	C	0.034899	-0.451005	0.000053
C35	C	0.036337	-0.537819	0.000054
C36	C	0.108492	-0.576055	0.000043
C37	C	0.105616	-0.402424	0.000049
C38	C	0.104057	-0.308294	0.000055
C39	C	0.110051	-0.670191	0.000039
N40	N	0.107051	-0.989252	-0.216945
C41	C	0.053750	-1.042231	0.452058
C42	C	0.053748	-1.042233	0.548039
C43	C	0.160355	-0.936247	0.548036
C44	C	0.160352	-0.936241	0.452056
C45	C	0.107051	-0.989238	0.404070
C46	C	0.107051	-0.989246	0.596030
C47	C	0.107050	-0.989248	0.700098
C48	C	0.107051	-0.989235	0.299996
H49	H	-0.147941	-1.113997	0.000074
F50	F	-0.270198	-0.809109	0.000018
F51	F	-0.002981	-1.098633	0.400991
H52	H	0.203757	-0.893084	0.412982
H53	H	0.235347	-0.401118	0.000048
H54	H	0.237956	-0.558608	0.000040
H55	H	-0.296304	-1.101332	0.000059
H56	H	0.203753	-0.893100	0.587116
F57	F	-0.515696	-1.169369	0.000038
F58	F	-0.002984	-1.098634	0.599108
H59	H	-0.637954	-0.864477	0.000039
F60	F	-0.041888	-0.410304	0.000060
H61	H	-0.671954	-1.137048	0.000053
F62	F	-0.101373	-0.823515	0.000031
H63	H	-0.489590	-0.877139	0.000020
F64	F	-0.038928	-0.589519	0.000061
