data_functionalizedCrystal
_audit_creation_method	'MofGen! by Chris Wilmer'
_symmetry_space_group_name_H-M	'P1'
_symmetry_Int_Tables_number	1
_symmetry_cell_setting	triclinic
loop_
_symmetry_equiv_pos_as_xyz
  x,y,z
_cell_length_a	8.597314
_cell_length_b	15.995350
_cell_length_c	7.681481
_cell_angle_alpha	84.260013
_cell_angle_beta	76.526409
_cell_angle_gamma	95.581337
loop_
_atom_site_label
_atom_site_type_symbol
_atom_site_fract_x
_atom_site_fract_y
_atom_site_fract_z
O1	O	-2.099840	0.115801	0.172107
O2	O	-1.635781	0.129140	0.101711
O3	O	-1.880496	0.000583	0.138835
O4	O	-1.855125	0.244359	0.134983
O5	O	-1.910616	-0.015276	0.436262
O6	O	-1.665901	0.113281	0.399138
O7	O	-2.129960	0.099942	0.469534
Zn8	Zn	-1.902713	0.104094	0.481559
Zn9	Zn	-1.863028	0.124989	0.089686
O10	O	-1.885245	0.228500	0.432410
C11	C	-1.591458	0.120661	0.241416
C12	C	-1.414514	0.119014	0.214574
C13	C	-1.894507	-0.038541	0.287386
C14	C	-1.891361	-0.131491	0.286899
C15	C	-1.880069	-0.469239	0.285192
C16	C	-1.705720	-0.421765	0.258087
C17	C	-1.708933	-0.325110	0.259234
C18	C	-1.885670	-0.301678	0.286038
C19	C	-1.988832	-0.351814	0.468920
C20	C	-1.984468	-0.448457	0.468398
C21	C	-1.953816	-0.430780	0.130714
C22	C	-1.953547	-0.333715	0.128463
C23	C	-1.888846	-0.206981	0.286523
C24	C	-1.876900	-0.563937	0.284719
C25	C	-1.174284	0.108420	0.329832
C26	C	-1.351229	0.110065	0.356683
C27	C	-1.871234	0.267624	0.283855
C28	C	-1.874378	0.360574	0.284331
N29	N	-1.929809	0.089833	0.749004
N30	N	-1.835945	0.139243	-0.177757
H31	H	-1.333318	0.125416	0.072357
N32	N	-1.453092	0.102023	0.535076
N33	N	-1.601510	0.103411	0.557370
H34	H	-1.673463	0.097730	0.683363
H35	H	-1.623727	-0.433800	0.125723
N36	N	-1.634119	-0.454451	0.396834
N37	N	-1.710937	-0.512557	0.515591
H38	H	-1.660373	-0.535644	0.613585
H39	H	-1.653258	-0.303747	0.370872
N40	N	-1.608690	-0.281315	0.093640
N41	N	-1.535858	-0.322089	-0.023587
H42	H	-1.465049	-0.291163	-0.140542
N43	N	-1.921961	-0.479900	0.615749
N44	N	-1.881854	-0.430453	0.718252
H45	H	-1.837704	-0.452655	0.822322
H46	H	-1.740130	0.189676	0.732511
N47	N	-2.050015	0.026566	0.861597
N48	N	-2.066813	0.017731	1.028733
H49	H	-2.151703	-0.026953	1.108254
N50	N	-2.152532	-0.334535	0.501600
N51	N	-2.263585	-0.393505	0.517908
H52	H	-2.379200	-0.381301	0.540993
H53	H	-1.941927	-0.330170	0.586259
H54	H	-2.113203	-0.481119	0.495509
H55	H	-1.883799	-0.444455	-0.006660
N56	N	-1.858831	-0.291061	-0.041099
N57	N	-1.741758	-0.237257	-0.046014
H58	H	-1.674859	-0.207128	-0.165765
N59	N	-2.113916	-0.313742	0.140109
N60	N	-2.181096	-0.275405	0.265300
H61	H	-2.294361	-0.261295	0.273534
H62	H	-2.082197	-0.462483	0.149060
