data_functionalizedCrystal
_audit_creation_method	'MofGen! by Chris Wilmer'
_symmetry_space_group_name_H-M	'P1'
_symmetry_Int_Tables_number	1
_symmetry_cell_setting	triclinic
loop_
_symmetry_equiv_pos_as_xyz
  x,y,z
_cell_length_a	25.639242
_cell_length_b	12.759400
_cell_length_c	12.759393
_cell_angle_alpha	90.023884
_cell_angle_beta	90.031512
_cell_angle_gamma	89.998974
loop_
_atom_site_label
_atom_site_type_symbol
_atom_site_fract_x
_atom_site_fract_y
_atom_site_fract_z
Zn1	Zn	0.799401	-0.418341	0.594365
Zn2	Zn	0.799364	-0.594056	0.418705
Zn3	Zn	0.711963	-0.418378	0.418668
Zn4	Zn	0.711977	-0.593964	0.594310
O5	O	0.755676	-0.506185	0.506512
O6	O	0.872562	-0.441672	0.571102
O7	O	0.787749	-0.570806	0.271679
O8	O	0.723572	-0.271352	0.441981
O9	O	0.872535	-0.570770	0.442046
O10	O	0.787813	-0.271325	0.571065
O11	O	0.723536	-0.441736	0.271651
O12	O	0.638800	-0.441647	0.441928
O13	O	0.723595	-0.570613	0.741338
O14	O	0.638810	-0.570650	0.570972
O15	O	0.787825	-0.441583	0.741379
O16	O	0.787762	-0.741065	0.441992
O17	O	0.723559	-0.740998	0.571008
C18	C	0.619834	-0.506143	0.506441
C19	C	0.561720	-0.506151	0.506435
C20	C	0.755672	-0.779152	0.506521
C21	C	0.755718	-0.895929	0.506561
C22	C	0.755716	-0.506084	0.780545
C23	C	0.755732	-0.506041	0.897322
C24	C	0.201371	-0.573469	0.573641
C25	C	0.146766	-0.573475	0.573658
O26	O	0.118542	-0.630660	0.630739
N27	N	0.119437	-0.506214	0.506580
C28	C	0.146716	-0.438934	0.439490
O29	O	0.118456	-0.381723	0.382437
C30	C	0.201319	-0.438923	0.439479
C31	C	0.228645	-0.506196	0.506553
C32	C	0.228697	-0.640736	0.640711
C33	C	0.283298	-0.640730	0.640693
C34	C	0.310572	-0.573458	0.573605
C35	C	0.283246	-0.506191	0.506535
C36	C	0.228596	-0.371639	0.372394
C37	C	0.283203	-0.371633	0.372390
C38	C	0.310529	-0.438906	0.439464
C39	C	0.365120	-0.438913	0.439429
N40	N	0.392449	-0.506175	0.506506
C41	C	0.365175	-0.573447	0.573594
C42	C	0.032045	-0.438961	0.439518
C43	C	-0.022557	-0.438976	0.439522
C44	C	-0.022503	-0.573516	0.573692
C45	C	0.032101	-0.573505	0.573682
C46	C	0.059374	-0.506222	0.506595
C47	C	0.479840	-0.573432	0.573550
C48	C	0.534446	-0.573423	0.573523
C49	C	0.534386	-0.438880	0.439357
C50	C	0.479786	-0.438892	0.439380
C51	C	0.452514	-0.506171	0.506485
O52	O	0.393380	-0.381755	0.382380
O53	O	0.393441	-0.630639	0.630647
C54	C	0.892049	-0.506227	0.506584
C55	C	0.950164	-0.506245	0.506615
C56	C	0.755695	-0.232152	0.506525
C57	C	0.755703	-0.115375	0.506531
C58	C	0.722262	-0.060526	0.439329
C59	C	0.722268	0.049198	0.439347
C60	C	0.789161	0.049214	0.573770
C61	C	0.789152	-0.060508	0.573757
C62	C	0.755668	-0.506209	0.233545
C63	C	0.755752	-0.505957	0.116768
C64	C	0.789180	-0.438844	0.952207
C65	C	0.789188	-0.438799	1.061931
C66	C	0.722301	-0.573156	1.061876
C67	C	0.722290	-0.573195	0.952154
H68	H	0.556692	-0.628209	0.628144
H69	H	-0.044719	-0.628290	0.628323
C70	C	0.564398	-0.364872	0.365577
N71	N	0.587005	-0.309119	0.310014
H72	H	0.305406	-0.316836	0.317765
C73	C	0.685492	-0.647118	0.891777
N74	N	0.657775	-0.702791	0.846302
C75	C	0.685476	0.109528	0.365428
N76	N	0.657760	0.154967	0.309753
H77	H	0.816424	-0.384079	1.106613
C78	C	0.313349	-0.714732	0.714486
N79	N	0.335981	-0.770472	0.770073
H80	H	0.695075	-0.627833	1.106534
H81	H	0.816383	-0.105167	0.628488
C82	C	0.449849	-0.647450	0.647362
N83	N	0.427261	-0.703207	0.702950
H84	H	0.457535	-0.384114	0.384761
C85	C	0.825962	-0.364963	0.891896
N86	N	0.853666	-0.309310	0.846472
C87	C	0.062154	-0.647504	0.647474
N88	N	0.084788	-0.703241	0.703060
H89	H	0.206496	-0.695517	0.695348
C90	C	-0.052610	-0.364977	0.365729
N91	N	-0.075244	-0.309232	0.310151
H92	H	0.206356	-0.316860	0.317772
C93	C	0.062041	-0.364952	0.365700
N94	N	0.084631	-0.309209	0.310100
C95	C	0.685464	-0.120876	0.365388
N96	N	0.657744	-0.166328	0.309696
H97	H	0.816394	0.093898	0.628502
