data_functionalizedCrystal
_audit_creation_method	'MofGen! by Chris Wilmer'
_symmetry_space_group_name_H-M	'P1'
_symmetry_Int_Tables_number	1
_symmetry_cell_setting	triclinic
loop_
_symmetry_equiv_pos_as_xyz
  x,y,z
_cell_length_a	12.759395
_cell_length_b	16.625546
_cell_length_c	12.759387
_cell_angle_alpha	89.964440
_cell_angle_beta	89.980569
_cell_angle_gamma	90.022313
loop_
_atom_site_label
_atom_site_type_symbol
_atom_site_fract_x
_atom_site_fract_y
_atom_site_fract_z
Zn1	Zn	1.606212	-0.320962	-0.593940
Zn2	Zn	2.106212	0.179038	-0.093940
Zn3	Zn	1.606079	-0.455818	-0.418246
Zn4	Zn	2.106079	0.044182	0.081754
Zn5	Zn	1.430510	-0.321002	-0.418280
Zn6	Zn	1.930510	0.178998	0.081720
Zn7	Zn	1.430479	-0.455756	-0.593888
Zn8	Zn	1.930479	0.044244	-0.093888
O9	O	1.518320	-0.388385	-0.506089
O10	O	2.018320	0.111615	-0.006089
O11	O	1.753215	-0.338860	-0.570641
O12	O	2.253215	0.161140	-0.070641
O13	O	1.582747	-0.437977	-0.271229
O14	O	2.082747	0.062023	0.228771
O15	O	1.453886	-0.208165	-0.441618
O16	O	1.953886	0.291835	0.058382
O17	O	1.753117	-0.437938	-0.441559
O18	O	2.253117	0.062062	0.058441
O19	O	1.582974	-0.208135	-0.570674
O20	O	2.082974	0.291865	-0.070674
O21	O	1.453757	-0.338928	-0.271255
O22	O	1.953757	0.161072	0.228745
O23	O	1.283485	-0.338869	-0.441568
O24	O	1.783485	0.161131	0.058432
O25	O	1.453833	-0.437833	-0.740916
O26	O	1.953833	0.062167	-0.240916
O27	O	1.283462	-0.437872	-0.570586
O28	O	1.783462	0.062128	-0.070586
O29	O	1.582943	-0.338801	-0.740954
O30	O	2.082943	0.161199	-0.240954
O31	O	1.582716	-0.568642	-0.441509
O32	O	2.082716	-0.068642	0.058491
O33	O	1.453703	-0.568597	-0.570553
O34	O	1.953703	-0.068597	-0.070553
C35	C	1.245352	-0.388369	-0.506076
C36	C	1.745352	0.111631	-0.006076
C37	C	1.128576	-0.388381	-0.506095
C38	C	1.628576	0.111619	-0.006095
C39	C	1.128658	-0.285379	-0.640725
C40	C	1.628658	0.214621	-0.140725
C41	C	1.073839	-0.233887	-0.708048
C42	C	1.573839	0.266113	-0.208048
C43	C	0.964117	-0.233901	-0.708062
C44	C	1.464117	0.266099	-0.208062
C45	C	0.909213	-0.285411	-0.640742
C46	C	1.409213	0.214589	-0.140742
C47	C	0.964032	-0.336903	-0.573418
C48	C	1.464032	0.163097	-0.073418
C49	C	1.073756	-0.336884	-0.573415
C50	C	1.573756	0.163116	-0.073415
C51	C	0.963949	-0.439900	-0.438785
C52	C	1.463949	0.060100	0.061215
C53	C	1.073671	-0.439891	-0.438775
C54	C	1.573671	0.060109	0.061225
C55	C	0.909045	-0.491410	-0.371465
C56	C	1.409045	0.008590	0.128535
C57	C	0.963864	-0.542907	-0.304145
C58	C	1.463864	-0.042907	0.195855
C59	C	1.073593	-0.542891	-0.304136
C60	C	1.573593	-0.042891	0.195864
C61	C	1.128491	-0.491383	-0.371452
C62	C	1.628491	0.008617	0.128548
C63	C	1.518220	-0.597876	-0.506045
C64	C	2.018220	-0.097876	-0.006045
C65	C	1.518274	-0.687497	-0.506061
C66	C	2.018274	-0.187497	-0.006061
C67	C	1.518457	-1.015672	-0.506170
C68	C	2.018457	-0.515672	-0.006170
C69	C	1.518403	-0.924364	-0.506143
C70	C	2.018403	-0.424364	-0.006143
C71	C	1.518365	-0.851587	-0.506115
C72	C	2.018365	-0.351587	-0.006115
C73	C	1.518312	-0.760273	-0.506089
C74	C	2.018312	-0.260273	-0.006089
C75	C	1.792353	-0.388401	-0.506102
C76	C	2.292353	0.111599	-0.006102
C77	C	1.909130	-0.388409	-0.506108
C78	C	2.409130	0.111591	-0.006108
C79	C	1.518448	-0.178076	-0.506156
C80	C	2.018448	0.321924	-0.006156
C81	C	1.518503	-0.088455	-0.506184
C82	C	2.018503	0.411545	-0.006184
C83	C	1.518399	-0.388306	-0.780122
C84	C	2.018399	0.111694	-0.280122
C85	C	1.518433	-0.388272	-0.896899
C86	C	2.018433	0.111728	-0.396899
C87	C	1.652885	-0.285156	-0.896958
C88	C	2.152885	0.214844	-0.396958
C89	C	1.720125	-0.233586	-0.951849
C90	C	2.220125	0.266414	-0.451849
C91	C	1.720151	-0.233557	-1.061571
C92	C	2.220151	0.266443	-0.561571
C93	C	1.652927	-0.285101	-1.116404
C94	C	2.152927	0.214899	-0.616404
C95	C	1.585686	-0.336671	-1.061514
C96	C	2.085686	0.163329	-0.561514
C97	C	1.585670	-0.336697	-0.951790
C98	C	2.085670	0.163303	-0.451790
C99	C	1.451230	-0.439782	-1.061454
C100	C	1.951230	0.060218	-0.561454
C101	C	1.451209	-0.439817	-0.951733
C102	C	1.951209	0.060183	-0.451733
C103	C	1.384006	-0.491326	-1.116288
C104	C	1.884006	0.008674	-0.616288
C105	C	1.316769	-0.542902	-1.061398
C106	C	1.816769	-0.042902	-0.561398
C107	C	1.316747	-0.542929	-0.951669
C108	C	1.816747	-0.042929	-0.451669
C109	C	1.383968	-0.491386	-0.896842
C110	C	1.883968	0.008614	-0.396842
C111	C	1.518301	-0.388405	-0.233121
C112	C	2.018301	0.111595	0.266879
C113	C	1.518471	-0.388212	-0.116345
C114	C	2.018471	0.111788	0.383655
H115	H	1.217832	-0.491361	-0.371446
H116	H	1.717832	0.008639	0.128554
H117	H	1.384028	-0.491296	-1.205629
H118	H	1.884028	0.008704	-0.705629
C119	C	0.788348	-0.491423	-0.371480
C120	C	1.288348	0.008577	0.128520
N121	N	0.697438	-0.491436	-0.371493
N122	N	1.197438	0.008564	0.128507
H123	H	1.652881	-0.285183	-0.807617
H124	H	2.152881	0.214817	-0.307617
C125	C	1.794068	-0.176889	-0.891524
C126	C	2.294068	0.323111	-0.391524
N127	N	1.849760	-0.134184	-0.846090
N128	N	2.349760	0.365816	-0.346090
C129	C	1.242822	-0.599587	-1.121721
C130	C	1.742822	-0.099587	-0.621721
N131	N	1.187123	-0.642284	-1.167161
N132	N	1.687123	-0.142284	-0.667161
C133	C	0.903463	-0.599560	-0.230100
C134	C	1.403463	-0.099560	0.269900
N135	N	0.857964	-0.642233	-0.174329
N136	N	1.357964	-0.142233	0.325671
H137	H	1.774898	-0.191559	-1.106262
H138	H	2.274898	0.308441	-0.606262
C139	C	1.652959	-0.285066	-1.237101
C140	C	2.152959	0.214934	-0.737101
N141	N	1.652987	-0.285043	-1.328012
N142	N	2.152987	0.214957	-0.828012
C143	C	1.134242	-0.177227	-0.782095
C144	C	1.634242	0.322773	-0.282095
N145	N	1.179735	-0.134550	-0.837865
N146	N	1.679735	0.365450	-0.337865
H147	H	1.118220	-0.584819	-0.249309
H148	H	1.618220	-0.084819	0.250691
H149	H	0.919483	-0.191968	-0.762876
H150	H	1.419483	0.308032	-0.262876
H151	H	1.383961	-0.491408	-0.807501
H152	H	1.883961	0.008592	-0.307501
C153	C	1.249355	-0.285364	-0.640724
C154	C	1.749355	0.214636	-0.140724
N155	N	1.340265	-0.285351	-0.640725
N156	N	1.840265	0.214649	-0.140725
C157	C	0.788516	-0.285417	-0.640752
C158	C	1.288516	0.214583	-0.140752
N159	N	0.697605	-0.285423	-0.640759
N160	N	1.197605	0.214577	-0.140759
C161	C	1.242774	-0.599660	-0.891298
C162	C	1.742774	-0.099660	-0.391298
N163	N	1.187056	-0.642392	-0.845831
N164	N	1.687056	-0.142392	-0.345831
