data_functionalizedCrystal
_audit_creation_method	'MofGen! by Chris Wilmer'
_symmetry_space_group_name_H-M	'P1'
_symmetry_Int_Tables_number	1
_symmetry_cell_setting	triclinic
loop_
_symmetry_equiv_pos_as_xyz
  x,y,z
_cell_length_a	17.000383
_cell_length_b	15.500215
_cell_length_c	13.339070
_cell_angle_alpha	92.270203
_cell_angle_beta	95.614799
_cell_angle_gamma	93.374105
loop_
_atom_site_label
_atom_site_type_symbol
_atom_site_fract_x
_atom_site_fract_y
_atom_site_fract_z
O1	O	1.068147	0.072004	0.039592
O2	O	0.844366	0.071992	0.075596
O3	O	0.930573	0.071994	-0.087386
O4	O	0.981939	0.072002	0.202573
O5	O	0.922271	-0.071896	-0.095041
O6	O	0.836063	-0.071898	0.067941
O7	O	1.059844	-0.071886	0.031936
Cu8	Cu	0.947196	-0.085030	0.049240
Cu9	Cu	0.957014	0.085136	0.058293
O10	O	0.973637	-0.071888	0.194918
C11	C	0.810988	0.000046	0.073703
C12	C	0.723899	0.000041	0.079452
N13	N	0.940295	-0.204716	0.042871
C14	C	0.231883	0.000075	0.116583
C15	C	0.313711	0.000074	0.111173
C16	C	0.343966	0.000065	0.017258
C17	C	0.292387	0.000065	-0.071251
C18	C	0.210561	0.000072	-0.065839
C19	C	0.590495	0.000049	-0.003645
C20	C	0.672327	0.000039	-0.009050
C21	C	0.693646	0.000049	0.173374
C22	C	0.611817	0.000051	0.178777
C23	C	0.560246	0.000056	0.090269
C24	C	0.427607	0.000061	0.011725
C25	C	0.476607	0.000066	0.095803
C26	C	0.998324	-0.249985	0.096463
C27	C	0.993114	-0.340558	0.091640
C28	C	0.929872	-0.385861	0.033229
C29	C	0.871841	-0.340586	-0.020370
C30	C	0.877054	-0.250014	-0.015551
C31	C	0.911101	-0.659331	0.015873
C32	C	0.905891	-0.749909	0.011061
C33	C	1.027166	-0.749875	0.123069
C34	C	1.032371	-0.659301	0.127888
C35	C	0.974341	-0.614034	0.074285
C36	C	0.924544	-0.478442	0.028299
C37	C	0.979673	-0.521455	0.079209
C38	C	1.093222	0.000062	0.033830
C39	C	1.180312	0.000072	0.028081
C40	C	0.917745	0.000050	-0.128131
C41	C	0.891882	0.000052	-0.238132
N42	N	0.963919	0.204822	0.064653
C43	C	1.092980	0.000062	-0.620810
C44	C	1.117282	0.000055	-0.517459
C45	C	1.060934	0.000055	-0.447623
C46	C	0.980281	0.000061	-0.481147
C47	C	0.955976	0.000061	-0.584508
C48	C	0.923930	0.000053	-0.411320
C49	C	0.843276	0.000059	-0.444844
C50	C	0.818976	0.000060	-0.548196
C51	C	0.875324	0.000060	-0.618033
C52	C	0.948234	0.000053	-0.307959
C53	C	0.811230	0.000052	-0.271657
C54	C	0.786928	0.000059	-0.375008
C55	C	0.986465	0.000058	0.235663
C56	C	1.012328	0.000062	0.345665
H57	H	0.207257	0.000075	0.193059
H58	H	0.587191	0.000061	0.255253
Cl59	Cl	0.145727	0.000070	-0.177104
H60	H	1.083871	-0.622422	0.175449
Cl61	Cl	0.717582	0.000055	-0.590339
H62	H	1.138849	0.000055	-0.677679
H63	H	0.855541	0.000069	-0.702191
H64	H	0.548515	0.000051	-0.075715
H65	H	0.452249	0.000051	-0.064740
H66	H	0.721259	0.000063	-0.402318
Cl67	Cl	1.077831	-0.193042	0.169899
Cl68	Cl	1.100113	-0.806788	0.190449
H69	H	0.317027	0.000063	-0.147718
Cl70	Cl	0.758481	0.000050	0.284635
H71	H	0.451971	0.000077	0.172268
H72	H	1.040368	-0.377412	0.135278
H73	H	0.765346	0.000047	-0.214795
H74	H	0.355699	0.000083	0.183241
H75	H	0.854387	-0.786792	-0.036504
Cl76	Cl	0.710359	0.000029	-0.127123
Cl77	Cl	0.838126	-0.602435	-0.051472
Cl78	Cl	0.792337	-0.397539	-0.093803
H79	H	1.031166	-0.484565	0.126763
Cl80	Cl	0.804106	-0.193104	-0.082938
H81	H	0.873052	-0.515338	-0.019258
Cl82	Cl	1.049623	0.000046	-0.265827
H83	H	1.080726	0.000049	-0.363471
H84	H	1.182950	0.000049	-0.490172
