data_functionalizedCrystal
_audit_creation_method	'MofGen! by Chris Wilmer'
_symmetry_space_group_name_H-M	'P1'
_symmetry_Int_Tables_number	1
_symmetry_cell_setting	triclinic
loop_
_symmetry_equiv_pos_as_xyz
  x,y,z
_cell_length_a	19.805407
_cell_length_b	14.908520
_cell_length_c	19.805399
_cell_angle_alpha	93.269050
_cell_angle_beta	89.983114
_cell_angle_gamma	93.320773
loop_
_atom_site_label
_atom_site_type_symbol
_atom_site_fract_x
_atom_site_fract_y
_atom_site_fract_z
Zn1	Zn	1.019185	-0.359168	-0.398269
Zn2	Zn	1.012581	-0.510037	-0.291612
Zn3	Zn	0.906004	-0.359197	-0.285095
Zn4	Zn	0.899441	-0.509986	-0.404757
O5	O	0.959303	-0.434597	-0.344933
O6	O	1.113026	-0.379191	-0.384133
O7	O	0.998426	-0.490062	-0.196032
O8	O	0.926528	-0.232948	-0.294665
O9	O	1.108173	-0.490034	-0.305773
O10	O	1.009682	-0.232927	-0.377813
O11	O	0.920124	-0.379240	-0.191244
O12	O	0.810417	-0.379190	-0.300956
O13	O	0.915343	-0.489946	-0.498611
O14	O	0.805596	-0.489974	-0.388871
O15	O	1.003319	-0.379141	-0.493845
O16	O	0.992063	-0.636275	-0.312064
O17	O	0.908939	-0.636238	-0.395190
C18	C	0.783448	-0.434580	-0.344910
C19	C	0.708215	-0.434594	-0.344918
C20	C	0.670374	-0.492366	-0.390629
C21	C	0.599686	-0.492368	-0.390638
C22	C	0.566839	-0.434601	-0.344933
C23	C	0.604685	-0.376823	-0.299220
C24	C	0.675373	-0.376817	-0.299214
C25	C	0.319611	-0.376843	-0.299243
C26	C	0.248919	-0.376854	-0.299251
C27	C	0.243924	-0.492393	-0.390667
C28	C	0.314612	-0.492388	-0.390662
C29	C	0.352452	-0.434606	-0.344951
C30	C	0.429100	-0.434604	-0.344942
C31	C	0.490192	-0.434607	-0.344938
C32	C	0.949091	-0.668990	-0.355053
C33	C	0.944783	-0.769265	-0.359405
C34	C	1.023335	-0.957670	-0.281093
C35	C	1.019291	-1.051887	-0.285180
C36	C	0.932654	-1.051917	-0.371669
C37	C	0.936698	-0.957700	-0.367582
C38	C	0.982040	-0.910580	-0.322292
C39	C	0.986081	-0.816361	-0.318202
C40	C	0.899447	-0.816394	-0.404694
C41	C	0.895403	-0.910610	-0.408781
C42	C	1.135845	-0.434615	-0.344956
C43	C	1.211077	-0.434623	-0.344966
C44	C	0.959335	-0.434534	-0.521473
C45	C	0.959349	-0.434508	-0.596704
C46	C	0.969574	-0.199288	-0.334788
C47	C	0.973951	-0.099014	-0.330465
C48	C	0.918590	-0.376797	-0.629554
C49	C	0.918600	-0.376780	-0.700242
C50	C	0.959374	-0.434469	-0.738078
C51	C	1.000134	-0.492185	-0.705223
C52	C	1.000120	-0.492207	-0.634537
C53	C	1.000192	-0.492101	-0.990293
C54	C	1.000204	-0.492073	-1.060984
C55	C	0.918672	-0.376674	-1.055998
C56	C	0.918658	-0.376695	-0.985312
C57	C	0.959415	-0.434415	-0.952463
C58	C	0.959403	-0.434435	-0.875816
C59	C	0.959390	-0.434445	-0.814724
C60	C	0.959313	-0.434594	-0.169077
C61	C	0.959441	-0.434367	-0.093835
H62	H	0.222177	-0.329808	-0.262032
C63	C	1.073208	-0.905833	-0.231274
C64	C	1.129112	-0.840975	-0.257841
C65	C	1.178986	-0.789140	-0.208022
C66	C	1.172955	-0.802164	-0.131636
C67	C	1.117048	-0.867026	-0.105066
C68	C	1.067175	-0.918860	-0.154885
H69	H	1.133578	-0.831331	-0.314390
H70	H	1.220371	-0.741125	-0.227692
H71	H	1.209875	-0.763793	-0.094757
H72	H	1.112582	-0.876669	-0.048517
H73	H	1.025789	-0.966875	-0.135215
H74	H	0.865820	-0.778042	-0.438239
C75	C	0.717002	-0.313269	-0.248931
C76	C	0.768688	-0.242487	-0.275292
C77	C	0.810318	-0.178933	-0.225010
C78	C	0.800260	-0.186161	-0.148368
C79	C	0.748572	-0.256945	-0.122003
C80	C	0.706942	-0.320499	-0.172285
H81	H	0.776135	-0.237135	-0.332030
H82	H	0.848581	-0.126534	-0.244527
H83	H	0.831077	-0.139114	-0.111146
H84	H	0.741124	-0.262298	-0.065265
H85	H	0.668679	-0.372898	-0.152768
C86	C	0.350741	-0.555932	-0.440939
C87	C	0.396244	-0.626707	-0.414576
C88	C	0.432372	-0.690250	-0.464857
C89	C	0.422998	-0.683017	-0.541499
C90	C	0.377494	-0.612239	-0.567866
C91	C	0.341365	-0.548696	-0.517585
H92	H	0.403185	-0.632064	-0.357837
H93	H	0.466057	-0.742645	-0.445338
H94	H	0.449742	-0.730055	-0.578720
H95	H	0.370552	-0.606882	-0.624605
H96	H	0.307680	-0.496301	-0.537104
H97	H	1.052919	-1.090224	-0.251633
H98	H	0.858489	-0.948989	-0.445656
H99	H	1.033371	-0.539110	-0.963557
C100	C	1.044975	-0.555659	-0.746841
C101	C	1.089801	-0.619152	-0.710705
C102	C	1.134639	-0.682631	-0.752322
C103	C	1.134653	-0.682617	-0.830074
C104	C	1.089826	-0.619122	-0.866215
C105	C	1.044987	-0.555643	-0.824598
H106	H	1.089792	-0.619164	-0.653144
H107	H	1.167823	-0.729634	-0.725568
H108	H	1.167845	-0.729608	-0.860882
H109	H	1.089834	-0.619110	-0.923776
H110	H	1.011803	-0.508639	-0.851352
C111	C	1.044952	-0.555691	-0.598396
C112	C	1.099785	-0.516629	-0.548116
C113	C	1.144614	-0.580120	-0.511976
C114	C	1.134609	-0.682674	-0.526115
C115	C	1.079774	-0.721741	-0.576397
C116	C	1.034945	-0.658250	-0.612538
H117	H	1.107194	-0.440708	-0.537648
H118	H	1.185207	-0.551199	-0.474753
H119	H	1.167794	-0.729674	-0.499361
H120	H	1.072365	-0.797663	-0.586866
H121	H	0.994352	-0.687171	-0.649760
C122	C	0.706503	-0.555911	-0.440906
C123	C	0.692314	-0.658461	-0.439688
C124	C	0.728440	-0.722005	-0.489968
C125	C	0.778755	-0.683001	-0.541467
C126	C	0.792947	-0.580446	-0.542687
C127	C	0.756820	-0.516902	-0.492407
H128	H	0.655065	-0.687339	-0.401564
H129	H	0.717934	-0.797923	-0.489065
H130	H	0.805498	-0.730041	-0.578688
H131	H	0.830195	-0.551568	-0.580811
H132	H	0.767326	-0.440984	-0.493310
H133	H	1.022998	-0.777997	-0.281322
C134	C	0.361236	-0.313300	-0.248958
C135	C	0.408115	-0.352310	-0.197458
C136	C	0.449747	-0.288770	-0.147169
C137	C	0.444501	-0.186220	-0.148381
C138	C	0.397621	-0.147205	-0.199884
C139	C	0.355988	-0.210745	-0.250172
H140	H	0.412000	-0.428228	-0.196559
H141	H	0.484451	-0.317652	-0.109044
H142	H	0.475320	-0.139184	-0.111155
H143	H	0.393735	-0.071287	-0.200783
H144	H	0.321284	-0.181863	-0.288298
H145	H	0.895743	-1.090299	-0.408546
C146	C	0.873738	-0.313337	-0.587938
C147	C	0.828901	-0.249861	-0.624076
C148	C	0.784046	-0.186401	-0.582461
C149	C	0.784028	-0.186417	-0.504709
C150	C	0.828867	-0.249896	-0.468567
C151	C	0.873722	-0.313356	-0.510181
H152	H	0.828912	-0.249846	-0.681636
H153	H	0.750853	-0.139410	-0.609217
H154	H	0.750823	-0.139440	-0.473904
H155	H	0.828855	-0.249910	-0.411006
H156	H	0.906915	-0.360347	-0.483425
C157	C	0.873769	-0.313288	-0.736373
C158	C	0.796501	-0.320629	-0.726956
C159	C	0.751668	-0.257132	-0.763086
C160	C	0.784103	-0.186294	-0.808632
C161	C	0.861374	-0.178951	-0.818051
C162	C	0.906207	-0.242448	-0.781922
H163	H	0.772488	-0.373069	-0.693238
H164	H	0.694466	-0.262568	-0.756113
H165	H	0.750914	-0.139290	-0.835377
H166	H	0.885388	-0.126510	-0.851769
H167	H	0.963409	-0.237011	-0.788895
H168	H	0.568879	-0.539412	-0.427860
H169	H	0.885458	-0.329716	-0.954509
H170	H	1.033408	-0.539054	-1.091789
H171	H	0.577936	-0.329784	-0.262009
H172	H	0.885483	-0.329678	-1.082752
H173	H	0.213107	-0.539438	-0.427890
