data_functionalizedCrystal
_audit_creation_method	'MofGen! by Chris Wilmer'
_symmetry_space_group_name_H-M	'P1'
_symmetry_Int_Tables_number	1
_symmetry_cell_setting	triclinic
loop_
_symmetry_equiv_pos_as_xyz
  x,y,z
_cell_length_a	27.731993
_cell_length_b	27.732048
_cell_length_c	15.072220
_cell_angle_alpha	89.993868
_cell_angle_beta	89.999078
_cell_angle_gamma	82.631525
loop_
_atom_site_label
_atom_site_type_symbol
_atom_site_fract_x
_atom_site_fract_y
_atom_site_fract_z
O1	O	0.640950	0.057388	-0.073553
O2	O	0.500153	0.066161	-0.073609
O3	O	0.574925	-0.008623	-0.073562
O4	O	0.566179	0.132172	-0.073600
O5	O	0.574906	-0.008619	0.074003
O6	O	0.500135	0.066166	0.073956
O7	O	0.640932	0.057392	0.074012
Zn8	Zn	0.570531	0.061780	0.097413
Zn9	Zn	0.570555	0.061774	-0.097010
O10	O	0.566161	0.132177	0.073965
C11	C	0.482137	0.065983	0.000167
C12	C	0.428480	0.065441	0.000147
C13	C	0.045330	0.061508	-0.080247
C14	C	0.246988	0.063575	-0.080272
O15	O	0.273069	0.063821	-0.148683
N16	N	0.272198	0.063836	0.000164
C17	C	0.246991	0.063577	0.080612
O18	O	0.273062	0.063841	0.149027
C19	C	0.045335	0.061507	0.080636
C20	C	0.020127	0.061251	0.000194
C21	C	0.020122	0.061252	-0.160682
C22	C	-0.030290	0.060737	-0.160675
C23	C	-0.055493	0.060480	-0.080233
C24	C	-0.030285	0.060736	0.000201
C25	C	0.020130	0.061244	0.161082
C26	C	-0.030287	0.060725	0.161081
C27	C	-0.055496	0.060469	0.080640
C28	C	-0.105900	0.059965	0.080650
N29	N	-0.131110	0.059704	0.000214
C30	C	-0.105907	0.059961	-0.080228
C31	C	0.352863	0.064665	0.080594
C32	C	0.403277	0.065184	0.080588
C33	C	0.403270	0.065181	-0.080296
C34	C	0.352855	0.064666	-0.080289
C35	C	0.327653	0.064404	0.000158
C36	C	-0.211775	0.058882	-0.080207
C37	C	-0.262192	0.058370	-0.080193
C38	C	-0.262180	0.058371	0.080691
C39	C	-0.211768	0.058885	0.080677
C40	C	-0.186567	0.059139	0.000221
O41	O	-0.132012	0.059713	0.149025
O42	O	-0.131985	0.059686	-0.148632
C43	C	0.095742	0.062022	-0.080254
C44	C	0.120950	0.062279	0.000180
C45	C	0.095747	0.062021	0.080622
C46	C	0.171364	0.062797	0.000175
C47	C	0.196567	0.063055	-0.080267
C48	C	0.171357	0.062794	-0.160703
C49	C	0.120945	0.062280	-0.160696
C50	C	0.120957	0.062282	0.161058
C51	C	0.171369	0.062797	0.161044
C52	C	0.196572	0.063054	0.080603
C53	C	0.574732	-0.026628	0.000223
C54	C	0.574179	-0.080282	0.000230
C55	C	0.614884	-0.419105	0.000200
C56	C	0.612833	-0.620765	0.000187
O57	O	0.650055	-0.652028	0.000163
N58	N	0.568497	-0.639880	0.000170
C59	C	0.524670	-0.608576	0.000151
O60	O	0.486912	-0.629462	0.000128
C61	C	0.526721	-0.406918	0.000158
C62	C	0.571061	-0.387806	0.000184
C63	C	0.659220	-0.399993	0.000225
C64	C	0.659732	-0.349581	0.000233
C65	C	0.615909	-0.318282	0.000216
C66	C	0.571573	-0.337394	0.000192
C67	C	0.482895	-0.375616	0.000132
C68	C	0.483412	-0.325199	0.000132
C69	C	0.527751	-0.306087	0.000158
C70	C	0.528262	-0.255683	0.000183
N71	N	0.572598	-0.236568	0.000200
C72	C	0.616422	-0.267867	0.000216
C73	C	0.523596	-0.714450	0.000149
C74	C	0.523083	-0.764865	0.000149
C75	C	0.611246	-0.777049	0.000183
C76	C	0.611759	-0.726634	0.000190
C77	C	0.567932	-0.695335	0.000166
C78	C	0.617494	-0.161998	0.000234
C79	C	0.618003	-0.111582	0.000246
C80	C	0.529839	-0.099401	0.000207
C81	C	0.529331	-0.149814	0.000200
C82	C	0.573162	-0.181112	0.000211
O83	O	0.491060	-0.224392	0.000198
O84	O	0.654174	-0.246972	0.000220
C85	C	0.614372	-0.469517	0.000192
C86	C	0.570036	-0.488630	0.000167
C87	C	0.526213	-0.457331	0.000151
C88	C	0.569523	-0.539044	0.000167
C89	C	0.613346	-0.570343	0.000184
C90	C	0.657683	-0.551228	0.000200
C91	C	0.658195	-0.500817	0.000209
C92	C	0.481876	-0.476446	0.000134
C93	C	0.481368	-0.526858	0.000127
C94	C	0.525191	-0.558157	0.000144
C95	C	0.658949	0.057570	0.000234
C96	C	0.712605	0.058113	0.000249
C97	C	0.566353	0.150181	0.000179
C98	C	0.566906	0.203836	0.000166
N99	N	0.570518	0.061783	0.230102
N100	N	0.570572	0.061767	-0.229699
C101	C	0.570554	0.061772	0.589304
C102	C	0.530413	0.101656	0.551672
C103	C	0.530503	0.101799	0.448846
C104	C	0.570535	0.061778	0.411100
C105	C	0.620892	0.072407	0.448407
C106	C	0.620666	0.072690	0.551265
C107	C	0.560789	0.011138	0.551412
C108	C	0.559629	0.011486	0.448548
C109	C	0.570528	0.061780	0.310386
C110	C	0.570564	0.061771	0.690017
H111	H	-0.282710	0.058163	0.146184
H112	H	0.524887	0.000821	0.577392
C113	C	0.431004	0.065460	-0.168782
N114	N	0.451895	0.065666	-0.235427
C115	C	0.662190	0.034187	0.415375
N116	N	0.693295	0.005399	0.390492
H117	H	-0.282714	0.058163	-0.145700
H118	H	-0.191262	0.059090	-0.145722
C119	C	0.433664	-0.442023	0.000114
N120	N	0.397348	-0.416097	0.000103
H121	H	-0.050805	0.060516	0.226592
H122	H	-0.050810	0.060527	-0.226178
H123	H	0.693365	-0.576721	0.000218
H124	H	0.040637	0.061460	-0.226190
C125	C	0.632884	0.121710	0.413600
N126	N	0.641913	0.158847	0.387387
H127	H	0.522588	0.003410	0.424164
H128	H	0.647864	-0.711077	0.000210
C129	C	0.479664	0.093333	0.585126
N130	N	0.441439	0.087066	0.610336
C131	C	0.093223	0.061992	-0.249188
N132	N	0.072347	0.061773	-0.315845
C133	C	0.435198	-0.290773	0.000109
N134	N	0.398883	-0.264844	0.000095
C135	C	0.632359	0.122564	0.583658
N136	N	0.641163	0.160132	0.608051
H137	H	0.332334	0.064457	-0.145792
H138	H	0.586996	-0.019554	0.422858
H139	H	0.695838	-0.334025	0.000250
C140	C	0.199091	0.063075	-0.249189
N141	N	0.219983	0.063284	-0.315832
C142	C	0.431000	0.065471	0.169080
N143	N	0.451879	0.065683	0.235735
C144	C	0.325146	0.064388	0.169098
N145	N	0.304271	0.064184	0.235760
H146	H	0.646929	-0.802542	0.000197
C147	C	0.480556	-0.170838	0.000178
N148	N	0.443817	-0.186669	0.000151
H149	H	0.536521	0.139027	0.577503
H150	H	0.040646	0.061451	0.226586
C151	C	-0.184039	0.059171	0.169166
N152	N	-0.163156	0.059380	0.235817
C153	C	0.199092	0.063078	0.249542
N154	N	0.219972	0.063285	0.316197
C155	C	0.432587	-0.547875	0.000100
N156	N	0.395847	-0.563703	0.000071
H157	H	0.446789	-0.391168	0.000106
H158	H	0.654110	-0.096024	0.000269
C159	C	0.481636	-0.064963	0.000183
N160	N	0.445329	-0.039022	0.000156
C161	C	0.093239	0.062008	0.249555
N162	N	0.072363	0.061806	0.316217
H163	H	0.694908	-0.425472	0.000235
C164	C	0.479916	0.093329	0.414768
N165	N	0.441812	0.086953	0.389105
C166	C	0.665711	-0.196419	0.000254
N167	N	0.702028	-0.222344	0.000276
C168	C	0.474306	-0.785882	0.000132
N169	N	0.437566	-0.801710	0.000113
C170	C	0.706972	-0.479800	0.000231
N171	N	0.743714	-0.463975	0.000245
C172	C	0.538877	0.152571	0.415581
N173	N	0.545187	0.190814	0.390526
C174	C	0.662215	0.034924	0.584897
N175	N	0.693515	0.006485	0.610225
C176	C	0.600339	-0.028952	0.584296
N177	N	0.630128	-0.059145	0.609070
C178	C	0.475380	-0.680027	0.000124
N179	N	0.439063	-0.654102	0.000107
