data_functionalizedCrystal
_audit_creation_method	'MofGen! by Chris Wilmer'
_symmetry_space_group_name_H-M	'P1'
_symmetry_Int_Tables_number	1
_symmetry_cell_setting	triclinic
loop_
_symmetry_equiv_pos_as_xyz
  x,y,z
_cell_length_a	23.096457
_cell_length_b	14.809374
_cell_length_c	14.809374
_cell_angle_alpha	60.797835
_cell_angle_beta	89.998298
_cell_angle_gamma	67.425492
loop_
_atom_site_label
_atom_site_type_symbol
_atom_site_fract_x
_atom_site_fract_y
_atom_site_fract_z
Zr1	Zr	0.639529	0.955211	-0.203708
O2	O	0.568604	1.113130	-0.350863
O3	O	0.651230	0.777444	-0.145631
O4	O	0.674914	0.926592	-0.332172
O5	O	0.537661	0.993478	-0.031923
O6	O	0.770195	0.926593	-0.332177
O7	O	0.544921	0.963982	-0.164322
O8	O	0.727829	0.659795	0.001511
O9	O	0.580027	1.260276	-0.365611
O10	O	0.739459	0.857914	-0.136530
O11	O	0.662934	0.879925	-0.037719
O12	O	0.690818	1.055527	-0.257347
O13	O	0.614293	1.077538	-0.158536
Zr14	Zr	0.779912	1.002255	0.007445
Zr15	Zr	0.791491	0.955213	-0.203716
Zr16	Zr	0.627950	1.002253	0.007453
Zr17	Zr	0.657746	1.189892	-0.227230
Zr18	Zr	0.761695	0.767574	0.030967
O19	O	0.768211	1.180021	-0.050632
O20	O	0.784675	1.113133	-0.350874
O21	O	0.552141	1.180018	-0.050620
O22	O	0.850837	0.844335	0.154600
O23	O	0.867301	0.777447	-0.145643
O24	O	0.634767	0.844332	0.154611
O25	O	0.881781	0.963987	-0.164340
O26	O	0.744527	1.030873	0.135909
O27	O	0.649247	1.030872	0.135915
O28	O	0.874521	0.993483	-0.031941
O29	O	0.700816	1.260278	-0.365618
O30	O	0.718625	0.697187	0.169355
O31	O	0.839415	0.697189	0.169348
O32	O	0.848618	0.659797	0.001504
O33	O	0.570823	1.297669	-0.197767
O34	O	0.691612	1.297670	-0.197774
O35	O	0.728623	0.901938	0.061084
O36	O	0.805148	0.879927	-0.037727
O37	O	0.756507	1.077541	-0.158544
O38	O	0.679982	1.099552	-0.059732
C39	C	0.686934	0.685182	-0.068709
C40	C	0.679201	0.585554	-0.058723
C41	C	0.713714	0.530218	-0.103288
C42	C	0.705722	0.427247	-0.092969
C43	C	0.519639	0.978730	-0.098121
C44	C	0.455128	0.978729	-0.098118
C45	C	0.450213	0.875578	-0.035062
C46	C	0.389597	0.875577	-0.035058
C47	C	0.333898	0.978729	-0.098129
C48	C	0.338817	1.081895	-0.161188
C49	C	0.399432	1.081895	-0.161183
N50	N	0.222329	1.045364	-0.190626
N51	N	0.164749	1.045357	-0.190629
C52	C	0.151267	0.978737	-0.098147
N53	N	0.197544	0.912105	-0.005663
N54	N	0.255130	0.912108	-0.005662
C55	C	0.268168	0.978741	-0.098141
C56	C	0.080627	0.875578	-0.035082
C57	C	0.020009	0.875583	-0.035075
C58	C	-0.030770	1.081902	-0.161215
C59	C	0.029847	1.081896	-0.161212
C60	C	0.085543	0.978730	-0.098147
C61	C	0.899802	0.978735	-0.098142
C62	C	0.964314	0.978736	-0.098145
C63	C	0.724204	0.919890	-0.362261
C64	C	0.729120	0.899920	-0.451904
C65	C	0.732507	1.272283	-0.127554
C66	C	0.740241	1.371911	-0.137540
C67	C	0.707182	0.989046	-0.551803
C68	C	0.712262	0.968407	-0.644455
C69	C	0.695237	1.037575	0.165998
C70	C	0.690322	1.057546	0.255641
C71	C	0.877015	0.685185	-0.068719
C72	C	0.933794	0.585558	-0.058737
C73	C	0.672451	0.744025	0.195420
C74	C	0.659802	0.664367	0.295049
C75	C	0.862532	0.744028	0.195410
C76	C	0.914395	0.664371	0.295036
C77	C	0.556909	1.213438	-0.391673
C78	C	0.505047	1.293094	-0.491299
C79	C	0.542426	1.272280	-0.127544
C80	C	0.485648	1.371907	-0.137526
C81	C	0.746991	1.213440	-0.391683
C82	C	0.759640	1.293098	-0.491312
C83	C	0.926169	0.527279	-0.105632
C84	C	0.979514	0.433677	-0.096274
C85	C	1.040483	0.398351	-0.040013
C86	C	1.048107	0.456639	0.006883
C87	C	0.994763	0.550244	-0.002482
C88	C	0.688150	0.638452	0.393419
C89	C	0.676263	0.563620	0.487038
C90	C	0.636030	0.514698	0.482285
C91	C	0.607679	0.540621	0.383904
C92	C	0.619563	0.615458	0.290287
C93	C	0.978702	0.615474	0.290242
C94	C	1.027439	0.540639	0.383841
C95	C	1.011868	0.514697	0.482234
C96	C	0.947555	0.563603	0.487024
C97	C	0.898819	0.638442	0.393425
C98	C	0.440741	1.342003	-0.486506
C99	C	0.392005	1.416867	-0.580108
C100	C	0.407577	1.442814	-0.678501
C101	C	0.471889	1.393902	-0.683291
C102	C	0.520624	1.319046	-0.589691
C103	C	0.493274	1.430194	-0.090640
C104	C	0.439931	1.523816	-0.100025
C105	C	0.378963	1.559146	-0.156289
C106	C	0.371338	1.500854	-0.203181
C107	C	0.424681	1.407238	-0.193802
C108	C	0.799875	1.341997	-0.486524
C109	C	0.811773	1.416833	-0.580127
C110	C	0.783431	1.442775	-0.678517
C111	C	0.743194	1.393867	-0.683302
C112	C	0.731300	1.319026	-0.589700
H113	H	0.643737	0.556695	-0.012927
H114	H	0.684643	1.080629	-0.568737
H115	H	0.822957	1.320889	-0.406420
C116	C	0.788160	0.410881	-0.199406
N117	N	0.824252	0.440233	-0.246002
C118	C	0.563427	0.486790	0.378694
N119	N	0.530101	0.446236	0.374774
H120	H	0.335533	1.635375	-0.163917
H121	H	0.934886	0.542469	0.567148
H122	H	1.000980	0.597686	0.035713
H123	H	0.428049	1.320881	-0.406398
H124	H	0.734808	0.876817	-0.627513
H125	H	0.749183	0.559069	-0.149078
H126	H	0.321691	1.529633	-0.248991
H127	H	0.125976	0.791579	0.016290
C128	C	0.657806	0.388271	-0.031098
N129	N	0.621715	0.358915	0.015500
C130	C	0.353958	1.525150	-0.781454
N131	N	0.313570	1.587161	-0.858995
H132	H	0.720910	0.678278	0.397309
H133	H	0.495559	0.791571	0.016284
C134	C	0.971112	0.369567	-0.147856
N135	N	0.964782	0.321280	-0.186706
C136	C	0.707463	0.535109	0.595247
N137	N	0.730965	0.513633	0.676747
H138	H	1.079802	0.500825	0.379922
C139	C	0.622971	0.432365	0.585278
N140	N	0.613140	0.370347	0.662856
C141	C	0.035253	1.195368	-0.230595
N142	N	0.039324	1.280841	-0.282858
H143	H	0.844535	1.456649	-0.576211
C144	C	0.995846	0.644002	0.182019
N145	N	1.008765	0.665490	0.100508
C146	C	0.588381	0.643941	0.182084
N147	N	0.564893	0.665389	0.100587
H148	H	0.385594	0.791576	0.016290
H149	H	0.751664	0.808336	-0.434970
H150	H	0.793120	1.503718	-0.754726
C151	C	0.712047	1.422371	-0.791537
N152	N	0.688596	1.443829	-0.873061
H153	H	0.293463	1.165883	-0.212540
C154	C	0.416280	1.343120	-0.245371
N155	N	0.409947	1.294828	-0.284214
C156	C	0.591360	1.265238	-0.594978
N157	N	0.644638	1.224711	-0.598969
C158	C	1.099156	0.295373	-0.029712
N159	N	1.143346	0.217805	-0.021953
H160	H	1.051559	0.453756	0.558440
H161	H	1.097755	0.427862	0.052690
H162	H	0.403429	1.165896	-0.212528
H163	H	0.016012	0.791583	0.016280
C164	C	0.448331	1.587913	-0.048426
N165	N	0.454660	1.636186	-0.009559
C166	C	0.321265	1.470655	-0.574815
N167	N	0.267985	1.511167	-0.570826
H168	H	0.846458	0.678246	0.397343
H169	H	0.484561	1.415038	-0.763413
C170	C	-0.092036	1.195372	-0.230592
N171	N	-0.138186	1.280841	-0.282847
H172	H	0.667779	1.149136	-0.761302
H173	H	0.876531	0.556037	-0.151458
H174	H	0.542912	1.401439	-0.044818
H175	H	0.698535	1.279220	-0.593613
