data_functionalizedCrystal
_audit_creation_method	'MofGen! by Chris Wilmer'
_symmetry_space_group_name_H-M	'P1'
_symmetry_Int_Tables_number	1
_symmetry_cell_setting	triclinic
loop_
_symmetry_equiv_pos_as_xyz
  x,y,z
_cell_length_a	16.109318
_cell_length_b	14.586319
_cell_length_c	16.109301
_cell_angle_alpha	90.005214
_cell_angle_beta	83.465022
_cell_angle_gamma	89.999925
loop_
_atom_site_label
_atom_site_type_symbol
_atom_site_fract_x
_atom_site_fract_y
_atom_site_fract_z
O1	O	1.103122	0.076167	0.106935
O2	O	0.861062	0.076186	0.120219
O3	O	0.988741	0.076167	-0.007454
O4	O	0.975442	0.076186	0.234607
O5	O	0.988733	-0.076314	-0.007456
O6	O	0.861053	-0.076295	0.120217
O7	O	1.103113	-0.076314	0.106933
Cu8	Cu	0.982082	-0.090227	0.113575
Cu9	Cu	0.982093	0.090099	0.113577
O10	O	0.975433	-0.076294	0.234606
C11	C	0.830083	-0.000052	0.119677
C12	C	0.737788	-0.000045	0.118057
C13	C	0.438719	0.083055	0.112823
C14	C	0.525441	0.083061	0.114340
C15	C	0.525450	-0.083182	0.114327
C16	C	0.438731	-0.083187	0.112803
C17	C	0.395367	-0.000065	0.112056
C18	C	0.568807	-0.000055	0.115096
C19	C	0.662835	-0.000049	0.116742
C20	C	0.301334	-0.000070	0.110409
N21	N	0.982081	-0.217059	0.113573
C22	C	1.038636	-0.452074	0.057058
C23	C	1.038638	-0.548055	0.057056
C24	C	0.925539	-0.548047	0.170090
C25	C	0.925534	-0.452068	0.170087
C26	C	0.982087	-0.404084	0.113572
C27	C	0.982095	-0.596044	0.113573
C28	C	0.982097	-0.700111	0.113571
C29	C	0.982084	-0.300010	0.113573
C30	C	1.134092	-0.000074	0.107474
C31	C	1.226387	-0.000075	0.109095
C32	C	0.988198	-0.000074	-0.038430
C33	C	0.986583	-0.000075	-0.130725
N34	N	0.982100	0.216931	0.113573
C35	C	1.058590	-0.000067	-0.352993
C36	C	1.057066	-0.000059	-0.439713
C37	C	0.905579	-0.000051	-0.419848
C38	C	0.907104	-0.000052	-0.333130
C39	C	0.983612	-0.000064	-0.299704
C40	C	0.980563	-0.000056	-0.473144
C41	C	0.978910	-0.000047	-0.567170
C42	C	0.985265	-0.000071	-0.205672
C43	C	0.975976	-0.000052	0.265581
C44	C	0.977592	-0.000044	0.357877
H45	H	0.560734	0.150746	0.114964
H46	H	1.118121	-0.000059	-0.483098
H47	H	0.403415	0.150738	0.112213
H48	H	1.120888	-0.000075	-0.325781
H49	H	0.843288	-0.000042	-0.447074
H50	H	0.846043	-0.000047	-0.289740
Br51	Br	0.379891	-0.196002	0.111757
H52	H	0.560767	-0.150856	0.114937
Br53	Br	1.115385	-0.386956	-0.019642
H54	H	1.084685	-0.587126	0.011036
H55	H	0.879496	-0.587126	0.216104
Br56	Br	0.848776	-0.386931	0.246784
