data_functionalizedCrystal
_audit_creation_method	'MofGen! by Chris Wilmer'
_symmetry_space_group_name_H-M	'P1'
_symmetry_Int_Tables_number	1
_symmetry_cell_setting	triclinic
loop_
_symmetry_equiv_pos_as_xyz
  x,y,z
_cell_length_a	13.032831
_cell_length_b	29.839131
_cell_length_c	13.032268
_cell_angle_alpha	97.140540
_cell_angle_beta	90.886977
_cell_angle_gamma	82.845366
loop_
_atom_site_label
_atom_site_type_symbol
_atom_site_fract_x
_atom_site_fract_y
_atom_site_fract_z
Zn1	Zn	1.498202	-0.303377	-0.780727
Zn2	Zn	1.519883	-0.370307	-0.608723
Zn3	Zn	1.348078	-0.284611	-0.586974
Zn4	Zn	1.326134	-0.367878	-0.758849
O5	O	1.423074	-0.331543	-0.683818
O6	O	1.644991	-0.321125	-0.776168
O7	O	1.515350	-0.352102	-0.461924
O8	O	1.368102	-0.224242	-0.612730
O9	O	1.660920	-0.370299	-0.649797
O10	O	1.478398	-0.238029	-0.755079
O11	O	1.389125	-0.289141	-0.445945
O12	O	1.201254	-0.286786	-0.591516
O13	O	1.330702	-0.366159	-0.905665
O14	O	1.185132	-0.347962	-0.717792
O15	O	1.457120	-0.318770	-0.921739
O16	O	1.494072	-0.432843	-0.628583
O17	O	1.351725	-0.431059	-0.738880
C18	C	1.155878	-0.315075	-0.649920
C19	C	1.041567	-0.308042	-0.635443
C20	C	0.982667	-0.335214	-0.691374
C21	C	0.864520	-0.327945	-0.676412
C22	C	1.422895	-0.448252	-0.683744
C23	C	1.422908	-0.498188	-0.683758
C24	C	1.497302	-0.808772	-0.626498
C25	C	1.497423	-0.996455	-0.626554
O26	O	1.560533	-1.021509	-0.577811
N27	N	1.423278	-1.019002	-0.683923
C28	C	1.349100	-0.994626	-0.741287
O29	O	1.286044	-1.018111	-0.790093
C30	C	1.348984	-0.806945	-0.741236
C31	C	1.423128	-0.784399	-0.683855
C32	C	1.571441	-0.786226	-0.569122
C33	C	1.571406	-0.739308	-0.569105
C34	C	1.497232	-0.714935	-0.626462
C35	C	1.423093	-0.737481	-0.683837
C36	C	1.274811	-0.782571	-0.798606
C37	C	1.274790	-0.735648	-0.798590
C38	C	1.348935	-0.713102	-0.741209
C39	C	1.348885	-0.666190	-0.741177
N40	N	1.423031	-0.643643	-0.683808
C41	C	1.497205	-0.668015	-0.626451
C42	C	1.349165	-1.093162	-0.741308
C43	C	1.349193	-1.140082	-0.741320
C44	C	1.497518	-1.141907	-0.626588
C45	C	1.497485	-1.094986	-0.626571
C46	C	1.423311	-1.070614	-0.683939
C47	C	1.497126	-0.569483	-0.626417
C48	C	1.497082	-0.522561	-0.626401
C49	C	1.348761	-0.520740	-0.741137
C50	C	1.348801	-0.567658	-0.741149
C51	C	1.422992	-0.592029	-0.683787
O52	O	1.285815	-0.641109	-0.789903
O53	O	1.560265	-0.644524	-0.577671
C54	C	1.497336	-0.855690	-0.626516
C55	C	1.423197	-0.878236	-0.683891
C56	C	1.349024	-0.853863	-0.741249
C57	C	1.423225	-0.925156	-0.683903
C58	C	1.497399	-0.949529	-0.626545
C59	C	1.571545	-0.926981	-0.569176
C60	C	1.571510	-0.880063	-0.569158
C61	C	1.274878	-0.876411	-0.798618
C62	C	1.274918	-0.923329	-0.798630
C63	C	1.349091	-0.947702	-0.741272
C64	C	1.691313	-0.348076	-0.717849
C65	C	1.805621	-0.355122	-0.732351
C66	C	1.389044	-0.344287	-0.952061
C67	C	1.374543	-0.349718	-1.066370
C68	C	1.423279	-0.214382	-0.683919
C69	C	1.423367	-0.164454	-0.683962
C70	C	1.430627	-0.328692	-1.125285
C71	C	1.415640	-0.334304	-1.243430
C72	C	1.457031	-0.318820	-0.416627
C73	C	1.471732	-0.313275	-0.302344
H74	H	1.557541	-0.589321	-0.579709
H75	H	1.214390	-0.715807	-0.845310
C76	C	1.335786	-0.364239	-1.293435
H77	H	1.336195	-0.364088	-1.366282
H78	H	1.268908	-0.352582	-1.267121
H79	H	1.353007	-0.394522	-1.277764
C80	C	1.294686	-0.379649	-1.116373
H81	H	1.261437	-0.392110	-1.064089
H82	H	1.328711	-0.403621	-1.163258
H83	H	1.244625	-0.361677	-1.152607
C84	C	1.032689	-0.373911	-0.771029
H85	H	0.980414	-0.390014	-0.804184
H86	H	1.079567	-0.394143	-0.736874
H87	H	1.068932	-0.361447	-0.821187
C88	C	0.814502	-0.289245	-0.596756
H89	H	0.866776	-0.273138	-0.563611
H90	H	0.778251	-0.301705	-0.546603
H91	H	0.767630	-0.269011	-0.630924
C92	C	1.267180	-0.493924	-0.804230
H93	H	1.277793	-0.462753	-0.796007
H94	H	1.200010	-0.496671	-0.780373
H95	H	1.273427	-0.505803	-0.875251
C96	C	0.855636	-0.393821	-0.812011
H97	H	0.803359	-0.409923	-0.845165
H98	H	0.902514	-0.414054	-0.777858
H99	H	0.891879	-0.381356	-0.862170
C100	C	0.991545	-0.269343	-0.555792
H101	H	1.043819	-0.253236	-0.522646
H102	H	0.955294	-0.281803	-0.505638
H103	H	0.944673	-0.249110	-0.589959
H104	H	1.530841	-0.291115	-1.265323
C105	C	1.510483	-0.298761	-1.075277
H106	H	1.510085	-0.298919	-1.002431
H107	H	1.493280	-0.268481	-1.090948
H108	H	1.577362	-0.310427	-1.101592
H109	H	1.631783	-0.720955	-0.522384
C110	C	1.578631	-0.497760	-0.563268
H111	H	1.567984	-0.466323	-0.571456
H112	H	1.645812	-0.510386	-0.587130
H113	H	1.572389	-0.501264	-0.492257
C114	C	1.653034	-0.813029	-0.506017
H115	H	1.697172	-0.792874	-0.471844
H116	H	1.692837	-0.835938	-0.551064
H117	H	1.619423	-0.826801	-0.456184
H118	H	1.557860	-1.076632	-0.579847
C119	C	1.579105	-1.168722	-0.563492
H120	H	1.568498	-1.199895	-0.571726
H121	H	1.572880	-1.156845	-0.492476
H122	H	1.646274	-1.165978	-0.587371
H123	H	1.288809	-1.158433	-0.788034
H124	H	1.288761	-1.073321	-0.788025
C125	C	1.193258	-0.807361	-0.861735
H126	H	1.149095	-0.786121	-0.895898
H127	H	1.153475	-0.821064	-0.816699
H128	H	1.226894	-0.830190	-0.911575
C129	C	1.267243	-0.592459	-0.804264
H130	H	1.223067	-0.571222	-0.838425
H131	H	1.227474	-0.606166	-0.759224
H132	H	1.300884	-0.615285	-0.854106
C133	C	1.653133	-0.953797	-0.506083
H134	H	1.642529	-0.984970	-0.514323
H135	H	1.646906	-0.941922	-0.435065
H136	H	1.720301	-0.951051	-0.529960
H137	H	1.214531	-0.941681	-0.845354
H138	H	1.631885	-0.861710	-0.522433
H139	H	1.214477	-0.856570	-0.845327
