data_functionalizedCrystal
_audit_creation_method	'MofGen! by Chris Wilmer'
_symmetry_space_group_name_H-M	'P1'
_symmetry_Int_Tables_number	1
_symmetry_cell_setting	triclinic
loop_
_symmetry_equiv_pos_as_xyz
  x,y,z
_cell_length_a	15.995350
_cell_length_b	14.472310
_cell_length_c	15.995350
_cell_angle_alpha	90.001162
_cell_angle_beta	96.507625
_cell_angle_gamma	90.009379
loop_
_atom_site_label
_atom_site_type_symbol
_atom_site_fract_x
_atom_site_fract_y
_atom_site_fract_z
O1	O	-1.110997	-0.076758	0.107921
O2	O	-0.860997	0.173242	0.357921
O3	O	-0.610997	0.423242	0.607921
O4	O	-0.360997	0.673242	0.857921
O5	O	-0.867221	-0.076776	0.121248
O6	O	-0.617221	0.173224	0.371248
O7	O	-0.367221	0.423224	0.621248
O8	O	-0.117221	0.673224	0.871248
O9	O	-0.995773	-0.076766	-0.007303
O10	O	-0.745773	0.173234	0.242697
O11	O	-0.495773	0.423234	0.492697
O12	O	-0.245773	0.673234	0.742697
O13	O	-0.982445	-0.076769	0.236472
O14	O	-0.732445	0.173231	0.486472
O15	O	-0.482445	0.423231	0.736472
O16	O	-0.232445	0.673231	0.986472
O17	O	-0.995740	0.076916	-0.007296
O18	O	-0.745740	0.326916	0.242704
O19	O	-0.495740	0.576916	0.492704
O20	O	-0.245740	0.826916	0.742704
O21	O	-0.867188	0.076906	0.121256
O22	O	-0.617188	0.326906	0.371256
O23	O	-0.367188	0.576906	0.621256
O24	O	-0.117188	0.826906	0.871256
O25	O	-1.110963	0.076924	0.107928
O26	O	-0.860963	0.326924	0.357928
O27	O	-0.610963	0.576924	0.607928
O28	O	-0.360963	0.826924	0.857928
Cu29	Cu	-0.989073	0.090947	0.114593
Cu30	Cu	-0.739073	0.340947	0.364593
Cu31	Cu	-0.489073	0.590947	0.614593
Cu32	Cu	-0.239073	0.840947	0.864593
Cu33	Cu	-0.989112	-0.090800	0.114584
Cu34	Cu	-0.739112	0.159200	0.364584
Cu35	Cu	-0.489112	0.409200	0.614584
Cu36	Cu	-0.239112	0.659200	0.864584
O37	O	-0.982412	0.076913	0.236480
O38	O	-0.732412	0.326913	0.486480
O39	O	-0.482412	0.576913	0.736480
O40	O	-0.232412	0.826913	0.986480
C41	C	-0.836010	0.000062	0.120701
C42	C	-0.586010	0.250062	0.370701
C43	C	-0.336010	0.500062	0.620701
C44	C	-0.086010	0.750062	0.870701
C45	C	-0.743060	0.000055	0.119049
C46	C	-0.493060	0.250055	0.369049
C47	C	-0.243060	0.500055	0.619049
C48	C	0.006940	0.750055	0.869049
C49	C	-0.995205	0.000073	-0.038494
C50	C	-0.745205	0.250073	0.211506
C51	C	-0.495205	0.500073	0.461506
C52	C	-0.245205	0.750073	0.711506
C53	C	-0.993553	0.000068	-0.131444
C54	C	-0.743553	0.250068	0.118556
C55	C	-0.493553	0.500068	0.368556
C56	C	-0.243553	0.750068	0.618556
C57	C	-1.142175	0.000083	0.108476
C58	C	-0.892175	0.250083	0.358476
C59	C	-0.642175	0.500083	0.608476
C60	C	-0.392175	0.750083	0.858476
C61	C	-1.235125	0.000084	0.110127
C62	C	-0.985125	0.250084	0.360127
C63	C	-0.735125	0.500084	0.610127
C64	C	-0.485125	0.750084	0.860127
N65	N	-0.989051	0.218778	0.114598
N66	N	-0.739051	0.468778	0.364598
N67	N	-0.489051	0.718778	0.614598
N68	N	-0.239051	0.968778	0.864598
C69	C	-0.405312	0.000074	0.113117
C70	C	-0.155312	0.250074	0.363117
C71	C	0.094688	0.500074	0.613117
C72	C	0.344688	0.750074	0.863117
C73	C	-0.452746	0.000418	0.021565
C74	C	-0.202746	0.250418	0.271565
C75	C	0.047254	0.500418	0.521565
C76	C	0.297254	0.750418	0.771565
C77	C	-0.549436	0.000065	0.023217
C78	C	-0.299436	0.250065	0.273217
C79	C	-0.049436	0.500065	0.523217
C80	C	0.200564	0.750065	0.773217
C81	C	-0.572873	0.000065	0.116060
C82	C	-0.322873	0.250065	0.366060
C83	C	-0.072873	0.500065	0.616060
C84	C	0.177127	0.750065	0.866060
C85	C	-0.531804	-0.087692	0.161212
C86	C	-0.281804	0.162308	0.411212
C87	C	-0.031804	0.412308	0.661212
C88	C	0.218196	0.662308	0.911212
C89	C	-0.435169	-0.087759	0.158912
C90	C	-0.185169	0.162241	0.408912
C91	C	0.064831	0.412241	0.658912
C92	C	0.314831	0.662241	0.908912
C93	C	-0.434792	0.087007	0.160812
C94	C	-0.184792	0.337007	0.410812
C95	C	0.065208	0.587007	0.660812
C96	C	0.315208	0.837007	0.910812
C97	C	-0.531737	0.088160	0.160790
C98	C	-0.281737	0.338160	0.410790
C99	C	-0.031737	0.588160	0.660790
C100	C	0.218263	0.838160	0.910790
C101	C	-0.667570	0.000057	0.117727
C102	C	-0.417570	0.250057	0.367727
C103	C	-0.167570	0.500057	0.617727
C104	C	0.082430	0.750057	0.867727
C105	C	-0.310614	0.000076	0.111452
C106	C	-0.060614	0.250076	0.361452
C107	C	0.189386	0.500076	0.611452
C108	C	0.439386	0.750076	0.861452
N109	N	-0.989140	-0.218631	0.114572
N110	N	-0.739140	0.031369	0.364572
N111	N	-0.489140	0.281369	0.614572
N112	N	-0.239140	0.531369	0.864572
C113	C	-0.989111	0.592869	0.114581
C114	C	-0.739111	0.842869	0.364581
C115	C	-0.489111	1.092869	0.614581
C116	C	-0.239111	1.342869	0.864581
C117	C	-0.920095	0.553698	0.183135
C118	C	-0.670095	0.803698	0.433135
C119	C	-0.420095	1.053698	0.683135
C120	C	-0.170095	1.303698	0.933135
C121	C	-0.920254	0.446610	0.183385
C122	C	-0.670254	0.696610	0.433385
C123	C	-0.420254	0.946610	0.683385
C124	C	-0.170254	1.196610	0.933385
C125	C	-0.989081	0.407278	0.114590
C126	C	-0.739081	0.657278	0.364590
C127	C	-0.489081	0.907278	0.614590
C128	C	-0.239081	1.157278	0.864590
C129	C	-1.076445	0.446122	0.133671
C130	C	-0.826445	0.696122	0.383671
C131	C	-0.576445	0.946122	0.633671
C132	C	-0.326445	1.196122	0.883671
C133	C	-1.076057	0.553243	0.134159
C134	C	-0.826057	0.803243	0.384159
C135	C	-0.576057	1.053243	0.634159
C136	C	-0.326057	1.303243	0.884159
C137	C	-0.971542	0.553398	0.026741
C138	C	-0.721542	0.803398	0.276741
C139	C	-0.471542	1.053398	0.526741
C140	C	-0.221542	1.303398	0.776741
C141	C	-0.969538	0.446270	0.027327
C142	C	-0.719538	0.696270	0.277327
C143	C	-0.469538	0.946270	0.527327
C144	C	-0.219538	1.196270	0.777327
C145	C	-0.989069	0.302390	0.114593
C146	C	-0.739069	0.552390	0.364593
C147	C	-0.489069	0.802390	0.614593
C148	C	-0.239069	1.052390	0.864593
C149	C	-0.989128	0.697757	0.114579
C150	C	-0.739128	0.947757	0.364579
C151	C	-0.489128	1.197757	0.614579
C152	C	-0.239128	1.447757	0.864579
C153	C	-0.987621	0.000071	-0.469192
C154	C	-0.737621	0.250071	-0.219192
C155	C	-0.487621	0.500071	0.030808
C156	C	-0.237621	0.750071	0.280808
C157	C	-0.896069	-0.000281	-0.421758
C158	C	-0.646069	0.249719	-0.171758
C159	C	-0.396069	0.499719	0.078242
C160	C	-0.146069	0.749719	0.328242
C161	C	-0.897721	0.000066	-0.325068
C162	C	-0.647721	0.250066	-0.075068
C163	C	-0.397721	0.500066	0.174932
C164	C	-0.147721	0.750066	0.424932
C165	C	-0.990564	0.000069	-0.301631
C166	C	-0.740564	0.250069	-0.051631
C167	C	-0.490564	0.500069	0.198369
C168	C	-0.240564	0.750069	0.448369
C169	C	-1.035701	0.087831	-0.342705
C170	C	-0.785701	0.337831	-0.092705
C171	C	-0.535701	0.587831	0.157295
C172	C	-0.285701	0.837831	0.407295
C173	C	-1.033401	0.087904	-0.439340
C174	C	-0.783401	0.337904	-0.189340
C175	C	-0.533401	0.587904	0.060660
C176	C	-0.283401	0.837904	0.310660
C177	C	-1.035330	-0.086861	-0.439707
C178	C	-0.785330	0.163139	-0.189707
C179	C	-0.535330	0.413139	0.060293
C180	C	-0.285330	0.663139	0.310293
C181	C	-1.035309	-0.088021	-0.342762
C182	C	-0.785309	0.161979	-0.092762
C183	C	-0.535309	0.411979	0.157238
C184	C	-0.285309	0.661979	0.407238
C185	C	-0.992231	0.000071	-0.206934
C186	C	-0.742231	0.250071	0.043066
C187	C	-0.492231	0.500071	0.293066
C188	C	-0.242231	0.750071	0.543066
C189	C	-0.985956	0.000075	-0.563890
C190	C	-0.735956	0.250075	-0.313890
C191	C	-0.485956	0.500075	-0.063890
C192	C	-0.235956	0.750075	0.186110
C193	C	-0.982980	0.000072	0.267671
C194	C	-0.732980	0.250072	0.517671
C195	C	-0.482980	0.500072	0.767671
C196	C	-0.232980	0.750072	1.017671
C197	C	-0.984631	0.000071	0.360621
C198	C	-0.734631	0.250071	0.610621
C199	C	-0.484631	0.500071	0.860621
C200	C	-0.234631	0.750071	1.110621
H201	H	-0.577852	0.062973	-0.012275
H202	H	-0.327852	0.312973	0.237725
H203	H	-0.077852	0.562973	0.487725
H204	H	0.172148	0.812973	0.737725
H205	H	-1.102831	-0.087449	-0.471468
H206	H	-0.852831	0.162551	-0.221468
H207	H	-0.602831	0.412551	0.028532
H208	H	-0.352831	0.662551	0.278532
H209	H	-0.545930	-0.090955	0.229421
H210	H	-0.295930	0.159045	0.479421
H211	H	-0.045930	0.409045	0.729421
H212	H	0.204070	0.659045	0.979421
H213	H	-0.854945	0.579481	0.171953
H214	H	-0.604945	0.829481	0.421953
H215	H	-0.354945	1.079481	0.671953
H216	H	-0.104945	1.329481	0.921953
H217	H	-0.416874	-0.153359	0.125979
H218	H	-0.166874	0.096641	0.375979
H219	H	0.083126	0.346641	0.625979
H220	H	0.333126	0.596641	0.875979
H221	H	-1.000459	0.153505	-0.457639
H222	H	-0.750459	0.403505	-0.207639
H223	H	-0.500459	0.653505	0.042361
H224	H	-0.250459	0.903505	0.292361
H225	H	-0.560193	-0.153002	0.129845
H226	H	-0.310193	0.096998	0.379845
H227	H	-0.060193	0.346998	0.629845
H228	H	0.189807	0.596998	0.879845
H229	H	-1.129029	0.420643	0.085068
H230	H	-0.879029	0.670643	0.335068
H231	H	-0.629029	0.920643	0.585068
H232	H	-0.379029	1.170643	0.835068
H233	H	-0.855314	0.420349	0.172016
H234	H	-0.605314	0.670349	0.422016
H235	H	-0.355314	0.920349	0.672016
H236	H	-0.105314	1.170349	0.922016
H237	H	-0.434210	0.063352	-0.015027
H238	H	-0.184210	0.313352	0.234973
H239	H	0.065790	0.563352	0.484973
H240	H	0.315790	0.813352	0.734973
H241	H	-1.129018	0.579154	0.086196
H242	H	-0.879018	0.829154	0.336196
H243	H	-0.629018	1.079154	0.586196
H244	H	-0.379018	1.329154	0.836196
H245	H	-1.092297	0.419285	0.197002
H246	H	-0.842297	0.669285	0.447002
H247	H	-0.592297	0.919285	0.697002
H248	H	-0.342297	1.169285	0.947002
H249	H	-0.862239	-0.062846	-0.296649
H250	H	-0.612239	0.187154	-0.046649
H251	H	-0.362239	0.437154	0.203351
H252	H	-0.112239	0.687154	0.453351
H253	H	-0.433166	-0.062168	-0.014865
H254	H	-0.183166	0.187832	0.235135
H255	H	0.066834	0.437832	0.485135
H256	H	0.316834	0.687832	0.735135
H257	H	-0.909219	0.580461	0.008392
H258	H	-0.659219	0.830461	0.258392
H259	H	-0.409219	1.080461	0.508392
H260	H	-0.159219	1.330461	0.758392
H261	H	-0.414242	0.153524	0.130885
H262	H	-0.164242	0.403524	0.380885
H263	H	0.085758	0.653524	0.630885
H264	H	0.335758	0.903524	0.880885
H265	H	-0.403031	0.087600	0.228313
H266	H	-0.153031	0.337600	0.478313
H267	H	0.096969	0.587600	0.728313
H268	H	0.346969	0.837600	0.978313
H269	H	-0.931159	0.580608	0.247952
H270	H	-0.681159	0.830608	0.497952
H271	H	-0.431159	1.080608	0.747952
H272	H	-0.181159	1.330608	0.997952
H273	H	-0.402921	-0.091741	0.226128
H274	H	-0.152921	0.158259	0.476128
H275	H	0.097079	0.408259	0.726128
H276	H	0.347079	0.658259	0.976128
H277	H	-1.004324	0.153137	-0.314320
H278	H	-0.754324	0.403137	-0.064320
H279	H	-0.504324	0.653137	0.185680
H280	H	-0.254324	0.903137	0.435680
H281	H	-1.091540	0.578220	0.198219
H282	H	-0.841540	0.828220	0.448219
H283	H	-0.591540	1.078220	0.698219
H284	H	-0.341540	1.328220	0.948219
H285	H	-1.002307	-0.152945	-0.315516
H286	H	-0.752307	0.097055	-0.065516
H287	H	-0.502307	0.347055	0.184484
H288	H	-0.252307	0.597055	0.434484
H289	H	-0.559040	0.153082	0.127830
H290	H	-0.309040	0.403082	0.377830
H291	H	-0.059040	0.653082	0.627830
H292	H	0.190960	0.903082	0.877830
H293	H	-1.005412	-0.153379	-0.460250
H294	H	-0.755412	0.096621	-0.210250
H295	H	-0.505412	0.346621	0.039750
H296	H	-0.255412	0.596621	0.289750
H297	H	-0.931473	0.420976	0.248569
H298	H	-0.681473	0.670976	0.498569
H299	H	-0.431473	0.920976	0.748569
H300	H	-0.181473	1.170976	0.998569
H301	H	-0.577308	-0.062951	-0.012521
H302	H	-0.327308	0.187049	0.237479
H303	H	-0.077308	0.437049	0.487479
H304	H	0.172692	0.687049	0.737479
H305	H	-0.905272	0.420883	0.012845
H306	H	-0.655272	0.670883	0.262845
H307	H	-0.405272	0.920883	0.512845
H308	H	-0.155272	1.170883	0.762845
H309	H	-0.859626	0.062299	-0.441349
H310	H	-0.609626	0.312299	-0.191349
H311	H	-0.359626	0.562299	0.058651
H312	H	-0.109626	0.812299	0.308651
H313	H	-0.861973	0.063079	-0.297200
H314	H	-0.611973	0.313079	-0.047200
H315	H	-0.361973	0.563079	0.202800
H316	H	-0.111973	0.813079	0.452800
H317	H	-1.103014	-0.093317	-0.327400
H318	H	-0.853014	0.156683	-0.077400
H319	H	-0.603014	0.406683	0.172600
H320	H	-0.353014	0.656683	0.422600
H321	H	-1.100617	0.091888	-0.471588
H322	H	-0.850617	0.341888	-0.221588
H323	H	-0.600617	0.591888	0.028412
H324	H	-0.350617	0.841888	0.278412
H325	H	-1.021872	0.578728	-0.024275
H326	H	-0.771872	0.828728	0.225725
H327	H	-0.521872	1.078728	0.475725
H328	H	-0.271872	1.328728	0.725725
H329	H	-0.547101	0.093461	0.228494
H330	H	-0.297101	0.343461	0.478494
H331	H	-0.047101	0.593461	0.728494
H332	H	0.202899	0.843461	0.978494
H333	H	-0.859490	-0.063217	-0.440293
H334	H	-0.609490	0.186783	-0.190293
H335	H	-0.359490	0.436783	0.059707
H336	H	-0.109490	0.686783	0.309707
H337	H	-1.103909	0.091097	-0.328579
H338	H	-0.853909	0.341097	-0.078579
H339	H	-0.603909	0.591097	0.171421
H340	H	-0.353909	0.841097	0.421421
H341	H	-1.016541	0.419500	-0.026079
H342	H	-0.766541	0.669500	0.223921
H343	H	-0.516541	0.919500	0.473921
H344	H	-0.266541	1.169500	0.723921
