data_functionalizedCrystal
_audit_creation_method	'MofGen! by Chris Wilmer'
_symmetry_space_group_name_H-M	'P1'
_symmetry_Int_Tables_number	1
_symmetry_cell_setting	triclinic
loop_
_symmetry_equiv_pos_as_xyz
  x,y,z
_cell_length_a	10.654556
_cell_length_b	9.730217
_cell_length_c	10.654550
_cell_angle_alpha	89.995045
_cell_angle_beta	95.513766
_cell_angle_gamma	90.002060
loop_
_atom_site_label
_atom_site_type_symbol
_atom_site_fract_x
_atom_site_fract_y
_atom_site_fract_z
O1	O	1.667835	0.114238	-0.176438
O2	O	1.302358	0.114252	-0.193236
O3	O	1.493499	0.114236	-0.002098
O4	O	1.476693	0.114254	-0.367576
O5	O	1.493486	-0.114344	-0.002090
O6	O	1.302344	-0.114328	-0.193228
O7	O	1.667821	-0.114342	-0.176430
Zn8	Zn	1.485080	-0.150627	-0.184828
Zn9	Zn	1.485098	0.150537	-0.184838
O10	O	1.476680	-0.114326	-0.367568
C11	C	1.255553	-0.000037	-0.191997
C12	C	1.116110	-0.000031	-0.188302
N13	N	1.485077	-0.356164	-0.184820
C14	C	0.919572	0.124557	-0.183103
C15	C	1.050594	0.124566	-0.186567
C16	C	1.050598	-0.124645	-0.186559
C17	C	0.919579	-0.124652	-0.183086
C18	C	1.331433	-0.356222	-0.031041
C19	C	1.254625	-0.428190	0.045852
C20	C	1.254643	-0.572070	0.045852
C21	C	1.331476	-0.643985	-0.031052
C22	C	1.408284	-0.572016	-0.107944
C23	C	1.408260	-0.428133	-0.107933
C24	C	1.561920	-0.571958	-0.261728
C25	C	1.561910	-0.428078	-0.261723
C26	C	1.638753	-0.643872	-0.338631
C27	C	1.715570	-0.571904	-0.415519
C28	C	1.715549	-0.428015	-0.415515
C29	C	1.638718	-0.356109	-0.338616
C30	C	1.714626	-0.000051	-0.177669
C31	C	1.854069	-0.000047	-0.181364
C32	C	1.492258	-0.000054	0.044704
C33	C	1.488567	-0.000051	0.184147
N34	N	1.485112	0.356073	-0.184836
C35	C	1.477920	-0.000034	-0.414370
C36	C	1.481612	-0.000027	-0.553813
C37	C	1.601108	-0.000055	0.263630
C38	C	1.597631	-0.000038	0.394651
C39	C	1.369063	-0.000019	0.366693
C40	C	1.372540	-0.000026	0.235675
H41	H	1.103922	0.226031	-0.187982
H42	H	1.280890	-0.000019	0.170956
O43	O	1.121251	-0.259038	-0.188437
H44	H	1.223360	-0.238102	-0.191161
H45	H	0.866245	-0.226126	-0.181668
O46	O	1.331420	-0.201037	-0.031040
H47	H	1.265088	-0.163121	0.035345
H48	H	1.695584	-0.000072	0.221681
O49	O	0.848913	0.258944	-0.181206
H50	H	0.916482	0.345590	-0.182976
H51	H	1.192067	-0.369622	0.108462
H52	H	1.274598	-0.000002	0.408664
H53	H	1.192093	-0.630667	0.108458
H54	H	1.638756	-0.761027	-0.338632
H55	H	1.331473	-0.761139	-0.031056
O56	O	1.798445	-0.649461	-0.498445
H57	H	1.785558	-0.761599	-0.485523
H58	H	1.778089	-0.369427	-0.478137
H59	H	1.638697	-0.238955	-0.338602
O60	O	1.719014	-0.000060	0.480384
H61	H	1.800272	-0.000092	0.422537
