data_functionalizedCrystal
_audit_creation_method	'MofGen! by Chris Wilmer'
_symmetry_space_group_name_H-M	'P1'
_symmetry_Int_Tables_number	1
_symmetry_cell_setting	triclinic
loop_
_symmetry_equiv_pos_as_xyz
  x,y,z
_cell_length_a	23.096457
_cell_length_b	14.446369
_cell_length_c	14.446369
_cell_angle_alpha	90.002030
_cell_angle_beta	59.999055
_cell_angle_gamma	60.000723
loop_
_atom_site_label
_atom_site_type_symbol
_atom_site_fract_x
_atom_site_fract_y
_atom_site_fract_z
Zr1	Zr	0.633703	-0.121404	0.891790
O2	O	0.754499	-0.269211	0.743978
O3	O	0.512914	-0.076099	0.937099
O4	O	0.633706	-0.269212	0.937094
O5	O	0.633701	0.076239	0.743991
O6	O	0.633701	-0.269207	1.089431
O7	O	0.633706	-0.076098	0.743983
O8	O	0.417625	0.076237	1.089440
O9	O	0.849777	-0.269205	0.743981
O10	O	0.562590	-0.056766	1.070114
O11	O	0.562590	0.056917	0.956433
O12	O	0.704807	-0.170448	0.956427
O13	O	0.704807	-0.056765	0.842745
Zr14	Zr	0.633686	0.121565	1.134763
Zr15	Zr	0.633694	-0.121396	1.134750
Zr16	Zr	0.633694	0.121556	0.891803
Zr17	Zr	0.785660	-0.121394	0.891796
Zr18	Zr	0.481729	0.121554	1.134757
O19	O	0.754475	0.076260	1.089454
O20	O	0.754487	-0.269198	1.089436
O21	O	0.754487	0.076247	0.743996
O22	O	0.512890	0.269371	1.282575
O23	O	0.512902	-0.076087	1.282557
O24	O	0.512902	0.269359	0.937117
O25	O	0.633688	-0.076079	1.282562
O26	O	0.633683	0.269372	1.089459
O27	O	0.633688	0.269367	0.937122
O28	O	0.633683	0.076259	1.282570
O29	O	0.849770	-0.269198	0.937102
O30	O	0.417619	0.269358	1.089451
O31	O	0.417612	0.269365	1.282572
O32	O	0.417619	0.076244	1.282561
O33	O	0.849770	-0.076084	0.743992
O34	O	0.849763	-0.076077	0.937113
O35	O	0.562582	0.170609	1.070126
O36	O	0.562582	0.056925	1.183808
O37	O	0.704799	-0.056757	1.070120
O38	O	0.704799	0.056926	0.956439
C39	C	0.443619	0.000067	1.013269
C40	C	0.379109	0.000063	1.013266
C41	C	0.633705	0.000069	0.709370
C42	C	0.633708	0.000065	0.606228
C43	C	0.633684	0.303986	1.013293
C44	C	0.633680	0.407129	1.013298
C45	C	0.348808	-0.059283	1.072599
C46	C	0.288186	-0.059274	1.072610
C47	C	0.257878	0.000066	1.013266
C48	C	0.288183	0.059425	0.953931
C49	C	0.348799	0.059423	0.953931
N50	N	0.195486	-0.008166	0.916690
N51	N	0.137906	-0.008171	0.916692
C52	C	0.075246	0.000076	1.013265
N53	N	0.072351	0.008307	1.109834
N54	N	0.129939	0.008305	1.109830
C55	C	0.192151	0.000075	1.013260
C56	C	-0.020789	-0.059262	1.072615
C57	C	-0.081416	-0.059245	1.072630
C58	C	-0.081411	0.059446	0.953939
C59	C	-0.020791	0.059436	0.953936
C60	C	0.009519	0.000076	1.013271
C61	C	0.823770	0.000093	1.013284
C62	C	0.888280	0.000097	1.013287
C63	C	0.633705	-0.303826	1.013260
C64	C	0.633708	-0.406969	1.013255
C65	C	0.543993	0.625494	1.084629
C66	C	0.543933	0.518263	1.085038
C67	C	0.678230	0.410465	1.065598
C68	C	0.677661	0.518234	1.066113
C69	C	0.679514	0.516849	0.889553
C70	C	0.677824	0.410879	0.889756
C71	C	0.723396	-0.071273	0.387858
C72	C	0.723456	-0.071674	0.495090
C73	C	0.589159	-0.052239	0.602899
C74	C	0.589728	-0.052762	0.495130
C75	C	0.587875	0.123798	0.496503
C76	C	0.589565	0.123603	0.602473
C77	C	0.633684	0.000091	1.317183
C78	C	0.633680	0.000095	1.420326
C79	C	0.443608	0.000078	1.317175
C80	C	0.379095	0.000078	1.420315
C81	C	0.443608	0.303973	1.013285
C82	C	0.379095	0.407112	1.013288
C83	C	0.443598	0.303984	1.317191
C84	C	0.379081	0.407127	1.420337
C85	C	0.823791	-0.303824	0.709362
C86	C	0.888308	-0.406967	0.606216
C87	C	0.823780	0.000082	0.709378
C88	C	0.888294	0.000082	0.606238
C89	C	0.823780	-0.303813	1.013268
C90	C	0.888294	-0.406952	1.013265
C91	C	0.348803	-0.059278	1.409404
C92	C	0.288194	-0.059302	1.506306
C93	C	0.257874	0.000039	1.614118
C94	C	0.288173	0.059397	1.625027
C95	C	0.348784	0.059413	1.528126
C96	C	0.348795	0.514903	1.072636
C97	C	0.288186	0.611822	1.072635
C98	C	0.257875	0.600947	1.013291
C99	C	0.288181	0.493145	0.953935
C100	C	0.348793	0.396228	0.953931
C101	C	0.348783	0.396222	1.528126
C102	C	0.288171	0.493126	1.625052
C103	C	0.257854	0.600934	1.614186
C104	C	0.288158	0.611836	1.506386
C105	C	0.348773	0.514933	1.409462
C106	C	0.918613	-0.396062	0.498427
C107	C	0.979244	-0.492966	0.401501
C108	C	1.009564	-0.600774	0.412367
C109	C	0.979257	-0.611676	0.520167
C110	C	0.918631	-0.514773	0.617091
C111	C	0.918592	0.059428	0.617149
C112	C	0.979218	0.059425	0.520247
C113	C	1.009540	0.000081	0.412435
C114	C	0.979239	-0.059272	0.401526
C115	C	0.918618	-0.059275	0.498427
C116	C	0.918586	-0.396041	1.072620
C117	C	0.979195	-0.492941	1.072640
C118	C	1.009515	-0.600751	1.013297
C119	C	0.979217	-0.611660	0.953939
C120	C	0.918605	-0.514761	0.953927
H121	H	0.373483	-0.107614	1.120917
Cl122	Cl	0.250097	0.747330	1.147264
Cl123	Cl	0.487276	0.024147	0.723736
Cl124	Cl	0.386889	0.260704	1.541816
Cl125	Cl	0.181649	0.722745	1.736045
Cl126	Cl	0.181674	0.722798	1.013310
Cl127	Cl	0.250064	0.479493	0.879340
H128	H	0.647283	0.408338	1.155766
Cl129	Cl	0.777500	-0.211312	0.302965
H130	H	0.263533	-0.107638	1.497402
Cl131	Cl	1.017363	-0.133865	0.265982
H132	H	0.373455	0.308464	0.905606
H133	H	1.003913	-0.699452	0.905624
Cl134	Cl	0.636938	-0.191449	0.606186
Cl135	Cl	0.250084	0.479394	1.760558
H136	H	-0.106091	-0.107566	1.120952
Cl137	Cl	-0.119506	0.134045	0.879334
H138	H	0.263510	-0.107601	1.120928
Cl139	Cl	0.632183	0.191264	0.419273
H140	H	0.523905	-0.004142	0.521784
H141	H	0.263503	0.107741	0.905614
Cl142	Cl	0.386894	0.134035	0.879334
Cl143	Cl	0.250034	0.747375	1.492745
H144	H	0.003888	-0.107593	1.120934
Cl145	Cl	0.386886	0.528604	1.147252
Cl146	Cl	0.777771	-0.212561	0.491305
H147	H	0.650808	0.566861	0.845861
Cl148	Cl	0.777760	-0.017386	0.304553
H149	H	1.003879	0.107762	0.529151
Cl150	Cl	0.880538	-0.528497	0.879289
H151	H	0.373434	0.523828	1.321699
Cl152	Cl	0.880508	-0.260544	0.484737
Cl153	Cl	1.085779	-0.722585	0.290508
Cl154	Cl	0.780112	0.289632	0.989211
H155	H	0.003883	0.107758	0.905616
Cl156	Cl	1.017329	-0.479234	0.265995
H157	H	0.508784	0.679447	1.049726
H158	H	0.893909	-0.308265	1.120945
H159	H	0.508978	0.519871	1.049962
H160	H	1.003951	-0.699465	0.529001
H161	H	1.058901	0.000092	0.333541
H162	H	0.893957	-0.523666	0.704855
H163	H	0.893909	0.107761	0.704926
Cl164	Cl	0.638623	-0.193304	0.417387
H165	H	0.208520	0.000018	1.693012
H166	H	0.893951	-0.107598	0.489527
H167	H	0.622048	0.162677	0.601958
Cl168	Cl	0.489886	0.710403	1.224664
Cl169	Cl	0.489611	0.522058	1.225931
Cl170	Cl	0.628771	0.595979	1.206653
Cl171	Cl	0.488461	0.212603	0.724668
Cl172	Cl	0.386853	0.134049	1.541863
H173	H	0.758588	-0.036862	0.493334
H174	H	0.743484	0.491583	1.017482
H175	H	0.521786	0.177225	0.523943
H176	H	0.263477	0.107709	1.712820
H177	H	0.743301	0.331724	0.832107
Cl178	Cl	0.627667	0.411685	0.829435
H179	H	0.745605	0.489402	0.836125
H180	H	1.003858	-0.484037	1.120974
H181	H	1.058870	-0.679644	1.013315
Cl182	Cl	0.386910	-0.133893	1.273881
