data_functionalizedCrystal
_audit_creation_method	'MofGen! by Chris Wilmer'
_symmetry_space_group_name_H-M	'P1'
_symmetry_Int_Tables_number	1
_symmetry_cell_setting	triclinic
loop_
_symmetry_equiv_pos_as_xyz
  x,y,z
_cell_length_a	18.215407
_cell_length_b	14.908520
_cell_length_c	18.215399
_cell_angle_alpha	93.269364
_cell_angle_beta	89.980167
_cell_angle_gamma	93.321174
loop_
_atom_site_label
_atom_site_type_symbol
_atom_site_fract_x
_atom_site_fract_y
_atom_site_fract_z
Zn1	Zn	1.108178	-0.359158	-0.433017
Zn2	Zn	1.608178	0.140842	0.066983
Zn3	Zn	1.100989	-0.510027	-0.317051
Zn4	Zn	1.600989	-0.010027	0.182949
Zn5	Zn	0.985109	-0.359188	-0.309966
Zn6	Zn	1.485109	0.140812	0.190034
Zn7	Zn	0.977982	-0.509977	-0.440073
Zn8	Zn	1.477982	-0.009977	0.059927
O9	O	1.043064	-0.434588	-0.375027
O10	O	1.543064	0.065412	0.124973
O11	O	1.210208	-0.379180	-0.417646
O12	O	1.710208	0.120820	0.082354
O13	O	1.085592	-0.490052	-0.213128
O14	O	1.585592	0.009948	0.286872
O15	O	1.007425	-0.232939	-0.320371
O16	O	1.507425	0.267061	0.179629
O17	O	1.204927	-0.490023	-0.332446
O18	O	1.704927	0.009977	0.167554
O19	O	1.097843	-0.232917	-0.410776
O20	O	1.597843	0.267083	0.089224
O21	O	1.000455	-0.379230	-0.207923
O22	O	1.500455	0.120770	0.292077
O23	O	0.881180	-0.379182	-0.327213
O24	O	1.381180	0.120818	0.172787
O25	O	0.995278	-0.489937	-0.542120
O26	O	1.495278	0.010063	-0.042120
O27	O	0.875943	-0.489966	-0.422802
O28	O	1.375943	0.010034	0.077198
O29	O	1.090932	-0.379131	-0.536936
O30	O	1.590932	0.120869	-0.036936
O31	O	1.078681	-0.636266	-0.339288
O32	O	1.578681	-0.136266	0.160712
O33	O	0.988308	-0.636229	-0.429672
O34	O	1.488308	-0.136229	0.070328
C35	C	0.851859	-0.434572	-0.375005
C36	C	1.351859	0.065428	0.124995
C37	C	0.770059	-0.434587	-0.375014
C38	C	1.270059	0.065413	0.124986
C39	C	0.579154	-0.492363	-0.424733
C40	C	1.079154	0.007637	0.075267
C41	C	0.502295	-0.492366	-0.424742
C42	C	1.002295	0.007634	0.075258
C43	C	0.507726	-0.376828	-0.325338
C44	C	1.007726	0.123172	0.174662
C45	C	0.584584	-0.376822	-0.325333
C46	C	1.084584	0.123178	0.174667
C47	C	0.620295	-0.434594	-0.375029
C48	C	1.120295	0.065406	0.124971
C49	C	0.466579	-0.434604	-0.375044
C50	C	0.966579	0.065396	0.124956
C51	C	0.383245	-0.434606	-0.375053
C52	C	0.883245	0.065394	0.124947
C53	C	0.703635	-0.434591	-0.375021
C54	C	1.203635	0.065409	0.124979
C55	C	1.031961	-0.668981	-0.386030
C56	C	1.531961	-0.168981	0.113970
C57	C	1.027278	-0.769256	-0.390762
C58	C	1.527278	-0.269256	0.109238
C59	C	1.112681	-0.957660	-0.305613
C60	C	1.612681	-0.457660	0.194387
C61	C	1.108284	-1.051877	-0.310057
C62	C	1.608284	-0.551877	0.189943
C63	C	1.014091	-1.051908	-0.404097
C64	C	1.514091	-0.551908	0.095903
C65	C	1.018488	-0.957691	-0.399653
C66	C	1.518488	-0.457691	0.100347
C67	C	1.067784	-0.910570	-0.350409
C68	C	1.567784	-0.410570	0.149591
C69	C	1.072177	-0.816352	-0.345962
C70	C	1.572177	-0.316352	0.154038
C71	C	0.977988	-0.816385	-0.440005
C72	C	1.477988	-0.316385	0.059995
C73	C	0.973591	-0.910602	-0.444449
C74	C	1.473591	-0.410602	0.055551
C75	C	1.235017	-0.434604	-0.375049
C76	C	1.735017	0.065396	0.124951
C77	C	1.316815	-0.434611	-0.375059
C78	C	1.816815	0.065389	0.124941
C79	C	1.043112	-0.434526	-0.566977
C80	C	1.543112	0.065474	-0.066977
C81	C	1.043133	-0.434499	-0.648775
C82	C	1.543133	0.065501	-0.148775
C83	C	1.054231	-0.199279	-0.363996
C84	C	1.554231	0.300721	0.136004
C85	C	1.058990	-0.099004	-0.359296
C86	C	1.558990	0.400996	0.140704
C87	C	1.092959	-0.376748	-0.834268
C88	C	1.592959	0.123252	-0.334268
C89	C	1.092969	-0.376722	-0.911126
C90	C	1.592969	0.123278	-0.411126
C91	C	0.993364	-0.492110	-0.916513
C92	C	1.493364	0.007890	-0.416513
C93	C	0.993351	-0.492131	-0.839656
C94	C	1.493351	0.007869	-0.339656
C95	C	1.043153	-0.434452	-0.798536
C96	C	1.543153	0.065548	-0.298536
C97	C	1.043176	-0.434404	-0.952250
C98	C	1.543176	0.065596	-0.452250
C99	C	1.043186	-0.434376	-1.035582
C100	C	1.543186	0.065624	-0.535582
C101	C	1.043142	-0.434478	-0.715198
C102	C	1.543142	0.065522	-0.215198
C103	C	1.043062	-0.434585	-0.183820
C104	C	1.543062	0.065415	0.316180
C105	C	1.043196	-0.434357	-0.102011
C106	C	1.543196	0.065643	0.397989
H107	H	0.478640	-0.329793	-0.284876
H108	H	0.978640	0.170207	0.215124
H109	H	0.608228	-0.539403	-0.465200
H110	H	1.108228	-0.039403	0.034800
H111	H	1.133525	-0.329733	-0.940215
H112	H	1.633525	0.170267	-0.440215
H113	H	0.952819	-0.539073	-0.950002
H114	H	1.452819	-0.039073	-0.450002
H115	H	1.112315	-0.777987	-0.305863
H116	H	1.612315	-0.277987	0.194137
H117	H	0.952788	-0.539119	-0.810563
H118	H	1.452788	-0.039119	-0.310563
H119	H	0.468801	-0.539406	-0.465216
H120	H	0.968801	-0.039406	0.034784
C121	C	1.157021	-1.103166	-0.261535
C122	C	1.657021	-0.603166	0.238465
C123	C	1.142647	-1.195763	-0.275990
C124	C	1.642647	-0.695763	0.224010
C125	C	1.187552	-1.243038	-0.231326
C126	C	1.687552	-0.743038	0.268674
H127	H	1.147070	-1.087901	-0.211318
H128	H	1.647070	-0.587901	0.288682
H129	H	1.207189	-1.087696	-0.271661
H130	H	1.707189	-0.587696	0.228339
H131	H	1.092491	-1.211227	-0.265859
H132	H	1.592491	-0.711227	0.234141
H133	H	1.152603	-1.211055	-0.326199
H134	H	1.652603	-0.711055	0.173801
H135	H	1.237720	-1.227569	-0.241451
H136	H	1.737720	-0.727569	0.258549
H137	H	1.177598	-1.227767	-0.181111
H138	H	1.677598	-0.727767	0.318889
H139	H	1.177811	-1.305870	-0.241132
H140	H	1.677811	-0.805870	0.258868
H141	H	0.618083	-0.329773	-0.284858
H142	H	1.118083	0.170227	0.215142
H143	H	0.973961	-1.090290	-0.444194
H144	H	1.473961	-0.590290	0.055806
H145	H	0.933457	-0.948981	-0.484544
H146	H	1.433457	-0.448981	0.015456
C147	C	1.166267	-0.906656	-0.252124
C148	C	1.666267	-0.406656	0.247876
C149	C	1.204654	-0.968062	-0.213852
C150	C	1.704654	-0.468062	0.286148
C151	C	1.254028	-0.921112	-0.164577
C152	C	1.754028	-0.421112	0.335423
H153	H	1.139924	-0.869956	-0.218239
H154	H	1.639924	-0.369956	0.281761
H155	H	1.200074	-0.869863	-0.278551
H156	H	1.700074	-0.369863	0.221449
H157	H	1.170852	-1.004840	-0.187426
H158	H	1.670852	-0.504840	0.312574
H159	H	1.231011	-1.004765	-0.247718
H160	H	1.731011	-0.504765	0.252282
H161	H	1.287835	-0.884319	-0.191004
H162	H	1.787835	-0.384319	0.308996
H163	H	1.227680	-0.884413	-0.130696
H164	H	1.727680	-0.384413	0.369304
H165	H	1.280085	-0.962769	-0.138608
H166	H	1.780085	-0.462769	0.361392
H167	H	0.941427	-0.778034	-0.476478
H168	H	1.441427	-0.278034	0.023522
C169	C	1.147055	-0.314021	-0.789750
C170	C	1.647055	0.185979	-0.289750
C171	C	1.190661	-0.263464	-0.837496
C172	C	1.690661	0.236536	-0.337496
C173	C	1.240494	-0.205658	-0.796515
C174	C	1.740494	0.294342	-0.296515
H175	H	1.177550	-0.348437	-0.761383
H176	H	1.677550	0.151563	-0.261383
H177	H	1.120779	-0.274673	-0.757936
H178	H	1.620779	0.225327	-0.257936
H179	H	1.216934	-0.302808	-0.869298
H180	H	1.716934	0.197192	-0.369298
H181	H	1.160185	-0.229030	-0.865864
H182	H	1.660185	0.270970	-0.365864
H183	H	1.214219	-0.166310	-0.764700
H184	H	1.714219	0.333690	-0.264700
H185	H	1.270985	-0.240082	-0.768150
H186	H	1.770985	0.259918	-0.268150
H187	H	1.270082	-0.171343	-0.828904
H188	H	1.770082	0.328657	-0.328904
