data_functionalizedCrystal
_audit_creation_method	'MofGen! by Chris Wilmer'
_symmetry_space_group_name_H-M	'P1'
_symmetry_Int_Tables_number	1
_symmetry_cell_setting	triclinic
loop_
_symmetry_equiv_pos_as_xyz
  x,y,z
_cell_length_a	14.044191
_cell_length_b	15.944493
_cell_length_c	12.503572
_cell_angle_alpha	93.528588
_cell_angle_beta	86.162165
_cell_angle_gamma	88.333410
loop_
_atom_site_label
_atom_site_type_symbol
_atom_site_fract_x
_atom_site_fract_y
_atom_site_fract_z
O1	O	1.263136	0.198090	-0.089242
O2	O	0.987168	0.190776	-0.089257
O3	O	1.132717	0.072721	-0.089258
O4	O	1.117587	0.316145	-0.089241
O5	O	1.121771	0.081615	0.089384
O6	O	0.976222	0.199670	0.089385
O7	O	1.252190	0.206985	0.089400
Cu8	Cu	1.113206	0.204140	0.105704
Cu9	Cu	1.126151	0.193621	-0.105561
O10	O	1.106641	0.325039	0.089401
C11	C	0.946381	0.192023	0.000062
C12	C	0.841157	0.182479	0.000056
C13	C	0.590861	0.232718	0.000070
C14	C	0.648502	0.165045	0.000063
C15	C	0.755705	0.174748	0.000059
C16	C	0.483648	0.223017	0.000074
C17	C	1.126626	0.045827	0.000058
C18	C	1.124773	-0.047561	0.000045
C19	C	1.210445	-0.276903	0.000069
C20	C	1.169642	-0.335317	-0.088012
C21	C	1.121337	-0.218539	0.000058
C22	C	1.158829	-0.326525	0.088115
C23	C	1.118025	-0.383696	0.000075
C24	C	1.080562	-0.275727	-0.088097
C25	C	1.069758	-0.266927	0.088109
C26	C	1.028890	-0.325314	0.000006
C27	C	1.123248	-0.123397	0.000047
C28	C	1.116107	-0.478836	0.000078
C29	C	1.292977	0.205737	0.000078
C30	C	1.398201	0.215281	0.000078
C31	C	1.112732	0.351933	0.000082
C32	C	1.114585	0.445321	0.000089
N33	N	1.104108	0.211538	0.254296
N34	N	1.135257	0.186216	-0.254153
C35	C	1.090725	0.222428	0.473412
C36	C	1.148637	0.175329	0.526738
C37	C	1.141191	0.181388	0.648662
C38	C	1.098170	0.216370	0.351477
H39	H	1.287206	-0.255530	-0.000015
H40	H	0.622024	0.297937	0.000071
H41	H	1.035556	0.267300	0.519320
H42	H	1.203811	0.130455	0.480825
H43	H	1.047520	-0.253435	-0.162643
Cl44	Cl	1.234784	-0.381383	-0.202977
Cl45	Cl	0.910300	-0.358084	-0.000070
Cl46	Cl	0.600392	0.064343	0.000055
Cl47	Cl	1.004682	-0.220812	0.203081
Cl48	Cl	1.209910	-0.361113	0.203079
