data_functionalizedCrystal
_audit_creation_method	'MofGen! by Chris Wilmer'
_symmetry_space_group_name_H-M	'P1'
_symmetry_Int_Tables_number	1
_symmetry_cell_setting	triclinic
loop_
_symmetry_equiv_pos_as_xyz
  x,y,z
_cell_length_a	19.077399
_cell_length_b	15.299816
_cell_length_c	19.076919
_cell_angle_alpha	77.689900
_cell_angle_beta	85.520477
_cell_angle_gamma	82.235332
loop_
_atom_site_label
_atom_site_type_symbol
_atom_site_fract_x
_atom_site_fract_y
_atom_site_fract_z
Zn1	Zn	1.103565	-0.322732	0.397340
Zn2	Zn	1.126977	-0.467251	0.298244
Zn3	Zn	0.990423	-0.322757	0.284198
Zn4	Zn	1.006037	-0.479822	0.422446
O5	O	1.056750	-0.398140	0.350557
O6	O	1.204634	-0.336631	0.379566
O7	O	1.112126	-0.442832	0.197051
O8	O	0.989098	-0.196539	0.282822
O9	O	1.221835	-0.442809	0.306760
O10	O	1.072223	-0.196521	0.365947
O11	O	1.011800	-0.336673	0.186732
O12	O	0.894530	-0.348863	0.307166
O13	O	1.015711	-0.464235	0.518445
O14	O	0.906002	-0.464258	0.408736
O15	O	1.087364	-0.348821	0.500000
O16	O	1.127267	-0.595132	0.331104
O17	O	1.038413	-0.604368	0.422355
C18	C	0.874865	-0.407928	0.359151
C19	C	0.797056	-0.412138	0.362848
C20	C	0.754494	-0.353953	0.311765
C21	C	0.681385	-0.357916	0.315239
C22	C	0.650839	-0.420061	0.369799
C23	C	0.693407	-0.478253	0.420884
C24	C	0.766515	-0.474293	0.417407
C25	C	0.432834	-0.438360	0.385861
C26	C	0.359720	-0.442313	0.389336
C27	C	0.347703	-0.321977	0.283689
C28	C	0.420813	-0.318019	0.280219
C29	C	0.463375	-0.376214	0.331302
N30	N	0.576109	-0.424112	0.373353
N31	N	0.538103	-0.372167	0.327745
C32	C	1.087093	-0.632476	0.380993
C33	C	1.100137	-0.732724	0.394034
C34	C	0.963973	-1.015626	0.257568
C35	C	0.951714	-0.921439	0.245317
C36	C	0.988819	-0.874255	0.282495
C37	C	1.038185	-0.921268	0.331927
C38	C	1.050441	-1.015465	0.344183
C39	C	1.075287	-0.874095	0.369110
C40	C	1.124653	-0.921108	0.418542
C41	C	1.136908	-1.015296	0.430796
C42	C	1.099803	-1.062479	0.393618
C43	C	1.063031	-0.779898	0.356854
C44	C	1.149499	-0.779737	0.443469
C45	C	1.161758	-0.873925	0.455720
C46	C	1.239346	-0.388315	0.341930
C47	C	1.317157	-0.384128	0.338253
C48	C	1.050668	-0.407928	0.535698
C49	C	1.048076	-0.412098	0.614594
C50	C	1.026307	-0.162889	0.320017
C51	C	1.013334	-0.062640	0.307002
C52	C	1.062841	-0.388324	0.166126
C53	C	1.065536	-0.383892	0.087191
C54	C	1.084162	-0.353971	0.642058
C55	C	1.081717	-0.357887	0.716189
C56	C	1.043190	-0.419935	0.762856
C57	C	1.007100	-0.478065	0.735387
C58	C	1.009540	-0.474144	0.661257
C59	C	1.031886	-0.438101	0.985592
C60	C	1.029450	-0.442019	1.059727
C61	C	1.104067	-0.321839	1.040523
C62	C	1.106507	-0.317928	0.966393
C63	C	1.070414	-0.376054	0.938931
N64	N	1.040692	-0.423941	0.838630
N65	N	1.072908	-0.372043	0.863157
H66	H	0.334851	-0.492919	0.433769
C67	C	0.897423	-0.869721	0.190939
C68	C	0.833009	-0.809595	0.215827
C69	C	0.778719	-0.757874	0.161443
C70	C	0.788842	-0.766279	0.082171
C71	C	0.853258	-0.826408	0.057279
C72	C	0.907549	-0.878129	0.111663
H73	H	0.825513	-0.803371	0.274513
H74	H	0.731033	-0.713363	0.179871
H75	H	0.748653	-0.727992	0.041913
H76	H	0.860755	-0.832632	-0.001407
H77	H	0.955234	-0.922640	0.093236
H78	H	1.115537	-0.303447	0.604066
C79	C	0.813337	-0.538296	0.473599
C80	C	0.816763	-0.641048	0.481467
C81	C	0.863585	-0.705056	0.537658
C82	C	0.906980	-0.666313	0.585982
C83	C	0.903555	-0.563556	0.578115
C84	C	0.856733	-0.499548	0.521924
H85	H	0.784638	-0.669733	0.445694
H86	H	0.866121	-0.781124	0.543481
H87	H	0.941641	-0.713695	0.627578
H88	H	0.935680	-0.534871	0.613889
H89	H	0.854198	-0.423480	0.516101
H90	H	1.109784	-1.139174	0.403587
H91	H	1.179712	-0.741321	0.473744
C92	C	0.964724	-0.546320	0.786724
C93	C	1.002553	-0.618191	0.845444
C94	C	0.960181	-0.686450	0.896782
C95	C	0.879979	-0.682839	0.889401
C96	C	0.842146	-0.610966	0.830679
C97	C	0.884518	-0.542706	0.779341
H98	H	1.061927	-0.620866	0.850910
H99	H	0.988188	-0.739655	0.940252
H100	H	0.848613	-0.733368	0.927404
H101	H	0.782772	-0.608290	0.825213
H102	H	0.856510	-0.489501	0.735871
C103	C	1.191208	-1.067016	0.485170
C104	C	1.167430	-1.136359	0.550735
C105	C	1.221732	-1.188079	0.605108
C106	C	1.299812	-1.170455	0.593916
C107	C	1.323594	-1.101108	0.528348
C108	C	1.269292	-1.049388	0.473975
H109	H	1.109627	-1.149408	0.559023
H110	H	1.204127	-1.239414	0.653645
H111	H	1.340009	-1.208741	0.634165
H112	H	1.381397	-1.088059	0.520060
H113	H	1.286897	-0.998053	0.425438
C114	C	1.008735	-0.728189	0.302478
C115	C	1.018853	-0.736602	0.223207
C116	C	0.964555	-0.684894	0.168826
C117	C	0.900139	-0.624773	0.193716
C118	C	0.890018	-0.616357	0.272991
C119	C	0.944316	-0.668066	0.327372
H120	H	1.066540	-0.781110	0.204779
H121	H	0.972047	-0.691124	0.110142
H122	H	0.859944	-0.586495	0.153460
H123	H	0.842331	-0.571850	0.291419
H124	H	0.936824	-0.661836	0.386056
C125	C	0.923162	-1.067530	0.216680
C126	C	0.963796	-1.127703	0.167970
C127	C	0.922981	-1.179610	0.127079
C128	C	0.841532	-1.171344	0.134899
C129	C	0.800894	-1.111168	0.183610
C130	C	0.841709	-1.059261	0.224501
H131	H	1.024094	-1.133825	0.162180
H132	H	0.953065	-1.224156	0.091020
H133	H	0.811319	-1.209768	0.104629
H134	H	0.740596	-1.105046	0.189401
H135	H	0.811625	-1.014715	0.260561
C136	C	0.659810	-0.546615	0.480902
C137	C	0.666303	-0.543137	0.560189
C138	C	0.632709	-0.611499	0.620210
C139	C	0.592621	-0.683339	0.600943
C140	C	0.586126	-0.686820	0.521652
C141	C	0.619720	-0.618458	0.461631
H142	H	0.695981	-0.489954	0.574455
H143	H	0.637517	-0.608922	0.678907
H144	H	0.567752	-0.733945	0.645374
H145	H	0.556449	-0.740003	0.507387
H146	H	0.614912	-0.621035	0.402935
H147	H	0.467479	-0.485746	0.427456
H148	H	1.201952	-0.912216	0.495968
C149	C	1.121414	-0.293943	0.746395
C150	C	1.202286	-0.296487	0.733405
C151	C	1.241983	-0.232537	0.763609
C152	C	1.200808	-0.166043	0.806802
C153	C	1.119932	-0.163497	0.819794
C154	C	1.080235	-0.227447	0.789591
H155	H	1.232770	-0.345712	0.701429
H156	H	1.301853	-0.234422	0.753991
H157	H	1.230194	-0.118704	0.829161
H158	H	1.089448	-0.114272	0.851771
H159	H	1.020364	-0.225562	0.799209
H160	H	0.646734	-0.310541	0.273639
H161	H	0.978835	-0.797564	0.272516
C162	C	1.143761	-0.257896	1.070733
C163	C	1.141078	-0.262199	1.152272
C164	C	1.180771	-0.198250	1.182480
C165	C	1.223147	-0.129996	1.131148
C166	C	1.225832	-0.125690	1.049604
C167	C	1.186139	-0.189640	1.019396
H168	H	1.109706	-0.312727	1.190275
H169	H	1.178783	-0.201438	1.242844
H170	H	1.252531	-0.082657	1.153510
H171	H	1.257204	-0.075163	1.011601
H172	H	1.188127	-0.186452	0.959032
H173	H	0.779357	-0.303341	0.267341
H174	H	1.137882	-0.267404	0.928401
H175	H	0.998075	-0.492549	1.097723
H176	H	0.445679	-0.267420	0.235787
H177	H	0.313041	-0.274599	0.242100
H178	H	1.002508	-0.485444	0.963243
H179	H	0.980147	-0.521469	0.638897
