data_functionalizedCrystal
_audit_creation_method	'MofGen! by Chris Wilmer'
_symmetry_space_group_name_H-M	'P1'
_symmetry_Int_Tables_number	1
_symmetry_cell_setting	triclinic
loop_
_symmetry_equiv_pos_as_xyz
  x,y,z
_cell_length_a	13.032831
_cell_length_b	15.298259
_cell_length_c	13.032721
_cell_angle_alpha	93.763564
_cell_angle_beta	89.097115
_cell_angle_gamma	91.307588
loop_
_atom_site_label
_atom_site_type_symbol
_atom_site_fract_x
_atom_site_fract_y
_atom_site_fract_z
Zn1	Zn	1.397587	-0.712487	0.450908
Zn2	Zn	1.897587	-0.212487	0.950908
Zn3	Zn	1.397810	-0.583641	0.651544
Zn4	Zn	1.897810	-0.083641	1.151544
Zn5	Zn	1.253999	-0.547553	0.465760
Zn6	Zn	1.753999	-0.047553	0.965760
Zn7	Zn	1.204530	-0.707870	0.601982
Zn8	Zn	1.704530	-0.207870	1.101982
O9	O	1.313482	-0.637888	0.542549
O10	O	1.813482	-0.137888	1.042549
O11	O	1.538597	-0.712430	0.492049
O12	O	2.038597	-0.212430	0.992049
O13	O	1.399529	-0.457839	0.653856
O14	O	1.899529	0.042161	1.153856
O15	O	1.293656	-0.556261	0.322814
O16	O	1.793656	-0.056261	0.822814
O17	O	1.538761	-0.617768	0.639455
O18	O	2.038761	-0.117768	1.139455
O19	O	1.399149	-0.677437	0.311902
O20	O	1.899149	-0.177437	0.811902
O21	O	1.293872	-0.431325	0.517362
O22	O	1.793872	0.068675	1.017362
O23	O	1.106456	-0.551784	0.469304
O24	O	1.606456	-0.051784	0.969304
O25	O	1.209344	-0.829497	0.554985
O26	O	1.709344	-0.329497	1.054985
O27	O	1.070112	-0.669568	0.569386
O28	O	1.570112	-0.169568	1.069386
O29	O	1.351182	-0.832889	0.443992
O30	O	1.851182	-0.332889	0.943992
O31	O	1.351562	-0.613291	0.785945
O32	O	1.851562	-0.113291	1.285945
O33	O	1.209560	-0.704561	0.749533
O34	O	1.709560	-0.204561	1.249533
C35	C	1.051729	-0.606260	0.515579
C36	C	1.551729	-0.106260	1.015579
C37	C	0.939743	-0.592752	0.504061
C38	C	1.439743	-0.092752	1.004061
C39	C	1.274720	-0.863449	0.492303
C40	C	1.774720	-0.363449	0.992303
C41	C	1.258202	-0.959569	0.470891
C42	C	1.758202	-0.459569	0.970891
C43	C	0.871861	-0.644937	0.548560
C44	C	1.371861	-0.144937	1.048560
C45	C	0.756117	-0.630978	0.536657
C46	C	1.256117	-0.130978	1.036657
C47	C	1.431684	-1.285729	0.694808
C48	C	1.931684	-0.785729	1.194808
C49	C	1.447198	-1.195418	0.714931
C50	C	1.947198	-0.695418	1.214931
C51	C	1.399950	-1.136452	0.653923
C52	C	1.899950	-0.636452	1.153923
C53	C	1.337186	-1.167804	0.572788
C54	C	1.837186	-0.667804	1.072788
C55	C	1.321665	-1.258123	0.552668
C56	C	1.821665	-0.758123	1.052668
C57	C	1.289931	-1.108846	0.511783
C58	C	1.789931	-0.608846	1.011783
C59	C	1.227167	-1.140198	0.430648
C60	C	1.727167	-0.640198	0.930648
C61	C	1.211649	-1.230509	0.410532
C62	C	1.711649	-0.730509	0.910532
C63	C	1.258897	-1.289475	0.471540
C64	C	1.758897	-0.789475	0.971540
C65	C	1.305452	-1.018527	0.531903
C66	C	1.805452	-0.518527	1.031903
C67	C	1.195433	-0.990922	0.389763
C68	C	1.695433	-0.490922	0.889763
C69	C	1.179920	-1.081232	0.369640
C70	C	1.679920	-0.581232	0.869640
C71	C	1.576256	-0.669640	0.569624
C72	C	2.076256	-0.169640	1.069624
C73	C	1.688235	-0.683170	0.581162
C74	C	2.188235	-0.183170	1.081162
C75	C	1.275241	-0.662363	0.804291
C76	C	1.775241	-0.162363	1.304291
C77	C	1.258969	-0.672874	0.916269
C78	C	1.758969	-0.172874	1.416269
C79	C	1.352161	-0.413204	0.592532
C80	C	1.852161	0.086796	1.092532
C81	C	1.368916	-0.317081	0.613680
C82	C	1.868916	0.182919	1.113680
C83	C	1.351896	-0.613339	0.279782
C84	C	1.851896	-0.113339	0.779782
C85	C	1.368266	-0.602877	0.167807
C86	C	1.868266	-0.102877	0.667807
C87	C	1.322021	-0.632447	0.984171
C88	C	1.822021	-0.132447	1.484171
C89	C	1.305204	-0.643310	1.099906
C90	C	1.805204	-0.143310	1.599906
H91	H	0.899432	-0.699953	0.595466
H92	H	1.399432	-0.199953	1.095466
Br93	Br	0.710180	-0.539285	0.458454
Br94	Br	1.210180	-0.039285	0.958454
H95	H	1.192541	-0.715531	0.943818
H96	H	1.692541	-0.215531	1.443818
H97	H	1.238772	-0.685969	1.127449
H98	H	1.738772	-0.185969	1.627449
Br99	Br	0.734169	-0.774886	0.659332
Br100	Br	1.234169	-0.274886	1.159332
H101	H	1.434705	-0.560225	1.140264
H102	H	1.934705	-0.060225	1.640264
Br103	Br	0.893801	-0.501063	0.425861
Br104	Br	1.393801	-0.001063	0.925861
H105	H	1.412584	-1.062918	0.670313
H106	H	1.912584	-0.562918	1.170313
H107	H	1.356562	-0.993010	0.597958
H108	H	1.856562	-0.493010	1.097958
Br109	Br	1.532373	-1.152874	0.825037
Br110	Br	2.032373	-0.652874	1.325037
H111	H	1.388456	-0.589798	0.956624
H112	H	1.888456	-0.089798	1.456624
Br113	Br	1.495782	-1.365755	0.777607
Br114	Br	1.995782	-0.865755	1.277607
Br115	Br	1.094745	-1.123792	0.259531
Br116	Br	1.594745	-0.623792	0.759531
H117	H	1.246272	-1.363015	0.455158
H118	H	1.746272	-0.863015	0.955158
Br119	Br	1.131288	-0.910902	0.306976
Br120	Br	1.631288	-0.410902	0.806976
Br121	Br	1.126416	-1.273056	0.300463
Br122	Br	1.626416	-0.773056	0.800463
