data_functionalizedCrystal
_audit_creation_method	'MofGen! by Chris Wilmer'
_symmetry_space_group_name_H-M	'P1'
_symmetry_Int_Tables_number	1
_symmetry_cell_setting	triclinic
loop_
_symmetry_equiv_pos_as_xyz
  x,y,z
_cell_length_a	27.732048
_cell_length_b	14.853567
_cell_length_c	13.330367
_cell_angle_alpha	90.000844
_cell_angle_beta	89.997949
_cell_angle_gamma	96.861208
loop_
_atom_site_label
_atom_site_type_symbol
_atom_site_fract_x
_atom_site_fract_y
_atom_site_fract_z
O1	O	0.641431	-0.107269	-0.083287
O2	O	0.500714	-0.123580	-0.083316
O3	O	0.574831	0.015866	-0.083303
O4	O	0.567314	-0.246715	-0.083299
O5	O	0.574820	0.015869	0.083544
O6	O	0.500703	-0.123577	0.083531
O7	O	0.641420	-0.107266	0.083560
Cu8	Cu	0.571061	-0.115421	0.098780
Cu9	Cu	0.571073	-0.115425	-0.098536
O10	O	0.567303	-0.246713	0.083548
C11	C	0.482700	-0.123236	0.000104
C12	C	0.429040	-0.122205	0.000092
N13	N	0.571055	-0.115418	0.237562
C14	C	0.574485	0.049451	0.000117
C15	C	0.573464	0.149518	0.000108
C16	C	0.090580	-0.198118	0.000137
C17	C	-0.111097	-0.194293	0.000146
O18	O	-0.142028	-0.263710	0.000191
N19	N	-0.130608	-0.111607	0.000143
C20	C	-0.099695	-0.029872	0.000144
O21	O	-0.120918	0.040545	0.000152
C22	C	0.101981	-0.033698	0.000142
C23	C	0.121489	-0.116389	0.000135
C24	C	0.110088	-0.280803	0.000131
C25	C	0.160504	-0.281758	0.000124
C26	C	0.191413	-0.200029	0.000122
C27	C	0.171905	-0.117344	0.000128
C28	C	0.132893	0.048036	0.000151
C29	C	0.183314	0.047073	0.000153
C30	C	0.202822	-0.035619	0.000146
C31	C	0.253230	-0.036571	0.000118
N32	N	0.272740	-0.119257	0.000121
C33	C	0.241832	-0.200986	0.000123
C34	C	-0.205579	-0.027869	0.000143
C35	C	-0.255998	-0.026912	0.000142
C36	C	-0.267396	-0.191334	0.000146
C37	C	-0.216976	-0.192289	0.000140
C38	C	-0.186068	-0.110555	0.000146
C39	C	0.347710	-0.202986	0.000106
C40	C	0.398132	-0.203934	0.000094
C41	C	0.409526	-0.039513	0.000096
C42	C	0.359109	-0.038564	0.000102
C43	C	0.328202	-0.120308	0.000111
O44	O	0.284189	0.032809	0.000085
O45	O	0.263064	-0.271393	0.000138
C46	C	0.040164	-0.197163	0.000145
C47	C	0.020656	-0.114478	0.000151
C48	C	0.051564	-0.032749	0.000149
C49	C	-0.029763	-0.113522	0.000149
C50	C	-0.060672	-0.195251	0.000151
C51	C	-0.041161	-0.277936	0.000154
C52	C	0.009255	-0.278892	0.000147
C53	C	0.032054	0.049937	0.000146
C54	C	-0.018363	0.050885	0.000152
C55	C	-0.049272	-0.030844	0.000154
C56	C	0.659434	-0.107610	0.000139
C57	C	0.713094	-0.108641	0.000143
C58	C	0.567649	-0.280297	0.000125
C59	C	0.568670	-0.380364	0.000128
C60	C	0.525122	0.561265	0.000117
C61	C	0.613175	0.583979	0.000135
C62	C	0.614135	0.489961	0.000130
C63	C	0.570588	0.431590	0.000119
C64	C	0.526081	0.467238	0.000115
C65	C	0.658641	0.454306	0.000145
C66	C	0.659603	0.360282	0.000140
C67	C	0.616055	0.301910	0.000122
C68	C	0.571546	0.337563	0.000117
C69	C	0.527999	0.279193	0.000106
C70	C	0.483489	0.314844	0.000093
C71	C	0.482533	0.408866	0.000097
C72	C	0.617012	0.207888	0.000119
C73	C	0.528957	0.185166	0.000103
N74	N	0.571083	-0.115421	-0.237317
C75	C	0.538253	-0.177148	0.710179
C76	C	0.603907	-0.053695	0.710158
C77	C	0.603901	-0.053692	0.605140
C78	C	0.571072	-0.115419	0.552636
C79	C	0.538247	-0.177149	0.605151
C80	C	0.636729	0.008030	0.552617
C81	C	0.636725	0.008035	0.447592
C82	C	0.603892	-0.053689	0.395087
C83	C	0.571066	-0.115420	0.447608
C84	C	0.538236	-0.177147	0.395105
C85	C	0.505407	-0.238875	0.447624
C86	C	0.505415	-0.238872	0.552646
C87	C	0.603885	-0.053692	0.290065
C88	C	0.538231	-0.177148	0.290077
H89	H	0.414012	-0.271274	0.000088
F90	F	0.314824	-0.289987	0.000116
F91	F	0.704984	0.516431	0.000174
H92	H	0.648630	0.631509	0.000152
F93	F	0.181259	-0.369770	0.000121
F94	F	0.064943	0.136929	0.000146
F95	F	0.077200	-0.367798	0.000133
F96	F	0.671670	0.073716	0.608495
F97	F	-0.276753	0.061099	0.000127
F98	F	0.664378	0.169949	0.000148
F99	F	-0.172690	0.059131	0.000149
H100	H	0.117019	0.115372	0.000157
H101	H	0.511495	-0.227410	0.247335
F102	F	0.638848	0.011991	0.766036
H103	H	0.343225	0.028769	0.000093
F104	F	0.470471	-0.304572	0.391735
F105	F	0.470480	-0.304564	0.608544
H106	H	-0.201097	-0.259624	0.000140
H107	H	0.511523	-0.227403	0.752943
H108	H	0.663455	0.058297	0.404838
F109	F	0.638824	0.011994	0.234177
H110	H	0.488884	0.590297	0.000103
H111	H	-0.292571	-0.257881	0.000147
F112	F	0.216207	0.134069	0.000162
H113	H	0.695845	0.331264	0.000149
H114	H	0.434700	0.027028	0.000090
F115	F	-0.074065	-0.364918	0.000151
F116	F	0.030010	-0.366904	0.000140
F117	F	-0.039118	0.138903	0.000147
H118	H	0.493495	0.137646	0.000091
H119	H	0.448033	0.267307	0.000092
F120	F	0.435167	0.446816	0.000080
