data_functionalizedCrystal
_audit_creation_method	'MofGen! by Chris Wilmer'
_symmetry_space_group_name_H-M	'P1'
_symmetry_Int_Tables_number	1
_symmetry_cell_setting	triclinic
loop_
_symmetry_equiv_pos_as_xyz
  x,y,z
_cell_length_a	19.077068
_cell_length_b	19.805407
_cell_length_c	19.805399
_cell_angle_alpha	89.980803
_cell_angle_beta	87.730571
_cell_angle_gamma	87.676776
loop_
_atom_site_label
_atom_site_type_symbol
_atom_site_fract_x
_atom_site_fract_y
_atom_site_fract_z
Zn1	Zn	-0.280290	-1.023901	0.393530
Zn2	Zn	0.219710	-0.523901	0.893530
Zn3	Zn	-0.397988	-1.019266	0.284884
Zn4	Zn	0.102012	-0.519266	0.784884
Zn5	Zn	-0.280301	-0.910715	0.280356
Zn6	Zn	0.219699	-0.410715	0.780356
Zn7	Zn	-0.397943	-0.906132	0.398030
Zn8	Zn	0.102057	-0.406132	0.898030
O9	O	-0.339131	-0.965004	0.339200
O10	O	0.160869	-0.465004	0.839200
O11	O	-0.295917	-1.118002	0.379130
O12	O	0.204083	-0.618002	0.879130
O13	O	-0.382401	-1.004846	0.189568
O14	O	0.117599	-0.504846	0.689568
O15	O	-0.181809	-0.929588	0.291590
O16	O	0.318191	-0.429588	0.791590
O17	O	-0.382390	-1.114597	0.299308
O18	O	0.117610	-0.614597	0.799308
O19	O	-0.181800	-1.012745	0.374739
O20	O	0.318200	-0.512745	0.874739
O21	O	-0.295936	-0.925094	0.186241
O22	O	0.204064	-0.425094	0.686241
O23	O	-0.295892	-0.815391	0.295953
O24	O	0.204108	-0.315391	0.795953
O25	O	-0.382312	-0.921775	0.492148
O26	O	0.117688	-0.421775	0.992148
O27	O	-0.382323	-0.812024	0.382408
O28	O	0.117677	-0.312024	0.882408
O29	O	-0.295873	-1.008300	0.488842
O30	O	0.204127	-0.508300	0.988842
O31	O	-0.496473	-1.000401	0.303671
O32	O	0.003527	-0.500401	0.803671
O33	O	-0.496440	-0.917281	0.386799
O34	O	0.003560	-0.417281	0.886799
C35	C	-0.339105	-0.789149	0.339178
C36	C	0.160895	-0.289149	0.839178
C37	C	-0.339111	-0.713916	0.339185
C38	C	0.160889	-0.213916	0.839185
C39	C	-0.294163	-0.680343	0.380817
C40	C	0.205837	-0.180343	0.880817
C41	C	-0.294165	-0.609654	0.380818
C42	C	0.205835	-0.109654	0.880818
C43	C	-0.339119	-0.572540	0.339191
C44	C	0.160881	-0.072540	0.839191
C45	C	-0.384069	-0.606119	0.297555
C46	C	0.115931	-0.106119	0.797555
C47	C	-0.384062	-0.676806	0.297551
C48	C	0.115938	-0.176806	0.797551
C49	C	-0.384094	-0.321045	0.297569
C50	C	0.115906	0.178955	0.797569
C51	C	-0.384099	-0.250352	0.297578
C52	C	0.115901	0.249648	0.797578
C53	C	-0.294197	-0.253893	0.380837
C54	C	0.205803	0.246107	0.880837
C55	C	-0.294191	-0.324580	0.380832
C56	C	0.205809	0.175420	0.880832
C57	C	-0.339138	-0.358152	0.339194
C58	C	0.160862	0.141848	0.839194
C59	C	-0.339134	-0.434801	0.339193
C60	C	0.160866	0.065199	0.839193
C61	C	-0.339127	-0.495893	0.339195
C62	C	0.160873	0.004107	0.839195
C63	C	-0.521994	-0.957859	0.346229
C64	C	-0.021994	-0.457859	0.846229
C65	C	-0.600224	-0.954864	0.349259
C66	C	-0.100224	-0.454864	0.849259
C67	C	-0.636971	-0.996767	0.307439
C68	C	-0.136971	-0.496767	0.807439
C69	C	-0.710476	-0.993955	0.310293
C70	C	-0.210476	-0.493955	0.810293
C71	C	-0.747233	-0.949235	0.354964
C72	C	-0.247233	-0.449235	0.854964
C73	C	-0.710482	-0.907331	0.396789
C74	C	-0.210482	-0.407331	0.896789
C75	C	-0.636978	-0.910147	0.393939
C76	C	-0.136978	-0.410147	0.893939
C77	C	-0.967067	-0.936171	0.368131
C78	C	-0.467067	-0.436171	0.868131
C79	C	-1.040576	-0.933356	0.370977
C80	C	-0.540576	-0.433356	0.870977
C81	C	-1.040566	-1.019981	0.284481
C82	C	-0.540566	-0.519981	0.784481
C83	C	-0.967060	-1.022791	0.281631
C84	C	-0.467060	-0.522791	0.781631
C85	C	-0.930315	-0.980889	0.323459
C86	C	-0.430315	-0.480889	0.823459
N87	N	-0.822368	-0.946358	0.357881
N88	N	-0.322368	-0.446358	0.857881
N89	N	-0.855182	-0.983770	0.320545
N90	N	-0.355182	-0.483770	0.820545
C91	C	-0.155553	-0.972195	0.332157
C92	C	0.344447	-0.472195	0.832157
C93	C	-0.077323	-0.975259	0.329156
C94	C	0.422677	-0.475259	0.829156
C95	C	-0.339086	-0.965043	0.515741
C96	C	0.160914	-0.465043	1.015741
C97	C	-0.339067	-0.965060	0.590972
C98	C	0.160933	-0.465060	1.090972
C99	C	-0.339152	-0.141546	0.339216
C100	C	0.160848	0.358454	0.839216
C101	C	-0.339147	-0.216778	0.339206
C102	C	0.160853	0.283222	0.839206
C103	C	-0.339124	-0.965005	0.163344
C104	C	0.160876	-0.465005	0.663344
C105	C	-0.338945	-0.965127	0.088105
C106	C	0.161055	-0.465127	0.588105
C107	C	-0.294056	-1.010115	0.624596
C108	C	0.205944	-0.510115	1.124596
C109	C	-0.294036	-1.010123	0.695284
C110	C	0.205964	-0.510123	1.195284
C111	C	-0.339031	-0.965078	0.732346
C112	C	0.160969	-0.465078	1.232346
C113	C	-0.384044	-0.920019	0.698718
C114	C	0.115956	-0.420019	1.198718
C115	C	-0.384060	-0.920009	0.628031
C116	C	0.115940	-0.420009	1.128031
C117	C	-0.383978	-0.920060	0.983789
C118	C	0.116022	-0.420060	1.483789
C119	C	-0.383960	-0.920075	1.054480
C120	C	0.116040	-0.420075	1.554480
C121	C	-0.293954	-1.010174	1.051041
C122	C	0.206046	-0.510174	1.551041
C123	C	-0.293970	-1.010163	0.980355
C124	C	0.206030	-0.510163	1.480355
C125	C	-0.338980	-0.965102	0.946732
C126	C	0.161020	-0.465102	1.446732
C127	C	-0.339001	-0.965093	0.870084
C128	C	0.160999	-0.465093	1.370084
C129	C	-0.339014	-0.965090	0.808993
C130	C	0.160986	-0.465090	1.308993
H131	H	-0.420667	-0.575895	0.263658
H132	H	0.079333	-0.075895	0.763658
O133	O	-0.427842	-0.214266	0.257235
O134	O	0.072158	0.285734	0.757235
C135	C	-0.473347	-0.171610	0.297449
C136	C	0.026653	0.328390	0.797449
H137	H	-0.477771	-0.192765	0.350918
H138	H	0.022229	0.307235	0.850918
H139	H	-0.527476	-0.168686	0.274960
H140	H	-0.027476	0.331314	0.774960
H141	H	-0.451593	-0.118886	0.298988
H142	H	0.048407	0.381114	0.798988
O143	O	-0.427761	-0.709496	0.257208
O144	O	0.072239	-0.209496	0.757208
C145	C	-0.473279	-0.748615	0.297419
C146	C	0.026721	-0.248615	0.797419
H147	H	-0.448526	-0.760187	0.347800
H148	H	0.051474	-0.260187	0.847800
H149	H	-0.482667	-0.797946	0.270193
H150	H	0.017333	-0.297946	0.770193
H151	H	-0.525451	-0.719345	0.306779
H152	H	-0.025451	-0.219345	0.806779
O153	O	-0.250156	-1.053850	0.944384
O154	O	0.249844	-0.553850	1.444384
C155	C	-0.180007	-1.041812	0.958984
C156	C	0.319993	-0.541812	1.458984
H157	H	-0.176448	-0.987881	0.978267
H158	H	0.323552	-0.487881	1.478267
H159	H	-0.145240	-1.048996	0.911169
H160	H	0.354760	-0.548996	1.411169
H161	H	-0.161606	-1.078824	0.999319
H162	H	0.338394	-0.578824	1.499319
O163	O	-0.601204	-0.869412	0.434466
O164	O	-0.101204	-0.369412	0.934466
C165	C	-0.558759	-0.827331	0.394248
C166	C	-0.058759	-0.327331	0.894248
H167	H	-0.547762	-0.851652	0.342549
H168	H	-0.047762	-0.351652	0.842549
H169	H	-0.507060	-0.820227	0.419807
H170	H	-0.007060	-0.320227	0.919807
H171	H	-0.587130	-0.776089	0.387866
H172	H	-0.087130	-0.276089	0.887866
O173	O	-0.931328	-1.066139	0.238164
O174	O	-0.431328	-0.566139	0.738164
C175	C	-0.888859	-1.029258	0.192774
C176	C	-0.388859	-0.529258	0.692774
H177	H	-0.911053	-0.975101	0.189406
H178	H	-0.411053	-0.475101	0.689406
H179	H	-0.888046	-1.053800	0.140676
H180	H	-0.388046	-0.553800	0.640676
H181	H	-0.833138	-1.029051	0.211536
H182	H	-0.333138	-0.529051	0.711536
O183	O	-0.250430	-0.716290	0.421275
O184	O	0.249570	-0.216290	0.921275
C185	C	-0.210772	-0.671495	0.458032
C186	C	0.289228	-0.171495	0.958032
H187	H	-0.208300	-0.621193	0.430218
H188	H	0.291700	-0.121193	0.930218
H189	H	-0.155326	-0.694081	0.463209
H190	H	0.344674	-0.194081	0.963209
H191	H	-0.236618	-0.662988	0.510390
H192	H	0.263382	-0.162988	1.010390
H193	H	-0.607048	-1.033179	0.271059
H194	H	-0.107048	-0.533179	0.771059
H195	H	-0.740392	-1.028076	0.276237
H196	H	-0.240392	-0.528076	0.776237
O197	O	-0.250456	-0.360530	0.421288
O198	O	0.249544	0.139470	0.921288
C199	C	-0.210795	-0.315738	0.458045
C200	C	0.289205	0.184262	0.958045
H201	H	-0.208325	-0.265434	0.430235
H202	H	0.291675	0.234566	0.930235
H203	H	-0.155349	-0.338325	0.463218
H204	H	0.344651	0.161675	0.963218
H205	H	-0.236638	-0.307235	0.510405
H206	H	0.263362	0.192765	1.010405
O207	O	-0.427822	-0.353544	0.257107
O208	O	0.072178	0.146456	0.757107
C209	C	-0.467487	-0.305626	0.220357
C210	C	0.032513	0.194374	0.720357
H211	H	-0.469967	-0.255154	0.248180
H212	H	0.030033	0.244846	0.748180
H213	H	-0.522929	-0.323886	0.215176
H214	H	-0.022929	0.176114	0.715176
H215	H	-0.441641	-0.299090	0.168001
H216	H	0.058359	0.200910	0.668001
O217	O	-1.076369	-1.060665	0.243929
O218	O	-0.576369	-0.560665	0.743929
C219	C	-1.149128	-1.048583	0.256011
C220	C	-0.649128	-0.548583	0.756011
H221	H	-1.159147	-1.025993	0.308611
H222	H	-0.659147	-0.525993	0.808611
H223	H	-1.177023	-1.098219	0.252559
H224	H	-0.677023	-0.598219	0.752559
H225	H	-1.170047	-1.011769	0.216636
H226	H	-0.670047	-0.511769	0.716636
H227	H	-0.257566	-0.582322	0.414719
H228	H	0.242434	-0.082322	0.914719
H229	H	-0.420602	-0.883392	1.084655
H230	H	0.079398	-0.383392	1.584655
O231	O	-0.931460	-0.895489	0.408851
O232	O	-0.431460	-0.395489	0.908851
C233	C	-0.949353	-0.909559	0.477019
C234	C	-0.449353	-0.409559	0.977019
H235	H	-1.002696	-0.933541	0.480515
H236	H	-0.502696	-0.433541	0.980515
H237	H	-0.951894	-0.860591	0.507415
H238	H	-0.451894	-0.360591	1.007415
H239	H	-0.907937	-0.945922	0.498252
H240	H	-0.407937	-0.445922	0.998252
H241	H	-0.257597	-0.226550	0.414738
H242	H	0.242403	0.273450	0.914738
H243	H	-0.740415	-0.870923	0.433165
H244	H	-0.240415	-0.370923	0.933165
H245	H	-1.070502	-0.896949	0.407366
H246	H	-0.570502	-0.396949	0.907366
H247	H	-0.420706	-0.883314	0.600656
H248	H	0.079294	-0.383314	1.100656
H249	H	-0.257418	-1.046797	0.594424
H250	H	0.242582	-0.546797	1.094424
O251	O	-0.250292	-1.053956	0.727840
O252	O	0.249708	-0.553956	1.227840
C253	C	-0.210574	-1.093702	0.679970
C254	C	0.289426	-0.593702	1.179970
H255	H	-0.239416	-1.094907	0.630689
H256	H	0.260584	-0.594907	1.130689
H257	H	-0.203074	-1.147328	0.700116
H258	H	0.296926	-0.647328	1.200116
H259	H	-0.157116	-1.071014	0.670395
H260	H	0.342884	-0.571014	1.170395
H261	H	-0.257302	-1.046863	1.078425
H262	H	0.242698	-0.546863	1.578425
O263	O	-0.427757	-0.876257	0.951240
O264	O	0.072243	-0.376257	1.451240
C265	C	-0.467448	-0.836489	0.999113
C266	C	0.032552	-0.336489	1.499113
H267	H	-0.469893	-0.864134	1.049594
H268	H	0.030107	-0.364134	1.549594
H269	H	-0.522901	-0.827072	0.980810
H270	H	-0.022901	-0.327072	1.480810
H271	H	-0.441648	-0.786105	1.005645
H272	H	0.058352	-0.286105	1.505645
H273	H	-0.420677	-0.883341	0.728900
H274	H	0.079323	-0.383341	1.228900
