data_functionalizedCrystal
_audit_creation_method	'MofGen! by Chris Wilmer'
_symmetry_space_group_name_H-M	'P1'
_symmetry_Int_Tables_number	1
_symmetry_cell_setting	triclinic
loop_
_symmetry_equiv_pos_as_xyz
  x,y,z
_cell_length_a	27.731994
_cell_length_b	26.210047
_cell_length_c	11.792241
_cell_angle_alpha	90.004392
_cell_angle_beta	96.593025
_cell_angle_gamma	90.002872
loop_
_atom_site_label
_atom_site_type_symbol
_atom_site_fract_x
_atom_site_fract_y
_atom_site_fract_z
O1	O	0.641730	0.042357	-0.134731
O2	O	0.501052	0.042374	-0.155328
O3	O	0.574805	0.042361	0.020252
O4	O	0.567977	0.042369	-0.310311
O5	O	0.574791	-0.042497	0.020225
O6	O	0.501038	-0.042485	-0.155355
O7	O	0.641716	-0.042502	-0.134758
Cu8	Cu	0.571376	-0.050241	-0.145059
Cu9	Cu	0.571393	0.050113	-0.145027
O10	O	0.567963	-0.042489	-0.310338
C11	C	0.483035	-0.000053	-0.154919
C12	C	0.429372	-0.000047	-0.153645
C13	C	0.096599	-0.046323	-0.145641
C14	C	-0.105087	-0.046329	-0.140801
O15	O	-0.131170	-0.085668	-0.140139
N16	N	-0.130298	-0.000073	-0.140184
C17	C	-0.105083	0.046188	-0.140771
O18	O	-0.131154	0.085532	-0.140124
C19	C	0.096602	0.046193	-0.145603
C20	C	0.121810	-0.000066	-0.146231
C21	C	0.121806	-0.092578	-0.146267
C22	C	0.172225	-0.092576	-0.147483
C23	C	0.197435	-0.046319	-0.148073
C24	C	0.172228	-0.000064	-0.147447
C25	C	0.121816	0.092454	-0.146182
C26	C	0.172241	0.092451	-0.147387
C27	C	0.197449	0.046192	-0.148014
C28	C	0.247857	0.046195	-0.149253
N29	N	0.273067	-0.000061	-0.149869
C30	C	0.247857	-0.046318	-0.149279
C31	C	-0.210971	0.046182	-0.138236
C32	C	-0.261393	0.046181	-0.137030
C33	C	-0.261393	-0.046336	-0.137058
C34	C	-0.210971	-0.046335	-0.138272
C35	C	-0.185761	-0.000074	-0.138852
C36	C	0.353739	-0.046310	-0.151834
C37	C	0.404161	-0.046304	-0.153056
C38	C	0.404157	0.046213	-0.153022
C39	C	0.353739	0.046207	-0.151807
C40	C	0.328531	-0.000059	-0.151209
O41	O	0.273972	0.085514	-0.149903
O42	O	0.273937	-0.085655	-0.149901
C43	C	0.046181	-0.046325	-0.144425
C44	C	0.020973	-0.000070	-0.143798
C45	C	0.046184	0.046188	-0.144388
C46	C	-0.029448	-0.000071	-0.142592
C47	C	-0.054659	-0.046328	-0.142002
C48	C	-0.029448	-0.092584	-0.142618
C49	C	0.020970	-0.092582	-0.143835
C50	C	0.020974	0.092444	-0.143772
C51	C	-0.029445	0.092438	-0.142557
C52	C	-0.054656	0.046181	-0.141967
N53	N	0.571367	-0.120825	-0.145081
C54	C	0.604047	-0.473345	-0.067297
C55	C	0.604058	-0.687003	-0.067282
O56	O	0.631824	-0.714630	-0.001152
N57	N	0.571395	-0.713719	-0.145002
C58	C	0.538725	-0.687017	-0.222727
O59	O	0.510941	-0.714643	-0.288824
C60	C	0.538713	-0.473359	-0.222736
C61	C	0.571381	-0.446646	-0.145019
C62	C	0.636712	-0.446632	0.010415
C63	C	0.636711	-0.393220	0.010406
C64	C	0.604045	-0.366522	-0.067315
C65	C	0.571380	-0.393235	-0.145027
C66	C	0.506041	-0.446658	-0.300455
C67	C	0.506040	-0.393240	-0.300448
C68	C	0.538708	-0.366527	-0.222731
C69	C	0.538712	-0.313125	-0.222757
N70	N	0.571375	-0.286409	-0.145037
C71	C	0.604041	-0.313108	-0.067316
C72	C	0.538735	-0.799190	-0.222718
C73	C	0.538739	-0.852604	-0.222717
C74	C	0.604070	-0.852587	-0.067270
C75	C	0.604069	-0.799172	-0.067277
C76	C	0.571397	-0.772474	-0.144997
C77	C	0.604036	-0.200940	-0.067341
C78	C	0.604033	-0.147524	-0.067360
C79	C	0.538700	-0.147546	-0.222802
C80	C	0.538705	-0.200957	-0.222788
C81	C	0.571374	-0.227653	-0.145048
O82	O	0.510956	-0.285465	-0.288844
O83	O	0.631814	-0.285473	-0.001211
C84	C	0.604048	-0.526756	-0.067289
C85	C	0.571383	-0.553469	-0.145001
C86	C	0.538717	-0.526771	-0.222722
C87	C	0.571387	-0.606883	-0.145000
C88	C	0.604053	-0.633582	-0.067279
C89	C	0.636715	-0.606866	0.010441
C90	C	0.636714	-0.553455	0.010432
C91	C	0.506055	-0.553487	-0.300442
C92	C	0.506059	-0.606898	-0.300428
C93	C	0.538725	-0.633596	-0.222707
C94	C	0.659733	-0.000073	-0.135167
C95	C	0.713397	-0.000077	-0.136440
C96	C	0.574369	-0.000068	0.062515
C97	C	0.573085	-0.000067	0.188487
N98	N	0.571405	0.120697	-0.144996
C99	C	0.568399	-0.000059	-0.352601
C100	C	0.569683	-0.000056	-0.478573
C101	C	0.570725	-0.000058	0.419123
C102	C	0.572036	-0.000063	0.290780
H103	H	-0.281928	-0.084001	-0.136580
O104	O	0.635720	-0.773184	0.008328
C105	C	0.609630	-0.742322	0.077936
H106	H	0.571939	-0.734307	0.032053
H107	H	0.606098	-0.762935	0.161709
C108	C	0.683107	-0.701433	0.159139
C109	C	0.636816	-0.691586	0.102782
H110	H	0.699878	-0.670138	0.174471
H111	H	0.700685	-0.722227	0.112247
H112	H	0.680158	-0.718612	0.228945
H113	H	0.639766	-0.674413	0.032972
H114	H	0.619239	-0.670788	0.149663
O115	O	0.329206	0.091110	-0.151056
C116	C	0.305277	0.093884	-0.052004
H117	H	0.299461	0.053721	-0.019051
H118	H	0.328372	0.116708	0.016384
C119	C	0.262943	0.169664	-0.121174
C120	C	0.255795	0.120335	-0.080706
H121	H	0.232421	0.185982	-0.138875
H122	H	0.279065	0.167797	-0.187905
H123	H	0.282190	0.188677	-0.064177
H124	H	0.236554	0.101320	-0.137707
H125	H	0.239669	0.122200	-0.013985
H126	H	0.424693	0.083874	-0.153507
H127	H	-0.049984	-0.130249	-0.142144
O128	O	0.196636	-0.137558	-0.148029
C129	C	0.163562	-0.178381	-0.147274
H130	H	0.129531	-0.164814	-0.110468
H131	H	0.153362	-0.192603	-0.238232
C132	C	0.228982	-0.238750	-0.118503
C133	C	0.187186	-0.222088	-0.073289
H134	H	0.243555	-0.265712	-0.072870
H135	H	0.251265	-0.211248	-0.119016
H136	H	0.220476	-0.250599	-0.194300
H137	H	0.195694	-0.210234	0.002501
H138	H	0.164905	-0.249590	-0.072761
O139	O	0.045381	-0.137564	-0.144384
C140	C	0.012307	-0.178387	-0.143630
H141	H	-0.021723	-0.164821	-0.106821
H142	H	0.002106	-0.192608	-0.234589
C143	C	0.077727	-0.238757	-0.114869
C144	C	0.035932	-0.222096	-0.069650
H145	H	0.092300	-0.265720	-0.069239
H146	H	0.100010	-0.211254	-0.115381
H147	H	0.069220	-0.250604	-0.190667
H148	H	0.044440	-0.210243	0.006141
H149	H	0.013651	-0.249597	-0.069124
O150	O	-0.285909	0.091104	-0.136636
C151	C	-0.320303	0.093873	-0.234249
H152	H	-0.308761	0.067624	-0.303349
H153	H	-0.357338	0.081449	-0.211107
C154	C	-0.337612	0.181379	-0.193926
C155	C	-0.323434	0.149143	-0.278799
H156	H	-0.339545	0.215472	-0.221404
H157	H	-0.314441	0.179513	-0.128159
H158	H	-0.368473	0.171019	-0.174648
H159	H	-0.292571	0.159499	-0.298065
H160	H	-0.346600	0.151012	-0.344570
O161	O	0.635793	-0.226922	0.008018
C162	C	0.665782	-0.257809	-0.052257
H163	H	0.646762	-0.265827	-0.141381
H164	H	0.701518	-0.237216	-0.059390
C165	C	0.699317	-0.298690	0.121390
C166	C	0.675955	-0.308541	0.011930
H167	H	0.705595	-0.329982	0.160986
H168	H	0.679115	-0.277879	0.162000
H169	H	0.729096	-0.281527	0.115431
H170	H	0.646175	-0.325697	0.017891
H171	H	0.696153	-0.329355	-0.028677
O172	O	0.635780	-0.878471	0.008390
C173	C	0.627617	-0.865427	0.120606
H174	H	0.608989	-0.826645	0.120155
H175	H	0.603462	-0.895489	0.155288
C176	C	0.699370	-0.910593	0.197496
C177	C	0.676495	-0.862958	0.196944
H178	H	0.729520	-0.909072	0.244588
H179	H	0.704869	-0.919383	0.121895
H180	H	0.679236	-0.935639	0.226395
H181	H	0.696626	-0.837914	0.168032
H182	H	0.671000	-0.854164	0.272543
O183	O	0.474238	-0.472574	-0.375837
C184	C	0.426349	-0.459508	-0.358183
H185	H	0.425884	-0.444826	-0.267314
H186	H	0.412318	-0.428500	-0.421313
C187	C	0.394190	-0.524986	-0.487974
C188	C	0.393618	-0.506957	-0.376365
H189	H	0.373999	-0.554253	-0.499195
H190	H	0.426454	-0.533788	-0.499873
H191	H	0.382498	-0.499142	-0.540570
H192	H	0.405315	-0.532798	-0.323772
H193	H	0.361355	-0.498160	-0.364458
H194	H	-0.190450	0.083855	-0.138708
H195	H	0.333220	-0.083984	-0.151358
O196	O	0.668494	-0.472482	0.085960
C197	C	0.697311	-0.437440	0.154559
H198	H	0.697966	-0.399369	0.108024
H199	H	0.681400	-0.431758	0.238612
C200	C	0.748592	-0.505028	0.235969
C201	C	0.749399	-0.458269	0.178809
H202	H	0.780722	-0.517876	0.250932
H203	H	0.729177	-0.528637	0.189756
H204	H	0.735331	-0.500286	0.306006
H205	H	0.762654	-0.463012	0.108767
H206	H	0.768818	-0.434661	0.225011
H207	H	0.479434	-0.371506	-0.363737
O208	O	0.506962	-0.878471	-0.298263
C209	C	0.478139	-0.843446	-0.366873
H210	H	0.477474	-0.805370	-0.320345
H211	H	0.494051	-0.837766	-0.450924
C212	C	0.426875	-0.911059	-0.448277
C213	C	0.426055	-0.864295	-0.391126
H214	H	0.394748	-0.923920	-0.463242
H215	H	0.446294	-0.934657	-0.402057
H216	H	0.440137	-0.906319	-0.518312
H217	H	0.412799	-0.869036	-0.321086
H218	H	0.406632	-0.840698	-0.437335
H219	H	0.663315	-0.531709	0.073718
H220	H	0.512130	-0.777457	-0.286010
H221	H	0.512108	-0.222707	-0.286084
O222	O	-0.053851	0.137424	-0.141901
C223	C	-0.020782	0.178248	-0.142709
H224	H	0.017067	0.164681	-0.107645
H225	H	-0.020258	0.192477	-0.233914
C226	C	-0.082983	0.238611	-0.110818
C227	C	-0.036496	0.221949	-0.067743
H228	H	-0.092677	0.265569	-0.064581
H229	H	-0.105263	0.211108	-0.110278
H230	H	-0.082541	0.250466	-0.186822
H231	H	-0.036941	0.210089	0.008254
H232	H	-0.014217	0.249452	-0.068268
O233	O	0.507035	-0.121548	-0.298339
C234	C	0.533098	-0.090660	-0.367948
H235	H	0.570804	-0.082658	-0.322128
H236	H	0.536593	-0.111244	-0.451782
C237	C	0.459601	-0.049750	-0.448913
C238	C	0.505910	-0.039918	-0.392632
H239	H	0.442829	-0.018451	-0.464145
H240	H	0.442041	-0.070561	-0.402020
H241	H	0.462520	-0.066905	-0.518768
H242	H	0.502990	-0.022770	-0.322773
H243	H	0.523469	-0.019102	-0.439514
O244	O	0.668425	-0.632751	0.086099
C245	C	0.660265	-0.619706	0.198316
H246	H	0.641640	-0.580922	0.197867
H247	H	0.636108	-0.649765	0.233002
C248	C	0.732016	-0.664878	0.275200
C249	C	0.709144	-0.617240	0.274650
H250	H	0.762166	-0.663359	0.322289
H251	H	0.737513	-0.673668	0.199598
H252	H	0.711881	-0.689922	0.304102
H253	H	0.729277	-0.592198	0.245735
H254	H	0.703652	-0.608445	0.350249
H255	H	0.663310	-0.371474	0.073693
O256	O	0.474276	-0.632765	-0.375973
C257	C	0.445454	-0.597739	-0.444585
H258	H	0.444794	-0.559661	-0.398063
H259	H	0.461363	-0.592064	-0.528640
C260	C	0.394183	-0.665351	-0.525968
C261	C	0.393369	-0.618584	-0.468825
H262	H	0.362055	-0.678209	-0.540926
H263	H	0.413602	-0.688949	-0.479747
H264	H	0.407443	-0.660615	-0.596008
H265	H	0.380115	-0.623322	-0.398781
H266	H	0.373946	-0.594988	-0.515035
H267	H	0.630637	-0.125775	-0.004073
O268	O	0.474390	-0.527501	-0.376000
C269	C	0.500458	-0.496621	-0.445615
H270	H	0.538158	-0.488606	-0.399777
H271	H	0.503968	-0.517219	-0.529425
C272	C	0.426962	-0.455735	-0.526667
C273	C	0.473264	-0.445887	-0.470362
H274	H	0.410187	-0.424441	-0.541937
H275	H	0.409399	-0.476541	-0.479769
H276	H	0.429893	-0.472901	-0.596502
H277	H	0.470332	-0.428727	-0.400523
H278	H	0.490826	-0.425077	-0.517249
O279	O	0.045503	0.137348	-0.144506
C280	C	0.069433	0.140127	-0.243554
H281	H	0.075251	0.099966	-0.276523
H282	H	0.046339	0.162949	-0.311934
C283	C	0.111765	0.215913	-0.174350
C284	C	0.118914	0.166585	-0.214838
H285	H	0.142286	0.232235	-0.156640
H286	H	0.095642	0.214042	-0.107621
H287	H	0.092518	0.234924	-0.231340
H288	H	0.138155	0.147573	-0.157843
H289	H	0.135042	0.168454	-0.281557
H290	H	0.424682	-0.083976	-0.153570
H291	H	0.101285	-0.130249	-0.145784
H292	H	-0.190451	-0.084003	-0.138784
H293	H	0.101301	0.130123	-0.145669
H294	H	0.192765	0.130123	-0.147860
