data_functionalizedCrystal
_audit_creation_method	'MofGen! by Chris Wilmer'
_symmetry_space_group_name_H-M	'P1'
_symmetry_Int_Tables_number	1
_symmetry_cell_setting	triclinic
loop_
_symmetry_equiv_pos_as_xyz
  x,y,z
_cell_length_a	15.625691
_cell_length_b	15.711784
_cell_length_c	9.130313
_cell_angle_alpha	89.998183
_cell_angle_beta	71.923507
_cell_angle_gamma	78.966272
loop_
_atom_site_label
_atom_site_type_symbol
_atom_site_fract_x
_atom_site_fract_y
_atom_site_fract_z
O1	O	-0.494626	1.147541	0.140810
O2	O	-0.425955	0.895793	0.104353
O3	O	-0.331277	1.028387	0.054077
O4	O	-0.589304	1.014947	0.191087
O5	O	-0.331280	1.028386	0.297677
O6	O	-0.425958	0.895791	0.347954
O7	O	-0.494629	1.147539	0.384411
Cu8	Cu	-0.460294	1.021665	0.388425
Cu9	Cu	-0.460290	1.021667	0.100339
O10	O	-0.589308	1.014945	0.434687
C11	C	-0.414738	0.863574	0.220198
C12	C	-0.381302	0.767574	0.202445
C13	C	-0.255424	0.642471	0.135607
C14	C	-0.286852	0.732676	0.152293
C15	C	-0.444361	0.712274	0.235923
C16	C	-0.412946	0.622065	0.219237
C17	C	-0.318477	0.587172	0.169080
C18	C	-0.475999	0.566765	0.252709
C19	C	-0.444586	0.476565	0.236031
C20	C	-0.350120	0.441664	0.185881
C21	C	-0.287064	0.496971	0.152402
C22	C	-0.570468	0.601661	0.302876
C23	C	-0.633520	0.546361	0.336349
C24	C	-0.602108	0.456159	0.319661
C25	C	-0.507642	0.421258	0.269511
C26	C	-0.665165	0.400852	0.353140
C27	C	-0.633752	0.310651	0.336462
C28	C	-0.476230	0.331057	0.252833
C29	C	-0.623093	1.015556	0.330827
C30	C	-0.723771	1.017385	0.384286
C31	C	-1.054933	1.023383	-0.103709
C32	C	-1.149533	1.025091	-0.053421
C33	C	-1.149502	1.025089	0.212124
C34	C	-1.054899	1.023376	0.161858
C35	C	-1.007622	1.022524	0.003940
C36	C	-1.007588	1.022517	0.269507
C37	C	-0.912994	1.020809	0.219244
C38	C	-0.865710	1.019959	0.061333
C39	C	-0.913028	1.020816	-0.046323
C40	C	-1.054868	1.023375	0.427425
C41	C	-1.007557	1.022517	0.535074
C42	C	-0.912960	1.020802	0.484811
C43	C	-0.865676	1.019953	0.326900
C44	C	-0.865642	1.019946	0.592467
C45	C	-0.771048	1.018238	0.542204
C46	C	-0.771082	1.018244	0.276637
C47	C	-0.297491	1.027776	0.157933
C48	C	-0.196813	1.025947	0.104465
C49	C	-0.505846	1.179758	0.268563
C50	C	-0.539282	1.275758	0.286306
N51	N	-0.460298	1.021670	0.591050
N52	N	-0.460281	1.021669	-0.102288
C53	C	-0.418400	1.080398	0.645453
C54	C	-0.418389	1.080396	0.798783
C55	C	-0.502180	0.962935	0.843298
C56	C	-0.502185	0.962934	0.689967
C57	C	-0.376513	1.139134	0.546535
C58	C	-0.334613	1.197867	0.600937
C59	C	-0.334601	1.197865	0.754268
C60	C	-0.376490	1.139130	0.853197
H61	H	-0.596041	0.675109	0.316460
H62	H	-0.324546	0.368217	0.172316
C63	C	-0.769075	0.439238	0.408315
H64	H	-0.802129	0.393384	0.425871
H65	H	-0.784601	0.474008	0.331617
H66	H	-0.784602	0.473995	0.501524
H67	H	-0.521279	0.740697	0.276767
C68	C	-0.376474	1.139121	1.021856
H69	H	-0.407419	1.095729	1.072976
H70	H	-0.407072	1.194401	1.072799
H71	H	-0.314915	1.127212	1.023838
H72	H	-0.235499	0.777700	0.125027
H73	H	-0.732584	1.017535	0.148043
C74	C	-0.548239	0.898319	0.952099
H75	H	-0.573180	0.863332	0.897730
H76	H	-0.596056	0.929452	1.037325
H77	H	-0.503879	0.862291	0.988341
C78	C	-0.372315	0.292664	0.197652
H79	H	-0.362642	0.231024	0.192507
H80	H	-0.345098	0.311636	0.268145
H81	H	-0.345102	0.311636	0.098239
H82	H	-0.685096	0.265624	0.363725
C83	C	-0.737431	0.584745	0.391509
H84	H	-0.770483	0.538889	0.409061
H85	H	-0.752952	0.619511	0.314803
H86	H	-0.752966	0.619505	0.484717
C87	C	-0.288533	1.262469	0.492128
H88	H	-0.263569	1.297438	0.546489
H89	H	-0.332870	1.298503	0.455860
H90	H	-0.240712	1.231315	0.406916
H91	H	-0.376521	1.139143	0.421685
H92	H	-0.732526	1.017536	0.629863
H93	H	-1.046063	1.023214	0.663652
H94	H	-0.904151	1.020648	0.721045
C95	C	-0.288512	1.262466	0.814107
H96	H	-0.263574	1.297448	0.733235
H97	H	-0.240688	1.231321	0.848524
H98	H	-0.332852	1.298499	0.897469
H99	H	-0.536301	0.915111	0.645673
H100	H	-0.178498	0.614060	0.094749
C101	C	-0.183149	0.458578	0.097221
H102	H	-0.173476	0.396938	0.092076
H103	H	-0.155932	0.477550	0.167714
H104	H	-0.155936	0.477549	-0.002191
C105	C	-0.761659	1.018080	0.006032
H106	H	-0.740282	1.017702	-0.103432
H107	H	-0.730502	0.967306	0.038522
H108	H	-0.750003	1.068087	0.048873
H109	H	-0.874529	1.020106	-0.174917
H110	H	-1.016434	1.022673	-0.232303
C111	C	-1.201572	1.026035	-0.171845
H112	H	-1.159864	1.025278	-0.273090
H113	H	-1.248223	1.077089	-0.152579
H114	H	-1.228723	0.976308	-0.162939
H115	H	-1.188008	1.025786	0.340703
C116	C	-1.158920	1.025256	0.482722
H117	H	-1.180302	1.025652	0.592188
H118	H	-1.170579	0.975255	0.439886
H119	H	-1.190073	1.076036	0.450225
