data_functionalizedCrystal
_audit_creation_method	'MofGen! by Chris Wilmer'
_symmetry_space_group_name_H-M	'P1'
_symmetry_Int_Tables_number	1
_symmetry_cell_setting	triclinic
loop_
_symmetry_equiv_pos_as_xyz
  x,y,z
_cell_length_a	15.995350
_cell_length_b	12.837942
_cell_length_c	11.295483
_cell_angle_alpha	85.469583
_cell_angle_beta	85.900966
_cell_angle_gamma	90.839342
loop_
_atom_site_label
_atom_site_type_symbol
_atom_site_fract_x
_atom_site_fract_y
_atom_site_fract_z
O1	O	1.126720	-0.126650	-0.098846
O2	O	0.884263	-0.143147	-0.098887
O3	O	1.000115	0.016004	-0.098860
O4	O	1.010868	-0.285801	-0.098873
O5	O	0.989938	0.002047	0.099189
O6	O	0.874086	-0.157104	0.099162
O7	O	1.116543	-0.140607	0.099203
Cu8	Cu	0.994385	-0.150130	0.117266
Cu9	Cu	1.006421	-0.133624	-0.116950
O10	O	1.000691	-0.299758	0.099176
C11	C	0.991394	0.047646	0.000163
C12	C	0.980561	0.162723	0.000159
C13	C	0.847926	-0.149443	0.000132
C14	C	0.754813	-0.147397	0.000117
C15	C	1.152881	-0.134311	0.000181
C16	C	1.245994	-0.136356	0.000189
C17	C	1.584330	-0.143697	0.000140
C18	C	1.545916	-0.257074	0.000583
C19	C	1.449085	-0.254998	0.000149
C20	C	1.416477	-0.140056	0.000165
C21	C	1.458889	-0.076179	-0.112930
C22	C	1.555757	-0.079019	-0.113037
C23	C	1.544389	-0.092550	0.112181
C24	C	1.447369	-0.092683	0.113688
C25	C	1.321615	-0.137992	0.000175
C26	C	1.679193	-0.145758	0.000123
C27	C	1.009412	-0.331400	0.000150
C28	C	1.020246	-0.446477	0.000146
N29	N	0.985926	-0.161739	0.282000
C30	C	1.110799	0.403682	0.000156
C31	C	1.100624	0.511808	0.000153
C32	C	0.950038	0.487104	0.000140
C33	C	0.960213	0.378978	0.000143
C34	C	1.040596	0.337271	0.000154
C35	C	1.050769	0.229142	0.000166
C36	C	0.900184	0.204441	0.000144
C37	C	0.890009	0.312567	0.000141
N38	N	1.014886	-0.122007	-0.281684
C39	C	1.075776	-0.038384	0.531310
C40	C	1.069390	-0.047164	0.655972
C41	C	0.966764	-0.188073	0.655989
C42	C	0.973150	-0.179293	0.531327
C43	C	1.027659	-0.104447	0.468992
C44	C	1.034049	-0.095673	0.344327
C45	C	0.931419	-0.236576	0.344346
C46	C	0.925032	-0.245357	0.469008
H47	H	1.420016	-0.304662	0.081216
Br48	Br	0.851055	-0.346925	0.553612
Br49	Br	0.866122	-0.326247	0.259760
Br50	Br	1.576556	-0.342395	0.135153
H51	H	0.922378	-0.249005	0.706758
H52	H	1.078435	-0.034732	0.293575
H53	H	1.581643	-0.113831	-0.197582
Br54	Br	1.159858	0.172539	0.000192
H55	H	1.157791	0.565877	0.000151
H56	H	1.581630	0.004559	-0.118182
H57	H	0.843019	0.150357	0.000151
Br58	Br	1.134690	0.042502	0.740546
H59	H	1.120165	0.022552	0.480556
H60	H	1.573241	-0.296492	-0.080073
Br61	Br	1.424478	0.065065	-0.119929
H62	H	1.563495	-0.135648	0.197894
Br63	Br	1.415453	-0.319191	-0.135207
H64	H	1.437893	-0.109052	-0.197092
Br65	Br	0.840957	0.543729	0.000083
H66	H	1.419040	-0.139402	0.197354
H67	H	1.569440	-0.009033	0.112943
Br68	Br	1.410031	0.046222	0.125098
Br69	Br	0.780924	0.369181	0.000112
Br70	Br	1.219884	0.347071	0.000207
