data_functionalizedCrystal
_audit_creation_method	'MofGen! by Chris Wilmer'
_symmetry_space_group_name_H-M	'P1'
_symmetry_Int_Tables_number	1
_symmetry_cell_setting	triclinic
loop_
_symmetry_equiv_pos_as_xyz
  x,y,z
_cell_length_a	23.532355
_cell_length_b	17.038272
_cell_length_c	15.500361
_cell_angle_alpha	86.957697
_cell_angle_beta	87.184305
_cell_angle_gamma	93.030473
loop_
_atom_site_label
_atom_site_type_symbol
_atom_site_fract_x
_atom_site_fract_y
_atom_site_fract_z
O1	O	0.757794	-0.098322	0.071826
O2	O	1.007794	0.151678	0.321826
O3	O	1.257794	0.401678	0.571826
O4	O	1.507794	0.651678	0.821826
O5	O	0.592649	-0.112093	0.071854
O6	O	0.842649	0.137907	0.321854
O7	O	1.092649	0.387907	0.571854
O8	O	1.342649	0.637907	0.821854
O9	O	0.674240	0.008600	0.071833
O10	O	0.924240	0.258600	0.321833
O11	O	1.174240	0.508600	0.571833
O12	O	1.424240	0.758600	0.821833
O13	O	0.676203	-0.219016	0.071847
O14	O	0.926203	0.030984	0.321847
O15	O	1.176203	0.280984	0.571847
O16	O	1.426203	0.530984	0.821847
O17	O	0.679165	0.015900	-0.072054
O18	O	0.929165	0.265900	0.177946
O19	O	1.179165	0.515900	0.427946
O20	O	1.429165	0.765900	0.677946
O21	O	0.597574	-0.104794	-0.072033
O22	O	0.847574	0.145206	0.177967
O23	O	1.097574	0.395206	0.427967
O24	O	1.347574	0.645206	0.677967
O25	O	0.762719	-0.091022	-0.072061
O26	O	1.012719	0.158978	0.177939
O27	O	1.262719	0.408978	0.427939
O28	O	1.512719	0.658978	0.677939
Cu29	Cu	0.680596	-0.097242	-0.085185
Cu30	Cu	0.930596	0.152758	0.164815
Cu31	Cu	1.180596	0.402758	0.414815
Cu32	Cu	1.430596	0.652758	0.664815
Cu33	Cu	0.674772	-0.105874	0.084978
Cu34	Cu	0.924772	0.144126	0.334978
Cu35	Cu	1.174772	0.394126	0.584978
Cu36	Cu	1.424772	0.644126	0.834978
O37	O	0.681128	-0.211716	-0.072040
O38	O	0.931128	0.038284	0.177960
O39	O	1.181128	0.288284	0.427960
O40	O	1.431128	0.538284	0.677960
C41	C	0.573877	-0.108100	-0.000086
C42	C	0.823877	0.141900	0.249914
C43	C	1.073877	0.391900	0.499914
C44	C	1.323877	0.641900	0.749914
C45	C	0.510604	-0.107065	-0.000076
C46	C	0.760604	0.142935	0.249924
C47	C	1.010604	0.392935	0.499924
C48	C	1.260604	0.642935	0.749924
C49	C	0.120934	-0.096582	-0.078545
C50	C	0.370934	0.153418	0.171455
C51	C	0.620934	0.403418	0.421455
C52	C	0.870934	0.653418	0.671455
C53	C	0.061483	-0.095597	-0.078549
C54	C	0.311483	0.154403	0.171451
C55	C	0.561483	0.404403	0.421451
C56	C	0.811483	0.654403	0.671451
O57	O	0.033019	-0.091678	-0.145252
O58	O	0.283019	0.158322	0.104748
O59	O	0.533019	0.408322	0.354748
O60	O	0.783019	0.658322	0.604748
N61	N	0.029064	-0.099088	-0.000116
N62	N	0.279064	0.150912	0.249884
N63	N	0.529064	0.400912	0.499884
N64	N	0.779064	0.650912	0.749884
C65	C	0.056100	-0.103556	0.078325
C66	C	0.306100	0.146444	0.328325
C67	C	0.556100	0.396444	0.578325
C68	C	0.806100	0.646444	0.828325
O69	O	0.023066	-0.106434	0.145037
O70	O	0.273066	0.143566	0.395037
O71	O	0.523066	0.393566	0.645037
O72	O	0.773066	0.643566	0.895037
C73	C	0.115550	-0.104535	0.078327
C74	C	0.365550	0.145465	0.328327
C75	C	0.615550	0.395465	0.578327
C76	C	0.865550	0.645465	0.828327
C77	C	0.147965	-0.101052	-0.000110
C78	C	0.397965	0.148948	0.249890
C79	C	0.647965	0.398948	0.499890
C80	C	0.897965	0.648948	0.749890
C81	C	0.153349	-0.093098	-0.156976
C82	C	0.403349	0.156902	0.093024
C83	C	0.653349	0.406902	0.343024
C84	C	0.903349	0.656902	0.593024
C85	C	0.212796	-0.094084	-0.156973
C86	C	0.462796	0.155916	0.093027
C87	C	0.712796	0.405916	0.343027
C88	C	0.962796	0.655916	0.593027
C89	C	0.239828	-0.098554	-0.078538
C90	C	0.489828	0.151446	0.171462
C91	C	0.739828	0.401446	0.421462
C92	C	0.989828	0.651446	0.671462
C93	C	0.207412	-0.102038	-0.000107
C94	C	0.457412	0.147962	0.249893
C95	C	0.707412	0.397962	0.499893
C96	C	0.957412	0.647962	0.749893
C97	C	0.142585	-0.108998	0.156767
C98	C	0.392585	0.141002	0.406767
C99	C	0.642585	0.391002	0.656767
C100	C	0.892585	0.641002	0.906767
C101	C	0.202039	-0.109976	0.156763
C102	C	0.452039	0.140024	0.406763
C103	C	0.702039	0.390024	0.656763
C104	C	0.952039	0.640024	0.906763
C105	C	0.234455	-0.106493	0.078325
C106	C	0.484455	0.143507	0.328325
C107	C	0.734455	0.393507	0.578325
C108	C	0.984455	0.643507	0.828325
C109	C	0.293891	-0.107494	0.078332
C110	C	0.543891	0.142506	0.328332
C111	C	0.793891	0.392506	0.578332
C112	C	1.043891	0.642506	0.828332
N113	N	0.326309	-0.104003	-0.000100
N114	N	0.576309	0.145997	0.249900
N115	N	0.826309	0.395997	0.499900
N116	N	1.076309	0.645997	0.749900
C117	C	0.299278	-0.099533	-0.078535
C118	C	0.549278	0.150467	0.171465
C119	C	0.799278	0.400467	0.421465
C120	C	1.049278	0.650467	0.671465
C121	C	-0.068750	-0.101499	0.078313
C122	C	0.181250	0.148501	0.328313
C123	C	0.431250	0.398501	0.578313
C124	C	0.681250	0.648501	0.828313
C125	C	-0.128199	-0.100525	0.078312
C126	C	0.121801	0.149475	0.328312
C127	C	0.371801	0.399475	0.578312
C128	C	0.621801	0.649475	0.828312
C129	C	-0.122812	-0.092565	-0.078562
C130	C	0.127188	0.157435	0.171438
C131	C	0.377188	0.407435	0.421438
C132	C	0.627188	0.657435	0.671438
C133	C	-0.063361	-0.093544	-0.078559
C134	C	0.186639	0.156456	0.171441
C135	C	0.436639	0.406456	0.421441
C136	C	0.686639	0.656456	0.671441
C137	C	-0.036331	-0.098008	-0.000119
C138	C	0.213669	0.151992	0.249881
C139	C	0.463669	0.401992	0.499881
C140	C	0.713669	0.651992	0.749881
C141	C	0.424120	-0.101605	-0.078522
C142	C	0.674120	0.148395	0.171478
C143	C	0.924120	0.398395	0.421478
C144	C	1.174120	0.648395	0.671478
C145	C	0.483572	-0.102595	-0.078511
C146	C	0.733572	0.147405	0.171489
C147	C	0.983572	0.397405	0.421489
C148	C	1.233572	0.647405	0.671489
C149	C	0.478180	-0.110551	0.078362
C150	C	0.728180	0.139449	0.328362
C151	C	0.978180	0.389449	0.578362
C152	C	1.228180	0.639449	0.828362
C153	C	0.418733	-0.109566	0.078352
C154	C	0.668733	0.140434	0.328352
C155	C	0.918733	0.390434	0.578352
C156	C	1.168733	0.640434	0.828352
C157	C	0.391705	-0.105090	-0.000097
C158	C	0.641705	0.144910	0.249903
C159	C	0.891705	0.394910	0.499903
C160	C	1.141705	0.644910	0.749903
O161	O	0.322393	-0.111410	0.145001
O162	O	0.572393	0.138590	0.395001
O163	O	0.822393	0.388590	0.645001
O164	O	1.072393	0.638590	0.895001
O165	O	0.332319	-0.096646	-0.145237
O166	O	0.582319	0.153354	0.104763
O167	O	0.832319	0.403354	0.354763
O168	O	1.082319	0.653354	0.604763
C169	C	0.674918	0.041365	-0.000110
C170	C	0.924918	0.291365	0.249890
C171	C	1.174918	0.541365	0.499890
C172	C	1.424918	0.791365	0.749890
C173	C	0.669591	0.128117	-0.000109
C174	C	0.919591	0.378117	0.249891
C175	C	1.169591	0.628117	0.499891
C176	C	1.419591	0.878117	0.749891
C177	C	0.781491	-0.095016	-0.000119
C178	C	1.031491	0.154984	0.249881
C179	C	1.281491	0.404984	0.499881
C180	C	1.531491	0.654984	0.749881
C181	C	0.844764	-0.096051	-0.000124
C182	C	1.094764	0.153949	0.249876
C183	C	1.344764	0.403949	0.499876
C184	C	1.594764	0.653949	0.749876
C185	C	0.680451	-0.244481	-0.000095
C186	C	0.930451	0.005519	0.249905
C187	C	1.180451	0.255519	0.499905
C188	C	1.430451	0.505519	0.749905
C189	C	0.685777	-0.331233	-0.000091
C190	C	0.935777	-0.081233	0.249909
C191	C	1.185777	0.168767	0.499909
C192	C	1.435777	0.418767	0.749909
N193	N	0.684697	-0.091169	-0.204868
N194	N	0.934697	0.158831	0.045132
N195	N	1.184697	0.408831	0.295132
N196	N	1.434697	0.658831	0.545132
C197	C	0.718496	0.178606	-0.000118
C198	C	0.968496	0.428606	0.249882
C199	C	1.218496	0.678606	0.499882
C200	C	1.468496	0.928606	0.749882
C201	C	0.713488	0.260118	-0.000109
C202	C	0.963488	0.510118	0.249891
C203	C	1.213488	0.760118	0.499891
C204	C	1.463488	1.010118	0.749891
C205	C	0.659573	0.291139	-0.000097
C206	C	0.909573	0.541139	0.249903
C207	C	1.159573	0.791139	0.499903
C208	C	1.409573	1.041139	0.749903
C209	C	0.610664	0.240643	-0.000085
C210	C	0.860664	0.490643	0.249915
C211	C	1.110664	0.740643	0.499915
C212	C	1.360664	0.990643	0.749915
C213	C	0.615673	0.159133	-0.000088
C214	C	0.865673	0.409133	0.249912
C215	C	1.115673	0.659133	0.499912
C216	C	1.365673	0.909133	0.749912
C217	C	0.641877	0.536761	-0.000082
C218	C	0.891877	0.786761	0.249918
C219	C	1.141877	1.036761	0.499918
C220	C	1.391877	1.286761	0.749918
C221	C	0.636872	0.618278	-0.000082
C222	C	0.886872	0.868278	0.249918
C223	C	1.136872	1.118278	0.499918
C224	C	1.386872	1.368278	0.749918
C225	C	0.739696	0.637747	-0.000104
C226	C	0.989696	0.887747	0.249896
C227	C	1.239696	1.137747	0.499896
C228	C	1.489696	1.387747	0.749896
C229	C	0.744701	0.556234	-0.000112
C230	C	0.994701	0.806234	0.249888
C231	C	1.244701	1.056234	0.499888
C232	C	1.494701	1.306234	0.749888
C233	C	0.695791	0.505745	-0.000096
C234	C	0.945791	0.755745	0.249904
C235	C	1.195791	1.005745	0.499904
C236	C	1.445791	1.255745	0.749904
C237	C	0.654452	0.374457	-0.000090
C238	C	0.904452	0.624457	0.249910
C239	C	1.154452	0.874457	0.499910
C240	C	1.404452	1.124457	0.749910
C241	C	0.700912	0.422428	-0.000096
C242	C	0.950912	0.672428	0.249904
C243	C	1.200912	0.922428	0.499904
C244	C	1.450912	1.172428	0.749904
C245	C	0.650117	-0.142292	-0.250158
C246	C	0.900117	0.107708	-0.000158
C247	C	1.150117	0.357708	0.249842
C248	C	1.400117	0.607708	0.499842
C249	C	0.653234	-0.137696	-0.340729
C250	C	0.903234	0.112304	-0.090729
C251	C	1.153234	0.362304	0.159271
C252	C	1.403234	0.612304	0.409271
C253	C	0.690929	-0.081974	-0.386010
C254	C	0.940929	0.168026	-0.136010
C255	C	1.190929	0.418026	0.113990
C256	C	1.440929	0.668026	0.363990
C257	C	0.725514	-0.030849	-0.340715
C258	C	0.975514	0.219151	-0.090715
C259	C	1.225514	0.469151	0.159285
C260	C	1.475514	0.719151	0.409285
C261	C	0.722399	-0.035449	-0.250145
C262	C	0.972399	0.214551	-0.000145
C263	C	1.222399	0.464551	0.249855
C264	C	1.472399	0.714551	0.499855
C265	C	0.702145	-0.065415	-0.659473
C266	C	0.952145	0.184585	-0.409473
C267	C	1.202145	0.434585	-0.159473
C268	C	1.452145	0.684585	0.090527
C269	C	0.705256	-0.060818	-0.750049
C270	C	0.955256	0.189182	-0.500049
C271	C	1.205256	0.439182	-0.250049
C272	C	1.455256	0.689182	-0.000049
C273	C	0.632976	-0.167667	-0.750058
C274	C	0.882976	0.082333	-0.500058
C275	C	1.132976	0.332333	-0.250058
C276	C	1.382976	0.582333	-0.000058
C277	C	0.629862	-0.172259	-0.659486
C278	C	0.879862	0.077741	-0.409486
C279	C	1.129862	0.327741	-0.159486
C280	C	1.379862	0.577741	0.090514
C281	C	0.664449	-0.121137	-0.614198
C282	C	0.914449	0.128863	-0.364198
C283	C	1.164449	0.378863	-0.114198
C284	C	1.414449	0.628863	0.135802
C285	C	0.694116	-0.077273	-0.478589
C286	C	0.944116	0.172727	-0.228589
C287	C	1.194116	0.422727	0.021411
C288	C	1.444116	0.672727	0.271411
C289	C	0.661265	-0.125841	-0.521621
C290	C	0.911265	0.124159	-0.271621
C291	C	1.161265	0.374159	-0.021621
C292	C	1.411265	0.624159	0.228379
N293	N	0.670675	-0.111940	0.204661
N294	N	0.920675	0.138060	0.454661
N295	N	1.170675	0.388060	0.704661
N296	N	1.420675	0.638060	0.954661
H297	H	0.116202	-0.111833	0.220640
H298	H	0.366202	0.138167	0.470640
H299	H	0.616202	0.388167	0.720640
H300	H	0.866202	0.638167	0.970640
H301	H	0.604818	-0.209289	-0.786939
H302	H	0.854818	0.040711	-0.536939
H303	H	1.104818	0.290711	-0.286939
H304	H	1.354818	0.540711	-0.036939
H305	H	0.575848	0.118024	-0.000080
H306	H	0.825848	0.368024	0.249920
H307	H	1.075848	0.618024	0.499920
H308	H	1.325848	0.868024	0.749920
H309	H	0.744809	0.397167	-0.000086
H310	H	0.994809	0.647167	0.249914
H311	H	1.244809	0.897167	0.499914
H312	H	1.494809	1.147167	0.749914
H313	H	0.753312	0.301224	-0.000118
H314	H	1.003312	0.551224	0.249882
H315	H	1.253312	0.801224	0.499882
H316	H	1.503312	1.051224	0.749882
H317	H	-0.046746	-0.105141	0.142193
H318	H	0.203254	0.144859	0.392193
H319	H	0.453254	0.394859	0.642193
H320	H	0.703254	0.644859	0.892193
H321	H	0.619418	-0.187664	-0.213296
H322	H	0.869418	0.062336	0.036704
H323	H	1.119418	0.312336	0.286704
H324	H	1.369418	0.562336	0.536704
H325	H	0.500199	-0.114194	0.142222
H326	H	0.750199	0.135806	0.392222
H327	H	1.000199	0.385806	0.642222
H328	H	1.250199	0.635806	0.892222
H329	H	0.610555	0.399724	-0.000083
H330	H	0.860555	0.649724	0.249917
H331	H	1.110555	0.899724	0.499917
H332	H	1.360555	1.149724	0.749917
H333	H	0.599168	-0.217632	-0.622620
H334	H	0.849168	0.032368	-0.372620
H335	H	1.099168	0.282368	-0.122620
H336	H	1.349168	0.532368	0.127380
H337	H	0.509963	-0.099761	-0.142387
H338	H	0.759963	0.150239	0.107613
H339	H	1.009963	0.400239	0.357613
H340	H	1.259963	0.650239	0.607613
H341	H	0.625076	-0.179325	-0.377603
H342	H	0.875076	0.070675	-0.127603
H343	H	1.125076	0.320675	0.122397
H344	H	1.375076	0.570675	0.372397
H345	H	0.750559	0.006180	-0.213271
H346	H	1.000559	0.256180	0.036729
H347	H	1.250559	0.506180	0.286729
H348	H	1.500559	0.756180	0.536729
H349	H	0.239184	-0.091243	-0.220845
H350	H	0.489184	0.158757	0.029155
H351	H	0.739184	0.408757	0.279155
H352	H	0.989184	0.658757	0.529155
H353	H	0.131347	-0.089457	-0.220851
H354	H	0.381347	0.160543	0.029149
H355	H	0.631347	0.410543	0.279149
H356	H	0.881347	0.660543	0.529149
H357	H	0.630576	-0.171214	-0.484751
H358	H	0.880576	0.078786	-0.234751
H359	H	1.130576	0.328786	0.015249
H360	H	1.380576	0.578786	0.265249
H361	H	0.788603	0.530983	-0.000122
H362	H	1.038603	0.780983	0.249878
H363	H	1.288603	1.030983	0.499878
H364	H	1.538603	1.280983	0.749878
H365	H	0.735954	-0.015438	-0.786913
H366	H	0.985954	0.234562	-0.536913
H367	H	1.235954	0.484562	-0.286913
H368	H	1.485954	0.734562	-0.036913
H369	H	0.756209	0.014519	-0.377588
H370	H	1.006209	0.264519	-0.127588
H371	H	1.256209	0.514519	0.122412
H372	H	1.506209	0.764519	0.372412
H373	H	0.724807	-0.031901	-0.515464
H374	H	0.974807	0.218099	-0.265464
H375	H	1.224807	0.468099	-0.015464
H376	H	1.474807	0.718099	0.234536
H377	H	-0.144831	-0.088924	-0.142428
H378	H	0.105169	0.161076	0.107572
H379	H	0.355169	0.411076	0.357572
H380	H	0.605169	0.661076	0.607572
H381	H	0.592966	0.643532	-0.000086
H382	H	0.842966	0.893532	0.249914
H383	H	1.092966	1.143532	0.499914
H384	H	1.342966	1.393532	0.749914
H385	H	0.402121	-0.097968	-0.142402
H386	H	0.652121	0.152032	0.107598
H387	H	0.902121	0.402032	0.357598
H388	H	1.152121	0.652032	0.607598
H389	H	0.762400	0.153356	-0.000133
H390	H	1.012400	0.403356	0.249867
H391	H	1.262400	0.653356	0.499867
H392	H	1.512400	0.903356	0.749867
H393	H	0.730306	-0.023788	-0.622607
H394	H	0.980306	0.226212	-0.372607
H395	H	1.230306	0.476212	-0.122607
H396	H	1.480306	0.726212	0.127393
H397	H	0.779515	0.678863	-0.000115
H398	H	1.029515	0.928863	0.249885
H399	H	1.279515	1.178863	0.499885
H400	H	1.529515	1.428863	0.749885
H401	H	-0.154588	-0.103374	0.142184
H402	H	0.095412	0.146626	0.392184
H403	H	0.345412	0.396626	0.642184
H404	H	0.595412	0.646626	0.892184
H405	H	-0.036972	-0.090708	-0.142430
H406	H	0.213028	0.159292	0.107570
H407	H	0.463028	0.409292	0.357570
H408	H	0.713028	0.659292	0.607570
H409	H	0.224044	-0.113611	0.220640
H410	H	0.474044	0.136389	0.470640
H411	H	0.724044	0.386389	0.720640
H412	H	0.974044	0.636389	0.970640
H413	H	0.566765	0.265906	-0.000070
H414	H	0.816765	0.515906	0.249930
H415	H	1.066765	0.765906	0.499930
H416	H	1.316765	1.015906	0.749930
H417	H	0.392338	-0.112415	0.142222
H418	H	0.642338	0.137585	0.392222
H419	H	0.892338	0.387585	0.642222
H420	H	1.142338	0.637585	0.892222
H421	H	0.602051	0.495662	-0.000069
H422	H	0.852051	0.745662	0.249931
H423	H	1.102051	0.995662	0.499931
H424	H	1.352051	1.245662	0.749931
