data_functionalizedCrystal
_audit_creation_method	'MofGen! by Chris Wilmer'
_symmetry_space_group_name_H-M	'P1'
_symmetry_Int_Tables_number	1
_symmetry_cell_setting	triclinic
loop_
_symmetry_equiv_pos_as_xyz
  x,y,z
_cell_length_a	12.827892
_cell_length_b	16.625548
_cell_length_c	12.827885
_cell_angle_alpha	90.023013
_cell_angle_beta	90.026888
_cell_angle_gamma	90.017190
loop_
_atom_site_label
_atom_site_type_symbol
_atom_site_fract_x
_atom_site_fract_y
_atom_site_fract_z
Zn1	Zn	0.415986	-1.232715	-0.590974
Zn2	Zn	0.590764	-1.232628	-0.416243
Zn3	Zn	0.416037	-1.097875	-0.416236
Zn4	Zn	0.590686	-1.097859	-0.590932
O5	O	0.503368	-1.165269	-0.503596
O6	O	0.439182	-1.345536	-0.567816
O7	O	0.567640	-1.214724	-0.270006
O8	O	0.269794	-1.115804	-0.439430
O9	O	0.567591	-1.345472	-0.439442
O10	O	0.269757	-1.214871	-0.567809
O11	O	0.439269	-1.115721	-0.270001
O12	O	0.439193	-0.985040	-0.439389
O13	O	0.567458	-1.115777	-0.737173
O14	O	0.567507	-0.985029	-0.567737
O15	O	0.439107	-1.214855	-0.737205
O16	O	0.736989	-1.214708	-0.439401
O17	O	0.736932	-1.115694	-0.567744
C18	C	0.503347	-0.955778	-0.503559
C19	C	0.503364	-0.866157	-0.503567
C20	C	0.503362	-0.537982	-0.503599
C21	C	0.503359	-0.629290	-0.503587
C22	C	0.503363	-0.702066	-0.503582
C23	C	0.503360	-0.793381	-0.503572
C24	C	0.774878	-1.165212	-0.503592
C25	C	0.891031	-1.165261	-0.503624
C26	C	0.942810	-1.214313	-0.440189
C27	C	1.062860	-1.214365	-0.440222
C28	C	1.230798	-1.165342	-0.503637
C29	C	1.114645	-1.165357	-0.503686
C30	C	0.503383	-0.375578	-0.503625
C31	C	0.503371	-0.465199	-0.503611
C32	C	0.503268	-1.165324	-0.776167
C33	C	0.503225	-1.165347	-0.892320
C34	C	0.439700	-1.214380	-0.944120
C35	C	0.439655	-1.214405	-1.064170
C36	C	0.503393	-1.165261	-0.232086
C37	C	0.503141	-1.165394	-0.115934
H38	H	0.898265	-1.256274	-0.385859
H39	H	0.385345	-1.256336	-0.899591
N40	N	0.571420	-1.112702	-0.948154
N41	N	0.631141	-1.066602	-0.899515
H42	H	0.679305	-1.029417	-0.938944
N43	N	0.371439	-1.267071	-1.120061
N44	N	0.371501	-1.267019	-1.217503
H45	H	0.323322	-1.304216	-1.256979
H46	H	0.557533	-1.123416	-1.071394
N47	N	0.946888	-1.112611	-0.571786
N48	N	0.898269	-1.066490	-0.631421
H49	H	0.937715	-1.029303	-0.679563
N50	N	1.118712	-1.267038	-0.372071
N51	N	1.179713	-1.238677	-0.305515
H52	H	1.219161	-1.275878	-0.257379
N53	N	1.058785	-1.112681	-0.571827
N54	N	0.997778	-1.141041	-0.638378
H55	H	0.958319	-1.103840	-0.686504
