data_functionalizedCrystal
_audit_creation_method	'MofGen! by Chris Wilmer'
_symmetry_space_group_name_H-M	'P1'
_symmetry_Int_Tables_number	1
_symmetry_cell_setting	triclinic
loop_
_symmetry_equiv_pos_as_xyz
  x,y,z
_cell_length_a	13.897449
_cell_length_b	13.897448
_cell_length_c	13.897431
_cell_angle_alpha	90.075904
_cell_angle_beta	90.049745
_cell_angle_gamma	90.018972
loop_
_atom_site_label
_atom_site_type_symbol
_atom_site_fract_x
_atom_site_fract_y
_atom_site_fract_z
Zn1	Zn	-1.474979	0.383520	-0.545382
Zn2	Zn	-0.974979	0.883520	-0.045382
Zn3	Zn	-1.474791	0.544969	-0.384083
Zn4	Zn	-0.974791	1.044969	0.115917
Zn5	Zn	-1.313586	0.383693	-0.384100
Zn6	Zn	-0.813586	0.883693	0.115900
Zn7	Zn	-1.313650	0.544778	-0.545336
Zn8	Zn	-0.813650	1.044778	-0.045336
O9	O	-1.394252	0.464240	-0.464725
O10	O	-0.894252	0.964240	0.035275
O11	O	-1.609936	0.404944	-0.523998
O12	O	-1.109936	0.904944	-0.023998
O13	O	-1.453302	0.523728	-0.249104
O14	O	-0.953302	1.023728	0.250896
O15	O	-1.335047	0.248689	-0.405521
O16	O	-0.835047	0.748689	0.094479
O17	O	-1.609798	0.523560	-0.405492
O18	O	-1.109798	1.023560	0.094508
O19	O	-1.453622	0.248561	-0.524014
O20	O	-0.953622	0.748561	-0.024014
O21	O	-1.334865	0.405239	-0.249116
O22	O	-0.834865	0.905239	0.250884
O23	O	-1.178613	0.405054	-0.405476
O24	O	-0.678613	0.905054	0.094524
O25	O	-1.335155	0.523234	-0.680324
O26	O	-0.835155	1.023234	-0.180324
O27	O	-1.178660	0.523403	-0.523936
O28	O	-0.678660	1.023403	-0.023936
O29	O	-1.453683	0.404759	-0.680358
O30	O	-0.953683	0.904759	-0.180358
O31	O	-1.453363	0.679925	-0.405447
O32	O	-0.953363	1.179925	0.094553
O33	O	-1.334973	0.679785	-0.523919
O34	O	-0.834973	1.179785	-0.023919
C35	C	-1.143637	0.464227	-0.464703
C36	C	-0.643637	0.964227	0.035297
C37	C	-1.036423	0.464245	-0.464717
C38	C	-0.536423	0.964245	0.035283
C39	C	-1.394181	0.714855	-0.464698
C40	C	-0.894181	1.214855	0.035302
C41	C	-1.394239	0.822068	-0.464718
C42	C	-0.894239	1.322068	0.035282
C43	C	-1.394447	0.463956	-0.716319
C44	C	-0.894447	0.963956	-0.216319
C45	C	-1.394531	0.463835	-0.823533
C46	C	-0.894531	0.963835	-0.323533
C47	C	-1.645844	0.464254	-0.464748
C48	C	-1.145844	0.964254	0.035252
C49	C	-1.753058	0.464260	-0.464758
C50	C	-1.253058	0.964260	0.035242
C51	C	-0.840128	0.464248	-0.464742
C52	C	-0.340128	0.964248	0.035258
C53	C	-0.949361	0.464244	-0.464725
C54	C	-0.449361	0.964244	0.035275
C55	C	-1.394349	0.212647	-0.464775
C56	C	-0.894349	0.712647	0.035225
C57	C	-1.394390	0.105433	-0.464796
C58	C	-0.894390	0.605433	0.035204
C59	C	-1.394341	1.018363	-0.464778
C60	C	-0.894341	1.518363	0.035222
C61	C	-1.394282	0.909131	-0.464748
C62	C	-0.894282	1.409131	0.035252
C63	C	-1.394112	0.464454	-0.214111
C64	C	-0.894112	0.964454	0.285889
C65	C	-1.394215	0.464303	-0.106897
C66	C	-0.894215	0.964303	0.393103
C67	C	-1.394315	0.464166	-0.019828
C68	C	-0.894315	0.964166	0.480172
C69	C	-1.394438	0.463985	0.089404
C70	C	-0.894438	0.963985	0.589404
