data_functionalizedCrystal
_audit_creation_method	'MofGen! by Chris Wilmer'
_symmetry_space_group_name_H-M	'P1'
_symmetry_Int_Tables_number	1
_symmetry_cell_setting	triclinic
loop_
_symmetry_equiv_pos_as_xyz
  x,y,z
_cell_length_a	14.971486
_cell_length_b	10.489741
_cell_length_c	14.048226
_cell_angle_alpha	89.993872
_cell_angle_beta	89.998499
_cell_angle_gamma	84.076651
loop_
_atom_site_label
_atom_site_type_symbol
_atom_site_fract_x
_atom_site_fract_y
_atom_site_fract_z
O1	O	1.187893	0.166222	-0.079050
O2	O	0.927606	0.186127	-0.079076
O3	O	1.063672	-0.009492	-0.079057
O4	O	1.051827	0.361841	-0.079070
O5	O	1.063656	-0.009503	0.079264
O6	O	0.927590	0.186116	0.079245
O7	O	1.187876	0.166211	0.079271
Zn8	Zn	1.057730	0.176161	0.104395
Zn9	Zn	1.057752	0.176177	-0.104200
O10	O	1.051810	0.361830	0.079252
C11	C	0.894268	0.185232	0.000081
C12	C	0.794956	0.182564	0.000071
C13	C	0.738385	0.297485	0.000069
C14	C	0.645071	0.294971	0.000083
C15	C	0.608330	0.177534	0.000093
C16	C	0.664909	0.062604	0.000098
C17	C	0.758221	0.065120	0.000091
C18	C	0.470416	0.057369	0.000112
C19	C	0.377098	0.054853	0.000117
C20	C	0.357267	0.287220	0.000104
C21	C	0.450579	0.289736	0.000096
C22	C	0.507151	0.174805	0.000100
C23	C	1.062769	-0.057019	0.000103
C24	C	1.060093	-0.198617	0.000101
C25	C	0.973518	-0.265755	0.000085
C26	C	1.014407	-0.358357	0.078150
C27	C	1.014444	-0.358320	-0.077942
C28	C	1.101017	-0.289354	0.078230
C29	C	1.101042	-0.289308	-0.077933
C30	C	1.141994	-0.381882	0.000151
C31	C	1.221215	0.167106	0.000111
C32	C	1.320527	0.169774	0.000115
C33	C	1.052713	0.409357	0.000090
C34	C	1.055390	0.550955	0.000085
N35	N	1.057722	0.176150	0.246755
N36	N	1.057768	0.176178	-0.246561
C37	C	1.117991	0.089566	0.296582
C38	C	1.117997	0.089565	0.396240
C39	C	1.057738	0.176156	0.446069
C40	C	0.997462	0.262744	0.396235
C41	C	0.997452	0.262738	0.296580
C42	C	0.997488	0.262754	0.603950
C43	C	0.997498	0.262762	0.703612
C44	C	1.118033	0.089581	0.703610
C45	C	1.118023	0.089574	0.603954
C46	C	1.057748	0.176165	0.554127
H47	H	0.768291	0.393115	0.000060
N48	N	1.179599	0.001106	0.754486
N49	N	1.233399	-0.076198	0.709985
H50	H	1.276882	-0.138679	0.745919
H51	H	0.948428	0.333272	0.744178
N52	N	0.587298	0.412372	0.000085
N53	N	0.620113	0.517217	0.000072
H54	H	0.579311	0.600138	0.000076
H55	H	1.167095	0.019072	0.563383
N56	N	0.935894	0.351174	0.447134
N57	N	0.880124	0.310569	0.502755
H58	H	0.836640	0.373024	0.538702
H59	H	0.977768	-0.388949	0.144141
N60	N	1.146962	-0.250857	-0.160716
N61	N	1.156937	-0.135266	-0.173569
H62	H	1.189363	-0.108106	-0.232041
H63	H	0.948374	0.333242	0.256012
H64	H	0.311201	0.380801	0.000105
H65	H	0.480489	0.385363	0.000079
H66	H	0.347187	-0.040774	0.000127
N67	N	0.528192	-0.060040	0.000128
N68	N	0.495379	-0.164887	0.000138
H69	H	0.536183	-0.247806	0.000148
N70	N	0.627382	-0.057355	0.000129
N71	N	0.577530	-0.084684	0.066872
H72	H	0.551027	-0.169409	0.066892
H73	H	0.804281	-0.028461	0.000092
N74	N	0.884220	-0.202446	0.000177
N75	N	0.831962	-0.220531	0.067096
H76	H	0.768896	-0.175818	0.067165
H77	H	1.213239	-0.432131	0.000202
N78	N	1.146925	-0.251204	0.161111
N79	N	1.156363	-0.135558	0.174510
H80	H	1.188783	-0.108610	0.233045
N81	N	0.968470	-0.396648	-0.160726
N82	N	0.888347	-0.354589	-0.174620
H83	H	0.855871	-0.381654	-0.233081
H84	H	1.167065	0.019059	0.256018
N85	N	1.179564	0.001107	0.447121
N86	N	1.233365	-0.076195	0.402620
H87	H	1.276848	-0.138675	0.438554
N88	N	0.935909	0.351206	0.553066
N89	N	0.882112	0.428517	0.597565
H90	H	0.838626	0.490990	0.561629
