data_functionalizedCrystal
_audit_creation_method	'MofGen! by Chris Wilmer'
_symmetry_space_group_name_H-M	'P1'
_symmetry_Int_Tables_number	1
_symmetry_cell_setting	triclinic
loop_
_symmetry_equiv_pos_as_xyz
  x,y,z
_cell_length_a	27.732048
_cell_length_b	14.971486
_cell_length_c	13.448316
_cell_angle_alpha	90.001801
_cell_angle_beta	89.988441
_cell_angle_gamma	96.871608
loop_
_atom_site_label
_atom_site_type_symbol
_atom_site_fract_x
_atom_site_fract_y
_atom_site_fract_z
O1	O	0.062991	-1.185952	-0.082589
O2	O	0.396324	-0.852619	0.250745
O3	O	0.729658	-0.519285	0.584078
O4	O	0.070534	-0.925433	-0.082617
O5	O	0.403868	-0.592099	0.250716
O6	O	0.737201	-0.258766	0.584050
O7	O	-0.003597	-1.063784	-0.082583
O8	O	0.329737	-0.730450	0.250750
O9	O	0.663070	-0.397117	0.584084
O10	O	0.137122	-1.047601	-0.082623
O11	O	0.470455	-0.714268	0.250711
O12	O	0.803789	-0.380935	0.584044
O13	O	-0.003601	-1.063766	0.082801
O14	O	0.329732	-0.730433	0.416134
O15	O	0.663065	-0.397100	0.749467
O16	O	0.070530	-0.925416	0.082767
O17	O	0.403863	-0.592082	0.416100
O18	O	0.737196	-0.258749	0.749433
O19	O	0.062986	-1.185935	0.082795
O20	O	0.396320	-0.852602	0.416128
O21	O	0.729653	-0.519268	0.749462
Cu22	Cu	0.066758	-1.055674	0.097882
Cu23	Cu	0.400091	-0.722340	0.431215
Cu24	Cu	0.733424	-0.389007	0.764548
Cu25	Cu	0.066763	-1.055694	-0.097704
Cu26	Cu	0.400096	-0.722361	0.235630
Cu27	Cu	0.733430	-0.389027	0.568963
O28	O	0.137117	-1.047584	0.082761
O29	O	0.470451	-0.714251	0.416094
O30	O	0.803784	-0.380917	0.749428
C31	C	0.070195	-0.892105	0.000071
C32	C	0.403528	-0.558771	0.333405
C33	C	0.736861	-0.225438	0.666738
C34	C	0.069184	-0.792824	0.000061
C35	C	0.402517	-0.459490	0.333395
C36	C	0.735850	-0.126157	0.666728
C37	C	-0.021608	-1.063435	0.000111
C38	C	0.311726	-0.730102	0.333445
C39	C	0.645059	-0.396769	0.666778
C40	C	-0.075267	-1.062412	0.000120
C41	C	0.258066	-0.729079	0.333453
C42	C	0.591399	-0.395746	0.666786
C43	C	0.063326	-1.219263	0.000104
C44	C	0.396659	-0.885929	0.333438
C45	C	0.729993	-0.552596	0.666771
C46	C	0.064337	-1.318544	0.000108
C47	C	0.397670	-0.985211	0.333441
C48	C	0.731004	-0.651877	0.666774
C49	C	-0.413735	-1.137729	0.000077
C50	C	-0.080401	-0.804396	0.333410
C51	C	0.252932	-0.471063	0.666743
C52	C	-0.615412	-1.133934	0.000062
C53	C	-0.282078	-0.800601	0.333396
C54	C	0.051255	-0.467267	0.666729
O55	O	-0.646350	-1.202806	0.000026
O56	O	-0.313016	-0.869473	0.333360
O57	O	0.020317	-0.536139	0.666693
N58	N	-0.634914	-1.051898	0.000054
N59	N	-0.301581	-0.718564	0.333388
N60	N	0.031753	-0.385231	0.666721
C61	C	-0.603994	-0.970804	0.000043
C62	C	-0.270660	-0.637471	0.333377
C63	C	0.062673	-0.304138	0.666710
O64	O	-0.625209	-0.900940	0.000026
O65	O	-0.291876	-0.567607	0.333359
O66	O	0.041457	-0.234274	0.666693
C67	C	-0.402318	-0.974601	0.000051
C68	C	-0.068984	-0.641267	0.333384
C69	C	0.264349	-0.307934	0.666717
C70	C	-0.382818	-1.056642	0.000069
C71	C	-0.049485	-0.723309	0.333402
C72	C	0.283848	-0.389976	0.666735
C73	C	-0.394235	-1.219764	0.000094
C74	C	-0.060902	-0.886431	0.333427
C75	C	0.272432	-0.553098	0.666760
C76	C	-0.343819	-1.220712	0.000103
C77	C	-0.010485	-0.887379	0.333436
C78	C	0.322848	-0.554045	0.666769
C79	C	-0.312902	-1.139625	0.000095
C80	C	0.020431	-0.806292	0.333428
C81	C	0.353765	-0.472958	0.666761
C82	C	-0.332402	-1.057590	0.000078
C83	C	0.000931	-0.724257	0.333411
C84	C	0.334265	-0.390923	0.666744
C85	C	-0.371398	-0.893508	0.000033
C86	C	-0.038065	-0.560175	0.333366
C87	C	0.295269	-0.226841	0.666699
C88	C	-0.320976	-0.894464	0.000032
C89	C	0.012357	-0.561131	0.333365
C90	C	0.345690	-0.227798	0.666698
C91	C	-0.301477	-0.976506	0.000050
C92	C	0.031856	-0.643173	0.333383
C93	C	0.365190	-0.309839	0.666717
C94	C	-0.251069	-0.977451	0.000079
C95	C	0.082264	-0.644118	0.333412
C96	C	0.415598	-0.310784	0.666745
N97	N	-0.231567	-1.059487	0.000087
N98	N	0.101767	-0.726154	0.333420
N99	N	0.435100	-0.392821	0.666753
C100	C	-0.262483	-1.140574	0.000095
C101	C	0.070850	-0.807241	0.333428
C102	C	0.404183	-0.473908	0.666761
C103	C	-0.709877	-0.968817	0.000042
C104	C	-0.376544	-0.635484	0.333375
C105	C	-0.043210	-0.302151	0.666708
C106	C	-0.760296	-0.967868	0.000042
C107	C	-0.426962	-0.634535	0.333375
C108	C	-0.093629	-0.301201	0.666708
C109	C	-0.771710	-1.130998	0.000059
C110	C	-0.438377	-0.797665	0.333392
C111	C	-0.105044	-0.464331	0.666725
C112	C	-0.721291	-1.131946	0.000066
C113	C	-0.387957	-0.798613	0.333399
C114	C	-0.054624	-0.465280	0.666733
C115	C	-0.690375	-1.050854	0.000050
C116	C	-0.357041	-0.717520	0.333383
C117	C	-0.023708	-0.384187	0.666716
C118	C	-0.156605	-1.142559	0.000114
C119	C	0.176728	-0.809225	0.333448
C120	C	0.510062	-0.475892	0.666781
C121	C	-0.106184	-1.143500	0.000128
C122	C	0.227150	-0.810166	0.333461
C123	C	0.560483	-0.476833	0.666794
C124	C	-0.094773	-0.980370	0.000105
C125	C	0.238560	-0.647037	0.333439
C126	C	0.571893	-0.313703	0.666772
C127	C	-0.145190	-0.979429	0.000097
C128	C	0.188143	-0.646095	0.333431
C129	C	0.521476	-0.312762	0.666764
C130	C	-0.176105	-1.060530	0.000099
C131	C	0.157228	-0.727197	0.333432
C132	C	0.490561	-0.393864	0.666765
O133	O	-0.220103	-0.908616	0.000104
O134	O	0.113231	-0.575283	0.333437
O135	O	0.446564	-0.241949	0.666770
O136	O	-0.241258	-1.210428	0.000090
O137	O	0.092075	-0.877095	0.333423
O138	O	0.425408	-0.543761	0.666757
C139	C	-0.464151	-1.136781	0.000068
C140	C	-0.130818	-0.803448	0.333401
C141	C	0.202516	-0.470115	0.666734
C142	C	-0.483651	-1.054746	0.000051
C143	C	-0.150318	-0.721413	0.333384
C144	C	0.183016	-0.388080	0.666717
C145	C	-0.452734	-0.973659	0.000043
C146	C	-0.119401	-0.640326	0.333376
C147	C	0.213932	-0.306993	0.666709
C148	C	-0.534070	-1.053797	0.000051
C149	C	-0.200736	-0.720464	0.333384
C150	C	0.132597	-0.387130	0.666717
C151	C	-0.564986	-1.134884	0.000059
C152	C	-0.231653	-0.801551	0.333392
C153	C	0.101681	-0.468218	0.666725
C154	C	-0.545484	-1.216921	0.000067
C155	C	-0.212150	-0.883587	0.333400
C156	C	0.121183	-0.550254	0.666733
C157	C	-0.495067	-1.217868	0.000076
C158	C	-0.161734	-0.884535	0.333409
C159	C	0.171599	-0.551202	0.666742
C160	C	-0.472237	-0.891623	0.000035
C161	C	-0.138903	-0.558290	0.333368
C162	C	0.194430	-0.224956	0.666701
C163	C	-0.522654	-0.890682	0.000027
C164	C	-0.189320	-0.557348	0.333360
C165	C	0.144013	-0.224015	0.666694
C166	C	-0.553570	-0.971769	0.000035
C167	C	-0.220237	-0.638435	0.333368
C168	C	0.113097	-0.305102	0.666702
C169	C	0.155128	-1.047932	0.000064
C170	C	0.488462	-0.714599	0.333398
C171	C	0.821795	-0.381266	0.666731
C172	C	0.208788	-1.048955	0.000050
C173	C	0.542121	-0.715622	0.333383
C174	C	0.875454	-0.382288	0.666716
N175	N	0.066753	-1.055666	0.235446
N176	N	0.400087	-0.722333	0.568779
N177	N	0.733420	-0.388999	0.902113
C178	C	0.112734	-0.734910	0.000051
C179	C	0.446067	-0.401577	0.333384
C180	C	0.779400	-0.068243	0.666717
C181	C	0.111781	-0.641626	0.000066
C182	C	0.445114	-0.308292	0.333399
C183	C	0.778448	0.025041	0.666732
C184	C	0.067278	-0.606257	0.000084
C185	C	0.400611	-0.272923	0.333418
C186	C	0.733944	0.060410	0.666751
C187	C	0.023724	-0.664177	0.000098
C188	C	0.357058	-0.330844	0.333432
C189	C	0.690391	0.002489	0.666765
C190	C	0.024678	-0.757460	0.000090
C191	C	0.358011	-0.424127	0.333424
C192	C	0.691344	-0.090793	0.666757
C193	C	0.021740	-0.469746	0.000113
C194	C	0.355074	-0.136413	0.333446
C195	C	0.688407	0.196920	0.666779
C196	C	0.020787	-0.376457	0.000119
C197	C	0.354120	-0.043124	0.333452
C198	C	0.687454	0.290209	0.666785
C199	C	0.108844	-0.353912	0.000088
C200	C	0.442177	-0.020579	0.333421
C201	C	0.775510	0.312755	0.666755
C202	C	0.109797	-0.447195	0.000080
C203	C	0.443130	-0.113861	0.333413
C204	C	0.776464	0.219472	0.666747
C205	C	0.066243	-0.505109	0.000092
C206	C	0.399577	-0.171776	0.333425
C207	C	0.732910	0.161558	0.666759
N208	N	0.066763	-1.055709	-0.235268
N209	N	0.400097	-0.722376	0.098065
N210	N	0.733430	-0.389042	0.431399
C211	C	0.033942	-1.116946	0.287501
C212	C	0.367275	-0.783613	0.620835
C213	C	0.700608	-0.450280	0.954168
C214	C	0.033941	-1.116952	0.391605
C215	C	0.367275	-0.783619	0.724938
C216	C	0.700608	-0.450285	1.058271
C217	C	0.066755	-1.055681	0.443651
C218	C	0.400089	-0.722347	0.776984
C219	C	0.733422	-0.389014	1.110317
C220	C	0.099569	-0.994394	0.391588
C221	C	0.432902	-0.661060	0.724921
C222	C	0.766235	-0.327727	1.058255
C223	C	0.099566	-0.994385	0.287487
C224	C	0.432900	-0.661051	0.620820
C225	C	0.766233	-0.327718	0.954153
C226	C	0.099572	-0.994418	0.608568
C227	C	0.432905	-0.661085	0.941901
C228	C	0.766239	-0.327752	1.275235
C229	C	0.099575	-0.994428	0.712676
C230	C	0.432908	-0.661095	1.046010
C231	C	0.766242	-0.327762	1.379343
C232	C	0.033947	-1.116986	0.712686
C233	C	0.367280	-0.783652	1.046019
C234	C	0.700614	-0.450319	1.379353
C235	C	0.033945	-1.116977	0.608585
C236	C	0.367278	-0.783643	0.941918
C237	C	0.700611	-0.450310	1.275251
C238	C	0.066759	-1.055691	0.556529
C239	C	0.400092	-0.722357	0.889863
C240	C	0.733425	-0.389024	1.223196
H241	H	-0.090310	-1.210310	0.000145
H242	H	0.243023	-0.876977	0.333478
H243	H	0.576356	-0.543644	0.666812
H244	H	-0.295806	-0.828427	0.000017
H245	H	0.037527	-0.495094	0.333350
H246	H	0.370860	-0.161761	0.666684
F247	F	-0.676979	-0.882501	0.000024
F248	F	-0.343646	-0.549168	0.333357
F249	F	-0.010312	-0.215834	0.666691
H250	H	-0.181771	-1.208600	0.000112
H251	H	0.151563	-0.875266	0.333445
H252	H	0.484896	-0.541933	0.666778
H253	H	0.007223	-1.166844	0.245133
H254	H	0.340556	-0.833511	0.578466
H255	H	0.673890	-0.500177	0.911799
H256	H	-0.015451	-0.347663	0.000135
H257	H	0.317882	-0.014330	0.333469
H258	H	0.651215	0.319003	0.666802
F259	F	-0.543400	-0.803355	0.000014
F260	F	-0.210067	-0.470022	0.333347
F261	F	0.123267	-0.136689	0.666681
H262	H	-0.013726	-0.516899	0.000124
H263	H	0.319608	-0.183565	0.333457
H264	H	0.652941	0.149768	0.666790
H265	H	0.144307	-0.306753	0.000083
H266	H	0.477640	0.026580	0.333416
H267	H	0.810973	0.359913	0.666749
H268	H	0.126295	-0.944534	0.755047
H269	H	0.459628	-0.611201	1.088380
H270	H	0.792962	-0.277867	1.421714
F271	F	-0.165944	-0.892112	0.000096
F272	F	0.167390	-0.558778	0.333429
F273	F	0.500723	-0.225445	0.666763
H274	H	0.146035	-0.475989	0.000055
H275	H	0.479369	-0.142655	0.333388
H276	H	0.812702	0.190678	0.666722
H277	H	-0.012511	-0.635373	0.000128
H278	H	0.320822	-0.302039	0.333461
H279	H	0.654156	0.031294	0.666795
F280	F	0.158133	-0.579993	0.000050
F281	F	0.491466	-0.246660	0.333383
F282	F	0.824800	0.086673	0.666716
F283	F	-0.578396	-1.303219	0.000081
F284	F	-0.245063	-0.969886	0.333414
F285	F	0.088270	-0.636553	0.666747
F286	F	0.134495	-0.929187	0.553171
F287	F	0.467829	-0.595854	0.886504
F288	F	0.801162	-0.262520	1.219838
F289	F	-0.021674	-0.819096	0.000105
F290	F	0.311659	-0.485763	0.333439
F291	F	0.644992	-0.152429	0.666772
F292	F	-0.000981	-1.182172	0.447006
F293	F	0.332352	-0.848839	0.780340
F294	F	0.665686	-0.515505	1.113673
F295	F	-0.000976	-1.182192	0.553193
F296	F	0.332357	-0.848859	0.886526
F297	F	0.665690	-0.515526	1.219860
F298	F	-0.700543	-1.219265	0.000085
F299	F	-0.367209	-0.885932	0.333418
F300	F	-0.033876	-0.552599	0.666752
F301	F	0.160101	-0.772543	0.000024
F302	F	0.493434	-0.439210	0.333357
F303	F	0.826767	-0.105877	0.666690
H304	H	-0.447069	-0.825590	0.000026
H305	H	-0.113735	-0.492257	0.333359
H306	H	0.219598	-0.158924	0.666693
F307	F	0.134490	-0.929179	0.446980
F308	F	0.467823	-0.595846	0.780313
F309	F	0.801157	-0.262512	1.113646
H310	H	0.126284	-0.944483	0.245104
H311	H	0.459618	-0.611149	0.578437
H312	H	0.792951	-0.277816	0.911771
H313	H	0.007229	-1.166887	0.755076
H314	H	0.340562	-0.833553	1.088409
H315	H	0.673895	-0.500220	1.421742
H316	H	-0.419403	-1.285799	0.000097
H317	H	-0.086069	-0.952466	0.333430
H318	H	0.247264	-0.619132	0.666763
F319	F	-0.804623	-1.217297	0.000065
F320	F	-0.471289	-0.883964	0.333399
F321	F	-0.137956	-0.550631	0.666732
F322	F	-0.781043	-0.880548	0.000040
F323	F	-0.447709	-0.547215	0.333374
F324	F	-0.114376	-0.213882	0.666707
F325	F	-0.323073	-1.308033	0.000100
F326	F	0.010261	-0.974699	0.333434
F327	F	0.343594	-0.641366	0.666767
H328	H	-0.387265	-0.826701	0.000012
H329	H	-0.053932	-0.493368	0.333345
H330	H	0.279401	-0.160034	0.666678
H331	H	-0.069592	-0.914351	0.000102
H332	H	0.263741	-0.581018	0.333436
H333	H	0.597074	-0.247684	0.666769
F334	F	-0.474322	-1.305189	0.000089
F335	F	-0.140988	-0.971856	0.333422
F336	F	0.192345	-0.638522	0.666756
