data_functionalizedCrystal
_audit_creation_method	'MofGen! by Chris Wilmer'
_symmetry_space_group_name_H-M	'P1'
_symmetry_Int_Tables_number	1
_symmetry_cell_setting	triclinic
loop_
_symmetry_equiv_pos_as_xyz
  x,y,z
_cell_length_a	13.032831
_cell_length_b	15.299816
_cell_length_c	13.032268
_cell_angle_alpha	72.095154
_cell_angle_beta	89.113023
_cell_angle_gamma	74.594753
loop_
_atom_site_label
_atom_site_type_symbol
_atom_site_fract_x
_atom_site_fract_y
_atom_site_fract_z
Zn1	Zn	1.608034	-0.636635	0.922463
Zn2	Zn	1.653946	-0.777088	0.781728
Zn3	Zn	1.451116	-0.597255	0.719943
Zn4	Zn	1.459317	-0.771991	0.930720
O5	O	1.543103	-0.695742	0.838713
O6	O	1.761248	-0.673880	0.926196
O7	O	1.642822	-0.738885	0.626424
O8	O	1.449285	-0.470571	0.717495
O9	O	1.794979	-0.777070	0.822799
O10	O	1.564572	-0.499503	0.866285
O11	O	1.493804	-0.606762	0.581030
O12	O	1.305080	-0.601820	0.725501
O13	O	1.463263	-0.768383	1.076733
O14	O	1.311105	-0.730198	0.880358
O15	O	1.572524	-0.668938	1.070667
O16	O	1.650775	-0.908319	0.830805
O17	O	1.507782	-0.904574	0.940269
C18	C	1.269945	-0.661183	0.797122
C19	C	1.153088	-0.646424	0.779359
C20	C	1.585176	-0.940655	0.893165
C21	C	1.603268	-1.045445	0.916509
C22	C	1.104024	-0.703445	0.847984
C23	C	0.983247	-0.688192	0.829627
C24	C	1.414452	-1.280894	0.672331
C25	C	1.397449	-1.182438	0.650399
C26	C	1.448902	-1.148185	0.716925
C27	C	1.517362	-1.212398	0.805385
C28	C	1.534360	-1.310863	0.827324
C29	C	1.568810	-1.178154	0.871918
C30	C	1.637270	-1.242367	0.960379
C31	C	1.654266	-1.340822	0.982313
C32	C	1.602812	-1.375076	0.915787
C33	C	1.551812	-1.079688	0.849979
C34	C	1.671720	-1.109657	1.004972
C35	C	1.688723	-1.208113	1.026904
C36	C	1.817328	-0.730436	0.880468
C37	C	1.934186	-0.745221	0.898262
C38	C	1.513687	-0.722485	1.112910
C39	C	1.501151	-0.733881	1.229756
C40	C	1.500892	-0.449879	0.784077
C41	C	1.482904	-0.345106	0.760794
C42	C	1.572454	-0.669043	0.565578
C43	C	1.585147	-0.657407	0.448704
C44	C	1.549623	-0.689758	1.278848
C45	C	1.536669	-0.701536	1.399615
H46	H	0.935839	-0.628074	0.757282
H47	H	1.485568	-0.748026	1.446986
O48	O	1.364306	-1.314120	0.607800
C49	C	1.196228	-1.316767	0.536116
C50	C	1.252889	-1.279090	0.609255
H51	H	1.106139	-1.288444	0.537251
H52	H	1.220047	-1.398168	0.566991
H53	H	1.220563	-1.291528	0.449891
H54	H	1.228583	-1.304259	0.695498
H55	H	1.229068	-1.197691	0.578291
H56	H	1.710005	-1.393103	1.054347
H57	H	0.981590	-0.805331	0.970615
O58	O	1.755275	-1.270363	1.112861
C59	C	1.872338	-1.289704	1.264341
C60	C	1.797023	-1.219102	1.167011
H61	H	1.906095	-1.248287	1.308161
H62	H	1.940539	-1.338025	1.234829
H63	H	1.826069	-1.335076	1.322134
H64	H	1.843200	-1.173667	1.109179
H65	H	1.728822	-1.170846	1.196601
O66	O	1.440124	-0.789353	1.286096
C67	C	1.328537	-0.891016	1.281037
C68	C	1.397599	-0.828203	1.217101
H69	H	1.294154	-0.922460	1.225287
H70	H	1.260597	-0.845795	1.314422
H71	H	1.379800	-0.951351	1.350766
H72	H	1.346424	-0.767860	1.147325
H73	H	1.465545	-0.873489	1.183796
O74	O	1.160742	-0.775139	0.934211
C75	C	1.332812	-0.855650	1.031187
C76	C	1.268716	-0.774432	0.933476
H77	H	1.420117	-0.855092	1.030638
H78	H	1.326424	-0.927151	1.026247
H79	H	1.299320	-0.844790	1.109065
H80	H	1.302163	-0.785200	0.855550
H81	H	1.275104	-0.702960	0.938512
O82	O	1.432586	-1.052570	0.695645
C83	C	1.511879	-0.921324	0.652496
C84	C	1.530509	-1.029630	0.676612
H85	H	1.591031	-0.902741	0.637079
H86	H	1.476715	-0.899706	0.724601
H87	H	1.454072	-0.881334	0.577872
H88	H	1.588336	-1.069696	0.751202
H89	H	1.565619	-1.051175	0.604448
O90	O	1.096534	-0.574833	0.692953
C91	C	0.985380	-0.532562	0.529473
C92	C	1.049398	-0.613730	0.627269
H93	H	0.947234	-0.563978	0.476353
H94	H	1.041076	-0.492012	0.480580
H95	H	0.920369	-0.481589	0.559134
H96	H	1.114411	-0.664767	0.597702
H97	H	0.993632	-0.654207	0.676143
O98	O	1.485185	-1.017409	0.764105
C99	C	1.306689	-0.959805	0.679071
C100	C	1.382036	-1.030401	0.776379
H101	H	1.223272	-0.970271	0.688973
H102	H	1.337573	-0.973265	0.601431
H103	H	1.303431	-0.883558	0.674807
H104	H	1.385327	-1.106674	0.780745
H105	H	1.351124	-1.016858	0.853971
H106	H	1.636234	-0.610903	1.401330
O107	O	1.330821	-1.120027	0.564596
C108	C	1.171277	-0.989606	0.503982
C109	C	1.246633	-1.060246	0.601260
H110	H	1.103206	-0.941241	0.533587
H111	H	1.137340	-1.030951	0.460201
H112	H	1.217550	-0.944286	0.446124
H113	H	1.200435	-1.105584	0.659194
H114	H	1.280573	-1.018843	0.644956
O115	O	1.610436	-0.634216	1.222188
C116	C	1.615940	-0.496697	1.072006
C117	C	1.546951	-0.559529	1.136058
H118	H	1.564636	-0.436286	1.002370
H119	H	1.683798	-0.541895	1.038507
H120	H	1.650454	-0.465356	1.127783
H121	H	1.512363	-0.590882	1.080351
H122	H	1.479152	-0.514287	1.169572
H123	H	1.616657	-1.455246	0.933636
O124	O	1.721659	-1.076236	1.069465
C125	C	1.748560	-0.937829	1.104396
C126	C	1.691965	-0.975558	1.031261
H127	H	1.724557	-0.856426	1.073549
H128	H	1.838666	-0.965989	1.103201
H129	H	1.724298	-0.963148	1.190638
H130	H	1.716141	-0.950253	0.944986
H131	H	1.601871	-0.947404	1.032549
