data_functionalizedCrystal
_audit_creation_method	'MofGen! by Chris Wilmer'
_symmetry_space_group_name_H-M	'P1'
_symmetry_Int_Tables_number	1
_symmetry_cell_setting	triclinic
loop_
_symmetry_equiv_pos_as_xyz
  x,y,z
_cell_length_a	21.295420
_cell_length_b	25.639239
_cell_length_c	21.295411
_cell_angle_alpha	90.020080
_cell_angle_beta	90.024693
_cell_angle_gamma	90.037535
loop_
_atom_site_label
_atom_site_type_symbol
_atom_site_fract_x
_atom_site_fract_y
_atom_site_fract_z
Zn1	Zn	0.962317	-0.208235	0.355920
Zn2	Zn	0.962203	-0.295655	0.250649
Zn3	Zn	0.857040	-0.208232	0.250665
Zn4	Zn	0.856993	-0.295638	0.355880
O5	O	0.909638	-0.251940	0.303279
O6	O	1.050391	-0.219839	0.341966
O7	O	0.948225	-0.284064	0.162561
O8	O	0.871072	-0.135068	0.264651
O9	O	1.050308	-0.284066	0.264623
O10	O	0.948419	-0.135069	0.341982
O11	O	0.870962	-0.219835	0.162574
O12	O	0.768945	-0.219819	0.264612
O13	O	0.870993	-0.284038	0.443975
O14	O	0.768910	-0.284036	0.341913
O15	O	0.948374	-0.219823	0.444005
O16	O	0.948180	-0.368818	0.264584
O17	O	0.870883	-0.368806	0.341897
C18	C	0.746087	-0.251926	0.303261
C19	C	0.676119	-0.251932	0.303268
C20	C	0.176659	-0.285439	0.343490
C21	C	0.242402	-0.285439	0.343484
C22	C	0.275279	-0.251952	0.303298
C23	C	0.242409	-0.218471	0.263105
C24	C	0.176667	-0.218476	0.263109
N25	N	0.378528	-0.206173	0.298564
N26	N	0.440980	-0.206170	0.298565
C27	C	0.473354	-0.251937	0.303285
N28	N	0.440917	-0.297709	0.308017
N29	N	0.378460	-0.297711	0.308020
C30	C	0.346565	-0.251944	0.303290
C31	C	0.577502	-0.285419	0.343465
C32	C	0.643246	-0.285420	0.343454
C33	C	0.643251	-0.218447	0.263079
C34	C	0.577509	-0.218450	0.263087
C35	C	0.544638	-0.251936	0.303283
C36	C	0.909531	-0.387783	0.303248
C37	C	0.909542	-0.445897	0.303256
C38	C	0.869382	-0.697096	0.343523
C39	C	0.869359	-0.642492	0.343515
O40	O	0.835110	-0.614261	0.377730
N41	N	0.909622	-0.615171	0.303289
C42	C	0.949915	-0.642456	0.263072
O43	O	0.984160	-0.614203	0.228856
C44	C	0.949941	-0.697060	0.263083
C45	C	0.909671	-0.724378	0.303307
C46	C	0.829116	-0.724415	0.383744
C47	C	0.829139	-0.779015	0.383751
C48	C	0.869427	-0.806297	0.343535
C49	C	0.909694	-0.778979	0.303314
C50	C	0.990237	-0.724344	0.222870
C51	C	0.990260	-0.778951	0.222884
C52	C	0.949990	-0.806270	0.263109
C53	C	0.950005	-0.860861	0.263105
N54	N	0.909742	-0.888183	0.303331
C55	C	0.869453	-0.860901	0.343546
C56	C	0.949858	-0.527786	0.263053
C57	C	0.949829	-0.473183	0.263038
C58	C	0.869274	-0.473223	0.343483
C59	C	0.869300	-0.527826	0.343494
C60	C	0.909595	-0.555107	0.303279
C61	C	0.869504	-0.975566	0.343556
C62	C	0.869528	-1.030171	0.343557
C63	C	0.950086	-1.030127	0.263115
C64	C	0.950059	-0.975526	0.263112
C65	C	0.909766	-0.948247	0.303337
O66	O	0.984238	-0.889127	0.228909
O67	O	0.835220	-0.889160	0.377762
C68	C	1.073829	-0.251955	0.303297
C69	C	1.143797	-0.251961	0.303305
C70	C	0.909691	-0.251929	0.467469
C71	C	0.909713	-0.251924	0.537437
C72	C	0.909764	-0.115567	0.303323
C73	C	0.909817	-0.057453	0.303342
C74	C	0.909623	-0.251913	0.139727
C75	C	0.909722	-0.251771	0.069759
C76	C	0.950003	-0.218486	0.570320
C77	C	0.950002	-0.218463	0.636063
C78	C	0.909718	-0.251888	0.668920
C79	C	0.869420	-0.285329	0.636029
C80	C	0.869417	-0.285347	0.570287
N81	N	0.904853	-0.297626	0.772137
N82	N	0.904859	-0.297608	0.834588
C83	C	0.909722	-0.251835	0.866995
N84	N	0.914591	-0.206081	0.834590
N85	N	0.914588	-0.206100	0.772133
C86	C	0.909716	-0.251872	0.740205
C87	C	0.950013	-0.218370	0.971163
C88	C	0.950008	-0.218346	1.036907
C89	C	0.869429	-0.285216	1.036872
C90	C	0.869431	-0.285235	0.971129
C91	C	0.909726	-0.251813	0.938279
H92	H	0.550737	-0.312685	0.376195
C93	C	0.825110	-0.322101	0.672168
C94	C	0.780792	-0.358887	0.635994
C95	C	0.736480	-0.395659	0.672132
C96	C	0.736487	-0.395646	0.744445
C97	C	0.780806	-0.358859	0.780624
C98	C	0.825118	-0.322086	0.744485
H99	H	0.780786	-0.358898	0.582460
H100	H	0.703672	-0.422892	0.645350
H101	H	0.703684	-0.422867	0.771197
H102	H	0.780812	-0.358848	0.834158
H103	H	0.857926	-0.294854	0.771267
H104	H	0.149900	-0.312707	0.376219
H105	H	0.269164	-0.312702	0.376209
H106	H	0.836605	-0.312576	0.543514
H107	H	0.982821	-0.191152	0.944415
C108	C	0.994328	-0.181559	1.073081
C109	C	1.038649	-0.144798	1.036944
C110	C	1.082969	-0.108010	1.073119
C111	C	1.082969	-0.107984	1.145432
C112	C	1.038646	-0.144747	1.181573
C113	C	0.994326	-0.181534	1.145398
H114	H	1.038651	-0.144816	0.983410
H115	H	1.115779	-0.080796	1.046364
H116	H	1.115777	-0.080751	1.172211
H117	H	1.038645	-0.144728	1.235107
H118	H	0.961516	-0.208749	1.172153
H119	H	0.836734	-1.052411	0.376314
H120	H	0.836622	-0.312426	1.063623
C121	C	0.994179	-0.557793	0.218806
C122	C	1.043611	-0.595275	0.246126
C123	C	1.087931	-0.625279	0.201880
C124	C	1.082819	-0.617800	0.130314
C125	C	1.033385	-0.580316	0.102990
C126	C	0.989065	-0.550312	0.147236
H127	H	1.047397	-0.600813	0.299107
H128	H	1.124526	-0.653027	0.222108
H129	H	1.115628	-0.640011	0.097561
H130	H	1.029599	-0.574778	0.050009
H131	H	0.952470	-0.522564	0.127008
C132	C	0.825178	-0.945564	0.387800
C133	C	0.753624	-0.953140	0.382589
C134	C	0.709295	-0.923138	0.426828
C135	C	0.736520	-0.885559	0.476277
C136	C	0.808078	-0.877981	0.481490
C137	C	0.852407	-0.907983	0.437251
H138	H	0.733467	-0.980960	0.345982
H139	H	0.656323	-0.928748	0.422969
H140	H	0.703705	-0.863350	0.509026
H141	H	0.828235	-0.850161	0.518097
H142	H	0.905379	-0.902373	0.441110
H143	H	0.796346	-0.801253	0.416505
C144	C	0.825007	-0.557874	0.387745
C145	C	0.775614	-0.595467	0.360436
C146	C	0.731321	-0.625512	0.404691
C147	C	0.736421	-0.617964	0.476255
C148	C	0.785816	-0.580369	0.503567
C149	C	0.830110	-0.550324	0.459313
H150	H	0.771836	-0.601057	0.307457
H151	H	0.694755	-0.653343	0.384472
H152	H	0.703632	-0.640205	0.509015
H153	H	0.789594	-0.574780	0.556546
H154	H	0.866675	-0.522494	0.479532
H155	H	0.982885	-1.052350	0.230371
C156	C	1.034584	-0.808960	0.178644
C157	C	1.029479	-0.801482	0.107077
C158	C	1.073800	-0.831490	0.062836
C159	C	1.123226	-0.868976	0.090162
C160	C	1.128333	-0.876455	0.161733
C161	C	1.084011	-0.846448	0.205974
H162	H	0.992889	-0.773731	0.086846
H163	H	1.070020	-0.825953	0.009855
H164	H	1.156035	-0.891189	0.057412
H165	H	1.164922	-0.904206	0.181964
H166	H	1.087792	-0.851985	0.258955
C167	C	0.825106	-0.322019	0.934959
C168	C	0.775701	-0.299366	0.889752
C169	C	0.731368	-0.336148	0.853584
C170	C	0.736441	-0.395584	0.862623
C171	C	0.785848	-0.418241	0.907832
C172	C	0.830181	-0.381458	0.944000
H173	H	0.771944	-0.255365	0.883059
H174	H	0.694793	-0.319376	0.820118
H175	H	0.703623	-0.422813	0.835850
H176	H	0.789605	-0.462242	0.914525
H177	H	0.866756	-0.398231	0.977466
C178	C	0.278571	-0.181634	0.218902
C179	C	0.350883	-0.181624	0.218899
C180	C	0.387045	-0.144787	0.174691
C181	C	0.350893	-0.107960	0.130486
C182	C	0.278576	-0.107967	0.130488
C183	C	0.242415	-0.144804	0.174695
H184	H	0.377649	-0.208888	0.251624
H185	H	0.440578	-0.144782	0.174691
H186	H	0.377661	-0.080691	0.097761
H187	H	0.251811	-0.080704	0.097763
H188	H	0.188881	-0.144810	0.174696
C189	C	0.679396	-0.322249	0.387661
C190	C	0.670308	-0.381681	0.382407
C191	C	0.706459	-0.418511	0.426616
C192	C	0.751697	-0.395909	0.476079
C193	C	0.760787	-0.336474	0.481335
C194	C	0.724637	-0.299644	0.437126
H195	H	0.636818	-0.398415	0.345790
H196	H	0.699730	-0.462509	0.422724
H197	H	0.778458	-0.423172	0.508805
H198	H	0.794277	-0.319739	0.517952
H199	H	0.731366	-0.255646	0.441018
H200	H	0.149911	-0.191212	0.230385
C201	C	0.679406	-0.181610	0.218871
C202	C	0.724643	-0.140589	0.246227
C203	C	0.760800	-0.103753	0.202014
C204	C	0.751718	-0.107938	0.130445
C205	C	0.706478	-0.148961	0.103085
C206	C	0.670322	-0.185797	0.147298
H207	H	0.731368	-0.137489	0.299210
H208	H	0.794289	-0.073385	0.222268
H209	H	0.778483	-0.080670	0.097716
H210	H	0.699754	-0.152061	0.050102
H211	H	0.636833	-0.216165	0.127044
C212	C	0.541359	-0.181620	0.218883
C213	C	0.550441	-0.122188	0.224143
C214	C	0.514292	-0.085358	0.179933
C215	C	0.469061	-0.107960	0.130463
C216	C	0.459977	-0.167396	0.125201
C217	C	0.496126	-0.204226	0.169411
H218	H	0.583925	-0.105453	0.260765
H219	H	0.521017	-0.041360	0.183828
H220	H	0.442301	-0.080697	0.097736
H221	H	0.426492	-0.184130	0.088579
H222	H	0.489401	-0.248224	0.165516
C223	C	0.994122	-0.443137	0.218785
C224	C	0.989023	-0.450682	0.147221
C225	C	1.033320	-0.420639	0.102969
C226	C	1.082717	-0.383050	0.130281
C227	C	1.087818	-0.375503	0.201849
C228	C	1.043520	-0.405547	0.246101
H229	H	0.952455	-0.478510	0.126999
H230	H	1.029544	-0.426226	0.049990
H231	H	1.115508	-0.360810	0.097524
H232	H	1.124386	-0.347676	0.222071
H233	H	1.047297	-0.399960	0.299081
H234	H	0.982815	-0.191270	0.543578
H235	H	0.796308	-0.702207	0.416495
H236	H	0.836469	-0.451000	0.376229
H237	H	1.023028	-0.702109	0.190116
C238	C	0.994330	-0.181684	0.672244
C239	C	1.038654	-0.144922	0.636111
C240	C	1.082983	-0.108144	0.672291
C241	C	1.082987	-0.108128	0.744603
C242	C	1.038661	-0.144891	0.780741
C243	C	0.994332	-0.181669	0.744561
H244	H	1.038652	-0.144933	0.582577
H245	H	1.115795	-0.080930	0.645539
H246	H	1.115802	-0.080903	0.771386
H247	H	1.038663	-0.144880	0.834275
H248	H	0.961520	-0.208883	0.771313
H249	H	0.982844	-0.953283	0.230351
