data_functionalizedCrystal
_audit_creation_method	'MofGen! by Chris Wilmer'
_symmetry_space_group_name_H-M	'P1'
_symmetry_Int_Tables_number	1
_symmetry_cell_setting	triclinic
loop_
_symmetry_equiv_pos_as_xyz
  x,y,z
_cell_length_a	18.215407
_cell_length_b	15.297327
_cell_length_c	15.298025
_cell_angle_alpha	88.388309
_cell_angle_beta	99.686858
_cell_angle_gamma	99.707397
loop_
_atom_site_label
_atom_site_type_symbol
_atom_site_fract_x
_atom_site_fract_y
_atom_site_fract_z
Zn1	Zn	1.166312	-0.263174	0.555647
Zn2	Zn	1.124869	-0.434976	0.434496
Zn3	Zn	1.019001	-0.288507	0.409177
Zn4	Zn	1.026099	-0.409628	0.580930
O5	O	1.084070	-0.349071	0.495062
O6	O	1.263800	-0.285970	0.539592
O7	O	1.090511	-0.436757	0.308556
O8	O	1.052916	-0.162557	0.407430
O9	O	1.233352	-0.412192	0.450582
O10	O	1.161144	-0.143945	0.515041
O11	O	1.012730	-0.329147	0.289954
O12	O	0.916957	-0.304568	0.431945
O13	O	1.065013	-0.368990	0.700158
O14	O	0.922172	-0.393555	0.558131
O15	O	1.168027	-0.261391	0.681583
O16	O	1.097393	-0.554203	0.475097
O17	O	1.024827	-0.535580	0.582682
C18	C	0.892861	-0.349060	0.495035
C19	C	0.811063	-0.349073	0.495047
C20	C	0.625581	-0.395509	0.560697
C21	C	0.548724	-0.395510	0.560709
C22	C	0.543312	-0.302646	0.429449
C23	C	0.620170	-0.302640	0.429442
C24	C	0.661301	-0.349077	0.495066
C25	C	0.507587	-0.349083	0.495084
C26	C	0.424255	-0.349084	0.495096
C27	C	0.744639	-0.349075	0.495055
C28	C	1.057406	-0.576674	0.534400
C29	C	1.046072	-0.674038	0.551258
C30	C	1.165434	-0.987124	0.374875
C31	C	1.176082	-0.895646	0.359032
C32	C	1.143581	-0.840240	0.407087
C33	C	1.100429	-0.876320	0.470988
C34	C	1.089774	-0.967808	0.486828
C35	C	1.067921	-0.820923	0.519040
C36	C	1.024769	-0.857004	0.582941
C37	C	1.014117	-0.948483	0.598779
C38	C	1.046618	-1.003889	0.550723
C39	C	1.078576	-0.729436	0.503200
C40	C	1.002916	-0.710119	0.615153
C41	C	0.992267	-0.801597	0.630996
C42	C	1.276025	-0.349082	0.495091
C43	C	1.357825	-0.349087	0.495103
C44	C	1.121934	-0.309537	0.723543
C45	C	1.138070	-0.292690	0.820908
C46	C	1.110861	-0.120576	0.455591
C47	C	1.122278	-0.023205	0.438770
C48	C	1.199285	-0.228752	0.856975
C49	C	1.214440	-0.212912	0.948453
C50	C	1.168385	-0.261014	1.003871
C51	C	1.107172	-0.324958	0.967804
C52	C	1.092012	-0.340794	0.876318
C53	C	1.061112	-0.373056	1.023214
C54	C	0.999899	-0.437000	0.987147
C55	C	0.984742	-0.452834	0.895669
C56	C	1.030797	-0.404733	0.840250
C57	C	1.076272	-0.357219	1.114700
C58	C	0.968999	-0.469262	1.134042
C59	C	0.953844	-0.485102	1.042565
C60	C	1.046347	-0.388472	1.267474
C61	C	1.030214	-0.405323	1.170110
H62	H	1.113710	-0.700068	0.451171
H63	H	1.211216	-0.866273	0.307003
H64	H	0.659069	-0.433319	0.614134
Br65	Br	1.261755	-0.163445	0.781757
H66	H	0.976448	-0.665008	0.654282
Br67	Br	1.159342	-0.270438	1.163637
Br68	Br	1.031774	-1.128110	0.571830
H69	H	0.509814	-0.264840	0.376020
H70	H	0.519645	-0.433318	0.614153
Br71	Br	1.297536	-0.126169	0.997401
H72	H	0.649254	-0.264824	0.375996
Br73	Br	1.158299	-0.716044	0.385850
Br74	Br	1.010234	-0.426232	0.716097
Br75	Br	1.209533	-1.062321	0.309661
Br76	Br	0.901656	-0.539600	0.846719
Br77	Br	0.955547	-0.997448	0.685495
Br78	Br	0.870771	-0.571880	0.993607
Br79	Br	0.906487	-0.534540	1.209245
Br80	Br	0.933707	-0.850574	0.717718
H81	H	1.180727	-0.248112	1.078355
