data_functionalizedCrystal
_audit_creation_method	'MofGen! by Chris Wilmer'
_symmetry_space_group_name_H-M	'P1'
_symmetry_Int_Tables_number	1
_symmetry_cell_setting	triclinic
loop_
_symmetry_equiv_pos_as_xyz
  x,y,z
_cell_length_a	6.817900
_cell_length_b	9.514088
_cell_length_c	9.109307
_cell_angle_alpha	93.164333
_cell_angle_beta	111.764999
_cell_angle_gamma	118.843545
loop_
_atom_site_label
_atom_site_type_symbol
_atom_site_fract_x
_atom_site_fract_y
_atom_site_fract_z
V1	V	-4.285760	-0.532230	-0.228427
O2	O	-4.198970	-0.490108	0.008003
O3	O	-4.302227	-0.559357	-0.450072
O4	O	-4.319878	-0.750317	-0.226218
O5	O	-4.181196	-0.297826	-0.217400
V6	V	-4.750290	-0.500456	-0.199993
O7	O	-4.588680	-0.601929	-0.290799
O8	O	-4.897567	-0.430757	-0.137621
O9	O	-4.510617	-0.473328	0.021652
O10	O	-4.954478	-0.542578	-0.436422
O11	O	-4.972251	-0.734859	-0.211019
O12	O	-4.492966	-0.282369	-0.202202
C13	C	-4.160338	-0.558900	-0.504063
C14	C	-4.255638	-0.582534	-0.685269
C15	C	-4.182851	-0.802486	-0.218513
C16	C	-4.292458	-0.980975	-0.218174
C17	C	-4.315849	-0.473782	0.075635
C18	C	-4.199792	-0.450159	0.256839
C19	C	-4.293333	-0.230192	-0.209911
C20	C	-4.162961	-0.051700	-0.210242
H21	H	-3.968250	-0.975706	-0.203727
C22	C	-4.172765	-0.195603	-0.657282
C23	C	-4.036864	-0.272706	-0.622927
H24	H	-4.072179	-0.086054	-0.583038
H25	H	-4.217532	-0.188766	-0.767354
H26	H	-4.320733	-0.259688	-0.644724
H27	H	-3.888904	-0.208626	-0.635497
H28	H	-3.992062	-0.279533	-0.512828
H29	H	-4.376353	-0.713989	-0.774347
H30	H	-4.487196	-1.056983	-0.224708
