data_functionalizedCrystal
_audit_creation_method	'MofGen! by Chris Wilmer'
_symmetry_space_group_name_H-M	'P1'
_symmetry_Int_Tables_number	1
_symmetry_cell_setting	triclinic
loop_
_symmetry_equiv_pos_as_xyz
  x,y,z
_cell_length_a	10.723024
_cell_length_b	10.723024
_cell_length_c	9.798715
_cell_angle_alpha	89.998022
_cell_angle_beta	89.996609
_cell_angle_gamma	84.467869
loop_
_atom_site_label
_atom_site_type_symbol
_atom_site_fract_x
_atom_site_fract_y
_atom_site_fract_z
O1	O	1.657187	0.175024	-0.113478
O2	O	1.294035	0.191778	-0.113483
O3	O	1.483988	0.001825	-0.113475
O4	O	1.467234	0.364977	-0.113486
O5	O	1.483974	0.001824	0.113507
O6	O	1.294021	0.191777	0.113499
O7	O	1.657173	0.175024	0.113504
Zn8	Zn	1.475595	0.183401	0.149540
Zn9	Zn	1.475613	0.183401	-0.149519
O10	O	1.467220	0.364977	0.113496
C11	C	1.247528	0.190558	0.000008
C12	C	1.108974	0.186911	0.000006
C13	C	1.033991	0.293198	0.000002
C14	C	0.890788	0.289431	0.000001
C15	C	1.482762	-0.044675	0.000014
C16	C	1.479114	-0.183229	0.000009
C17	C	1.585401	-0.258212	0.000009
C18	C	1.581634	-0.401415	0.000004
C19	C	1.703680	0.176243	0.000010
C20	C	1.842234	0.179891	0.000003
C21	C	1.468447	0.411477	0.000004
C22	C	1.472094	0.550031	-0.000000
N23	N	1.475591	0.183399	0.353640
N24	N	1.475627	0.183393	-0.353619
C25	C	1.555347	0.103292	0.421420
C26	C	1.555367	0.103288	0.578582
H27	H	1.067152	0.093125	-0.000026
H28	H	1.672624	-0.465848	0.000009
H29	H	1.381099	-0.385544	0.000010
C30	C	1.384494	0.274648	0.431568
C31	C	1.307436	0.207631	0.513643
C32	C	1.223511	0.291649	0.585460
H33	H	1.334332	0.324943	0.368822
H34	H	1.430006	0.326796	0.487380
H35	H	1.261928	0.155505	0.457835
H36	H	1.357563	0.157340	0.576414
H37	H	1.269023	0.343797	0.641272
H38	H	1.173358	0.341940	0.522704
H39	H	1.171225	0.246191	0.641165
C40	C	1.353927	-0.238739	-0.000066
C41	C	1.256600	-0.141810	-0.000098
C42	C	1.141258	-0.192894	-0.000187
H43	H	1.347752	-0.288950	0.079062
H44	H	1.347875	-0.288918	-0.079256
H45	H	1.262650	-0.091652	0.079083
H46	H	1.262734	-0.091591	-0.079221
H47	H	1.135205	-0.243073	-0.079377
H48	H	1.135095	-0.243104	0.078942
H49	H	1.075208	-0.127136	-0.000222
H50	H	1.679187	-0.216390	0.000018
H51	H	1.623611	0.034707	0.363100
C52	C	1.646352	0.011631	0.656120
C53	C	1.624764	-0.111118	0.621443
C54	C	1.708567	-0.195588	0.692833
H55	H	1.634350	0.023609	0.751442
H56	H	1.729855	0.025608	0.632724
H57	H	1.541281	-0.125090	0.644848
H58	H	1.636775	-0.123136	0.526133
H59	H	1.792069	-0.181612	0.669437
H60	H	1.696558	-0.183599	0.788152
H61	H	1.693938	-0.278883	0.669306
H62	H	1.407345	0.251984	0.588102
H63	H	0.826355	0.380421	-0.000008
C64	C	1.089815	0.418222	-0.000277
C65	C	1.163747	0.426742	-0.117068
C66	C	1.215175	0.541905	-0.117379
H67	H	1.140116	0.424334	0.078786
H68	H	1.024238	0.484457	-0.000353
H69	H	1.229315	0.360525	-0.116979
H70	H	1.113475	0.420652	-0.196150
H71	H	1.149598	0.608140	-0.117454
H72	H	1.265470	0.548007	-0.038310
H73	H	1.265335	0.547705	-0.196625
C74	C	0.928278	0.058649	-0.000207
C75	C	1.003853	0.054092	-0.116967
C76	C	1.083153	-0.057569	-0.117199
H77	H	0.879395	-0.010665	-0.000275
H78	H	0.979709	0.055321	0.078906
H79	H	0.952428	0.057407	-0.196059
H80	H	1.052762	0.123379	-0.116924
H81	H	1.134583	-0.060896	-0.038086
H82	H	1.034260	-0.126873	-0.117263
H83	H	1.134447	-0.060670	-0.196412
