data_functionalizedCrystal
_audit_creation_method	'MofGen! by Chris Wilmer'
_symmetry_space_group_name_H-M	'P1'
_symmetry_Int_Tables_number	1
_symmetry_cell_setting	triclinic
loop_
_symmetry_equiv_pos_as_xyz
  x,y,z
_cell_length_a	25.639242
_cell_length_b	25.639240
_cell_length_c	21.295411
_cell_angle_alpha	90.026709
_cell_angle_beta	90.025490
_cell_angle_gamma	90.025061
loop_
_atom_site_label
_atom_site_type_symbol
_atom_site_fract_x
_atom_site_fract_y
_atom_site_fract_z
Zn1	Zn	0.799304	-0.208318	0.355905
Zn2	Zn	1.132637	0.125016	0.689238
Zn3	Zn	1.465971	0.458349	1.022571
Zn4	Zn	0.799220	-0.295738	0.250621
Zn5	Zn	1.132553	0.037596	0.583954
Zn6	Zn	1.465886	0.370929	0.917288
Zn7	Zn	0.711863	-0.208306	0.250648
Zn8	Zn	1.045197	0.125027	0.583981
Zn9	Zn	1.378530	0.458360	0.917315
Zn10	Zn	0.711834	-0.295712	0.355851
Zn11	Zn	1.045168	0.037621	0.689184
Zn12	Zn	1.378501	0.370954	1.022518
O13	O	0.755555	-0.252018	0.303256
O14	O	1.088889	0.081315	0.636590
O15	O	1.422222	0.414648	0.969923
O16	O	0.872458	-0.219930	0.341950
O17	O	1.205791	0.113404	0.675283
O18	O	1.539125	0.446737	1.008616
O19	O	0.787608	-0.284146	0.162535
O20	O	1.120942	0.049188	0.495868
O21	O	1.454275	0.382521	0.829202
O22	O	0.723510	-0.135143	0.264645
O23	O	1.056843	0.198191	0.597978
O24	O	1.390177	0.531524	0.931311
O25	O	0.872396	-0.284157	0.264598
O26	O	1.205729	0.049177	0.597932
O27	O	1.539063	0.382510	0.931265
O28	O	0.787752	-0.135151	0.341976
O29	O	1.121086	0.198182	0.675310
O30	O	1.454419	0.531516	1.008643
O31	O	0.723428	-0.219910	0.162555
O32	O	1.056761	0.113423	0.495888
O33	O	1.390095	0.446756	0.829222
O34	O	0.638694	-0.219886	0.264592
O35	O	0.972028	0.113448	0.597926
O36	O	1.305361	0.446781	0.931259
O37	O	0.723461	-0.284113	0.443947
O38	O	1.056794	0.049220	0.777281
O39	O	1.390127	0.382553	1.110614
O40	O	0.638673	-0.284102	0.341884
O41	O	0.972006	0.049231	0.675218
O42	O	1.305340	0.382564	1.008551
O43	O	0.787724	-0.219905	0.443987
O44	O	1.121058	0.113428	0.777320
O45	O	1.454391	0.446762	1.110654
O46	O	0.787580	-0.368900	0.264546
O47	O	1.120914	-0.035566	0.597879
O48	O	1.454247	0.297767	0.931213
O49	O	0.723379	-0.368881	0.341858
O50	O	1.056712	-0.035547	0.675191
O51	O	1.390046	0.297786	1.008525
C52	C	0.619713	-0.251990	0.303236
C53	C	0.953046	0.081343	0.636569
C54	C	1.286379	0.414676	0.969903
C55	C	0.561599	-0.251991	0.303242
C56	C	0.894932	0.081343	0.636575
C57	C	1.228265	0.414676	0.969909
C58	C	0.310446	-0.218635	0.343607
C59	C	0.643779	0.114698	0.676940
C60	C	0.977112	0.448032	1.010273
C61	C	0.365050	-0.218630	0.343603
C62	C	0.698383	0.114704	0.676936
C63	C	1.031717	0.448037	1.010270
O64	O	0.393321	-0.190247	0.377918
O65	O	0.726654	0.143087	0.711251
O66	O	1.059988	0.476420	1.044585
N67	N	0.392325	-0.252012	0.303263
N68	N	0.725658	0.081321	0.636597
N69	N	1.058992	0.414654	0.969930
C70	C	0.364993	-0.285406	0.262929
C71	C	0.698326	0.047927	0.596263
C72	C	1.031659	0.381260	0.929596
O73	O	0.393206	-0.313801	0.228617
O74	O	0.726539	0.019533	0.561951
O75	O	1.059873	0.352866	0.895284
C76	C	0.310389	-0.285414	0.262936
C77	C	0.643723	0.047920	0.596270
C78	C	0.977056	0.381253	0.929603
C79	C	0.283117	-0.252025	0.303274
C80	C	0.616451	0.081308	0.636608
C81	C	0.949784	0.414642	0.969941
C82	C	0.283174	-0.185249	0.383942
C83	C	0.616507	0.148084	0.717275
C84	C	0.949840	0.481417	1.050608
C85	C	0.228573	-0.185254	0.383944
C86	C	0.561906	0.148079	0.717278
C87	C	0.895240	0.481413	1.050611
C88	C	0.201245	-0.218644	0.343612
C89	C	0.534578	0.114689	0.676945
C90	C	0.867911	0.448023	1.010279
C91	C	0.228517	-0.252030	0.303277
C92	C	0.561850	0.081304	0.636610
C93	C	0.895183	0.414637	0.969943
C94	C	0.283058	-0.318810	0.222606
C95	C	0.616391	0.014524	0.555939
C96	C	0.949725	0.347857	0.889273
C97	C	0.228451	-0.318815	0.222617
C98	C	0.561784	0.014519	0.555950
C99	C	0.895118	0.347852	0.889284
C100	C	0.201179	-0.285426	0.262955
C101	C	0.534512	0.047907	0.596288
C102	C	0.867846	0.381241	0.929621
C103	C	0.146588	-0.285424	0.262947
C104	C	0.479921	0.047909	0.596280
C105	C	0.813254	0.381242	0.929614
N106	N	0.119313	-0.252042	0.303287
N107	N	0.452646	0.081292	0.636620
N108	N	0.785979	0.414625	0.969953
C109	C	0.146641	-0.218651	0.343619
C110	C	0.479975	0.114682	0.676952
C111	C	0.813308	0.448015	1.010286
C112	C	0.479663	-0.285389	0.262918
C113	C	0.812997	0.047945	0.596251
C114	C	1.146330	0.381278	0.929585
C115	C	0.534266	-0.285379	0.262907
C116	C	0.867599	0.047954	0.596240
C117	C	1.200932	0.381287	0.929574
C118	C	0.534319	-0.218603	0.343582
C119	C	0.867653	0.114730	0.676915
C120	C	1.200986	0.448063	1.010249
C121	C	0.479716	-0.218611	0.343589
C122	C	0.813049	0.114723	0.676922
C123	C	1.146383	0.448056	1.010256
C124	C	0.452388	-0.252006	0.303258
C125	C	0.785722	0.081327	0.636591
C126	C	1.119055	0.414661	0.969924
C127	C	0.031976	-0.218663	0.343621
C128	C	0.365310	0.114670	0.676954
C129	C	0.698643	0.448003	1.010288
C130	C	-0.022629	-0.218669	0.343618
C131	C	0.310704	0.114664	0.676952
C132	C	0.644037	0.447997	1.010285
C133	C	-0.022678	-0.285447	0.262946
C134	C	0.310655	0.047886	0.596279
C135	C	0.643989	0.381220	0.929613
C136	C	0.031923	-0.285439	0.262946
C137	C	0.365256	0.047894	0.596280
C138	C	0.698589	0.381227	0.929613
C139	C	0.059248	-0.252046	0.303289
C140	C	0.392582	0.081288	0.636622
C141	C	0.725915	0.414621	0.969956
O142	O	0.118282	-0.313795	0.228651
O143	O	0.451615	0.019539	0.561985
O144	O	0.784949	0.352872	0.895318
O145	O	0.118421	-0.190267	0.377931
O146	O	0.451755	0.143067	0.711264
O147	O	0.785088	0.476400	1.044598
C148	C	0.755481	-0.387861	0.303207
C149	C	1.088815	-0.054528	0.636540
C150	C	1.422148	0.278806	0.969874
C151	C	0.755498	-0.445975	0.303207
C152	C	1.088831	-0.112642	0.636540
C153	C	1.422164	0.220692	0.969873
C154	C	0.789023	-0.806304	0.343595
C155	C	1.122356	-0.472971	0.676929
C156	C	1.455690	-0.139637	1.010262
C157	C	0.789038	-0.860908	0.343608
C158	C	1.122372	-0.527575	0.676942
C159	C	1.455705	-0.194242	1.010275
O160	O	0.817455	-0.889116	0.377897
O161	O	1.150788	-0.555783	0.711231
O162	O	1.484121	-0.222449	1.044564
N163	N	0.755628	-0.888258	0.303317
N164	N	1.088961	-0.554924	0.636650
N165	N	1.422295	-0.221591	0.969984
C166	C	0.722196	-0.861000	0.263015
C167	C	1.055529	-0.527666	0.596348
C168	C	1.388863	-0.194333	0.929682
O169	O	0.693779	-0.889276	0.228746
O170	O	1.027112	-0.555943	0.562079
O171	O	1.360446	-0.222610	0.895412
C172	C	0.722178	-0.806396	0.263006
C173	C	1.055512	-0.473063	0.596339
C174	C	1.388845	-0.139730	0.929672
C175	C	0.755595	-0.779050	0.303295
C176	C	1.088928	-0.445717	0.636628
C177	C	1.422261	-0.112383	0.969962
C178	C	0.822436	-0.778958	0.383882
C179	C	1.155769	-0.445624	0.717215
C180	C	1.489103	-0.112291	1.050549
C181	C	0.822421	-0.724357	0.383868
C182	C	1.155755	-0.391024	0.717201
C183	C	1.489088	-0.057690	1.050535
C184	C	0.788993	-0.697103	0.343568
C185	C	1.122327	-0.363770	0.676901
C186	C	1.455660	-0.030436	1.010234
C187	C	0.755580	-0.724449	0.303281
C188	C	1.088913	-0.391116	0.636615
C189	C	1.422247	-0.057783	0.969948
C190	C	0.688744	-0.779139	0.222707
C191	C	1.022078	-0.445806	0.556041
C192	C	1.355411	-0.112473	0.889374
C193	C	0.688729	-0.724532	0.222702
C194	C	1.022063	-0.391199	0.556035
C195	C	1.355396	-0.057866	0.889369
C196	C	0.722146	-0.697186	0.262991
C197	C	1.055479	-0.363853	0.596325
C198	C	1.388812	-0.030519	0.929658
C199	C	0.722137	-0.642595	0.262967
C200	C	1.055470	-0.309261	0.596301
C201	C	1.388804	0.024072	0.929634
N202	N	0.755547	-0.615246	0.303258
N203	N	1.088881	-0.281912	0.636592
N204	N	1.422214	0.051421	0.969925
C205	C	0.788976	-0.642500	0.343559
C206	C	1.122309	-0.309166	0.676892
C207	C	1.455642	0.024167	1.010225
C208	C	0.722235	-0.975670	0.263038
C209	C	1.055568	-0.642337	0.596371
C210	C	1.388902	-0.309004	0.929705
C211	C	0.722255	-1.030273	0.263044
C212	C	1.055588	-0.696939	0.596377
C213	C	1.388922	-0.363606	0.929710
C214	C	0.789097	-1.030177	0.343638
C215	C	1.122430	-0.696844	0.676971
C216	C	1.455763	-0.363511	1.010304
C217	C	0.789079	-0.975574	0.343629
C218	C	1.122412	-0.642241	0.676962
C219	C	1.455746	-0.308908	1.010295
C220	C	0.755646	-0.948321	0.303329
C221	C	1.088979	-0.614988	0.636663
C222	C	1.422312	-0.281654	0.969996
C223	C	0.788942	-0.527835	0.343526
C224	C	1.122275	-0.194501	0.676860
C225	C	1.455609	0.138832	1.010193
C226	C	0.788926	-0.473229	0.343507
C227	C	1.122259	-0.139896	0.676840
C228	C	1.455592	0.193437	1.010174
C229	C	0.722082	-0.473329	0.262916
C230	C	1.055416	-0.139996	0.596249
C231	C	1.388749	0.193338	0.929582
C232	C	0.722100	-0.527930	0.262932
C233	C	1.055434	-0.194596	0.596265
C234	C	1.388767	0.138737	0.929599
C235	C	0.755532	-0.555181	0.303243
C236	C	1.088865	-0.221848	0.636576
C237	C	1.422199	0.111486	0.969909
O238	O	0.693733	-0.614352	0.228697
O239	O	1.027067	-0.281019	0.562031
O240	O	1.360400	0.052314	0.895364
O241	O	0.817383	-0.614216	0.377828
O242	O	1.150716	-0.280883	0.711161
O243	O	1.484050	0.052450	1.044495
C244	C	0.891928	-0.252047	0.303277
C245	C	1.225262	0.081286	0.636610
C246	C	1.558595	0.414619	0.969944
C247	C	0.950042	-0.252059	0.303286
C248	C	1.283376	0.081274	0.636619
C249	C	1.616709	0.414607	0.969953
C250	C	0.755599	-0.252007	0.467447
C251	C	1.088932	0.081326	0.800780
C252	C	1.422265	0.414659	1.134113
C253	C	0.755617	-0.252003	0.537415
C254	C	1.088951	0.081331	0.870748
C255	C	1.422284	0.414664	1.204081
C256	C	0.755644	-0.115645	0.303319
C257	C	1.088977	0.217688	0.636653
C258	C	1.422310	0.551021	0.969986
C259	C	0.755681	-0.057531	0.303346
C260	C	1.089015	0.275802	0.636680
C261	C	1.422348	0.609135	0.970013
C262	C	0.755542	-0.251992	0.139705
C263	C	1.088876	0.081342	0.473038
C264	C	1.422209	0.414675	0.806371
C265	C	0.755625	-0.251849	0.069737
C266	C	1.088958	0.081484	0.403070
C267	C	1.422292	0.414817	0.736404
C268	C	0.789078	-0.218568	0.570303
C269	C	1.122411	0.114765	0.903636
C270	C	1.455744	0.448099	1.236970
C271	C	0.789077	-0.218545	0.636045
C272	C	1.122410	0.114788	0.969379
C273	C	1.455744	0.448121	1.302712
C274	C	0.755621	-0.251967	0.668897
C275	C	1.088955	0.081367	1.002231
C276	C	1.422288	0.414700	1.335564
C277	C	0.722154	-0.285404	0.636001
C278	C	1.055488	0.047929	0.969334
C279	C	1.388821	0.381263	1.302668
C280	C	0.722152	-0.285422	0.570260
C281	C	1.055486	0.047911	0.903593
C282	C	1.388819	0.381245	1.236926
N283	N	0.751586	-0.297704	0.772108
N284	N	1.084919	0.035629	1.105441
N285	N	1.418252	0.368962	1.438774
N286	N	0.751591	-0.297686	0.834559
N287	N	1.084924	0.035648	1.167892
N288	N	1.418257	0.368981	1.501226
C289	C	0.755625	-0.251914	0.866972
C290	C	1.088958	0.081420	1.200305
C291	C	1.422291	0.414753	1.533639
N292	N	0.759664	-0.206160	0.834574
N293	N	1.092997	0.127173	1.167908
N294	N	1.426330	0.460507	1.501241
N295	N	0.759661	-0.206179	0.772117
N296	N	1.092995	0.127154	1.105450
N297	N	1.426328	0.460487	1.438784
C298	C	0.755620	-0.251951	0.740183
C299	C	1.088953	0.081383	1.073516
C300	C	1.422286	0.414716	1.406849
C301	C	0.789086	-0.218452	0.971146
C302	C	1.122420	0.114882	1.304479
C303	C	1.455753	0.448215	1.637813
C304	C	0.789082	-0.218428	1.036890
C305	C	1.122415	0.114905	1.370223
C306	C	1.455748	0.448239	1.703556
C307	C	0.722162	-0.285291	1.036844
C308	C	1.055495	0.048042	1.370177
C309	C	1.388828	0.381375	1.703511
C310	C	0.722163	-0.285310	0.971101
C311	C	1.055497	0.048023	1.304435
C312	C	1.388830	0.381357	1.637768
C313	C	0.755628	-0.251891	0.938256
C314	C	1.088962	0.081442	1.271590
C315	C	1.422295	0.414776	1.604923
H316	H	0.457417	-0.312582	0.230070
H317	H	0.790750	0.020751	0.563403
H318	H	1.124083	0.354084	0.896736
C319	C	0.855228	-0.152354	0.977792
C320	C	1.188562	0.180980	1.311125
C321	C	1.521895	0.514313	1.644459
C322	C	0.825863	-0.181712	0.935037
C323	C	1.159197	0.151621	1.268371
C324	C	1.492530	0.484954	1.601704
H325	H	0.877930	-0.129670	0.955500
H326	H	1.211263	0.203663	1.288833
H327	H	1.544597	0.536996	1.622167
H328	H	0.875214	-0.175129	1.003439
H329	H	1.208547	0.158204	1.336773
H330	H	1.541880	0.491538	1.670106
H331	H	0.832454	-0.132345	1.003425
H332	H	1.165788	0.200989	1.336759
H333	H	1.499121	0.534322	1.670092
H334	H	0.848637	-0.201725	0.909407
H335	H	1.181971	0.131609	1.242740
H336	H	1.515304	0.464942	1.576074
H337	H	0.805877	-0.158934	0.909379
H338	H	1.139210	0.174399	1.242713
H339	H	1.472543	0.507732	1.576046
C340	C	0.144725	-0.348484	0.186800
C341	C	0.478059	-0.015150	0.520133
C342	C	0.811392	0.318183	0.853467
C343	C	0.198413	-0.355524	0.178282
C344	C	0.531746	-0.022191	0.511615
C345	C	0.865079	0.311142	0.844949
H346	H	0.126183	-0.371149	0.159431
H347	H	0.459516	-0.037815	0.492765
H348	H	0.792850	0.295518	0.826098
H349	H	0.135787	-0.313349	0.177665
H350	H	0.469120	0.019984	0.510999
H351	H	0.802453	0.353318	0.844332
H352	H	0.135796	-0.356187	0.229080
H353	H	0.469129	-0.022854	0.562413
H354	H	0.802463	0.310479	0.895747
H355	H	0.207343	-0.347817	0.136003
H356	H	0.540676	-0.014484	0.469336
H357	H	0.874010	0.318850	0.802670
H358	H	0.207355	-0.390667	0.187412
H359	H	0.540689	-0.057334	0.520746
H360	H	0.874022	0.275999	0.854079
H361	H	0.305254	-0.345998	0.189758
H362	H	0.638587	-0.012665	0.523092
H363	H	0.971920	0.320668	0.856425
C364	C	0.026382	-0.351450	0.183209
C365	C	0.359715	-0.018116	0.516542
C366	C	0.693049	0.315217	0.849876
C367	C	0.061903	-0.322141	0.218608
C368	C	0.395237	0.011192	0.551942
C369	C	0.728570	0.344525	0.885275
H370	H	0.044889	-0.374114	0.155844
H371	H	0.378222	-0.040780	0.489177
H372	H	0.711556	0.292553	0.822511
H373	H	0.005089	-0.328642	0.159180
H374	H	0.338423	0.004692	0.492513
H375	H	0.671756	0.338025	0.825847
H376	H	0.005083	-0.371477	0.210598
H377	H	0.338416	-0.038144	0.543931
H378	H	0.671750	0.295189	0.877264
H379	H	0.083200	-0.302110	0.191220
H380	H	0.416533	0.031223	0.524553
H381	H	0.749867	0.364556	0.857886
H382	H	0.083205	-0.344952	0.242639
H383	H	0.416538	-0.011619	0.575973
H384	H	0.749872	0.321715	0.909306
C385	C	0.818789	-0.188702	1.137684
C386	C	1.152122	0.144631	1.471018
C387	C	1.485455	0.477965	1.804351
C388	C	0.825858	-0.181667	1.073044
C389	C	1.159192	0.151666	1.406378
C390	C	1.492525	0.484999	1.739711
H391	H	0.841490	-0.166003	1.160004
H392	H	1.174823	0.167330	1.493337
H393	H	1.508157	0.500664	1.826670
H394	H	0.826421	-0.223824	1.148458
H395	H	1.159754	0.109509	1.481791
H396	H	1.493087	0.442842	1.815125
H397	H	0.783662	-0.181040	1.148430
H398	H	1.116995	0.152294	1.481763
H399	H	1.450328	0.485627	1.815097
H400	H	0.860985	-0.189333	1.062298
H401	H	1.194318	0.144000	1.395631
H402	H	1.527651	0.477333	1.728964
H403	H	0.818230	-0.146537	1.062266
H404	H	1.151564	0.186796	1.395599
H405	H	1.484897	0.520130	1.728933
H406	H	0.694894	-0.550196	0.230120
H407	H	1.028228	-0.216863	0.563454
H408	H	1.361561	0.116470	0.896787
H409	H	0.694867	-0.451130	0.230101
H410	H	1.028200	-0.117797	0.563435
H411	H	1.361534	0.215536	0.896768
H412	H	0.054218	-0.191471	0.376472
H413	H	0.387552	0.141863	0.709805
H414	H	0.720885	0.475196	1.043138
H415	H	0.206373	-0.158068	0.416794
H416	H	0.539706	0.175266	0.750128
H417	H	0.873040	0.508599	1.083461
H418	H	0.816162	-0.550016	0.376355
H419	H	1.149495	-0.216683	0.709689
H420	H	1.482828	0.116650	1.043022
H421	H	0.457515	-0.191422	0.376435
H422	H	0.790848	0.141911	0.709768
H423	H	1.124181	0.475245	1.043102
H424	H	0.816327	-0.191355	0.543565
H425	H	1.149660	0.141978	0.876898
H426	H	1.482994	0.475312	1.210231
H427	H	0.816315	-1.052378	0.376454
H428	H	1.149648	-0.719044	0.709787
H429	H	1.482982	-0.385711	1.043120
H430	H	-0.044939	-0.312630	0.230106
H431	H	0.288395	0.020703	0.563439
H432	H	0.621728	0.354036	0.896773
H433	H	0.661533	-0.801395	0.189899
H434	H	0.994867	-0.468062	0.523233
H435	H	1.328200	-0.134729	0.856566
H436	H	0.694902	-0.312648	0.543482
H437	H	1.028235	0.020686	0.876816
H438	H	1.361569	0.354019	1.210149
H439	H	0.694916	-0.312498	1.063591
H440	H	1.028249	0.020835	1.396925
H441	H	1.361583	0.354168	1.730258
H442	H	0.849630	-0.702095	0.416677
H443	H	1.182964	-0.368761	0.750010
H444	H	1.516297	-0.035428	1.083344
H445	H	0.694919	-0.312540	0.944323
H446	H	1.028253	0.020794	1.277657
H447	H	1.361586	0.354127	1.610990
H448	H	0.694913	-0.312614	0.662753
H449	H	1.028246	0.020719	0.996086
H450	H	1.361579	0.354052	1.329420
H451	H	0.816139	-0.450965	0.376315
H452	H	1.149473	-0.117632	0.709649
H453	H	1.482806	0.215701	1.042982
C454	C	0.622654	-0.730115	0.143045
C455	C	0.955988	-0.396782	0.476378
C456	C	1.289321	-0.063449	0.809712
C457	C	0.651977	-0.694577	0.178402
C458	C	0.985311	-0.361243	0.511735
C459	C	1.318644	-0.027910	0.845068
H460	H	0.599969	-0.711622	0.115694
H461	H	0.933302	-0.378288	0.449027
H462	H	1.266635	-0.044955	0.782361
H463	H	0.602654	-0.751411	0.170457
H464	H	0.935987	-0.418078	0.503790
H465	H	1.269321	-0.084744	0.837124
H466	H	0.645456	-0.751410	0.118997
H467	H	0.978789	-0.418076	0.452330
H468	H	1.312122	-0.084743	0.785664
H469	H	0.629176	-0.673285	0.202453
H470	H	0.962510	-0.339951	0.535787
H471	H	1.295843	-0.006618	0.869120
H472	H	0.671979	-0.673272	0.150986
H473	H	1.005313	-0.339939	0.484320
H474	H	1.338646	-0.006605	0.817653
C475	C	0.888508	-0.773365	0.463533
C476	C	1.221841	-0.440031	0.796867
C477	C	1.555175	-0.106698	1.130200
C478	C	0.859188	-0.808909	0.428182
C479	C	1.192521	-0.475576	0.761515
C480	C	1.525855	-0.142242	1.094848
H481	H	0.911203	-0.791854	0.490878
H482	H	1.244536	-0.458520	0.824211
H483	H	1.577870	-0.125187	1.157545
H484	H	0.865709	-0.752076	0.487582
H485	H	1.199043	-0.418743	0.820915
H486	H	1.532376	-0.085410	1.154249
H487	H	0.908504	-0.752063	0.436113
H488	H	1.241837	-0.418730	0.769446
H489	H	1.575170	-0.085397	1.102780
H490	H	0.839189	-0.830208	0.455602
H491	H	1.172523	-0.496875	0.788935
H492	H	1.505856	-0.163541	1.122268
H493	H	0.881990	-0.830206	0.404131
H494	H	1.215323	-0.496873	0.737464
H495	H	1.548656	-0.163540	1.070798
C496	C	0.855235	-0.152466	0.629494
C497	C	1.188568	0.180867	0.962827
C498	C	1.521902	0.514200	1.296161
C499	C	0.825863	-0.181795	0.672206
C500	C	1.159196	0.151539	1.005540
C501	C	1.492529	0.484872	1.338873
H502	H	0.877947	-0.129781	0.651818
H503	H	1.211280	0.203552	0.985152
H504	H	1.544614	0.536885	1.318485
H505	H	0.832471	-0.132465	0.603848
H506	H	1.165804	0.200868	0.937181
H507	H	1.499137	0.534202	1.270515
H508	H	0.875215	-0.175264	0.603855
H509	H	1.208548	0.158069	0.937188
H510	H	1.541881	0.491402	1.270522
H511	H	0.805880	-0.158997	0.697842
H512	H	1.139213	0.174337	1.031176
H513	H	1.472547	0.507670	1.364509
H514	H	0.848630	-0.201797	0.697863
H515	H	1.181963	0.131536	1.031197
H516	H	1.515297	0.464869	1.364530
C517	C	0.618051	-0.188956	0.379399
C518	C	0.951385	0.144377	0.712732
C519	C	1.284718	0.477711	1.046065
C520	C	0.564366	-0.181904	0.387924
C521	C	0.897699	0.151429	0.721257
C522	C	1.231033	0.484762	1.054590
H523	H	0.636601	-0.166303	0.406775
H524	H	0.969934	0.167030	0.740108
H525	H	1.303267	0.500363	1.073442
H526	H	0.626980	-0.181247	0.337126
H527	H	0.960313	0.152086	0.670459
H528	H	1.293646	0.485419	1.003793
H529	H	0.626982	-0.224100	0.388524
H530	H	0.960316	0.109234	0.721857
H531	H	1.293649	0.442567	1.055190
H532	H	0.555434	-0.146762	0.378794
H533	H	0.888767	0.186572	0.712127
H534	H	1.222101	0.519905	1.045461
H535	H	0.555434	-0.189610	0.430206
H536	H	0.888767	0.143724	0.763539
H537	H	1.222100	0.477057	1.096873
H538	H	0.816289	-0.953312	0.376436
H539	H	1.149623	-0.619979	0.709769
H540	H	1.482956	-0.286645	1.043103
H541	H	-0.044832	-0.191478	0.376466
H542	H	0.288502	0.141856	0.709799
H543	H	0.621835	0.475189	1.043133
H544	H	0.695050	-1.052533	0.230229
H545	H	1.028383	-0.719200	0.563562
H546	H	1.361716	-0.385867	0.896896
H547	H	0.305419	-0.158059	0.416788
H548	H	0.638752	0.175275	0.750122
H549	H	0.972085	0.508608	1.083455
C550	C	0.656172	-0.981258	0.183368
C551	C	0.989505	-0.647924	0.516701
C552	C	1.322838	-0.314591	0.850034
C553	C	0.685488	-0.945716	0.218728
C554	C	1.018822	-0.612383	0.552062
C555	C	1.352155	-0.279049	0.885395
H556	H	0.633489	-0.962766	0.156012
H557	H	0.966822	-0.629433	0.489345
H558	H	1.300155	-0.296099	0.822678
H559	H	0.636169	-1.002553	0.210777
H560	H	0.969502	-0.669220	0.544110
H561	H	1.302836	-0.335887	0.877444
H562	H	0.678977	-1.002551	0.159325
H563	H	1.012311	-0.669218	0.492658
H564	H	1.345644	-0.335885	0.825992
H565	H	0.662683	-0.924425	0.242775
H566	H	0.996016	-0.591091	0.576108
H567	H	1.329349	-0.257758	0.909442
H568	H	0.705492	-0.924411	0.191316
H569	H	1.038826	-0.591078	0.524649
H570	H	1.372159	-0.257745	0.857982
C571	C	0.528714	-0.351385	0.183167
C572	C	0.862048	-0.018051	0.516500
C573	C	1.195381	0.315282	0.849833
C574	C	0.564239	-0.322078	0.218563
C575	C	0.897573	0.011255	0.551896
C576	C	1.230906	0.344589	0.885230
H577	H	0.547218	-0.374045	0.155795
H578	H	0.880552	-0.040712	0.489128
H579	H	1.213885	0.292621	0.822461
H580	H	0.507417	-0.328575	0.159145
H581	H	0.840751	0.004758	0.492478
H582	H	1.174084	0.338091	0.825812
H583	H	0.507420	-0.371416	0.210557
H584	H	0.840753	-0.038082	0.543890
H585	H	1.174086	0.295251	0.877224
H586	H	0.585531	-0.302044	0.191173
H587	H	0.918865	0.031289	0.524506
H588	H	1.252198	0.364623	0.857839
H589	H	0.585545	-0.344890	0.242586
H590	H	0.918878	-0.011557	0.575920
H591	H	1.252212	0.321776	0.909253
