data_functionalizedCrystal
_audit_creation_method	'MofGen! by Chris Wilmer'
_symmetry_space_group_name_H-M	'P1'
_symmetry_Int_Tables_number	1
_symmetry_cell_setting	triclinic
loop_
_symmetry_equiv_pos_as_xyz
  x,y,z
_cell_length_a	10.540539
_cell_length_b	10.654542
_cell_length_c	9.730223
_cell_angle_alpha	89.993407
_cell_angle_beta	90.001428
_cell_angle_gamma	95.496244
loop_
_atom_site_label
_atom_site_type_symbol
_atom_site_fract_x
_atom_site_fract_y
_atom_site_fract_z
O1	O	1.685818	-0.176990	0.114237
O2	O	1.316398	-0.193666	0.114256
O3	O	1.509606	-0.002591	0.114224
O4	O	1.492609	-0.368064	0.114269
O5	O	1.509592	-0.002591	-0.114356
O6	O	1.316384	-0.193666	-0.114324
O7	O	1.685804	-0.176990	-0.114342
Zn8	Zn	1.501092	-0.185328	-0.150625
Zn9	Zn	1.501110	-0.185328	0.150539
O10	O	1.492596	-0.368065	-0.114311
C11	C	1.269089	-0.192415	-0.000032
C12	C	1.128142	-0.188674	-0.000026
C13	C	1.508353	0.044208	-0.000068
C14	C	1.504625	0.183653	-0.000076
N15	N	1.501089	-0.185327	-0.356162
C16	C	0.944771	-0.045302	-0.000577
C17	C	1.091387	-0.049095	-0.000048
C18	C	1.066451	-0.255845	0.130507
C19	C	0.919909	-0.251081	0.130602
C20	C	0.919404	-0.253921	-0.129336
C21	C	1.066385	-0.255206	-0.131047
C22	C	1.733113	-0.178240	-0.000051
C23	C	1.874060	-0.181982	-0.000048
C24	C	1.614870	0.394129	-0.000090
C25	C	1.618382	0.263107	-0.000089
C26	C	1.387348	0.235226	-0.000077
C27	C	1.383836	0.366246	-0.000087
C28	C	1.493855	0.585138	-0.000038
C29	C	1.497601	0.445695	-0.000087
C30	C	1.578747	-0.262237	-0.428077
C31	C	1.578768	-0.262230	-0.571960
C32	C	1.423462	-0.108400	-0.572000
C33	C	1.423449	-0.108402	-0.428120
N34	N	1.501123	-0.185318	0.356075
H35	H	0.916201	0.009840	-0.094191
N36	N	1.737561	0.479829	-0.000104
H37	H	1.788685	0.463120	0.084625
H38	H	1.788563	0.463086	-0.084900
N39	N	1.744864	0.207488	-0.000101
H40	H	1.816395	0.277703	-0.000104
H41	H	1.751360	0.153727	0.084636
N42	N	1.264649	0.149536	-0.000103
H43	H	1.284665	0.058710	-0.000102
H44	H	1.213579	0.166337	0.084626
H45	H	1.288337	0.408230	-0.000091
N46	N	0.882561	-0.185319	0.259828
H47	H	0.961258	-0.159690	0.316194
H48	H	0.839507	-0.107856	0.234402
H49	H	1.642006	-0.324856	-0.630507
H50	H	1.641966	-0.324874	-0.369493
H51	H	0.871901	-0.351464	0.136538
H52	H	1.360209	-0.045766	-0.369565
N53	N	1.339717	-0.025451	-0.649625
H54	H	1.247573	-0.049343	-0.624592
H55	H	1.364066	0.065662	-0.624570
H56	H	0.914590	0.009606	0.092502
N57	N	1.147849	0.020915	-0.123997
H58	H	1.126938	0.111413	-0.120620
H59	H	1.243400	0.018490	-0.123826
N60	N	1.146734	0.021410	0.124090
H61	H	1.075872	0.055069	0.178686
H62	H	1.192506	-0.037600	0.183481
H63	H	1.088765	-0.358348	0.135376
H64	H	0.887869	-0.208750	-0.228279
N65	N	1.122871	-0.194048	0.259188
H66	H	1.217841	-0.200474	0.260689
H67	H	1.105922	-0.102350	0.260392
N68	N	0.856803	-0.387464	-0.130516
H69	H	0.880987	-0.432497	-0.044434
H70	H	0.761193	-0.386044	-0.134147
N71	N	1.120652	-0.190215	-0.258971
H72	H	1.184973	-0.117975	-0.232181
H73	H	1.163645	-0.252457	-0.316854
H74	H	1.090572	-0.356968	-0.138916
