data_functionalizedCrystal
_audit_creation_method	'MofGen! by Chris Wilmer'
_symmetry_space_group_name_H-M	'P1'
_symmetry_Int_Tables_number	1
_symmetry_cell_setting	triclinic
loop_
_symmetry_equiv_pos_as_xyz
  x,y,z
_cell_length_a	10.540539
_cell_length_b	9.016244
_cell_length_c	10.654541
_cell_angle_alpha	90.001977
_cell_angle_beta	84.504710
_cell_angle_gamma	90.005301
loop_
_atom_site_label
_atom_site_type_symbol
_atom_site_fract_x
_atom_site_fract_y
_atom_site_fract_z
O1	O	1.685828	0.123270	0.176987
O2	O	1.316409	0.123288	0.193663
O3	O	1.509614	0.123269	0.002589
O4	O	1.492623	0.123288	0.368062
O5	O	1.509585	-0.123411	0.002593
O6	O	1.316380	-0.123393	0.193668
O7	O	1.685799	-0.123411	0.176991
Cu8	Cu	1.501087	-0.145926	0.185330
Cu9	Cu	1.501121	0.145803	0.185325
O10	O	1.492595	-0.123392	0.368066
C11	C	1.269092	-0.000050	0.192415
C12	C	1.128145	-0.000043	0.188673
C13	C	0.944771	-0.000627	0.045302
C14	C	1.091388	-0.000055	0.049095
C15	C	1.066464	0.140821	0.255842
C16	C	0.919921	0.140924	0.251078
C17	C	0.919400	-0.139598	0.253923
C18	C	1.066381	-0.141445	0.255208
N19	N	1.501073	-0.351112	0.185333
C20	C	1.397404	-0.586135	0.287202
C21	C	1.397633	-0.414244	0.287584
C22	C	1.633785	-0.413455	0.215145
C23	C	1.633219	-0.585400	0.215866
C24	C	1.473348	-0.585661	0.053317
C25	C	1.470302	-0.413706	0.054173
C26	C	1.733116	-0.000070	0.178240
C27	C	1.874063	-0.000067	0.181982
C28	C	1.508352	-0.000070	-0.044208
C29	C	1.504622	-0.000067	-0.183652
N30	N	1.501145	0.350989	0.185312
C31	C	1.735651	-0.000098	-0.211542
C32	C	1.849407	-0.000116	-0.290996
C33	C	1.845894	-0.000111	-0.422016
C34	C	1.728612	-0.000083	-0.473582
C35	C	1.614856	-0.000065	-0.394128
C36	C	1.618381	-0.000075	-0.263107
C37	C	1.383830	-0.000025	-0.366239
C38	C	1.387340	-0.000040	-0.235219
C39	C	1.266548	0.000003	-0.417805
C40	C	1.152788	0.000010	-0.338350
C41	C	1.156306	0.000003	-0.207324
C42	C	1.273583	-0.000022	-0.155765
C43	C	1.493856	-0.000050	0.414862
C44	C	1.497586	-0.000043	0.554307
H45	H	0.914596	0.099827	-0.009608
H46	H	1.944896	-0.000151	-0.248996
H47	H	1.133165	0.101092	-0.004133
H48	H	1.938525	-0.000114	-0.486708
Br49	Br	1.315436	-0.658017	0.006050
H50	H	0.872135	-0.140545	0.354739
Br51	Br	1.261777	0.000118	-0.595618
H52	H	1.090569	-0.149944	0.356970
Br53	Br	1.723847	0.000039	-0.651395
Br54	Br	1.233252	-0.343986	0.257774
Br55	Br	0.839902	0.151588	0.418384
H56	H	1.057306	0.000042	-0.380347
H57	H	1.063671	0.000025	-0.142638
Br58	Br	1.278367	-0.000047	0.022047
H59	H	1.548987	-0.626320	-0.022520
H60	H	1.298485	-0.627524	0.269540
H61	H	1.134010	-0.101034	-0.003757
Br62	Br	0.897137	-0.169008	-0.046605
H63	H	1.738523	-0.000122	-0.104861
Br64	Br	0.872945	0.316418	0.168331
H65	H	1.088780	0.146068	0.358345
Br66	Br	1.587913	-0.342113	-0.078278
H67	H	1.109082	0.245651	0.209179
Br68	Br	1.426801	-0.658084	0.449507
H69	H	0.887858	-0.246373	0.208753
H70	H	1.415497	-0.373093	0.385512
H71	H	1.107349	-0.245656	0.206139
H72	H	1.657538	-0.625485	0.312166
Br73	Br	1.765716	-0.654729	0.096845
H74	H	1.372672	-0.372961	0.031576
Br75	Br	1.765599	-0.345306	0.094830
H76	H	1.658648	-0.370374	0.310356
