data_functionalizedCrystal
_audit_creation_method	'MofGen! by Chris Wilmer'
_symmetry_space_group_name_H-M	'P1'
_symmetry_Int_Tables_number	1
_symmetry_cell_setting	triclinic
loop_
_symmetry_equiv_pos_as_xyz
  x,y,z
_cell_length_a	13.897449
_cell_length_b	13.897447
_cell_length_c	13.897441
_cell_angle_alpha	89.973472
_cell_angle_beta	90.020733
_cell_angle_gamma	89.977525
loop_
_atom_site_label
_atom_site_type_symbol
_atom_site_fract_x
_atom_site_fract_y
_atom_site_fract_z
Zn1	Zn	1.474679	0.383951	0.545408
Zn2	Zn	1.974679	0.883951	1.045408
Zn3	Zn	1.474563	0.545273	0.384121
Zn4	Zn	1.974563	1.045273	0.884121
Zn5	Zn	1.313368	0.383997	0.384127
Zn6	Zn	1.813368	0.883997	0.884127
Zn7	Zn	1.313340	0.545210	0.545374
Zn8	Zn	1.813340	1.045210	1.045374
O9	O	1.393988	0.464608	0.464758
O10	O	1.893988	0.964608	0.964758
O11	O	1.609645	0.405358	0.524026
O12	O	2.109645	0.905358	1.024026
O13	O	1.453144	0.523925	0.249140
O14	O	1.953144	1.023925	0.749140
O15	O	1.334827	0.249009	0.405538
O16	O	1.834827	0.749009	0.905538
O17	O	1.609560	0.523881	0.405529
O18	O	2.109560	1.023881	0.905529
O19	O	1.453341	0.248976	0.524031
O20	O	1.953341	0.748976	1.024031
O21	O	1.334714	0.405436	0.249144
O22	O	1.834714	0.905436	0.749144
O23	O	1.178383	0.405375	0.405504
O24	O	1.678383	0.905375	0.905504
O25	O	1.334779	0.523773	0.680360
O26	O	1.834779	1.023773	1.180360
O27	O	1.178362	0.523817	0.523972
O28	O	1.678362	1.023817	1.023972
O29	O	1.453314	0.405297	0.680386
O30	O	1.953314	0.905297	1.180386
O31	O	1.453116	0.680246	0.405495
O32	O	1.953116	1.180246	0.905495
O33	O	1.334666	0.680200	0.523967
O34	O	1.834666	1.180200	1.023967
C35	C	1.143373	0.464595	0.464736
C36	C	1.643373	0.964595	0.964736
C37	C	1.036159	0.464613	0.464749
C38	C	1.536159	0.964613	0.964749
C39	C	0.839864	0.464616	0.464774
C40	C	1.339864	0.964616	0.964774
C41	C	0.949097	0.464611	0.464758
C42	C	1.449097	0.964611	0.964758
C43	C	1.393902	0.715222	0.464748
C44	C	1.893902	1.215222	0.964748
C45	C	1.393954	0.822436	0.464775
C46	C	1.893954	1.322436	0.964775
C47	C	1.393998	0.909506	0.464802
C48	C	1.893998	1.409506	0.964802
C49	C	1.394062	1.018738	0.464832
C50	C	1.894062	1.518738	0.964832
C51	C	1.645581	0.464621	0.464780
C52	C	2.145581	0.964621	0.964780
C53	C	1.752795	0.464627	0.464790
C54	C	2.252795	0.964627	0.964790
C55	C	1.394056	0.464522	0.716351
C56	C	1.894056	0.964522	1.216351
C57	C	1.394085	0.464486	0.823565
C58	C	1.894085	0.964486	1.323565
C59	C	1.394093	1.213015	0.464801
C60	C	1.894093	1.713015	0.964801
C61	C	1.394119	1.105801	0.464851
C62	C	1.894119	1.605801	0.964851
C63	C	1.393975	0.464623	0.214143
C64	C	1.893975	0.964623	0.714143
C65	C	1.394133	0.464388	0.106930
C66	C	1.894133	0.964388	0.606930
C67	C	1.394111	0.464421	1.019860
C68	C	1.894111	0.964421	1.519860
C69	C	1.394094	0.464460	0.910627
C70	C	1.894094	0.964460	1.410627
