data_functionalizedCrystal
_audit_creation_method	'MofGen! by Chris Wilmer'
_symmetry_space_group_name_H-M	'P1'
_symmetry_Int_Tables_number	1
_symmetry_cell_setting	triclinic
loop_
_symmetry_equiv_pos_as_xyz
  x,y,z
_cell_length_a	18.215407
_cell_length_b	14.909042
_cell_length_c	18.215399
_cell_angle_alpha	93.320692
_cell_angle_beta	90.017368
_cell_angle_gamma	86.716699
loop_
_atom_site_label
_atom_site_type_symbol
_atom_site_fract_x
_atom_site_fract_y
_atom_site_fract_z
Zn1	Zn	1.142020	-0.359223	0.399185
Zn2	Zn	1.642020	0.140777	0.899185
Zn3	Zn	1.149047	-0.510089	0.269028
Zn4	Zn	1.649047	-0.010089	0.769028
Zn5	Zn	1.018954	-0.359245	0.276136
Zn6	Zn	1.518954	0.140755	0.776136
Zn7	Zn	1.026034	-0.510031	0.392061
Zn8	Zn	1.526034	-0.010031	0.892061
O9	O	1.084014	-0.434647	0.334102
O10	O	1.584014	0.065353	0.834102
O11	O	1.245937	-0.379251	0.381925
O12	O	1.745937	0.120749	0.881925
O13	O	1.131767	-0.490112	0.166985
O14	O	1.631767	0.009888	0.666985
O15	O	1.029375	-0.232999	0.298415
O16	O	1.529375	0.267001	0.798415
O17	O	1.251100	-0.490091	0.286300
O18	O	1.751100	0.009909	0.786300
O19	O	1.119792	-0.232984	0.388818
O20	O	1.619792	0.267016	0.888818
O21	O	1.036189	-0.379288	0.172207
O22	O	1.536189	0.120712	0.672207
O23	O	0.916908	-0.379231	0.291507
O24	O	1.416908	0.120769	0.791507
O25	O	1.041442	-0.489992	0.495992
O26	O	1.541442	0.010008	0.995992
O27	O	0.922110	-0.490013	0.376677
O28	O	1.422110	0.009987	0.876677
O29	O	1.126657	-0.379195	0.501226
O30	O	1.626657	0.120805	1.001226
O31	O	1.138632	-0.636324	0.279392
O32	O	1.638632	-0.136324	0.779392
O33	O	1.048256	-0.636281	0.369784
O34	O	1.548256	-0.136281	0.869784
C35	C	0.892806	-0.434619	0.334091
C36	C	1.392806	0.065381	0.834091
C37	C	0.811008	-0.434629	0.334102
C38	C	1.311008	0.065371	0.834102
C39	C	0.620130	-0.377033	0.383963
C40	C	1.120130	0.122967	0.883963
C41	C	0.543272	-0.377041	0.383965
C42	C	1.043272	0.122959	0.883965
C43	C	0.548650	-0.492286	0.284253
C44	C	1.048650	0.007714	0.784253
C45	C	0.625507	-0.492273	0.284248
C46	C	1.125507	0.007727	0.784248
C47	C	0.661245	-0.434648	0.334107
C48	C	1.161245	0.065352	0.834107
C49	C	0.507530	-0.434669	0.334114
C50	C	1.007530	0.065331	0.834114
C51	C	0.424197	-0.434677	0.334116
C52	C	0.924197	0.065323	0.834116
C53	C	0.744584	-0.434638	0.334105
C54	C	1.244584	0.065362	0.834105
C55	C	1.094995	-0.669035	0.323060
C56	C	1.594995	-0.169035	0.823060
C57	C	1.099760	-0.769308	0.318360
C58	C	1.599760	-0.269308	0.818360
C59	C	1.014514	-0.957750	0.403573
C60	C	1.514514	-0.457750	0.903573
C61	C	1.018989	-1.051965	0.399160
C62	C	1.518989	-0.551965	0.899160
C63	C	1.113180	-1.051954	0.305118
C64	C	1.613180	-0.551954	0.805118
C65	C	1.108705	-0.957739	0.309531
C66	C	1.608705	-0.457739	0.809531
C67	C	1.059371	-0.910641	0.358761
C68	C	1.559371	-0.410641	0.858761
C69	C	1.054900	-0.816424	0.363177
C70	C	1.554900	-0.316424	0.863177
C71	C	1.149088	-0.816415	0.269132
C72	C	1.649088	-0.316415	0.769132
C73	C	1.153563	-0.910630	0.264719
C74	C	1.653563	-0.410630	0.764719
C75	C	1.275968	-0.434675	0.334114
C76	C	1.775968	0.065325	0.834114
C77	C	1.357767	-0.434687	0.334120
C78	C	1.857767	0.065313	0.834120
C79	C	1.084056	-0.434585	0.526058
C80	C	1.584056	0.065415	1.026058
C81	C	1.084074	-0.434558	0.607859
C82	C	1.584074	0.065442	1.107859
C83	C	1.073010	-0.199343	0.345204
C84	C	1.573010	0.300657	0.845204
C85	C	1.068321	-0.099070	0.349935
C86	C	1.568321	0.400930	0.849935
C87	C	1.084011	-0.434644	0.142896
C88	C	1.584011	0.065356	0.642896
C89	C	1.084124	-0.434416	0.061109
C90	C	1.584124	0.065584	0.561109
C91	C	1.128459	-0.376812	0.798782
C92	C	1.628459	0.123188	1.298782
C93	C	1.128467	-0.376785	0.875642
C94	C	1.628467	0.123215	1.375642
C95	C	1.039733	-0.492165	0.870180
C96	C	1.539733	0.007835	1.370180
C97	C	1.039722	-0.492186	0.793322
C98	C	1.539722	0.007814	1.293322
C99	C	1.084090	-0.434511	0.757624
C100	C	1.584090	0.065489	1.257624
C101	C	1.084108	-0.434463	0.911343
C102	C	1.584108	0.065537	1.411343
C103	C	1.084116	-0.434435	0.994678
C104	C	1.584116	0.065565	1.494678
C105	C	1.084081	-0.434537	0.674284
C106	C	1.584081	0.065463	1.174284
H107	H	0.519543	-0.539203	0.243660
H108	H	1.019543	-0.039203	0.743660
H109	H	0.649226	-0.330108	0.424560
H110	H	1.149226	0.169892	0.924560
H111	H	0.658984	-0.539191	0.243646
H112	H	1.158984	-0.039191	0.743646
O113	O	1.006919	-0.770810	0.411015
O114	O	1.506919	-0.270810	0.911015
C115	C	0.914000	-0.780769	0.503859
C116	C	1.414000	-0.280769	1.003859
C117	C	0.968296	-0.832536	0.449702
C118	C	1.468296	-0.332536	0.949702
H119	H	0.882770	-0.830652	0.535163
H120	H	1.382770	-0.330652	1.035163
H121	H	0.873400	-0.736747	0.472136
H122	H	1.373400	-0.236747	0.972136
H123	H	0.945677	-0.736574	0.544411
H124	H	1.445677	-0.236574	1.044411
H125	H	0.936680	-0.876779	0.409137
H126	H	1.436680	-0.376779	0.909137
H127	H	1.008895	-0.876501	0.481474
H128	H	1.508895	-0.376501	0.981474
H129	H	1.164584	-0.329846	0.769719
H130	H	1.664584	0.170154	1.269719
H131	H	0.982463	-1.090318	0.435653
H132	H	1.482463	-0.590318	0.935653
O133	O	0.966539	-0.912133	0.451416
O134	O	1.466539	-0.412133	0.951416
C135	C	0.873637	-0.922083	0.544279
C136	C	1.373637	-0.422083	1.044279
C137	C	0.927921	-0.973855	0.490112
C138	C	1.427921	-0.473855	0.990112
H139	H	0.842410	-0.971963	0.575590
H140	H	1.342410	-0.471963	1.075590
H141	H	0.833033	-0.878059	0.512562
H142	H	1.333033	-0.378059	1.012562
H143	H	0.905324	-0.877890	0.584824
H144	H	1.405324	-0.377890	1.084824
H145	H	0.896295	-1.018097	0.449555
H146	H	1.396295	-0.518097	0.949555
H147	H	0.968524	-1.017822	0.521878
H148	H	1.468524	-0.517822	1.021878
H149	H	1.153338	-1.090318	0.265031
H150	H	1.653338	-0.590318	0.765031
O151	O	1.201457	-0.956524	0.216954
O152	O	1.701457	-0.456524	0.716954
C153	C	1.250041	-1.101662	0.168421
C154	C	1.750041	-0.601662	0.668421
C155	C	1.195785	-1.049802	0.222565
C156	C	1.695785	-0.549802	0.722565
H157	H	1.245463	-1.177086	0.172929
H158	H	1.745463	-0.677086	0.672929
H159	H	1.308516	-1.083148	0.182259
H160	H	1.808516	-0.583148	0.682259
H161	H	1.236274	-1.083134	0.109948
H162	H	1.736274	-0.583134	0.609948
H163	H	1.209485	-1.068302	0.281057
H164	H	1.709485	-0.568302	0.781057
H165	H	1.137326	-1.068320	0.208664
H166	H	1.637326	-0.568320	0.708664
O167	O	0.503446	-0.321047	0.432468
O168	O	1.003446	0.178953	0.932468
C169	C	0.506226	-0.206704	0.531342
C170	C	1.006226	0.293296	1.031342
C171	C	0.551418	-0.270090	0.476462
C172	C	1.051418	0.229910	0.976462
H173	H	0.544992	-0.165475	0.566915
H174	H	1.044992	0.334525	1.066915
H175	H	0.472222	-0.248144	0.567866
H176	H	0.972222	0.251856	1.067866
H177	H	0.467997	-0.159522	0.499830
H178	H	0.967997	0.340478	0.999830
H179	H	0.589688	-0.317284	0.507914
H180	H	1.089688	0.182716	1.007914
H181	H	0.585373	-0.228594	0.439938
H182	H	1.085373	0.271406	0.939938
H183	H	1.164596	-0.329800	0.909149
H184	H	1.664596	0.170200	1.409149
O185	O	1.192589	-0.770512	0.225627
O186	O	1.692589	-0.270512	0.725627
C187	C	1.227477	-0.625365	0.190781
C188	C	1.727477	-0.125365	0.690781
C189	C	1.178157	-0.677237	0.240076
C190	C	1.678157	-0.177237	0.740076
H191	H	1.215837	-0.549943	0.202457
H192	H	1.715837	-0.049943	0.702457
H193	H	1.215469	-0.643882	0.130543
H194	H	1.715469	-0.143882	0.630543
H195	H	1.287680	-0.643880	0.202886
H196	H	1.787680	-0.143880	0.702886
H197	H	1.117937	-0.658750	0.228037
H198	H	1.617937	-0.158750	0.728037
H199	H	1.190227	-0.658716	0.300299
H200	H	1.690227	-0.158716	0.800299
H201	H	1.003613	-0.539124	0.899254
H202	H	1.503613	-0.039124	1.399254
H203	H	1.003586	-0.539171	0.759810
H204	H	1.503586	-0.039171	1.259810
