data_functionalizedCrystal
_audit_creation_method	'MofGen! by Chris Wilmer'
_symmetry_space_group_name_H-M	'P1'
_symmetry_Int_Tables_number	1
_symmetry_cell_setting	triclinic
loop_
_symmetry_equiv_pos_as_xyz
  x,y,z
_cell_length_a	13.032721
_cell_length_b	18.215407
_cell_length_c	18.215399
_cell_angle_alpha	89.980167
_cell_angle_beta	97.154738
_cell_angle_gamma	97.205008
loop_
_atom_site_label
_atom_site_type_symbol
_atom_site_fract_x
_atom_site_fract_y
_atom_site_fract_z
Zn1	Zn	-0.416041	1.087881	-0.453320
Zn2	Zn	0.083959	1.587881	0.046680
Zn3	Zn	-0.590804	1.072167	-0.345882
Zn4	Zn	-0.090804	1.572167	0.154118
Zn5	Zn	-0.416075	0.964810	-0.330271
Zn6	Zn	0.083925	1.464810	0.169729
Zn7	Zn	-0.590746	0.949162	-0.468902
Zn8	Zn	-0.090746	1.449162	0.031098
O9	O	-0.503417	1.018505	-0.399594
O10	O	-0.003417	1.518505	0.100406
O11	O	-0.439234	1.188780	-0.439081
O12	O	0.060766	1.688780	0.060919
O13	O	-0.567665	1.057898	-0.240831
O14	O	-0.067665	1.557898	0.259169
O15	O	-0.269831	0.994261	-0.333539
O16	O	0.230169	1.494261	0.166461
O17	O	-0.567632	1.177235	-0.360147
O18	O	-0.067632	1.677235	0.139853
O19	O	-0.269806	1.084681	-0.423943
O20	O	0.230194	1.584681	0.076057
O21	O	-0.439292	0.979024	-0.229361
O22	O	0.060708	1.479024	0.270639
O23	O	-0.439236	0.859751	-0.348648
O24	O	0.060764	1.359751	0.151352
O25	O	-0.567533	0.967591	-0.569816
O26	O	-0.067533	1.467591	-0.069816
O27	O	-0.567566	0.848254	-0.450500
O28	O	-0.067566	1.348254	0.049500
O29	O	-0.439177	1.069507	-0.558368
O30	O	0.060823	1.569507	-0.058368
O31	O	-0.737036	1.042724	-0.375256
O32	O	-0.237036	1.542724	0.124744
O33	O	-0.736993	0.952353	-0.465638
O34	O	-0.236993	1.452353	0.034362
C35	C	-0.503399	0.827300	-0.399571
C36	C	-0.003399	1.327300	0.100429
C37	C	-0.503416	0.745500	-0.399581
C38	C	-0.003416	1.245500	0.100419
C39	C	-0.570343	0.551329	-0.452566
C40	C	-0.070343	1.051329	0.047434
C41	C	-0.570346	0.474470	-0.452575
C42	C	-0.070346	0.974470	0.047425
C43	C	-0.436510	0.486431	-0.346640
C44	C	0.063490	0.986431	0.153360
C45	C	-0.436502	0.563289	-0.346634
C46	C	0.063498	1.063289	0.153366
C47	C	-0.503424	0.595736	-0.399597
C48	C	-0.003424	1.095736	0.100403
C49	C	-0.503435	0.442019	-0.399612
C50	C	-0.003435	0.942019	0.100388
C51	C	-0.503438	0.358685	-0.399621
C52	C	-0.003438	0.858685	0.100379
C53	C	-0.503420	0.679075	-0.399588
C54	C	-0.003420	1.179075	0.100412
C55	C	-0.774933	0.994156	-0.423847
C56	C	-0.274933	1.494156	0.076153
C57	C	-0.891089	0.983806	-0.434248
C58	C	-0.391089	1.483806	0.065752
C59	C	-0.942861	1.023945	-0.394199
C60	C	-0.442861	1.523945	0.105801
C61	C	-1.062914	1.013250	-0.404947
C62	C	-0.562914	1.513250	0.095053
C63	C	-0.230840	1.042969	-0.375262
C64	C	0.269160	1.542969	0.124738
C65	C	-0.114684	1.053395	-0.364893
C66	C	0.385316	1.553395	0.135107
C67	C	-0.503345	1.018556	-0.591540
C68	C	-0.003345	1.518556	-0.091540
C69	C	-0.503314	1.018578	-0.673337
C70	C	-0.003314	1.518578	-0.173337
C71	C	-0.503435	1.210456	-0.399617
C72	C	-0.003435	1.710456	0.100383
C73	C	-0.503443	1.292254	-0.399627
C74	C	-0.003443	1.792254	0.100373
C75	C	-0.436417	1.071668	-0.855565
C76	C	0.063583	1.571668	-0.355565
C77	C	-0.436386	1.071680	-0.932421
C78	C	0.063614	1.571680	-0.432421
C79	C	-0.570049	0.965554	-0.944331
C80	C	-0.070049	1.465554	-0.444331
C81	C	-0.570074	0.965540	-0.867476
C82	C	-0.070074	1.465540	-0.367476
C83	C	-0.503259	1.018601	-0.823095
C84	C	-0.003259	1.518601	-0.323095
C85	C	-0.503204	1.018627	-0.976807
C86	C	-0.003204	1.518627	-0.476807
C87	C	-0.503172	1.018639	-1.060137
C88	C	-0.003172	1.518639	-0.560137
C89	C	-0.503290	1.018589	-0.739759
C90	C	-0.003290	1.518589	-0.239759
C91	C	-0.503413	1.018503	-0.208387
C92	C	-0.003413	1.518503	0.291613
C93	C	-0.503149	1.018650	-0.126565
C94	C	-0.003149	1.518650	0.373435
H95	H	-0.382002	0.599447	-0.303500
H96	H	0.117998	1.099447	0.196500
Br97	Br	-0.661163	0.595362	-0.524444
Br98	Br	-0.161163	1.095362	-0.024444
H99	H	-0.898309	1.066232	-0.351957
H100	H	-0.398309	1.566232	0.148043
Br101	Br	-0.660786	0.893509	-0.823404
Br102	Br	-0.160786	1.393509	-0.323404
H103	H	-0.624836	0.438318	-0.495709
H104	H	-0.124836	0.938318	0.004291
H105	H	-1.107465	0.970967	-0.447198
H106	H	-0.607465	1.470967	0.052802
Br107	Br	-0.345739	1.143678	-0.795336
Br108	Br	0.154261	1.643678	-0.295336
H109	H	-0.382025	0.460003	-0.303519
H110	H	0.117975	0.960003	0.196481
H111	H	-1.070135	1.095684	-0.322648
H112	H	-0.570135	1.595684	0.177352
H113	H	-0.935643	0.941526	-0.476495
H114	H	-0.435643	1.441526	0.023505
Br115	Br	-0.345676	1.143707	-0.976486
Br116	Br	0.154324	1.643707	-0.476486
H117	H	-0.624450	0.922355	-0.980476
H118	H	-0.124450	1.422355	-0.480476
