data_functionalizedCrystal
_audit_creation_method	'MofGen! by Chris Wilmer'
_symmetry_space_group_name_H-M	'P1'
_symmetry_Int_Tables_number	1
_symmetry_cell_setting	triclinic
loop_
_symmetry_equiv_pos_as_xyz
  x,y,z
_cell_length_a	14.971486
_cell_length_b	19.288865
_cell_length_c	14.048226
_cell_angle_alpha	89.988335
_cell_angle_beta	90.001501
_cell_angle_gamma	96.624811
loop_
_atom_site_label
_atom_site_type_symbol
_atom_site_fract_x
_atom_site_fract_y
_atom_site_fract_z
O1	O	-1.186458	0.090517	-0.079062
O2	O	-0.686458	0.590517	0.420938
O3	O	-0.925999	0.101357	-0.079090
O4	O	-0.425999	0.601357	0.420910
O5	O	-1.063754	-0.005169	-0.079056
O6	O	-0.563754	0.494831	0.420944
O7	O	-1.048702	0.197043	-0.079096
O8	O	-0.548702	0.697043	0.420904
O9	O	-1.063738	-0.005175	0.079265
O10	O	-0.563738	0.494825	0.579265
O11	O	-0.925982	0.101351	0.079232
O12	O	-0.425982	0.601351	0.579232
O13	O	-1.186441	0.090511	0.079259
O14	O	-0.686441	0.590511	0.579259
Zn15	Zn	-1.056209	0.095930	0.104382
Zn16	Zn	-0.556209	0.595930	0.604382
Zn17	Zn	-1.056231	0.095938	-0.104213
Zn18	Zn	-0.556231	0.595938	0.395787
O19	O	-1.048686	0.197037	0.079226
O20	O	-0.548686	0.697037	0.579226
C21	C	-1.063262	-0.031050	0.000107
C22	C	-0.563262	0.468950	0.500107
C23	C	-1.061808	-0.108158	0.000115
C24	C	-0.561808	0.391842	0.500115
C25	C	-0.892669	0.100869	0.000068
C26	C	-0.392669	0.600869	0.500068
C27	C	-0.793379	0.099416	0.000058
C28	C	-0.293379	0.599416	0.500058
C29	C	-1.142636	-0.152591	0.000128
C30	C	-0.642636	0.347409	0.500128
C31	C	-1.141271	-0.225043	0.000113
C32	C	-0.641271	0.274957	0.500113
C33	C	-1.059071	-0.253058	0.000104
C34	C	-0.559071	0.246942	0.500104
C35	C	-0.978232	-0.208615	0.000085
C36	C	-0.478232	0.291385	0.500085
C37	C	-0.979600	-0.136166	0.000091
C38	C	-0.479600	0.363834	0.500091
C39	C	-0.994448	-0.361558	0.055554
C40	C	-0.494448	0.138442	0.555554
C41	C	-0.993083	-0.434007	0.055554
C42	C	-0.493083	0.065993	0.555554
C43	C	-1.054848	-0.476517	0.000082
C44	C	-0.554848	0.023483	0.500082
C45	C	-1.117994	-0.446571	-0.055378
C46	C	-0.617994	0.053429	0.444622
C47	C	-1.119362	-0.374121	-0.055372
C48	C	-0.619362	0.125879	0.444628
C49	C	-1.057579	-0.331617	0.000097
C50	C	-0.557579	0.168383	0.500097
C51	C	-1.134201	-0.599511	0.000077
C52	C	-0.634201	-0.099511	0.500077
C53	C	-1.132832	-0.671963	0.000056
C54	C	-0.632832	-0.171963	0.500056
C55	C	-0.969791	-0.655535	0.000038
C56	C	-0.469791	-0.155535	0.500038
C57	C	-0.971163	-0.583084	0.000050
C58	C	-0.471163	-0.083084	0.500050
C59	C	-1.053370	-0.555077	0.000074
C60	C	-0.553370	-0.055077	0.500074
C61	C	-1.219771	0.090999	0.000099
C62	C	-0.719771	0.590999	0.500099
C63	C	-1.319061	0.092452	0.000103
C64	C	-0.819061	0.592452	0.500103
C65	C	-0.735816	0.161997	0.000047
C66	C	-0.235816	0.661997	0.500047
C67	C	-0.642524	0.160628	0.000062
C68	C	-0.142524	0.660628	0.500062
C69	C	-0.606797	0.096677	0.000080
C70	C	-0.106797	0.596677	0.500080
C71	C	-0.664368	0.034092	0.000094
C72	C	-0.164368	0.534092	0.500094
C73	C	-0.757658	0.035461	0.000086
C74	C	-0.257658	0.535461	0.500086
C75	C	-0.469921	0.031241	0.000108
C76	C	0.030079	0.531241	0.500108
C77	C	-0.376624	0.029871	0.000113
C78	C	0.123376	0.529871	0.500113
C79	C	-0.354786	0.156407	0.000083
C80	C	0.145214	0.656407	0.500083
C81	C	-0.448077	0.157777	0.000075
C82	C	0.051923	0.657777	0.500075
C83	C	-0.505641	0.095191	0.000087
C84	C	-0.005641	0.595191	0.500087
C85	C	-1.049178	0.222918	0.000060
C86	C	-0.549178	0.722918	0.500060
C87	C	-1.050632	0.300026	0.000046
C88	C	-0.550632	0.800026	0.500046
N89	N	-1.056201	0.095924	0.246743
N90	N	-0.556201	0.595924	0.746743
N91	N	-1.056246	0.095939	-0.246574
N92	N	-0.556246	0.595939	0.253426
C93	C	-1.117218	0.048774	0.296576
C94	C	-0.617218	0.548774	0.796576
C95	C	-1.117224	0.048773	0.396233
C96	C	-0.617224	0.548773	0.896233
C97	C	-1.056217	0.095927	0.446056
C98	C	-0.556217	0.595927	0.946056
C99	C	-0.995193	0.143079	0.396217
C100	C	-0.495193	0.643079	0.896217
C101	C	-0.995183	0.143076	0.296561
C102	C	-0.495183	0.643076	0.796561
C103	C	-0.995219	0.143084	0.603931
C104	C	-0.495219	0.643084	1.103931
C105	C	-0.995229	0.143089	0.703593
C106	C	-0.495229	0.643089	1.203593
C107	C	-1.117259	0.048782	0.703603
C108	C	-0.617259	0.548782	1.203603
C109	C	-1.117250	0.048778	0.603947
C110	C	-0.617250	0.548778	1.103947
C111	C	-1.056227	0.095932	0.554115
C112	C	-0.556227	0.595932	1.054115
H113	H	-1.207093	-0.261227	0.000120
H114	H	-0.707093	0.238773	0.500120
H115	H	-0.764896	0.214073	0.000032
H116	H	-0.264896	0.714073	0.500032
H117	H	-0.307912	0.207367	0.000078
H118	H	0.192088	0.707367	0.500078
H119	H	-0.945515	0.181470	0.436788
H120	H	-0.445515	0.681470	0.936788
H121	H	-1.198655	-0.708141	0.000062
H122	H	-0.698655	-0.208141	0.500062
C123	C	-0.818306	-0.127206	0.000073
C124	C	-0.318306	0.372794	0.500073
C125	C	-0.890747	-0.087320	0.000086
C126	C	-0.390747	0.412680	0.500086
H127	H	-0.763453	-0.097048	0.000078
H128	H	-0.263453	0.402952	0.500078
H129	H	-0.821168	-0.155791	-0.055138
H130	H	-0.321168	0.344209	0.444862
H131	H	-0.821163	-0.155820	0.055282
H132	H	-0.321163	0.344180	0.555282
H133	H	-0.887893	-0.058709	-0.055127
H134	H	-0.387893	0.441291	0.444873
H135	H	-0.887884	-0.058723	0.055303
H136	H	-0.387884	0.441277	0.555303
H137	H	-1.166931	0.010386	0.563382
H138	H	-0.666931	0.510386	1.063382
C139	C	-0.630309	0.285839	0.000018
C140	C	-0.130309	0.785839	0.500018
C141	C	-0.579249	0.229419	0.000045
C142	C	-0.079249	0.729419	0.500045
H143	H	-0.591244	0.328309	0.000003
H144	H	-0.091244	0.828309	0.500003
H145	H	-0.667152	0.283742	0.055221
H146	H	-0.167152	0.783742	0.555221
H147	H	-0.667148	0.283735	-0.055200
H148	H	-0.167148	0.783735	0.444800
H149	H	-0.542415	0.231520	0.055267
H150	H	-0.042415	0.731520	0.555267
H151	H	-0.542391	0.231518	-0.055163
H152	H	-0.042391	0.731518	0.444837
H153	H	-0.945496	0.181469	0.255988
H154	H	-0.445496	0.681469	0.755988
H155	H	-1.209576	-0.129793	0.000145
H156	H	-0.709576	0.370207	0.500145
H157	H	-1.166908	0.010380	0.436807
H158	H	-0.666908	0.510380	0.936807
H159	H	-1.170775	-0.349742	-0.100531
H160	H	-0.670775	0.150258	0.399469
C161	C	-0.910365	-0.018623	0.000093
C162	C	-0.410365	0.481377	0.500093
C163	C	-0.820937	-0.033329	0.000098
C164	C	-0.320937	0.466671	0.500098
H165	H	-0.949429	-0.061093	0.000110
H166	H	-0.449429	0.438907	0.500110
H167	H	-0.921161	0.007592	-0.055121
H168	H	-0.421161	0.507592	0.444879
H169	H	-0.921157	0.007597	0.055300
H170	H	-0.421157	0.507597	0.555300
H171	H	-0.810144	-0.059545	-0.055113
H172	H	-0.310144	0.440455	0.444887
H173	H	-0.810137	-0.059555	0.055318
H174	H	-0.310137	0.440445	0.555318
H175	H	-1.168289	-0.481182	-0.100548
H176	H	-0.668289	0.018818	0.399452
H177	H	-0.635272	-0.017978	0.000123
H178	H	-0.135272	0.482022	0.500123
H179	H	-0.941662	-0.458383	0.100707
H180	H	-0.441662	0.041617	0.600707
C181	C	-0.366507	-0.078408	-0.081232
C182	C	0.133493	0.421592	0.418768
C183	C	-0.337348	-0.040423	0.000140
C184	C	0.162652	0.459577	0.500140
H185	H	-0.342262	-0.121805	-0.081211
H186	H	0.157738	0.378195	0.418789
H187	H	-0.346730	-0.052638	-0.136440
H188	H	0.153270	0.447362	0.363560
H189	H	-0.430306	-0.086550	-0.081221
H190	H	0.069694	0.413450	0.418779
H191	H	-0.273549	-0.032276	0.000125
H192	H	0.226451	0.467724	0.500125
H193	H	-0.357120	-0.066198	0.055363
H194	H	0.142880	0.433802	0.555363
H195	H	-0.477162	0.209852	0.000051
H196	H	0.022838	0.709852	0.500051
H197	H	-1.166901	0.010379	0.256016
H198	H	-0.666901	0.510379	0.756016
H199	H	-1.166946	0.010388	0.744183
H200	H	-0.666946	0.510388	1.244183
C201	C	-0.587505	-0.040619	-0.081272
C202	C	-0.087505	0.459381	0.418728
C203	C	-0.533202	-0.037552	0.000118
C204	C	-0.033202	0.462448	0.500118
H205	H	-0.626576	-0.083086	-0.081265
H206	H	-0.126576	0.416914	0.418735
H207	H	-0.550653	-0.038524	-0.136468
H208	H	-0.050653	0.461476	0.363532
H209	H	-0.622125	-0.002331	-0.081271
H210	H	-0.122125	0.497669	0.418729
H211	H	-0.498577	-0.075838	0.000113
H212	H	0.001423	0.424162	0.500113
H213	H	-0.570058	-0.039654	0.055328
H214	H	-0.070058	0.460346	0.555328
C215	C	-1.295221	-0.623024	0.000071
C216	C	-0.795221	-0.123024	0.500071
C217	C	-1.224561	-0.568719	0.000081
C218	C	-0.724561	-0.068719	0.500081
H219	H	-1.351004	-0.604014	0.000065
H220	H	-0.851004	-0.104014	0.500065
H221	H	-1.291299	-0.650949	0.055276
H222	H	-0.791299	-0.150949	0.555276
H223	H	-1.291288	-0.650931	-0.055144
H224	H	-0.791288	-0.150931	0.444856
H225	H	-1.228490	-0.540815	0.055301
H226	H	-0.728490	-0.040815	0.555301
H227	H	-1.228485	-0.540783	-0.055130
H228	H	-0.728485	-0.040783	0.444870
H229	H	-0.945550	0.181485	0.744154
H230	H	-0.445550	0.681485	1.244154
C231	C	-0.874605	0.236313	0.613926
C232	C	-0.374605	0.736313	1.113926
C233	C	-0.928146	0.194919	0.549152
C234	C	-0.428146	0.694919	1.049152
H235	H	-0.833206	0.268317	0.580106
H236	H	-0.333206	0.768317	1.080106
H237	H	-0.842551	0.207362	0.652806
H238	H	-0.342551	0.707362	1.152806
H239	H	-0.911748	0.261342	0.652786
H240	H	-0.411748	0.761342	1.152786
H241	H	-0.891003	0.169886	0.510297
H242	H	-0.391003	0.669886	1.010297
H243	H	-0.960202	0.223874	0.510256
H244	H	-0.460202	0.723874	1.010256
H245	H	-0.905343	-0.546906	0.000044
H246	H	-0.405343	-0.046906	0.500044
C247	C	-0.873682	-0.727461	-0.081367
C248	C	-0.373682	-0.227461	0.418633
C249	C	-0.879435	-0.686321	0.000024
C250	C	-0.379435	-0.186321	0.500024
H251	H	-0.817900	-0.746472	-0.081374
H252	H	-0.317900	-0.246472	0.418626
H253	H	-0.877608	-0.699526	-0.136562
H254	H	-0.377608	-0.199526	0.363438
H255	H	-0.921630	-0.764294	-0.081354
H256	H	-0.421630	-0.264294	0.418646
H257	H	-0.831490	-0.649485	0.000007
H258	H	-0.331490	-0.149485	0.500007
H259	H	-0.875500	-0.714257	0.055234
H260	H	-0.375500	-0.214257	0.555234
C261	C	-0.870839	-0.356417	0.165211
C262	C	-0.370839	0.143583	0.665211
C263	C	-0.926544	-0.314834	0.116529
C264	C	-0.426544	0.185166	0.616529
H265	H	-0.828923	-0.327570	0.202853
H266	H	-0.328923	0.172430	0.702853
H267	H	-0.839394	-0.381552	0.120606
H268	H	-0.339394	0.118448	0.620606
H269	H	-0.906425	-0.388321	0.205202
H270	H	-0.406425	0.111679	0.705202
H271	H	-0.890959	-0.282933	0.076532
H272	H	-0.390959	0.217067	0.576532
H273	H	-0.957992	-0.289687	0.161139
H274	H	-0.457992	0.210313	0.661139
H275	H	-0.911305	-0.231430	0.000076
H276	H	-0.411305	0.268570	0.500076
