data_functionalizedCrystal
_audit_creation_method	'MofGen! by Chris Wilmer'
_symmetry_space_group_name_H-M	'P1'
_symmetry_Int_Tables_number	1
_symmetry_cell_setting	triclinic
loop_
_symmetry_equiv_pos_as_xyz
  x,y,z
_cell_length_a	19.077068
_cell_length_b	19.077148
_cell_length_c	17.077395
_cell_angle_alpha	92.313948
_cell_angle_beta	92.268225
_cell_angle_gamma	89.885327
loop_
_atom_site_label
_atom_site_type_symbol
_atom_site_fract_x
_atom_site_fract_y
_atom_site_fract_z
Zn1	Zn	-0.322997	-1.062960	-0.505887
Zn2	Zn	0.177003	-0.562960	-0.005887
Zn3	Zn	-0.440505	-1.058154	-0.379661
Zn4	Zn	0.059495	-0.558154	0.120339
Zn5	Zn	-0.318289	-0.945460	-0.369163
Zn6	Zn	0.181711	-0.445460	0.130837
Zn7	Zn	-0.435737	-0.940695	-0.505412
Zn8	Zn	0.064263	-0.440695	-0.005412
O9	O	-0.379382	-1.001817	-0.440031
O10	O	0.120618	-0.501817	0.059969
O11	O	-0.342551	-1.160653	-0.493735
O12	O	0.157449	-0.660653	0.006265
O13	O	-0.424318	-1.043188	-0.268422
O14	O	0.075682	-0.543188	0.231578
O15	O	-0.220584	-0.965052	-0.383104
O16	O	0.279416	-0.465052	0.116896
O17	O	-0.428883	-1.157122	-0.400998
O18	O	0.071117	-0.657122	0.099002
O19	O	-0.224043	-1.051379	-0.483555
O20	O	0.275957	-0.551379	0.016445
O21	O	-0.334526	-0.960392	-0.260709
O22	O	0.165474	-0.460392	0.239291
O23	O	-0.329903	-0.846497	-0.382644
O24	O	0.170097	-0.346497	0.117356
O25	O	-0.420757	-0.956931	-0.615322
O26	O	0.079243	-0.456931	-0.115322
O27	O	-0.416192	-0.842996	-0.482746
O28	O	0.083808	-0.342996	0.017254
O29	O	-0.337928	-1.046758	-0.615670
O30	O	0.162072	-0.546758	-0.115670
O31	O	-0.538203	-1.038567	-0.400538
O32	O	-0.038203	-0.538567	0.099462
O33	O	-0.534700	-0.952271	-0.492926
O34	O	-0.034700	-0.452271	0.007074
C35	C	-0.372020	-0.819250	-0.431505
C36	C	0.127980	-0.319250	0.068495
C37	C	-0.368887	-0.741147	-0.427877
C38	C	0.131113	-0.241147	0.072123
C39	C	-0.346390	-0.301702	-0.401867
C40	C	0.153610	0.198298	0.098133
C41	C	-0.349337	-0.375088	-0.405280
C42	C	0.150663	0.124912	0.094720
C43	C	-0.395811	-0.409972	-0.459026
C44	C	0.104189	0.090028	0.040974
C45	C	-0.439335	-0.371465	-0.509367
C46	C	0.060665	0.128535	-0.009367
C47	C	-0.436383	-0.298080	-0.505957
C48	C	0.063617	0.201920	-0.005957
C49	C	-0.409460	-0.629255	-0.474808
C50	C	0.090540	-0.129255	0.025192
C51	C	-0.412409	-0.702646	-0.478213
C52	C	0.087591	-0.202646	0.021787
C53	C	-0.322411	-0.706263	-0.374126
C54	C	0.177589	-0.206263	0.125874
C55	C	-0.319466	-0.632877	-0.370718
C56	C	0.180534	-0.132877	0.129282
C57	C	-0.362988	-0.594377	-0.421062
C58	C	0.137012	-0.094377	0.078938
N59	N	-0.398826	-0.484984	-0.462514
N60	N	0.101174	0.015016	0.037486
N61	N	-0.359968	-0.519366	-0.417576
N62	N	0.140032	-0.019366	0.082424
C63	C	-0.561948	-0.994400	-0.447838
C64	C	-0.061948	-0.494400	0.052162
C65	C	-0.640053	-0.991290	-0.451207
C66	C	-0.140053	-0.491290	0.048793
C67	C	-0.678548	-1.034795	-0.404732
C68	C	-0.178548	-0.534795	0.095268
C69	C	-0.751936	-1.031875	-0.407905
C70	C	-0.251936	-0.531875	0.092095
C71	C	-0.786827	-0.985446	-0.457551
C72	C	-0.286827	-0.485446	0.042449
C73	C	-0.748326	-0.941940	-0.504032
C74	C	-0.248326	-0.441940	-0.004032
C75	C	-0.674940	-0.944864	-0.500862
C76	C	-0.174940	-0.444864	-0.000862
C77	C	-1.006116	-0.971883	-0.472190
C78	C	-0.506116	-0.471883	0.027810
C79	C	-1.079507	-0.968960	-0.475354
C80	C	-0.579507	-0.468960	0.024646
C81	C	-1.083112	-1.058896	-0.379228
C82	C	-0.583112	-0.558896	0.120772
C83	C	-1.009724	-1.061813	-0.376059
C84	C	-0.509724	-0.561813	0.123941
C85	C	-0.971230	-1.018310	-0.422543
C86	C	-0.471230	-0.518310	0.077457
N87	N	-0.861841	-0.982459	-0.460794
N88	N	-0.361841	-0.482459	0.039206
N89	N	-0.896217	-1.021301	-0.419303
N90	N	-0.396217	-0.521301	0.080697
C91	C	-0.196105	-1.009283	-0.432211
C92	C	0.303895	-0.509283	0.067789
C93	C	-0.118003	-1.012465	-0.428879
C94	C	0.381997	-0.512465	0.071121
C95	C	-0.379336	-1.001849	-0.644774
C96	C	0.120664	-0.501849	-0.144774
C97	C	-0.379316	-1.001863	-0.732024
C98	C	0.120684	-0.501863	-0.232024
C99	C	-0.386771	-0.185097	-0.448581
C100	C	0.113229	0.314903	0.051419
C101	C	-0.389912	-0.263200	-0.452203
C102	C	0.110088	0.236800	0.047797
C103	C	-0.336094	-1.048718	-1.108021
C104	C	0.163906	-0.548718	-0.608021
C105	C	-0.336118	-1.048703	-1.026041
C106	C	0.163882	-0.548703	-0.526041
C107	C	-0.379252	-1.001924	-0.984873
C108	C	0.120748	-0.501924	-0.484873
C109	C	-0.422369	-0.955162	-1.025690
C110	C	0.077631	-0.455162	-0.525690
C111	C	-0.422348	-0.955181	-1.107669
C112	C	0.077652	-0.455181	-0.607669
C113	C	-0.422409	-0.955124	-0.854820
C114	C	0.077591	-0.455124	-0.354820
C115	C	-0.422429	-0.955103	-0.772835
C116	C	0.077571	-0.455103	-0.272835
C117	C	-0.336178	-1.048645	-0.773192
C118	C	0.163822	-0.548645	-0.273192
C119	C	-0.336158	-1.048665	-0.855171
C120	C	0.163842	-0.548665	-0.355171
C121	C	-0.379274	-1.001902	-0.895982
C122	C	0.120726	-0.501902	-0.395982
C123	C	-0.379380	-1.001828	-0.236083
C124	C	0.120620	-0.501828	0.263917
C125	C	-0.379207	-1.001958	-0.148832
C126	C	0.120793	-0.501958	0.351168
H127	H	-0.444900	-0.597917	-0.515799
H128	H	0.055100	-0.097917	-0.015799
H129	H	-0.974779	-0.936459	-0.510037
H130	H	-0.474779	-0.436459	-0.010037
O131	O	-0.789206	-1.074281	-0.362799
O132	O	-0.289206	-0.574281	0.137201
C133	C	-0.773958	-1.144994	-0.382579
C134	C	-0.273958	-0.644994	0.117421
H135	H	-0.720726	-1.148473	-0.410558
H136	H	-0.220726	-0.648473	0.089442
H137	H	-0.816164	-1.167025	-0.425829
H138	H	-0.316164	-0.667025	0.074171
C139	C	-0.837578	-1.183504	-0.273599
C140	C	-0.337578	-0.683504	0.226401
C141	C	-0.772194	-1.187777	-0.307958
C142	C	-0.272194	-0.687777	0.192042
H143	H	-0.836492	-1.209896	-0.227570
H144	H	-0.336492	-0.709896	0.272430
H145	H	-0.847853	-1.135864	-0.260274
H146	H	-0.347853	-0.635864	0.239726
H147	H	-0.872742	-1.201862	-0.309649
H148	H	-0.372742	-0.701862	0.190351
H149	H	-0.737032	-1.169411	-0.271911
H150	H	-0.237032	-0.669411	0.228089
H151	H	-0.761912	-1.235415	-0.321274
H152	H	-0.261912	-0.735415	0.178726
H153	H	-0.477171	-0.399873	-0.553132
H154	H	0.022829	0.100127	-0.053132
H155	H	-0.471822	-0.266733	-0.546948
H156	H	0.028178	0.233267	-0.046948
O157	O	-0.975913	-1.106882	-0.327730
O158	O	-0.475913	-0.606882	0.172270
C159	C	-0.993277	-1.090846	-0.249540
C160	C	-0.493277	-0.590846	0.250460
H161	H	-1.045494	-1.061708	-0.248928
H162	H	-0.545494	-0.561708	0.251072
H163	H	-0.950565	-1.056383	-0.219597
H164	H	-0.450565	-0.556383	0.280403
C165	C	-0.935271	-1.195033	-0.206156
C166	C	-0.435271	-0.695033	0.293844
C167	C	-0.999408	-1.159250	-0.205404
C168	C	-0.499408	-0.659250	0.294596
H169	H	-0.939050	-1.237227	-0.178929
H170	H	-0.439050	-0.737227	0.321071
H171	H	-0.923570	-1.205836	-0.258833
H172	H	-0.423570	-0.705836	0.241167
H173	H	-0.899684	-1.166306	-0.181204
H174	H	-0.399684	-0.666306	0.318796
H175	H	-1.034992	-1.187974	-0.230364
H176	H	-0.534992	-0.687974	0.269636
H177	H	-1.011116	-1.148454	-0.152730
H178	H	-0.511116	-0.648454	0.347270
H179	H	-0.300965	-1.086807	-1.141533
H180	H	0.199035	-0.586807	-0.641533
O181	O	-0.782326	-0.896858	-0.552190
O182	O	-0.282326	-0.396858	-0.052190
C183	C	-0.855355	-0.903615	-0.545036
C184	C	-0.355355	-0.403615	-0.045036
H185	H	-0.866324	-0.926264	-0.485988
H186	H	-0.366324	-0.426264	0.014012
H187	H	-0.877628	-0.940179	-0.594274
H188	H	-0.377628	-0.440179	-0.094274
C189	C	-0.876748	-0.803191	-0.622996
C190	C	-0.376748	-0.303191	-0.122996
C191	C	-0.890222	-0.831003	-0.550470
C192	C	-0.390222	-0.331003	-0.050470
H193	H	-0.898257	-0.758402	-0.626351
H194	H	-0.398257	-0.258402	-0.126351
H195	H	-0.827548	-0.798640	-0.627819
H196	H	-0.327548	-0.298640	-0.127819
H197	H	-0.895310	-0.833668	-0.664020
H198	H	-0.395310	-0.333668	-0.164020
H199	H	-0.871653	-0.800531	-0.509448
H200	H	-0.371653	-0.300531	-0.009448
H201	H	-0.939420	-0.835548	-0.545640
H202	H	-0.439420	-0.335548	-0.045640
H203	H	-0.313900	-0.406433	-0.364287
H204	H	0.186100	0.093567	0.135713
O205	O	-0.637466	-0.902572	-0.545894
O206	O	-0.137466	-0.402572	-0.045894
C207	C	-0.593266	-0.858888	-0.497217
C208	C	-0.093266	-0.358888	0.002783
H209	H	-0.583284	-0.884139	-0.438436
H210	H	-0.083284	-0.384139	0.061564
H211	H	-0.619499	-0.805690	-0.487339
H212	H	-0.119499	-0.305690	0.012661
C213	C	-0.535287	-0.817905	-0.608990
C214	C	-0.035287	-0.317905	-0.108990
C215	C	-0.523024	-0.848923	-0.536796
C216	C	-0.023024	-0.348923	-0.036796
H217	H	-0.491960	-0.811755	-0.633405
H218	H	0.008040	-0.311755	-0.133405
H219	H	-0.565067	-0.847334	-0.641786
H220	H	-0.065067	-0.347334	-0.141786
H221	H	-0.557151	-0.773577	-0.600748
H222	H	-0.057151	-0.273577	-0.100748
H223	H	-0.501169	-0.893254	-0.545040
H224	H	-0.001169	-0.393254	-0.045040
H225	H	-0.493238	-0.819501	-0.504003
H226	H	0.006762	-0.319501	-0.004003
O227	O	-1.113427	-0.923782	-0.523472
O228	O	-0.613427	-0.423782	-0.023472
C229	C	-1.154126	-0.876737	-0.478460
C230	C	-0.654126	-0.376737	0.021540
H231	H	-1.131875	-0.873309	-0.415479
H232	H	-0.631875	-0.373309	0.084521
H233	H	-1.210603	-0.896248	-0.479187
H234	H	-0.710603	-0.396248	0.020813
C235	C	-1.179676	-0.807832	-0.590741
C236	C	-0.679676	-0.307832	-0.090741
C237	C	-1.152344	-0.803618	-0.513388
C238	C	-0.652344	-0.303618	-0.013388
H239	H	-1.178580	-0.762730	-0.612287
H240	H	-0.678580	-0.262730	-0.112287
H241	H	-1.152259	-0.839529	-0.621068
H242	H	-0.652259	-0.339529	-0.121068
H243	H	-1.226738	-0.824094	-0.591336
H244	H	-0.726738	-0.324094	-0.091336
H245	H	-1.105281	-0.787365	-0.512794
H246	H	-0.605281	-0.287365	-0.012794
H247	H	-1.179753	-0.771917	-0.483061
H248	H	-0.679753	-0.271917	0.016939
O249	O	-0.294171	-1.094148	-0.986517
O250	O	0.205829	-0.594148	-0.486517
C251	C	-0.256106	-1.135449	-1.040432
C252	C	0.243894	-0.635449	-0.540432
H253	H	-0.252497	-1.106778	-1.097423
H254	H	0.247503	-0.606778	-0.597423
H255	H	-0.283987	-1.187770	-1.052740
H256	H	0.216013	-0.687770	-0.552740
C257	C	-0.186170	-1.183830	-0.935719
C258	C	0.313830	-0.683830	-0.435719
C259	C	-0.181732	-1.148613	-1.005714
C260	C	0.318268	-0.648613	-0.505714
H261	H	-0.140293	-1.191953	-0.914303
H262	H	0.359707	-0.691953	-0.414303
H263	H	-0.211816	-1.156007	-0.899394
H264	H	0.288184	-0.656007	-0.399394
H265	H	-0.209407	-1.227427	-0.945985
H266	H	0.290593	-0.727427	-0.445985
H267	H	-0.158504	-1.105013	-0.995445
H268	H	0.341496	-0.605013	-0.495445
H269	H	-0.156080	-1.176428	-1.042036
H270	H	0.343920	-0.676428	-0.542036
O271	O	-0.294243	-1.093970	-0.733469
O272	O	0.205757	-0.593970	-0.233469
C273	C	-0.247247	-1.055790	-0.682270
C274	C	0.252753	-0.555790	-0.182270
H275	H	-0.269900	-1.001535	-0.668554
H276	H	0.230100	-0.501535	-0.168554
H277	H	-0.194864	-1.050178	-0.711296
H278	H	0.305136	-0.550178	-0.211296
C279	C	-0.208248	-1.161591	-0.622509
C280	C	0.291752	-0.661591	-0.122509
C281	C	-0.236074	-1.094956	-0.605658
C282	C	0.263926	-0.594956	-0.105658
H283	H	-0.201353	-1.185752	-0.575253
H284	H	0.298647	-0.685752	-0.075253
H285	H	-0.239908	-1.187315	-0.657004
H286	H	0.260092	-0.687315	-0.157004
H287	H	-0.164599	-1.156905	-0.646699
H288	H	0.335401	-0.656905	-0.146699
H289	H	-0.279726	-1.099643	-0.581478
H290	H	0.220274	-0.599643	-0.081478
H291	H	-0.204421	-1.069234	-0.571157
H292	H	0.295579	-0.569234	-0.071157
H293	H	-0.457493	-0.917076	-0.992165
H294	H	0.042507	-0.417076	-0.492165
H295	H	-0.457456	-0.917105	-1.140896
H296	H	0.042544	-0.417105	-0.640896
O297	O	-0.464311	-0.909631	-0.894341
O298	O	0.035689	-0.409631	-0.394341
C299	C	-0.502398	-0.868348	-0.840430
C300	C	-0.002398	-0.368348	-0.340430
H301	H	-0.473534	-0.867076	-0.780650
H302	H	0.026466	-0.367076	-0.280650
H303	H	-0.556807	-0.891900	-0.835190
H304	H	-0.056807	-0.391900	-0.335190
C305	C	-0.544946	-0.794719	-0.942794
C306	C	-0.044946	-0.294719	-0.442794
C307	C	-0.509492	-0.793152	-0.869372
C308	C	-0.009492	-0.293152	-0.369372
H309	H	-0.549326	-0.748335	-0.960648
H310	H	-0.049326	-0.248335	-0.460648
H311	H	-0.519289	-0.822533	-0.979116
H312	H	-0.019289	-0.322533	-0.479116
H313	H	-0.590283	-0.814348	-0.938418
H314	H	-0.090283	-0.314348	-0.438418
H315	H	-0.464153	-0.773530	-0.873752
H316	H	0.035847	-0.273530	-0.373752
H317	H	-0.535142	-0.765332	-0.833051
H318	H	-0.035142	-0.265332	-0.333051
H319	H	-0.281628	-0.604479	-0.326946
H320	H	0.218372	-0.104479	0.173054
O321	O	-0.301183	-0.267930	-0.349634
O322	O	0.198817	0.232070	0.150366
C323	C	-0.263414	-0.317652	-0.305926
C324	C	0.236586	0.182348	0.194074
H325	H	-0.263125	-0.370071	-0.340413
H326	H	0.236875	0.129929	0.159587
H327	H	-0.289386	-0.324396	-0.247719
H328	H	0.210614	0.175604	0.252281
C329	C	-0.187817	-0.227667	-0.247867
C330	C	0.312183	0.272333	0.252133
C331	C	-0.187457	-0.292047	-0.290227
C332	C	0.312543	0.207953	0.209773
H333	H	-0.140964	-0.211871	-0.238179
H334	H	0.359036	0.288129	0.261821
H335	H	-0.213264	-0.194167	-0.277311
H336	H	0.286736	0.305833	0.222689
H337	H	-0.209464	-0.233295	-0.199366
H338	H	0.290536	0.266705	0.300634
H339	H	-0.165819	-0.286416	-0.338731
H340	H	0.334181	0.213584	0.161269
H341	H	-0.162005	-0.325545	-0.260791
H342	H	0.337995	0.174455	0.239209
H343	H	-0.301031	-1.086753	-0.888687
H344	H	0.198969	-0.586753	-0.388687
O345	O	-0.280235	-0.743738	-0.325199
O346	O	0.219765	-0.243738	0.174801
C347	C	-0.321885	-0.784534	-0.278089
C348	C	0.178115	-0.284534	0.221911
H349	H	-0.375612	-0.793372	-0.308461
H350	H	0.124388	-0.293372	0.191539
H351	H	-0.328395	-0.755922	-0.218914
H352	H	0.171605	-0.255922	0.281086
C353	C	-0.220020	-0.844953	-0.228230
C354	C	0.279980	-0.344953	0.271770
C355	C	-0.286007	-0.855814	-0.265538
C356	C	0.213993	-0.355814	0.234462
H357	H	-0.197888	-0.888921	-0.220485
H358	H	0.302112	-0.388921	0.279515
H359	H	-0.191959	-0.817467	-0.259967
H360	H	0.308041	-0.317467	0.240033
H361	H	-0.225455	-0.821108	-0.178922
H362	H	0.274545	-0.321108	0.321078
H363	H	-0.280571	-0.879651	-0.314849
H364	H	0.219429	-0.379651	0.185151
H365	H	-0.314067	-0.883306	-0.233809
H366	H	0.185933	-0.383306	0.266191
O367	O	-0.644623	-1.079796	-0.356415
O368	O	-0.144623	-0.579796	0.143585
C369	C	-0.600615	-1.041510	-0.301992
C370	C	-0.100615	-0.541510	0.198008
H371	H	-0.620551	-0.985287	-0.295465
H372	H	-0.120551	-0.485287	0.204535
H373	H	-0.544886	-1.041292	-0.323743
H374	H	-0.044886	-0.541292	0.176257
C375	C	-0.576410	-1.144986	-0.229994
C376	C	-0.076410	-0.644986	0.270006
C377	C	-0.600899	-1.075933	-0.221973
C378	C	-0.100899	-0.575933	0.278027
H379	H	-0.576582	-1.166221	-0.180636
H380	H	-0.076582	-0.666221	0.319364
H381	H	-0.606056	-1.170781	-0.266661
H382	H	-0.106056	-0.670781	0.233339
H383	H	-0.529971	-1.144795	-0.248123
H384	H	-0.029971	-0.644795	0.251877
H385	H	-0.647341	-1.076126	-0.203855
H386	H	-0.147341	-0.576126	0.296145
H387	H	-0.571261	-1.050139	-0.185301
H388	H	-0.071261	-0.550139	0.314699
H389	H	-0.450254	-0.731046	-0.521984
H390	H	0.049746	-0.231046	-0.021984
H391	H	-1.114462	-1.094315	-0.341385
H392	H	-0.614462	-0.594315	0.158615
H393	H	-0.457535	-0.916996	-0.739317
H394	H	0.042465	-0.416996	-0.239317
