data_functionalizedCrystal
_audit_creation_method	'MofGen! by Chris Wilmer'
_symmetry_space_group_name_H-M	'P1'
_symmetry_Int_Tables_number	1
_symmetry_cell_setting	triclinic
loop_
_symmetry_equiv_pos_as_xyz
  x,y,z
_cell_length_a	29.839134
_cell_length_b	29.839131
_cell_length_c	29.839125
_cell_angle_alpha	90.017709
_cell_angle_beta	90.012189
_cell_angle_gamma	90.021992
loop_
_atom_site_label
_atom_site_type_symbol
_atom_site_fract_x
_atom_site_fract_y
_atom_site_fract_z
Zn1	Zn	0.686719	-0.179149	0.254008
Zn2	Zn	1.186719	0.320851	0.754008
Zn3	Zn	0.686652	-0.254261	0.178878
Zn4	Zn	1.186652	0.245739	0.678878
Zn5	Zn	0.611602	-0.179121	0.178890
Zn6	Zn	1.111602	0.320879	0.678890
Zn7	Zn	0.611550	-0.254227	0.253979
Zn8	Zn	1.111550	0.245773	0.753979
O9	O	0.649131	-0.216690	0.216439
O10	O	1.149131	0.283310	0.716439
O11	O	0.749578	-0.189139	0.244048
O12	O	1.249578	0.310861	0.744048
O13	O	0.676690	-0.244296	0.116012
O14	O	1.176690	0.255704	0.616012
O15	O	0.621617	-0.116257	0.188872
O16	O	1.121617	0.383743	0.688872
O17	O	0.749528	-0.244324	0.188851
O18	O	1.249528	0.255676	0.688851
O19	O	0.676805	-0.116278	0.244060
O20	O	1.176805	0.383722	0.744060
O21	O	0.621551	-0.189090	0.116021
O22	O	1.121551	0.310910	0.616021
O23	O	0.548728	-0.189058	0.188844
O24	O	1.048728	0.310942	0.688844
O25	O	0.621528	-0.244266	0.316850
O26	O	1.121528	0.255734	0.816850
O27	O	0.548690	-0.244238	0.244011
O28	O	1.048690	0.255762	0.744011
O29	O	0.676755	-0.189106	0.316871
O30	O	1.176755	0.310894	0.816871
O31	O	0.676639	-0.317124	0.188823
O32	O	1.176639	0.182876	0.688823
O33	O	0.621462	-0.317099	0.243999
O34	O	1.121462	0.182901	0.743999
C35	C	0.532408	-0.216641	0.216426
C36	C	1.032408	0.283359	0.716426
C37	C	0.482474	-0.216632	0.216431
C38	C	0.982474	0.283368	0.716431
C39	C	0.125909	-0.188015	0.245237
C40	C	0.625909	0.311985	0.745237
C41	C	0.313582	-0.187979	0.245226
C42	C	0.813582	0.312021	0.745226
O43	O	0.337865	-0.163591	0.269715
O44	O	0.837865	0.336409	0.769715
N45	N	0.337029	-0.216661	0.216442
N46	N	0.837029	0.283339	0.716442
C47	C	0.313555	-0.245357	0.187660
C48	C	0.813555	0.254643	0.687660
O49	O	0.337804	-0.269755	0.163181
O50	O	0.837804	0.230245	0.663181
C51	C	0.125883	-0.245395	0.187673
C52	C	0.625883	0.254605	0.687673
C53	C	0.102438	-0.216707	0.216456
C54	C	0.602438	0.283293	0.716456
C55	C	0.102464	-0.159330	0.274017
C56	C	0.602464	0.340670	0.774017
C57	C	0.055548	-0.159338	0.274018
C58	C	0.555548	0.340662	0.774018
C59	C	0.032078	-0.188030	0.245238
C60	C	0.532078	0.311970	0.745238
C61	C	0.055522	-0.216715	0.216457
C62	C	0.555522	0.283285	0.716457
C63	C	0.102409	-0.274092	0.158894
C64	C	0.602409	0.225908	0.658894
C65	C	0.055488	-0.274100	0.158901
C66	C	0.555488	0.225900	0.658901
C67	C	0.032044	-0.245412	0.187684
C68	C	0.532044	0.254588	0.687684
C69	C	-0.014864	-0.245415	0.187677
C70	C	0.485136	0.254585	0.687677
N71	N	-0.038311	-0.216732	0.216461
N72	N	0.461689	0.283268	0.716461
C73	C	-0.014840	-0.188040	0.245242
C74	C	0.485160	0.311960	0.745242
C75	C	0.412085	-0.245334	0.187655
C76	C	0.912085	0.254666	0.687655
C77	C	0.459003	-0.245324	0.187651
C78	C	0.959003	0.254676	0.687651
C79	C	0.459027	-0.187947	0.245218
C80	C	0.959027	0.312053	0.745218
C81	C	0.412108	-0.187955	0.245219
C82	C	0.912108	0.312045	0.745219
C83	C	0.388638	-0.216652	0.216439
C84	C	0.888638	0.283348	0.716439
C85	C	-0.113366	-0.188058	0.245240
C86	C	0.386634	0.311942	0.745240
C87	C	-0.160286	-0.188067	0.245237
C88	C	0.339714	0.311933	0.745237
C89	C	-0.160305	-0.245445	0.187672
C90	C	0.339695	0.254555	0.687672
C91	C	-0.113390	-0.245435	0.187674
C92	C	0.386610	0.254565	0.687674
C93	C	-0.089921	-0.216740	0.216461
C94	C	0.410079	0.283260	0.716461
O95	O	-0.039176	-0.269794	0.163204
O96	O	0.460824	0.230206	0.663204
O97	O	-0.039098	-0.163652	0.269725
O98	O	0.460902	0.336348	0.769725
C99	C	0.172824	-0.188007	0.245236
C100	C	0.672824	0.311993	0.745236
C101	C	0.196269	-0.216692	0.216455
C102	C	0.696269	0.283308	0.716455
C103	C	0.172798	-0.245384	0.187675
C104	C	0.672798	0.254616	0.687675
C105	C	0.243187	-0.216682	0.216451
C106	C	0.743187	0.283318	0.716451
C107	C	0.266657	-0.187990	0.245231
C108	C	0.766657	0.312010	0.745231
C109	C	0.243210	-0.159308	0.274016
C110	C	0.743210	0.340692	0.774016
C111	C	0.196295	-0.159315	0.274016
C112	C	0.696295	0.340685	0.774016
C113	C	0.196245	-0.274067	0.158891
C114	C	0.696245	0.225933	0.658891
C115	C	0.243161	-0.274056	0.158892
C116	C	0.743161	0.225944	0.658892
C117	C	0.266631	-0.245364	0.187672
C118	C	0.766631	0.254636	0.687672
C119	C	0.649050	-0.333412	0.216416
C120	C	1.149050	0.166588	0.716416
C121	C	0.649056	-0.383347	0.216422
C122	C	1.149056	0.116653	0.716422
C123	C	0.677914	-0.692990	0.187750
C124	C	1.177914	-0.192990	0.687750
C125	C	0.677969	-0.880663	0.187767
C126	C	1.177969	-0.380663	0.687767
O127	O	0.702440	-0.904928	0.163373
O128	O	1.202440	-0.404928	0.663373
N129	N	0.649224	-0.904132	0.216472
N130	N	1.149224	-0.404132	0.716472
C131	C	0.620465	-0.880679	0.245177
C132	C	1.120465	-0.380679	0.745177
O133	O	0.596020	-0.904946	0.269596
O134	O	1.096020	-0.404946	0.769596
C135	C	0.620412	-0.693007	0.245162
C136	C	1.120412	-0.193007	0.745162
C137	C	0.649156	-0.669541	0.216452
C138	C	1.149156	-0.169541	0.716452
C139	C	0.706655	-0.669524	0.159043
C140	C	1.206655	-0.169524	0.659043
C141	C	0.706640	-0.622609	0.159037
C142	C	1.206640	-0.122609	0.659037
C143	C	0.677882	-0.599159	0.187738
C144	C	1.177882	-0.099159	0.687738
C145	C	0.649140	-0.622625	0.216446
C146	C	1.149140	-0.122625	0.716446
C147	C	0.591656	-0.669555	0.273868
C148	C	1.091656	-0.169555	0.773868
C149	C	0.591646	-0.622634	0.273863
C150	C	1.091646	-0.122634	0.773863
C151	C	0.620390	-0.599168	0.245153
C152	C	1.120390	-0.099168	0.745153
C153	C	0.620367	-0.552260	0.245141
C154	C	1.120367	-0.052260	0.745141
N155	N	0.649112	-0.528792	0.216437
N156	N	1.149112	-0.028792	0.716437
C157	C	0.677869	-0.552242	0.187735
C158	C	1.177869	-0.052242	0.687735
C159	C	0.620494	-0.979209	0.245183
C160	C	1.120494	-0.479209	0.745183
C161	C	0.620507	-1.026127	0.245186
C162	C	1.120507	-0.526127	0.745186
C163	C	0.678012	-1.026109	0.187777
C164	C	1.178012	-0.526109	0.687777
C165	C	0.677996	-0.979190	0.187772
C166	C	1.177996	-0.479190	0.687772
C167	C	0.649239	-0.955741	0.216478
C168	C	1.149239	-0.455741	0.716478
C169	C	0.677834	-0.453716	0.187725
C170	C	1.177834	0.046284	0.687725
C171	C	0.677814	-0.406796	0.187720
C172	C	1.177814	0.093204	0.687720
C173	C	0.620311	-0.406819	0.245131
C174	C	1.120311	0.093181	0.745131
C175	C	0.620329	-0.453734	0.245134
C176	C	1.120329	0.046266	0.745134
C177	C	0.649094	-0.477182	0.216429
C178	C	1.149094	0.022818	0.716429
O179	O	0.595912	-0.527966	0.269527
O180	O	1.095912	-0.027966	0.769527
O181	O	0.702318	-0.527966	0.163327
O182	O	1.202318	-0.027966	0.663327
C183	C	0.677930	-0.739906	0.187756
C184	C	1.177930	-0.239906	0.687756
C185	C	0.649188	-0.763372	0.216463
C186	C	1.149188	-0.263372	0.716463
C187	C	0.620430	-0.739922	0.245165
C188	C	1.120430	-0.239922	0.745165
C189	C	0.649200	-0.810289	0.216467
C190	C	1.149200	-0.310289	0.716467
C191	C	0.677958	-0.833739	0.187765
C192	C	1.177958	-0.333739	0.687765
C193	C	0.706703	-0.810271	0.159060
C194	C	1.206703	-0.310271	0.659060
C195	C	0.706687	-0.763355	0.159054
C196	C	1.206687	-0.263355	0.659054
C197	C	0.591685	-0.763390	0.273870
C198	C	1.091685	-0.263390	0.773870
C199	C	0.591703	-0.810306	0.273873
C200	C	1.091703	-0.310306	0.773873
C201	C	0.620461	-0.833755	0.245171
C202	C	1.120461	-0.333755	0.745171
C203	C	0.766309	-0.216738	0.216451
C204	C	1.266309	0.283262	0.716451
C205	C	0.816244	-0.216759	0.216457
C206	C	1.316244	0.283241	0.716457
C207	C	0.649143	-0.216686	0.333617
C208	C	1.149143	0.283314	0.833617
C209	C	0.649148	-0.216684	0.383551
C210	C	1.149148	0.283316	0.883551
C211	C	0.649225	-0.099511	0.216471
C212	C	1.149225	0.400489	0.716471
C213	C	0.649264	-0.049577	0.216484
C214	C	1.149264	0.450423	0.716484
C215	C	0.649145	-0.216661	0.099716
C216	C	1.149145	0.283339	0.599716
C217	C	0.649227	-0.216536	0.049782
C218	C	1.149227	0.283464	0.549782
C219	C	0.677935	-0.187887	0.693209
C220	C	1.177935	0.312113	1.193209
C221	C	0.677957	-0.187849	0.880882
C222	C	1.177957	0.312151	1.380882
O223	O	0.702399	-0.163407	0.905159
O224	O	1.202399	0.336593	1.405159
N225	N	0.649208	-0.216564	0.904337
N226	N	1.149208	0.283436	1.404337
C227	C	0.620449	-0.245288	0.880870
C228	C	1.120449	0.254712	1.380870
O229	O	0.595993	-0.269708	0.905126
O230	O	1.095993	0.230292	1.405126
C231	C	0.620424	-0.245324	0.693198
C232	C	1.120424	0.254676	1.193198
C233	C	0.649179	-0.216610	0.669746
C234	C	1.149179	0.283390	1.169746
C235	C	0.706687	-0.159175	0.669757
C236	C	1.206687	0.340825	1.169757
C237	C	0.706683	-0.159187	0.622841
C238	C	1.206683	0.340813	1.122841
C239	C	0.677927	-0.187910	0.599378
C240	C	1.177927	0.312090	1.099378
C241	C	0.649175	-0.216622	0.622830
C242	C	1.149175	0.283378	1.122830
C243	C	0.591663	-0.274045	0.669732
C244	C	1.091663	0.225955	1.169732
C245	C	0.591659	-0.274051	0.622811
C246	C	1.091659	0.225949	1.122811
C247	C	0.620414	-0.245337	0.599359
C248	C	1.120414	0.254663	1.099359
C249	C	0.620415	-0.245356	0.552451
C250	C	1.120415	0.254644	1.052451
N251	N	0.649164	-0.216642	0.528997
N252	N	1.149164	0.283358	1.028997
C253	C	0.677920	-0.187918	0.552460
C254	C	1.177920	0.312082	1.052460
C255	C	0.620464	-0.245268	0.979401
C256	C	1.120464	0.254732	1.479401
C257	C	0.620471	-0.245260	1.026319
C258	C	1.120471	0.254740	1.526319
C259	C	0.677979	-0.187820	1.026327
C260	C	1.177979	0.312180	1.526327
C261	C	0.677974	-0.187830	0.979409
C262	C	1.177974	0.312170	1.479409
C263	C	0.649213	-0.216553	0.955946
C264	C	1.149213	0.283447	1.455946
C265	C	0.677910	-0.187945	0.453934
C266	C	1.177910	0.312055	0.953934
C267	C	0.677904	-0.187961	0.407015
C268	C	1.177904	0.312039	0.907015
C269	C	0.620395	-0.245399	0.407010
C270	C	1.120395	0.254601	0.907010
C271	C	0.620401	-0.245385	0.453926
C272	C	1.120401	0.254615	0.953926
C273	C	0.649160	-0.216655	0.477386
C274	C	1.149160	0.283345	0.977386
O275	O	0.595982	-0.269782	0.528146
O276	O	1.095982	0.230218	1.028146
O277	O	0.702365	-0.163495	0.528196
O278	O	1.202365	0.336505	1.028196
C279	C	0.677939	-0.187875	0.740124
C280	C	1.177939	0.312125	1.240124
C281	C	0.649187	-0.216587	0.763577
C282	C	1.149187	0.283413	1.263577
C283	C	0.620431	-0.245310	0.740113
C284	C	1.120431	0.254690	1.240113
C285	C	0.649194	-0.216579	0.810494
C286	C	1.149194	0.283421	1.310494
C287	C	0.677950	-0.187856	0.833958
C288	C	1.177950	0.312144	1.333958
C289	C	0.706699	-0.159141	0.810503
C290	C	1.206699	0.340859	1.310503
C291	C	0.706695	-0.159152	0.763588
C292	C	1.206695	0.340848	1.263588
C293	C	0.591682	-0.274025	0.763568
C294	C	1.091682	0.225975	1.263568
C295	C	0.591689	-0.274011	0.810483
C296	C	1.091689	0.225989	1.310483
C297	C	0.620445	-0.245288	0.833947
C298	C	1.120445	0.254712	1.333947
H299	H	0.701220	-0.387692	0.164340
H300	H	1.201220	0.112308	0.664340
H301	H	0.392980	-0.268703	0.164217
H302	H	0.892980	0.231297	0.664217
H303	H	-0.094264	-0.164691	0.268682
H304	H	0.405736	0.335309	0.768682
H305	H	0.036464	-0.135980	0.297458
H306	H	0.536464	0.364020	0.797458
O307	O	0.563785	-0.301976	0.599969
O308	O	1.063785	0.198024	1.099969
C309	C	0.589339	-0.331017	0.572840
C310	C	1.089339	0.168983	1.072840
H311	H	0.623397	-0.315188	0.565818
H312	H	1.123397	0.184812	1.065818
H313	H	0.571033	-0.337038	0.539844
H314	H	1.071033	0.162962	1.039844
H315	H	0.594249	-0.364308	0.590920
H316	H	1.094249	0.135692	1.090920
O317	O	0.032641	-0.301914	0.130921
O318	O	0.532641	0.198086	0.630921
C319	C	0.005509	-0.276301	0.101940
C320	C	0.505509	0.223699	0.601940
H321	H	-0.001511	-0.242279	0.117843
H322	H	0.498489	0.257721	0.617843
H323	H	-0.027487	-0.294599	0.095887
H324	H	0.472513	0.205401	0.595887
H325	H	0.023586	-0.271314	0.068657
H326	H	0.523586	0.228686	0.568657
O327	O	0.563686	-0.301950	0.692437
O328	O	1.063686	0.198050	1.192437
C329	C	0.538313	-0.327305	0.661657
C330	C	1.038313	0.172695	1.161657
H331	H	0.536778	-0.308906	0.628216
H332	H	1.036778	0.191094	1.128216
H333	H	0.502911	-0.332075	0.675202
H334	H	1.002911	0.167925	1.175202
H335	H	0.554732	-0.361434	0.656665
H336	H	1.054732	0.138566	1.156665
O337	O	0.592431	-0.273294	0.476640
O338	O	1.092431	0.226706	0.976640
C339	C	0.567060	-0.298659	0.445867
C340	C	1.067060	0.201341	0.945867
H341	H	0.565519	-0.280266	0.412423
H342	H	1.065519	0.219734	0.912423
H343	H	0.531660	-0.303433	0.459416
H344	H	1.031660	0.196567	0.959416
H345	H	0.583485	-0.332787	0.440880
H346	H	1.083485	0.167213	0.940880
H347	H	0.701388	-0.164449	0.960317
H348	H	1.201388	0.335551	1.460317
O349	O	0.592527	-0.273320	0.384159
O350	O	1.092527	0.226680	0.884159
C351	C	0.618084	-0.302356	0.357028
C352	C	1.118084	0.197644	0.857028
H353	H	0.652144	-0.286527	0.350016
H354	H	1.152144	0.213473	0.850016
H355	H	0.599784	-0.308368	0.324028
H356	H	1.099784	0.191632	0.824028
H357	H	0.622990	-0.335651	0.375101
H358	H	1.122990	0.164349	0.875101
O359	O	0.481761	-0.160034	0.273192
O360	O	0.981761	0.339966	0.773192
C361	C	0.451012	-0.134728	0.298612
C362	C	0.951012	0.365272	0.798612
H363	H	0.417561	-0.133144	0.280219
H364	H	0.917561	0.366856	0.780219
H365	H	0.464581	-0.099338	0.303472
H366	H	0.964581	0.400662	0.803472
H367	H	0.446029	-0.151236	0.332701
H368	H	0.946029	0.348764	0.832701
O369	O	0.734668	-0.131319	0.740786
O370	O	1.234668	0.368681	1.240786
C371	C	0.763657	-0.156904	0.713634
C372	C	1.263657	0.343096	1.213634
H373	H	0.766414	-0.192286	0.727766
H374	H	1.266414	0.307714	1.227766
H375	H	0.798240	-0.140662	0.713108
H376	H	1.298240	0.359338	1.213108
H377	H	0.749760	-0.158451	0.678075
H378	H	1.249760	0.341549	1.178075
H379	H	0.597076	-0.960121	0.268559
H380	H	1.097076	-0.460121	0.768559
O381	O	0.173544	-0.131498	0.302043
O382	O	0.673544	0.368502	0.802043
C383	C	0.185033	-0.141376	0.346798
C384	C	0.685033	0.358624	0.846798
H385	H	0.197920	-0.177268	0.348998
H386	H	0.697920	0.322732	0.848998
H387	H	0.154188	-0.137542	0.369006
H388	H	0.654188	0.362458	0.869006
H389	H	0.212279	-0.117306	0.358579
H390	H	0.712279	0.382694	0.858579
O391	O	-0.183108	-0.160262	0.273222
O392	O	0.316892	0.339738	0.773222
C393	C	-0.210238	-0.185887	0.302201
C394	C	0.289762	0.314113	0.802201
H395	H	-0.217280	-0.219910	0.286295
H396	H	0.282720	0.280090	0.786295
H397	H	-0.243223	-0.167601	0.308258
H398	H	0.256777	0.332399	0.808258
H399	H	-0.192147	-0.190872	0.335483
H400	H	0.307853	0.309128	0.835483
H401	H	0.730097	-0.135805	0.603751
H402	H	1.230097	0.364195	1.103751
H403	H	0.121569	-0.135965	0.297456
H404	H	0.621569	0.364035	0.797456
O405	O	0.266035	-0.131501	0.302022
O406	O	0.766035	0.368499	0.802022
C407	C	0.293183	-0.157122	0.330979
C408	C	0.793183	0.342878	0.830979
H409	H	0.279032	-0.192510	0.333690
H410	H	0.779032	0.307490	0.833690
H411	H	0.293734	-0.140927	0.365583
H412	H	0.793734	0.359073	0.865583
H413	H	0.328736	-0.158647	0.317081
H414	H	0.828736	0.341353	0.817081
O415	O	0.734654	-0.740633	0.131153
O416	O	1.234654	-0.240633	0.631153
C417	C	0.760028	-0.771399	0.105817
C418	C	1.260028	-0.271399	0.605817
H419	H	0.761575	-0.804833	0.124227
H420	H	1.261575	-0.304833	0.624227
H421	H	0.795425	-0.757826	0.101055
H422	H	1.295425	-0.257826	0.601055
H423	H	0.743602	-0.776416	0.071683
H424	H	1.243602	-0.276416	0.571683
H425	H	0.597044	-0.268660	0.960302
H426	H	1.097044	0.231340	1.460302
O427	O	0.734568	-0.131189	0.833319
O428	O	1.234568	0.368811	1.333319
C429	C	0.709011	-0.102168	0.860466
C430	C	1.209011	0.397832	1.360466
H431	H	0.673630	-0.099384	0.846318
H432	H	1.173630	0.400616	1.346318
H433	H	0.725284	-0.067600	0.861008
H434	H	1.225284	0.432400	1.361008
H435	H	0.707452	-0.116053	0.896021
H436	H	1.207452	0.383947	1.396021
O437	O	0.563712	-0.301921	0.833193
O438	O	1.063712	0.198079	1.333193
C439	C	0.538340	-0.327280	0.802417
C440	C	1.038340	0.172720	1.302417
H441	H	0.536803	-0.308885	0.768973
H442	H	1.036803	0.191115	1.268973
H443	H	0.502939	-0.332051	0.815963
H444	H	1.002939	0.167949	1.315963
H445	H	0.554761	-0.361409	0.797427
H446	H	1.054761	0.138591	1.297427
O447	O	0.705867	-0.159928	1.049193
O448	O	1.205867	0.340072	1.549193
C449	C	0.699709	-0.166088	1.095632
C450	C	1.199709	0.333912	1.595632
H451	H	0.665031	-0.180795	1.102029
H452	H	1.165031	0.319205	1.602029
H453	H	0.702774	-0.132435	1.113470
H454	H	1.202774	0.367565	1.613470
H455	H	0.726343	-0.190014	1.108949
H456	H	1.226343	0.309986	1.608949
H457	H	0.568265	-0.297416	0.744469
H458	H	1.068265	0.202584	1.244469
H459	H	0.568229	-0.603544	0.297240
H460	H	1.068229	-0.103544	0.797240
O461	O	0.705962	-0.956466	0.159870
O462	O	1.205962	-0.456466	0.659870
C463	C	0.731334	-0.987230	0.134531
C464	C	1.231334	-0.487230	0.634531
H465	H	0.732883	-1.020666	0.152938
H466	H	1.232883	-0.520666	0.652938
H467	H	0.766732	-0.973657	0.129768
H468	H	1.266732	-0.473657	0.629768
H469	H	0.714907	-0.992245	0.100397
H470	H	1.214907	-0.492245	0.600397
O471	O	0.481754	-0.273252	0.159736
O472	O	0.981754	0.226748	0.659736
C473	C	0.470272	-0.318042	0.169470
C474	C	0.970272	0.181958	0.669470
H475	H	0.457387	-0.320364	0.205358
H476	H	0.957387	0.179636	0.705358
H477	H	0.501120	-0.340228	0.165556
H478	H	1.001120	0.159772	0.665556
H479	H	0.443026	-0.329753	0.145367
H480	H	0.943026	0.170247	0.645367
O481	O	0.592500	-0.273170	1.049028
O482	O	1.092500	0.226830	1.549028
C483	C	0.567127	-0.298528	1.018252
C484	C	1.067127	0.201472	1.518252
H485	H	0.565585	-0.280130	0.984810
H486	H	1.065585	0.219870	1.484810
H487	H	0.531727	-0.303304	1.031801
H488	H	1.031727	0.196696	1.531801
H489	H	0.583551	-0.332656	1.013258
H490	H	1.083551	0.167344	1.513258
O491	O	0.592567	-1.048850	0.273114
O492	O	1.092567	-0.548850	0.773114
C493	C	0.567177	-1.018086	0.298436
C494	C	1.067177	-0.518086	0.798436
H495	H	0.585571	-0.984630	0.300002
H496	H	1.085571	-0.484630	0.800002
H497	H	0.562363	-1.031628	0.333830
H498	H	1.062363	-0.531628	0.833830
H499	H	0.533068	-1.013124	0.281953
H500	H	1.033068	-0.513124	0.781953
O501	O	-0.090682	-0.273343	0.159700
O502	O	0.409318	0.226657	0.659700
C503	C	-0.121462	-0.298660	0.134289
C504	C	0.378538	0.201340	0.634289
H505	H	-0.154904	-0.300242	0.152686
H506	H	0.345096	0.199758	0.652686
H507	H	-0.107919	-0.334049	0.129438
H508	H	0.392081	0.165951	0.629438
H509	H	-0.126451	-0.282162	0.100197
H510	H	0.373549	0.217838	0.600197
H511	H	0.121490	-0.297452	0.135456
H512	H	0.621490	0.202548	0.635456
O513	O	-0.183130	-0.273364	0.159782
O514	O	0.316870	0.226636	0.659782
C515	C	-0.210276	-0.302410	0.185315
C516	C	0.289724	0.197590	0.685315
H517	H	-0.196124	-0.305232	0.220691
H518	H	0.303876	0.194768	0.720691
H519	H	-0.210825	-0.336962	0.169009
H520	H	0.289175	0.163038	0.669009
H521	H	-0.245830	-0.288525	0.186892
H522	H	0.254170	0.211475	0.686892
H523	H	0.393023	-0.164594	0.268656
H524	H	0.893023	0.335406	0.768656
O525	O	0.173399	-0.301876	0.130910
O526	O	0.673399	0.198124	0.630910
C527	C	0.146268	-0.276261	0.101930
C528	C	0.646268	0.223739	0.601930
H529	H	0.139247	-0.242241	0.117837
H530	H	0.639247	0.257759	0.617837
H531	H	0.113272	-0.294558	0.095874
H532	H	0.613272	0.205442	0.595874
H533	H	0.164347	-0.271270	0.068648
H534	H	0.664347	0.228730	0.568648
H535	H	0.701258	-0.472801	0.164352
H536	H	1.201258	0.027199	0.664352
O537	O	0.265863	-0.301967	0.130915
O538	O	0.765863	0.198033	0.630915
C539	C	0.235080	-0.327284	0.105508
C540	C	0.735080	0.172716	0.605508
H541	H	0.201640	-0.328866	0.123909
H542	H	0.701640	0.171134	0.623909
H543	H	0.248622	-0.362673	0.100656
H544	H	0.748622	0.137327	0.600656
H545	H	0.230087	-0.310786	0.071416
H546	H	0.730087	0.189214	0.571416
O547	O	0.734609	-0.599887	0.131138
O548	O	1.234609	-0.099887	0.631138
C549	C	0.759984	-0.630653	0.105804
C550	C	1.259984	-0.130653	0.605804
H551	H	0.761528	-0.664088	0.124212
H552	H	1.261528	-0.164088	0.624212
H553	H	0.795383	-0.617081	0.101047
H554	H	1.295383	-0.117081	0.601047
H555	H	0.743562	-0.635667	0.071668
H556	H	1.243562	-0.135667	0.571668
O557	O	0.705960	-1.048961	0.159965
O558	O	1.205960	-0.548961	0.659965
C559	C	0.699810	-1.095403	0.166134
C560	C	1.199810	-0.595403	0.666134
H561	H	0.685033	-1.101792	0.200777
H562	H	1.185033	-0.601792	0.700777
H563	H	0.733478	-1.113203	0.163171
H564	H	1.233478	-0.613203	0.663171
H565	H	0.675946	-1.108767	0.139444
H566	H	1.175946	-0.608767	0.639444
O567	O	0.734544	-0.692363	0.131163
O568	O	1.234544	-0.192363	0.631163
C569	C	0.709019	-0.719540	0.102113
C570	C	1.209019	-0.219540	0.602113
H571	H	0.674952	-0.726578	0.117904
H572	H	1.174952	-0.226578	0.617904
H573	H	0.727338	-0.752525	0.096145
H574	H	1.227338	-0.252525	0.596145
H575	H	0.704126	-0.701493	0.068801
H576	H	1.204126	-0.201493	0.568801
O577	O	0.563721	-0.692273	0.301802
O578	O	1.063721	-0.192273	0.801802
C579	C	0.538335	-0.661505	0.327123
C580	C	1.038335	-0.161505	0.827123
H581	H	0.556729	-0.628049	0.328684
H582	H	1.056729	-0.128049	0.828684
H583	H	0.533524	-0.675043	0.362520
H584	H	1.033524	-0.175043	0.862520
H585	H	0.504223	-0.656544	0.310643
H586	H	1.004223	-0.156544	0.810643
O587	O	0.592392	-0.476463	0.273063
O588	O	1.092392	0.023537	0.773063
C589	C	0.566997	-0.445702	0.298384
C590	C	1.066997	0.054298	0.798384
H591	H	0.585384	-0.412242	0.299948
H592	H	1.085384	0.087758	0.799948
H593	H	0.562188	-0.459242	0.333780
H594	H	1.062188	0.040758	0.833780
H595	H	0.532886	-0.440748	0.281903
H596	H	1.032886	0.059252	0.781903
O597	O	0.592444	-0.384013	0.273059
O598	O	1.092444	0.115987	0.773059
C599	C	0.618001	-0.356838	0.302082
C600	C	1.118001	0.143162	0.802082
H601	H	0.653384	-0.370958	0.304887
H602	H	1.153384	0.129042	0.804887
H603	H	0.601733	-0.356295	0.336643
H604	H	1.101733	0.143705	0.836643
H605	H	0.619552	-0.321286	0.288185
H606	H	1.119552	0.178714	0.788185
H607	H	0.730117	-0.829371	0.135689
H608	H	1.230117	-0.329371	0.635689
H609	H	0.568292	-0.829408	0.297251
H610	H	1.068292	-0.329408	0.797251
H611	H	0.568268	-0.744302	0.297242
H612	H	1.068268	-0.244302	0.797242
O613	O	0.705789	-0.159999	0.384256
O614	O	1.205789	0.340001	0.884256
C615	C	0.696011	-0.115220	0.395737
C616	C	1.196011	0.384780	0.895737
H617	H	0.660122	-0.112938	0.408627
H618	H	1.160122	0.387062	0.908627
H619	H	0.699897	-0.093029	0.364887
H620	H	1.199897	0.406971	0.864887
H621	H	0.720105	-0.103482	0.422978
H622	H	1.220105	0.396518	0.922978
O623	O	0.705869	-0.160101	0.476769
O624	O	1.205869	0.339899	0.976769
C625	C	0.734877	-0.185683	0.503901
C626	C	1.234877	0.314317	1.003901
H627	H	0.719004	-0.219719	0.510931
H628	H	1.219004	0.280281	1.010931
H629	H	0.740920	-0.167376	0.536893
H630	H	1.240920	0.332624	1.036893
H631	H	0.768161	-0.190641	0.485818
H632	H	1.268161	0.309359	0.985818
O633	O	0.734666	-0.131258	0.692475
O634	O	1.234666	0.368742	1.192475
C635	C	0.760029	-0.105914	0.661705
C636	C	1.260029	0.394086	1.161705
H637	H	0.761557	-0.124326	0.628260
H638	H	1.261557	0.375674	1.128260
H639	H	0.795434	-0.101136	0.675257
H640	H	1.295434	0.398864	1.175257
H641	H	0.743607	-0.071787	0.656718
H642	H	1.243607	0.428213	1.156718
