data_functionalizedCrystal
_audit_creation_method	'MofGen! by Chris Wilmer'
_symmetry_space_group_name_H-M	'P1'
_symmetry_Int_Tables_number	1
_symmetry_cell_setting	triclinic
loop_
_symmetry_equiv_pos_as_xyz
  x,y,z
_cell_length_a	18.101398
_cell_length_b	18.101395
_cell_length_c	18.101389
_cell_angle_alpha	89.983159
_cell_angle_beta	89.975673
_cell_angle_gamma	90.026371
loop_
_atom_site_label
_atom_site_type_symbol
_atom_site_fract_x
_atom_site_fract_y
_atom_site_fract_z
Zn1	Zn	1.132121	-0.295001	-0.418847
Zn2	Zn	1.465454	0.038333	-0.085514
Zn3	Zn	1.798788	0.371666	0.247820
Zn4	Zn	1.132017	-0.418826	-0.295009
Zn5	Zn	1.465350	-0.085493	0.038325
Zn6	Zn	1.798684	0.247840	0.371658
Zn7	Zn	1.008280	-0.294993	-0.295008
Zn8	Zn	1.341613	0.038340	0.038325
Zn9	Zn	1.674947	0.371674	0.371659
Zn10	Zn	1.008231	-0.418795	-0.418797
Zn11	Zn	1.341564	-0.085461	-0.085464
Zn12	Zn	1.674897	0.247872	0.247869
O13	O	1.070162	-0.356904	-0.356915
O14	O	1.403495	-0.023570	-0.023582
O15	O	1.736829	0.309763	0.309751
O16	O	1.235740	-0.311443	-0.402440
O17	O	1.569073	0.021890	-0.069107
O18	O	1.902407	0.355224	0.264226
O19	O	1.115580	-0.402410	-0.191376
O20	O	1.448913	-0.069076	0.141958
O21	O	1.782247	0.264257	0.475291
O22	O	1.024772	-0.191361	-0.311456
O23	O	1.358105	0.141972	0.021877
O24	O	1.691439	0.475305	0.355211
O25	O	1.235664	-0.402417	-0.311457
O26	O	1.568997	-0.069084	0.021876
O27	O	1.902330	0.264249	0.355210
O28	O	1.115757	-0.191367	-0.402440
O29	O	1.449091	0.141966	-0.069106
O30	O	1.782424	0.475300	0.264227
O31	O	1.024671	-0.311430	-0.191375
O32	O	1.358004	0.021903	0.141958
O33	O	1.691338	0.355237	0.475292
O34	O	0.904641	-0.311399	-0.311408
O35	O	1.237974	0.021934	0.021925
O36	O	1.571307	0.355268	0.355259
O37	O	1.024688	-0.402363	-0.522437
O38	O	1.358021	-0.069030	-0.189103
O39	O	1.691355	0.264303	0.144230
O40	O	0.904604	-0.402356	-0.402355
O41	O	1.237938	-0.069022	-0.069022
O42	O	1.571271	0.264311	0.264311
O43	O	1.115710	-0.311412	-0.522473
O44	O	1.449043	0.021921	-0.189140
O45	O	1.782376	0.355254	0.144193
O46	O	1.115532	-0.522455	-0.311409
O47	O	1.448866	-0.189122	0.021924
O48	O	1.782199	0.144212	0.355258
O49	O	1.024587	-0.522432	-0.402356
O50	O	1.357920	-0.189099	-0.069023
O51	O	1.691254	0.144235	0.264311
C52	C	0.877752	-0.356874	-0.356877
C53	C	1.211085	-0.023540	-0.023543
C54	C	1.544418	0.309793	0.309790
C55	C	0.795437	-0.356879	-0.356878
C56	C	1.128771	-0.023545	-0.023544
C57	C	1.462104	0.309788	0.309789
C58	C	0.496347	-0.356925	-0.356940
C59	C	0.829680	-0.023592	-0.023606
C60	C	1.163013	0.309742	0.309727
C61	C	0.527670	-0.299412	-0.299997
C62	C	0.861003	0.033922	0.033336
C63	C	1.194336	0.367255	0.366669
C64	C	0.613288	-0.299566	-0.299754
C65	C	0.946621	0.033768	0.033579
C66	C	1.279955	0.367101	0.366912
C67	C	0.644729	-0.356901	-0.356909
C68	C	0.978062	-0.023568	-0.023576
C69	C	1.311396	0.309765	0.309758
C70	C	0.613611	-0.434909	-0.335587
C71	C	0.946944	-0.101576	-0.002253
C72	C	1.280278	0.231757	0.331080
C73	C	0.527966	-0.434590	-0.335191
C74	C	0.861299	-0.101256	-0.001857
C75	C	1.194632	0.232077	0.331476
C76	C	0.527961	-0.337109	-0.435339
C77	C	0.861294	-0.003775	-0.102005
C78	C	1.194628	0.329558	0.231328
C79	C	0.613612	-0.335371	-0.434911
C80	C	0.946945	-0.002038	-0.101577
C81	C	1.280279	0.331295	0.231756
C82	C	0.728589	-0.356893	-0.356893
C83	C	1.061922	-0.023559	-0.023559
C84	C	1.395255	0.309774	0.309774
C85	C	0.412487	-0.356939	-0.356954
C86	C	0.745820	-0.023605	-0.023621
C87	C	1.079154	0.309728	0.309712
C88	C	1.070063	-0.549314	-0.356893
C89	C	1.403396	-0.215981	-0.023560
C90	C	1.736730	0.117352	0.309773
C91	C	1.070088	-0.631628	-0.356909
C92	C	1.403422	-0.298295	-0.023576
C93	C	1.736755	0.035038	0.309758
C94	C	1.070251	-0.930719	-0.356949
C95	C	1.403584	-0.597386	-0.023615
C96	C	1.736918	-0.264053	0.309718
C97	C	1.013163	-0.899410	-0.414312
C98	C	1.346497	-0.566077	-0.080979
C99	C	1.679830	-0.232744	0.252354
C100	C	1.012892	-0.813792	-0.414133
C101	C	1.346225	-0.480459	-0.080799
C102	C	1.679559	-0.147126	0.252534
C103	C	1.070170	-0.782337	-0.356930
C104	C	1.403504	-0.449003	-0.023596
C105	C	1.736837	-0.115670	0.309737
C106	C	1.049041	-0.813472	-0.278878
C107	C	1.382374	-0.480139	0.054455
C108	C	1.715708	-0.146806	0.387789
C109	C	1.048673	-0.899117	-0.279221
C110	C	1.382006	-0.565784	0.054112
C111	C	1.715340	-0.232451	0.387445
C112	C	1.148593	-0.899073	-0.376950
C113	C	1.481926	-0.565740	-0.043617
C114	C	1.815259	-0.232407	0.289717
C115	C	1.148132	-0.813422	-0.378661
C116	C	1.481465	-0.480089	-0.045328
C117	C	1.814799	-0.146756	0.288005
C118	C	1.070126	-0.698477	-0.356914
C119	C	1.403459	-0.365144	-0.023581
C120	C	1.736793	-0.031811	0.309753
C121	C	1.070293	-1.014579	-0.356959
C122	C	1.403627	-0.681245	-0.023626
C123	C	1.736960	-0.347912	0.309707
C124	C	1.263324	-0.356934	-0.356954
C125	C	1.596657	-0.023601	-0.023621
C126	C	1.929991	0.309732	0.309712
C127	C	1.345638	-0.356948	-0.356971
C128	C	1.678971	-0.023614	-0.023638
C129	C	2.012305	0.309719	0.309696
C130	C	1.070205	-0.356885	-0.550077
C131	C	1.403538	-0.023552	-0.216744
C132	C	1.736872	0.309782	0.116589
C133	C	1.070223	-0.356877	-0.632391
C134	C	1.403556	-0.023544	-0.299058
C135	C	1.736890	0.309790	0.034275
C136	C	1.070282	-0.163742	-0.356953
C137	C	1.403615	0.169591	-0.023620
C138	C	1.736948	0.502925	0.309713
C139	C	1.070333	-0.081428	-0.356970
C140	C	1.403666	0.251906	-0.023636
C141	C	1.736999	0.585239	0.309697
C142	C	1.070266	-0.356738	-0.931482
C143	C	1.403600	-0.023405	-0.598149
C144	C	1.736933	0.309928	-0.264816
C145	C	1.012801	-0.413780	-0.900134
C146	C	1.346134	-0.080447	-0.566801
C147	C	1.679467	0.252887	-0.233468
C148	C	1.012956	-0.414045	-0.814516
C149	C	1.346289	-0.080711	-0.481183
C150	C	1.679623	0.252622	-0.147849
C151	C	1.070244	-0.356807	-0.783100
C152	C	1.403578	-0.023474	-0.449767
C153	C	1.736911	0.309860	-0.116433
C154	C	1.148270	-0.377998	-0.814206
C155	C	1.481603	-0.044664	-0.480873
C156	C	1.814936	0.288669	-0.147539
C157	C	1.147949	-0.378372	-0.899851
C158	C	1.481283	-0.045039	-0.566518
C159	C	1.814616	0.288295	-0.233184
C160	C	1.050385	-0.278379	-0.899905
C161	C	1.383718	0.054954	-0.566571
C162	C	1.717052	0.388288	-0.233238
C163	C	1.048649	-0.278832	-0.814254
C164	C	1.381982	0.054502	-0.480920
C165	C	1.715315	0.387835	-0.147587
C166	C	1.070237	-0.356845	-0.699240
C167	C	1.403570	-0.023511	-0.365907
C168	C	1.736903	0.309822	-0.032574
C169	C	1.070279	-0.356702	-1.015342
C170	C	1.403613	-0.023369	-0.682009
C171	C	1.736946	0.309964	-0.348675
C172	C	1.070162	-0.356869	-0.164505
C173	C	1.403495	-0.023536	0.168829
C174	C	1.736829	0.309798	0.502162
C175	C	1.070287	-0.356668	-0.082191
C176	C	1.403621	-0.023335	0.251142
C177	C	1.736954	0.309998	0.584476
H178	H	0.507705	-0.378999	-0.477766
H179	H	0.841038	-0.045666	-0.144433
H180	H	1.174371	0.287667	0.188900
H181	H	0.507954	-0.451397	-0.277877
H182	H	0.841287	-0.118063	0.055456
H183	H	1.174621	0.215270	0.388789
N184	N	0.935930	-0.396388	-0.927400
N185	N	1.269263	-0.063054	-0.594067
N186	N	1.602596	0.270279	-0.260734
H187	H	0.916139	-0.439817	-0.956297
H188	H	1.249472	-0.106484	-0.622964
H189	H	1.582805	0.226850	-0.289631
H190	H	0.902590	-0.386307	-0.883805
H191	H	1.235923	-0.052974	-0.550472
H192	H	1.569256	0.280360	-0.217139
H193	H	0.633975	-0.478909	-0.375763
H194	H	0.967309	-0.145575	-0.042430
H195	H	1.300642	0.187758	0.290904
N196	N	0.500502	-0.493279	-0.387716
N197	N	0.833836	-0.159945	-0.054382
N198	N	1.167169	0.173388	0.278951
H199	H	0.469521	-0.469565	-0.427589
H200	H	0.802855	-0.136231	-0.094256
H201	H	1.136188	0.197102	0.239077
H202	H	0.544070	-0.519228	-0.410974
H203	H	0.877404	-0.185895	-0.077641
H204	H	1.210737	0.147438	0.255693
N205	N	0.972595	-0.257655	-0.787315
N206	N	1.305928	0.075678	-0.453982
N207	N	1.639262	0.409011	-0.120649
H208	H	0.959012	-0.207457	-0.807530
H209	H	1.292345	0.125876	-0.474197
H210	H	1.625678	0.459210	-0.140863
H211	H	0.935482	-0.295464	-0.804824
H212	H	1.268816	0.037869	-0.471491
H213	H	1.602149	0.371203	-0.138157
H214	H	1.025796	-0.471508	-0.921661
H215	H	1.359130	-0.138174	-0.588328
H216	H	1.692463	0.195159	-0.254995
N217	N	1.030338	-0.490979	-0.787378
N218	N	1.363671	-0.157646	-0.454044
N219	N	1.697005	0.175687	-0.120711
H220	H	1.037937	-0.524852	-0.831051
H221	H	1.371271	-0.191518	-0.497718
H222	H	1.704604	0.141815	-0.164385
H223	H	1.076778	-0.489715	-0.756498
H224	H	1.410111	-0.156382	-0.423165
H225	H	1.743445	0.176952	-0.089832
H226	H	1.164804	-0.435654	-0.919836
H227	H	1.498137	-0.102320	-0.586503
H228	H	1.831471	0.231013	-0.253169
N229	N	1.206594	-0.325743	-0.927331
N230	N	1.539927	0.007590	-0.593997
N231	N	1.873261	0.340923	-0.260664
H232	H	1.232541	-0.302405	-0.883806
H233	H	1.565874	0.030928	-0.550473
H234	H	1.899207	0.364262	-0.217140
H235	H	1.243638	-0.353721	-0.958274
H236	H	1.576971	-0.020388	-0.624941
H237	H	1.910305	0.312945	-0.291608
N238	N	1.206512	-0.324692	-0.787270
N239	N	1.539845	0.008642	-0.453936
N240	N	1.873178	0.341975	-0.120603
H241	H	1.182822	-0.286203	-0.754563
H242	H	1.516155	0.047131	-0.421229
H243	H	1.849489	0.380464	-0.087896
H244	H	1.245159	-0.352541	-0.758247
H245	H	1.578493	-0.019208	-0.424914
H246	H	1.911826	0.314126	-0.091581
H247	H	1.165415	-0.434671	-0.792765
H248	H	1.498749	-0.101337	-0.459432
H249	H	1.832082	0.231996	-0.126099
N250	N	1.100046	-0.219545	-0.785931
N251	N	1.433379	0.113788	-0.452598
N252	N	1.766712	0.447122	-0.119265
H253	H	1.125598	-0.194878	-0.828989
H254	H	1.458932	0.138456	-0.495656
H255	H	1.792265	0.471789	-0.162322
H256	H	1.070701	-0.181590	-0.757464
H257	H	1.404034	0.151743	-0.424130
H258	H	1.737367	0.485077	-0.090797
H259	H	1.026252	-0.919970	-0.472374
H260	H	1.359585	-0.586636	-0.139040
H261	H	1.692918	-0.253303	0.194293
N262	N	0.976330	-0.252802	-0.928492
N263	N	1.309664	0.080531	-0.595158
N264	N	1.642997	0.413864	-0.261825
H265	H	0.954918	-0.291756	-0.962207
H266	H	1.288251	0.041577	-0.628874
H267	H	1.621585	0.374911	-0.295541
H268	H	0.941749	-0.244340	-0.885523
H269	H	1.275082	0.088993	-0.552190
H270	H	1.608415	0.422326	-0.218856
N271	N	0.499406	-0.263054	-0.460985
N272	N	0.832739	0.070279	-0.127652
N273	N	1.166073	0.403612	0.205682
H274	H	0.542352	-0.228436	-0.469486
H275	H	0.875686	0.104897	-0.136153
H276	H	1.209019	0.438231	0.197180
H277	H	0.471043	-0.269547	-0.508580
H278	H	0.804376	0.063786	-0.175246
H279	H	1.137709	0.397120	0.158087
H280	H	1.026111	-0.792740	-0.472007
H281	H	1.359445	-0.459407	-0.138674
H282	H	1.692778	-0.126073	0.194660
H283	H	0.955448	-0.920990	-0.401230
H284	H	1.288781	-0.587656	-0.067896
H285	H	1.622114	-0.254323	0.265437
H286	H	0.633956	-0.277966	-0.450989
H287	H	0.967289	0.055367	-0.117655
H288	H	1.300623	0.388701	0.215678
H289	H	0.635017	-0.374209	-0.479611
H290	H	0.968350	-0.040876	-0.146277
H291	H	1.301684	0.292457	0.187056
H292	H	1.092240	-0.235880	-0.920179
H293	H	1.425574	0.097453	-0.586846
H294	H	1.758907	0.430787	-0.253513
N295	N	0.641971	-0.457565	-0.260489
N296	N	0.975305	-0.124232	0.072844
N297	N	1.308638	0.209101	0.406177
H298	H	0.674969	-0.417418	-0.240173
H299	H	1.008302	-0.084084	0.093161
H300	H	1.341635	0.249249	0.426494
H301	H	0.598855	-0.465514	-0.225956
H302	H	0.932188	-0.132181	0.107377
H303	H	1.265521	0.201152	0.440710
N304	N	0.641163	-0.222941	-0.317447
N305	N	0.974497	0.110393	0.015886
N306	N	1.307830	0.443726	0.349220
H307	H	0.696960	-0.222895	-0.317320
H308	H	1.030293	0.110438	0.016013
H309	H	1.363626	0.443772	0.349346
H310	H	0.622674	-0.207611	-0.367802
H311	H	0.956007	0.125722	-0.034468
H312	H	1.289341	0.459055	0.298865
N313	N	0.499139	-0.316395	-0.223452
N314	N	0.832472	0.016938	0.109881
N315	N	1.165805	0.350271	0.443214
H316	H	0.470212	-0.272714	-0.204289
H317	H	0.803545	0.060620	0.129045
H318	H	1.136879	0.393953	0.462378
H319	H	0.465993	-0.361247	-0.225437
H320	H	0.799326	-0.027914	0.107896
H321	H	1.132659	0.305419	0.441230
H322	H	0.992380	-0.792080	-0.261633
H323	H	1.325714	-0.458746	0.071701
H324	H	1.659047	-0.125413	0.405034
H325	H	0.633741	-0.312665	-0.241661
H326	H	0.967075	0.020668	0.091672
H327	H	1.300408	0.354002	0.425005
N328	N	0.935977	-0.786721	-0.396577
N329	N	1.269311	-0.453388	-0.063244
N330	N	1.602644	-0.120054	0.270089
H331	H	0.902118	-0.830424	-0.388921
H332	H	1.235451	-0.497090	-0.055588
H333	H	1.568784	-0.163757	0.277745
H334	H	0.937308	-0.755858	-0.350125
H335	H	1.270641	-0.422525	-0.016791
H336	H	1.603975	-0.089191	0.316542
N337	N	1.174116	-0.927629	-0.451054
N338	N	1.507449	-0.594295	-0.117721
N339	N	1.840783	-0.260962	0.215613
H340	H	1.135149	-0.961374	-0.472412
H341	H	1.468482	-0.628041	-0.139078
H342	H	1.801815	-0.294707	0.194255
H343	H	1.182549	-0.884648	-0.485638
H344	H	1.515882	-0.551315	-0.152305
H345	H	1.849216	-0.217981	0.181029
H346	H	0.991406	-0.919153	-0.262279
H347	H	1.324739	-0.585819	0.071054
H348	H	1.658072	-0.252486	0.404387
N349	N	1.169246	-0.786468	-0.454748
N350	N	1.502579	-0.453134	-0.121414
N351	N	1.835913	-0.119801	0.211919
H352	H	1.128487	-0.754252	-0.475061
H353	H	1.461820	-0.420919	-0.141727
H354	H	1.795154	-0.087586	0.191606
H355	H	1.216483	-0.756925	-0.451572
H356	H	1.549816	-0.423592	-0.118238
H357	H	1.883149	-0.090259	0.215095
H358	H	0.507099	-0.241388	-0.313215
H359	H	0.840433	0.091945	0.020118
H360	H	1.173766	0.425278	0.353452
N361	N	1.101355	-0.926561	-0.220677
N362	N	1.434689	-0.593228	0.112656
N363	N	1.768022	-0.259895	0.445990
H364	H	1.124712	-0.883022	-0.194759
H365	H	1.458045	-0.549688	0.138575
H366	H	1.791379	-0.216355	0.471908
H367	H	1.073415	-0.957536	-0.183593
H368	H	1.406748	-0.624203	0.149741
H369	H	1.740081	-0.290870	0.483074
N370	N	1.102381	-0.786489	-0.220714
N371	N	1.435714	-0.453156	0.112619
N372	N	1.769048	-0.119822	0.445953
H373	H	1.140847	-0.753743	-0.244457
H374	H	1.474180	-0.420409	0.088877
H375	H	1.807513	-0.087076	0.422210
H376	H	1.074549	-0.757495	-0.182019
H377	H	1.407882	-0.424162	0.151314
H378	H	1.741215	-0.090829	0.484647
N379	N	1.207459	-0.785054	-0.327361
N380	N	1.540792	-0.451721	0.005973
N381	N	1.874126	-0.118388	0.339306
H382	H	1.184537	-0.751503	-0.289132
H383	H	1.517870	-0.418170	0.044201
H384	H	1.851204	-0.084836	0.377534
H385	H	1.232132	-0.828133	-0.301911
H386	H	1.565465	-0.494799	0.031422
H387	H	1.898798	-0.161466	0.364756
H388	H	1.191125	-0.919319	-0.335170
H389	H	1.524458	-0.585986	-0.001837
H390	H	1.857792	-0.252652	0.331497
N391	N	0.936317	-0.396455	-0.786666
N392	N	1.269651	-0.063122	-0.453333
N393	N	1.602984	0.270212	-0.119999
H394	H	0.900421	-0.434880	-0.805335
H395	H	1.233754	-0.101546	-0.472002
H396	H	1.567088	0.231787	-0.138669
H397	H	0.936326	-0.396574	-0.730871
H398	H	1.269659	-0.063240	-0.397538
H399	H	1.602992	0.270093	-0.064205
