data_functionalizedCrystal
_audit_creation_method	'MofGen! by Chris Wilmer'
_symmetry_space_group_name_H-M	'P1'
_symmetry_Int_Tables_number	1
_symmetry_cell_setting	triclinic
loop_
_symmetry_equiv_pos_as_xyz
  x,y,z
_cell_length_a	11.169417
_cell_length_b	10.685880
_cell_length_c	11.169416
_cell_angle_alpha	94.341270
_cell_angle_beta	90.011027
_cell_angle_gamma	85.606759
loop_
_atom_site_label
_atom_site_type_symbol
_atom_site_fract_x
_atom_site_fract_y
_atom_site_fract_z
Zn1	Zn	1.887001	-0.713403	-0.529708
Zn2	Zn	2.220334	-0.380070	-0.196375
Zn3	Zn	2.553668	-0.046736	0.136959
Zn4	Zn	1.871501	-0.502416	-0.715062
Zn5	Zn	2.204835	-0.169083	-0.381728
Zn6	Zn	2.538168	0.164251	-0.048395
Zn7	Zn	1.670898	-0.502431	-0.514396
Zn8	Zn	2.004231	-0.169097	-0.181062
Zn9	Zn	2.337565	0.164236	0.152271
Zn10	Zn	1.686292	-0.713366	-0.730348
Zn11	Zn	2.019626	-0.380033	-0.397015
Zn12	Zn	2.352959	-0.046700	-0.063681
O13	O	1.778923	-0.607904	-0.622378
O14	O	2.112257	-0.274571	-0.289045
O15	O	2.445590	0.058763	0.044288
O16	O	2.052895	-0.685424	-0.554306
O17	O	2.386229	-0.352091	-0.220973
O18	O	2.719562	-0.018758	0.112360
O19	O	1.831962	-0.325842	-0.675637
O20	O	2.165295	0.007492	-0.342304
O21	O	2.498628	0.340825	-0.008971
O22	O	1.699609	-0.530438	-0.348479
O23	O	2.032942	-0.197105	-0.015145
O24	O	2.366275	0.136229	0.318188
O25	O	2.041508	-0.530413	-0.690485
O26	O	2.374841	-0.197080	-0.357152
O27	O	2.708174	0.136254	-0.023818
O28	O	1.858379	-0.685438	-0.359729
O29	O	2.191712	-0.352105	-0.026395
O30	O	2.525045	-0.018772	0.306938
O31	O	1.684579	-0.325852	-0.528209
O32	O	2.017913	0.007481	-0.194875
O33	O	2.351246	0.340814	0.138458
O34	O	1.504990	-0.530403	-0.543031
O35	O	1.838323	-0.197069	-0.209698
O36	O	2.171657	0.136264	0.123635
O37	O	1.725846	-0.889947	-0.716538
O38	O	2.059179	-0.556614	-0.383205
O39	O	2.392513	-0.223281	-0.049872
O40	O	1.516300	-0.685376	-0.701691
O41	O	1.849633	-0.352043	-0.368357
O42	O	2.182967	-0.018709	-0.035024
O43	O	1.873306	-0.889974	-0.569129
O44	O	2.206639	-0.556641	-0.235795
O45	O	2.539973	-0.223308	0.097538
O46	O	1.846889	-0.530377	-0.885038
O47	O	2.180222	-0.197044	-0.551704
O48	O	2.513555	0.136289	-0.218371
O49	O	1.710817	-0.685362	-0.896268
O50	O	2.044150	-0.352028	-0.562935
O51	O	2.377483	-0.018695	-0.229602
C52	C	1.467097	-0.607888	-0.622359
C53	C	1.800431	-0.274554	-0.289026
C54	C	2.133764	0.058779	0.044308
C55	C	1.333699	-0.607911	-0.622382
C56	C	1.667032	-0.274577	-0.289048
C57	C	2.000366	0.058756	0.044285
C58	C	1.803022	-0.937025	-0.646247
C59	C	2.136355	-0.603692	-0.312913
C60	C	2.469689	-0.270359	0.020420
C61	C	1.813292	-1.077277	-0.656418
C62	C	2.146625	-0.743944	-0.323085
C63	C	2.479958	-0.410610	0.010249
C64	C	2.091967	-0.607921	-0.622399
C65	C	2.425300	-0.274588	-0.289065
C66	C	2.758633	0.058746	0.044268
C67	C	2.225367	-0.607928	-0.622407
C68	C	2.558701	-0.274595	-0.289074
C69	C	2.892034	0.058738	0.044259
C70	C	1.778876	-0.607892	-0.934202
C71	C	2.112209	-0.274558	-0.600869
C72	C	2.445542	0.058775	-0.267535
C73	C	1.778968	-0.607928	-1.067605
C74	C	2.112302	-0.274595	-0.734271
C75	C	2.445635	0.058738	-0.400938
C76	C	1.754987	-0.280063	-0.598516
C77	C	2.088320	0.053270	-0.265183
C78	C	2.421654	0.386604	0.068151
C79	C	1.744950	-0.139812	-0.588007
C80	C	2.078283	0.193521	-0.254673
C81	C	2.411617	0.526855	0.078660
C82	C	1.779006	-0.607944	-0.309339
C83	C	2.112339	-0.274611	0.023994
C84	C	2.445672	0.058723	0.357328
C85	C	1.779041	-0.607961	-0.175940
C86	C	2.112374	-0.274628	0.157393
C87	C	2.445707	0.058706	0.490727
H88	H	1.678574	-1.086054	-0.521658
H89	H	2.011907	-0.752721	-0.188325
H90	H	2.345240	-0.419387	0.145008
H91	H	1.879667	-1.131041	-0.722776
H92	H	2.213001	-0.797708	-0.389443
H93	H	2.546334	-0.464375	-0.056109
