data_functionalizedCrystal
_audit_creation_method	'MofGen! by Chris Wilmer'
_symmetry_space_group_name_H-M	'P1'
_symmetry_Int_Tables_number	1
_symmetry_cell_setting	triclinic
loop_
_symmetry_equiv_pos_as_xyz
  x,y,z
_cell_length_a	14.628931
_cell_length_b	12.478026
_cell_length_c	12.477989
_cell_angle_alpha	84.724577
_cell_angle_beta	55.725640
_cell_angle_gamma	57.041370
loop_
_atom_site_label
_atom_site_type_symbol
_atom_site_fract_x
_atom_site_fract_y
_atom_site_fract_z
Zr1	Zr	1.028693	1.020292	-0.252407
O2	O	1.237864	0.837566	-0.418188
O3	O	0.832327	1.076307	-0.201586
O4	O	1.049625	1.060652	-0.440327
O5	O	0.999590	0.865569	0.008877
O6	O	1.051570	1.236626	-0.457791
O7	O	1.020566	0.853221	-0.179446
O8	O	0.662863	1.264630	-0.030726
O9	O	1.388296	0.837566	-0.418188
O10	O	0.909804	1.231524	-0.192944
O11	O	0.892698	1.109413	-0.039367
O12	O	1.148538	1.090981	-0.320455
O13	O	1.131432	0.968869	-0.166878
Zr14	Zr	0.998340	1.320645	0.020095
Zr15	Zr	1.031795	1.300950	-0.280259
Zr16	Zr	0.995238	1.039986	0.047948
Zr17	Zr	1.268614	1.020291	-0.252406
Zr18	Zr	0.758419	1.320645	0.020095
O19	O	1.194706	1.264629	-0.030725
O20	O	1.242275	1.236626	-0.457791
O21	O	1.190295	0.865569	0.008878
O22	O	0.789169	1.503371	0.185877
O23	O	0.836738	1.475368	-0.241189
O24	O	0.784758	1.104310	0.225480
O25	O	1.027443	1.475367	-0.241188
O26	O	0.977408	1.280284	0.208016
O27	O	0.975463	1.104310	0.225480
O28	O	1.006467	1.487716	-0.052865
O29	O	1.390762	1.060652	-0.440327
O30	O	0.636271	1.280285	0.208016
O31	O	0.638737	1.503371	0.185877
O32	O	0.665329	1.487716	-0.052865
O33	O	1.361704	0.853220	-0.179446
O34	O	1.364170	1.076306	-0.201585
O35	O	0.878495	1.249956	0.088144
O36	O	0.895601	1.372068	-0.065433
O37	O	1.134335	1.231524	-0.192944
O38	O	1.117229	1.109412	-0.039367
C39	C	0.713411	1.170469	-0.116156
C40	C	0.611558	1.170469	-0.116156
C41	C	1.009636	0.819407	-0.081316
C42	C	1.008319	0.700260	-0.069492
C43	C	0.557663	1.109893	-0.039972
C44	C	0.452393	1.109892	-0.039970
C45	C	1.313622	1.170468	-0.116155
C46	C	1.415475	1.170468	-0.116155
C47	C	1.055364	1.145833	-0.491853
C48	C	1.069566	1.137472	-0.619362
C49	C	1.017397	1.521529	-0.150995
C50	C	1.018714	1.640676	-0.162819
C51	C	0.971669	1.195103	0.259542
C52	C	0.957467	1.203464	0.387051
C53	C	0.717292	1.521530	-0.150995
C54	C	0.616756	1.640677	-0.162820
C55	C	0.671564	1.195104	0.259542
C56	C	0.555509	1.203465	0.387050
C57	C	0.675445	1.546165	0.224702
C58	C	0.560706	1.673673	0.340386
C59	C	1.351588	0.794772	-0.457013
C60	C	1.466327	0.667264	-0.572697
C61	C	1.309741	0.819407	-0.081316
C62	C	1.410277	0.700260	-0.069491
C63	C	1.355469	1.145833	-0.491853
C64	C	1.471524	1.137472	-0.619361
C65	C	0.576958	1.623267	-0.234945
C66	C	0.482511	1.735205	-0.246082
C67	C	0.427854	1.864554	-0.185085
C68	C	0.467661	1.881962	-0.112958
C69	C	0.562115	1.770023	-0.101830
C70	C	1.450086	0.717669	0.002621
C71	C	1.544564	0.605728	0.013725
C72	C	1.599224	0.476380	-0.047276
C73	C	1.559412	0.458972	-0.119397
C74	C	1.464943	0.570911	-0.130509
C75	C	0.582814	1.110432	0.456553
C76	C	0.473782	1.118261	0.576352
C77	C	0.337445	1.219129	0.626650
C78	C	0.310142	1.312167	0.557136
C79	C	0.419173	1.304331	0.437334
C80	C	1.607841	1.036594	-0.669620
C81	C	1.716899	1.028734	-0.789415
C82	C	1.689639	1.121747	-0.858955
C83	C	1.553309	1.222635	-0.808686
C84	C	1.444252	1.230500	-0.688887
H85	H	0.589462	1.058027	0.025246
F86	F	0.570015	1.238248	-0.201418
F87	F	0.391850	1.042111	0.045293
H88	H	1.676145	0.385243	-0.038218
F89	F	1.422578	0.552363	-0.207255
F90	F	0.440159	1.716651	-0.322845
F91	F	0.727905	1.003068	0.403044
F92	F	1.031655	0.693143	-0.279082
H93	H	0.350944	1.955690	-0.194155
H94	H	0.496039	1.042496	0.632936
F95	F	0.221417	1.227453	0.754158
H96	H	1.176412	1.074563	-0.722407
H97	H	0.461779	1.222338	-0.181377
F98	F	0.995358	0.647801	0.046787
H99	H	0.396920	1.380098	0.380757
H100	H	0.850628	1.266355	-0.509911
H101	H	1.531132	1.298362	-0.865323
F102	F	1.299177	1.337859	-0.635424
F103	F	0.604452	1.788574	-0.025053
F104	F	1.391932	0.855322	0.067550
F105	F	0.635115	1.485614	-0.299877
F106	F	0.409476	2.019634	-0.048043
H107	H	1.576961	0.619928	0.072458
F108	F	0.165032	1.419514	0.610686
F109	F	1.636885	0.937585	-0.595633
H110	H	0.537784	1.569194	0.489022
F111	F	0.512709	1.805361	0.313093
F112	F	1.617594	0.321300	-0.184309
F113	F	1.805722	1.113359	-0.986456
F114	F	1.861982	0.921349	-0.842896
