data_functionalizedCrystal
_audit_creation_method	'MofGen! by Chris Wilmer'
_symmetry_space_group_name_H-M	'P1'
_symmetry_Int_Tables_number	1
_symmetry_cell_setting	triclinic
loop_
_symmetry_equiv_pos_as_xyz
  x,y,z
_cell_length_a	17.077404
_cell_length_b	11.169416
_cell_length_c	17.077395
_cell_angle_alpha	90.021896
_cell_angle_beta	90.014502
_cell_angle_gamma	90.008119
loop_
_atom_site_label
_atom_site_type_symbol
_atom_site_fract_x
_atom_site_fract_y
_atom_site_fract_z
Zn1	Zn	1.200094	-0.477887	0.443848
Zn2	Zn	1.200039	-0.678594	0.312594
Zn3	Zn	1.068835	-0.477917	0.312598
Zn4	Zn	1.068823	-0.678520	0.443820
O5	O	1.134448	-0.578230	0.378215
O6	O	1.309934	-0.504530	0.426447
O7	O	1.182617	-0.652018	0.202748
O8	O	1.086275	-0.309963	0.330022
O9	O	1.309893	-0.651989	0.330015
O10	O	1.182710	-0.309941	0.426451
O11	O	1.086221	-0.504581	0.202751
O12	O	0.958986	-0.504509	0.329996
O13	O	1.086255	-0.651862	0.553671
O14	O	0.958978	-0.651891	0.426404
O15	O	1.182699	-0.504458	0.553691
O16	O	1.182605	-0.846534	0.329988
O17	O	1.086201	-0.846479	0.426399
C18	C	0.930500	-0.578196	0.378198
C19	C	0.843250	-0.578210	0.378209
C20	C	0.802282	-0.501565	0.428497
C21	C	0.720301	-0.501572	0.428501
C22	C	0.679291	-0.578232	0.378219
C23	C	0.720265	-0.654881	0.327925
C24	C	0.802244	-0.654866	0.327918
C25	C	0.549395	-0.654908	0.327945
C26	C	0.467410	-0.654925	0.327952
C27	C	0.467452	-0.501614	0.428527
C28	C	0.549431	-0.501600	0.428520
C29	C	0.590400	-0.578250	0.378227
C30	C	1.134417	-0.890054	0.378207
C31	C	1.134476	-1.023454	0.378230
C32	C	1.339192	-0.578265	0.378233
C33	C	1.426442	-0.578279	0.378241
C34	C	1.134482	-0.578148	0.582960
C35	C	1.134496	-0.578113	0.670209
C36	C	1.134500	-0.265187	0.378240
C37	C	1.134522	-0.131787	0.378251
C38	C	1.134459	-0.578224	0.174267
C39	C	1.134597	-0.577921	0.087018
C40	C	1.184801	-0.501197	1.046036
C41	C	1.184785	-0.501239	0.964055
C42	C	1.134561	-0.578000	0.923058
C43	C	1.084354	-0.654732	0.964046
C44	C	1.084375	-0.654695	1.046025
C45	C	1.084313	-0.654801	0.793176
C46	C	1.084292	-0.654837	0.711192
C47	C	1.184724	-0.501346	0.711206
C48	C	1.184745	-0.501309	0.793185
C49	C	1.134537	-0.578039	0.834167
H50	H	0.434092	-0.439200	0.469477
O51	O	0.427692	-0.729427	0.279034
C52	C	0.436297	-0.881533	0.179306
C53	C	0.481374	-0.797200	0.234651
H54	H	0.479679	-0.936368	0.143420
H55	H	0.397921	-0.826411	0.138278
H56	H	0.397909	-0.944318	0.215295
H57	H	0.519805	-0.734399	0.198726
H58	H	0.519701	-0.852397	0.275681
O59	O	0.842165	-0.729210	0.279095
C60	C	0.968442	-0.797181	0.234543
C61	C	0.923331	-0.712910	0.289866
H62	H	1.034072	-0.784050	0.243243
H63	H	0.952360	-0.775980	0.171254
H64	H	0.952280	-0.893975	0.248213
H65	H	0.939468	-0.616088	0.276266
H66	H	0.939417	-0.734214	0.353137
H67	H	0.686868	-0.717293	0.286981
H68	H	0.835667	-0.439142	0.469445
O69	O	1.233605	-0.426705	0.832890
C70	C	1.333187	-0.274418	0.824258
C71	C	1.277904	-0.358862	0.779195
H72	H	1.369005	-0.219527	0.780866
H73	H	1.374282	-0.329458	0.862614
H74	H	1.297155	-0.211692	0.862664
H75	H	1.313873	-0.421604	0.740747
H76	H	1.236807	-0.303747	0.740889
H77	H	0.582820	-0.439183	0.469469
O78	O	1.233478	-0.426501	1.085891
C79	C	1.244098	-0.264467	1.178489
C80	C	1.188879	-0.348966	1.133392
H81	H	1.208062	-0.201775	1.216916
H82	H	1.279964	-0.209552	1.135147
H83	H	1.285157	-0.319585	1.216832
H84	H	1.147772	-0.293940	1.095047
H85	H	1.153068	-0.403884	1.176776
O86	O	1.233457	-0.426898	0.671279
C87	C	1.277865	-0.358812	0.544992
C88	C	1.222668	-0.443224	0.590115
H89	H	1.269149	-0.371964	0.479363
H90	H	1.341187	-0.379853	0.561041
H91	H	1.264082	-0.262053	0.561176
H92	H	1.236380	-0.540010	0.573956
H93	H	1.159362	-0.422079	0.574063
H94	H	0.686949	-0.439162	0.469452
H95	H	0.582749	-0.717322	0.286988
O96	O	1.035661	-0.729480	0.924253
C97	C	0.997512	-0.933642	0.899182
C98	C	1.052713	-0.849123	0.944285
H99	H	1.011268	-1.030390	0.915373
H100	H	1.006132	-0.920588	0.833542
H101	H	0.934223	-0.912503	0.915282
H102	H	1.116022	-0.870210	0.928250
H103	H	1.044025	-0.862193	1.009914
O104	O	1.035509	-0.729559	0.671487
C105	C	0.935932	-0.881854	0.680119
C106	C	0.991134	-0.797286	0.725181
H107	H	0.900029	-0.936615	0.723511
H108	H	0.971953	-0.944685	0.641774
H109	H	0.894907	-0.826796	0.641701
H110	H	1.032170	-0.852247	0.763641
H111	H	0.955064	-0.734451	0.763476
O112	O	1.035501	-0.729168	0.833073
C113	C	0.929505	-0.745230	0.925589
C114	C	0.984750	-0.660886	0.880469
H115	H	0.888448	-0.690057	0.963907
H116	H	0.965494	-0.807962	0.964020
H117	H	0.893638	-0.800122	0.882191
H118	H	1.020629	-0.605917	0.923810
H119	H	0.948716	-0.598234	0.842026
H120	H	1.043494	-0.717172	1.079392
H121	H	1.225669	-0.438766	0.930691
