data_functionalizedCrystal
_audit_creation_method	'MofGen! by Chris Wilmer'
_symmetry_space_group_name_H-M	'P1'
_symmetry_Int_Tables_number	1
_symmetry_cell_setting	triclinic
loop_
_symmetry_equiv_pos_as_xyz
  x,y,z
_cell_length_a	12.759401
_cell_length_b	12.594516
_cell_length_c	12.759393
_cell_angle_alpha	90.041627
_cell_angle_beta	89.981433
_cell_angle_gamma	89.980069
loop_
_atom_site_label
_atom_site_type_symbol
_atom_site_fract_x
_atom_site_fract_y
_atom_site_fract_z
Zn1	Zn	1.606210	0.423707	-0.593910
Zn2	Zn	2.106210	0.923707	-0.093910
Zn3	Zn	1.606086	0.601726	-0.418199
Zn4	Zn	2.106086	1.101726	0.081801
Zn5	Zn	1.430512	0.423759	-0.418249
Zn6	Zn	1.930512	0.923759	0.081751
Zn7	Zn	1.430482	0.601641	-0.593840
Zn8	Zn	1.930482	1.101641	-0.093840
O9	O	1.518322	0.512708	-0.506050
O10	O	2.018322	1.012708	-0.006050
O11	O	1.753215	0.447335	-0.570610
O12	O	2.253215	0.947335	-0.070610
O13	O	1.582756	0.578176	-0.271185
O14	O	2.082756	1.078176	0.228815
O15	O	1.453884	0.274806	-0.441601
O16	O	1.953884	0.774806	0.058399
O17	O	1.753123	0.578125	-0.441516
O18	O	2.253123	1.078125	0.058484
O19	O	1.582968	0.274768	-0.570658
O20	O	2.082968	0.774768	-0.070658
O21	O	1.453763	0.447424	-0.271221
O22	O	1.953763	0.947424	0.228779
O23	O	1.283487	0.447341	-0.441533
O24	O	1.783487	0.947341	0.058467
O25	O	1.453832	0.577980	-0.740871
O26	O	1.953832	1.077980	-0.240871
O27	O	1.283465	0.578030	-0.570540
O28	O	1.783465	1.078030	-0.070540
O29	O	1.582939	0.447252	-0.740922
O30	O	2.082939	0.947252	-0.240922
O31	O	1.582726	0.750660	-0.441448
O32	O	2.082726	1.250660	0.058552
O33	O	1.453711	0.750598	-0.570491
O34	O	1.953711	1.250598	-0.070491
C35	C	1.245355	0.512683	-0.506035
C36	C	1.745355	1.012683	-0.006035
C37	C	1.128578	0.512698	-0.506054
C38	C	1.628578	1.012698	-0.006054
C39	C	1.073757	0.444724	-0.573377
C40	C	1.573757	0.944724	-0.073377
C41	C	0.964033	0.444744	-0.573384
C42	C	1.464033	0.944744	-0.073384
C43	C	0.963961	0.580722	-0.438741
C44	C	1.463961	1.080722	0.061259
C45	C	1.073683	0.580695	-0.438730
C46	C	1.573683	1.080695	0.061270
C47	C	1.128652	0.376727	-0.640701
C48	C	1.628652	0.876727	-0.140701
C49	C	1.073831	0.308748	-0.708031
C50	C	1.573831	0.808748	-0.208031
C51	C	0.964107	0.308769	-0.708037
C52	C	1.464107	0.808769	-0.208037
C53	C	0.909204	0.376768	-0.640714
C54	C	1.409204	0.876768	-0.140714
C55	C	1.518231	0.789249	-0.505980
C56	C	2.018231	1.289249	-0.005980
C57	C	1.518287	0.907554	-0.505985
C58	C	2.018287	1.407554	-0.005985
C59	C	1.588570	1.047567	-0.435902
C60	C	2.088570	1.547567	0.064098
C61	C	1.492703	0.976882	-0.410096
C62	C	1.992703	1.476882	0.089904
C63	C	1.614142	0.976668	-0.531743
C64	C	2.114142	1.476668	-0.031743
C65	C	1.422452	1.047655	-0.480192
C66	C	1.922452	1.547655	0.019808
C67	C	1.543955	1.047447	-0.601884
C68	C	2.043955	1.547447	-0.101884
C69	C	1.448023	0.976794	-0.576115
C70	C	1.948023	1.476794	-0.076115
C71	C	1.792356	0.512734	-0.506065
C72	C	2.292356	1.012734	-0.006065
C73	C	1.909132	0.512745	-0.506071
C74	C	2.409132	1.012745	-0.006071
C75	C	1.518396	0.512601	-0.780083
C76	C	2.018396	1.012601	-0.280083
C77	C	1.518427	0.512555	-0.896860
C78	C	2.018427	1.012555	-0.396860
C79	C	1.518411	1.235087	-0.506109
C80	C	2.018411	1.735087	-0.006109
C81	C	1.518368	1.116782	-0.506047
C82	C	2.018368	1.616782	-0.006047
C83	C	1.585663	0.444479	-0.951750
C84	C	2.085663	0.944479	-0.451750
C85	C	1.585688	0.444440	-1.061474
C86	C	2.085688	0.944440	-0.561474
C87	C	1.451239	0.580563	-1.061408
C88	C	1.951239	1.080563	-0.561408
C89	C	1.451210	0.580596	-0.951686
C90	C	1.951210	1.080596	-0.451686
C91	C	1.652880	0.376438	-0.896924
C92	C	2.152880	0.876438	-0.396924
C93	C	1.720122	0.308357	-0.951814
C94	C	2.220122	0.808357	-0.451814
C95	C	1.720147	0.308319	-1.061539
C96	C	2.220147	0.808319	-0.561539
C97	C	1.652930	0.376361	-1.116372
C98	C	2.152930	0.876361	-0.616372
C99	C	1.518310	0.512738	-0.233082
C100	C	2.018310	1.012738	0.266918
C101	C	1.518482	0.512484	-0.116306
C102	C	2.018482	1.012484	0.383694
H103	H	1.118320	0.636046	-0.383909
H104	H	1.618320	1.136046	0.116091
Br105	Br	1.652948	0.376289	-1.265285
Br106	Br	2.152948	0.876289	-0.765285
Br107	Br	1.359956	0.672982	-0.877185
Br108	Br	1.859956	1.172982	-0.377185
H109	H	1.388553	0.945917	-0.635408
H110	H	1.888553	1.445917	-0.135408
H111	H	1.774890	0.252876	-1.106227
H112	H	2.274890	0.752876	-0.606227
Br113	Br	0.889708	0.216504	-0.799400
Br114	Br	1.389708	0.716504	-0.299400
Br115	Br	1.456563	0.925205	-0.274972
Br116	Br	1.956563	1.425205	0.225028
H117	H	1.647897	1.078641	-0.376563
H118	H	2.147897	1.578641	0.123437
Br119	Br	1.287358	1.099396	-0.443767
Br120	Br	1.787358	1.599396	0.056233
Br121	Br	1.360025	0.672902	-1.135825
Br122	Br	1.860025	1.172902	-0.635825
H123	H	1.565666	1.078470	-0.682934
H124	H	2.065666	1.578470	-0.182934
Br125	Br	1.749191	0.924691	-0.568008
Br126	Br	2.249191	1.424691	-0.068008
H127	H	1.652870	0.376464	-0.807581
H128	H	2.152870	0.876464	-0.307581
H129	H	0.919251	0.636085	-0.383931
H130	H	1.419251	1.136085	0.116069
Br131	Br	1.811319	0.215998	-0.877401
Br132	Br	2.311319	0.715998	-0.377401
H133	H	1.118540	0.253380	-0.762836
H134	H	1.618540	0.753380	-0.262836
Br135	Br	1.277563	0.376703	-0.640703
Br136	Br	1.777563	0.876703	-0.140703
H137	H	0.819859	0.376756	-0.640703
H138	H	1.319859	0.876756	-0.140703
