data_functionalizedCrystal
_audit_creation_method	'MofGen! by Chris Wilmer'
_symmetry_space_group_name_H-M	'P1'
_symmetry_Int_Tables_number	1
_symmetry_cell_setting	triclinic
loop_
_symmetry_equiv_pos_as_xyz
  x,y,z
_cell_length_a	8.559649
_cell_length_b	8.559649
_cell_length_c	16.176319
_cell_angle_alpha	89.994559
_cell_angle_beta	89.992115
_cell_angle_gamma	69.778664
loop_
_atom_site_label
_atom_site_type_symbol
_atom_site_fract_x
_atom_site_fract_y
_atom_site_fract_z
O1	O	2.126887	-0.055032	-0.068744
O2	O	1.651402	0.028749	-0.068745
O3	O	1.931036	-0.250884	-0.068743
O4	O	1.847254	0.224601	-0.068745
O5	O	1.931003	-0.250895	0.068750
O6	O	1.651370	0.028738	0.068749
O7	O	2.126855	-0.055043	0.068749
Cu8	Cu	1.889110	-0.013154	0.081303
Cu9	Cu	1.889148	-0.013140	-0.081298
O10	O	1.847222	0.224590	0.068748
C11	C	1.591077	0.035093	0.000002
C12	C	1.411378	0.053992	0.000001
C13	C	1.937369	-0.311198	0.000002
C14	C	1.956268	-0.490898	-0.000003
C15	C	2.187180	-0.061387	0.000001
C16	C	2.366879	-0.080286	-0.000004
C17	C	1.840889	0.284904	0.000001
C18	C	1.821990	0.464604	0.000000
N19	N	1.889095	-0.013166	0.195668
N20	N	1.889177	-0.013142	-0.195664
C21	C	2.012944	-0.136947	0.238933
C22	C	2.012952	-0.136949	0.325480
C23	C	1.889117	-0.013163	0.368761
C24	C	1.765255	0.110624	0.325490
C25	C	1.765242	0.110618	0.238945
C26	C	1.765307	0.110648	0.674518
C27	C	1.765333	0.110646	0.761070
C28	C	2.013018	-0.136920	0.761054
C29	C	2.013004	-0.136926	0.674509
C30	C	1.889138	-0.013144	0.631245
C31	C	1.889129	-0.013145	0.537401
C32	C	1.889132	-0.013155	0.462604
H33	H	1.312000	0.183411	-0.000007
H34	H	2.085696	-0.590286	0.000004
Br35	Br	2.181027	-0.304942	0.180204
H36	H	1.466268	-0.209714	-0.000004
H37	H	1.692570	-0.436018	0.000003
H38	H	2.113799	-0.237741	0.360706
H39	H	2.113847	-0.237719	0.639272
H40	H	2.113872	-0.237714	0.796288
H41	H	1.664419	0.211409	0.360734
H42	H	1.664485	0.211452	0.796308
Br43	Br	1.597212	0.278633	0.615809
H44	H	1.664389	0.211411	0.203719
