data_functionalizedCrystal
_audit_creation_method	'MofGen! by Chris Wilmer'
_symmetry_space_group_name_H-M	'P1'
_symmetry_Int_Tables_number	1
_symmetry_cell_setting	triclinic
loop_
_symmetry_equiv_pos_as_xyz
  x,y,z
_cell_length_a	13.339070
_cell_length_b	16.776229
_cell_length_c	17.699083
_cell_angle_alpha	89.992455
_cell_angle_beta	99.456154
_cell_angle_gamma	89.993203
loop_
_atom_site_label
_atom_site_type_symbol
_atom_site_fract_x
_atom_site_fract_y
_atom_site_fract_z
O1	O	1.341354	-0.066323	0.379243
O2	O	1.841354	0.433677	0.879243
O3	O	1.046949	-0.066318	0.329465
O4	O	1.546949	0.433682	0.829465
O5	O	1.202469	-0.066314	0.245923
O6	O	1.702469	0.433686	0.745923
O7	O	1.185834	-0.066327	0.462785
O8	O	1.685834	0.433673	0.962785
O9	O	1.202449	0.066263	0.245911
O10	O	1.702449	0.566263	0.745911
O11	O	1.046929	0.066259	0.329454
O12	O	1.546929	0.566259	0.829454
O13	O	1.341334	0.066253	0.379231
O14	O	1.841334	0.566253	0.879231
Zn15	Zn	1.194128	0.087305	0.354341
Zn16	Zn	1.694128	0.587305	0.854341
Zn17	Zn	1.194155	-0.087370	0.354356
Zn18	Zn	1.694155	0.412630	0.854356
O19	O	1.185814	0.066249	0.462773
O20	O	1.685814	0.566249	0.962773
C21	C	1.009271	-0.000029	0.321051
C22	C	1.509271	0.499971	0.821051
C23	C	0.897030	-0.000026	0.295987
C24	C	1.397030	0.499974	0.795987
C25	C	1.201863	-0.000025	0.217594
C26	C	1.701863	0.499975	0.717594
C27	C	1.200075	-0.000025	0.133198
C28	C	1.700075	0.499975	0.633198
N29	N	1.194117	0.206517	0.354331
N30	N	1.694117	0.706517	0.854331
C31	C	0.531758	-0.000051	0.490868
C32	C	1.031758	0.499949	0.990868
C33	C	0.637213	-0.000056	0.514418
C34	C	1.137213	0.499944	1.014418
C35	C	0.702173	-0.000048	0.459813
C36	C	1.202173	0.499952	0.959813
C37	C	0.661667	-0.000037	0.381652
C38	C	1.161667	0.499963	0.881652
C39	C	0.556202	-0.000038	0.358099
C40	C	1.056202	0.499962	0.858099
C41	C	0.726616	-0.000035	0.327044
C42	C	1.226616	0.499965	0.827044
C43	C	0.686110	-0.000023	0.248884
C44	C	1.186110	0.499977	0.748884
C45	C	0.580655	-0.000024	0.225335
C46	C	1.080655	0.499976	0.725335
C47	C	0.515696	-0.000032	0.279940
C48	C	1.015696	0.499968	0.779940
C49	C	0.832081	-0.000034	0.350597
C50	C	1.332081	0.499966	0.850597
C51	C	0.856524	-0.000020	0.217829
C52	C	1.356524	0.499980	0.717829
C53	C	0.751070	-0.000016	0.194278
C54	C	1.251070	0.499984	0.694278
C55	C	1.379012	-0.000038	0.387645
C56	C	1.879012	0.499962	0.887645
C57	C	1.491253	-0.000045	0.412709
C58	C	1.991253	0.499955	0.912709
N59	N	1.194174	-0.206581	0.354361
N60	N	1.694174	0.293419	0.854361
C61	C	1.263002	0.248235	0.317364
C62	C	1.763002	0.748235	0.817364
C63	C	1.263008	0.331688	0.317365
C64	C	1.763008	0.831688	0.817365
C65	C	1.194132	0.373419	0.354337
C66	C	1.694132	0.873419	0.854337
C67	C	1.125240	0.331695	0.391305
C68	C	1.625240	0.831695	0.891305
C69	C	1.125230	0.248244	0.391300
C70	C	1.625230	0.748244	0.891300
C71	C	1.125276	0.668242	0.391328
C72	C	1.625276	1.168242	0.891328
C73	C	1.125293	0.751698	0.391333
C74	C	1.625293	1.251698	0.891333
C75	C	1.263054	0.751686	0.317393
C76	C	1.763054	1.251686	0.817393
C77	C	1.263044	0.668235	0.317387
C78	C	1.763044	1.168235	0.817387
C79	C	1.194149	0.626517	0.354352
C80	C	1.694149	1.126517	0.854352
C81	C	1.194142	0.536029	0.354349
C82	C	1.694142	1.036029	0.854349
C83	C	1.194143	0.463906	0.354345
C84	C	1.694143	0.963906	0.854345
C85	C	1.291362	-0.000026	0.103873
C86	C	1.791362	0.499974	0.603873
C87	C	1.289675	-0.000033	0.024573
C88	C	1.789675	0.499967	0.524573
C89	C	1.196701	-0.000033	-0.025400
C90	C	1.696701	0.499967	0.474600
C91	C	1.105407	-0.000035	0.003930
C92	C	1.605407	0.499965	0.503930
C93	C	1.107095	-0.000034	0.083228
C94	C	1.607095	0.499966	0.583228
C95	C	1.098600	-0.000041	-0.315872
C96	C	1.598600	0.499959	0.184128
C97	C	1.096920	-0.000040	-0.395175
C98	C	1.596920	0.499960	0.104825
C99	C	1.281181	-0.000040	-0.374527
C100	C	1.781181	0.499960	0.125473
C101	C	1.282869	-0.000039	-0.295229
C102	C	1.782869	0.499961	0.204771
C103	C	1.191575	-0.000045	-0.265906
C104	C	1.691575	0.499955	0.234094
C105	C	1.193405	-0.000039	-0.179920
C106	C	1.693405	0.499961	0.320080
C107	C	1.194871	-0.000034	-0.111385
C108	C	1.694871	0.499966	0.388615
C109	C	1.186420	-0.000041	0.491102
C110	C	1.686420	0.499959	0.991102
C111	C	1.188208	-0.000047	0.575498
C112	C	1.688208	0.499953	1.075498
H113	H	0.865050	-0.000040	0.414236
H114	H	1.365050	0.499960	0.914236
H115	H	0.788038	-0.000054	0.478992
H116	H	1.288038	0.499946	0.978992
Br117	Br	0.970732	-0.000040	-0.462997
Br118	Br	1.470732	0.499960	0.037003
H119	H	1.024263	-0.000046	-0.292008
H120	H	1.524263	0.499954	0.207992
Br121	Br	0.979226	-0.000049	-0.063891
Br122	Br	1.479226	0.499951	0.436109
H123	H	1.364011	-0.000031	0.000701
H124	H	1.864011	0.499969	0.500701
H125	H	0.670185	-0.000072	0.578056
H126	H	1.170185	0.499928	1.078056
H127	H	1.069135	0.214277	0.421401
H128	H	1.569135	0.714277	0.921401
Br129	Br	0.983200	-0.000039	0.123027
Br130	Br	1.483200	0.499961	0.623027
H131	H	0.478860	-0.000064	0.535319
H132	H	0.978860	0.499936	1.035319
H133	H	0.547679	-0.000023	0.161691
H134	H	1.047679	0.499977	0.661691
Br135	Br	1.409052	-0.000039	-0.227411
Br136	Br	1.909052	0.499961	0.272589
Br137	Br	1.405083	-0.000032	-0.414326
Br138	Br	1.905083	0.499968	0.085674
Br139	Br	1.031814	0.808335	0.441514
Br140	Br	1.531814	1.308335	0.941514
Br141	Br	1.356556	0.808306	0.267225
Br142	Br	1.856556	1.308306	0.767225
H143	H	0.429825	-0.000028	0.260769
H144	H	0.929825	0.499972	0.760769
H145	H	0.909415	-0.000017	0.173364
H146	H	1.409415	0.499983	0.673364
Br147	Br	0.696085	0.000002	0.088206
Br148	Br	1.196085	0.500002	0.588206
Br149	Br	1.417548	-0.000013	0.171687
Br150	Br	1.917548	0.499987	0.671687
H151	H	1.319092	0.214263	0.287261
H152	H	1.819092	0.714263	0.787261
Br153	Br	1.356492	0.388309	0.267191
Br154	Br	1.856492	0.888309	0.767191
H155	H	1.319132	0.634259	0.287284
H156	H	1.819132	1.134259	0.787284
H157	H	1.069155	0.365678	0.421406
H158	H	1.569155	0.865678	0.921406
Br159	Br	1.031780	0.611630	0.441494
Br160	Br	1.531780	1.111630	0.941494
