data_functionalizedCrystal
_audit_creation_method	'MofGen! by Chris Wilmer'
_symmetry_space_group_name_H-M	'P1'
_symmetry_Int_Tables_number	1
_symmetry_cell_setting	triclinic
loop_
_symmetry_equiv_pos_as_xyz
  x,y,z
_cell_length_a	12.837943
_cell_length_b	12.811434
_cell_length_c	11.892052
_cell_angle_alpha	91.067240
_cell_angle_beta	93.959273
_cell_angle_gamma	90.588387
loop_
_atom_site_label
_atom_site_type_symbol
_atom_site_fract_x
_atom_site_fract_y
_atom_site_fract_z
O1	O	-1.380768	0.277564	-0.065519
O2	O	-1.078991	0.264177	-0.066899
O3	O	-1.238454	0.119923	-0.081682
O4	O	-1.221306	0.421818	-0.050737
O5	O	-1.226645	0.106840	0.104986
O6	O	-1.067182	0.251093	0.119769
O7	O	-1.368959	0.264481	0.121148
Zn8	Zn	-1.216196	0.255710	0.150096
Zn9	Zn	-1.231755	0.272948	-0.095847
O10	O	-1.209497	0.408735	0.135931
C11	C	-1.034476	0.253112	0.025970
C12	C	-0.919428	0.239623	0.024584
C13	C	-1.231951	0.074472	0.007661
C14	C	-1.230155	-0.041467	-0.004231
C15	C	-1.413474	0.275546	0.028276
C16	C	-1.528523	0.289035	0.029655
C17	C	-1.216000	0.454186	0.046586
C18	C	-1.217796	0.570125	0.058470
C19	C	-0.678121	0.401786	0.041223
C20	C	-0.570022	0.389117	0.039922
C21	C	-0.595130	0.201616	0.020691
C22	C	-0.703229	0.214285	0.021991
C23	C	-0.744720	0.314374	0.032256
C24	C	-0.852821	0.327043	0.033549
C25	C	-0.877926	0.139542	0.014325
C26	C	-0.769827	0.126873	0.013024
C27	C	-1.234067	0.802253	-0.122726
C28	C	-1.235755	0.911189	-0.111565
C29	C	-1.222869	0.896934	0.091951
C30	C	-1.221180	0.787998	0.080790
C31	C	-1.226778	0.740662	-0.026552
C32	C	-1.225082	0.631724	-0.037712
C33	C	-1.212204	0.617472	0.165804
C34	C	-1.213892	0.726407	0.176964
N35	N	-1.205585	0.243946	0.317945
N36	N	-1.242374	0.284705	-0.263697
C37	C	-1.131757	0.162099	0.487099
C38	C	-1.139165	0.170319	0.369599
C39	C	-1.264603	0.309357	0.383800
C40	C	-1.257195	0.301137	0.501300
C41	C	-1.190769	0.227507	0.552946
C42	C	-1.183356	0.219294	0.670448
C43	C	-1.308798	0.358326	0.684646
C44	C	-1.316207	0.366545	0.567146
H45	H	-0.886601	0.408539	0.041909
O46	O	-0.718321	0.499069	0.051043
C47	C	-0.736117	0.669957	-0.028880
C48	C	-0.690511	0.559832	-0.040123
H49	H	-0.713669	0.719109	-0.102590
H50	H	-0.703706	0.708298	0.053676
H51	H	-0.824813	0.663965	-0.029439
H52	H	-0.601818	0.565732	-0.039615
H53	H	-0.723003	0.521532	-0.122669
H54	H	-1.077661	0.102155	0.529151
O55	O	-0.505233	0.473961	0.048469
C56	C	-0.374783	0.575295	-0.038581
C57	C	-0.448088	0.479157	-0.048394
H58	H	-0.328578	0.579539	-0.116894
H59	H	-0.318534	0.568585	0.039357
H60	H	-0.423030	0.648983	-0.030969
H61	H	-0.399926	0.405421	-0.056051
H62	H	-0.504339	0.485959	-0.126316
H63	H	-1.229633	0.593185	-0.125115
O64	O	-1.081731	0.106734	0.305806
C65	C	-0.956579	-0.032083	0.304121
C66	C	-1.021547	0.039882	0.376502
H67	H	-0.907921	-0.086166	0.361247
H68	H	-0.902627	0.017264	0.253812
H69	H	-1.011160	-0.080673	0.243700
H70	H	-0.967046	0.088487	0.436986
H71	H	-1.075511	-0.009525	0.426734
O72	O	-1.239516	0.756432	-0.227075
C73	C	-1.252311	0.782068	-0.427757
C74	C	-1.246196	0.834092	-0.309650
H75	H	-1.257691	0.844833	-0.494551
H76	H	-1.324355	0.729102	-0.438422
H77	H	-1.179331	0.733746	-0.437731
H78	H	-1.319122	0.882467	-0.299595
H79	H	-1.174105	0.886997	-0.299039
H80	H	-1.209339	0.764964	0.264359
H81	H	-1.318694	0.369294	0.341728
H82	H	-1.241691	0.961333	-0.189881
O83	O	-1.380644	0.438041	0.516795
C84	C	-1.447698	0.512280	0.342070
C85	C	-1.374666	0.431280	0.398944
H86	H	-1.442907	0.506827	0.246777
H87	H	-1.422947	0.593992	0.373619
H88	H	-1.531374	0.495937	0.363717
H89	H	-1.290969	0.447526	0.377322
H90	H	-1.399507	0.349594	0.367392
H91	H	-1.356843	0.411593	0.738272
O92	O	-0.729557	0.029617	0.003245
C93	C	-0.711885	-0.141326	0.083062
C94	C	-0.757526	-0.031215	0.094294
H95	H	-0.734498	-0.190547	0.156651
H96	H	-0.623175	-0.135438	0.083738
H97	H	-0.744256	-0.179533	0.000421
H98	H	-0.725235	0.007055	0.176928
H99	H	-0.846235	-0.037174	0.093552
H100	H	-0.561322	0.120122	0.012426
H101	H	-1.129264	0.159344	0.712496
O102	O	-0.942734	0.054711	0.005471
C103	C	-1.085416	-0.033051	-0.100984
C104	C	-1.012107	0.063082	-0.091069
H105	H	-1.141507	-0.026326	-0.179044
H106	H	-1.131793	-0.037296	-0.022795
H107	H	-1.037160	-0.106746	-0.108488
H108	H	-1.060283	0.136829	-0.083598
H109	H	-0.965726	0.067234	-0.169260
O110	O	-1.217589	0.942857	0.196246
C111	C	-1.296748	0.961044	0.373380
C112	C	-1.302887	0.908994	0.255285
H113	H	-1.365690	0.933669	0.421156
H114	H	-1.299261	1.049491	0.364923
H115	H	-1.220692	0.938450	0.421519
H116	H	-1.378932	0.931505	0.207081
H117	H	-1.300314	0.820558	0.263823
H118	H	-1.206262	0.567312	0.244116
