data_functionalizedCrystal
_audit_creation_method	'MofGen! by Chris Wilmer'
_symmetry_space_group_name_H-M	'P1'
_symmetry_Int_Tables_number	1
_symmetry_cell_setting	triclinic
loop_
_symmetry_equiv_pos_as_xyz
  x,y,z
_cell_length_a	12.759401
_cell_length_b	16.625545
_cell_length_c	12.759393
_cell_angle_alpha	90.033904
_cell_angle_beta	90.019437
_cell_angle_gamma	90.025570
loop_
_atom_site_label
_atom_site_type_symbol
_atom_site_fract_x
_atom_site_fract_y
_atom_site_fract_z
Zn1	Zn	1.606176	-0.320954	0.593991
Zn2	Zn	1.606037	-0.455811	0.418304
Zn3	Zn	1.430478	-0.320996	0.418327
Zn4	Zn	1.430433	-0.455748	0.593942
O5	O	1.518281	-0.388377	0.506141
O6	O	1.753179	-0.338851	0.570696
O7	O	1.582709	-0.437971	0.271286
O8	O	1.453862	-0.208158	0.441659
O9	O	1.753077	-0.437930	0.441619
O10	O	1.582946	-0.208127	0.570719
O11	O	1.453727	-0.338923	0.271303
O12	O	1.283451	-0.338862	0.441612
O13	O	1.453786	-0.437824	0.740970
O14	O	1.283418	-0.437864	0.570636
O15	O	1.582903	-0.338791	0.741005
O16	O	1.582666	-0.568635	0.441572
O17	O	1.453651	-0.568589	0.570613
C18	C	1.245314	-0.388362	0.506122
C19	C	1.128537	-0.388375	0.506139
C20	C	0.963961	-0.440016	0.573234
C21	C	1.073685	-0.440006	0.573217
C22	C	1.073660	-0.336756	0.439066
C23	C	0.963938	-0.336771	0.439079
C24	C	0.909114	-0.491645	0.640324
C25	C	0.963984	-0.543265	0.707396
C26	C	1.073708	-0.543255	0.707379
C27	C	1.128562	-0.491624	0.640290
C28	C	1.518167	-0.597868	0.506108
C29	C	1.518214	-0.687489	0.506129
C30	C	1.518255	-0.760271	0.506150
C31	C	1.518316	-0.851580	0.506173
C32	C	1.518371	-0.924356	0.506186
C33	C	1.518431	-1.015671	0.506208
C34	C	1.792314	-0.388393	0.506160
C35	C	1.909091	-0.388400	0.506169
C36	C	1.518355	-0.388296	0.780174
C37	C	1.518386	-0.388261	0.896951
C38	C	1.518424	-0.178068	0.506197
C39	C	1.518485	-0.088447	0.506221
C40	C	1.518268	-0.388400	0.233173
C41	C	1.518441	-0.388207	0.116397
C42	C	1.585627	-0.336690	0.951833
C43	C	1.585652	-0.336661	1.061557
C44	C	1.451192	-0.439781	1.061507
C45	C	1.451163	-0.439806	0.951785
C46	C	1.652850	-0.285145	0.896999
C47	C	1.720097	-0.233570	0.951882
C48	C	1.720122	-0.233541	1.061606
C49	C	1.652900	-0.285087	1.116447
H50	H	0.919314	-0.585305	0.762011
H51	H	1.217907	-0.491625	0.640276
H52	H	1.118331	-0.294720	0.384447
O53	O	1.386005	-0.489829	1.114940
C54	C	1.400434	-0.478736	1.223552
H55	H	1.481535	-0.452328	1.238550
H56	H	1.393283	-0.539123	1.265228
H57	H	1.338153	-0.435789	1.254705
O58	O	1.652925	-0.285045	0.790415
C59	C	1.726694	-0.228509	0.753782
H60	H	1.741460	-0.181385	0.817028
H61	H	1.694999	-0.197929	0.680383
H62	H	1.803272	-0.260497	0.734312
H63	H	1.652913	-0.285050	1.205792
O64	O	1.385835	-0.489994	0.898628
C65	C	1.326508	-0.535482	0.970552
H66	H	1.369547	-0.538243	1.048776
H67	H	1.315280	-0.599022	0.938829
H68	H	1.246724	-0.505967	0.982209
H69	H	1.774820	-0.191599	0.907222
O70	O	1.126847	-0.593423	0.772623
C71	C	1.054905	-0.639007	0.831817
H72	H	0.976707	-0.605992	0.835537
H73	H	1.086642	-0.647676	0.914571
H74	H	1.043193	-0.700213	0.793209
O75	O	0.910793	-0.286554	0.373901
C76	C	0.982727	-0.240991	0.314671
H77	H	1.060963	-0.238222	0.357699
H78	H	0.951037	-0.177459	0.303611
H79	H	0.994350	-0.270447	0.234811
H80	H	0.819771	-0.491658	0.640348
H81	H	1.774870	-0.191541	1.106288
