data_functionalizedCrystal
_audit_creation_method	'MofGen! by Chris Wilmer'
_symmetry_space_group_name_H-M	'P1'
_symmetry_Int_Tables_number	1
_symmetry_cell_setting	triclinic
loop_
_symmetry_equiv_pos_as_xyz
  x,y,z
_cell_length_a	10.654545
_cell_length_b	10.654551
_cell_length_c	9.730223
_cell_angle_alpha	89.997362
_cell_angle_beta	89.997167
_cell_angle_gamma	84.484254
loop_
_atom_site_label
_atom_site_type_symbol
_atom_site_fract_x
_atom_site_fract_y
_atom_site_fract_z
O1	O	1.667843	0.176371	-0.114270
O2	O	1.302364	0.193183	-0.114276
O3	O	1.493506	0.002038	-0.114270
O4	O	1.476701	0.367517	-0.114276
O5	O	1.493493	0.002033	0.114310
O6	O	1.302352	0.193178	0.114304
O7	O	1.667831	0.176366	0.114310
Zn8	Zn	1.485089	0.184771	0.150599
Zn9	Zn	1.485106	0.184778	-0.150565
O10	O	1.476689	0.367511	0.114304
C11	C	1.255560	0.191948	0.000014
C12	C	1.116116	0.188258	0.000012
C13	C	1.050605	0.186518	0.124611
C14	C	0.919585	0.183031	0.124611
C15	C	0.919599	0.183028	-0.124599
C16	C	1.050618	0.186506	-0.124598
C17	C	1.492265	-0.044762	0.000018
C18	C	1.488573	-0.184205	0.000011
C19	C	1.486847	-0.249706	-0.124589
C20	C	1.483367	-0.380727	-0.124590
C21	C	1.483345	-0.380734	0.124620
C22	C	1.486816	-0.249715	0.124620
C23	C	1.714635	0.177602	0.000017
C24	C	1.854079	0.181292	0.000010
C25	C	1.477929	0.414312	0.000013
C26	C	1.481622	0.553755	0.000010
N27	N	1.485087	0.184766	0.356135
N28	N	1.485117	0.184774	-0.356101
C29	C	1.569754	0.100163	0.428064
C30	C	1.569766	0.100163	0.571947
C31	C	1.400442	0.269381	0.571960
C32	C	1.400424	0.269373	0.428080
H33	H	0.866252	0.181614	0.226073
Br34	Br	1.489138	-0.160810	0.293733
Br35	Br	1.285548	0.384204	0.669603
Br36	Br	1.139536	0.188852	-0.293710
Br37	Br	1.285502	0.384190	0.330451
Br38	Br	1.481016	-0.469616	-0.293698
Br39	Br	1.139493	0.188891	0.293722
H40	H	1.481916	-0.434089	0.226072
H41	H	1.488274	-0.196372	-0.226053
Br42	Br	0.830706	0.180613	-0.293703
H43	H	1.638708	0.031270	0.630507
Br44	Br	1.684651	-0.014664	0.330430
