data_functionalizedCrystal
_audit_creation_method	'MofGen! by Chris Wilmer'
_symmetry_space_group_name_H-M	'P1'
_symmetry_Int_Tables_number	1
_symmetry_cell_setting	triclinic
loop_
_symmetry_equiv_pos_as_xyz
  x,y,z
_cell_length_a	16.109302
_cell_length_b	14.853567
_cell_length_c	15.186229
_cell_angle_alpha	90.000050
_cell_angle_beta	89.994701
_cell_angle_gamma	83.548356
loop_
_atom_site_label
_atom_site_type_symbol
_atom_site_fract_x
_atom_site_fract_y
_atom_site_fract_z
O1	O	1.103293	0.115884	-0.073261
O2	O	0.861251	0.130304	-0.073253
O3	O	0.988738	-0.008146	-0.073260
O4	O	0.975807	0.254334	-0.073254
O5	O	0.988729	-0.008148	0.073198
O6	O	0.861243	0.130302	0.073204
O7	O	1.103285	0.115882	0.073197
Zn8	Zn	0.982262	0.123092	0.096454
Zn9	Zn	0.982274	0.123094	-0.096510
O10	O	0.975798	0.254332	0.073203
C11	C	0.830271	0.129719	-0.000023
C12	C	0.737974	0.127967	-0.000021
C13	C	0.525622	0.123916	0.079804
C14	C	0.438900	0.122261	0.079801
C15	C	0.438920	0.122267	-0.079874
C16	C	0.525641	0.123916	-0.079870
C17	C	0.568990	0.124745	-0.000028
C18	C	0.395546	0.121441	-0.000035
C19	C	0.301518	0.119646	-0.000039
C20	C	0.663024	0.126539	-0.000024
C21	C	0.988147	-0.041735	-0.000033
C22	C	0.986392	-0.141816	-0.000041
C23	C	0.903240	-0.554213	-0.000022
C24	C	1.054697	-0.575743	-0.000027
C25	C	1.056348	-0.481712	-0.000032
C26	C	0.981444	-0.423927	-0.000031
C27	C	0.904889	-0.460173	-0.000024
C28	C	1.132901	-0.445459	-0.000029
C29	C	1.134555	-0.351423	-0.000034
C30	C	1.059650	-0.293636	-0.000039
C31	C	0.983092	-0.329887	-0.000033
C32	C	0.908188	-0.272102	-0.000032
C33	C	0.831630	-0.308351	-0.000033
C34	C	0.829984	-0.402385	-0.000029
C35	C	1.061296	-0.199601	-0.000042
C36	C	0.909837	-0.178062	-0.000035
C37	C	1.134264	0.116467	-0.000035
C38	C	1.226562	0.118219	-0.000043
C39	C	0.976389	0.287921	-0.000025
C40	C	0.978144	0.388002	-0.000023
N41	N	0.982261	0.123089	0.228146
N42	N	0.982282	0.123090	-0.228203
C43	C	1.038731	0.061804	0.453866
C44	C	1.038733	0.061802	0.546056
C45	C	0.925806	0.184378	0.546071
C46	C	0.925800	0.184375	0.453883
C47	C	0.982267	0.123089	0.407783
C48	C	0.982276	0.123090	0.592161
C49	C	0.982278	0.123088	0.692117
C50	C	0.982264	0.123090	0.307821
H51	H	0.848840	-0.131018	-0.000037
O52	O	0.828927	-0.589527	-0.000139
C53	C	0.739146	-0.683147	-0.076042
C54	C	0.823342	-0.643230	-0.076009
H55	H	0.734596	-0.726560	-0.137385
H56	H	0.734568	-0.726694	-0.014793
H57	H	0.685910	-0.625677	-0.075997
H58	H	0.876627	-0.700642	-0.076084
H59	H	0.827847	-0.599660	-0.137252
O60	O	1.093445	0.002195	0.409007
C61	C	1.110931	-0.121027	0.305033
C62	C	1.048889	-0.053529	0.355748
H63	H	1.074932	-0.166111	0.261975
H64	H	1.152523	-0.082198	0.261785
H65	H	1.151278	-0.164787	0.353849
H66	H	1.008487	-0.009753	0.306995
H67	H	1.007354	-0.092415	0.399009
O68	O	0.567751	0.124873	0.157337
C69	C	0.656359	0.204752	0.250000
C70	C	0.608675	0.203798	0.162170
H71	H	0.689473	0.268547	0.253929
H72	H	0.610493	0.203931	0.307092
H73	H	0.704463	0.142439	0.253976
H74	H	0.560571	0.266100	0.158109
H75	H	0.654592	0.204572	0.105120
O76	O	1.093470	0.002182	0.590860
C77	C	1.111038	-0.120903	0.694979
C78	C	1.048956	-0.053445	0.644278
H79	H	1.075074	-0.165883	0.738193
H80	H	1.151382	-0.164769	0.646231
H81	H	1.152630	-0.081947	0.738094
H82	H	1.007311	-0.092328	0.601162
H83	H	1.008672	-0.009580	0.693074
H84	H	0.560952	0.124589	-0.144884
H85	H	0.403615	0.121593	-0.144879
H86	H	0.770643	-0.261290	-0.000026
O87	O	0.870917	0.243999	0.409248
C88	C	0.758873	0.365540	0.418984
C89	C	0.820995	0.298088	0.469642
H90	H	0.718484	0.409276	0.467790
H91	H	0.794773	0.410649	0.375839
H92	H	0.717334	0.326581	0.375810
H93	H	0.862549	0.336973	0.512864
H94	H	0.785044	0.252980	0.512732
O95	O	1.127508	-0.631782	-0.000145
C96	C	1.256430	-0.679012	-0.076056
C97	C	1.174009	-0.615477	-0.076019
H98	H	1.294041	-0.665866	-0.137403
H99	H	1.294157	-0.665822	-0.014810
H100	H	1.242078	-0.752439	-0.076008
H101	H	1.188284	-0.542027	-0.076098
H102	H	1.136306	-0.628745	-0.137259
O103	O	0.755693	-0.437748	0.000017
C104	C	0.686036	-0.573075	-0.000014
C105	C	0.770226	-0.533144	-0.000051
H106	H	0.697756	-0.650207	-0.000088
H107	H	0.649003	-0.549337	0.061294
H108	H	0.649017	-0.549231	-0.061290
H109	H	0.807313	-0.556969	0.061184
H110	H	0.807196	-0.556876	-0.061400
O111	O	1.205710	-0.501501	-0.000148
C112	C	1.334635	-0.548732	-0.076055
C113	C	1.252217	-0.485191	-0.076017
H114	H	1.372250	-0.535582	-0.137397
H115	H	1.372359	-0.535552	-0.014804
H116	H	1.320279	-0.622158	-0.076016
H117	H	1.266497	-0.411743	-0.076087
H118	H	1.214516	-0.498450	-0.137262
H119	H	1.196894	-0.321918	-0.000034
O120	O	0.396896	0.121501	0.157430
C121	C	0.406041	0.121618	0.315806
C122	C	0.453709	0.122504	0.227952
H123	H	0.451955	0.122410	0.372847
H124	H	0.357921	0.183914	0.319860
H125	H	0.372955	0.057804	0.319747
H126	H	0.486845	0.186277	0.223952
H127	H	0.501782	0.060166	0.223936
H128	H	1.123628	-0.170091	-0.000036
H129	H	0.879832	0.234277	0.583615
