data_functionalizedCrystal
_audit_creation_method	'MofGen! by Chris Wilmer'
_symmetry_space_group_name_H-M	'P1'
_symmetry_Int_Tables_number	1
_symmetry_cell_setting	triclinic
loop_
_symmetry_equiv_pos_as_xyz
  x,y,z
_cell_length_a	11.026607
_cell_length_b	8.140239
_cell_length_c	9.065218
_cell_angle_alpha	90.003526
_cell_angle_beta	96.800951
_cell_angle_gamma	89.999534
loop_
_atom_site_label
_atom_site_type_symbol
_atom_site_fract_x
_atom_site_fract_y
_atom_site_fract_z
O1	O	1.616966	0.136603	0.619589
O2	O	2.116966	0.636603	1.119589
O3	O	1.262884	0.136606	0.549036
O4	O	1.762884	0.636606	1.049036
O5	O	1.447244	0.136601	0.371495
O6	O	1.947244	0.636601	0.871495
O7	O	1.432606	0.136608	0.797130
O8	O	1.932606	0.636608	1.297130
O9	O	1.447242	-0.136626	0.371483
O10	O	1.947242	0.363374	0.871483
O11	O	1.262883	-0.136621	0.549024
O12	O	1.762883	0.363379	1.049024
O13	O	1.616964	-0.136625	0.619577
O14	O	2.116964	0.363375	1.119577
Zn15	Zn	1.439923	-0.180003	0.584299
Zn16	Zn	1.939923	0.319997	1.084299
Zn17	Zn	1.439925	0.179985	0.584314
Zn18	Zn	1.939925	0.679985	1.084314
O19	O	1.432605	-0.136619	0.797118
O20	O	1.932605	0.363381	1.297118
C21	C	1.445836	-0.000010	0.316152
C22	C	1.945836	0.499990	0.816152
C23	C	1.441630	-0.000002	0.151260
C24	C	1.941630	0.499998	0.651260
C25	C	1.217530	-0.000007	0.536015
C26	C	1.717530	0.499993	1.036015
C27	C	1.082389	-0.000006	0.497214
C28	C	1.582389	0.499994	0.997214
C29	C	1.009761	-0.000003	0.604348
C30	C	1.509761	0.499997	1.104348
C31	C	0.870086	-0.000001	0.564249
C32	C	1.370086	0.499999	1.064249
C33	C	1.662319	-0.000008	0.632598
C34	C	2.162319	0.499992	1.132598
C35	C	1.797460	0.000001	0.671399
C36	C	2.297460	0.500001	1.171399
N37	N	1.439927	0.425668	0.584314
N38	N	1.939927	0.925668	1.084314
N39	N	1.439931	-0.425686	0.584289
N40	N	1.939931	0.074314	1.084289
C41	C	1.434012	-0.000005	0.852461
C42	C	1.934012	0.499995	1.352461
C43	C	1.438219	-0.000002	1.017353
C44	C	1.938219	0.499998	1.517353
H45	H	0.828866	0.000039	0.442833
H46	H	1.328866	0.500039	0.942833
H47	H	1.050987	-0.000010	0.725756
H48	H	1.550987	0.499990	1.225756
H49	H	0.838678	-0.000007	0.792815
H50	H	1.338678	0.499993	1.292815
H51	H	1.041163	0.000035	0.375807
H52	H	1.541163	0.500035	0.875807
