data_functionalizedCrystal
_audit_creation_method	'MofGen! by Chris Wilmer'
_symmetry_space_group_name_H-M	'P1'
_symmetry_Int_Tables_number	1
_symmetry_cell_setting	triclinic
loop_
_symmetry_equiv_pos_as_xyz
  x,y,z
_cell_length_a	23.096457
_cell_length_b	18.878441
_cell_length_c	23.096457
_cell_angle_alpha	60.008377
_cell_angle_beta	90.011518
_cell_angle_gamma	59.998618
loop_
_atom_site_label
_atom_site_type_symbol
_atom_site_fract_x
_atom_site_fract_y
_atom_site_fract_z
Zr1	Zr	0.557739	0.775359	-0.075988
O2	O	0.465267	0.923136	-0.168432
O3	O	0.586087	0.627581	-0.047651
O4	O	0.586057	0.775361	-0.168439
O5	O	0.465319	0.775354	0.047639
O6	O	0.681337	0.775363	-0.168442
O7	O	0.465297	0.775356	-0.047643
O8	O	0.681391	0.511012	0.047626
O9	O	0.465265	1.039705	-0.168429
O10	O	0.669283	0.688366	-0.035565
O11	O	0.598193	0.688363	0.035545
O12	O	0.598158	0.862354	-0.106667
O13	O	0.527068	0.862352	-0.035557
Zr14	Zr	0.709736	0.775359	0.075970
Zr15	Zr	0.709700	0.775362	-0.075993
Zr16	Zr	0.557775	0.775356	0.075976
Zr17	Zr	0.557737	0.961273	-0.075984
Zr18	Zr	0.709738	0.589444	0.075967
O19	O	0.681387	0.923136	0.047633
O20	O	0.681336	0.923140	-0.168440
O21	O	0.465318	0.923132	0.047641
O22	O	0.802208	0.627581	0.168414
O23	O	0.802157	0.627586	-0.047659
O24	O	0.586139	0.627577	0.168422
O25	O	0.802155	0.775363	-0.047656
O26	O	0.681417	0.775356	0.168422
O27	O	0.586137	0.775354	0.168425
O28	O	0.802178	0.775361	0.047626
O29	O	0.586054	1.039708	-0.168434
O30	O	0.681420	0.511010	0.168417
O31	O	0.802209	0.511012	0.168412
O32	O	0.802180	0.511015	0.047621
O33	O	0.465294	1.039703	-0.047638
O34	O	0.586083	1.039705	-0.047643
O35	O	0.669317	0.688363	0.106650
O36	O	0.740407	0.688366	0.035540
O37	O	0.669281	0.862354	-0.035562
O38	O	0.598191	0.862352	0.035548
C39	C	0.633740	0.542808	-0.000013
C40	C	0.633740	0.463882	-0.000014
C41	C	0.670847	0.426804	-0.037134
C42	C	0.670850	0.352640	-0.037129
C43	C	0.633741	0.315560	-0.000007
C44	C	0.596633	0.352641	0.037117
C45	C	0.596635	0.426799	0.037115
C46	C	0.596631	0.198074	0.037116
C47	C	0.596627	0.123913	0.037117
C48	C	0.670845	0.123916	-0.037128
C49	C	0.670847	0.198074	-0.037129
C50	C	0.633738	0.235151	-0.000006
C51	C	0.443657	0.775355	-0.000002
C52	C	0.379145	0.775353	0.000001
C53	C	0.385966	0.684536	0.037108
C54	C	0.325351	0.684534	0.037112
C55	C	0.257915	0.775356	-0.000007
C56	C	0.251096	0.866185	-0.037116
C57	C	0.311712	0.866184	-0.037113
N58	N	0.135104	0.842960	-0.060417
N59	N	0.077525	0.842955	-0.060419
C60	C	0.075282	0.775365	-0.000020
N61	N	0.132801	0.707765	0.060382
N62	N	0.190386	0.707767	0.060383
C63	C	0.192184	0.775367	-0.000015
C64	C	0.016379	0.684539	0.037095
C65	C	-0.044239	0.684542	0.037100
C66	C	-0.118493	0.866195	-0.037135
C67	C	-0.057875	0.866190	-0.037133
C68	C	0.009559	0.775360	-0.000020
C69	C	0.823818	0.775363	-0.000016
C70	C	0.888329	0.775364	-0.000018
C71	C	0.633692	0.775363	-0.190092
C72	C	0.633677	0.775364	-0.254605
C73	C	0.633735	1.007909	-0.000004
C74	C	0.633734	1.086835	-0.000003
C75	C	0.596554	0.866181	-0.322023
C76	C	0.596572	0.866183	-0.382639
C77	C	0.633703	0.775362	-0.375833
C78	C	0.670835	0.684532	-0.308403
C79	C	0.670821	0.684533	-0.247789
N80	N	0.628582	0.707758	-0.443390
N81	N	0.628591	0.707763	-0.500974
C82	C	0.633747	0.775353	-0.558459
N83	N	0.638881	0.842952	-0.556191
N84	N	0.638868	0.842950	-0.498604
C85	C	0.633722	0.775350	-0.441555
C86	C	0.596642	0.866178	-0.691607
C87	C	0.596665	0.866176	-0.752223
C88	C	0.670923	0.684522	-0.677985
C89	C	0.670905	0.684527	-0.617371
C90	C	0.633760	0.775358	-0.624187
C91	C	0.633782	0.775355	0.190075
C92	C	0.633798	0.775353	0.254588
C93	C	0.823820	0.542812	-0.000020
C94	C	0.888332	0.463888	-0.000024
C95	C	0.633785	0.542804	0.190071
C96	C	0.633801	0.463877	0.254582
C97	C	0.823865	0.542808	0.190064
C98	C	0.888393	0.463882	0.254572
C99	C	0.443609	1.007909	-0.190081
C100	C	0.379082	1.086835	-0.254590
C101	C	0.443655	1.007906	0.000003
C102	C	0.379142	1.086830	0.000007
C103	C	0.633690	1.007913	-0.190088
C104	C	0.633674	1.086840	-0.254599
C105	C	0.881502	0.426824	-0.037148
C106	C	0.942113	0.352676	-0.037166
C107	C	1.009552	0.315589	-0.000055
C108	C	1.016381	0.352660	0.037071
C109	C	0.955771	0.426811	0.037084
C110	C	0.670934	0.426812	0.321999
C111	C	0.670947	0.352662	0.382620
C112	C	0.633830	0.315574	0.375822
C113	C	0.596692	0.352646	0.308397
C114	C	0.596676	0.426799	0.247778
C115	C	0.955810	0.426820	0.247747
C116	C	1.016447	0.352671	0.308354
C117	C	1.009664	0.315581	0.375786
C118	C	0.942240	0.352651	0.382609
C119	C	0.881605	0.426804	0.322003
C120	C	0.311664	1.123907	-0.247765
C121	C	0.251028	1.198078	-0.308372
C122	C	0.257810	1.235172	-0.375803
C123	C	0.325235	1.198097	-0.382626
C124	C	0.385870	1.123932	-0.322020
C125	C	0.385972	1.123901	0.037125
C126	C	0.325362	1.198069	0.037126
C127	C	0.257922	1.235159	0.000012
C128	C	0.251093	1.198085	-0.037110
C129	C	0.311703	1.123923	-0.037115
C130	C	0.670798	1.123905	-0.247778
C131	C	0.670797	1.198056	-0.308387
C132	C	0.633666	1.235145	-0.375817
C133	C	0.596541	1.198072	-0.382636
C134	C	0.596547	1.123918	-0.322028
H135	H	0.701059	0.228269	-0.067360
H136	H	-0.173400	0.940144	-0.067358
H137	H	0.701027	1.228232	-0.302820
C138	C	0.191256	1.316735	0.000029
N139	N	0.141046	1.378175	0.000046
H140	H	0.330936	1.228243	0.067358
H141	H	0.440762	1.093749	-0.327586
H142	H	0.633849	0.255193	0.425188
H143	H	0.196134	1.228252	-0.302802
H144	H	0.440880	1.093708	0.067351
C145	C	1.090607	0.311898	0.300833
N146	N	1.146462	0.281188	0.295165
H147	H	0.196186	0.940133	-0.067338
C148	C	0.963288	0.467610	0.173578
N149	N	0.968927	0.498334	0.117716
C150	C	0.711765	0.467601	0.329495
N151	N	0.742516	0.498325	0.335147
C152	C	0.304186	1.083124	-0.173596
N153	N	0.298548	1.052417	-0.117733
C154	C	0.176903	1.238881	-0.077921
N155	N	0.121020	1.269603	-0.108652
H156	H	0.826713	0.456971	0.327570
H157	H	0.208432	1.295562	-0.425147
C158	C	0.332684	1.238902	-0.456808
N159	N	0.338292	1.269632	-0.512683
H160	H	0.566313	1.093748	-0.327592
H161	H	0.330905	0.610578	0.067330
H162	H	0.566437	0.940133	-0.807119
H163	H	0.306132	1.093742	-0.067339
C164	C	0.711735	0.584619	-0.543206
N165	N	0.742491	0.509364	-0.487343
C166	C	0.711651	0.311882	-0.077983
N167	N	0.742377	0.281191	-0.108762
C168	C	0.555729	1.238846	-0.456816
N169	N	0.524998	1.269549	-0.512690
C170	C	0.711652	1.083116	-0.173610
N171	N	0.742429	1.052393	-0.117749
H172	H	0.566472	0.322437	0.302872
C173	C	0.555790	0.966093	-0.699103
N174	N	0.525022	1.041349	-0.704751
H175	H	0.633667	1.295526	-0.425162
C176	C	0.460141	0.584619	0.077940
N177	N	0.516011	0.509361	0.108696
C178	C	0.090559	0.584625	0.077928
N179	N	0.146430	0.509368	0.108686
H180	H	0.701061	0.456995	-0.067366
H181	H	-0.063433	0.940144	-0.067355
C182	C	0.555803	0.238864	0.077949
N183	N	0.525048	0.269593	0.108698
C184	C	0.555772	0.083169	0.077918
N185	N	0.524985	0.052496	0.108636
C186	C	0.555731	0.966093	-0.456810
N187	N	0.524970	1.041346	-0.512675
C188	C	0.555702	0.966098	-0.329525
N189	N	0.524936	1.041357	-0.335175
C190	C	0.711677	0.584628	-0.300918
N191	N	0.742442	0.509378	-0.295278
C192	C	0.711657	0.584622	-0.173623
N193	N	0.742412	0.509368	-0.117760
H194	H	0.701157	0.610574	-0.672442
H195	H	0.701060	0.093723	-0.067355
C196	C	1.076218	0.234013	-0.000071
N197	N	1.126429	0.172567	-0.000083
C198	C	1.090572	0.311845	0.077896
N199	N	1.146454	0.281096	0.108650
C200	C	0.934585	0.311903	-0.078001
N201	N	0.928913	0.281193	-0.108756
H202	H	0.566439	0.456968	0.192885
H203	H	-0.038678	0.610584	0.067323
C204	C	0.711811	0.311887	0.456781
N205	N	0.742592	0.281175	0.512637
C206	C	1.076372	0.234004	0.442448
N207	N	1.126618	0.172556	0.492656
H208	H	0.566423	0.322440	0.067346
C209	C	0.934791	0.311834	0.456791
N210	N	0.929182	0.281082	0.512666
H211	H	0.961342	0.456979	0.067319
H212	H	0.306152	0.940141	-0.067328
H213	H	0.826595	0.457020	-0.067377
H214	H	0.566417	0.456989	0.067340
