data_functionalizedCrystal
_audit_creation_method	'MofGen! by Chris Wilmer'
_symmetry_space_group_name_H-M	'P1'
_symmetry_Int_Tables_number	1
_symmetry_cell_setting	triclinic
loop_
_symmetry_equiv_pos_as_xyz
  x,y,z
_cell_length_a	10.540558
_cell_length_b	9.616153
_cell_length_c	10.540553
_cell_angle_alpha	90.010668
_cell_angle_beta	84.532245
_cell_angle_gamma	90.003061
loop_
_atom_site_label
_atom_site_type_symbol
_atom_site_fract_x
_atom_site_fract_y
_atom_site_fract_z
O1	O	-1.685884	-0.115646	-0.179001
O2	O	-1.316474	-0.115661	-0.195832
O3	O	-1.509597	-0.115602	-0.002712
O4	O	-1.492761	-0.115705	-0.372121
O5	O	-1.509579	0.115690	-0.002728
O6	O	-1.316456	0.115630	-0.195848
O7	O	-1.685865	0.115646	-0.179017
Zn8	Zn	-1.501157	0.152360	-0.187436
Zn9	Zn	-1.501182	-0.152376	-0.187414
O10	O	-1.492742	0.115586	-0.372138
C11	C	-1.269162	-0.000017	-0.194573
C12	C	-1.128215	-0.000020	-0.190782
N13	N	-1.501150	0.360335	-0.187449
C14	C	-1.397796	0.419345	-0.290741
C15	C	-1.397441	0.580512	-0.290447
C16	C	-1.471584	0.581156	-0.054538
C17	C	-1.470823	0.419938	-0.055163
C18	C	-1.634412	0.419717	-0.215837
C19	C	-1.633565	0.580945	-0.218818
C20	C	-0.944783	0.000563	-0.045853
C21	C	-1.091400	0.000024	-0.049697
C22	C	-1.066557	-0.132112	-0.258663
C23	C	-0.920014	-0.132205	-0.253838
C24	C	-0.919504	0.130816	-0.256727
C25	C	-1.066485	0.132545	-0.258036
C26	C	-0.733179	0.000002	-0.180260
C27	C	-0.874132	0.000007	-0.184001
C28	C	-1.508322	0.000054	0.044583
C29	C	-1.504532	0.000085	0.185530
N30	N	-1.501180	0.639649	-0.187413
C31	C	-1.363517	0.000078	0.222210
C32	C	-1.359530	-0.000442	0.368810
C33	C	-1.568899	-0.131724	0.394858
C34	C	-1.571909	-0.131840	0.248094
C35	C	-1.573940	0.131191	0.248213
C36	C	-1.567408	0.132929	0.394559
C37	C	-1.494001	-0.000022	0.580566
C38	C	-1.497739	0.000091	0.439612
H39	H	-1.415168	0.620061	-0.389163
H40	H	-1.109151	-0.230392	-0.211495
H41	H	-1.670661	-0.136243	0.442208
C42	C	-0.881909	-0.265552	-0.186021
N43	N	-0.853215	-0.365990	-0.134935
C44	C	-1.568597	0.367197	0.051923
N45	N	-1.642231	0.327479	0.132586
H46	H	-1.310284	-0.094317	0.178755
H47	H	-0.872051	-0.138227	-0.355299
H48	H	-1.523873	-0.230756	0.207925
H49	H	-0.872283	0.131680	-0.358627
H50	H	-1.714146	0.621199	-0.148586
H51	H	-0.887948	0.230940	-0.211074
C52	C	-1.570546	0.632912	0.051918
N53	N	-1.645084	0.671900	0.132100
H54	H	-1.090716	0.140490	-0.360897
C55	C	-1.497454	0.264675	0.433211
N56	N	-1.444762	0.363904	0.462331
H57	H	-1.711335	0.381546	-0.140535
C58	C	-1.711563	-0.139443	0.216967
N59	N	-1.816748	-0.145183	0.193528
H60	H	-1.088916	-0.137056	-0.362271
H61	H	-1.107437	0.230266	-0.208446
H62	H	-0.914580	-0.093611	0.009655
H63	H	-0.916187	0.095297	0.009878
C64	C	-1.284336	0.127175	0.408452
N65	N	-1.227689	0.223296	0.438302
H66	H	-1.309362	0.094581	0.180245
H67	H	-1.415233	0.380565	-0.389793
H68	H	-1.304173	-0.095491	0.397265
C69	C	-1.264965	0.364678	-0.266324
N70	N	-1.164917	0.323507	-0.247924
H71	H	-1.668283	0.141298	0.443587
C72	C	-1.263877	0.632661	-0.265686
N73	N	-1.163271	0.671938	-0.247032
C74	C	-1.502960	-0.264757	0.436596
N75	N	-1.453286	-0.364954	0.468028
C76	C	-1.147807	-0.128086	0.022983
N77	N	-1.190292	-0.224585	0.077727
C78	C	-1.148959	0.127940	0.022473
N79	N	-1.192308	0.224287	0.076841
H80	H	-1.373616	0.382364	-0.030411
C81	C	-1.514480	0.266202	0.190869
N82	N	-1.469680	0.367885	0.147675
H83	H	-1.677688	0.132476	0.226011
H84	H	-1.375500	0.621571	-0.029209
C85	C	-1.672589	0.364772	-0.344081
N86	N	-1.701329	0.323387	-0.440680
H87	H	-1.655996	0.619151	-0.316585
