data_functionalizedCrystal
_audit_creation_method	'MofGen! by Chris Wilmer'
_symmetry_space_group_name_H-M	'P1'
_symmetry_Int_Tables_number	1
_symmetry_cell_setting	triclinic
loop_
_symmetry_equiv_pos_as_xyz
  x,y,z
_cell_length_a	16.959455
_cell_length_b	16.959447
_cell_length_c	10.686285
_cell_angle_alpha	94.393558
_cell_angle_beta	94.371768
_cell_angle_gamma	89.979626
loop_
_atom_site_label
_atom_site_type_symbol
_atom_site_fract_x
_atom_site_fract_y
_atom_site_fract_z
Zn1	Zn	1.232602	-0.422959	0.502425
Zn2	Zn	1.242696	-0.280668	0.713454
Zn3	Zn	1.100432	-0.290781	0.502465
Zn4	Zn	1.110562	-0.412797	0.713360
O5	O	1.171573	-0.351801	0.607926
O6	O	1.344553	-0.404104	0.530441
O7	O	1.223809	-0.171396	0.685522
O8	O	1.109500	-0.316800	0.325883
O9	O	1.351969	-0.299563	0.685483
O10	O	1.206605	-0.413911	0.325854
O11	O	1.119289	-0.178826	0.530509
O12	O	0.991164	-0.306946	0.530418
O13	O	1.126766	-0.524758	0.685323
O14	O	0.998606	-0.396590	0.685362
O15	O	1.216428	-0.532225	0.530350
O16	O	1.233632	-0.289709	0.890018
O17	O	1.136554	-0.386784	0.889949
C18	C	0.966205	-0.351763	0.607885
C19	C	0.878349	-0.351764	0.607898
C20	C	0.510722	-0.297345	0.688577
C21	C	0.503032	-0.406349	0.527381
C22	C	0.585577	-0.406330	0.527360
C23	C	0.630698	-0.351819	0.607950
C24	C	0.593274	-0.297326	0.688561
C25	C	0.623008	-0.460828	0.446759
C26	C	0.705558	-0.460812	0.446736
C27	C	0.750680	-0.406297	0.527321
C28	C	0.713251	-0.351801	0.607934
C29	C	0.758372	-0.297290	0.688524
C30	C	0.720944	-0.242790	0.769132
C31	C	0.638397	-0.242811	0.769146
C32	C	0.833228	-0.406275	0.527308
C33	C	0.840925	-0.297271	0.688509
C34	C	1.171601	-0.557974	0.607822
C35	C	1.171613	-0.645833	0.607777
C36	C	1.125018	-1.013431	0.688331
C37	C	1.218383	-1.021200	0.526957
C38	C	1.218364	-0.938653	0.526984
C39	C	1.171671	-0.893491	0.607687
C40	C	1.124998	-0.930875	0.688363
C41	C	1.265042	-0.901262	0.446318
C42	C	1.265025	-0.818709	0.446342
C43	C	1.218327	-0.773546	0.527040
C44	C	1.171652	-0.810935	0.607719
C45	C	1.124959	-0.765773	0.688422
C46	C	1.078279	-0.803162	0.769095
C47	C	1.078301	-0.885712	0.769061
C48	C	1.218305	-0.690996	0.527074
C49	C	1.124940	-0.683218	0.688454
C50	C	1.377743	-0.351839	0.607968
C51	C	1.465601	-0.351856	0.607986
C52	C	1.187309	-0.336064	0.935768
C53	C	1.194113	-0.329358	1.076020
C54	C	1.171586	-0.146434	0.607939
C55	C	1.171710	-0.058593	0.607628
C56	C	1.155797	-0.367617	0.278804
C57	C	1.149074	-0.374357	0.138552
H58	H	0.877657	-0.252879	0.754132
Br59	Br	1.267053	-0.256576	1.165625
H60	H	1.256403	-1.057976	0.461259
Br61	Br	1.014958	-0.936458	0.878540
H62	H	0.757693	-0.198410	0.834755
Br63	Br	1.061664	-1.064168	0.797805
H64	H	1.086909	-0.646453	0.754162
Br65	Br	0.587598	-0.168854	0.878533
H66	H	0.480244	-0.252970	0.754202
H67	H	1.303034	-0.788275	0.380652
H68	H	0.466290	-0.450733	0.461775
H69	H	0.586265	-0.505212	0.381155
Br70	Br	0.756345	-0.534775	0.337344
H71	H	0.863698	-0.450650	0.461681
H72	H	1.040266	-0.766379	0.834809
Br73	Br	1.328415	-0.962555	0.336812
H74	H	1.105308	-0.418014	1.084793
Br75	Br	1.281659	-0.640256	0.417611
