data_functionalizedCrystal
_audit_creation_method	'MofGen! by Chris Wilmer'
_symmetry_space_group_name_H-M	'P1'
_symmetry_Int_Tables_number	1
_symmetry_cell_setting	triclinic
loop_
_symmetry_equiv_pos_as_xyz
  x,y,z
_cell_length_a	10.967829
_cell_length_b	17.000371
_cell_length_c	15.500227
_cell_angle_alpha	87.380458
_cell_angle_beta	80.745879
_cell_angle_gamma	80.258122
loop_
_atom_site_label
_atom_site_type_symbol
_atom_site_fract_x
_atom_site_fract_y
_atom_site_fract_z
O1	O	0.038251	1.060308	-0.077650
O2	O	0.082938	0.829162	-0.084313
O3	O	-0.119331	0.948705	-0.054153
O4	O	0.240520	0.940765	-0.107809
O5	O	-0.107102	0.941450	0.087912
O6	O	0.095168	0.821908	0.057753
O7	O	0.050480	1.053053	0.064415
Cu8	Cu	0.073940	0.936818	0.074056
Cu9	Cu	0.059478	0.945398	-0.093953
O10	O	0.252750	0.933511	0.034256
C11	C	0.091453	0.795913	-0.013638
C12	C	0.098591	0.707648	-0.014702
C13	C	-0.011245	0.674179	0.001677
C14	C	-0.004532	0.591245	0.000669
C15	C	0.112019	0.541780	-0.016711
C16	C	0.221863	0.575255	-0.033093
C17	C	0.215148	0.658188	-0.032092
C18	C	0.137956	0.290976	-0.020584
C19	C	0.144663	0.208037	-0.021581
C20	C	-0.081733	0.224033	0.012180
C21	C	-0.088437	0.306966	0.013185
C22	C	0.021406	0.340434	-0.003202
C23	C	0.118884	0.457008	-0.017738
C24	C	0.014539	0.425205	-0.002181
C25	C	-0.159033	0.943952	0.023709
C26	C	-0.295551	0.940588	0.044059
C27	C	-0.362743	0.942846	-0.020463
C28	C	-0.503841	0.939369	0.000568
C29	C	0.292451	0.938264	-0.043608
C30	C	0.428968	0.941628	-0.063964
C31	C	0.041965	1.086303	-0.006261
C32	C	0.034827	1.174568	-0.005203
N33	N	0.084111	0.930789	0.192224
N34	N	0.049297	0.951432	-0.212120
C35	C	-0.001570	0.981462	0.250276
C36	C	0.006132	0.976910	0.339701
C37	C	0.099523	0.921689	0.371070
C38	C	0.185208	0.871011	0.313011
C39	C	0.177499	0.875559	0.223589
C40	C	0.127273	0.905303	0.640399
C41	C	0.134978	0.900760	0.729828
C42	C	-0.044100	1.006659	0.756512
C43	C	-0.051796	1.011206	0.667086
C44	C	0.033885	0.960525	0.609036
C45	C	0.107401	0.917037	0.462476
C46	C	0.026001	0.965174	0.517633
H47	H	-0.183345	0.347235	0.027341
H48	H	-0.080356	0.465483	0.011965
O49	O	-0.351321	0.935176	0.128584
C50	C	-0.324872	0.927707	0.280252
C51	C	-0.261553	0.933818	0.184564
H52	H	-0.252329	0.926624	0.325539
H53	H	-0.367265	0.870577	0.290498
H54	H	-0.401933	0.981460	0.295557
H55	H	-0.184442	0.880107	0.169193
H56	H	-0.219246	0.990981	0.174367
O57	O	-0.514917	0.946843	-0.148432
C58	C	-0.356397	0.886206	-0.262994
C59	C	-0.419798	0.880249	-0.167308
H60	H	-0.279498	0.832364	-0.278291
H61	H	-0.313819	0.943265	-0.273306
H62	H	-0.429010	0.887375	-0.308245
H63	H	-0.347261	0.879047	-0.121997
H64	H	-0.462402	0.823198	-0.157067
H65	H	0.261245	0.826044	0.338558
O66	O	-0.111345	0.558861	0.016642
C67	C	-0.336610	0.583480	0.050196
C68	C	-0.215736	0.620257	0.032141
H69	H	-0.421042	0.633102	0.062714
H70	H	-0.334086	0.542043	0.110051
H71	H	-0.344184	0.548064	-0.008878
H72	H	-0.208085	0.655713	0.091163
H73	H	-0.218312	0.661651	-0.027746
O74	O	-0.092401	1.035127	0.219958
C75	C	-0.269166	1.139712	0.255867
C76	C	-0.166375	1.078962	0.290317
H77	H	-0.328985	1.175180	0.312732
H78	H	-0.330685	1.106760	0.222674
H79	H	-0.223860	1.182209	0.206671
H80	H	-0.211575	1.036448	0.339545
H81	H	-0.104867	1.111966	0.323457
H82	H	0.247268	0.834295	0.176323
O83	O	-0.077204	1.026027	0.396142
C84	C	-0.238444	1.035625	0.522479
C85	C	-0.144136	0.979906	0.458612
H86	H	-0.292565	0.998358	0.573013
H87	H	-0.306590	1.075862	0.484743
H88	H	-0.185921	1.073911	0.556998
H89	H	-0.196553	0.941569	0.424076
H90	H	-0.075992	0.939723	0.496396
O91	O	-0.127508	1.055847	0.812836
C92	C	-0.344256	1.098169	0.872912
C93	C	-0.249924	1.042436	0.809074
H94	H	-0.443248	1.087334	0.869905
H95	H	-0.336690	1.162951	0.853946
H96	H	-0.322646	1.085443	0.942199
H97	H	-0.271472	1.055090	0.739767
H98	H	-0.257510	0.977672	0.828115
H99	H	-0.127842	1.056171	0.641548
O100	O	0.225734	0.847037	0.760163
C101	C	0.402562	0.742493	0.724262
C102	C	0.299837	0.803282	0.689793
H103	H	0.462518	0.707112	0.667383
H104	H	0.357326	0.699919	0.773400
H105	H	0.463947	0.775490	0.757524
H106	H	0.238418	0.770352	0.656489
H107	H	0.345154	0.845853	0.640697
H108	H	0.213780	0.416725	-0.031888
O109	O	0.210550	0.856196	0.583919
C110	C	0.371906	0.846622	0.457653
C111	C	0.277617	0.902327	0.521545
H112	H	0.426173	0.883897	0.407218
H113	H	0.319488	0.808355	0.423019
H114	H	0.439925	0.806366	0.495467
H115	H	0.209574	0.942633	0.483797
H116	H	0.330118	0.940539	0.556179
O117	O	-0.064668	1.018906	0.487236
C118	C	-0.154003	1.157542	0.472704
C119	C	-0.051279	1.096781	0.507212
H120	H	-0.143197	1.220519	0.488825
H121	H	-0.250032	1.145066	0.504847
H122	H	-0.144774	1.152022	0.398827
H123	H	-0.060389	1.102267	0.581083
H124	H	0.044710	1.109276	0.475003
H125	H	0.304589	0.685437	-0.045425
H126	H	-0.106154	0.714447	0.015833
H127	H	0.183443	0.872076	0.488024
H128	H	-0.171163	0.196774	0.025511
H129	H	0.239578	0.167764	-0.035731
H130	H	0.227398	0.318215	-0.033933
H131	H	0.316761	0.534975	-0.047250
H132	H	-0.315810	0.947350	-0.091273
O133	O	-0.559708	0.933849	0.085059
C134	C	-0.566343	0.857508	0.220115
C135	C	-0.502987	0.863653	0.124440
H136	H	-0.520492	0.800768	0.251988
H137	H	-0.670160	0.855606	0.222080
H138	H	-0.555227	0.911643	0.257124
H139	H	-0.514006	0.809532	0.087373
H140	H	-0.399195	0.865593	0.122540
