data_functionalizedCrystal
_audit_creation_method	'MofGen! by Chris Wilmer'
_symmetry_space_group_name_H-M	'P1'
_symmetry_Int_Tables_number	1
_symmetry_cell_setting	triclinic
loop_
_symmetry_equiv_pos_as_xyz
  x,y,z
_cell_length_a	12.759395
_cell_length_b	16.625545
_cell_length_c	12.759387
_cell_angle_alpha	90.033397
_cell_angle_beta	89.978574
_cell_angle_gamma	89.975275
loop_
_atom_site_label
_atom_site_type_symbol
_atom_site_fract_x
_atom_site_fract_y
_atom_site_fract_z
Zn1	Zn	1.606201	0.320944	-0.594012
Zn2	Zn	1.606063	0.455800	-0.418324
Zn3	Zn	1.430499	0.320986	-0.418346
Zn4	Zn	1.430462	0.455740	-0.593961
O5	O	1.518306	0.388368	-0.506161
O6	O	1.753203	0.338840	-0.570719
O7	O	1.582731	0.437959	-0.271306
O8	O	1.453879	0.208148	-0.441679
O9	O	1.753102	0.437918	-0.441642
O10	O	1.582966	0.208117	-0.570740
O11	O	1.453745	0.338912	-0.271322
O12	O	1.283473	0.338854	-0.441629
O13	O	1.453817	0.437817	-0.740989
O14	O	1.283446	0.437858	-0.570652
O15	O	1.582931	0.338783	-0.741026
O16	O	1.582696	0.568624	-0.441592
O17	O	1.453683	0.568581	-0.570632
C18	C	1.245339	0.388355	-0.506138
C19	C	1.128562	0.388369	-0.506154
C20	C	0.909149	0.491646	-0.640328
C21	C	0.964026	0.543268	-0.707391
C22	C	1.073748	0.543258	-0.707377
C23	C	1.128595	0.491622	-0.640292
C24	C	1.073718	0.440000	-0.573229
C25	C	0.963993	0.440014	-0.573252
C26	C	1.073685	0.336747	-0.439091
C27	C	0.963963	0.336751	-0.439108
C28	C	1.128531	0.285111	-0.372006
C29	C	1.073654	0.233484	-0.304947
C30	C	0.963926	0.233495	-0.304964
C31	C	0.909086	0.285129	-0.372046
C32	C	1.518199	0.597858	-0.506127
C33	C	1.518250	0.687480	-0.506148
C34	C	1.518421	1.015655	-0.506273
C35	C	1.518370	0.924347	-0.506241
C36	C	1.518335	0.851570	-0.506210
C37	C	1.518285	0.760256	-0.506179
C38	C	1.792339	0.388381	-0.506184
C39	C	1.909116	0.388387	-0.506194
C40	C	1.518385	0.388289	-0.780194
C41	C	1.518419	0.388255	-0.896971
C42	C	1.518433	1.178059	-0.506230
C43	C	1.518464	1.088438	-0.506291
C44	C	1.652875	0.285138	-0.897030
C45	C	1.720117	0.233567	-0.951920
C46	C	1.720143	0.233537	-1.061642
C47	C	1.652916	0.285083	-1.116476
C48	C	1.585674	0.336653	-1.061586
C49	C	1.585658	0.336679	-0.951861
C50	C	1.451215	0.439765	-1.061527
C51	C	1.451193	0.439800	-0.951805
C52	C	1.383988	0.491311	-1.116361
C53	C	1.316750	0.542887	-1.061470
C54	C	1.316728	0.542915	-0.951742
C55	C	1.383951	0.491371	-0.896915
C56	C	1.518287	0.388388	-0.233193
C57	C	1.518457	0.388195	-0.116417
H58	H	1.217936	0.491626	-0.640278
Br59	Br	1.277440	0.285102	-0.371979
Br60	Br	0.760177	0.285144	-0.372081
Br61	Br	0.889459	0.163440	-0.213936
Br62	Br	1.811318	0.163592	-0.877500
H63	H	0.919358	0.585310	-0.762008
H64	H	1.652871	0.285164	-0.807689
H65	H	1.652934	0.285047	-1.205817
Br66	Br	1.384019	0.491270	-1.265270
H67	H	1.118319	0.191450	-0.250327
Br68	Br	0.760240	0.491650	-0.640368
Br69	Br	1.811379	0.163533	-1.136141
H70	H	1.118429	0.585295	-0.761983
Br71	Br	1.225515	0.612827	-1.135891
Br72	Br	1.225456	0.612901	-0.877257
H73	H	1.383944	0.491392	-0.807573
