data_functionalizedCrystal
_audit_creation_method	'MofGen! by Chris Wilmer'
_symmetry_space_group_name_H-M	'P1'
_symmetry_Int_Tables_number	1
_symmetry_cell_setting	triclinic
loop_
_symmetry_equiv_pos_as_xyz
  x,y,z
_cell_length_a	6.817900
_cell_length_b	16.417825
_cell_length_c	16.306216
_cell_angle_alpha	95.379646
_cell_angle_beta	103.467292
_cell_angle_gamma	103.385495
loop_
_atom_site_label
_atom_site_type_symbol
_atom_site_fract_x
_atom_site_fract_y
_atom_site_fract_z
V1	V	-4.025936	-0.116541	-0.263323
O2	O	-4.013959	0.004926	-0.258006
O3	O	-3.976984	-0.230433	-0.261815
O4	O	-3.977392	-0.115044	-0.378034
O5	O	-4.013548	-0.111262	-0.140983
V6	V	-4.509654	-0.101977	-0.248655
O7	O	-4.286766	-0.148488	-0.295500
O8	O	-4.699021	-0.070030	-0.216478
O9	O	-4.335400	0.011915	-0.250163
O10	O	-4.639028	-0.223445	-0.253971
O11	O	-4.639439	-0.107257	-0.370995
O12	O	-4.334992	-0.103474	-0.133944
C13	C	-3.821855	-0.258189	-0.257736
C14	C	-3.863116	-0.351299	-0.257268
C15	C	-3.822375	-0.110998	-0.405984
C16	C	-3.863965	-0.110527	-0.499763
C17	C	-3.918000	-0.553368	-0.178921
C18	C	-3.956792	-0.640856	-0.178488
C19	C	-4.036971	-0.665151	-0.333066
C20	C	-3.998193	-0.577665	-0.333499
C21	C	-3.938697	-0.521775	-0.256424
C22	C	-4.016267	-0.696749	-0.255557
C23	C	-4.058327	-0.791608	-0.255087
C24	C	-3.896638	-0.426910	-0.256893
C25	C	-4.014929	-0.108840	-0.840511
C26	C	-4.219325	-0.114396	-0.810077
C27	C	-4.176054	-0.114564	-0.712486
C28	C	-3.940035	-0.109677	-0.671462
C29	C	-3.804684	-0.026603	-0.691457
C30	C	-3.849313	-0.026086	-0.789053
C31	C	-3.928011	-0.186063	-0.814591
C32	C	-3.889439	-0.187702	-0.717278
C33	C	-3.897696	-0.110148	-0.575922
C34	C	-4.057259	-0.108364	-0.936050
C35	C	-4.153871	0.039665	-0.254239
C36	C	-4.091848	0.132775	-0.254713
C37	C	-4.153351	-0.107524	-0.105989
C38	C	-4.091000	-0.107990	-0.012210
H39	H	-3.869555	-0.507864	-0.116162
F40	F	-3.934769	-0.674475	-0.095999
H41	H	-3.630984	-0.020005	-0.663951
F42	F	-4.100284	-0.724640	-0.415090
F43	F	-3.729883	-0.181755	-0.839870
H44	H	-4.015061	-0.551943	-0.396615
H45	H	-4.286354	-0.058928	-0.827486
H46	H	-4.281126	-0.174277	-0.699770
H47	H	-4.346057	-0.173912	-0.844790
F48	F	-4.235995	-0.041834	-0.672599
H49	H	-3.905849	0.032329	-0.804065
F50	F	-3.649490	-0.016300	-0.814161
F51	F	-3.849098	0.049150	-0.649392
F52	F	-4.075697	-0.267659	-0.861649
F53	F	-4.020564	-0.267980	-0.701899
F54	F	-3.668685	-0.189382	-0.681455
