data_functionalizedCrystal
_audit_creation_method	'MofGen! by Chris Wilmer'
_symmetry_space_group_name_H-M	'P1'
_symmetry_Int_Tables_number	1
_symmetry_cell_setting	triclinic
loop_
_symmetry_equiv_pos_as_xyz
  x,y,z
_cell_length_a	19.805407
_cell_length_b	29.839131
_cell_length_c	19.805407
_cell_angle_alpha	90.015304
_cell_angle_beta	90.009221
_cell_angle_gamma	90.041420
loop_
_atom_site_label
_atom_site_type_symbol
_atom_site_fract_x
_atom_site_fract_y
_atom_site_fract_z
Zn1	Zn	1.034596	-0.178927	0.382710
Zn2	Zn	1.534596	0.321073	0.882710
Zn3	Zn	1.034502	-0.254036	0.269518
Zn4	Zn	1.534502	0.245964	0.769518
Zn5	Zn	0.921431	-0.178921	0.269535
Zn6	Zn	1.421431	0.321079	0.769535
Zn7	Zn	0.921344	-0.254031	0.382665
Zn8	Zn	1.421344	0.245969	0.882665
O9	O	0.977968	-0.216479	0.326107
O10	O	1.477968	0.283521	0.826107
O11	O	1.129300	-0.188895	0.367707
O12	O	1.629300	0.311105	0.867707
O13	O	1.019499	-0.244071	0.174804
O14	O	1.519499	0.255929	0.674804
O15	O	0.936518	-0.116054	0.284574
O16	O	1.436518	0.383946	0.784574
O17	O	1.129231	-0.244077	0.284545
O18	O	1.629231	0.255923	0.784545
O19	O	1.019660	-0.116059	0.367723
O20	O	1.519660	0.383941	0.867723
O21	O	0.936427	-0.188884	0.174816
O22	O	1.436427	0.311116	0.674816
O23	O	0.826703	-0.188879	0.284530
O24	O	1.326703	0.311121	0.784530
O25	O	0.936371	-0.244069	0.477387
O26	O	1.436371	0.255931	0.977387
O27	O	0.826639	-0.244062	0.367646
O28	O	1.326639	0.255938	0.867646
O29	O	1.019576	-0.188890	0.477421
O30	O	1.519576	0.311110	0.977421
O31	O	1.019415	-0.316902	0.284501
O32	O	1.519415	0.183098	0.784501
O33	O	0.936279	-0.316899	0.367629
O34	O	1.436279	0.183101	0.867629
C35	C	0.802112	-0.216470	0.326085
C36	C	1.302112	0.283530	0.826085
C37	C	0.726880	-0.216477	0.326092
C38	C	1.226880	0.283523	0.826092
C39	C	0.691521	-0.245254	0.369300
C40	C	1.191521	0.254746	0.869300
C41	C	0.620832	-0.245255	0.369310
C42	C	1.120832	0.254745	0.869310
C43	C	0.585505	-0.216481	0.326107
C44	C	1.085505	0.283519	0.826107
C45	C	0.620869	-0.187700	0.282896
C46	C	1.120869	0.312300	0.782896
C47	C	0.691556	-0.187698	0.282891
C48	C	1.191556	0.312302	0.782891
C49	C	0.335796	-0.187710	0.282919
C50	C	0.835796	0.312290	0.782919
C51	C	0.265104	-0.187716	0.282926
C52	C	0.765104	0.312284	0.782926
C53	C	0.265072	-0.245268	0.369338
C54	C	0.765072	0.254732	0.869338
C55	C	0.335759	-0.245265	0.369332
C56	C	0.835759	0.254735	0.869332
C57	C	0.371117	-0.216483	0.326125
C58	C	0.871117	0.283517	0.826125
C59	C	0.447766	-0.216482	0.326116
C60	C	0.947766	0.283518	0.826116
C61	C	0.508857	-0.216484	0.326112
C62	C	1.008857	0.283516	0.826112
C63	C	0.977846	-0.333201	0.326073
C64	C	1.477846	0.166799	0.826073
C65	C	0.977856	-0.383136	0.326082
C66	C	1.477856	0.116864	0.826082
C67	C	1.021336	-0.692768	0.282885
C68	C	1.521336	-0.192768	0.782885
C69	C	1.021419	-0.880441	0.282911
C70	C	1.521419	-0.380441	0.782911
O71	O	1.058291	-0.904697	0.246158
O72	O	1.558291	-0.404697	0.746158
N73	N	0.978109	-0.903921	0.326158
N74	N	1.478109	-0.403921	0.826158
C75	C	0.934777	-0.880479	0.369404
C76	C	1.434777	-0.380479	0.869404
O77	O	0.897945	-0.904756	0.406193
O78	O	1.397945	-0.404756	0.906193
C79	C	0.934697	-0.692807	0.369381
C80	C	1.434697	-0.192807	0.869381
C81	C	0.978006	-0.669330	0.326127
C82	C	1.478006	-0.169330	0.826127
C83	C	1.064642	-0.669291	0.239635
C84	C	1.564642	-0.169291	0.739635
C85	C	1.064618	-0.622376	0.239626
C86	C	1.564618	-0.122376	0.739626
C87	C	1.021288	-0.598937	0.282868
C88	C	1.521288	-0.098937	0.782868
C89	C	0.977982	-0.622414	0.326118
C90	C	1.477982	-0.122414	0.826118
C91	C	0.891369	-0.669366	0.412630
C92	C	1.391369	-0.169366	0.912630
C93	C	0.891355	-0.622445	0.412621
C94	C	1.391355	-0.122445	0.912621
C95	C	0.934663	-0.598968	0.369367
C96	C	1.434663	-0.098968	0.869367
C97	C	0.934628	-0.552060	0.369350
C98	C	1.434628	-0.052060	0.869350
N99	N	0.977939	-0.528581	0.326104
N100	N	1.477939	-0.028581	0.826104
C101	C	1.021269	-0.552020	0.282863
C102	C	1.521269	-0.052020	0.782863
C103	C	0.934821	-0.979009	0.369412
C104	C	1.434821	-0.479009	0.869412
C105	C	0.934840	-1.025927	0.369417
C106	C	1.434840	-0.525927	0.869417
C107	C	1.021483	-1.025887	0.282926
C108	C	1.521483	-0.525887	0.782926
C109	C	1.021460	-0.978968	0.282917
C110	C	1.521460	-0.478968	0.782917
C111	C	0.978132	-0.955530	0.326166
C112	C	1.478132	-0.455530	0.826166
C113	C	1.021215	-0.453494	0.282847
C114	C	1.521215	0.046506	0.782847
C115	C	1.021185	-0.406574	0.282840
C116	C	1.521185	0.093426	0.782840
C117	C	0.934545	-0.406619	0.369334
C118	C	1.434545	0.093381	0.869334
C119	C	0.934572	-0.453534	0.369339
C120	C	1.434572	0.046466	0.869339
C121	C	0.977912	-0.476971	0.326093
C122	C	1.477912	0.023029	0.826093
O123	O	0.897782	-0.527776	0.406089
O124	O	1.397782	-0.027776	0.906089
O125	O	1.058106	-0.527735	0.246089
O126	O	1.558106	-0.027735	0.746089
C127	C	1.021360	-0.739684	0.282894
C128	C	1.521360	-0.239684	0.782894
C129	C	0.978054	-0.763161	0.326144
C130	C	1.478054	-0.263161	0.826144
C131	C	0.934724	-0.739722	0.369385
C132	C	1.434724	-0.239722	0.869385
C133	C	0.978073	-0.810078	0.326149
C134	C	1.478073	-0.310078	0.826149
C135	C	1.021403	-0.833517	0.282908
C136	C	1.521403	-0.333517	0.782908
C137	C	1.064713	-0.810038	0.239661
C138	C	1.564713	-0.310038	0.739661
C139	C	1.064689	-0.763122	0.239653
C140	C	1.564689	-0.263122	0.739653
C141	C	0.891413	-0.763201	0.412632
C142	C	1.391413	-0.263201	0.912632
C143	C	0.891440	-0.810117	0.412636
C144	C	1.391440	-0.310117	0.912636
C145	C	0.934770	-0.833555	0.369395
C146	C	1.434770	-0.333555	0.869395
C147	C	1.154511	-0.216488	0.326129
C148	C	1.654511	0.283512	0.826129
C149	C	1.229743	-0.216491	0.326139
C150	C	1.729743	0.283509	0.826139
C151	C	0.977974	-0.216479	0.502650
C152	C	1.477974	0.283521	1.002650
C153	C	0.977977	-0.216480	0.577882
C154	C	1.477977	0.283520	1.077882
C155	C	0.978109	-0.099300	0.326155
C156	C	1.478109	0.400700	0.826155
C157	C	0.978169	-0.049366	0.326176
C158	C	1.478169	0.450634	0.826176
C159	C	1.021296	-0.187753	0.613244
C160	C	1.521296	0.312247	1.113244
C161	C	1.021291	-0.187752	0.683933
C162	C	1.521291	0.312248	1.183933
C163	C	0.977968	-0.216480	0.719257
C164	C	1.477968	0.283520	1.219257
C165	C	0.934644	-0.245208	0.683890
C166	C	1.434644	0.254792	1.183890
C167	C	0.934647	-0.245207	0.613202
C168	C	1.434647	0.254793	1.113202
C169	C	0.934630	-0.245213	0.968963
C170	C	1.434630	0.254787	1.468963
C171	C	0.934632	-0.245213	1.039655
C172	C	1.434632	0.254787	1.539655
C173	C	1.021274	-0.187758	1.039693
C174	C	1.521274	0.312242	1.539693
C175	C	1.021277	-0.187757	0.969006
C176	C	1.521277	0.312243	1.469006
C177	C	0.977951	-0.216483	0.933644
C178	C	1.477951	0.283517	1.433644
C179	C	0.977957	-0.216484	0.856996
C180	C	1.477957	0.283516	1.356996
C181	C	0.977965	-0.216482	0.795904
C182	C	1.477965	0.283518	1.295904
C183	C	0.977956	-0.216487	1.150251
C184	C	1.477956	0.283513	1.650251
C185	C	0.977949	-0.216484	1.075019
C186	C	1.477949	0.283516	1.575019
H187	H	0.592100	-0.164270	0.247723
H188	H	1.092100	0.335730	0.747723
H189	H	1.056557	-0.164365	0.940248
H190	H	1.556557	0.335635	1.440248
Br191	Br	1.123456	-0.701092	0.180944
Br192	Br	1.623456	-0.201092	0.680944
H193	H	0.592046	-0.268688	0.404494
H194	H	1.092046	0.231312	0.904494
Br195	Br	0.876051	-1.057783	0.428112
Br196	Br	1.376051	-0.557783	0.928112
Br197	Br	0.217159	-0.148663	0.224289
Br198	Br	0.717159	0.351337	0.724289
Br199	Br	0.383773	-0.148647	0.224284
Br200	Br	0.883773	0.351353	0.724284
Br201	Br	1.080285	-1.057705	0.224239
Br202	Br	1.580285	-0.557705	0.724239
Br203	Br	1.080075	-0.148771	1.087687
Br204	Br	1.580075	0.351229	1.587687
H205	H	0.899536	-0.959929	0.404631
H206	H	1.399536	-0.459929	0.904631
Br207	Br	1.080100	-0.148766	0.565311
Br208	Br	1.580100	0.351234	1.065311
H209	H	0.720345	-0.164262	0.247710
H210	H	1.220345	0.335738	0.747710
Br211	Br	0.875844	-0.284194	0.731829
Br212	Br	1.375844	0.215806	1.231829
Br213	Br	1.079964	-0.374715	0.224133
Br214	Br	1.579964	0.125285	0.724133
H215	H	0.899364	-0.268595	0.584411
H216	H	1.399364	0.231405	1.084411
Br217	Br	0.832656	-0.841972	0.471342
Br218	Br	1.332656	-0.341972	0.971342
Br219	Br	0.832604	-0.731399	0.471324
Br220	Br	1.332604	-0.231399	0.971324
Br221	Br	0.739458	-0.284311	0.427931
Br222	Br	1.239458	0.215689	0.927931
H223	H	0.899351	-0.268608	1.068414
H224	H	1.399351	0.231392	1.568414
H225	H	1.056509	-0.472570	0.247634
H226	H	1.556509	0.027430	0.747634
Br227	Br	0.383700	-0.284320	0.427962
Br228	Br	0.883700	0.215680	0.927962
H229	H	0.899361	-0.268611	0.940180
H230	H	1.399361	0.231389	1.440180
H231	H	0.236274	-0.268701	0.404522
H232	H	0.736274	0.231299	0.904522
Br233	Br	1.080238	-0.947111	0.224213
Br234	Br	1.580238	-0.447111	0.724213
Br235	Br	0.832550	-0.590639	0.471322
Br236	Br	1.332550	-0.090639	0.971322
Br237	Br	1.080116	-0.148784	0.731922
Br238	Br	1.580116	0.351216	1.231922
H239	H	1.099885	-0.603264	0.204407
H240	H	1.599885	-0.103264	0.704407
H241	H	0.899308	-0.472650	0.404562
H242	H	1.399308	0.027350	0.904562
Br243	Br	0.875745	-0.374800	0.428019
Br244	Br	1.375745	0.125200	0.928019
Br245	Br	1.123515	-0.841857	0.180974
Br246	Br	1.623515	-0.341857	0.680974
H247	H	0.856099	-0.688472	0.447849
H248	H	1.356099	-0.188472	0.947849
H249	H	1.099956	-0.744011	0.204431
H250	H	1.599956	-0.244011	0.704431
