data_functionalizedCrystal
_audit_creation_method	'MofGen! by Chris Wilmer'
_symmetry_space_group_name_H-M	'P1'
_symmetry_Int_Tables_number	1
_symmetry_cell_setting	triclinic
loop_
_symmetry_equiv_pos_as_xyz
  x,y,z
_cell_length_a	16.109301
_cell_length_b	10.723024
_cell_length_c	14.586319
_cell_angle_alpha	89.997376
_cell_angle_beta	89.999213
_cell_angle_gamma	83.964675
loop_
_atom_site_label
_atom_site_type_symbol
_atom_site_fract_x
_atom_site_fract_y
_atom_site_fract_z
O1	O	1.104075	0.160391	-0.076180
O2	O	0.862130	0.180351	-0.076194
O3	O	0.988683	-0.011279	-0.076183
O4	O	0.977521	0.352021	-0.076191
O5	O	0.988674	-0.011282	0.076297
O6	O	0.862121	0.180348	0.076287
O7	O	1.104066	0.160388	0.076301
Cu8	Cu	0.983093	0.170368	0.090216
Cu9	Cu	0.983103	0.170371	-0.090110
O10	O	0.977513	0.352018	0.076290
C11	C	0.831146	0.179541	0.000044
C12	C	0.738836	0.177117	0.000039
C13	C	0.987866	-0.057770	0.000056
C14	C	0.985436	-0.196292	0.000053
C15	C	0.517200	0.285190	0.000047
C16	C	0.430466	0.282903	0.000053
C17	C	0.449003	0.055540	0.000054
C18	C	0.535735	0.057829	0.000055
C19	C	0.569831	0.172657	0.000047
C20	C	0.396365	0.168081	0.000052
C21	C	0.302324	0.165600	0.000058
C22	C	0.663877	0.175139	0.000042
C23	C	1.056249	-0.272213	0.000055
C24	C	1.053739	-0.415383	0.000052
C25	C	1.135050	0.161198	0.000060
C26	C	1.227359	0.163622	0.000060
C27	C	0.978329	0.398508	0.000049
C28	C	0.980760	0.537031	0.000046
N29	N	0.983091	0.170365	0.217048
N30	N	0.983111	0.170364	-0.216942
C31	C	1.039148	0.085539	0.452059
C32	C	1.039150	0.085536	0.548041
C33	C	0.927048	0.255194	0.548040
C34	C	0.927043	0.255190	0.452061
C35	C	0.983097	0.170364	0.404073
C36	C	0.983105	0.170365	0.596034
C37	C	0.983107	0.170362	0.700101
C38	C	0.983094	0.170365	0.299999
H39	H	0.544958	0.378691	0.000048
H40	H	0.421231	-0.037950	0.000066
H41	H	0.387617	0.374539	0.000056
H42	H	0.920135	-0.397741	0.000050
H43	H	1.084791	0.016463	0.587109
C44	C	0.865397	0.348509	0.600828
C45	C	0.865444	0.348593	0.706401
C46	C	0.803793	0.441914	0.759185
C47	C	0.742093	0.535153	0.706396
C48	C	0.742043	0.535073	0.600816
C49	C	0.803695	0.441751	0.548032
H50	H	0.911120	0.279569	0.745485
H51	H	0.803830	0.441973	0.837343
H52	H	0.696455	0.604235	0.745470
H53	H	0.696368	0.604096	0.561733
H54	H	0.803658	0.441692	0.469875
C55	C	0.593636	-0.065966	0.000052
C56	C	0.556136	-0.192273	0.000048
C57	C	0.614037	-0.316061	0.000049
C58	C	0.709439	-0.313541	0.000053
C59	C	0.746944	-0.187229	0.000057
C60	C	0.689043	-0.063441	0.000056
H61	H	0.485509	-0.194143	0.000045
H62	H	0.586273	-0.409565	0.000046
H63	H	0.752301	-0.405176	0.000054
H64	H	0.817571	-0.185359	0.000060
H65	H	0.716808	0.030064	0.000059
C66	C	1.135640	-0.503502	0.000055
C67	C	1.154797	-0.597111	0.079233
C68	C	1.236701	-0.685234	0.079237
C69	C	1.299448	-0.679748	0.000062
C70	C	1.280292	-0.586135	-0.079122
C71	C	1.198388	-0.498013	-0.079126
H72	H	1.108346	-0.601175	0.137849
H73	H	1.250880	-0.754532	0.137855
H74	H	1.360078	-0.744981	0.000064
H75	H	1.326743	-0.582071	-0.137737
H76	H	1.184209	-0.428714	-0.137743
H77	H	1.118732	-0.231219	0.000065
C78	C	1.100800	-0.007776	0.399272
C79	C	1.162450	-0.101087	0.452062
C80	C	1.224102	-0.194409	0.399278
C81	C	1.224103	-0.194420	0.293704
C82	C	1.162450	-0.101105	0.240908
C83	C	1.100798	-0.007784	0.293692
H84	H	1.162452	-0.101082	0.530219
H85	H	1.269742	-0.263486	0.438361
H86	H	1.269741	-0.263502	0.254630
H87	H	1.162449	-0.101111	0.162751
H88	H	1.055159	0.061293	0.254609
H89	H	0.922953	-0.237286	0.000043
H90	H	0.881395	0.324265	0.412988
