data_functionalizedCrystal
_audit_creation_method	'MofGen! by Chris Wilmer'
_symmetry_space_group_name_H-M	'P1'
_symmetry_Int_Tables_number	1
_symmetry_cell_setting	triclinic
loop_
_symmetry_equiv_pos_as_xyz
  x,y,z
_cell_length_a	17.077404
_cell_length_b	19.076808
_cell_length_c	17.077396
_cell_angle_alpha	87.670636
_cell_angle_beta	89.981638
_cell_angle_gamma	92.321444
loop_
_atom_site_label
_atom_site_type_symbol
_atom_site_fract_x
_atom_site_fract_y
_atom_site_fract_z
Zn1	Zn	1.187483	-0.280255	-0.431246
Zn2	Zn	1.687483	0.219745	0.068754
Zn3	Zn	1.182110	-0.397965	-0.294699
Zn4	Zn	1.682110	0.102035	0.205301
Zn5	Zn	1.056214	-0.280275	-0.299996
Zn6	Zn	1.556214	0.219725	0.200004
Zn7	Zn	1.050905	-0.397918	-0.425927
Zn8	Zn	1.550905	0.102082	0.074073
O9	O	1.119178	-0.339103	-0.362967
O10	O	1.619178	0.160897	0.137033
O11	O	1.296617	-0.295880	-0.413142
O12	O	1.796617	0.204120	0.086858
O13	O	1.165383	-0.382381	-0.185554
O14	O	1.665383	0.117619	0.314446
O15	O	1.078098	-0.181776	-0.321849
O16	O	1.578098	0.318224	0.178151
O17	O	1.292670	-0.382361	-0.312822
O18	O	1.792670	0.117639	0.187178
O19	O	1.174541	-0.181761	-0.418278
O20	O	1.674541	0.318239	0.081722
O21	O	1.072888	-0.295914	-0.189445
O22	O	1.572888	0.204086	0.310555
O23	O	0.945664	-0.295869	-0.316691
O24	O	1.445664	0.204131	0.183309
O25	O	1.069049	-0.382282	-0.536481
O26	O	1.569049	0.117718	-0.036481
O27	O	0.941763	-0.382302	-0.409213
O28	O	1.441763	0.117698	0.090787
O29	O	1.169393	-0.295835	-0.540389
O30	O	1.669393	0.204165	-0.040389
O31	O	1.160235	-0.496455	-0.307664
O32	O	1.660235	0.003545	0.192336
O33	O	1.063839	-0.496421	-0.404077
O34	O	1.563839	0.003579	0.095923
C35	C	0.915231	-0.339083	-0.362950
C36	C	1.415231	0.160917	0.137050
C37	C	0.827981	-0.339092	-0.362961
C38	C	1.327981	0.160908	0.137039
C39	C	0.789044	-0.294141	-0.415271
C40	C	1.289044	0.205859	0.084729
C41	C	0.707063	-0.294145	-0.415274
C42	C	1.207063	0.205855	0.084726
C43	C	0.664021	-0.339105	-0.362971
C44	C	1.164021	0.160895	0.137029
C45	C	0.702964	-0.384057	-0.310656
C46	C	1.202964	0.115943	0.189344
C47	C	0.784944	-0.384049	-0.310649
C48	C	1.284944	0.115951	0.189351
C49	C	0.532094	-0.384073	-0.310674
C50	C	1.032094	0.115927	0.189326
C51	C	0.450109	-0.384083	-0.310682
C52	C	0.950109	0.115917	0.189318
C53	C	0.454213	-0.294170	-0.415300
C54	C	0.954213	0.205830	0.084700
C55	C	0.536192	-0.294161	-0.415293
C56	C	1.036192	0.205839	0.084707
C57	C	0.575130	-0.339115	-0.362978
C58	C	1.075130	0.160885	0.137022
C59	C	1.110899	-0.521977	-0.354736
C60	C	1.610899	-0.021977	0.145264
C61	C	1.107429	-0.600211	-0.351241
C62	C	1.607429	-0.100211	0.148759
C63	C	1.155974	-0.636898	-0.399845
C64	C	1.655974	-0.136898	0.100155
C65	C	1.152711	-0.710407	-0.396563
C66	C	1.652711	-0.210407	0.103437
C67	C	1.100906	-0.747229	-0.344672
C68	C	1.600906	-0.247229	0.155328
C69	C	1.052356	-0.710537	-0.296066
C70	C	1.552356	-0.210537	0.203934
C71	C	1.055616	-0.637029	-0.299353
C72	C	1.555616	-0.137029	0.200647
C73	C	1.085772	-0.967081	-0.329457
C74	C	1.585772	-0.467081	0.170543
C75	C	1.082517	-1.040595	-0.326172
C76	C	1.582517	-0.540595	0.173828
C77	C	1.182871	-1.040459	-0.426670
C78	C	1.682871	-0.540459	0.073330
C79	C	1.186130	-0.966950	-0.429949
C80	C	1.686130	-0.466950	0.070051
C81	C	1.137577	-0.930265	-0.381346
C82	C	1.637577	-0.430265	0.118654
N83	N	1.097570	-0.822367	-0.341313
N84	N	1.597570	-0.322367	0.158687
N85	N	1.140909	-0.855128	-0.384709
N86	N	1.640909	-0.355128	0.115291
C87	C	1.323922	-0.339124	-0.362984
C88	C	1.823922	0.160876	0.137016
C89	C	1.411171	-0.339132	-0.362992
C90	C	1.911171	0.160868	0.137008
C91	C	1.119228	-0.339051	-0.567714
C92	C	1.619228	0.160949	-0.067714
C93	C	1.119249	-0.339029	-0.654965
C94	C	1.619249	0.160971	-0.154965
C95	C	1.127511	-0.155515	-0.371247
C96	C	1.627511	0.344485	0.128753
C97	C	1.131062	-0.077281	-0.374776
C98	C	1.631062	0.422719	0.125224
C99	C	1.171500	-0.294012	-0.697991
C100	C	1.671500	0.205988	-0.197991
C101	C	1.171511	-0.293989	-0.779972
C102	C	1.671511	0.206011	-0.279972
C103	C	1.119274	-0.338986	-0.818926
C104	C	1.619274	0.161014	-0.318926
C105	C	1.067017	-0.384005	-0.775894
C106	C	1.567017	0.115995	-0.275894
C107	C	1.067003	-0.384024	-0.693914
C108	C	1.567003	0.115976	-0.193914
C109	C	1.067051	-0.383963	-0.946766
C110	C	1.567051	0.116037	-0.446766
C111	C	1.067065	-0.383945	-1.028751
C112	C	1.567065	0.116055	-0.528751
C113	C	1.171558	-0.293927	-1.032824
C114	C	1.671558	0.206073	-0.532824
C115	C	1.171544	-0.293947	-0.950844
C116	C	1.671544	0.206053	-0.450844
C117	C	1.119288	-0.338967	-0.907818
C118	C	1.619288	0.161033	-0.407818
C119	C	1.119176	-0.339104	-0.159019
C120	C	1.619176	0.160896	0.340981
C121	C	1.119316	-0.338928	-0.071778
C122	C	1.619316	0.161072	0.428222
H123	H	0.816645	-0.420652	-0.268052
H124	H	1.316645	0.079348	0.231948
O125	O	0.416305	-0.250597	-0.466152
O126	O	0.916305	0.249403	0.033848
C127	C	0.367107	-0.290735	-0.514987
C128	C	0.867107	0.209265	-0.014987
H129	H	0.352404	-0.344042	-0.484801
H130	H	0.852404	0.155958	0.015199
H131	H	0.310759	-0.262080	-0.526858
H132	H	0.810759	0.237920	-0.026858
H133	H	0.398374	-0.298538	-0.572789
H134	H	0.898374	0.201462	-0.072789
H135	H	1.222400	-1.070336	-0.466241
H136	H	1.722400	-0.570336	0.033759
O137	O	1.032078	-1.076336	-0.275850
O138	O	1.532078	-0.576336	0.224150
C139	C	0.954626	-1.058418	-0.293727
C140	C	1.454626	-0.558418	0.206273
H141	H	0.951525	-1.038175	-0.357337
H142	H	1.451525	-0.538175	0.142663
H143	H	0.913711	-1.106797	-0.284773
H144	H	1.413711	-0.606797	0.215227
H145	H	0.936012	-1.015793	-0.253527
H146	H	1.436012	-0.515793	0.246473
H147	H	1.024482	-0.420640	-0.807617
H148	H	1.524482	0.079360	-0.307617
O149	O	1.016229	-0.427829	-0.652234
O150	O	1.516229	0.072171	-0.152234
C151	C	0.970117	-0.467534	-0.704193
C152	C	1.470117	0.032466	-0.204193
H153	H	1.002165	-0.469952	-0.762529
H154	H	1.502165	0.030048	-0.262529
H155	H	0.959234	-0.522998	-0.678005
H156	H	1.459234	-0.022998	-0.178005
H157	H	0.911665	-0.441759	-0.714059
H158	H	1.411665	0.058241	-0.214059
O159	O	1.222321	-0.250400	-0.660114
O160	O	1.722321	0.249600	-0.160114
C161	C	1.271183	-0.290485	-0.610876
C162	C	1.771183	0.209515	-0.110876
H163	H	1.273526	-0.345915	-0.633080
H164	H	1.773526	0.154085	-0.133080
H165	H	1.332746	-0.265029	-0.611103
H166	H	1.832746	0.234971	-0.111103
H167	H	1.246790	-0.292922	-0.548633
H168	H	1.746790	0.207078	-0.048633
O169	O	0.830969	-0.250533	-0.466051
O170	O	1.330969	0.249467	0.033949
C171	C	0.911678	-0.260150	-0.454818
C172	C	1.411678	0.239850	0.045182
H173	H	0.920415	-0.314439	-0.426568
H174	H	1.420415	0.185561	0.073432
H175	H	0.943069	-0.255438	-0.513835
H176	H	1.443069	0.244562	-0.013835
H177	H	0.936811	-0.218351	-0.414971
H178	H	1.436811	0.281649	0.085029
H179	H	1.214060	-0.257334	-0.815001
H180	H	1.714060	0.242666	-0.315001
H181	H	0.675364	-0.257543	-0.457872
H182	H	1.175364	0.242457	0.042128
H183	H	1.046239	-0.937218	-0.289880
H184	H	1.546239	-0.437218	0.210120
H185	H	0.415066	-0.420693	-0.268092
H186	H	0.915066	0.079307	0.231908
H187	H	0.571235	-0.257556	-0.457887
H188	H	1.071235	0.242444	0.042113
O189	O	1.002101	-0.746412	-0.245678
O190	O	1.502101	-0.246412	0.254322
C191	C	1.009620	-0.819160	-0.253209
C192	C	1.509620	-0.319160	0.246791
H193	H	1.069742	-0.829140	-0.278527
H194	H	1.569742	-0.329140	0.221473
H195	H	1.003092	-0.847132	-0.193155
H196	H	1.503092	-0.347132	0.306845
H197	H	0.962109	-0.840033	-0.294034
H198	H	1.462109	-0.340033	0.205966
H199	H	0.563794	-0.420678	-0.268072
H200	H	1.063794	0.079322	0.231928
H201	H	0.667913	-0.420661	-0.268066
H202	H	1.167913	0.079339	0.231934
O203	O	1.008428	-0.601498	-0.252061
O204	O	1.508428	-0.101498	0.247939
C205	C	0.961989	-0.649759	-0.205570
C206	C	1.461989	-0.149759	0.294430
H207	H	0.991822	-0.702135	-0.200533
H208	H	1.491822	-0.202135	0.299467
H209	H	0.954584	-0.628558	-0.144665
H210	H	1.454584	-0.128558	0.355335
H211	H	0.902011	-0.657608	-0.233916
H212	H	1.402011	-0.157608	0.266084
H213	H	1.214084	-0.257310	-0.919131
H214	H	1.714084	0.242690	-0.419131
H215	H	1.214105	-0.257269	-1.067860
H216	H	1.714105	0.242731	-0.567860
H217	H	1.024527	-0.420584	-1.060465
H218	H	1.524527	0.079416	-0.560465
H219	H	1.192247	-0.740274	-0.436135
H220	H	1.692247	-0.240274	0.063865
O221	O	1.206317	-0.601241	-0.450324
O222	O	1.706317	-0.101241	0.049676
C223	C	1.248475	-0.649388	-0.492507
C224	C	1.748475	-0.149388	0.007493
H225	H	1.213996	-0.701810	-0.492848
H226	H	1.713996	-0.201810	0.007152
H227	H	1.257751	-0.628111	-0.555315
H228	H	1.757751	-0.128111	-0.055315
H229	H	1.307765	-0.657177	-0.463471
H230	H	1.807765	-0.157177	0.036529
O231	O	1.236477	-0.931292	-0.480423
O232	O	1.736477	-0.431292	0.019577
C233	C	1.278643	-0.979436	-0.522603
C234	C	1.778643	-0.479436	-0.022603
H235	H	1.244162	-1.031856	-0.522957
H236	H	1.744162	-0.531856	-0.022957
H237	H	1.287935	-0.958152	-0.585406
H238	H	1.787935	-0.458152	-0.085406
H239	H	1.337926	-0.987231	-0.493554
H240	H	1.837926	-0.487231	0.006446
H241	H	1.024487	-0.420612	-0.911737
H242	H	1.524487	0.079388	-0.411737
