data_functionalizedCrystal
_audit_creation_method	'MofGen! by Chris Wilmer'
_symmetry_space_group_name_H-M	'P1'
_symmetry_Int_Tables_number	1
_symmetry_cell_setting	triclinic
loop_
_symmetry_equiv_pos_as_xyz
  x,y,z
_cell_length_a	12.811445
_cell_length_b	12.837942
_cell_length_c	11.892095
_cell_angle_alpha	94.302569
_cell_angle_beta	80.666316
_cell_angle_gamma	89.412982
loop_
_atom_site_label
_atom_site_type_symbol
_atom_site_fract_x
_atom_site_fract_y
_atom_site_fract_z
O1	O	1.422082	0.122881	-0.239776
O2	O	1.115997	0.140266	-0.208402
O3	O	1.262252	-0.019309	-0.223386
O4	O	1.275827	0.282456	-0.224791
O5	O	1.250056	-0.006025	-0.034129
O6	O	1.103800	0.153550	-0.019145
O7	O	1.409886	0.136166	-0.050519
Zn8	Zn	1.254907	0.146967	-0.004783
Zn9	Zn	1.270976	0.129464	-0.254137
O10	O	1.263631	0.295741	-0.035534
C11	C	1.070449	0.146340	-0.109730
C12	C	0.952901	0.144634	-0.097681
C13	C	0.745309	0.126965	-0.281389
C14	C	0.634862	0.125363	-0.270073
C15	C	0.621557	0.139835	-0.063734
C16	C	0.732004	0.141437	-0.075050
C17	C	0.793877	0.135000	-0.183881
C18	C	0.904326	0.136595	-0.195196
C19	C	0.891019	0.151075	0.011142
C20	C	0.780572	0.149473	0.022458
C21	C	1.251568	-0.051274	-0.128288
C22	C	1.237892	-0.166312	-0.126888
C23	C	1.402308	-0.407747	-0.143764
C24	C	1.389463	-0.515836	-0.142450
C25	C	1.199358	-0.490581	-0.122952
C26	C	1.212203	-0.382493	-0.124267
C27	C	1.313681	-0.341080	-0.134672
C28	C	1.326525	-0.232988	-0.135978
C29	C	1.136421	-0.207736	-0.116489
C30	C	1.123576	-0.315825	-0.115174
C31	C	1.455434	0.130091	-0.149193
C32	C	1.572983	0.131796	-0.161249
C33	C	1.274315	0.327705	-0.130635
C34	C	1.287991	0.442743	-0.132042
N35	N	1.243947	0.158912	0.165394
N36	N	1.281943	0.117511	-0.424315
C37	C	1.358197	0.034335	0.390337
C38	C	1.350545	0.042692	0.509462
C39	C	1.220986	0.183977	0.522774
C40	C	1.228638	0.175620	0.403648
C41	C	1.297247	0.100798	0.337433
C42	C	1.304904	0.092446	0.218305
C43	C	1.175340	0.233726	0.231619
C44	C	1.167688	0.242083	0.350745
H45	H	0.795687	0.121719	-0.370004
H46	H	1.409153	-0.199272	-0.144446
H47	H	1.461633	-0.570114	-0.149858
F48	F	0.555691	0.146701	0.052082
F49	F	1.415414	-0.028049	0.565762
H50	H	1.165119	0.244888	0.576702
F51	F	1.042091	-0.136774	-0.106800
F52	F	0.970174	0.129741	-0.311022
F53	F	0.714712	0.156327	0.138277
H54	H	1.111825	0.302999	0.404671
H55	H	0.595323	0.118822	-0.349475
F56	F	0.942715	0.159614	0.114924
H57	H	1.116740	-0.524320	-0.114493
H58	H	1.125714	0.287847	0.188532
H59	H	1.484935	-0.374028	-0.152225
H60	H	1.040956	-0.349559	-0.106708
F61	F	1.431225	-0.045287	0.319864
F62	F	1.377926	0.012817	0.147836
