data_functionalizedCrystal
_audit_creation_method	'MofGen! by Chris Wilmer'
_symmetry_space_group_name_H-M	'P1'
_symmetry_Int_Tables_number	1
_symmetry_cell_setting	triclinic
loop_
_symmetry_equiv_pos_as_xyz
  x,y,z
_cell_length_a	19.288867
_cell_length_b	19.288865
_cell_length_c	17.766277
_cell_angle_alpha	90.012963
_cell_angle_beta	90.002427
_cell_angle_gamma	96.863342
loop_
_atom_site_label
_atom_site_type_symbol
_atom_site_fract_x
_atom_site_fract_y
_atom_site_fract_z
O1	O	0.921341	-0.086658	-0.062576
O2	O	0.719081	-0.098345	-0.062585
O3	O	0.826056	0.008629	-0.062566
O4	O	0.814367	-0.193632	-0.062596
O5	O	0.826058	0.008639	0.062623
O6	O	0.719084	-0.098335	0.062604
O7	O	0.921344	-0.086647	0.062612
Cu8	Cu	0.820214	-0.092490	0.074039
Cu9	Cu	0.820211	-0.092503	-0.074011
O10	O	0.814369	-0.193621	0.062593
C11	C	0.693206	-0.097964	0.000009
C12	C	0.616102	-0.096834	0.000006
C13	C	0.060536	-0.088704	-0.068224
C14	C	0.132983	-0.089761	-0.068227
C15	C	0.169213	-0.090287	0.000013
C16	C	0.132992	-0.089738	0.068261
C17	C	0.060547	-0.088674	0.068262
C18	C	0.278542	-0.132650	0.052287
C19	C	0.350985	-0.133718	0.052283
C20	C	0.392659	-0.093566	0.000012
C21	C	0.361879	-0.052354	-0.052267
C22	C	0.289434	-0.051290	-0.052266
C23	C	0.247768	-0.091440	0.000019
C24	C	0.507428	-0.095256	-0.068235
C25	C	0.579877	-0.096309	-0.068235
C26	C	0.579884	-0.096293	0.068255
C27	C	0.507437	-0.095233	0.068253
C28	C	0.471213	-0.094718	0.000006
C29	C	0.825681	0.034510	0.000031
C30	C	0.824552	0.111614	0.000038
C31	C	0.947219	-0.087029	0.000017
C32	C	1.024323	-0.088159	0.000015
N33	N	0.820209	-0.092506	-0.178142
C34	C	0.814744	-0.219503	-0.000005
C35	C	0.815873	-0.296607	-0.000017
C36	C	0.887320	0.156310	0.000044
C37	C	0.886259	0.228757	0.000032
C38	C	0.822427	0.256505	0.000029
C39	C	0.759651	0.211799	0.000018
C40	C	0.760713	0.139354	0.000023
C41	C	0.772248	0.364796	0.043877
C42	C	0.771188	0.437241	0.043878
C43	C	0.819147	0.479951	0.000012
C44	C	0.868178	0.450208	-0.043845
C45	C	0.869240	0.377763	-0.043840
C46	C	0.821268	0.335059	0.000024
C47	C	0.880769	0.603202	0.000004
C48	C	0.879706	0.675650	-0.000013
C49	C	0.753096	0.658691	-0.000019
C50	C	0.754161	0.586245	-0.000010
C51	C	0.818000	0.558505	0.000005
C52	C	0.867662	-0.045231	-0.217520
C53	C	0.867668	-0.045229	-0.296322
C54	C	0.820209	-0.092497	-0.335742
C55	C	0.772753	-0.139782	-0.296354
C56	C	0.772753	-0.139787	-0.217554
C57	C	0.756922	-0.101642	-0.460591
C58	C	0.756921	-0.101633	-0.539390
C59	C	0.820210	-0.092488	-0.578789
C60	C	0.883502	-0.083337	-0.539379
C61	C	0.883502	-0.083341	-0.460579
C62	C	0.820204	-0.092498	-0.421188
C63	C	0.867673	-0.045208	-0.703613
C64	C	0.867679	-0.045211	-0.782416
C65	C	0.772759	-0.139761	-0.782447
C66	C	0.772758	-0.139760	-0.703645
C67	C	0.820214	-0.092480	-0.664233
N68	N	0.820221	-0.092481	0.178169
H69	H	0.395809	-0.019660	-0.094833
H70	H	0.477951	-0.094792	0.123821
H71	H	0.376037	-0.167293	0.094837
H72	H	0.906325	-0.006716	-0.814479
H73	H	0.734120	-0.178250	-0.814543
N74	N	0.686461	0.538031	-0.000012
H75	H	0.645861	0.566600	-0.000015
H76	H	0.684146	0.507616	0.046399
H77	H	0.244616	-0.165344	0.094861
N78	N	0.718311	0.469310	0.091187
H79	H	0.669626	0.450154	0.074807
H80	H	0.724976	0.521681	0.084519
H81	H	0.734115	-0.178254	-0.671581
H82	H	0.705381	-0.109093	-0.428519
H83	H	0.733193	0.330027	0.079602
H84	H	0.707678	0.234396	0.000014
N85	N	0.688656	-0.111496	-0.581884
H86	H	0.662076	-0.158099	-0.568188
H87	H	0.698310	-0.110066	-0.637769
H88	H	0.932750	0.580616	0.000013
N89	N	0.693011	0.091141	0.000015
H90	H	0.652411	0.119709	0.000009
H91	H	0.690695	0.060727	0.046428
H92	H	0.734113	-0.178270	-0.328454
N93	N	0.918867	0.005739	-0.175011
H94	H	0.948936	0.035681	-0.211920
H95	H	0.949422	-0.020864	-0.142339
H96	H	0.477933	-0.094835	-0.123805
H97	H	0.907230	0.484981	-0.079565
H98	H	0.906311	-0.006731	-0.328390
H99	H	0.930821	0.712042	-0.000012
N100	N	0.721566	-0.190774	-0.175076
H101	H	0.691500	-0.220720	-0.212003
H102	H	0.691004	-0.164191	-0.142380
H103	H	0.701123	0.681283	-0.000025
H104	H	0.162495	-0.090165	0.123822
H105	H	0.935036	-0.075893	-0.428495
H106	H	0.935038	-0.075895	-0.571456
N107	N	0.021467	-0.088139	-0.141830
H108	H	0.055406	-0.088642	-0.185060
H109	H	-0.002821	-0.044645	-0.144795
H110	H	0.906316	-0.006711	-0.671522
N111	N	0.021484	-0.088085	0.141866
H112	H	0.055490	-0.088096	0.185095
H113	H	-0.014013	-0.130937	0.145060
H114	H	0.264377	-0.017732	-0.094833
N115	N	0.172053	-0.090348	-0.141830
H116	H	0.138113	-0.089859	-0.185063
H117	H	0.196343	-0.133841	-0.144801
H118	H	0.937374	0.265155	0.000034
N119	N	0.618941	-0.096886	-0.141839
H120	H	0.584997	-0.096398	-0.185069
H121	H	0.643237	-0.140374	-0.144817
H122	H	0.609382	-0.096719	0.123818
N123	N	0.956175	0.126399	0.000055
H124	H	0.983663	0.142705	-0.046352
H125	H	0.947274	0.073726	0.000085
N126	N	0.922116	0.345682	-0.091139
H127	H	0.952340	0.383726	-0.118931
H128	H	0.896995	0.312190	-0.128600
