data_functionalizedCrystal
_audit_creation_method	'MofGen! by Chris Wilmer'
_symmetry_space_group_name_H-M	'P1'
_symmetry_Int_Tables_number	1
_symmetry_cell_setting	triclinic
loop_
_symmetry_equiv_pos_as_xyz
  x,y,z
_cell_length_a	19.077367
_cell_length_b	19.077356
_cell_length_c	19.077174
_cell_angle_alpha	90.076444
_cell_angle_beta	90.114431
_cell_angle_gamma	85.314001
loop_
_atom_site_label
_atom_site_type_symbol
_atom_site_fract_x
_atom_site_fract_y
_atom_site_fract_z
Zn1	Zn	-1.079825	-0.250700	-0.344674
Zn2	Zn	-0.579825	0.249300	0.155326
Zn3	Zn	-1.070350	-0.363886	-0.222832
Zn4	Zn	-0.570350	0.136114	0.277168
Zn5	Zn	-0.957588	-0.251097	-0.231872
Zn6	Zn	-0.457588	0.248903	0.268128
Zn7	Zn	-0.957220	-0.373283	-0.344645
Zn8	Zn	-0.457220	0.126717	0.155355
O9	O	-1.016246	-0.309741	-0.286006
O10	O	-0.516246	0.190259	0.213994
O11	O	-1.177069	-0.261615	-0.324740
O12	O	-0.677069	0.238385	0.175260
O13	O	-1.051581	-0.345158	-0.125845
O14	O	-0.551581	0.154842	0.374155
O15	O	-0.977923	-0.152541	-0.250631
O16	O	-0.477923	0.347459	0.249369
O17	O	-1.170108	-0.344772	-0.235224
O18	O	-0.670108	0.155228	0.264776
O19	O	-1.067729	-0.152249	-0.333506
O20	O	-0.567729	0.347751	0.166494
O21	O	-0.968735	-0.262292	-0.132487
O22	O	-0.468735	0.237708	0.367513
O23	O	-0.859038	-0.271405	-0.250603
O24	O	-0.359038	0.228595	0.249397
O25	O	-0.977295	-0.360789	-0.442835
O26	O	-0.477295	0.139211	0.057165
O27	O	-0.858768	-0.361174	-0.333456
O28	O	-0.358768	0.138826	0.166544
O29	O	-1.067372	-0.270727	-0.442857
O30	O	-0.567372	0.229273	0.057143
O31	O	-1.051224	-0.463636	-0.235196
O32	O	-0.551224	0.036364	0.264804
O33	O	-0.968108	-0.470540	-0.324691
O34	O	-0.468108	0.029460	0.175309
C35	C	-0.833363	-0.317353	-0.293008
C36	C	-0.333363	0.182647	0.206992
C37	C	-0.755124	-0.320627	-0.296019
C38	C	-0.255124	0.179373	0.203981
C39	C	-0.718494	-0.275361	-0.254373
C40	C	-0.218494	0.224639	0.245627
C41	C	-0.644980	-0.278444	-0.257202
C42	C	-0.144980	0.221556	0.242798
C43	C	-0.608099	-0.326788	-0.301682
C44	C	-0.108099	0.173212	0.198318
C45	C	-0.644735	-0.372058	-0.343330
C46	C	-0.144735	0.127942	0.156670
C47	C	-0.718247	-0.368979	-0.340496
C48	C	-0.218247	0.131021	0.159504
C49	C	-0.388228	-0.341019	-0.314770
C50	C	0.111772	0.158981	0.185230
C51	C	-0.314712	-0.344093	-0.317601
C52	C	0.185288	0.155907	0.182399
C53	C	-0.314962	-0.250480	-0.231473
C54	C	0.185038	0.249520	0.268527
C55	C	-0.388476	-0.247402	-0.228647
C56	C	0.111524	0.252598	0.271353
C57	C	-0.425105	-0.292674	-0.270292
C58	C	0.074895	0.207326	0.229708
N59	N	-0.532957	-0.329938	-0.304576
N60	N	-0.032957	0.170062	0.195424
N61	N	-0.500245	-0.289527	-0.267393
N62	N	-0.000245	0.210473	0.232607
C63	C	-1.008617	-0.492629	-0.278974
C64	C	-0.508617	0.007371	0.221026
C65	C	-1.005419	-0.570867	-0.275986
C66	C	-0.505419	-0.070867	0.224014
C67	C	-1.023349	-0.316762	-0.469017
C68	C	-0.523349	0.183238	0.030983
C69	C	-1.026376	-0.319753	-0.547005
C70	C	-0.526376	0.180247	-0.047005
C71	C	-0.199843	-0.302097	-0.278970
C72	C	0.300157	0.197903	0.221030
C73	C	-0.278081	-0.298828	-0.275955
C74	C	0.221919	0.201172	0.224045
C75	C	-1.023924	-0.126139	-0.293080
C76	C	-0.523924	0.373861	0.206920
C77	C	-1.027196	-0.047899	-0.296095
C78	C	-0.527196	0.452101	0.203905
C79	C	-0.981979	-0.011293	-0.254364
C80	C	-0.481979	0.488707	0.245636
C81	C	-0.985052	0.062222	-0.257204
C82	C	-0.485052	0.562222	0.242796
C83	C	-1.033347	0.099129	-0.301771
C84	C	-0.533347	0.599129	0.198229
C85	C	-1.078566	0.062517	-0.343507
C86	C	-0.578566	0.562517	0.156493
C87	C	-1.075489	-0.010996	-0.340670
C88	C	-0.575489	0.489004	0.159330
C89	C	-1.047561	0.319007	-0.314885
C90	C	-0.547561	0.819007	0.185115
C91	C	-1.050636	0.392526	-0.317717
C92	C	-0.550636	0.892526	0.182283
C93	C	-0.957121	0.392226	-0.231415
C94	C	-0.457121	0.892226	0.268585
C95	C	-0.954051	0.318711	-0.228579
C96	C	-0.454051	0.818711	0.271421
C97	C	-0.999268	0.282105	-0.270317
C98	C	-0.499268	0.782105	0.229683
N99	N	-1.036491	0.174273	-0.304673
N100	N	-0.536491	0.674273	0.195327
N101	N	-0.996119	0.206962	-0.267418
N102	N	-0.496119	0.706962	0.232582
C103	C	-0.984667	-0.278016	-0.587101
C104	C	-0.484667	0.221984	-0.087101
C105	C	-0.987509	-0.280833	-0.660380
C106	C	-0.487509	0.219167	-0.160380
C107	C	-1.032063	-0.325384	-0.693560
C108	C	-0.532063	0.174616	-0.193560
C109	C	-1.073774	-0.367126	-0.653458
C110	C	-0.573774	0.132874	-0.153458
C111	C	-1.070928	-0.364312	-0.580182
C112	C	-0.570928	0.135688	-0.080182
C113	C	-1.045195	-0.338429	-0.912343
C114	C	-0.545195	0.161571	-0.412343
C115	C	-1.048039	-0.341238	-0.985626
C116	C	-0.548039	0.158762	-0.485626
C117	C	-0.961773	-0.254945	-0.992542
C118	C	-0.461773	0.245055	-0.492542
C119	C	-0.958934	-0.252133	-0.919263
C120	C	-0.458934	0.247867	-0.419263
C121	C	-1.000642	-0.293877	-0.879168
C122	C	-0.500642	0.206123	-0.379168
N123	N	-1.034970	-0.328263	-0.768462
N124	N	-0.534970	0.171737	-0.268462
N125	N	-0.997731	-0.291002	-0.804267
N126	N	-0.497731	0.208998	-0.304267
C127	C	-1.009213	-0.302696	-0.103707
C128	C	-0.509213	0.197304	0.396293
C129	C	-1.006330	-0.299500	-0.025722
C130	C	-0.506330	0.200500	0.474278
H131	H	-0.284685	-0.383461	-0.353826
H132	H	0.215315	0.116539	0.146174
C133	C	-0.909922	-0.203131	-0.882767
C134	C	-0.409922	0.296869	-0.382767
H135	H	-0.914206	-0.207429	-0.833383
H136	H	-0.414206	0.292571	-0.333383
H137	H	-0.862663	-0.215861	-0.896189
H138	H	-0.362663	0.284139	-0.396189
H139	H	-0.922673	-0.155865	-0.896204
H140	H	-0.422673	0.344135	-0.396204
C141	C	-0.604168	-0.425234	-0.392257
C142	C	-0.104168	0.074766	0.107743
H143	H	-0.555140	-0.420581	-0.387987
H144	H	-0.055140	0.079419	0.112013
H145	H	-0.613844	-0.471613	-0.379631
H146	H	-0.113844	0.028387	0.120369
H147	H	-0.618486	-0.416304	-0.439348
H148	H	-0.118486	0.083696	0.060652
H149	H	-1.089967	0.422573	-0.354011
H150	H	-0.589967	0.922573	0.145989
H151	H	-0.748070	-0.405838	-0.374409
H152	H	-0.248070	0.094162	0.125591
C153	C	-1.097302	0.278751	-0.360790
C154	C	-0.597302	0.778751	0.139210
H155	H	-1.126509	0.311262	-0.387731
H156	H	-0.626509	0.811262	0.112269
H157	H	-1.070365	0.247780	-0.391288
H158	H	-0.570365	0.747780	0.108712
H159	H	-1.125733	0.252380	-0.331666
H160	H	-0.625733	0.752380	0.168334
C161	C	-0.429039	-0.194233	-0.179708
C162	C	0.070961	0.305767	0.320292
H163	H	-0.396693	-0.167722	-0.155303
H164	H	0.103307	0.332278	0.344697
H165	H	-0.460044	-0.163433	-0.206663
H166	H	0.039956	0.336567	0.293337
H167	H	-0.455397	-0.218750	-0.146954
H168	H	0.044603	0.281250	0.353046
H169	H	-0.285131	-0.213622	-0.197567
H170	H	0.214869	0.286378	0.302433
H171	H	-1.117886	0.092571	-0.379798
H172	H	-0.617886	0.592571	0.120202
H173	H	-0.927816	-0.220960	-1.025195
H174	H	-0.427816	0.279040	-0.525195
H175	H	-1.084324	-0.377517	-1.012638
H176	H	-0.584324	0.122483	-0.512638
C177	C	-1.091083	-0.384335	-0.868248
C178	C	-0.591083	0.115665	-0.368248
H179	H	-1.118032	-0.411261	-0.898506
H180	H	-0.618032	0.088739	-0.398506
H181	H	-1.061772	-0.415032	-0.839508
H182	H	-0.561772	0.084968	-0.339508
H183	H	-1.121771	-0.355025	-0.839530
H184	H	-0.621771	0.144975	-0.339530
C185	C	-0.428512	-0.390810	-0.360585
C186	C	0.071488	0.109190	0.139415
H187	H	-0.396017	-0.420035	-0.387486
H188	H	0.103983	0.079965	0.112514
H189	H	-0.454866	-0.419209	-0.331417
H190	H	0.045134	0.080791	0.168583
H191	H	-0.459501	-0.363898	-0.391132
H192	H	0.040499	0.136102	0.108868
H193	H	-0.942654	-0.041337	-0.218070
H194	H	-0.442654	0.458663	0.281930
H195	H	-1.104898	-0.398294	-0.547536
H196	H	-0.604898	0.101706	-0.047536
H197	H	-1.112304	-0.040801	-0.374658
H198	H	-0.612304	0.459199	0.125342
H199	H	-0.615158	-0.241588	-0.223285
H200	H	-0.115158	0.258412	0.276715
H201	H	-1.110047	-0.403404	-0.680480
H202	H	-0.610047	0.096596	-0.180480
C203	C	-0.900924	0.278118	-0.179558
C204	C	-0.400924	0.778118	0.320442
H205	H	-0.874430	0.310449	-0.155115
H206	H	-0.374430	0.810449	0.344885
H207	H	-0.925463	0.251733	-0.146850
H208	H	-0.425463	0.751733	0.353150
H209	H	-0.870094	0.247135	-0.206471
H210	H	-0.370094	0.747135	0.293529
H211	H	-0.948232	0.092027	-0.223224
H212	H	-0.448232	0.592027	0.276776
C213	C	-0.759060	-0.222182	-0.205448
C214	C	-0.259060	0.277818	0.294552
H215	H	-0.808088	-0.226825	-0.209728
H216	H	-0.308088	0.273175	0.290272
H217	H	-0.744745	-0.231105	-0.158359
H218	H	-0.244745	0.268895	0.341641
H219	H	-0.749380	-0.175803	-0.218082
H220	H	-0.249380	0.324197	0.281918
C221	C	-0.935651	-0.229016	-0.550609
C222	C	-0.435651	0.270984	-0.050609
H223	H	-0.911211	-0.204569	-0.584987
H224	H	-0.411211	0.295431	-0.084987
H225	H	-0.962742	-0.196125	-0.522172
H226	H	-0.462742	0.303875	-0.022172
H227	H	-0.902744	-0.256132	-0.522164
H228	H	-0.402744	0.243868	-0.022164
C229	C	-0.941633	-0.234918	-0.704483
C230	C	-0.441633	0.265082	-0.204483
H231	H	-0.914698	-0.207975	-0.674227
H232	H	-0.414698	0.292025	-0.174227
H233	H	-0.910944	-0.264214	-0.733205
H234	H	-0.410944	0.235786	-0.233205
H235	H	-0.970959	-0.204224	-0.733218
H236	H	-0.470959	0.295776	-0.233218
H237	H	-0.920307	0.422037	-0.197434
H238	H	-0.420307	0.922037	0.302566
