data_functionalizedCrystal
_audit_creation_method	'MofGen! by Chris Wilmer'
_symmetry_space_group_name_H-M	'P1'
_symmetry_Int_Tables_number	1
_symmetry_cell_setting	triclinic
loop_
_symmetry_equiv_pos_as_xyz
  x,y,z
_cell_length_a	19.805407
_cell_length_b	14.908178
_cell_length_c	19.805399
_cell_angle_alpha	93.324276
_cell_angle_beta	90.017803
_cell_angle_gamma	93.311253
loop_
_atom_site_label
_atom_site_type_symbol
_atom_site_fract_x
_atom_site_fract_y
_atom_site_fract_z
Zn1	Zn	1.019222	-0.359271	0.367131
Zn2	Zn	1.519222	0.140729	0.867131
Zn3	Zn	1.012622	-0.510147	0.247410
Zn4	Zn	1.512622	-0.010147	0.747410
Zn5	Zn	0.906036	-0.359289	0.253958
Zn6	Zn	1.406036	0.140711	0.753958
Zn7	Zn	0.899488	-0.510092	0.360562
Zn8	Zn	1.399488	-0.010092	0.860562
O9	O	0.959342	-0.434700	0.307265
O10	O	1.459342	0.065300	0.807265
O11	O	1.113062	-0.379300	0.351258
O12	O	1.613062	0.120700	0.851258
O13	O	0.998461	-0.490166	0.153560
O14	O	1.498461	0.009834	0.653560
O15	O	0.926553	-0.233032	0.274460
O16	O	1.426553	0.266968	0.774460
O17	O	1.108213	-0.490148	0.263299
O18	O	1.608213	0.009852	0.763299
O19	O	1.009710	-0.233019	0.357608
O20	O	1.509710	0.266981	0.857608
O21	O	0.920153	-0.379331	0.158372
O22	O	1.420153	0.120669	0.658372
O23	O	0.810451	-0.379277	0.268091
O24	O	1.310451	0.120723	0.768091
O25	O	0.915392	-0.490055	0.456151
O26	O	1.415392	0.009945	0.956151
O27	O	0.805640	-0.490072	0.346413
O28	O	1.305640	0.009928	0.846413
O29	O	1.003361	-0.379247	0.460977
O30	O	1.503361	0.120753	0.960977
O31	O	0.992112	-0.636394	0.256930
O32	O	1.492112	-0.136394	0.756930
O33	O	0.908993	-0.636353	0.340063
O34	O	1.408993	-0.136353	0.840063
C35	C	0.783487	-0.434671	0.307250
C36	C	1.283487	0.065329	0.807250
C37	C	0.708255	-0.434681	0.307259
C38	C	1.208255	0.065319	0.807259
C39	C	0.675432	-0.377064	0.353120
C40	C	1.175432	0.122936	0.853120
C41	C	0.604743	-0.377069	0.353123
C42	C	1.104743	0.122931	0.853123
C43	C	0.566879	-0.434696	0.307266
C44	C	1.066879	0.065304	0.807266
C45	C	0.599706	-0.492315	0.261400
C46	C	1.099706	0.007685	0.761400
C47	C	0.670394	-0.492305	0.261395
C48	C	1.170394	0.007695	0.761395
C49	C	0.314631	-0.492355	0.261419
C50	C	0.814631	0.007645	0.761419
C51	C	0.243939	-0.492363	0.261429
C52	C	0.743939	0.007637	0.761429
C53	C	0.248980	-0.377120	0.353147
C54	C	0.748980	0.122880	0.853147
C55	C	0.319668	-0.377110	0.353142
C56	C	0.819668	0.122890	0.853142
C57	C	0.352490	-0.434725	0.307273
C58	C	0.852490	0.065275	0.807273
C59	C	0.429139	-0.434718	0.307270
C60	C	0.929139	0.065282	0.807270
C61	C	0.490231	-0.434708	0.307272
C62	C	0.990231	0.065292	0.807272
C63	C	0.949144	-0.669110	0.297088
C64	C	1.449144	-0.169110	0.797088
C65	C	0.944843	-0.769391	0.292756
C66	C	1.444843	-0.269391	0.792756
C67	C	1.023287	-0.957668	0.371291
C68	C	1.523287	-0.457668	0.871291
C69	C	1.019248	-1.051891	0.367224
C70	C	1.519248	-0.551891	0.867224
C71	C	0.932724	-1.052064	0.280558
C72	C	1.432724	-0.552064	0.780558
C73	C	0.936762	-0.957840	0.284625
C74	C	1.436762	-0.457840	0.784625
C75	C	0.982046	-0.910645	0.329993
C76	C	1.482046	-0.410645	0.829993
C77	C	0.986088	-0.816420	0.334056
C78	C	1.486088	-0.316420	0.834056
C79	C	0.899560	-0.816594	0.247394
C80	C	1.399560	-0.316594	0.747394
C81	C	0.895522	-0.910818	0.243326
C82	C	1.395522	-0.410818	0.743326
C83	C	1.135883	-0.434729	0.307281
C84	C	1.635883	0.065271	0.807281
C85	C	1.211115	-0.434741	0.307287
C86	C	1.711115	0.065259	0.807287
C87	C	0.959382	-0.434643	0.483810
C88	C	1.459382	0.065357	0.983810
C89	C	0.959400	-0.434619	0.559044
C90	C	1.459400	0.065381	1.059044
C91	C	0.969598	-0.199374	0.317497
C92	C	1.469598	0.300626	0.817497
C93	C	0.973969	-0.099092	0.321858
C94	C	1.473969	0.400908	0.821858
C95	C	0.959343	-0.434691	0.131410
C96	C	1.459343	0.065309	0.631410
C97	C	0.959468	-0.434461	0.056188
C98	C	1.459468	0.065539	0.556188
C99	C	1.005206	-0.376918	0.596902
C100	C	1.505206	0.123082	1.096902
C101	C	1.005214	-0.376892	0.667591
C102	C	1.505214	0.123108	1.167591
C103	C	0.959418	-0.434571	0.700421
C104	C	1.459418	0.065429	1.200421
C105	C	0.913607	-0.492274	0.662558
C106	C	1.413607	0.007726	1.162558
C107	C	0.913597	-0.492295	0.591870
C108	C	1.413597	0.007705	1.091870
C109	C	0.913649	-0.492190	0.947635
C110	C	1.413649	0.007810	1.447635
C111	C	0.913665	-0.492167	1.018328
C112	C	1.413665	0.007833	1.518328
C113	C	1.005266	-0.376787	1.023357
C114	C	1.505266	0.123213	1.523357
C115	C	1.005256	-0.376808	0.952668
C116	C	1.505256	0.123192	1.452668
C117	C	0.959443	-0.434507	0.914811
C118	C	1.459443	0.065493	1.414811
C119	C	0.959433	-0.434533	0.838162
C120	C	1.459433	0.065467	1.338162
C121	C	0.959430	-0.434550	0.777069
C122	C	1.459430	0.065450	1.277069
H123	H	0.350494	-0.330187	0.390485
H124	H	0.850494	0.169813	0.890485
H125	H	1.052828	-1.090173	0.400857
H126	H	1.552828	-0.590173	0.900857
H127	H	1.042515	-0.329909	0.698413
H128	H	1.542515	0.170091	1.198413
H129	H	0.895853	-1.090506	0.243625
H130	H	1.395853	-0.590506	0.743625
H131	H	0.697117	-0.539221	0.224049
H132	H	1.197117	-0.039221	0.724049
H133	H	0.578022	-0.330154	0.390469
H134	H	1.078022	0.169846	0.890469
O135	O	0.346470	-0.548455	0.216932
O136	O	0.846470	-0.048455	0.716932
C137	C	0.325282	-0.638402	0.227701
C138	C	0.825282	-0.138402	0.727701
H139	H	0.305677	-0.643053	0.281570
H140	H	0.805677	-0.143053	0.781570
H141	H	0.283210	-0.661923	0.190371
H142	H	0.783210	-0.161923	0.690371
C143	C	0.409535	-0.692886	0.150960
C144	C	0.909535	-0.192886	0.650960
C145	C	0.385460	-0.698600	0.217125
C146	C	0.885460	-0.198600	0.717125
H147	H	0.446654	-0.730020	0.144434
H148	H	0.946654	-0.230020	0.644434
H149	H	0.423808	-0.632287	0.143703
H150	H	0.923808	-0.132287	0.643703
H151	H	0.374469	-0.712485	0.119860
H152	H	0.874469	-0.212485	0.619860
H153	H	0.420523	-0.678990	0.248224
H154	H	0.920523	-0.178990	0.748224
H155	H	0.371194	-0.759197	0.224387
H156	H	0.871194	-0.259197	0.724387
H157	H	0.865981	-0.778298	0.213764
H158	H	1.365981	-0.278298	0.713764
O159	O	0.869197	-0.548392	0.555012
O160	O	1.369197	-0.048392	1.055012
C161	C	0.905191	-0.606693	0.511606
C162	C	1.405191	-0.106693	1.011606
H163	H	0.957870	-0.574882	0.502415
H164	H	1.457870	-0.074882	1.002415
H165	H	0.909716	-0.673549	0.535939
H166	H	1.409716	-0.173549	1.035939
C167	C	0.802532	-0.662107	0.455029
C168	C	1.302532	-0.162107	0.955029
C169	C	0.867232	-0.623033	0.443735
C170	C	1.367232	-0.123033	0.943735
H171	H	0.779117	-0.672191	0.413163
H172	H	1.279117	-0.172191	0.913163
H173	H	0.778282	-0.622832	0.484273
H174	H	1.278282	-0.122832	0.984273
H175	H	0.806312	-0.717817	0.475307
H176	H	1.306312	-0.217817	0.975307
H177	H	0.863451	-0.567320	0.423465
H178	H	1.363451	-0.067320	0.923465
H179	H	0.891481	-0.662300	0.414486
H180	H	1.391481	-0.162300	0.914486
O181	O	0.869028	-0.548209	0.694420
O182	O	1.369028	-0.048209	1.194420
C183	C	0.802426	-0.528500	0.677981
C184	C	1.302426	-0.028500	1.177981
H185	H	0.802146	-0.456428	0.661686
H186	H	1.302146	0.043572	1.161686
H187	H	0.782619	-0.576878	0.634841
H188	H	1.282619	-0.076878	1.134841
C189	C	0.757149	-0.627498	0.760325
C190	C	1.257149	-0.127498	1.260325
C191	C	0.756805	-0.538975	0.740316
C192	C	1.256805	-0.038975	1.240316
H193	H	0.729007	-0.633963	0.798775
H194	H	1.229007	-0.133963	1.298775
H195	H	0.802020	-0.640779	0.771398
H196	H	1.302020	-0.140779	1.271398
H197	H	0.740645	-0.667803	0.724370
H198	H	1.240645	-0.167803	1.224370
H199	H	0.773317	-0.498673	0.776268
H200	H	1.273317	0.001327	1.276268
H201	H	0.711936	-0.525687	0.729250
H202	H	1.211936	-0.025687	1.229250
H203	H	0.858651	-0.949257	0.206391
H204	H	1.358651	-0.449257	0.706391
H205	H	1.022962	-0.777995	0.370995
H206	H	1.522962	-0.277995	0.870995
O207	O	0.563030	-0.548324	0.216790
O208	O	1.063030	-0.048324	0.716790
C209	C	0.607161	-0.599193	0.176322
C210	C	1.107161	-0.099193	0.676322
H211	H	0.659152	-0.562224	0.175622
H212	H	1.159152	-0.062224	0.675622
H213	H	0.611715	-0.667755	0.198049
H214	H	1.111715	-0.167755	0.698049
C215	C	0.515127	-0.657486	0.104573
C216	C	1.015127	-0.157486	0.604573
C217	C	0.578982	-0.612077	0.103708
C218	C	1.078982	-0.112077	0.603708
H219	H	0.497744	-0.665437	0.059782
H220	H	0.997744	-0.165437	0.559782
H221	H	0.485394	-0.623218	0.131839
H222	H	0.985394	-0.123218	0.631839
H223	H	0.518931	-0.714616	0.122682
H224	H	1.018931	-0.214616	0.622682
H225	H	0.575176	-0.554944	0.085608
H226	H	1.075176	-0.054944	0.585608
H227	H	0.608713	-0.646335	0.076438
H228	H	1.108713	-0.146335	0.576438
H229	H	0.706256	-0.330141	0.390464
H230	H	1.206256	0.169859	0.890464
H231	H	1.042500	-0.329951	0.570177
H232	H	1.542500	0.170049	1.070177
O233	O	1.049766	-0.320692	0.920887
O234	O	1.549766	0.179308	1.420887
C235	C	1.090210	-0.269772	0.969460
C236	C	1.590210	0.230228	1.469460
H237	H	1.062632	-0.266629	1.019981
H238	H	1.562632	0.233371	1.519981
H239	H	1.140177	-0.302815	0.975548
H240	H	1.640177	0.197185	1.475548
C241	C	1.138014	-0.177619	0.883998
C242	C	1.638014	0.322381	1.383998
C243	C	1.104140	-0.173752	0.946048
C244	C	1.604140	0.326248	1.446048
H245	H	1.146611	-0.118391	0.869556
H246	H	1.646611	0.381609	1.369556
H247	H	1.110769	-0.211927	0.851273
H248	H	1.610769	0.288073	1.351273
H249	H	1.179650	-0.205159	0.889079
H250	H	1.679650	0.294841	1.389079
H251	H	1.062502	-0.146223	0.940964
H252	H	1.562502	0.353777	1.440964
H253	H	1.131379	-0.139438	0.978772
H254	H	1.631379	0.360562	1.478772
H255	H	1.042568	-0.329802	1.054189
H256	H	1.542568	0.170198	1.554189
H257	H	0.876370	-0.539138	1.045056
H258	H	1.376370	-0.039138	1.545056
H259	H	0.876355	-0.539186	0.916820
H260	H	1.376355	-0.039186	1.416820
O261	O	1.067199	-0.911855	0.415452
O262	O	1.567199	-0.411855	0.915452
C263	C	1.051391	-0.934853	0.481905
C264	C	1.551391	-0.434853	0.981905
H265	H	0.996205	-0.960818	0.484151
H266	H	1.496205	-0.460818	0.984151
H267	H	1.085329	-0.989485	0.497274
H268	H	1.585329	-0.489485	0.997274
C269	C	1.130603	-0.819209	0.527939
C270	C	1.630603	-0.319209	1.027939
C271	C	1.062822	-0.851093	0.530699
C272	C	1.562822	-0.351093	1.030699
H273	H	1.137657	-0.767545	0.558039
H274	H	1.637657	-0.267545	1.058039
H275	H	1.141256	-0.803717	0.483169
H276	H	1.641256	-0.303717	0.983169
H277	H	1.158878	-0.864744	0.540746
H278	H	1.658878	-0.364744	1.040746
H279	H	1.034549	-0.805563	0.517885
H280	H	1.534549	-0.305563	1.017885
H281	H	1.052165	-0.866576	0.575469
H282	H	1.552165	-0.366576	1.075469
O283	O	0.217122	-0.321240	0.397793
O284	O	0.717122	0.178760	0.897793
C285	C	0.233574	-0.341065	0.464364
C286	C	0.733574	0.158935	0.964364
H287	H	0.249875	-0.413147	0.464558
H288	H	0.749875	0.086853	0.964558
H289	H	0.276712	-0.292724	0.484213
H290	H	0.776712	0.207276	0.984213
C291	C	0.151230	-0.242122	0.509769
C292	C	0.651230	0.257878	1.009769
C293	C	0.171246	-0.330656	0.510008
C294	C	0.671246	0.169344	1.010008
H295	H	0.112784	-0.235698	0.537926
H296	H	0.612784	0.264302	1.037926
H297	H	0.140147	-0.228763	0.464919
H298	H	0.640147	0.271237	0.964919
H299	H	0.187184	-0.201847	0.526309
H300	H	0.687184	0.298153	1.026309
H301	H	0.135295	-0.370928	0.493461
H302	H	0.635295	0.129072	0.993461
H303	H	0.182320	-0.344022	0.554857
H304	H	0.682320	0.155978	1.054857
O305	O	0.207122	-0.548437	0.216970
O306	O	0.707122	-0.048437	0.716970
C307	C	0.163706	-0.606771	0.252903
C308	C	0.663706	-0.106771	0.752903
H309	H	0.184787	-0.612442	0.305955
H310	H	0.684787	-0.112442	0.805955
H311	H	0.111346	-0.578886	0.256491
H312	H	0.611346	-0.078886	0.756491
C313	C	0.132641	-0.693536	0.150486
C314	C	0.632641	-0.193536	0.650486
C315	C	0.158536	-0.700507	0.215643
C316	C	0.658536	-0.200507	0.715643
H317	H	0.129449	-0.751355	0.127501
H318	H	0.629449	-0.251355	0.627501
H319	H	0.161889	-0.654233	0.126276
H320	H	0.661889	-0.154233	0.626276
H321	H	0.089010	-0.670295	0.153484
H322	H	0.589010	-0.170295	0.653484
H323	H	0.202170	-0.723737	0.212643
H324	H	0.702170	-0.223737	0.712643
H325	H	0.129295	-0.739815	0.239851
H326	H	0.629295	-0.239815	0.739851
