data_functionalizedCrystal
_audit_creation_method	'MofGen! by Chris Wilmer'
_symmetry_space_group_name_H-M	'P1'
_symmetry_Int_Tables_number	1
_symmetry_cell_setting	triclinic
loop_
_symmetry_equiv_pos_as_xyz
  x,y,z
_cell_length_a	16.625548
_cell_length_b	18.050590
_cell_length_c	16.625539
_cell_angle_alpha	89.970044
_cell_angle_beta	89.979432
_cell_angle_gamma	90.019620
loop_
_atom_site_label
_atom_site_type_symbol
_atom_site_fract_x
_atom_site_fract_y
_atom_site_fract_z
Zn1	Zn	1.232702	-0.295637	-0.455900
Zn2	Zn	1.732702	0.204363	0.044100
Zn3	Zn	1.232615	-0.419835	-0.321063
Zn4	Zn	1.732615	0.080165	0.178937
Zn5	Zn	1.097864	-0.295665	-0.321081
Zn6	Zn	1.597864	0.204335	0.178919
Zn7	Zn	1.097844	-0.419792	-0.455853
Zn8	Zn	1.597844	0.080208	0.044147
O9	O	1.165256	-0.357732	-0.388474
O10	O	1.665256	0.142268	0.111526
O11	O	1.345523	-0.312118	-0.438026
O12	O	1.845523	0.187882	0.061974
O13	O	1.214712	-0.403393	-0.208233
O14	O	1.714712	0.096607	0.291767
O15	O	1.115796	-0.191737	-0.338992
O16	O	1.615796	0.308263	0.161008
O17	O	1.345459	-0.403365	-0.338962
O18	O	1.845459	0.096635	0.161038
O19	O	1.214861	-0.191716	-0.438043
O20	O	1.714861	0.308284	0.061957
O21	O	1.115711	-0.312166	-0.208246
O22	O	1.615711	0.187834	0.291754
O23	O	0.985029	-0.312125	-0.338946
O24	O	1.485029	0.187875	0.161054
O25	O	1.115761	-0.403293	-0.568692
O26	O	1.615761	0.096707	-0.068692
O27	O	0.985014	-0.403320	-0.437963
O28	O	1.485014	0.096680	0.062037
O29	O	1.214841	-0.312077	-0.568726
O30	O	1.714841	0.187923	-0.068726
O31	O	1.214692	-0.523754	-0.338917
O32	O	1.714692	-0.023754	0.161083
O33	O	1.115676	-0.523722	-0.437946
O34	O	1.615676	-0.023722	0.062054
C35	C	0.955765	-0.357722	-0.388452
C36	C	1.455765	0.142278	0.111548
C37	C	0.866144	-0.357735	-0.388461
C38	C	1.366144	0.142265	0.111539
C39	C	0.537969	-0.357740	-0.388496
C40	C	1.037969	0.142260	0.111504
C41	C	0.629277	-0.357736	-0.388484
C42	C	1.129277	0.142264	0.111516
C43	C	0.702054	-0.357738	-0.388478
C44	C	1.202054	0.142262	0.111522
C45	C	0.793368	-0.357734	-0.388467
C46	C	1.293368	0.142266	0.111533
C47	C	1.165194	-0.550684	-0.388442
C48	C	1.665194	-0.050684	0.111558
C49	C	1.165242	-0.633230	-0.388455
C50	C	1.665242	-0.133230	0.111545
C51	C	1.219198	-0.832671	-0.334678
C52	C	1.719198	-0.332671	0.165322
C53	C	1.238896	-0.882001	-0.408268
C54	C	1.738896	-0.382001	0.091732
C55	C	1.165287	-0.784360	-0.388488
C56	C	1.665287	-0.284360	0.111512
C57	C	1.145672	-0.882112	-0.314931
C58	C	1.645672	-0.382112	0.185069
C59	C	1.165333	-0.930345	-0.388512
C60	C	1.665333	-0.430345	0.111488
C61	C	1.185022	-0.832604	-0.462116
C62	C	1.685022	-0.332604	0.037884
C63	C	1.091765	-0.832710	-0.368729
C64	C	1.591765	-0.332710	0.131271
C65	C	1.111434	-0.882018	-0.442370
C66	C	1.611434	-0.382018	0.057630
C67	C	1.165263	-0.700262	-0.388472
C68	C	1.665263	-0.200262	0.111528
C69	C	1.165357	-1.014442	-0.388536
C70	C	1.665357	-0.514442	0.111464
C71	C	1.375565	-0.357743	-0.388497
C72	C	1.875565	0.142257	0.111503
C73	C	1.465186	-0.357748	-0.388507
C74	C	1.965186	0.142252	0.111493
C75	C	1.165309	-0.357677	-0.598783
C76	C	1.665309	0.142323	-0.098783
C77	C	1.165331	-0.357653	-0.688405
C78	C	1.665331	0.142347	-0.188405
C79	C	1.165341	-0.164027	-0.388524
C80	C	1.665341	0.335973	0.111476
C81	C	1.165376	-0.081481	-0.388546
C82	C	1.665376	0.418519	0.111454
C83	C	1.165368	-0.357570	-1.016580
C84	C	1.665368	0.142430	-0.516580
C85	C	1.165356	-0.357596	-0.925272
C86	C	1.665356	0.142404	-0.425272
C87	C	1.165350	-0.357612	-0.852495
C88	C	1.665350	0.142388	-0.352495
C89	C	1.165337	-0.357637	-0.761181
C90	C	1.665337	0.142363	-0.261181
C91	C	1.165250	-0.357734	-0.178984
C92	C	1.665250	0.142266	0.321016
C93	C	1.165384	-0.357548	-0.089363
C94	C	1.665384	0.142452	0.410637
H95	H	1.264804	-0.811003	-0.289221
H96	H	1.764804	-0.311003	0.210779
C97	C	1.322911	-0.911261	-0.430869
C98	C	1.822911	-0.411261	0.069131
H99	H	1.319233	-0.940183	-0.478453
H100	H	1.819233	-0.440183	0.021547
H101	H	1.343149	-0.940974	-0.388271
H102	H	1.843149	-0.440974	0.111729
H103	H	1.358181	-0.870668	-0.439840
H104	H	1.858181	-0.370668	0.060160
C105	C	1.007771	-0.803427	-0.346102
C106	C	1.507771	-0.303427	0.153898
H107	H	0.993896	-0.820349	-0.293786
H108	H	1.493896	-0.320349	0.206214
H109	H	0.969355	-0.821058	-0.383800
H110	H	1.469355	-0.321058	0.116200
H111	H	1.008251	-0.750802	-0.346740
H112	H	1.508251	-0.250802	0.153260
C113	C	1.123227	-0.911484	-0.230885
C114	C	1.623227	-0.411484	0.269115
H115	H	1.161569	-0.894578	-0.192714
H116	H	1.661569	-0.394578	0.307286
H117	H	1.122922	-0.964105	-0.231611
H118	H	1.622922	-0.464105	0.268389
H119	H	1.071349	-0.893873	-0.216471
H120	H	1.571349	-0.393873	0.283529
C121	C	1.207564	-0.803361	-0.546189
C122	C	1.707564	-0.303361	-0.046189
H123	H	1.216961	-0.843963	-0.581291
H124	H	1.716961	-0.343963	-0.081291
H125	H	1.254876	-0.774040	-0.542510
H126	H	1.754876	-0.274040	-0.042510
H127	H	1.164750	-0.774046	-0.566640
H128	H	1.664750	-0.274046	-0.066640
C129	C	1.049874	-0.911112	-0.503923
C130	C	1.549874	-0.411112	-0.003923
H131	H	1.063957	-0.894067	-0.556137
H132	H	1.563957	-0.394067	-0.056137
H133	H	0.997787	-0.893488	-0.490325
H134	H	1.497787	-0.393488	0.009675
H135	H	1.049916	-0.963740	-0.503293
H136	H	1.549916	-0.463740	-0.003293
