data_functionalizedCrystal
_audit_creation_method	'MofGen! by Chris Wilmer'
_symmetry_space_group_name_H-M	'P1'
_symmetry_Int_Tables_number	1
_symmetry_cell_setting	triclinic
loop_
_symmetry_equiv_pos_as_xyz
  x,y,z
_cell_length_a	16.959454
_cell_length_b	14.908780
_cell_length_c	14.908308
_cell_angle_alpha	90.212689
_cell_angle_beta	93.269679
_cell_angle_gamma	86.690567
loop_
_atom_site_label
_atom_site_type_symbol
_atom_site_fract_x
_atom_site_fract_y
_atom_site_fract_z
Zn1	Zn	-0.276501	-1.345313	-0.587883
Zn2	Zn	-0.400658	-1.353894	-0.437532
Zn3	Zn	-0.275642	-1.203627	-0.428851
Zn4	Zn	-0.415789	-1.194920	-0.579150
O5	O	-0.342147	-1.274439	-0.508354
O6	O	-0.286998	-1.472279	-0.575227
O7	O	-0.377382	-1.341196	-0.310557
O8	O	-0.165143	-1.222475	-0.449969
O9	O	-0.378215	-1.478584	-0.464764
O10	O	-0.165774	-1.326571	-0.566809
O11	O	-0.285533	-1.230795	-0.304179
O12	O	-0.300205	-1.076644	-0.441500
O13	O	-0.404004	-1.207635	-0.706132
O14	O	-0.403171	-1.070248	-0.551925
O15	O	-0.301670	-1.318128	-0.712548
O16	O	-0.513277	-1.332753	-0.456296
O17	O	-0.524394	-1.215956	-0.560342
C18	C	-0.353238	-1.040820	-0.494823
C19	C	-0.358002	-0.940876	-0.489056
C20	C	-0.272118	-0.746493	-0.593420
C21	C	-0.276592	-0.652587	-0.588004
C22	C	-0.371420	-0.659155	-0.472805
C23	C	-0.366946	-0.753061	-0.478221
C24	C	-0.317294	-0.796727	-0.538531
C25	C	-0.312825	-0.890635	-0.543951
C26	C	-0.407648	-0.897202	-0.428748
C27	C	-0.412122	-0.803295	-0.423332
C28	C	-0.547516	-1.274364	-0.508334
C29	C	-0.635372	-1.274413	-0.508361
C30	C	-1.012660	-1.213706	-0.562530
C31	C	-1.001024	-1.335417	-0.454284
C32	C	-0.918480	-1.335386	-0.454274
C33	C	-0.883021	-1.274513	-0.508392
C34	C	-0.930108	-1.213671	-0.562519
C35	C	-0.871387	-1.396220	-0.400141
C36	C	-0.788837	-1.396191	-0.400128
C37	C	-0.753377	-1.335322	-0.454251
C38	C	-0.800469	-1.274478	-0.508381
C39	C	-0.765011	-1.213606	-0.562499
C40	C	-0.812101	-1.152766	-0.616635
C41	C	-0.894648	-1.152802	-0.616642
C42	C	-0.670830	-1.335286	-0.454243
C43	C	-0.682458	-1.213571	-0.562488
C44	C	-0.135976	-1.274537	-0.508395
C45	C	-0.048118	-1.274579	-0.508412
C46	C	-0.354621	-1.260953	-0.742877
C47	C	-0.359936	-1.255207	-0.842817
C48	C	-0.331007	-0.508970	-0.521931
C49	C	-0.326242	-0.608914	-0.527700
C50	C	-0.263345	-1.359462	-1.037297
C51	C	-0.268337	-1.354066	-1.131199
C52	C	-0.374907	-1.239013	-1.124526
C53	C	-0.369915	-1.244410	-1.030623
C54	C	-0.314133	-1.304637	-0.987012
C55	C	-0.309146	-1.310038	-0.893108
C56	C	-0.415712	-1.194981	-0.886436
C57	C	-0.420703	-1.189585	-0.980338
C58	C	-0.329663	-1.287923	-0.274746
C59	C	-0.324116	-1.293844	-0.174817
H60	H	-0.444440	-0.938112	-0.384060
H61	H	-0.783221	-1.103199	-0.660693
N62	N	-0.909643	-1.461864	-0.341779
H63	H	-0.892928	-1.525289	-0.359508
H64	H	-0.892540	-1.451560	-0.276734
N65	N	-0.465672	-0.756185	-0.358293
H66	H	-0.522125	-0.771716	-0.373097
H67	H	-0.449055	-0.776225	-0.295039
N68	N	-0.945436	-1.087183	-0.675023
H69	H	-1.003109	-1.096440	-0.666811
H70	H	-0.933353	-1.023780	-0.657252
H71	H	-0.272397	-0.926187	-0.593060
H72	H	-0.653594	-1.164004	-0.606561
H73	H	-0.750501	-1.445731	-0.356049
N74	N	-0.480870	-1.124627	-1.027366
H75	H	-0.470777	-1.061328	-1.007300
H76	H	-0.476304	-1.129593	-1.094474
N77	N	-0.218579	-0.793597	-0.658474
H78	H	-0.190641	-0.747524	-0.692429
H79	H	-0.178150	-0.834663	-0.624194
H80	H	-0.263727	-1.359080	-0.857602
N81	N	-1.063442	-1.148090	-0.620919
H82	H	-1.121118	-1.157346	-0.612719
H83	H	-1.051363	-1.084686	-0.603150
H84	H	-0.239803	-0.611690	-0.632698
N85	N	-0.213557	-1.413206	-1.185426
H86	H	-0.245768	-1.452624	-1.226794
H87	H	-0.180742	-1.374382	-1.222221
H88	H	-0.411835	-0.623586	-0.423694
N89	N	-1.039264	-1.401055	-0.395902
H90	H	-1.098703	-1.391840	-0.404117
H91	H	-1.022494	-1.464452	-0.413658
H92	H	-0.632493	-1.384817	-0.410162
H93	H	-0.457069	-1.150341	-0.845484
H94	H	-0.217930	-1.408507	-1.001789
H95	H	-0.420321	-1.189978	-1.160050
