data_functionalizedCrystal
_audit_creation_method	'MofGen! by Chris Wilmer'
_symmetry_space_group_name_H-M	'P1'
_symmetry_Int_Tables_number	1
_symmetry_cell_setting	triclinic
loop_
_symmetry_equiv_pos_as_xyz
  x,y,z
_cell_length_a	12.827893
_cell_length_b	12.827892
_cell_length_c	12.827885
_cell_angle_alpha	90.032871
_cell_angle_beta	89.983682
_cell_angle_gamma	89.974292
loop_
_atom_site_label
_atom_site_type_symbol
_atom_site_fract_x
_atom_site_fract_y
_atom_site_fract_z
Zn1	Zn	1.597615	0.415905	-0.590744
Zn2	Zn	2.097615	0.915905	-0.090744
Zn3	Zn	1.597486	0.590682	-0.415995
Zn4	Zn	2.097486	1.090682	0.084005
Zn5	Zn	1.422856	0.415964	-0.416027
Zn6	Zn	1.922856	0.915964	0.083973
Zn7	Zn	1.422819	0.590613	-0.590704
Zn8	Zn	1.922819	1.090613	-0.090704
O9	O	1.510194	0.503291	-0.503367
O10	O	2.010194	1.003291	-0.003367
O11	O	1.743834	0.439094	-0.567567
O12	O	2.243834	0.939094	-0.067567
O13	O	1.574283	0.567559	-0.269763
O14	O	2.074283	1.067559	0.230237
O15	O	1.446108	0.269720	-0.439233
O16	O	1.946108	0.769720	0.060767
O17	O	1.743739	0.567502	-0.439179
O18	O	2.243739	1.067502	0.060821
O19	O	1.574503	0.269677	-0.567597
O20	O	2.074503	0.769677	-0.067597
O21	O	1.445983	0.439195	-0.269786
O22	O	1.945983	0.939195	0.230214
O23	O	1.276615	0.439128	-0.439194
O24	O	1.776615	0.939128	0.060806
O25	O	1.446044	0.567384	-0.736945
O26	O	1.946044	1.067384	-0.236945
O27	O	1.276588	0.567441	-0.567529
O28	O	1.776588	1.067441	-0.067529
O29	O	1.574466	0.439026	-0.736975
O30	O	2.074466	0.939026	-0.236975
O31	O	1.574246	0.736909	-0.439140
O32	O	2.074246	1.236909	0.060860
O33	O	1.445919	0.736858	-0.567498
O34	O	1.945919	1.236858	-0.067498
C35	C	1.238684	0.503284	-0.503361
C36	C	1.738684	1.003284	-0.003361
C37	C	1.122531	0.503307	-0.503384
C38	C	1.622531	1.003307	-0.003384
C39	C	1.510093	0.774801	-0.503334
C40	C	2.010093	1.274801	-0.003334
C41	C	1.510145	0.890954	-0.503355
C42	C	2.010145	1.390954	-0.003355
C43	C	1.510265	0.503191	-0.775938
C44	C	2.010265	1.003191	-0.275938
C45	C	1.510295	0.503148	-0.892091
C46	C	2.010295	1.003148	-0.392091
C47	C	1.782764	0.503299	-0.503374
C48	C	2.282764	1.003299	-0.003374
C49	C	1.898917	0.503302	-0.503377
C50	C	2.398917	1.003302	-0.003377
C51	C	1.950749	0.439770	-0.566901
C52	C	2.450749	0.939770	-0.066901
C53	C	2.070799	0.439772	-0.566906
C54	C	2.570799	0.939772	-0.066906
C55	C	1.446623	0.942748	-0.566821
C56	C	1.946623	1.442748	-0.066821
C57	C	1.446676	1.062799	-0.566844
C58	C	1.946676	1.562799	-0.066844
C59	C	1.510290	1.230721	-0.503411
C60	C	2.010290	1.730721	-0.003411
C61	C	1.510244	1.114568	-0.503397
C62	C	2.010244	1.614568	-0.003397
C63	C	1.573850	0.439620	-0.943890
C64	C	2.073850	0.939620	-0.443890
C65	C	1.573882	0.439575	-1.063941
C66	C	2.073882	0.939575	-0.563941
C67	C	1.510183	0.503316	-0.231857
C68	C	2.010183	1.003316	0.268143
C69	C	1.510355	0.503064	-0.115705
C70	C	2.010355	1.003064	0.384295
H71	H	1.906247	0.385380	-0.621288
H72	H	2.406247	0.885380	-0.121288
Br73	Br	1.600905	1.040343	-0.412833
Br74	Br	2.100905	1.540343	0.087167
Br75	Br	1.664472	0.348988	-0.869683
Br76	Br	2.164472	0.848988	-0.369683
H77	H	1.455945	0.557459	-1.071165
H78	H	1.955945	1.057459	-0.571165
Br79	Br	2.145084	0.349099	-0.657550
Br80	Br	2.645084	0.849099	-0.157550
Br81	Br	2.048253	0.593964	-0.412719
Br82	Br	2.548253	1.093964	0.087281
H83	H	1.392195	0.898217	-0.621137
H84	H	1.892195	1.398217	-0.121137
H85	H	1.628297	0.385190	-1.108487
H86	H	2.128297	0.885190	-0.608487
Br87	Br	1.356035	1.137030	-0.657423
Br88	Br	1.856035	1.637030	-0.157423
Br89	Br	1.419632	0.593740	-0.966298
Br90	Br	1.919632	1.093740	-0.466298
H91	H	1.943419	0.557701	-0.449000
H92	H	2.443419	1.057701	0.051000
H93	H	1.564565	0.935488	-0.449033
H94	H	2.064565	1.435488	0.050967
