data_functionalizedCrystal
_audit_creation_method	'MofGen! by Chris Wilmer'
_symmetry_space_group_name_H-M	'P1'
_symmetry_Int_Tables_number	1
_symmetry_cell_setting	triclinic
loop_
_symmetry_equiv_pos_as_xyz
  x,y,z
_cell_length_a	18.215407
_cell_length_b	12.645330
_cell_length_c	18.215399
_cell_angle_alpha	90.025165
_cell_angle_beta	90.019833
_cell_angle_gamma	90.013094
loop_
_atom_site_label
_atom_site_type_symbol
_atom_site_fract_x
_atom_site_fract_y
_atom_site_fract_z
Zn1	Zn	1.125135	-0.422038	0.416130
Zn2	Zn	1.625135	0.077962	0.916130
Zn3	Zn	1.125069	-0.599320	0.293070
Zn4	Zn	1.625069	-0.099320	0.793070
Zn5	Zn	1.002067	-0.422072	0.293077
Zn6	Zn	1.502067	0.077928	0.793077
Zn7	Zn	1.002059	-0.599261	0.416095
Zn8	Zn	1.502059	-0.099261	0.916095
O9	O	1.063583	-0.510673	0.354593
O10	O	1.563583	-0.010673	0.854593
O11	O	1.228110	-0.445565	0.399818
O12	O	1.728110	0.054435	0.899818
O13	O	1.108729	-0.575847	0.190087
O14	O	1.608729	-0.075847	0.690087
O15	O	1.018423	-0.273720	0.309419
O16	O	1.518423	0.226280	0.809419
O17	O	1.228062	-0.575813	0.309406
O18	O	1.728062	-0.075813	0.809406
O19	O	1.108840	-0.273695	0.399825
O20	O	1.608840	0.226305	0.899825
O21	O	1.018360	-0.445624	0.190092
O22	O	1.518360	0.054376	0.690092
O23	O	0.899082	-0.445566	0.309384
O24	O	1.399082	0.054434	0.809384
O25	O	1.018410	-0.575713	0.519084
O26	O	1.518410	-0.075713	1.019084
O27	O	0.899076	-0.575746	0.399765
O28	O	1.399076	-0.075746	0.899765
O29	O	1.108832	-0.445507	0.519110
O30	O	1.608832	0.054493	1.019110
O31	O	1.108721	-0.747659	0.309371
O32	O	1.608721	-0.247659	0.809371
O33	O	1.018346	-0.747616	0.399757
O34	O	1.518346	-0.247616	0.899757
C35	C	0.872376	-0.510654	0.354572
C36	C	1.372376	-0.010654	0.854572
C37	C	0.790577	-0.510672	0.354580
C38	C	1.290577	-0.010672	0.854580
C39	C	0.602400	-0.578563	0.401582
C40	C	1.102400	-0.078563	0.901582
C41	C	0.525541	-0.578567	0.401591
C42	C	1.025541	-0.078567	0.901591
C43	C	0.525517	-0.442801	0.307620
C44	C	1.025517	0.057199	0.807620
C45	C	0.602375	-0.442793	0.307615
C46	C	1.102375	0.057207	0.807615
C47	C	0.640814	-0.510680	0.354595
C48	C	1.140814	-0.010680	0.854595
C49	C	0.487098	-0.510692	0.354609
C50	C	0.987098	-0.010692	0.854609
C51	C	0.403764	-0.510695	0.354619
C52	C	0.903764	-0.010695	0.854619
C53	C	0.724153	-0.510676	0.354587
C54	C	1.224153	-0.010676	0.854587
C55	C	1.063546	-0.786102	0.354576
C56	C	1.563546	-0.286102	0.854576
C57	C	1.063597	-0.903932	0.354593
C58	C	1.563597	-0.403932	0.854593
C59	C	1.120361	-1.071479	0.297616
C60	C	1.620361	-0.571479	0.797616
C61	C	1.120546	-0.948919	0.297755
C62	C	1.620546	-0.448919	0.797755
C63	C	1.084628	-0.948318	0.432167
C64	C	1.584628	-0.448318	0.932167
C65	C	1.085079	-1.070916	0.431865
C66	C	1.585079	-0.570916	0.931865
C67	C	0.985781	-1.071260	0.334760
C68	C	1.485781	-0.571260	0.834760
C69	C	0.986153	-0.948655	0.333020
C70	C	1.486153	-0.448655	0.833020
C71	C	1.255535	-0.510692	0.354615
C72	C	1.755535	-0.010692	0.854615
C73	C	1.337334	-0.510700	0.354624
C74	C	1.837334	-0.010700	0.854624
C75	C	1.063627	-0.510599	0.546546
C76	C	1.563627	-0.010599	1.046546
C77	C	1.063646	-0.510568	0.628345
C78	C	1.563646	-0.010568	1.128345
C79	C	1.063640	-0.234167	0.354627
C80	C	1.563640	0.265833	0.854627
C81	C	1.063664	-0.116337	0.354641
C82	C	1.563664	0.383663	0.854641
C83	C	1.063580	-0.510669	0.163387
C84	C	1.563580	-0.010669	0.663387
C85	C	1.063704	-0.510401	0.081588
C86	C	1.563704	-0.010401	0.581588
C87	C	1.110747	-0.442707	0.816554
C88	C	1.610747	0.057293	1.316554
C89	C	1.110755	-0.442676	0.893413
C90	C	1.610755	0.057324	1.393413
C91	C	1.016598	-0.578266	0.893374
C92	C	1.516598	-0.078266	1.393374
C93	C	1.016586	-0.578290	0.816517
C94	C	1.516586	-0.078290	1.316517
C95	C	1.063665	-0.510513	0.778109
C96	C	1.563665	-0.010513	1.278109
C97	C	1.063685	-0.510457	0.931825
C98	C	1.563685	-0.010457	1.431825
C99	C	1.063695	-0.510424	1.015158
C100	C	1.563695	-0.010424	1.515158
C101	C	1.063655	-0.510544	0.694770
C102	C	1.563655	-0.010544	1.194770
H103	H	0.633652	-0.387508	0.269352
H104	H	1.133652	0.112492	0.769352
H105	H	0.978242	-0.633505	0.785214
H106	H	1.478242	-0.133505	1.285214
C107	C	1.162551	-0.368087	0.935699
C108	C	1.662551	0.131913	1.435699
N109	N	1.201566	-0.311903	0.967548
N110	N	1.701566	0.188097	1.467548
C111	C	0.964724	-0.909465	0.255901
C112	C	1.464724	-0.409465	0.755901
N113	N	0.948583	-0.879937	0.197816
N114	N	1.448583	-0.379937	0.697816
H115	H	0.494268	-0.633842	0.439854
H116	H	0.994268	-0.133842	0.939854
C117	C	0.644680	-0.653233	0.453267
C118	C	1.144680	-0.153233	0.953267
N119	N	0.676524	-0.709474	0.492200
N120	N	1.176524	-0.209474	0.992200
H121	H	1.107388	-0.918914	0.240235
H122	H	1.607388	-0.418914	0.740235
C123	C	0.483227	-0.368135	0.255941
C124	C	0.983227	0.131865	0.755941
N125	N	0.451375	-0.311897	0.217013
N126	N	0.951375	0.188103	0.717013
C127	C	1.102815	-1.111411	0.219680
C128	C	1.602815	-0.611411	0.719680
N129	N	1.089597	-1.141493	0.160976
N130	N	1.589597	-0.641493	0.660976
C131	C	1.197872	-1.113013	0.315169
C132	C	1.697872	-0.613013	0.815169
N133	N	1.256251	-1.144306	0.328389
N134	N	1.756251	-0.644306	0.828389
C135	C	1.198478	-0.909186	0.315515
C136	C	1.698478	-0.409186	0.815515
N137	N	1.257181	-0.879259	0.328892
N138	N	1.757181	-0.379259	0.828892
H139	H	1.142007	-1.099429	0.448705
H140	H	1.642007	-0.599429	0.948705
H141	H	1.045592	-1.100586	0.475817
H142	H	1.545592	-0.600586	0.975817
H143	H	1.044590	-0.919174	0.475794
H144	H	1.544590	-0.419174	0.975794
H145	H	1.140914	-0.917530	0.449288
H146	H	1.640914	-0.417530	0.949288
H147	H	0.966655	-1.102266	0.279178
H148	H	1.466655	-0.602266	0.779178
H149	H	0.943537	-1.100270	0.376294
H150	H	1.443537	-0.600270	0.876294
C151	C	0.926003	-0.907299	0.385016
C152	C	1.426003	-0.407299	0.885016
N153	N	0.880700	-0.876150	0.424186
N154	N	1.380700	-0.376150	0.924186
H155	H	1.149079	-0.387515	0.785284
H156	H	1.649079	0.112485	1.285284
C157	C	0.964814	-0.652815	0.935630
C158	C	1.464814	-0.152815	1.435630
N159	N	0.925808	-0.708967	0.967457
N160	N	1.425808	-0.208967	1.467457
