data_functionalizedCrystal
_audit_creation_method	'MofGen! by Chris Wilmer'
_symmetry_space_group_name_H-M	'P1'
_symmetry_Int_Tables_number	1
_symmetry_cell_setting	triclinic
loop_
_symmetry_equiv_pos_as_xyz
  x,y,z
_cell_length_a	12.827893
_cell_length_b	13.031981
_cell_length_c	13.034356
_cell_angle_alpha	76.643358
_cell_angle_beta	82.798910
_cell_angle_gamma	97.191988
loop_
_atom_site_label
_atom_site_type_symbol
_atom_site_fract_x
_atom_site_fract_y
_atom_site_fract_z
Zn1	Zn	1.623146	-0.346595	-0.546792
Zn2	Zn	2.123146	0.153405	-0.046792
Zn3	Zn	1.572178	-0.546842	-0.346588
Zn4	Zn	2.072178	-0.046842	0.153412
Zn5	Zn	1.422949	-0.369210	-0.369186
Zn6	Zn	1.922949	0.130790	0.130814
Zn7	Zn	1.422950	-0.524204	-0.524169
Zn8	Zn	1.922950	-0.024204	-0.024169
O9	O	1.510306	-0.446713	-0.446684
O10	O	2.010306	0.053287	0.053316
O11	O	1.762621	-0.373167	-0.520244
O12	O	2.262621	0.126833	-0.020244
O13	O	1.531052	-0.542217	-0.200938
O14	O	2.031052	-0.042217	0.299062
O15	O	1.470835	-0.217540	-0.411671
O16	O	1.970835	0.282460	0.088329
O17	O	1.725175	-0.520288	-0.373155
O18	O	2.225175	-0.020288	0.126845
O19	O	1.617920	-0.200925	-0.542157
O20	O	2.117920	0.299075	-0.042157
O21	O	1.421413	-0.411712	-0.217542
O22	O	1.921413	0.088288	0.282458
O23	O	1.276713	-0.389761	-0.389735
O24	O	1.776713	0.110239	0.110265
O25	O	1.470837	-0.481705	-0.675817
O26	O	1.970837	0.018295	-0.175817
O27	O	1.276713	-0.503634	-0.503601
O28	O	1.776713	-0.003634	-0.003601
O29	O	1.617921	-0.351216	-0.692438
O30	O	2.117921	0.148784	-0.192438
O31	O	1.531053	-0.692509	-0.351219
O32	O	2.031053	-0.192509	0.148781
O33	O	1.421415	-0.675877	-0.481688
O34	O	1.921415	-0.175877	0.018312
C35	C	1.238796	-0.446696	-0.446666
C36	C	1.738796	0.053304	0.053334
C37	C	1.122642	-0.446711	-0.446680
C38	C	1.622642	0.053289	0.053320
C39	C	0.932286	-0.519436	-0.373839
C40	C	1.432286	-0.019436	0.126161
C41	C	1.052336	-0.519422	-0.373823
C42	C	1.552336	-0.019422	0.126177
C43	C	1.470735	-0.722738	-0.411569
C44	C	1.970735	-0.222738	0.088431
C45	C	1.453907	-0.840818	-0.396583
C46	C	1.953907	-0.340818	0.103417
C47	C	1.519147	-0.885150	-0.454527
C48	C	2.019147	-0.385150	0.045473
C49	C	1.501756	-1.007192	-0.439039
C50	C	2.001756	-0.507192	0.060961
C51	C	1.782876	-0.446730	-0.446702
C52	C	2.282876	0.053270	0.053298
C53	C	1.899029	-0.446738	-0.446710
C54	C	2.399029	0.053262	0.053290
C55	C	1.550064	-0.411413	-0.723748
C56	C	2.050064	0.088587	-0.223748
C57	C	1.567007	-0.396370	-0.841816
C58	C	2.067007	0.103630	-0.341816
C59	C	1.550063	-0.169606	-0.481958
C60	C	2.050063	0.330394	0.018042
C61	C	1.567005	-0.051520	-0.496990
C62	C	2.067005	0.448480	0.003010
C63	C	1.519294	-0.438686	-1.008260
C64	C	2.019294	0.061314	-0.508260
C65	C	1.501780	-0.454234	-0.886230
C66	C	2.001780	0.045766	-0.386230
C67	C	1.470773	-0.481798	-0.170707
C68	C	1.970773	0.018202	0.329293
C69	C	1.454075	-0.496542	-0.052678
C70	C	1.954075	0.003458	0.447322
H71	H	1.093978	-0.384471	-0.509074
H72	H	1.593978	0.115529	-0.009074
H73	H	1.635736	-0.999127	-0.558073
H74	H	2.135736	-0.499127	-0.058073
H75	H	1.385174	-0.893215	-0.335514
H76	H	1.885174	-0.393215	0.164486
C77	C	1.659964	-0.313898	-0.912479
C78	C	2.159964	0.186102	-0.412479
N79	N	1.729978	-0.251780	-0.965704
N80	N	2.229978	0.248220	-0.465704
C81	C	0.980627	-0.362636	-0.530978
C82	C	1.480627	0.137364	-0.030978
N83	N	1.042087	-0.299290	-0.594451
N84	N	1.542087	0.200710	-0.094451
H85	H	1.587873	-0.832755	-0.515605
H86	H	2.087873	-0.332755	-0.015605
C87	C	1.361124	-0.579009	-0.982009
C88	C	1.861124	-0.079009	-0.482009
N89	N	1.291110	-0.641124	-0.928782
N90	N	1.791110	-0.141124	-0.428782
H91	H	1.432977	-0.515285	-0.833919
H92	H	1.932977	-0.015285	-0.333919
H93	H	1.433018	-1.059585	-0.377966
H94	H	1.933018	-0.559585	0.122034
C95	C	0.850688	-0.603535	-0.289569
C96	C	1.350688	-0.103535	0.210431
N97	N	0.789229	-0.666881	-0.226095
N98	N	1.289229	-0.166881	0.273905
C99	C	1.091066	-0.603507	-0.289536
C100	C	1.591066	-0.103507	0.210464
N101	N	1.120240	-0.666841	-0.226047
N102	N	1.620240	-0.166841	0.273953
H103	H	1.588099	-0.377648	-1.060573
H104	H	2.088099	0.122352	-0.560573
