data_functionalizedCrystal
_audit_creation_method	'MofGen! by Chris Wilmer'
_symmetry_space_group_name_H-M	'P1'
_symmetry_Int_Tables_number	1
_symmetry_cell_setting	triclinic
loop_
_symmetry_equiv_pos_as_xyz
  x,y,z
_cell_length_a	14.519731
_cell_length_b	17.019294
_cell_length_c	13.596369
_cell_angle_alpha	86.115041
_cell_angle_beta	89.994584
_cell_angle_gamma	83.541199
loop_
_atom_site_label
_atom_site_type_symbol
_atom_site_fract_x
_atom_site_fract_y
_atom_site_fract_z
O1	O	1.223521	0.103487	-0.090557
O2	O	1.473521	0.353487	0.159443
O3	O	1.723521	0.603487	0.409443
O4	O	1.973521	0.853487	0.659443
O5	O	0.955007	0.115647	-0.091588
O6	O	1.205007	0.365647	0.158412
O7	O	1.455007	0.615647	0.408412
O8	O	1.705007	0.865647	0.658412
O9	O	1.096754	-0.005255	-0.081343
O10	O	1.346754	0.244745	0.168657
O11	O	1.596754	0.494745	0.418657
O12	O	1.846754	0.744745	0.668657
O13	O	1.081774	0.224389	-0.100802
O14	O	1.331774	0.474389	0.149198
O15	O	1.581774	0.724389	0.399198
O16	O	1.831774	0.974389	0.649198
O17	O	1.096740	-0.005261	0.082241
O18	O	1.346740	0.244739	0.332241
O19	O	1.596740	0.494739	0.582241
O20	O	1.846740	0.744739	0.832241
O21	O	0.954993	0.115640	0.071995
O22	O	1.204993	0.365640	0.321995
O23	O	1.454993	0.615640	0.571995
O24	O	1.704993	0.865640	0.821995
O25	O	1.223507	0.103481	0.073027
O26	O	1.473507	0.353481	0.323027
O27	O	1.723507	0.603481	0.573027
O28	O	1.973507	0.853481	0.823027
Zn29	Zn	1.089248	0.109560	0.098483
Zn30	Zn	1.339248	0.359560	0.348483
Zn31	Zn	1.589248	0.609560	0.598483
Zn32	Zn	1.839248	0.859560	0.848483
Zn33	Zn	1.089266	0.109568	-0.117045
Zn34	Zn	1.339266	0.359568	0.132955
Zn35	Zn	1.589266	0.609568	0.382955
Zn36	Zn	1.839266	0.859568	0.632955
O37	O	1.081759	0.224382	0.062781
O38	O	1.331759	0.474382	0.312781
O39	O	1.581759	0.724382	0.562781
O40	O	1.831759	0.974382	0.812781
C41	C	0.920643	0.115074	-0.009748
C42	C	1.170643	0.365074	0.240252
C43	C	1.420643	0.615074	0.490252
C44	C	1.670643	0.865074	0.740252
C45	C	0.818268	0.113367	-0.009604
C46	C	1.068268	0.363367	0.240396
C47	C	1.318268	0.613367	0.490396
C48	C	1.568268	0.863367	0.740396
C49	C	0.735128	0.111979	-0.009490
C50	C	0.985128	0.361979	0.240510
C51	C	1.235128	0.611979	0.490510
C52	C	1.485128	0.861979	0.740510
C53	C	0.630825	0.110246	-0.009344
C54	C	0.880825	0.360246	0.240656
C55	C	1.130825	0.610246	0.490656
C56	C	1.380825	0.860246	0.740656
C57	C	0.547690	0.108870	-0.009227
C58	C	0.797690	0.358870	0.240773
C59	C	1.047690	0.608870	0.490773
C60	C	1.297690	0.858870	0.740773
C61	C	0.443381	0.107137	-0.009083
C62	C	0.693381	0.357137	0.240917
C63	C	0.943381	0.607137	0.490917
C64	C	1.193381	0.857137	0.740917
C65	C	1.096179	-0.034648	0.002937
C66	C	1.346179	0.215352	0.252937
C67	C	1.596179	0.465352	0.502937
C68	C	1.846179	0.715352	0.752937
C69	C	1.094475	-0.122221	0.010352
C70	C	1.344475	0.127779	0.260352
C71	C	1.594475	0.377779	0.510352
C72	C	1.844475	0.627779	0.760352
C73	C	1.093684	-0.163355	-0.075334
C74	C	1.343684	0.086645	0.174666
C75	C	1.593684	0.336645	0.424666
C76	C	1.843684	0.586645	0.674666
C77	C	1.092077	-0.245639	-0.068364
C78	C	1.342077	0.004361	0.181636
C79	C	1.592077	0.254361	0.431636
C80	C	1.842077	0.504361	0.681636
C81	C	1.091267	-0.286788	0.024292
C82	C	1.341267	-0.036788	0.274292
C83	C	1.591267	0.213212	0.524292
C84	C	1.841267	0.463212	0.774292
C85	C	1.092055	-0.245648	0.109984
C86	C	1.342055	0.004352	0.359984
C87	C	1.592055	0.254352	0.609984
C88	C	1.842055	0.504352	0.859984
C89	C	1.093656	-0.163365	0.103013
C90	C	1.343656	0.086635	0.353013
C91	C	1.593656	0.336635	0.603013
C92	C	1.843656	0.586635	0.853013
C93	C	1.086428	-0.535228	0.049800
C94	C	1.336428	-0.285228	0.299800
C95	C	1.586428	-0.035228	0.549800
C96	C	1.836428	0.214772	0.799800
C97	C	1.084830	-0.617517	0.056764
C98	C	1.334830	-0.367517	0.306764
C99	C	1.584830	-0.117517	0.556764
C100	C	1.834830	0.132483	0.806764
C101	C	1.084850	-0.617503	-0.121585
C102	C	1.334850	-0.367503	0.128415
C103	C	1.584850	-0.117503	0.378415
C104	C	1.834850	0.132497	0.628415
C105	C	1.086456	-0.535219	-0.128547
C106	C	1.336456	-0.285219	0.121453
C107	C	1.586456	-0.035219	0.371453
C108	C	1.836456	0.214781	0.621453
C109	C	1.087239	-0.494085	-0.042856
C110	C	1.337239	-0.244085	0.207144
C111	C	1.587239	0.005915	0.457144
C112	C	1.837239	0.255915	0.707144
C113	C	1.089627	-0.370895	0.031418
C114	C	1.339627	-0.120895	0.281418
C115	C	1.589627	0.129105	0.531418
C116	C	1.839627	0.379105	0.781418
C117	C	1.088872	-0.409979	-0.049983
C118	C	1.338872	-0.159979	0.200017
C119	C	1.588872	0.090021	0.450017
C120	C	1.838872	0.340021	0.700017
C121	C	1.257871	0.104054	-0.008815
C122	C	1.507871	0.354054	0.241185
C123	C	1.757871	0.604054	0.491185
C124	C	2.007871	0.854054	0.741185
C125	C	1.360246	0.105761	-0.008966
C126	C	1.610246	0.355761	0.241034
C127	C	1.860246	0.605761	0.491034
C128	C	2.110246	0.855761	0.741034
C129	C	1.082335	0.253776	-0.021501
C130	C	1.332335	0.503776	0.228499
C131	C	1.582335	0.753776	0.478499
C132	C	1.832335	1.003776	0.728499
C133	C	1.084039	0.341349	-0.028922
C134	C	1.334039	0.591349	0.221078
C135	C	1.584039	0.841349	0.471078
C136	C	1.834039	1.091349	0.721078
N137	N	1.089242	0.109553	0.245576
N138	N	1.339242	0.359553	0.495576
N139	N	1.589242	0.609553	0.745576
N140	N	1.839242	0.859553	0.995576
N141	N	1.089279	0.109568	-0.264137
N142	N	1.339279	0.359568	-0.014137
N143	N	1.589279	0.609568	0.235863
N144	N	1.839279	0.859568	0.485863
C145	C	1.089265	0.109569	0.646865
C146	C	1.339265	0.359569	0.896865
C147	C	1.589265	0.609569	1.146865
C148	C	1.839265	0.859569	1.396865
C149	C	1.089256	0.109567	0.535214
C150	C	1.339256	0.359567	0.785214
C151	C	1.589256	0.609567	1.035214
C152	C	1.839256	0.859567	1.285214
C153	C	1.089254	0.109562	0.446224
C154	C	1.339254	0.359562	0.696224
C155	C	1.589254	0.609562	0.946224
C156	C	1.839254	0.859562	1.196224
C157	C	1.089244	0.109559	0.334566
C158	C	1.339244	0.359559	0.584566
C159	C	1.589244	0.609559	0.834566
C160	C	1.839244	0.859559	1.084566
H161	H	1.094348	-0.129859	-0.150784
H162	H	1.344348	0.120141	0.099216
H163	H	1.594348	0.370141	0.349216
H164	H	1.844348	0.620141	0.599216
O165	O	1.089491	-0.370033	-0.140014
O166	O	1.339491	-0.120033	0.109986
O167	O	1.589491	0.129967	0.359986
O168	O	1.839491	0.379967	0.609986
C169	C	1.009287	-0.381341	-0.193318
C170	C	1.259287	-0.131341	0.056682
C171	C	1.509287	0.118659	0.306682
C172	C	1.759287	0.368659	0.556682
H173	H	0.953044	-0.397804	-0.139751
H174	H	1.203044	-0.147804	0.110249
H175	H	1.453044	0.102196	0.360249
H176	H	1.703044	0.352196	0.610249
H177	H	0.983546	-0.324268	-0.238603
H178	H	1.233546	-0.074268	0.011397
H179	H	1.483546	0.175732	0.261397
H180	H	1.733546	0.425732	0.511397
H181	H	1.026416	-0.431093	-0.244704
H182	H	1.276416	-0.181093	0.005296
H183	H	1.526416	0.068907	0.255296
H184	H	1.776416	0.318907	0.505296
H185	H	1.087084	-0.501749	0.119576
H186	H	1.337084	-0.251749	0.369576
H187	H	1.587084	-0.001749	0.619576
H188	H	1.837084	0.248251	0.869576
H189	H	1.084166	-0.651018	0.132219
H190	H	1.334166	-0.401018	0.382219
H191	H	1.584166	-0.151018	0.632219
H192	H	1.834166	0.098982	0.882219
H193	H	1.091437	-0.279127	-0.138138
H194	H	1.341437	-0.029127	0.111862
H195	H	1.591437	0.220873	0.361862
H196	H	1.841437	0.470873	0.611862
O197	O	1.088733	-0.410948	0.121364
O198	O	1.338733	-0.160948	0.371364
O199	O	1.588733	0.089052	0.621364
O200	O	1.838733	0.339052	0.871364
C201	C	1.007968	-0.449718	0.130000
C202	C	1.257968	-0.199718	0.380000
C203	C	1.507968	0.050282	0.630000
C204	C	1.757968	0.300282	0.880000
H205	H	0.981105	-0.459088	0.053374
H206	H	1.231105	-0.209088	0.303374
H207	H	1.481105	0.040912	0.553374
H208	H	1.731105	0.290912	0.803374
H209	H	1.024805	-0.509570	0.172791
H210	H	1.274805	-0.259570	0.422791
H211	H	1.524805	-0.009570	0.672791
H212	H	1.774805	0.240430	0.922791
H213	H	0.952686	-0.411847	0.170818
H214	H	1.202686	-0.161847	0.420818
H215	H	1.452686	0.088153	0.670818
H216	H	1.702686	0.338153	0.920818
O217	O	1.087258	-0.495154	-0.218492
O218	O	1.337258	-0.245154	0.031508
O219	O	1.587258	0.004846	0.281508
O220	O	1.837258	0.254846	0.531508
C221	C	1.167926	-0.456260	-0.227206
C222	C	1.417926	-0.206260	0.022794
C223	C	1.667926	0.043740	0.272794
C224	C	1.917926	0.293740	0.522794
H225	H	1.223374	-0.487236	-0.174149
H226	H	1.473374	-0.237236	0.075851
H227	H	1.723374	0.012764	0.325851
H228	H	1.973374	0.262764	0.575851
H229	H	1.194591	-0.458145	-0.305972
H230	H	1.444591	-0.208145	-0.055972
H231	H	1.694591	0.041855	0.194028
H232	H	1.944591	0.291855	0.444028
H233	H	1.151046	-0.391949	-0.208544
H234	H	1.401046	-0.141949	0.041456
H235	H	1.651046	0.108051	0.291456
H236	H	1.901046	0.358051	0.541456
H237	H	1.091390	-0.279157	0.185426
H238	H	1.341390	-0.029157	0.435426
H239	H	1.591390	0.220843	0.685426
H240	H	1.841390	0.470843	0.935426
H241	H	1.094287	-0.129873	0.172787
H242	H	1.344287	0.120127	0.422787
H243	H	1.594287	0.370127	0.672787
H244	H	1.844287	0.620127	0.922787
H245	H	1.084210	-0.651002	-0.191350
H246	H	1.334210	-0.401002	0.058650
H247	H	1.584210	-0.151002	0.308650
H248	H	1.834210	0.098998	0.558650
