data_functionalizedCrystal
_audit_creation_method	'MofGen! by Chris Wilmer'
_symmetry_space_group_name_H-M	'P1'
_symmetry_Int_Tables_number	1
_symmetry_cell_setting	triclinic
loop_
_symmetry_equiv_pos_as_xyz
  x,y,z
_cell_length_a	29.839131
_cell_length_b	16.625548
_cell_length_c	16.625539
_cell_angle_alpha	90.020568
_cell_angle_beta	89.967906
_cell_angle_gamma	89.957512
loop_
_atom_site_label
_atom_site_type_symbol
_atom_site_fract_x
_atom_site_fract_y
_atom_site_fract_z
Zn1	Zn	-0.178840	-1.232574	-0.455888
Zn2	Zn	0.321160	-0.732574	0.044112
Zn3	Zn	-0.253971	-1.232433	-0.321046
Zn4	Zn	0.246029	-0.732433	0.178954
Zn5	Zn	-0.178857	-1.097736	-0.321069
Zn6	Zn	0.321143	-0.597736	0.178931
Zn7	Zn	-0.253945	-1.097662	-0.455836
Zn8	Zn	0.246055	-0.597662	0.044164
O9	O	-0.216403	-1.165101	-0.388460
O10	O	0.283597	-0.665101	0.111540
O11	O	-0.188810	-1.345388	-0.438013
O12	O	0.311190	-0.845388	0.061987
O13	O	-0.244025	-1.214537	-0.208217
O14	O	0.255975	-0.714537	0.291783
O15	O	-0.115987	-1.115713	-0.338984
O16	O	0.384013	-0.615713	0.161016
O17	O	-0.244008	-1.345284	-0.338946
O18	O	0.255992	-0.845284	0.161054
O19	O	-0.115975	-1.214778	-0.438035
O20	O	0.384025	-0.714778	0.061965
O21	O	-0.188839	-1.115576	-0.208233
O22	O	0.311161	-0.615576	0.291767
O23	O	-0.188814	-0.984894	-0.338933
O24	O	0.311186	-0.484894	0.161067
O25	O	-0.243964	-1.115586	-0.568676
O26	O	0.256036	-0.615586	-0.068676
O27	O	-0.243981	-0.984839	-0.437947
O28	O	0.256019	-0.484839	0.062053
O29	O	-0.188785	-1.214706	-0.568714
O30	O	0.311215	-0.714706	-0.068714
O31	O	-0.316834	-1.214465	-0.338896
O32	O	0.183166	-0.714465	0.161104
O33	O	-0.316815	-1.115449	-0.437925
O34	O	0.183185	-0.615449	0.062075
C35	C	-0.333126	-1.164956	-0.388420
C36	C	0.166874	-0.664956	0.111580
C37	C	-0.383060	-1.164967	-0.388430
C38	C	0.116940	-0.664967	0.111570
C39	C	-0.216397	-0.955610	-0.388437
C40	C	0.283603	-0.455610	0.111563
C41	C	-0.216405	-0.865989	-0.388447
C42	C	0.283595	-0.365989	0.111553
C43	C	-0.216370	-1.165154	-0.598769
C44	C	0.283630	-0.665154	-0.098769
C45	C	-0.216355	-1.165176	-0.688390
C46	C	0.283645	-0.665176	-0.188390
C47	C	-0.692701	-1.216752	-0.336971
C48	C	-0.192701	-0.716752	0.163029
C49	C	-0.880374	-1.216852	-0.337002
C50	C	-0.380374	-0.716852	0.162998
O51	O	-0.904636	-1.260766	-0.293219
O52	O	-0.404636	-0.760766	0.206781
N53	N	-0.903845	-1.165268	-0.388521
N54	N	-0.403845	-0.665268	0.111479
C55	C	-0.880395	-1.113660	-0.440039
C56	C	-0.380395	-0.613660	0.059961
O57	O	-0.904665	-1.069793	-0.483866
O58	O	-0.404665	-0.569793	0.016134
C59	C	-0.692723	-1.113565	-0.440011
C60	C	-0.192723	-0.613565	0.059989
C61	C	-0.669254	-1.165146	-0.388483
C62	C	-0.169254	-0.665146	0.111517
C63	C	-0.669232	-1.268330	-0.285447
C64	C	-0.169232	-0.768330	0.214553
C65	C	-0.622316	-1.268302	-0.285437
C66	C	-0.122316	-0.768302	0.214563
C67	C	-0.598870	-1.216695	-0.336950
C68	C	-0.098870	-0.716695	0.163050
C69	C	-0.622339	-1.165118	-0.388473
C70	C	-0.122339	-0.665118	0.111527
C71	C	-0.669274	-1.061962	-0.491533
C72	C	-0.169274	-0.561962	0.008467
C73	C	-0.622353	-1.061944	-0.491523
C74	C	-0.122353	-0.561944	0.008477
C75	C	-0.598884	-1.113525	-0.439995
C76	C	-0.098884	-0.613525	0.060005
C77	C	-0.551977	-1.113483	-0.439975
C78	C	-0.051977	-0.613483	0.060025
N79	N	-0.528505	-1.165067	-0.388456
N80	N	-0.028505	-0.665067	0.111544
C81	C	-0.551952	-1.216673	-0.336944
C82	C	-0.051952	-0.716673	0.163056
C83	C	-0.978926	-1.113712	-0.440049
C84	C	-0.478926	-0.613712	0.059951
C85	C	-1.025844	-1.113735	-0.440055
C86	C	-0.525844	-0.613735	0.059945
C87	C	-1.025819	-1.216928	-0.337019
C88	C	-0.525819	-0.716928	0.162981
C89	C	-0.978900	-1.216901	-0.337009
C90	C	-0.478900	-0.716901	0.162991
C91	C	-0.955455	-1.165296	-0.388530
C92	C	-0.455455	-0.665296	0.111470
C93	C	-0.453426	-1.216609	-0.336925
C94	C	0.046574	-0.716609	0.163075
C95	C	-0.406506	-1.216573	-0.336917
C96	C	0.093494	-0.716573	0.163083
C97	C	-0.406535	-1.113383	-0.439956
C98	C	0.093465	-0.613383	0.060044
C99	C	-0.453451	-1.113416	-0.439962
C100	C	0.046549	-0.613416	0.060038
C101	C	-0.476895	-1.165035	-0.388443
C102	C	0.023105	-0.665035	0.111557
O103	O	-0.527685	-1.069599	-0.483742
O104	O	-0.027685	-0.569599	0.016258
O105	O	-0.527674	-1.260546	-0.293136
O106	O	-0.027674	-0.760546	0.206864
C107	C	-0.739616	-1.216781	-0.336981
C108	C	-0.239616	-0.716781	0.163019
C109	C	-0.763085	-1.165203	-0.388504
C110	C	-0.263085	-0.665203	0.111496
C111	C	-0.739639	-1.113597	-0.440017
C112	C	-0.239639	-0.613597	0.059983
C113	C	-0.810003	-1.165226	-0.388510
C114	C	-0.310003	-0.665226	0.111490
C115	C	-0.833449	-1.216832	-0.336997
C116	C	-0.333449	-0.716832	0.163003
C117	C	-0.809978	-1.268416	-0.285479
C118	C	-0.309978	-0.768416	0.214521
C119	C	-0.763062	-1.268387	-0.285468
C120	C	-0.263062	-0.768387	0.214532
C121	C	-0.763110	-1.062014	-0.491536
C122	C	-0.263110	-0.562014	0.008464
C123	C	-0.810026	-1.062046	-0.491541
C124	C	-0.310026	-0.562046	0.008459
C125	C	-0.833472	-1.113652	-0.440028
C126	C	-0.333472	-0.613652	0.059972
C127	C	-0.099225	-1.165269	-0.388518
C128	C	0.400775	-0.665269	0.111482
C129	C	-0.049290	-1.165341	-0.388542
C130	C	0.450710	-0.665341	0.111458
C131	C	-0.216410	-1.375410	-0.388483
C132	C	0.283590	-0.875410	0.111517
C133	C	-0.216413	-1.465031	-0.388493
C134	C	0.283587	-0.965031	0.111507
C135	C	-0.216408	-0.537814	-0.388481
C136	C	0.283592	-0.037814	0.111519
C137	C	-0.216406	-0.629122	-0.388469
C138	C	0.283594	-0.129122	0.111531
C139	C	-0.216406	-0.701899	-0.388463
C140	C	0.283594	-0.201899	0.111537
C141	C	-0.216404	-0.793213	-0.388452
C142	C	0.283596	-0.293213	0.111548
C143	C	-0.216305	-1.165213	-1.016566
C144	C	0.283695	-0.665213	-0.516566
C145	C	-0.216320	-1.165201	-0.925257
C146	C	0.283680	-0.665201	-0.425257
C147	C	-0.216330	-1.165195	-0.852481
C148	C	0.283670	-0.665195	-0.352481
C149	C	-0.216345	-1.165182	-0.761167
C150	C	0.283655	-0.665182	-0.261167
C151	C	-0.216404	-1.165095	-0.178969
C152	C	0.283596	-0.665095	0.321031
C153	C	-0.216292	-1.165229	-0.089348
C154	C	0.283708	-0.665229	0.410652
H155	H	-0.472509	-1.258644	-0.294976
H156	H	0.027491	-0.758644	0.205024
H157	H	-0.472560	-1.071417	-0.481922
H158	H	0.027440	-0.571417	0.018078
N159	N	-0.598412	-1.009229	-0.544162
N160	N	-0.098412	-0.509229	-0.044162
N161	N	-0.619376	-0.963185	-0.590163
N162	N	-0.119376	-0.463185	-0.090163
H163	H	-0.602468	-0.925954	-0.627339
H164	H	-0.102468	-0.425954	-0.127339
H165	H	-0.387438	-1.071364	-0.481895
H166	H	0.112562	-0.571364	0.018105
N167	N	-1.049814	-1.061027	-0.492671
N168	N	-0.549814	-0.561027	0.007329
N169	N	-1.044615	-0.986627	-0.487250
N170	N	-0.544615	-0.486627	0.012750
H171	H	-1.061542	-0.949401	-0.524413
H172	H	-0.561542	-0.449401	-0.024413
H173	H	-0.688375	-1.019955	-0.533489
H174	H	-0.188375	-0.519955	-0.033489
N175	N	-0.382527	-1.269259	-0.284284
N176	N	0.117473	-0.769259	0.215716
N177	N	-0.340637	-1.269227	-0.284273
N178	N	0.159363	-0.769227	0.215727
H179	H	-0.323702	-1.306433	-0.247101
H180	H	0.176298	-0.806433	0.252899
H181	H	-0.603210	-1.310306	-0.243481
H182	H	-0.103210	-0.810306	0.256519
H183	H	-0.688317	-1.310358	-0.243499
H184	H	-0.188317	-0.810358	0.256501
H185	H	-1.044917	-1.258948	-0.295075
H186	H	-0.544917	-0.758948	0.204925
N187	N	-0.739100	-1.321079	-0.232826
N188	N	-0.239100	-0.821079	0.267174
N189	N	-0.760048	-1.367148	-0.186840
N190	N	-0.260048	-0.867148	0.313160
H191	H	-0.743127	-1.404365	-0.149658
H192	H	-0.243127	-0.904365	0.350342
H193	H	-0.829076	-1.310433	-0.243533
H194	H	-0.329076	-0.810433	0.256467
N195	N	-0.833989	-1.009341	-0.544178
N196	N	-0.333989	-0.509341	-0.044178
N197	N	-0.813043	-0.963271	-0.590166
N198	N	-0.313043	-0.463271	-0.090166
H199	H	-0.829965	-0.926052	-0.627344
H200	H	-0.329965	-0.426052	-0.127344
N201	N	-0.954930	-1.269582	-0.284366
N202	N	-0.454930	-0.769582	0.215634
N203	N	-0.960202	-1.264272	-0.209961
N204	N	-0.460202	-0.764272	0.290039
H205	H	-0.943275	-1.301480	-0.172779
H206	H	-0.443275	-0.801480	0.327221
N207	N	-0.954987	-1.060991	-0.492686
N208	N	-0.454987	-0.560991	0.007314
N209	N	-0.975955	-1.014943	-0.538677
N210	N	-0.475955	-0.514943	-0.038677
H211	H	-0.959050	-0.977705	-0.575851
H212	H	-0.459050	-0.477705	-0.075851
H213	H	-0.744024	-1.019991	-0.533485
H214	H	-0.244024	-0.519991	-0.033485
