data_functionalizedCrystal
_audit_creation_method	'MofGen! by Chris Wilmer'
_symmetry_space_group_name_H-M	'P1'
_symmetry_Int_Tables_number	1
_symmetry_cell_setting	triclinic
loop_
_symmetry_equiv_pos_as_xyz
  x,y,z
_cell_length_a	14.628931
_cell_length_b	14.560438
_cell_length_c	14.628931
_cell_angle_alpha	90.001529
_cell_angle_beta	60.000000
_cell_angle_gamma	60.001311
loop_
_atom_site_label
_atom_site_type_symbol
_atom_site_fract_x
_atom_site_fract_y
_atom_site_fract_z
Zr1	Zr	1.000596	0.884750	-0.119949
O2	O	1.191299	0.738103	-0.265912
O3	O	0.809890	0.929706	-0.075203
O4	O	1.000596	0.929705	-0.265909
O5	O	1.000593	0.738105	0.075226
O6	O	1.000599	1.080843	-0.265906
O7	O	1.000593	0.738104	-0.075206
O8	O	0.659461	1.080845	0.075232
O9	O	1.341731	0.738103	-0.265912
O10	O	0.888333	1.061671	-0.056118
O11	O	0.888331	0.948879	0.056146
O12	O	1.112863	0.948878	-0.168386
O13	O	1.112861	0.836085	-0.056122
Zr14	Zr	1.000600	1.125799	0.119977
Zr15	Zr	1.000600	1.125798	-0.119945
Zr16	Zr	1.000596	0.884751	0.119973
Zr17	Zr	1.240518	0.884750	-0.119949
Zr18	Zr	0.760678	1.125799	0.119977
O19	O	1.191305	1.080843	0.075231
O20	O	1.191305	1.080843	-0.265907
O21	O	1.191299	0.738104	0.075225
O22	O	0.809896	1.272446	0.265940
O23	O	0.809896	1.272445	-0.075197
O24	O	0.809890	0.929706	0.265935
O25	O	1.000602	1.272445	-0.075198
O26	O	1.000599	1.080844	0.265937
O27	O	1.000596	0.929706	0.265934
O28	O	1.000602	1.272445	0.075234
O29	O	1.341735	0.929704	-0.265909
O30	O	0.659461	1.080845	0.265937
O31	O	0.659464	1.272446	0.265941
O32	O	0.659464	1.272446	0.075235
O33	O	1.341731	0.738104	-0.075207
O34	O	1.341735	0.929705	-0.075204
O35	O	0.888333	1.061672	0.168414
O36	O	0.888335	1.174464	0.056150
O37	O	1.112864	1.061671	-0.056118
O38	O	1.112863	0.948878	0.056146
C39	C	0.700492	1.005275	0.000015
C40	C	0.598639	1.005275	0.000015
C41	C	0.631988	0.926146	-0.078746
C42	C	0.526719	0.926144	-0.078748
C43	C	1.000593	0.703760	0.000009
C44	C	1.000591	0.601429	0.000008
C45	C	0.883391	0.612228	0.058610
C46	C	0.883397	0.516073	0.058620
C47	C	1.117814	0.398324	-0.058584
C48	C	1.117806	0.494478	-0.058587
C49	C	0.766175	0.719179	0.117204
C50	C	0.648966	0.729982	0.175810
C51	C	0.648972	0.633827	0.175820
C52	C	0.766188	0.526869	0.117224
C53	C	1.300703	1.005274	0.000013
C54	C	1.402557	1.005274	0.000013
C55	C	1.000598	1.005274	-0.300091
C56	C	1.000598	1.005274	-0.401944
C57	C	1.000603	1.306789	0.000019
C58	C	1.000604	1.409120	0.000020
C59	C	1.000599	1.084403	-0.447352
C60	C	1.000599	1.084405	-0.552623
C61	C	1.000598	1.005275	0.300119
C62	C	1.000598	1.005275	0.401972
C63	C	0.700497	1.306790	0.000019
C64	C	0.598645	1.409121	0.000021
C65	C	0.700492	1.005276	0.300120
C66	C	0.598639	1.005276	0.401973
C67	C	0.700497	1.306790	0.300125
C68	C	0.598645	1.409122	0.401980
C69	C	1.300698	0.703759	-0.300097
C70	C	1.402550	0.601427	-0.401951
C71	C	1.300698	0.703760	0.000009
C72	C	1.402550	0.601428	0.000007
C73	C	1.300703	1.005273	-0.300092
C74	C	1.402557	1.005273	-0.401945
C75	C	0.553236	1.398791	-0.055670
C76	C	0.447967	1.504554	-0.055669
C77	C	0.553230	1.061229	0.503075
C78	C	0.447960	1.061231	0.608347
C79	C	0.553238	1.510697	0.391699
C80	C	0.447969	1.616464	0.496970
H81	H	0.492154	1.073021	0.067442
H82	H	1.213241	0.485681	-0.106284
C83	C	0.545892	1.526841	0.064438
C84	C	0.559021	1.609104	0.001549
C85	C	0.506271	1.726824	0.065968
C86	C	0.440392	1.762281	0.193277
C87	C	0.427260	1.680016	0.256173
C88	C	0.480010	1.562296	0.191754
H89	H	0.607792	1.582858	-0.092699
H90	H	0.515992	1.787722	0.019407
H91	H	0.401343	1.849424	0.240964
H92	H	0.378490	1.706262	0.350421
H93	H	0.470289	1.501399	0.238315
H94	H	0.441601	1.518994	0.606701
H95	H	0.592299	1.519361	0.304964
H96	H	0.408912	1.495885	-0.103345
C97	C	0.395214	1.125950	0.725511
C98	C	0.447733	1.190762	0.737503
C99	C	0.394985	1.255484	0.854672
C100	C	0.289719	1.255393	0.959848
C101	C	0.237194	1.190579	0.947858
C102	C	0.289942	1.125857	0.830690
H103	H	0.525662	1.190832	0.659643
H104	H	0.433868	1.303464	0.863547
H105	H	0.250672	1.303304	1.046583
H106	H	0.159264	1.190510	1.025719
H107	H	0.251059	1.077877	0.821815
H108	H	0.374170	1.073019	0.067451
H109	H	0.738472	0.858405	-0.146178
H110	H	0.555096	0.858396	-0.146175
H111	H	0.592294	1.109127	0.511696
C112	C	0.545883	0.940559	0.390312
C113	C	0.401114	1.003745	0.440077
C114	C	0.348360	0.939026	0.428411
C115	C	0.440376	0.811120	0.366980
C116	C	0.585153	0.747926	0.317211
C117	C	0.637907	0.812646	0.328877
H118	H	0.332991	1.098436	0.485555
H119	H	0.241186	0.985807	0.465253
H120	H	0.401325	0.763210	0.358344
H121	H	0.653277	0.653236	0.271732
H122	H	0.745081	0.765865	0.292034
H123	H	0.441593	0.957378	0.511331
H124	H	0.766157	0.797480	0.117200
H125	H	0.559592	1.400461	0.488716
C126	C	1.000601	1.175931	-0.605368
C127	C	0.888952	1.254836	-0.615361
C128	C	0.888953	1.346365	-0.668109
C129	C	1.000604	1.358989	-0.710862
C130	C	1.112261	1.280082	-0.700870
C131	C	1.112259	1.188552	-0.648122
H132	H	0.806294	1.245493	-0.583712
H133	H	0.806297	1.404778	-0.675506
H134	H	1.000605	1.426745	-0.749909
H135	H	1.194919	1.289424	-0.732519
H136	H	1.194916	1.130139	-0.640726
H137	H	0.553533	0.817071	0.223524
H138	H	0.408916	1.703601	0.488342
C139	C	1.000596	0.913746	-0.545288
C140	C	0.888946	0.947015	-0.423642
C141	C	0.888945	0.855486	-0.370895
C142	C	1.000593	0.730687	-0.439794
C143	C	1.112251	0.697411	-0.561447
C144	C	1.112252	0.788941	-0.614194
H145	H	0.806290	1.039404	-0.372633
H146	H	0.806288	0.880119	-0.280839
H147	H	1.000592	0.662931	-0.400747
H148	H	1.194907	0.605022	-0.612457
H149	H	1.194910	0.764307	-0.704250
H150	H	1.213245	0.311234	-0.106292
H151	H	1.000593	1.152152	-0.408292
H152	H	0.553535	0.642628	0.223549
H153	H	0.766183	0.448578	0.117244
C154	C	0.605983	1.281070	-0.120082
C155	C	0.711244	1.175404	-0.119986
C156	C	0.763986	1.057684	-0.184397
C157	C	0.711467	1.045631	-0.248904
C158	C	0.606201	1.151301	-0.249002
C159	C	0.553459	1.269021	-0.184591
H160	H	0.750126	1.184323	-0.072232
H161	H	0.841911	0.979460	-0.184324
H162	H	0.750510	0.958487	-0.296584
H163	H	0.567319	1.142382	-0.296755
H164	H	0.475534	1.347245	-0.184664
H165	H	1.000590	0.937533	-0.440999
H166	H	0.441601	1.614802	0.047714
