data_functionalizedCrystal
_audit_creation_method	'MofGen! by Chris Wilmer'
_symmetry_space_group_name_H-M	'P1'
_symmetry_Int_Tables_number	1
_symmetry_cell_setting	triclinic
loop_
_symmetry_equiv_pos_as_xyz
  x,y,z
_cell_length_a	6.817900
_cell_length_b	11.102288
_cell_length_c	16.418042
_cell_angle_alpha	93.889468
_cell_angle_beta	103.389568
_cell_angle_gamma	108.605689
loop_
_atom_site_label
_atom_site_type_symbol
_atom_site_fract_x
_atom_site_fract_y
_atom_site_fract_z
V1	V	-4.051821	-0.176872	-0.261154
O2	O	-4.011990	0.007436	-0.256182
O3	O	-4.029007	-0.349685	-0.259368
O4	O	-4.002561	-0.174618	-0.375052
O5	O	-4.038619	-0.168843	-0.139697
V6	V	-4.532245	-0.154772	-0.246627
O7	O	-4.319877	-0.225351	-0.293020
O8	O	-4.714386	-0.106292	-0.214760
O9	O	-4.331853	0.018042	-0.248413
O10	O	-4.689473	-0.339080	-0.251598
O11	O	-4.662844	-0.162801	-0.368083
O12	O	-4.358299	-0.157026	-0.132728
C13	C	-3.880259	-0.391799	-0.255248
C14	C	-3.942887	-0.533079	-0.254547
C15	C	-4.155362	-0.605942	-0.258396
C16	C	-4.214199	-0.738691	-0.257744
C17	C	-3.848063	-0.725700	-0.249390
C18	C	-3.789232	-0.592955	-0.250048
C19	C	-3.846524	-0.168481	-0.402814
C20	C	-3.887701	-0.167782	-0.495926
C21	C	-4.165424	-0.172509	-0.714412
C22	C	-4.204093	-0.171841	-0.801899
C23	C	-3.837997	-0.159128	-0.793357
C24	C	-3.799326	-0.159787	-0.705870
C25	C	-3.963050	-0.166484	-0.666400
C26	C	-4.040390	-0.165157	-0.841375
C27	C	-4.082316	-0.164432	-0.936232
C28	C	-3.921121	-0.167207	-0.571536
C29	C	-4.143943	0.060149	-0.252530
C30	C	-4.060554	0.201427	-0.253237
C31	C	-4.177678	-0.163166	-0.104962
C32	C	-4.115739	-0.163860	-0.011849
H33	H	-3.722970	-0.774467	-0.245725
C34	C	-4.227756	-0.408221	-0.263109
C35	C	-4.324256	-0.540125	-0.263349
H36	H	-4.332031	-0.367593	-0.266163
H37	H	-4.170185	-0.395606	-0.310568
H38	H	-4.115625	-0.372006	-0.212425
H39	H	-4.436377	-0.576342	-0.314036
H40	H	-4.381859	-0.552749	-0.215886
H41	H	-3.616205	-0.533628	-0.246916
H42	H	-3.704707	-0.153678	-0.825504
C43	C	-3.597704	-0.263041	-0.613852
C44	C	-3.576871	-0.153223	-0.653111
H45	H	-3.460377	-0.258996	-0.581284
H46	H	-3.657208	-0.337507	-0.655824
H47	H	-3.689632	-0.267084	-0.577810
H48	H	-3.484955	-0.149185	-0.689157
H49	H	-3.517337	-0.078737	-0.611133
C50	C	-4.582202	-0.292291	-0.847404
C51	C	-4.426552	-0.178473	-0.854676
H52	H	-4.719539	-0.296385	-0.879991
H53	H	-4.582594	-0.293634	-0.789657
H54	H	-4.550046	-0.364044	-0.867645
H55	H	-4.458699	-0.106718	-0.834429
H56	H	-4.426166	-0.177118	-0.912435
H57	H	-4.387212	-0.798012	-0.260880
H58	H	-4.298739	-0.177961	-0.682279
