data_functionalizedCrystal
_audit_creation_method	'MofGen! by Chris Wilmer'
_symmetry_space_group_name_H-M	'P1'
_symmetry_Int_Tables_number	1
_symmetry_cell_setting	triclinic
loop_
_symmetry_equiv_pos_as_xyz
  x,y,z
_cell_length_a	15.944551
_cell_length_b	16.109301
_cell_length_c	14.586319
_cell_angle_alpha	89.994230
_cell_angle_beta	89.999647
_cell_angle_gamma	96.519890
loop_
_atom_site_label
_atom_site_type_symbol
_atom_site_fract_x
_atom_site_fract_y
_atom_site_fract_z
O1	O	1.114488	-0.107228	0.076148
O2	O	0.869934	-0.120448	0.076171
O3	O	0.998929	0.007191	0.076149
O4	O	0.985493	-0.234867	0.076169
O5	O	0.998919	0.007194	-0.076332
O6	O	0.869924	-0.120445	-0.076310
O7	O	1.114478	-0.107225	-0.076333
Cu8	Cu	0.992200	-0.113834	-0.090244
Cu9	Cu	0.992212	-0.113838	0.090082
O10	O	0.985483	-0.234863	-0.076312
C11	C	0.838635	-0.119897	-0.000067
C12	C	0.745390	-0.118252	-0.000058
N13	N	0.992198	-0.113831	-0.217076
C14	C	0.998380	0.038168	-0.000091
C15	C	0.996748	0.130464	-0.000093
C16	C	0.530561	-0.035203	-0.000083
C17	C	0.469533	-0.073770	0.075101
C18	C	0.574665	-0.115275	-0.000069
C19	C	0.469545	-0.073786	-0.075233
C20	C	0.409753	-0.112394	-0.000084
C21	C	0.514865	-0.153864	0.075177
C22	C	0.514884	-0.153869	-0.075225
C23	C	0.453874	-0.192494	-0.000022
C24	C	0.669667	-0.116933	-0.000060
C25	C	0.314753	-0.110743	-0.000087
C26	C	1.145777	-0.107775	-0.000094
C27	C	1.239022	-0.109420	-0.000096
C28	C	0.986032	-0.265840	-0.000069
C29	C	0.987664	-0.358136	-0.000062
C30	C	1.069497	0.352712	-0.000085
C31	C	1.067958	0.439433	-0.000077
C32	C	0.914909	0.419608	-0.000066
C33	C	0.916450	0.332889	-0.000068
C34	C	0.993746	0.299444	-0.000082
C35	C	0.990666	0.472884	-0.000073
C36	C	0.988996	0.566910	-0.000064
C37	C	0.995417	0.205411	-0.000088
C38	C	1.049339	-0.057331	-0.548079
C39	C	1.049337	-0.057332	-0.452098
C40	C	0.935077	-0.170340	-0.452090
C41	C	0.935084	-0.170343	-0.548069
C42	C	0.992214	-0.113834	-0.596062
C43	C	0.992205	-0.113832	-0.404101
C44	C	0.992202	-0.113832	-0.300034
C45	C	0.992218	-0.113834	-0.700135
N46	N	0.992221	-0.113834	0.216914
H47	H	0.563915	0.031251	0.000005
O48	O	1.144527	0.320123	0.000033
C49	C	1.150006	0.270563	0.079016
H50	H	1.083796	0.248963	0.105344
H51	H	1.187174	0.308871	0.134315
C52	C	1.276540	0.220389	0.022690
C53	C	1.195220	0.193853	0.055022
H54	H	1.304433	0.173072	0.007892
H55	H	1.272851	0.253780	-0.030521
H56	H	1.307502	0.252312	0.068778
H57	H	1.164255	0.161939	0.008930
H58	H	1.198904	0.160454	0.108224
O59	O	0.879548	-0.225306	-0.405610
C60	C	0.829116	-0.275165	-0.468546
H61	H	0.863558	-0.276127	-0.536959
H62	H	0.766730	-0.248133	-0.478764
C63	C	0.769474	-0.363663	-0.347046
C64	C	0.811780	-0.364850	-0.431071
H65	H	0.758776	-0.418984	-0.323929
H66	H	0.803449	-0.330070	-0.304644
H67	H	0.717490	-0.341132	-0.355573
H68	H	0.863767	-0.387371	-0.422541
H69	H	0.777813	-0.398448	-0.473471
O70	O	0.842805	0.281223	0.000057
C71	C	0.795888	0.296361	0.079043
H72	H	0.816526	0.362142	0.105369
H73	H	0.807369	0.248925	0.134342
C74	C	0.675903	0.207322	0.022729
C75	C	0.701246	0.288118	0.055058
H76	H	0.617523	0.202234	0.007936
H77	H	0.707512	0.197120	-0.030484
H78	H	0.685477	0.167801	0.068816
H79	H	0.691682	0.327637	0.008967
H80	H	0.669633	0.298326	0.108263
H81	H	1.129642	0.482802	-0.000078
O82	O	0.839901	0.452238	-0.000102
C83	C	0.854782	0.540201	-0.000082
H84	H	0.920336	0.560566	-0.028952
H85	H	0.850718	0.564336	0.073070
C86	C	0.707460	0.551164	-0.024420
C87	C	0.787972	0.576177	-0.059886
H88	H	0.666246	0.573356	-0.061306
H89	H	0.697432	0.491901	-0.024430
H90	H	0.704085	0.571277	0.036540
H91	H	0.791348	0.556054	-0.120840
H92	H	0.797998	0.635437	-0.059888
O93	O	0.538776	-0.194349	-0.151022
C94	C	0.498179	-0.276798	-0.151658
H95	H	0.438413	-0.280188	-0.108282
H96	H	0.542407	-0.320838	-0.122131
C97	C	0.548228	-0.298626	-0.304110
C98	C	0.474818	-0.302788	-0.250841
H99	H	0.533821	-0.314660	-0.365289
H100	H	0.575582	-0.243080	-0.303680
H101	H	0.585078	-0.335326	-0.279493
H102	H	0.437974	-0.266081	-0.275451
H103	H	0.447457	-0.358328	-0.251276
O104	O	0.538784	-0.194315	0.150999
C105	C	0.578797	-0.264129	0.124179
H106	H	0.604555	-0.254126	0.051625
H107	H	0.531239	-0.322563	0.125992
C108	C	0.620314	-0.287251	0.279555
C109	C	0.651957	-0.274962	0.190445
H110	H	0.665441	-0.293937	0.320432
H111	H	0.593355	-0.240218	0.297625
H112	H	0.580683	-0.335945	0.281053
H113	H	0.691579	-0.226263	0.188946
H114	H	0.678925	-0.321987	0.172376
O115	O	0.879704	-0.225314	-0.594726
C116	C	0.924678	-0.276619	-0.650250
H117	H	0.990913	-0.278061	-0.621316
H118	H	0.929096	-0.250600	-0.722993
C119	C	0.797013	-0.364088	-0.687257
C120	C	0.878362	-0.365865	-0.651716
H121	H	0.768443	-0.419139	-0.688166
H122	H	0.766712	-0.329522	-0.649853
H123	H	0.800706	-0.342402	-0.747874
H124	H	0.874668	-0.387541	-0.591097
H125	H	0.908662	-0.400437	-0.689110
O126	O	0.445609	-0.033237	0.150856
C127	C	0.485056	0.049653	0.150596
H128	H	0.503308	0.068949	0.077434
H129	H	0.544135	0.054009	0.195155
C130	C	0.401266	0.084548	0.278811
C131	C	0.423677	0.108250	0.188950
H132	H	0.363408	0.120694	0.302473
H133	H	0.374692	0.028702	0.278989
H134	H	0.450505	0.088178	0.315932
H135	H	0.374441	0.104610	0.151829
H136	H	0.450242	0.164097	0.188767
H137	H	1.095858	-0.011319	-0.587152
O138	O	1.104858	-0.002363	-0.405631
C139	C	1.155295	0.047494	-0.468576
H140	H	1.120860	0.048450	-0.536994
H141	H	1.217684	0.020465	-0.478778
C142	C	1.214919	0.136002	-0.347096
C143	C	1.172623	0.137182	-0.431127
H144	H	1.225612	0.191325	-0.323995
H145	H	1.180941	0.102411	-0.304688
H146	H	1.266906	0.113473	-0.355609
H147	H	1.120633	0.159700	-0.422611
H148	H	1.206592	0.170779	-0.473533
H149	H	0.449466	-0.039902	-0.138793
O150	O	0.414320	-0.271866	0.000192
C151	C	0.437440	-0.313767	0.079555
H152	H	0.459362	-0.266037	0.134704
H153	H	0.490915	-0.352478	0.062339
C154	C	0.333921	-0.430344	0.047269
C155	C	0.360839	-0.371721	0.115007
H156	H	0.286672	-0.466096	0.069136
H157	H	0.318346	-0.402116	-0.006201
H158	H	0.378490	-0.462594	0.032929
H159	H	0.316274	-0.339466	0.129337
H160	H	0.376404	-0.399945	0.168480
