data_functionalizedCrystal
_audit_creation_method	'MofGen! by Chris Wilmer'
_symmetry_space_group_name_H-M	'P1'
_symmetry_Int_Tables_number	1
_symmetry_cell_setting	triclinic
loop_
_symmetry_equiv_pos_as_xyz
  x,y,z
_cell_length_a	25.639243
_cell_length_b	21.295418
_cell_length_c	21.295411
_cell_angle_alpha	90.017488
_cell_angle_beta	90.027104
_cell_angle_gamma	90.031110
loop_
_atom_site_label
_atom_site_type_symbol
_atom_site_fract_x
_atom_site_fract_y
_atom_site_fract_z
Zn1	Zn	0.799320	-0.250635	0.355972
Zn2	Zn	1.049320	-0.000635	0.605972
Zn3	Zn	1.299320	0.249365	0.855972
Zn4	Zn	1.549320	0.499365	1.105972
Zn5	Zn	0.799242	-0.355887	0.250705
Zn6	Zn	1.049242	-0.105887	0.500705
Zn7	Zn	1.299242	0.144113	0.750705
Zn8	Zn	1.549242	0.394113	1.000705
Zn9	Zn	0.711879	-0.250641	0.250713
Zn10	Zn	0.961879	-0.000641	0.500713
Zn11	Zn	1.211879	0.249359	0.750713
Zn12	Zn	1.461879	0.499359	1.000713
Zn13	Zn	0.711857	-0.355875	0.355932
Zn14	Zn	0.961857	-0.105875	0.605932
Zn15	Zn	1.211857	0.144125	0.855932
Zn16	Zn	1.461857	0.394125	1.105932
O17	O	0.755575	-0.303260	0.303331
O18	O	1.005575	-0.053260	0.553331
O19	O	1.255575	0.196740	0.803331
O20	O	1.505575	0.446740	1.053331
O21	O	0.872475	-0.264600	0.342022
O22	O	1.122475	-0.014600	0.592022
O23	O	1.372475	0.235400	0.842022
O24	O	1.622475	0.485400	1.092022
O25	O	0.787630	-0.341933	0.162617
O26	O	1.037630	-0.091933	0.412617
O27	O	1.287630	0.158067	0.662617
O28	O	1.537630	0.408067	0.912617
O29	O	0.723520	-0.162551	0.264695
O30	O	0.973520	0.087449	0.514695
O31	O	1.223520	0.337449	0.764695
O32	O	1.473520	0.587449	1.014695
O33	O	0.872418	-0.341928	0.264683
O34	O	1.122418	-0.091928	0.514683
O35	O	1.372418	0.158072	0.764683
O36	O	1.622418	0.408072	1.014683
O37	O	0.787763	-0.162546	0.342029
O38	O	1.037763	0.087454	0.592029
O39	O	1.287763	0.337454	0.842029
O40	O	1.537763	0.587454	1.092029
O41	O	0.723445	-0.264609	0.162622
O42	O	0.973445	-0.014609	0.412622
O43	O	1.223445	0.235391	0.662622
O44	O	1.473445	0.485391	0.912622
O45	O	0.638711	-0.264598	0.264657
O46	O	0.888711	-0.014598	0.514657
O47	O	1.138711	0.235402	0.764657
O48	O	1.388711	0.485402	1.014657
O49	O	0.723483	-0.341908	0.444027
O50	O	0.973483	-0.091908	0.694027
O51	O	1.223483	0.158092	0.944027
O52	O	1.473483	0.408092	1.194027
O53	O	0.638695	-0.341913	0.341961
O54	O	0.888695	-0.091913	0.591961
O55	O	1.138695	0.158087	0.841961
O56	O	1.388695	0.408087	1.091961
O57	O	0.787741	-0.264588	0.444056
O58	O	1.037741	-0.014588	0.694056
O59	O	1.287741	0.235412	0.944056
O60	O	1.537741	0.485412	1.194056
O61	O	0.787609	-0.443975	0.264644
O62	O	1.037609	-0.193975	0.514644
O63	O	1.287609	0.056025	0.764644
O64	O	1.537609	0.306025	1.014644
O65	O	0.723407	-0.443966	0.341954
O66	O	0.973407	-0.193966	0.591954
O67	O	1.223407	0.056034	0.841954
O68	O	1.473407	0.306034	1.091954
C69	C	0.619732	-0.303255	0.303306
C70	C	0.869732	-0.053255	0.553306
C71	C	1.119732	0.196745	0.803306
C72	C	1.369732	0.446745	1.053306
C73	C	0.561618	-0.303269	0.303310
C74	C	0.811618	-0.053269	0.553310
C75	C	1.061618	0.196731	0.803310
C76	C	1.311618	0.446731	1.053310
C77	C	0.755511	-0.466811	0.303308
C78	C	1.005511	-0.216811	0.553308
C79	C	1.255511	0.033189	0.803308
C80	C	1.505511	0.283189	1.053308
C81	C	0.755532	-0.536779	0.303319
C82	C	1.005532	-0.286779	0.553319
C83	C	1.255532	-0.036779	0.803319
C84	C	1.505532	0.213221	1.053319
C85	C	0.789091	-1.036182	0.343679
C86	C	1.039091	-0.786182	0.593679
C87	C	1.289091	-0.536182	0.843679
C88	C	1.539091	-0.286182	1.093679
C89	C	0.789075	-0.970439	0.343669
C90	C	1.039075	-0.720439	0.593669
C91	C	1.289075	-0.470439	0.843669
C92	C	1.539075	-0.220439	1.093669
C93	C	0.755646	-0.937619	0.303370
C94	C	1.005646	-0.687619	0.553370
C95	C	1.255646	-0.437619	0.803370
C96	C	1.505646	-0.187619	1.053370
C97	C	0.722239	-0.970546	0.263066
C98	C	0.972239	-0.720546	0.513066
C99	C	1.222239	-0.470546	0.763066
C100	C	1.472239	-0.220546	1.013066
C101	C	0.722259	-1.036287	0.263073
C102	C	0.972259	-0.786287	0.513073
C103	C	1.222259	-0.536287	0.763073
C104	C	1.472259	-0.286287	1.013073
N105	N	0.709850	-0.834451	0.298477
N106	N	0.959850	-0.584451	0.548477
N107	N	1.209850	-0.334451	0.798477
N108	N	1.459850	-0.084451	1.048477
N109	N	0.709832	-0.771999	0.298474
N110	N	0.959832	-0.521999	0.548474
N111	N	1.209832	-0.271999	0.798474
N112	N	1.459832	-0.021999	1.048474
C113	C	0.755584	-0.739544	0.303346
C114	C	1.005584	-0.489544	0.553346
C115	C	1.255584	-0.239544	0.803346
C116	C	1.505584	0.010456	1.053346
N117	N	0.801356	-0.771899	0.308234
N118	N	1.051356	-0.521899	0.558234
N119	N	1.301356	-0.271899	0.808234
N120	N	1.551356	-0.021899	1.058234
N121	N	0.801373	-0.834356	0.308240
N122	N	1.051373	-0.584356	0.558240
N123	N	1.301373	-0.334356	0.808240
N124	N	1.551373	-0.084356	1.058240
C125	C	0.755621	-0.866333	0.303358
C126	C	1.005621	-0.616333	0.553358
C127	C	1.255621	-0.366333	0.803358
C128	C	1.505621	-0.116333	1.053358
C129	C	0.788975	-0.635339	0.343634
C130	C	1.038975	-0.385339	0.593634
C131	C	1.288975	-0.135339	0.843634
C132	C	1.538975	0.114661	1.093634
C133	C	0.788961	-0.569595	0.343619
C134	C	1.038961	-0.319595	0.593619
C135	C	1.288961	-0.069595	0.843619
C136	C	1.538961	0.180405	1.093619
C137	C	0.722120	-0.569703	0.263020
C138	C	0.972120	-0.319703	0.513020
C139	C	1.222120	-0.069703	0.763020
C140	C	1.472120	0.180297	1.013020
C141	C	0.722139	-0.635446	0.263031
C142	C	0.972139	-0.385446	0.513031
C143	C	1.222139	-0.135446	0.763031
C144	C	1.472139	0.114554	1.013031
C145	C	0.755566	-0.668260	0.303341
C146	C	1.005566	-0.418260	0.553341
C147	C	1.255566	-0.168260	0.803341
C148	C	1.505566	0.081740	1.053341
C149	C	0.201279	-0.263058	0.343668
C150	C	0.451279	-0.013058	0.593668
C151	C	0.701279	0.236942	0.843668
C152	C	0.951279	0.486942	1.093668
C153	C	0.146675	-0.263058	0.343672
C154	C	0.396675	-0.013058	0.593672
C155	C	0.646675	0.236942	0.843672
C156	C	0.896675	0.486942	1.093672
O157	O	0.118459	-0.228857	0.377955
O158	O	0.368459	0.021143	0.627955
O159	O	0.618459	0.271143	0.877955
O160	O	0.868459	0.521143	1.127955
N161	N	0.119336	-0.303258	0.303348
N162	N	0.369336	-0.053258	0.553348
N163	N	0.619336	0.196742	0.803348
N164	N	0.869336	0.446742	1.053348
C165	C	0.146603	-0.343457	0.263013
C166	C	0.396603	-0.093457	0.513013
C167	C	0.646603	0.156543	0.763013
C168	C	0.896603	0.406543	1.013013
O169	O	0.118335	-0.377649	0.228714
O170	O	0.368335	-0.127649	0.478714
O171	O	0.618335	0.122351	0.728714
O172	O	0.868335	0.372351	0.978714
C173	C	0.201207	-0.343453	0.263006
C174	C	0.451207	-0.093453	0.513006
C175	C	0.701207	0.156547	0.763006
C176	C	0.951207	0.406547	1.013006
C177	C	0.228543	-0.303255	0.303337
C178	C	0.478543	-0.053255	0.553337
C179	C	0.728543	0.196745	0.803337
C180	C	0.978543	0.446745	1.053337
C181	C	0.228616	-0.222863	0.383996
C182	C	0.478616	0.027137	0.633996
C183	C	0.728616	0.277137	0.883996
C184	C	0.978616	0.527137	1.133996
C185	C	0.283216	-0.222864	0.383993
C186	C	0.533216	0.027136	0.633993
C187	C	0.783216	0.277136	0.883993
C188	C	1.033216	0.527136	1.133993
C189	C	0.310480	-0.263061	0.343662
C190	C	0.560480	-0.013061	0.593662
C191	C	0.810480	0.236939	0.843662
C192	C	1.060480	0.486939	1.093662
C193	C	0.283144	-0.303257	0.303334
C194	C	0.533144	-0.053257	0.553334
C195	C	0.783144	0.196743	0.803334
C196	C	1.033144	0.446743	1.053334
C197	C	0.228474	-0.383649	0.222668
C198	C	0.478474	-0.133649	0.472668
C199	C	0.728474	0.116351	0.722668
C200	C	0.978474	0.366351	0.972668
C201	C	0.283081	-0.383642	0.222665
C202	C	0.533081	-0.133642	0.472665
C203	C	0.783081	0.116358	0.722665
C204	C	1.033081	0.366358	0.972665
C205	C	0.310417	-0.343443	0.262996
C206	C	0.560417	-0.093443	0.512996
C207	C	0.810417	0.156557	0.762996
C208	C	1.060417	0.406557	1.012996
C209	C	0.365008	-0.343455	0.263000
C210	C	0.615008	-0.093455	0.513000
C211	C	0.865008	0.156545	0.763000
C212	C	1.115008	0.406545	1.013000
N213	N	0.392348	-0.303255	0.303324
N214	N	0.642348	-0.053255	0.553324
N215	N	0.892348	0.196745	0.803324
N216	N	1.142348	0.446745	1.053324
C217	C	0.365084	-0.263058	0.343655
C218	C	0.615084	-0.013058	0.593655
C219	C	0.865084	0.236942	0.843655
C220	C	1.115084	0.486942	1.093655
C221	C	0.031933	-0.343459	0.263029
C222	C	0.281933	-0.093459	0.513029
C223	C	0.531933	0.156541	0.763029
C224	C	0.781933	0.406541	1.013029
C225	C	-0.022670	-0.343466	0.263038
C226	C	0.227330	-0.093466	0.513038
C227	C	0.477330	0.156534	0.763038
C228	C	0.727330	0.406534	1.013038
C229	C	-0.022594	-0.263066	0.343697
C230	C	0.227406	-0.013066	0.593697
C231	C	0.477406	0.236934	0.843697
C232	C	0.727406	0.486934	1.093697
C233	C	0.032009	-0.263063	0.343690
C234	C	0.282009	-0.013063	0.593690
C235	C	0.532009	0.236937	0.843690
C236	C	0.782009	0.486937	1.093690
C237	C	0.059272	-0.303259	0.303353
C238	C	0.309272	-0.053259	0.553353
C239	C	0.559272	0.196741	0.803353
C240	C	0.809272	0.446741	1.053353
C241	C	0.479749	-0.263065	0.343646
C242	C	0.729749	-0.013065	0.593646
C243	C	0.979749	0.236935	0.843646
C244	C	1.229749	0.486935	1.093646
C245	C	0.534354	-0.263072	0.343641
C246	C	0.784354	-0.013072	0.593641
C247	C	1.034354	0.236928	0.843641
C248	C	1.284354	0.486928	1.093641
C249	C	0.534274	-0.343469	0.262980
C250	C	0.784274	-0.093469	0.512980
C251	C	1.034274	0.156531	0.762980
C252	C	1.284274	0.406531	1.012980
C253	C	0.479673	-0.343465	0.262987
C254	C	0.729673	-0.093465	0.512987
C255	C	0.979673	0.156535	0.762987
C256	C	1.229673	0.406535	1.012987
C257	C	0.452412	-0.303257	0.303322
C258	C	0.702412	-0.053257	0.553322
C259	C	0.952412	0.196743	0.803322
C260	C	1.202412	0.446743	1.053322
O261	O	0.393259	-0.377636	0.228733
O262	O	0.643259	-0.127636	0.478733
O263	O	0.893259	0.122364	0.728733
O264	O	1.143259	0.372364	0.978733
O265	O	0.393358	-0.228865	0.377943
O266	O	0.643358	0.021135	0.627943
O267	O	0.893358	0.271135	0.877943
O268	O	1.143358	0.521135	1.127943
C269	C	0.891948	-0.303264	0.303356
C270	C	1.141948	-0.053264	0.553356
C271	C	1.391948	0.196736	0.803356
C272	C	1.641948	0.446736	1.053356
C273	C	0.950062	-0.303266	0.303367
C274	C	1.200062	-0.053266	0.553367
C275	C	1.450062	0.196734	0.803367
C276	C	1.700062	0.446734	1.053367
C277	C	0.755618	-0.303246	0.467521
C278	C	1.005618	-0.053246	0.717521
C279	C	1.255618	0.196754	0.967521
C280	C	1.505618	0.446754	1.217521
C281	C	0.755637	-0.303241	0.537489
C282	C	1.005637	-0.053241	0.787489
C283	C	1.255637	0.196759	1.037489
C284	C	1.505637	0.446759	1.287489
C285	C	0.755653	-0.139069	0.303368
C286	C	1.005653	0.110931	0.553368
C287	C	1.255653	0.360931	0.803368
C288	C	1.505653	0.610931	1.053368
C289	C	0.755686	-0.069101	0.303383
C290	C	1.005686	0.180899	0.553383
C291	C	1.255686	0.430899	0.803383
C292	C	1.505686	0.680899	1.053383
C293	C	0.755562	-0.303227	0.139779
C294	C	1.005562	-0.053227	0.389779
C295	C	1.255562	0.196773	0.639779
C296	C	1.505562	0.446773	0.889779
C297	C	0.755644	-0.303056	0.069811
C298	C	1.005644	-0.053056	0.319811
C299	C	1.255644	0.196944	0.569811
C300	C	1.505644	0.446944	0.819811
C301	C	0.789095	-0.262978	0.570372
C302	C	1.039095	-0.012978	0.820372
C303	C	1.289095	0.237022	1.070372
C304	C	1.539095	0.487022	1.320372
C305	C	0.789094	-0.262951	0.636115
C306	C	1.039094	-0.012951	0.886115
C307	C	1.289094	0.237049	1.136115
C308	C	1.539094	0.487049	1.386115
C309	C	0.755641	-0.303197	0.668972
C310	C	1.005641	-0.053197	0.918972
C311	C	1.255641	0.196803	1.168972
C312	C	1.505641	0.446803	1.418972
C313	C	0.722176	-0.343462	0.636081
C314	C	0.972176	-0.093462	0.886081
C315	C	1.222176	0.156538	1.136081
C316	C	1.472176	0.406538	1.386081
C317	C	0.722174	-0.343484	0.570340
C318	C	0.972174	-0.093484	0.820340
C319	C	1.222174	0.156516	1.070340
C320	C	1.472174	0.406516	1.320340
N321	N	0.751608	-0.358265	0.772191
N322	N	1.001608	-0.108265	1.022191
N323	N	1.251608	0.141735	1.272191
N324	N	1.501608	0.391735	1.522191
N325	N	0.751613	-0.358243	0.834642
N326	N	1.001613	-0.108243	1.084642
N327	N	1.251613	0.141757	1.334642
N328	N	1.501613	0.391757	1.584642
C329	C	0.755644	-0.303133	0.867047
C330	C	1.005644	-0.053133	1.117047
C331	C	1.255644	0.196867	1.367047
C332	C	1.505644	0.446867	1.617047
N333	N	0.759679	-0.248046	0.834640
N334	N	1.009679	0.001954	1.084640
N335	N	1.259679	0.251954	1.334640
N336	N	1.509679	0.501954	1.584640
N337	N	0.759677	-0.248069	0.772183
N338	N	1.009677	0.001931	1.022183
N339	N	1.259677	0.251931	1.272183
N340	N	1.509677	0.501931	1.522183
C341	C	0.755639	-0.303178	0.740257
C342	C	1.005639	-0.053178	0.990257
C343	C	1.255639	0.196822	1.240257
C344	C	1.505639	0.446822	1.490257
C345	C	0.789103	-0.262838	0.971215
C346	C	1.039103	-0.012838	1.221215
C347	C	1.289103	0.237162	1.471215
C348	C	1.539103	0.487162	1.721215
C349	C	0.789099	-0.262810	1.036959
C350	C	1.039099	-0.012810	1.286959
C351	C	1.289099	0.237190	1.536959
C352	C	1.539099	0.487190	1.786959
C353	C	0.722184	-0.343327	1.036924
C354	C	0.972184	-0.093327	1.286924
C355	C	1.222184	0.156673	1.536924
C356	C	1.472184	0.406673	1.786924
C357	C	0.722185	-0.343349	0.971181
C358	C	0.972185	-0.093349	1.221181
C359	C	1.222185	0.156651	1.471181
C360	C	1.472185	0.406651	1.721181
C361	C	0.755648	-0.303106	0.938331
C362	C	1.005648	-0.053106	1.188331
C363	C	1.255648	0.196894	1.438331
C364	C	1.505648	0.446894	1.688331
H365	H	0.816314	-1.062895	0.376498
H366	H	1.066314	-0.812895	0.626498
H367	H	1.316314	-0.562895	0.876498
H368	H	1.566314	-0.312895	1.126498
F369	F	0.824631	-0.935397	0.386559
F370	F	1.074631	-0.685397	0.636559
F371	F	1.324631	-0.435397	0.886559
F372	F	1.574631	-0.185397	1.136559
H373	H	0.695021	-0.943820	0.230253
H374	H	0.945021	-0.693820	0.480253
H375	H	1.195021	-0.443820	0.730253
H376	H	1.445021	-0.193820	0.980253
H377	H	0.816190	-0.662058	0.376461
H378	H	1.066190	-0.412058	0.626461
H379	H	1.316190	-0.162058	0.876461
H380	H	1.566190	0.087942	1.126461
F381	F	0.686703	-1.071323	0.220183
F382	F	0.936703	-0.821323	0.470183
F383	F	1.186703	-0.571323	0.720183
F384	F	1.436703	-0.321323	0.970183
H385	H	0.816342	-0.230208	0.543629
H386	H	1.066342	0.019792	0.793629
H387	H	1.316342	0.269792	1.043629
H388	H	1.566342	0.519792	1.293629
F389	F	0.824520	-0.534560	0.386507
F390	F	1.074520	-0.284560	0.636507
F391	F	1.324520	-0.034560	0.886507
F392	F	1.574520	0.215440	1.136507
F393	F	0.686545	-0.534777	0.220125
F394	F	0.936545	-0.284777	0.470125
F395	F	1.186545	-0.034777	0.720125
F396	F	1.436545	0.215223	0.970125
H397	H	0.694935	-0.662249	0.230220
H398	H	0.944935	-0.412249	0.480220
H399	H	1.194935	-0.162249	0.730220
H400	H	1.444935	0.087751	0.980220
F401	F	0.563444	-0.220287	0.386570
F402	F	0.813444	0.029713	0.636570
F403	F	1.063444	0.279713	0.886570
F404	F	1.313444	0.529713	1.136570
H405	H	0.457559	-0.230322	0.376489
H406	H	0.707559	0.019678	0.626489
H407	H	0.957559	0.269678	0.876489
H408	H	1.207559	0.519678	1.126489
H409	H	0.305469	-0.190130	0.416834
H410	H	0.555469	0.059870	0.666834
H411	H	0.805469	0.309870	0.916834
H412	H	1.055469	0.559870	1.166834
H413	H	0.206423	-0.190126	0.416838
H414	H	0.456423	0.059874	0.666838
H415	H	0.706423	0.309874	0.916838
H416	H	0.956423	0.559874	1.166838
H417	H	0.054127	-0.376197	0.230183
H418	H	0.304127	-0.126197	0.480183
H419	H	0.554127	0.123803	0.730183
H420	H	0.804127	0.373803	0.980183
H421	H	0.054263	-0.230329	0.376531
H422	H	0.304263	0.019671	0.626531
H423	H	0.554263	0.269671	0.876531
H424	H	0.804263	0.519671	1.126531
F425	F	-0.051620	-0.220282	0.386619
F426	F	0.198380	0.029718	0.636619
F427	F	0.448380	0.279718	0.886619
F428	F	0.698380	0.529718	1.136619
H429	H	-0.044922	-0.376207	0.230203
H430	H	0.205078	-0.126207	0.480203
H431	H	0.455078	0.123793	0.730203
H432	H	0.705078	0.373793	0.980203
F433	F	0.199392	-0.426424	0.179731
F434	F	0.449392	-0.176424	0.429731
F435	F	0.699392	0.073576	0.679731
F436	F	0.949392	0.323576	0.929731
F437	F	0.824717	-0.219962	1.071955
F438	F	1.074717	0.030038	1.321955
F439	F	1.324717	0.280038	1.571955
F440	F	1.574717	0.530038	1.821955
H441	H	0.305275	-0.416374	0.189815
H442	H	0.555275	-0.166374	0.439815
H443	H	0.805275	0.083626	0.689815
H444	H	1.055275	0.333626	0.939815
H445	H	0.457415	-0.376205	0.230153
H446	H	0.707415	-0.126205	0.480153
H447	H	0.957415	0.123795	0.730153
H448	H	1.207415	0.373795	0.980153
H449	H	0.694940	-0.376089	1.063675
H450	H	0.944940	-0.126089	1.313675
H451	H	1.194940	0.123911	1.563675
H452	H	1.444940	0.373911	1.813675
F453	F	0.563300	-0.386248	0.220060
F454	F	0.813300	-0.136248	0.470060
F455	F	1.063300	0.113752	0.720060
F456	F	1.313300	0.363752	0.970060
F457	F	0.824697	-0.220087	0.671118
F458	F	1.074697	0.029913	0.921118
F459	F	1.324697	0.279913	1.171118
F460	F	1.574697	0.529913	1.421118
H461	H	0.694937	-0.376229	0.662837
H462	H	0.944937	-0.126229	0.912837
H463	H	1.194937	0.123771	1.162837
H464	H	1.444937	0.373771	1.412837
H465	H	0.816347	-0.230066	0.944467
H466	H	1.066347	0.019934	1.194467
H467	H	1.316347	0.269934	1.444467
H468	H	1.566347	0.519934	1.694467
F469	F	0.686562	-0.386338	0.535342
F470	F	0.936562	-0.136338	0.785342
F471	F	1.186562	0.113662	1.035342
F472	F	1.436562	0.363662	1.285342
F473	F	0.686576	-0.386205	0.936183
F474	F	0.936576	-0.136205	1.186183
F475	F	1.186576	0.113795	1.436183
F476	F	1.436576	0.363795	1.686183
