data_functionalizedCrystal
_audit_creation_method	'MofGen! by Chris Wilmer'
_symmetry_space_group_name_H-M	'P1'
_symmetry_Int_Tables_number	1
_symmetry_cell_setting	triclinic
loop_
_symmetry_equiv_pos_as_xyz
  x,y,z
_cell_length_a	18.760487
_cell_length_b	17.052862
_cell_length_c	17.052862
_cell_angle_alpha	61.493325
_cell_angle_beta	90.033923
_cell_angle_gamma	70.288255
loop_
_atom_site_label
_atom_site_type_symbol
_atom_site_fract_x
_atom_site_fract_y
_atom_site_fract_z
Zr1	Zr	0.826075	0.816831	-0.199988
O2	O	0.747361	0.944711	-0.328161
O3	O	0.832875	0.666110	-0.145793
O4	O	0.871068	0.783920	-0.306584
O5	O	0.698753	0.860826	-0.057488
O6	O	0.988365	0.783941	-0.306516
O7	O	0.709167	0.826901	-0.167370
O8	O	0.920043	0.573201	-0.018891
O9	O	0.767075	1.071566	-0.345113
O10	O	0.944250	0.736578	-0.140634
O11	O	0.848941	0.761881	-0.058681
O12	O	0.893909	0.900587	-0.247992
O13	O	0.798600	0.925889	-0.166039
Zr14	Zr	0.996540	0.870970	-0.024631
Zr15	Zr	1.013149	0.816864	-0.199880
Zr16	Zr	0.809466	0.870937	-0.024739
Zr17	Zr	0.857517	1.019150	-0.227026
Zr18	Zr	0.965099	0.668650	0.002407
O19	O	0.989741	1.021690	-0.078826
O20	O	1.013357	0.944758	-0.328007
O21	O	0.723745	1.021644	-0.078980
O22	O	1.075254	0.743090	0.103542
O23	O	1.098870	0.666157	-0.145639
O24	O	0.809259	0.743043	0.103388
O25	O	1.123862	0.826974	-0.167131
O26	O	0.951547	0.903881	0.081965
O27	O	0.834251	0.903860	0.081897
O28	O	1.113448	0.860899	-0.057249
O29	O	0.915774	1.071593	-0.345028
O30	O	0.906841	0.616208	0.120409
O31	O	1.055540	0.616234	0.120495
O32	O	1.068742	0.573227	-0.018805
O33	O	0.753873	1.114574	-0.205814
O34	O	0.902572	1.114600	-0.205728
O35	O	0.928706	0.787214	0.023373
O36	O	1.024015	0.761912	-0.058580
O37	O	0.973674	0.925920	-0.165938
O38	O	0.878366	0.951222	-0.083985
C39	C	0.871979	0.590829	-0.078489
C40	C	0.858631	0.504939	-0.067011
C41	C	1.020006	0.210004	-0.205783
C42	C	1.032546	0.290704	-0.216573
C43	C	0.989069	0.344267	-0.179184
C44	C	0.933049	0.317121	-0.131002
C45	C	0.920504	0.236417	-0.120216
C46	C	0.889566	0.370680	-0.093617
C47	C	0.833547	0.343534	-0.045435
C48	C	0.821005	0.262837	-0.034651
C49	C	0.864482	0.209275	-0.072041
C50	C	0.902111	0.451384	-0.104402
C51	C	0.802609	0.477797	-0.018836
C52	C	0.790070	0.397096	-0.008046
C53	C	0.677306	0.843859	-0.112444
C54	C	0.597888	0.843845	-0.112490
C55	C	0.235764	0.929559	-0.168207
C56	C	0.288325	0.758331	-0.056124
C57	C	0.362953	0.758308	-0.056194
C58	C	0.373990	0.843911	-0.112273
C59	C	0.310399	0.929538	-0.168281
C60	C	0.426551	0.672681	-0.000194
C61	C	0.501185	0.672654	-0.000262
C62	C	0.512222	0.758260	-0.056337
C63	C	0.448625	0.843890	-0.112346
C64	C	0.459662	0.929493	-0.168425
C65	C	0.396065	1.015126	-0.224430
C66	C	0.321436	1.015143	-0.224355
C67	C	0.586851	0.758242	-0.056412
C68	C	0.534297	0.929472	-0.168498
C69	C	1.145309	0.843942	-0.112175
C70	C	1.224727	0.843956	-0.112129
C71	C	0.932083	0.776221	-0.331519
C72	C	0.939134	0.753252	-0.405917
C73	C	0.950636	1.096972	-0.146130
C74	C	0.963984	1.182862	-0.157608
C75	C	0.853889	1.030955	-0.839795
C76	C	0.847259	1.052539	-0.769896
C77	C	0.870228	0.977719	-0.678899
C78	C	0.899826	0.881311	-0.657805
C79	C	0.906450	0.859725	-0.727710
C80	C	0.922789	0.806489	-0.566814
C81	C	0.952388	0.710081	-0.545720
C82	C	0.959011	0.688499	-0.615620
C83	C	0.936043	0.763319	-0.706617
C84	C	0.916165	0.828076	-0.496909
C85	C	0.968727	0.656846	-0.384824
C86	C	0.975356	0.635262	-0.454722
C87	C	0.890532	0.911579	0.106900
C88	C	0.883481	0.934549	0.181298
C89	C	1.105981	0.590870	-0.078354
C90	C	1.172051	0.504994	-0.066830
C91	C	0.851204	0.658508	0.140720
C92	C	0.830805	0.595588	0.226596
C93	C	1.085205	0.658549	0.140855
C94	C	1.144224	0.595643	0.226777
C95	C	0.737410	1.029251	-0.365474
C96	C	0.678391	1.092158	-0.451396
C97	C	0.716635	1.096930	-0.146264
C98	C	0.650565	1.182806	-0.157788
C99	C	0.971412	1.029293	-0.365339
C100	C	0.991810	1.092213	-0.451215
C101	C	1.161442	0.451440	-0.104257
C102	C	1.223518	0.370757	-0.093447
C103	C	1.296201	0.343625	-0.045204
C104	C	1.306809	0.397188	-0.007777
C105	C	1.244735	0.477874	-0.018593
C106	C	0.862861	0.579266	0.309763
C107	C	0.843692	0.520159	0.390458
C108	C	0.792471	0.477369	0.387984
C109	C	0.760411	0.493697	0.304808
C110	C	0.779576	0.552808	0.224115
C111	C	1.221699	0.552894	0.224348
C112	C	1.277163	0.493796	0.305072
C113	C	1.255151	0.477443	0.388225
C114	C	1.177669	0.520199	0.390652
C115	C	1.122207	0.579302	0.309927
C116	C	0.600918	1.134917	-0.448968
C117	C	0.545458	1.194040	-0.529696
C118	C	0.567471	1.210397	-0.612849
C119	C	0.644952	1.167635	-0.615275
C120	C	0.700411	1.108519	-0.534549
C121	C	0.661175	1.236367	-0.120370
C122	C	0.599105	1.317067	-0.131202
C123	C	0.526422	1.344200	-0.179448
C124	C	0.515813	1.290635	-0.216871
C125	C	0.577885	1.209941	-0.206044
C126	C	1.043034	1.134985	-0.448712
C127	C	1.062216	1.194097	-0.529393
C128	C	1.030169	1.210441	-0.612578
C129	C	0.978942	1.167661	-0.615078
C130	C	0.959765	1.108545	-0.534397
H131	H	0.999282	0.409976	-0.187972
H132	H	0.767205	0.521410	0.011607
H133	H	0.864828	0.995299	-0.621988
H134	H	0.482373	1.228848	-0.527703
C135	C	0.408208	1.109297	-0.286068
H136	H	0.461763	1.097018	-0.278071
H137	H	0.388784	1.132573	-0.347824
H138	H	0.381578	1.156397	-0.270306
H139	H	0.987426	0.595921	-0.310730
C140	C	1.081498	0.481276	-0.157329
H141	H	1.046039	0.536995	-0.158411
H142	H	1.085185	0.495375	-0.217856
H143	H	1.063946	0.429860	-0.128450
C144	C	0.566205	1.151020	-0.247195
H145	H	0.613578	1.099075	-0.233846
H146	H	0.528298	1.126072	-0.221862
H147	H	0.549541	1.191567	-0.311275
C148	C	1.211834	0.311843	-0.134609
H149	H	1.159652	0.339552	-0.164873
H150	H	1.244926	0.312570	-0.176880
H151	H	1.223701	0.247061	-0.087458
C152	C	0.878966	0.502201	0.481942
H153	H	0.860213	0.460879	0.529650
H154	H	0.933607	0.472618	0.492310
H155	H	0.864824	0.562037	0.480305
C156	C	0.165817	1.023751	-0.229808
H157	H	0.183082	1.074728	-0.263209
H158	H	0.139206	1.015370	-0.270837
H159	H	0.132015	1.039274	-0.193372
H160	H	0.823161	1.131035	-0.787077
H161	H	1.300319	0.429316	0.453949
H162	H	0.776872	0.429239	0.453697
C163	C	0.991571	0.582454	-0.592417
H164	H	1.004310	0.540985	-0.528213
H165	H	0.953913	0.570457	-0.617376
H166	H	1.036592	0.570494	-0.617336
H167	H	1.346739	0.277923	-0.036403
H168	H	1.069135	1.121690	-0.380987
C169	C	0.704073	0.446622	0.302095
H170	H	0.687718	0.464808	0.241007
H171	H	0.729265	0.378309	0.337800
H172	H	0.660472	0.467719	0.325793
H173	H	1.340248	0.458987	0.303081
H174	H	1.078156	0.312804	-0.255804
H175	H	0.720351	1.214284	-0.081079
C176	C	1.386759	0.367328	0.045296
H177	H	1.422201	0.311596	0.046382
H178	H	1.404327	0.418726	0.016433
H179	H	1.383075	0.353216	0.105831
H180	H	1.055397	0.166393	-0.236227
H181	H	1.239636	0.566198	0.156649
H182	H	0.607757	1.360669	-0.100722
H183	H	1.253382	0.521470	0.011891
H184	H	1.159757	0.506875	0.458366
H185	H	0.417558	0.602987	0.045462
C186	C	0.506457	1.275411	-0.701638
H187	H	0.457164	1.298520	-0.688274
H188	H	0.519221	1.328620	-0.741689
H189	H	0.505333	1.239185	-0.729719
C190	C	1.051264	1.275470	-0.701322
H191	H	1.024848	1.279078	-0.751226
H192	H	1.036590	1.338426	-0.709746
H193	H	1.105375	1.249012	-0.697745
C194	C	0.850687	0.120505	-0.060176
H195	H	0.884604	0.092498	-0.089347
H196	H	0.860195	0.074382	0.002789
H197	H	0.798751	0.139878	-0.086671
C198	C	0.744315	0.570748	0.132637
H199	H	0.711071	0.536788	0.142731
H200	H	0.715665	0.637960	0.093369
H201	H	0.784456	0.548543	0.105385
C202	C	0.576692	1.116947	-0.357512
H203	H	0.522608	1.150896	-0.367642
H204	H	0.589300	1.049732	-0.318258
H205	H	0.603211	1.139153	-0.330223
C206	C	1.118554	1.241157	-0.526628
H207	H	1.134878	1.222967	-0.465532
H208	H	1.162164	1.220069	-0.550312
H209	H	1.093364	1.309476	-0.562324
C210	C	0.903408	1.061514	-0.537163
H211	H	0.887066	1.079728	-0.598263
H212	H	0.928577	0.993198	-0.501473
H213	H	0.859801	1.082622	-0.513477
H214	H	0.904569	0.614101	0.311794
C215	C	0.669154	1.185627	-0.706746
H216	H	0.625022	1.226949	-0.754468
H217	H	0.705635	1.215220	-0.717083
H218	H	0.691725	1.125800	-0.705122
H219	H	0.744457	0.374983	0.031184
H220	H	0.763492	1.073702	-0.536536
C221	C	0.458150	1.432962	-0.191348
H222	H	0.474884	1.460964	-0.162143
H223	H	0.439343	1.479091	-0.254317
H224	H	0.418108	1.413581	-0.164905
H225	H	1.059124	0.614101	0.311918
H226	H	0.941441	0.745751	-0.763539
H227	H	0.456628	1.312740	-0.256154
C228	C	0.943643	1.185710	-0.706590
H229	H	0.910375	1.151787	-0.696537
H230	H	0.915009	1.252938	-0.745794
H231	H	0.983755	1.163543	-0.733894
C232	C	0.759381	0.232979	0.018338
H233	H	0.758132	0.177252	0.019399
H234	H	0.771716	0.218885	0.078875
H235	H	0.710270	0.284383	-0.010584
C236	C	0.251486	1.109329	-0.285958
H237	H	0.268744	1.160313	-0.319360
H238	H	0.224881	1.100941	-0.326986
H239	H	0.217679	1.124850	-0.249523
H240	H	0.543273	0.999184	-0.214156
C241	C	0.276188	0.664174	0.005558
H242	H	0.324751	0.613174	0.038900
H243	H	0.244562	0.672582	0.046640
H244	H	0.251773	0.648664	-0.030816
C245	C	0.571132	0.578467	0.061348
H246	H	0.553868	0.527491	0.094760
H247	H	0.604946	0.562938	0.024928
H248	H	0.597729	0.586862	0.102382
H249	H	0.892064	0.906572	-0.514092
C250	C	0.656803	0.664061	0.005182
H251	H	0.702832	0.676306	-0.002896
H252	H	0.651770	0.640835	0.066949
H253	H	0.658971	0.616936	-0.010520
H254	H	0.835187	1.091863	-0.913886
H255	H	0.999454	0.556765	-0.437559
H256	H	0.947723	0.473479	-0.143633
