data_functionalizedCrystal
_audit_creation_method	'MofGen! by Chris Wilmer'
_symmetry_space_group_name_H-M	'P1'
_symmetry_Int_Tables_number	1
_symmetry_cell_setting	triclinic
loop_
_symmetry_equiv_pos_as_xyz
  x,y,z
_cell_length_a	14.908571
_cell_length_b	12.759400
_cell_length_c	14.908308
_cell_angle_alpha	86.730859
_cell_angle_beta	89.824947
_cell_angle_gamma	86.710990
loop_
_atom_site_label
_atom_site_type_symbol
_atom_site_fract_x
_atom_site_fract_y
_atom_site_fract_z
Zn1	Zn	1.345342	-0.548282	0.587598
Zn2	Zn	1.353936	-0.714462	0.437243
Zn3	Zn	1.203655	-0.528102	0.428595
Zn4	Zn	1.194964	-0.713214	0.578895
O5	O	1.274474	-0.626015	0.508083
O6	O	1.472309	-0.579294	0.574915
O7	O	1.341235	-0.681818	0.310271
O8	O	1.222491	-0.383762	0.449711
O9	O	1.478623	-0.701385	0.464450
O10	O	1.326587	-0.398588	0.566529
O11	O	1.230825	-0.544900	0.303918
O12	O	1.076676	-0.543690	0.441272
O13	O	1.207677	-0.699258	0.705874
O14	O	1.070290	-0.679690	0.551696
O15	O	1.318160	-0.578083	0.712269
O16	O	1.332807	-0.861313	0.456011
O17	O	1.216011	-0.860396	0.560082
C18	C	1.040857	-0.609366	0.494601
C19	C	0.940914	-0.602270	0.488855
C20	C	1.274422	-0.898977	0.508061
C21	C	1.274480	-1.015760	0.508087
C22	C	0.746517	-0.730752	0.592888
C23	C	0.652611	-0.724088	0.587492
C24	C	0.659193	-0.582274	0.472673
C25	C	0.753099	-0.588938	0.478069
C26	C	0.796758	-0.663180	0.538177
C27	C	0.890666	-0.669848	0.543568
C28	C	0.897246	-0.528030	0.428754
C29	C	0.803340	-0.521366	0.423358
C30	C	1.335356	-1.071073	0.453964
C31	C	1.335410	-1.180802	0.453995
C32	C	1.213704	-1.179896	0.562273
C33	C	1.213655	-1.070169	0.562246
C34	C	1.396181	-1.016664	0.399805
C35	C	1.457061	-1.071977	0.345677
C36	C	1.457115	-1.181707	0.345708
C37	C	1.396289	-1.236123	0.399867
C38	C	1.509003	-0.642730	0.521618
C39	C	1.608946	-0.649853	0.527386
C40	C	1.260990	-0.640783	0.742609
C41	C	1.255244	-0.647076	0.842550
C42	C	1.274550	-0.351990	0.508126
C43	C	1.274582	-0.235216	0.508144
C44	C	1.287957	-0.611233	0.274473
C45	C	1.293878	-0.604656	0.174542
C46	C	1.359489	-0.532697	1.037009
C47	C	1.354093	-0.538607	1.130913
C48	C	1.239052	-0.664798	1.124262
C49	C	1.244448	-0.658888	1.030358
C50	C	1.304670	-0.592837	0.986735
C51	C	1.310070	-0.586934	0.892830
C52	C	1.195025	-0.713119	0.886181
C53	C	1.189629	-0.719028	0.980085
H54	H	0.782065	-0.791208	0.641826
H55	H	1.398731	-0.489632	1.171842
H56	H	0.611708	-0.779110	0.632045
O57	O	1.396437	-1.342713	0.399766
C58	C	1.463232	-1.379872	0.340405
H59	H	1.478855	-1.314248	0.288591
H60	H	1.526725	-1.406169	0.379899
C61	C	1.410135	-1.554190	0.355842
C62	C	1.429318	-1.473592	0.292198
H63	H	1.389218	-1.612004	0.326108
H64	H	1.365136	-1.529157	0.395837
H65	H	1.463050	-1.576091	0.388749
H66	H	1.376401	-1.451683	0.259301
H67	H	1.474307	-1.498624	0.252196
O68	O	0.616865	-0.510207	0.414184
C69	C	0.644894	-0.528983	0.325837
H70	H	0.713189	-0.574070	0.327800
H71	H	0.593770	-0.577285	0.292450
C72	C	0.568432	-0.367961	0.269367
C73	C	0.652318	-0.423331	0.271778
H74	H	0.573008	-0.302792	0.236018
H75	H	0.549546	-0.355313	0.328887
H76	H	0.525838	-0.408225	0.241546
H77	H	0.694907	-0.383073	0.299608
H78	H	0.671211	-0.435970	0.212261
H79	H	1.506590	-1.027666	0.301588
H80	H	0.767781	-0.460918	0.374422
H81	H	1.150389	-0.762092	0.845238
H82	H	1.506693	-1.226741	0.301642
H83	H	1.164181	-1.224210	0.606365
O84	O	1.180621	-0.728919	1.166789
C85	C	1.187591	-0.721201	1.260448
H86	H	1.256260	-0.692558	1.277281
H87	H	1.132749	-0.663111	1.284013
C88	C	1.092189	-0.865112	1.287514
C89	C	1.176532	-0.829941	1.308189
H90	H	1.085363	-0.932186	1.316964
H91	H	1.087489	-0.870310	1.224414
H92	H	1.046496	-0.816694	1.307152
H93	H	1.222222	-0.878352	1.288541
H94	H	1.181238	-0.824754	1.371287
H95	H	1.164085	-1.025132	0.606319
H96	H	1.359107	-0.533153	0.857314
H97	H	1.408528	-0.478921	1.001491
H98	H	0.938163	-0.473010	0.384202
H99	H	0.926211	-0.730302	0.592510
O100	O	1.131185	-0.783331	1.022368
C101	C	1.152150	-0.887999	1.000563
H102	H	1.190633	-0.888347	0.934377
H103	H	1.195335	-0.929997	1.056077
C104	C	1.017465	-0.944703	1.072453
C105	C	1.064724	-0.945130	0.991158
H106	H	0.963537	-0.979947	1.066655
H107	H	1.003341	-0.874188	1.087147
H108	H	1.053462	-0.979700	1.118706
H109	H	1.028731	-0.910123	0.944909
H110	H	1.078839	-1.015642	0.976456
H111	H	1.396142	-0.927316	0.399771
