data_functionalizedCrystal
_audit_creation_method	'MofGen! by Chris Wilmer'
_symmetry_space_group_name_H-M	'P1'
_symmetry_Int_Tables_number	1
_symmetry_cell_setting	triclinic
loop_
_symmetry_equiv_pos_as_xyz
  x,y,z
_cell_length_a	21.395364
_cell_length_b	21.395362
_cell_length_c	21.395355
_cell_angle_alpha	90.021787
_cell_angle_beta	89.975448
_cell_angle_gamma	89.949410
loop_
_atom_site_label
_atom_site_type_symbol
_atom_site_fract_x
_atom_site_fract_y
_atom_site_fract_z
Zn1	Zn	0.957838	0.249261	-0.354247
Zn2	Zn	1.291171	0.582595	-0.020914
Zn3	Zn	1.624504	0.915928	0.312419
Zn4	Zn	0.957731	0.354021	-0.249464
Zn5	Zn	1.291065	0.687354	0.083870
Zn6	Zn	1.624398	1.020688	0.417203
Zn7	Zn	0.853053	0.249289	-0.249484
Zn8	Zn	1.186386	0.582622	0.083849
Zn9	Zn	1.519719	0.915955	0.417183
Zn10	Zn	0.853013	0.354032	-0.354204
Zn11	Zn	1.186346	0.687366	-0.020871
Zn12	Zn	1.519680	1.020699	0.312463
O13	O	0.905409	0.301651	-0.301850
O14	O	1.238742	0.634984	0.031484
O15	O	1.572075	0.968317	0.364817
O16	O	1.045502	0.263142	-0.340357
O17	O	1.378835	0.596475	-0.007024
O18	O	1.712168	0.929808	0.326310
O19	O	0.943817	0.340135	-0.161789
O20	O	1.277151	0.673468	0.171545
O21	O	1.610484	1.006802	0.504878
O22	O	0.867014	0.161607	-0.263408
O23	O	1.200347	0.494940	0.069926
O24	O	1.533681	0.828274	0.403259
O25	O	1.045423	0.340108	-0.263373
O26	O	1.378757	0.673442	0.069960
O27	O	1.712090	1.006775	0.403293
O28	O	0.943999	0.161587	-0.340377
O29	O	1.277332	0.494920	-0.007043
O30	O	1.610666	0.828254	0.326290
O31	O	0.866911	0.263188	-0.161803
O32	O	1.200244	0.596522	0.171530
O33	O	1.533577	0.929855	0.504863
O34	O	0.765370	0.263199	-0.263366
O35	O	1.098703	0.596533	0.069968
O36	O	1.432036	0.929866	0.403301
O37	O	0.866946	0.340127	-0.441888
O38	O	1.200279	0.673461	-0.108554
O39	O	1.533613	1.006794	0.224779
O40	O	0.765340	0.340154	-0.340303
O41	O	1.098674	0.673487	-0.006970
O42	O	1.432007	1.006821	0.326364
O43	O	0.943960	0.263152	-0.441919
O44	O	1.277294	0.596486	-0.108586
O45	O	1.610627	0.929819	0.224747
O46	O	0.943779	0.441700	-0.263331
O47	O	1.277112	0.775034	0.070002
O48	O	1.610446	1.108367	0.403335
O49	O	0.866843	0.441709	-0.340283
O50	O	1.200176	0.775042	-0.006950
O51	O	1.533509	1.108375	0.326383
C52	C	0.742621	0.301681	-0.301832
C53	C	1.075954	0.635015	0.031501
C54	C	1.409288	0.968348	0.364835
C55	C	0.672980	0.301709	-0.301839
C56	C	1.006313	0.635043	0.031494
C57	C	1.339646	0.968376	0.364827
C58	C	0.905312	0.464438	-0.301814
C59	C	1.238645	0.797772	0.031519
C60	C	1.571979	1.131105	0.364853
C61	C	0.905328	0.534080	-0.301820
C62	C	1.238661	0.867413	0.031514
C63	C	1.571995	1.200746	0.364847
C64	C	0.640330	0.261698	-0.341987
C65	C	0.973663	0.595032	-0.008654
C66	C	1.306996	0.928365	0.324680
C67	C	0.574894	0.261682	-0.341989
C68	C	0.908228	0.595015	-0.008656
C69	C	1.241561	0.928348	0.324677
C70	C	0.542111	0.301687	-0.301851
C71	C	0.875445	0.635021	0.031482
C72	C	1.208778	0.968354	0.364816
C73	C	0.574769	0.341701	-0.261696
C74	C	0.908103	0.675034	0.071638
C75	C	1.241436	1.008368	0.404971
C76	C	0.640204	0.341712	-0.261690
C77	C	0.973537	0.675045	0.071643
C78	C	1.306870	1.008379	0.404977
C79	C	0.438382	0.358112	-0.296810
C80	C	0.771716	0.691445	0.036523
C81	C	1.105049	1.024779	0.369857
C82	C	0.372949	0.358102	-0.296820
C83	C	0.706283	0.691435	0.036513
C84	C	1.039616	1.024769	0.369846
C85	C	0.340291	0.301653	-0.301865
C86	C	0.673624	0.634986	0.031469
C87	C	1.006957	0.968319	0.364802
C88	C	0.373073	0.245212	-0.306913
C89	C	0.706407	0.578545	0.026421
C90	C	1.039740	0.911879	0.359754
C91	C	0.438507	0.245223	-0.306907
C92	C	0.771841	0.578556	0.026427
C93	C	1.105174	0.911890	0.359760
C94	C	0.471159	0.301679	-0.301852
C95	C	0.804492	0.635013	0.031481
C96	C	1.137826	0.968346	0.364814
C97	C	0.236688	0.261620	-0.342017
C98	C	0.570022	0.594954	-0.008684
C99	C	0.903355	0.928287	0.324650
C100	C	0.171252	0.261603	-0.342015
C101	C	0.504585	0.594936	-0.008682
C102	C	0.837918	0.928269	0.324652
C103	C	0.171128	0.341627	-0.261725
C104	C	0.504461	0.674961	0.071609
C105	C	0.837795	1.008294	0.404942
C106	C	0.236563	0.341640	-0.261723
C107	C	0.569897	0.674973	0.071610
C108	C	0.903230	1.008306	0.404943
C109	C	0.269339	0.301637	-0.301873
C110	C	0.602673	0.634970	0.031460
C111	C	0.936006	0.968304	0.364794
C112	C	0.945388	0.566725	-0.341925
C113	C	1.278721	0.900059	-0.008592
C114	C	1.612054	1.233392	0.324741
C115	C	0.945403	0.632161	-0.341939
C116	C	1.278736	0.965494	-0.008606
C117	C	1.612070	1.298827	0.324727
C118	C	0.905365	0.664948	-0.301836
C119	C	1.238698	0.998281	0.031497
C120	C	1.572032	1.331615	0.364830
C121	C	0.865298	0.632294	-0.261728
C122	C	1.198631	0.965628	0.071605
C123	C	1.531964	1.298961	0.404939
C124	C	0.865279	0.566860	-0.261720
C125	C	1.198612	0.900194	0.071614
C126	C	1.531946	1.233527	0.404947
C127	C	0.900477	0.768650	-0.245395
C128	C	1.233811	1.101983	0.087938
C129	C	1.567144	1.435316	0.421271
C130	C	0.900501	0.834082	-0.245403
C131	C	1.233834	1.167416	0.087931
C132	C	1.567167	1.500749	0.421264
C133	C	0.905419	0.866769	-0.301862
C134	C	1.238752	1.200102	0.031471
C135	C	1.572086	1.533435	0.364804
C136	C	0.910327	0.834014	-0.358316
C137	C	1.243661	1.167347	-0.024983
C138	C	1.576994	1.500681	0.308350
C139	C	0.910309	0.768580	-0.358308
C140	C	1.243642	1.101913	-0.024975
C141	C	1.576976	1.435246	0.308359
C142	C	0.905381	0.735900	-0.301841
C143	C	1.238714	1.069234	0.031492
C144	C	1.572047	1.402567	0.364826
C145	C	0.945498	0.970367	-0.341986
C146	C	1.278831	1.303700	-0.008653
C147	C	1.612164	1.637034	0.324680
C148	C	0.945508	1.035804	-0.342001
C149	C	1.278842	1.369137	-0.008668
C150	C	1.612175	1.702470	0.324665
C151	C	0.865406	1.035936	-0.261784
C152	C	1.198740	1.369269	0.071549
C153	C	1.532073	1.702603	0.404882
C154	C	0.865392	0.970501	-0.261775
C155	C	1.198725	1.303834	0.071558
C156	C	1.532059	1.637167	0.404892
C157	C	0.905441	0.937720	-0.301875
C158	C	1.238774	1.271053	0.031458
C159	C	1.572108	1.604387	0.364792
C160	C	1.068832	0.301621	-0.301868
C161	C	1.402165	0.634954	0.031466
C162	C	1.735499	0.968287	0.364799
C163	C	1.138473	0.301608	-0.301875
C164	C	1.471807	0.634941	0.031458
C165	C	1.805140	0.968274	0.364791
C166	C	0.905461	0.301638	-0.465273
C167	C	1.238794	0.634971	-0.131940
C168	C	1.572127	0.968305	0.201394
C169	C	0.905483	0.301633	-0.534914
C170	C	1.238816	0.634966	-0.201581
C171	C	1.572150	0.968299	0.131752
C172	C	0.905497	1.138227	-0.301894
C173	C	1.238831	1.471561	0.031440
C174	C	1.572164	1.804894	0.364773
C175	C	0.905469	1.068586	-0.301899
C176	C	1.238803	1.401920	0.031435
C177	C	1.572136	1.735253	0.364768
C178	C	0.945582	0.261550	-0.567645
C179	C	1.278916	0.594884	-0.234312
C180	C	1.612249	0.928217	0.099022
C181	C	0.945582	0.261523	-0.633080
C182	C	1.278915	0.594857	-0.299747
C183	C	1.612248	0.928190	0.033586
C184	C	0.905488	0.301590	-0.665783
C185	C	1.238821	0.634923	-0.332449
C186	C	1.572154	0.968257	0.000884
C187	C	0.865380	0.341675	-0.633044
C188	C	1.198714	0.675009	-0.299711
C189	C	1.532047	1.008342	0.033623
C190	C	0.865378	0.341697	-0.567610
C191	C	1.198711	0.675030	-0.234277
C192	C	1.532044	1.008363	0.099057
C193	C	0.900507	0.358007	-0.769445
C194	C	1.233840	0.691340	-0.436112
C195	C	1.567174	1.024673	-0.102778
C196	C	0.900514	0.357986	-0.834878
C197	C	1.233847	0.691320	-0.501545
C198	C	1.567180	1.024653	-0.168211
C199	C	0.905492	0.301524	-0.867604
C200	C	1.238825	0.634857	-0.534270
C201	C	1.572158	0.968190	-0.200937
C202	C	0.910476	0.245080	-0.834888
C203	C	1.243809	0.578413	-0.501555
C204	C	1.577142	0.911746	-0.168221
C205	C	0.910473	0.245101	-0.769454
C206	C	1.243807	0.578434	-0.436121
C207	C	1.577140	0.911768	-0.102787
C208	C	0.905486	0.301571	-0.736735
C209	C	1.238819	0.634904	-0.403402
C210	C	1.572152	0.968238	-0.070068
C211	C	0.945592	0.261409	-0.971287
C212	C	1.278926	0.594742	-0.637954
C213	C	1.612259	0.928075	-0.304620
C214	C	0.945587	0.261381	-1.036724
C215	C	1.278921	0.594714	-0.703390
C216	C	1.612254	0.928047	-0.370057
C217	C	0.865389	0.341538	-1.036686
C218	C	1.198722	0.674872	-0.703353
C219	C	1.532056	1.008205	-0.370019
C220	C	0.865391	0.341561	-0.971251
C221	C	1.198724	0.674894	-0.637917
C222	C	1.532058	1.008227	-0.304584
C223	C	0.905496	0.301497	-0.938555
C224	C	1.238829	0.634830	-0.605222
C225	C	1.572163	0.968163	-0.271888
C226	C	0.905393	0.301618	-0.139062
C227	C	1.238726	0.634952	0.194271
C228	C	1.572060	0.968285	0.527604
C229	C	0.905492	0.301447	-0.069421
C230	C	1.238826	0.634780	0.263912
C231	C	1.572159	0.968114	0.597245
H232	H	0.667012	0.229125	-0.374679
H233	H	1.000345	0.562458	-0.041346
H234	H	1.333679	0.895791	0.291987
C235	C	0.337161	0.183113	-0.312460
C236	C	0.670494	0.516446	0.020873
C237	C	1.003828	0.849779	0.354207
H238	H	0.366056	0.149503	-0.315469
H239	H	0.699389	0.482837	0.017864
H240	H	1.032723	0.816170	0.351198
H241	H	0.311624	0.177547	-0.276564
H242	H	0.644958	0.510880	0.056770
H243	H	0.978291	0.844214	0.390103
H244	H	0.311651	0.183976	-0.348782
H245	H	0.644985	0.517309	-0.015449
H246	H	0.978318	0.850642	0.317884
H247	H	0.144669	0.229017	-0.374707
H248	H	0.478002	0.562351	-0.041374
H249	H	0.811336	0.895684	0.291960
H250	H	0.914334	0.860625	-0.404291
H251	H	1.247667	1.193959	-0.070958
H252	H	1.581000	1.527292	0.262375
C253	C	0.989699	0.217338	-0.935316
C254	C	1.323032	0.550671	-0.601983
C255	C	1.656366	0.884004	-0.268650
H256	H	0.983961	0.223097	-0.891658
H257	H	1.317295	0.556430	-0.558324
H258	H	1.650628	0.889764	-0.224991
H259	H	0.980560	0.175238	-0.946036
H260	H	1.313893	0.508571	-0.612702
H261	H	1.647226	0.841904	-0.279369
H262	H	1.031793	0.226500	-0.946059
H263	H	1.365126	0.559833	-0.612725
H264	H	1.698459	0.893166	-0.279392
H265	H	0.978240	0.228737	-1.063372
H266	H	1.311574	0.562070	-0.730038
H267	H	1.644907	0.895404	-0.396705
C268	C	0.474300	0.420210	-0.291266
C269	C	0.807634	0.753544	0.042068
C270	C	1.140967	1.086877	0.375401
H271	H	0.445407	0.453822	-0.288271
H272	H	0.778740	0.787155	0.045062
H273	H	1.112073	1.120489	0.378396
H274	H	0.499811	0.419353	-0.254948
H275	H	0.833144	0.752686	0.078385
H276	H	1.166478	1.086019	0.411719
H277	H	0.499836	0.425770	-0.327168
H278	H	0.833169	0.759104	0.006165
H279	H	1.166503	1.092437	0.339499
H280	H	0.914530	0.199103	-0.861532
H281	H	1.247864	0.532436	-0.528198
H282	H	1.581197	0.865769	-0.194865
H283	H	0.832697	0.658994	-0.229077
H284	H	1.166030	0.992327	0.104256
H285	H	1.499364	1.325661	0.437590
C286	C	0.989471	0.668082	-0.386054
C287	C	1.322805	1.001415	-0.052721
C288	C	1.656138	1.334748	0.280613
H289	H	0.983743	0.711747	-0.380317
H290	H	1.317076	1.045080	-0.046984
H291	H	1.650410	1.378413	0.286349
H292	H	1.031570	0.657314	-0.376919
H293	H	1.364903	0.990647	-0.043586
H294	H	1.698236	1.323981	0.289747
H295	H	0.980278	0.657350	-0.428146
H296	H	1.313611	0.990683	-0.094812
H297	H	1.646945	1.324017	0.238521
C298	C	0.821291	0.385615	-1.072650
C299	C	1.154624	0.718948	-0.739317
C300	C	1.487957	1.052282	-0.405984
H301	H	0.827038	0.379866	-1.116309
H302	H	1.160371	0.713199	-0.782976
H303	H	1.493705	1.046533	-0.449642
H304	H	0.779198	0.376463	-1.061912
H305	H	1.112531	0.709796	-0.728579
H306	H	1.445864	1.043129	-0.395245
H307	H	0.830439	0.427715	-1.061927
H308	H	1.163773	0.761049	-0.728593
H309	H	1.497106	1.094382	-0.395260
H310	H	0.832741	0.374204	-0.944601
H311	H	1.166075	0.707537	-0.611268
H312	H	1.499408	1.040871	-0.277934
H313	H	0.666787	0.374295	-0.228996
H314	H	1.000120	0.707628	0.104337
H315	H	1.333453	1.040961	0.437671
H316	H	0.896459	0.403946	-0.861510
H317	H	1.229792	0.737280	-0.528177
H318	H	1.563126	1.070613	-0.194843
C319	C	0.821214	0.530946	-0.217601
C320	C	1.154547	0.864279	0.115732
C321	C	1.487880	1.197612	0.449065
H322	H	0.826935	0.487280	-0.223342
H323	H	1.160269	0.820614	0.109991
H324	H	1.493602	1.153947	0.443324
H325	H	0.830403	0.541680	-0.175513
H326	H	1.163736	0.875014	0.157820
H327	H	1.497070	1.208347	0.491154
H328	H	0.779112	0.541712	-0.226740
H329	H	1.112446	0.875045	0.106593
H330	H	1.445779	1.208378	0.439926
C331	C	0.989691	0.217477	-0.531683
C332	C	1.323024	0.550810	-0.198350
C333	C	1.656358	0.884143	0.134983
H334	H	1.013569	0.193597	-0.560552
H335	H	1.346903	0.526931	-0.227219
H336	H	1.680236	0.860264	0.106114
H337	H	1.016972	0.241446	-0.506165
H338	H	1.350306	0.574779	-0.172832
H339	H	1.683639	0.908113	0.160502
H340	H	0.965738	0.190186	-0.506152
H341	H	1.299071	0.523519	-0.172819
H342	H	1.632405	0.856852	0.160515
C343	C	0.894894	0.420107	-0.733453
C344	C	1.228228	0.753441	-0.400120
C345	C	1.561561	1.086774	-0.066787
H346	H	0.891894	0.453715	-0.762307
H347	H	1.225228	0.787049	-0.428974
H348	H	1.558561	1.120382	-0.095640
H349	H	0.858543	0.419219	-0.707963
H350	H	1.191876	0.752552	-0.374630
H351	H	1.525209	1.085885	-0.041297
H352	H	0.930753	0.425699	-0.707891
H353	H	1.264087	0.759032	-0.374558
H354	H	1.597420	1.092366	-0.041225
C355	C	0.135075	0.385636	-0.217576
C356	C	0.468408	0.718969	0.115758
C357	C	0.801741	1.052302	0.449091
H358	H	0.091428	0.379902	-0.223332
H359	H	0.424761	0.713236	0.110002
H360	H	0.758094	1.046569	0.443335
H361	H	0.145786	0.376410	-0.175493
H362	H	0.479119	0.709744	0.157840
H363	H	0.812452	1.043077	0.491173
H364	H	0.145760	0.427750	-0.226674
H365	H	0.479093	0.761083	0.106659
H366	H	0.812426	1.094416	0.439992
C367	C	0.821281	0.385750	-0.669014
C368	C	1.154614	0.719084	-0.335680
C369	C	1.487948	1.052417	-0.002347
H370	H	0.827031	0.380002	-0.712672
H371	H	1.160364	0.713336	-0.379339
H372	H	1.493697	1.046669	-0.046006
H373	H	0.779189	0.376594	-0.658277
H374	H	1.112522	0.709927	-0.324943
H375	H	1.445855	1.043261	0.008390
H376	H	0.830426	0.427851	-0.658289
H377	H	1.163760	0.761185	-0.324956
H378	H	1.497093	1.094518	0.008378
C379	C	0.989693	0.217433	-0.669095
C380	C	1.323026	0.550766	-0.335761
C381	C	1.656359	0.884100	-0.002428
H382	H	0.983946	0.223156	-0.712748
H383	H	1.317280	0.556490	-0.379414
H384	H	1.650613	0.889823	-0.046081
H385	H	1.031783	0.226600	-0.658388
H386	H	1.365116	0.559933	-0.325055
H387	H	1.698450	0.893266	0.008278
H388	H	0.980551	0.175337	-0.658372
H389	H	1.313885	0.508670	-0.325039
H390	H	1.647218	0.842004	0.008295
C391	C	0.989439	0.530670	-0.386034
C392	C	1.322773	0.864004	-0.052701
C393	C	1.656106	1.197337	0.280632
H394	H	1.013298	0.559489	-0.409924
H395	H	1.346631	0.892822	-0.076591
H396	H	1.679964	1.226155	0.256742
H397	H	1.016741	0.505125	-0.362086
H398	H	1.350074	0.838459	-0.028753
H399	H	1.683408	1.171792	0.304581
H400	H	0.965452	0.505159	-0.413314
H401	H	1.298785	0.838492	-0.079981
H402	H	1.632118	1.171825	0.253352
C403	C	0.915945	0.183018	-0.733469
C404	C	1.249279	0.516351	-0.400136
C405	C	1.582612	0.849685	-0.066802
H406	H	0.918906	0.149385	-0.762326
H407	H	1.252239	0.482718	-0.428993
H408	H	1.585572	0.816052	-0.095660
H409	H	0.952260	0.183831	-0.707954
H410	H	1.285594	0.517164	-0.374621
H411	H	1.618927	0.850498	-0.041288
H412	H	0.880033	0.177532	-0.707933
H413	H	1.213367	0.510865	-0.374599
H414	H	1.546700	0.844198	-0.041266
C415	C	0.538711	0.385708	-0.217547
C416	C	0.872044	0.719042	0.115786
C417	C	1.205378	1.052375	0.449120
H418	H	0.495064	0.379977	-0.223305
H419	H	0.828398	0.713310	0.110028
H420	H	1.161731	1.046643	0.443361
H421	H	0.549420	0.376480	-0.175465
H422	H	0.882754	0.709814	0.157868
H423	H	1.216087	1.043147	0.491202
H424	H	0.549397	0.427823	-0.226643
H425	H	0.882731	0.761156	0.106691
H426	H	1.216064	1.094489	0.440024
H427	H	0.832721	0.374336	-0.540961
H428	H	1.166054	0.707669	-0.207628
H429	H	1.499388	1.041002	0.125706
H430	H	0.548305	0.229097	-0.374681
H431	H	0.881639	0.562430	-0.041348
H432	H	1.214972	0.895764	0.291985
H433	H	0.263147	0.374223	-0.229033
H434	H	0.596480	0.707557	0.104300
H435	H	0.929814	1.040890	0.437633
H436	H	0.346263	0.404059	-0.292713
H437	H	0.679596	0.737393	0.040620
H438	H	1.012930	1.070726	0.373954
C439	C	0.915701	0.732549	-0.420400
C440	C	1.249035	1.065882	-0.087067
C441	C	1.582368	1.399215	0.246266
H442	H	0.914990	0.688898	-0.412306
H443	H	1.248323	1.022232	-0.078973
H444	H	1.581656	1.355565	0.254361
H445	H	0.881608	0.743297	-0.446726
H446	H	1.214942	1.076631	-0.113393
H447	H	1.548275	1.409964	0.219940
H448	H	0.953842	0.743215	-0.440472
H449	H	1.287175	1.076548	-0.107138
H450	H	1.620509	1.409882	0.226195
C451	C	0.474566	0.183143	-0.312450
C452	C	0.807899	0.516477	0.020884
C453	C	1.141233	0.849810	0.354217
H454	H	0.445749	0.149520	-0.315451
H455	H	0.779082	0.482853	0.017883
H456	H	1.112415	0.816186	0.351216
H457	H	0.500112	0.184013	-0.348762
H458	H	0.833446	0.517346	-0.015429
H459	H	1.166779	0.850680	0.317904
H460	H	0.500076	0.177593	-0.276543
H461	H	0.833410	0.510926	0.056790
H462	H	1.166743	0.844260	0.390124
C463	C	0.895101	0.870107	-0.183307
C464	C	1.228435	1.203440	0.150026
C465	C	1.561768	1.536774	0.483360
H466	H	0.892158	0.841270	-0.149682
H467	H	1.225491	1.174603	0.183652
H468	H	1.558824	1.507937	0.516985
H469	H	0.931018	0.895593	-0.177831
H470	H	1.264352	1.228927	0.155502
H471	H	1.597685	1.562260	0.488836
H472	H	0.858786	0.895674	-0.184096
H473	H	1.192119	1.229008	0.149238
H474	H	1.525452	1.562341	0.482571
H475	H	0.978106	0.943676	-0.374640
H476	H	1.311439	1.277009	-0.041307
H477	H	1.644773	1.610343	0.292026
H478	H	0.263376	0.229044	-0.374705
H479	H	0.596709	0.562377	-0.041372
H480	H	0.930043	0.895711	0.291961
H481	H	0.978130	1.062383	-0.374663
H482	H	1.311463	1.395716	-0.041330
H483	H	1.644796	1.729049	0.292004
H484	H	0.832803	1.062631	-0.229136
H485	H	1.166136	1.395964	0.104198
H486	H	1.499469	1.729297	0.437531
C487	C	0.895067	0.732701	-0.183286
C488	C	1.228400	1.066034	0.150048
C489	C	1.561733	1.399368	0.483381
H490	H	0.892155	0.761578	-0.149666
H491	H	1.225489	1.094912	0.183667
H492	H	1.558822	1.428245	0.517001
H493	H	0.858741	0.707216	-0.184061
H494	H	1.192074	1.040550	0.149272
H495	H	1.525408	1.373883	0.482606
H496	H	0.930975	0.707137	-0.177810
H497	H	1.264308	1.040470	0.155523
H498	H	1.597642	1.373804	0.488857
C499	C	0.821330	0.934585	-0.217656
C500	C	1.154664	1.267919	0.115677
C501	C	1.487997	1.601252	0.449011
H502	H	0.827050	0.890920	-0.223398
H503	H	1.160383	1.224253	0.109935
H504	H	1.493716	1.557587	0.443269
H505	H	0.830521	0.945319	-0.175567
H506	H	1.163854	1.278652	0.157766
H507	H	1.497187	1.611985	0.491099
H508	H	0.779229	0.945354	-0.226794
H509	H	1.112563	1.278688	0.106539
H510	H	1.445896	1.612021	0.439873
