data_functionalizedCrystal
_audit_creation_method	'MofGen! by Chris Wilmer'
_symmetry_space_group_name_H-M	'P1'
_symmetry_Int_Tables_number	1
_symmetry_cell_setting	triclinic
loop_
_symmetry_equiv_pos_as_xyz
  x,y,z
_cell_length_a	19.077442
_cell_length_b	19.805407
_cell_length_c	19.805399
_cell_angle_alpha	89.978936
_cell_angle_beta	92.323360
_cell_angle_gamma	92.274928
loop_
_atom_site_label
_atom_site_type_symbol
_atom_site_fract_x
_atom_site_fract_y
_atom_site_fract_z
Zn1	Zn	-0.280232	-1.045566	0.371937
Zn2	Zn	-0.397929	-1.050030	0.254209
Zn3	Zn	-0.280249	-0.932381	0.258758
Zn4	Zn	-0.397889	-0.936891	0.367355
O5	O	-0.339075	-0.991217	0.313065
O6	O	-0.295854	-1.140875	0.356335
O7	O	-0.382342	-1.034404	0.160095
O8	O	-0.181758	-0.943640	0.277594
O9	O	-0.382325	-1.144154	0.269840
O10	O	-0.181745	-1.026796	0.360746
O11	O	-0.295883	-0.947968	0.163437
O12	O	-0.295845	-0.838263	0.273150
O13	O	-0.382258	-0.951327	0.462680
O14	O	-0.382275	-0.841576	0.352935
O15	O	-0.295816	-1.031169	0.466047
O16	O	-0.496413	-1.038777	0.265397
O17	O	-0.496384	-0.955655	0.348524
C18	C	-0.339058	-0.815360	0.313039
C19	C	-0.339068	-0.740129	0.313044
C20	C	-0.384139	-0.706530	0.354514
C21	C	-0.384139	-0.635842	0.354522
C22	C	-0.339071	-0.598753	0.313055
C23	C	-0.293995	-0.632357	0.271583
C24	C	-0.293992	-0.703044	0.271579
C25	C	-0.294005	-0.347284	0.271597
C26	C	-0.294013	-0.276592	0.271603
C27	C	-0.384152	-0.280082	0.354540
C28	C	-0.384149	-0.350769	0.354536
C29	C	-0.339071	-0.384366	0.313067
C30	C	-0.339071	-0.461014	0.313060
C31	C	-0.339074	-0.522106	0.313058
C32	C	-0.521936	-0.998208	0.305984
C33	C	-0.600164	-1.001261	0.302978
C34	C	-1.040508	-1.023108	0.281394
C35	C	-0.967004	-1.020234	0.284220
C36	C	-0.930264	-0.975489	0.328880
C37	C	-0.967033	-0.933610	0.370712
C38	C	-1.040536	-0.936482	0.367882
C39	C	-0.710436	-0.962254	0.341979
C40	C	-0.636928	-0.959387	0.344808
C41	C	-0.636903	-1.046010	0.258314
C42	C	-0.710408	-1.048880	0.255491
C43	C	-0.747170	-1.006999	0.297320
N44	N	-0.855131	-0.972551	0.331772
N45	N	-0.822302	-1.009934	0.294425
C46	C	-0.155500	-0.984217	0.320188
C47	C	-0.077271	-0.981234	0.323224
C48	C	-0.339031	-0.991253	0.489610
C49	C	-0.339012	-0.991269	0.564842
C50	C	-0.339088	-0.167760	0.313085
C51	C	-0.339081	-0.242992	0.313077
C52	C	-0.339068	-0.991218	0.137209
C53	C	-0.338889	-0.991326	0.061985
C54	C	-0.293999	-1.032844	0.601941
C55	C	-0.293978	-1.032850	0.672630
C56	C	-0.338975	-0.991284	0.706219
C57	C	-0.383990	-0.949704	0.669116
C58	C	-0.384006	-0.949695	0.598428
C59	C	-0.383924	-0.949740	0.954192
C60	C	-0.383906	-0.949754	1.024885
C61	C	-0.293896	-1.032895	1.028394
C62	C	-0.293913	-1.032886	0.957706
C63	C	-0.338925	-0.991304	0.920609
C64	C	-0.338945	-0.991296	0.843960
C65	C	-0.338958	-0.991294	0.782867
H66	H	-0.257297	-0.602153	0.237823
O67	O	-0.250137	-0.735709	0.231391
C68	C	-0.204740	-0.774889	0.271752
H69	H	-0.200467	-0.753447	0.325235
H70	H	-0.150543	-0.773605	0.249456
H71	H	-0.226500	-0.829296	0.273203
H72	H	-0.257309	-0.246396	0.237835
H73	H	-0.257360	-1.066694	0.574598
O74	O	-0.428036	-0.247480	0.394758
C75	C	-0.498161	-0.267442	0.377150
H76	H	-0.501641	-0.286977	0.322934
H77	H	-0.532943	-0.222289	0.381588
H78	H	-0.516604	-0.309198	0.412688
O79	O	-0.601202	-0.916016	0.388264
C80	C	-0.558616	-0.952870	0.433642
H81	H	-0.580726	-1.007036	0.437023
H82	H	-0.557764	-0.928327	0.485740
H83	H	-0.502922	-0.953049	0.414856
H84	H	-0.740359	-0.928147	0.376034
O85	O	-0.931238	-0.890204	0.414078
C86	C	-0.858479	-0.896637	0.407597
H87	H	-0.848405	-0.948490	0.385865
H88	H	-0.830520	-0.890927	0.459369
H89	H	-0.837676	-0.855697	0.372317
O90	O	-0.427821	-0.742626	0.394833
C91	C	-0.387807	-0.781989	0.440171
H92	H	-0.334438	-0.790527	0.418447
H93	H	-0.416485	-0.832796	0.448085
H94	H	-0.380141	-0.754473	0.490640
O95	O	-0.250195	-0.379808	0.231253
C96	C	-0.210408	-0.331912	0.194669
H97	H	-0.239241	-0.282630	0.191162
H98	H	-0.202818	-0.352023	0.141646
H99	H	-0.156992	-0.322354	0.221613
H100	H	-1.070468	-0.902387	0.401948
O101	O	-0.250172	-1.073134	0.708696
C102	C	-0.204707	-1.032869	0.751345
H103	H	-0.200369	-0.979391	0.730199
H104	H	-0.150543	-1.055279	0.754244
H105	H	-0.226444	-1.031376	0.804077
O106	O	-0.250136	-1.073281	0.925185
C107	C	-0.210413	-1.109991	0.973088
H108	H	-0.207962	-1.082182	1.023566
H109	H	-0.154966	-1.115091	0.954818
H110	H	-0.236188	-1.162381	0.979615
O111	O	-0.250186	-1.073220	1.064535
C112	C	-0.259826	-1.064328	1.134129
H113	H	-0.282868	-1.012973	1.142879
H114	H	-0.207100	-1.066914	1.163038
H115	H	-0.297305	-1.105907	1.152745
O116	O	-0.427637	-0.909308	1.057409
C117	C	-0.467381	-0.872615	1.009509
H118	H	-0.438566	-0.869164	0.960238
H119	H	-0.474872	-0.819576	1.029635
H120	H	-0.520841	-0.899433	0.999921
H121	H	-0.420586	-0.915892	0.923995
O122	O	-0.427676	-0.909388	0.701848
C123	C	-0.417999	-0.918299	0.772195
H124	H	-0.394953	-0.969657	0.782756
H125	H	-0.470711	-0.915720	0.797012
H126	H	-0.380509	-0.876726	0.793701
H127	H	-0.420841	-0.608489	0.388291
H128	H	-1.070415	-1.059548	0.245030
H129	H	-0.420851	-0.380963	0.388301
H130	H	-0.740316	-1.085315	0.219123
O131	O	-0.931400	-1.060982	0.243566
C132	C	-0.979589	-1.101084	0.203534
H133	H	-1.031966	-1.105453	0.229244
H134	H	-0.958308	-1.153586	0.197189
H135	H	-0.987458	-1.076640	0.151799
O136	O	-0.601160	-1.086587	0.217609
C137	C	-0.558691	-1.046414	0.175505
H138	H	-0.580893	-0.993975	0.170424
H139	H	-0.557866	-1.070888	0.123469
H140	H	-0.502974	-1.041896	0.198575
H141	H	-0.420653	-0.915833	0.568223
