data_functionalizedCrystal
_audit_creation_method	'MofGen! by Chris Wilmer'
_symmetry_space_group_name_H-M	'P1'
_symmetry_Int_Tables_number	1
_symmetry_cell_setting	triclinic
loop_
_symmetry_equiv_pos_as_xyz
  x,y,z
_cell_length_a	8.559649
_cell_length_b	9.616153
_cell_length_c	8.634740
_cell_angle_alpha	89.999537
_cell_angle_beta	85.174486
_cell_angle_gamma	90.006285
loop_
_atom_site_label
_atom_site_type_symbol
_atom_site_fract_x
_atom_site_fract_y
_atom_site_fract_z
O1	O	2.112224	0.115624	-0.051383
O2	O	1.659061	0.115629	0.026828
O3	O	1.864191	0.115623	-0.234213
O4	O	1.907093	0.115629	0.209658
O5	O	1.864159	-0.115668	-0.234204
O6	O	1.659028	-0.115662	0.026837
O7	O	2.112191	-0.115668	-0.051374
Zn8	Zn	1.885605	-0.152387	-0.012267
Zn9	Zn	1.885647	0.152349	-0.012279
O10	O	1.907061	-0.115662	0.209667
C11	C	1.600427	-0.000016	0.032760
C12	C	1.425763	-0.000013	0.050402
N13	N	1.885587	-0.360362	-0.012261
C14	C	1.775407	-0.580729	0.127014
C15	C	1.775755	-0.419561	0.127439
C16	C	2.054642	-0.418813	0.002863
C17	C	2.054071	-0.580031	0.003823
C18	C	1.828286	-0.580275	-0.167272
C19	C	1.824674	-0.419048	-0.165760
C20	C	2.170825	-0.000020	-0.057305
C21	C	2.345489	-0.000013	-0.074948
C22	C	1.854456	-0.000020	-0.290508
C23	C	1.825478	-0.000013	-0.458259
N24	N	1.885675	0.360323	-0.012298
C25	C	1.916796	-0.000015	0.265962
C26	C	1.945774	-0.000013	0.433714
H27	H	1.650877	-0.380045	0.121288
H28	H	1.700309	-0.000003	-0.494113
H29	H	2.070935	0.000034	-0.530438
F30	F	1.430310	-0.000008	-0.232866
H31	H	1.700192	-0.380847	-0.177690
H32	H	1.360858	-0.000004	0.171225
F33	F	1.920386	-0.366398	-0.305649
F34	F	1.668922	-0.633480	-0.192550
F35	F	1.611736	-0.631428	0.119457
H36	H	1.814193	-0.621226	0.241792
F37	F	1.826903	-0.369127	0.278309
H38	H	2.100926	-0.617618	0.116252
H39	H	2.139980	-0.619022	-0.094682
H40	H	2.139658	-0.380463	-0.096712
H41	H	2.101978	-0.378421	0.113894
H42	H	1.908415	-0.618394	-0.270715
