data_functionalizedCrystal
_audit_creation_method	'MofGen! by Chris Wilmer'
_symmetry_space_group_name_H-M	'P1'
_symmetry_Int_Tables_number	1
_symmetry_cell_setting	triclinic
loop_
_symmetry_equiv_pos_as_xyz
  x,y,z
_cell_length_a	10.489741
_cell_length_b	10.654550
_cell_length_c	9.565339
_cell_angle_alpha	89.998289
_cell_angle_beta	89.997686
_cell_angle_gamma	95.487948
loop_
_atom_site_label
_atom_site_type_symbol
_atom_site_fract_x
_atom_site_fract_y
_atom_site_fract_z
O1	O	1.693970	-0.177180	-0.116173
O2	O	1.322766	-0.193813	-0.116195
O3	O	1.516903	-0.002761	-0.116175
O4	O	1.499834	-0.368232	-0.116193
O5	O	1.516882	-0.002779	0.116345
O6	O	1.322745	-0.193830	0.116325
O7	O	1.693949	-0.177198	0.116347
Zn8	Zn	1.508344	-0.185517	0.153254
Zn9	Zn	1.508372	-0.185494	-0.153102
O10	O	1.499813	-0.368249	0.116327
C11	C	1.275225	-0.192565	0.000062
C12	C	1.133597	-0.188807	0.000054
C13	C	1.515639	0.044029	0.000085
C14	C	1.511889	0.183474	0.000082
N15	N	1.508334	-0.185531	0.362333
C16	C	1.065516	-0.067246	0.000074
C17	C	0.973372	-0.124662	-0.114571
C18	C	0.973385	-0.124708	0.114676
C19	C	1.043318	-0.246272	-0.114685
C20	C	1.043341	-0.246301	0.114665
C21	C	0.951224	-0.303805	-0.000008
C22	C	1.741491	-0.178445	0.000087
C23	C	1.883118	-0.182204	0.000085
C24	C	1.501076	-0.415039	0.000064
C25	C	1.504826	-0.554484	0.000058
C26	C	1.626194	0.262906	0.000088
C27	C	1.622663	0.393928	0.000071
C28	C	1.390513	0.366074	0.000047
C29	C	1.394045	0.235054	0.000055
C30	C	1.418523	-0.273859	0.453527
C31	C	1.534005	-0.299273	0.546711
C32	C	1.392895	-0.160133	0.546704
C33	C	1.623875	-0.211003	0.453466
C34	C	1.482689	-0.071813	0.453450
C35	C	1.598254	-0.097180	0.546593
N36	N	1.508367	-0.185492	0.637819
H37	H	1.115254	0.032684	-0.000065
H38	H	0.942423	-0.073258	0.211599
H39	H	1.300959	0.170376	0.000045
F40	F	1.744322	0.478461	0.000075
H41	H	1.294568	0.408087	0.000028
F42	F	1.319346	-0.371575	0.400109
F43	F	1.454260	0.053826	0.399862
F44	F	1.265276	-0.132075	0.600240
H45	H	0.942391	-0.073220	-0.211491
F46	F	1.562390	-0.424949	0.600256
H47	H	1.074130	-0.297660	-0.211717
H48	H	1.721536	-0.232583	0.412682
H49	H	0.901752	-0.403841	-0.000075
H50	H	1.674302	-0.022464	0.587199
F51	F	1.751614	0.208015	0.000116
F52	F	1.083880	-0.313486	0.241353
