data_functionalizedCrystal
_audit_creation_method	'MofGen! by Chris Wilmer'
_symmetry_space_group_name_H-M	'P1'
_symmetry_Int_Tables_number	1
_symmetry_cell_setting	triclinic
loop_
_symmetry_equiv_pos_as_xyz
  x,y,z
_cell_length_a	13.033409
_cell_length_b	16.959453
_cell_length_c	13.032268
_cell_angle_alpha	82.853932
_cell_angle_beta	74.837427
_cell_angle_gamma	82.850960
loop_
_atom_site_label
_atom_site_type_symbol
_atom_site_fract_x
_atom_site_fract_y
_atom_site_fract_z
Zn1	Zn	1.547420	-0.500981	0.393901
Zn2	Zn	1.569868	-0.618271	0.216300
Zn3	Zn	1.392374	-0.471250	0.238910
Zn4	Zn	1.369785	-0.618241	0.416451
O5	O	1.469861	-0.552186	0.316390
O6	O	1.699020	-0.528994	0.351442
O7	O	1.565171	-0.586338	0.070671
O8	O	1.413000	-0.364591	0.259495
O9	O	1.715512	-0.615167	0.220959
O10	O	1.526912	-0.386434	0.373367
O11	O	1.434767	-0.478322	0.087282
O12	O	1.240755	-0.478294	0.281361
O13	O	1.374501	-0.615117	0.562088
O14	O	1.224159	-0.586288	0.411799
O15	O	1.505008	-0.528966	0.545521
O16	O	1.543267	-0.728870	0.242825
O17	O	1.396267	-0.728848	0.389875
C18	C	1.193920	-0.529062	0.351481
C19	C	1.075868	-0.519191	0.366518
C20	C	0.909394	-0.547142	0.324104
C21	C	1.031407	-0.557347	0.308557
C22	C	1.469778	-0.757541	0.316363
C23	C	1.469835	-0.845404	0.316374
C24	C	1.529246	-1.228217	0.375800
C25	C	1.410754	-1.205589	0.257100
C26	C	1.410717	-1.123038	0.257081
C27	C	1.469945	-1.093073	0.316423
C28	C	1.529209	-1.145659	0.375785
C29	C	1.351446	-1.070446	0.197729
C30	C	1.351406	-0.987889	0.197708
C31	C	1.410641	-0.957922	0.257045
C32	C	1.469908	-1.010514	0.316408
C33	C	1.529136	-0.980549	0.375751
C34	C	1.588410	-1.033139	0.435109
C35	C	1.588443	-1.115692	0.435123
C36	C	1.410607	-0.875370	0.257032
C37	C	1.529099	-0.897991	0.375736
C38	C	1.746880	-0.575400	0.281163
C39	C	1.864929	-0.585293	0.266152
C40	C	1.434731	-0.575354	0.593419
C41	C	1.419760	-0.585227	0.711473
C42	C	1.469971	-0.346033	0.316438
C43	C	1.470018	-0.258182	0.316458
C44	C	1.504917	-0.529055	0.040431
C45	C	1.520093	-0.518977	-0.077647
C46	C	1.477658	-0.547003	0.755907
C47	C	1.462187	-0.557206	0.877922
H48	H	1.636628	-1.008732	0.483431
H49	H	1.083665	-0.597572	0.247434
H50	H	1.023611	-0.478973	0.427651
O51	O	1.353125	-1.234561	0.199440
C52	C	1.235644	-1.203410	0.081649
C53	C	1.300844	-1.170490	0.146926
H54	H	1.193376	-1.151625	0.039156
H55	H	1.173843	-1.241460	0.137401
H56	H	1.291516	-1.241528	0.020001
H57	H	1.245056	-1.132338	0.208577
H58	H	1.362656	-1.132485	0.091107
O59	O	1.550474	-0.498891	0.693698
C60	C	1.683873	-0.410900	0.688039
C61	C	1.601428	-0.465349	0.758614
H62	H	1.725108	-0.383780	0.740493
H63	H	1.641720	-0.361127	0.642342
H64	H	1.745882	-0.447536	0.629013
H65	H	1.539396	-0.428781	0.817700
H66	H	1.643655	-0.515124	0.804236
O67	O	1.586726	-1.279409	0.433438
C68	C	1.639364	-1.416612	0.486015
C69	C	1.574202	-1.358728	0.420714
H70	H	1.629279	-1.480754	0.475732
H71	H	1.609772	-1.406020	0.574044
H72	H	1.727352	-1.405908	0.456551
H73	H	1.486201	-1.369398	0.450085
H74	H	1.603882	-1.369333	0.332696
H75	H	1.362341	-0.832554	0.208709
O76	O	0.927107	-0.633332	0.193215
C77	C	0.932702	-0.721173	0.059644
C78	C	0.862162	-0.666806	0.142225
H79	H	0.880225	-0.748239	0.018380
H80	H	0.978436	-0.770989	0.101692
H81	H	0.991687	-0.684489	-0.002333
H82	H	0.803118	-0.703423	0.204224
H83	H	0.816504	-0.616988	0.100103
O84	O	1.586653	-0.869019	0.433481
C85	C	1.704239	-0.900176	0.551166
C86	C	1.639089	-0.933093	0.485837
H87	H	1.746668	-0.951963	0.593495
H88	H	1.648418	-0.862126	0.612930
H89	H	1.765927	-0.862061	0.495367
H90	H	1.577397	-0.971243	0.541553
H91	H	1.694977	-0.971099	0.424061
H92	H	1.401153	-0.597482	0.930207
H93	H	1.303223	-1.094850	0.149419
O94	O	1.592779	-0.470796	0.860060
C95	C	1.648729	-0.337842	0.819469
C96	C	1.566328	-0.392315	0.890065
H97	H	1.627386	-0.274383	0.843717
H98	H	1.648244	-0.338094	0.732160
H99	H	1.731616	-0.360742	0.830314
H100	H	1.483401	-0.369454	0.879313
H101	H	1.566907	-0.392060	0.977347
O102	O	1.347041	-0.633281	0.773993
C103	C	1.265246	-0.687205	0.952615
C104	C	1.347654	-0.632771	0.881938
H105	H	1.265698	-0.686797	1.039904
H106	H	1.286598	-0.750717	0.928561
H107	H	1.182370	-0.664352	0.941700
H108	H	1.430559	-0.655552	0.892817
H109	H	1.326209	-0.569268	0.906009
O110	O	1.645836	-1.166815	0.492919
C111	C	1.641826	-1.273189	0.634498
C112	C	1.576708	-1.215317	0.569139
H113	H	1.585967	-1.312429	0.696122
H114	H	1.684129	-1.237644	0.676997
H115	H	1.703612	-1.312376	0.578699
H116	H	1.514869	-1.176118	0.624864
H117	H	1.534480	-1.250911	0.526627
O118	O	1.293818	-0.936918	0.139947
C119	C	1.176249	-0.923193	0.022255
C120	C	1.241435	-0.981007	0.087607
H121	H	1.133863	-0.958816	-0.020060
H122	H	1.232040	-0.883998	-0.039521
H123	H	1.114525	-0.883956	0.078037
H124	H	1.303164	-1.020295	0.031909
H125	H	1.185578	-1.020148	0.149395
H126	H	0.857131	-0.506929	0.385234
