data_functionalizedCrystal
_audit_creation_method	'MofGen! by Chris Wilmer'
_symmetry_space_group_name_H-M	'P1'
_symmetry_Int_Tables_number	1
_symmetry_cell_setting	triclinic
loop_
_symmetry_equiv_pos_as_xyz
  x,y,z
_cell_length_a	14.044220
_cell_length_b	11.026607
_cell_length_c	10.065875
_cell_angle_alpha	100.732634
_cell_angle_beta	99.550528
_cell_angle_gamma	79.112553
loop_
_atom_site_label
_atom_site_type_symbol
_atom_site_fract_x
_atom_site_fract_y
_atom_site_fract_z
O1	O	-1.319580	0.281448	-0.113330
O2	O	-1.041779	0.270687	-0.113365
O3	O	-1.157655	0.096922	-0.113348
O4	O	-1.203703	0.455213	-0.113346
O5	O	-1.135584	0.130202	0.113637
O6	O	-1.019707	0.303967	0.113621
O7	O	-1.297508	0.314728	0.113656
Zn8	Zn	-1.155103	0.314632	0.149677
Zn9	Zn	-1.184183	0.270784	-0.149386
O10	O	-1.181632	0.488493	0.113639
C11	C	-1.138125	0.067431	0.000141
C12	C	-1.112801	-0.070026	0.000131
C13	C	-0.994626	0.282618	0.000123
C14	C	-0.887005	0.268572	0.000109
C15	C	-1.344662	0.302797	0.000165
C16	C	-1.452283	0.316841	0.000170
C17	C	-0.689960	0.242901	0.000136
C18	C	-0.649322	0.342507	0.000143
C19	C	-0.539679	0.328223	0.000158
C20	C	-0.799612	0.257183	0.000121
C21	C	-1.201163	0.517984	0.000147
C22	C	-1.226487	0.655439	0.000148
N23	N	-1.135264	0.344556	0.353780
C24	C	-1.156563	0.721674	0.000139
C25	C	-1.182735	0.863742	0.000140
N26	N	-1.204029	0.240850	-0.353489
C27	C	-1.177273	0.281187	0.421565
C28	C	-1.162013	0.304228	0.578730
H29	H	-0.696875	0.438509	0.000137
C30	C	-1.071398	0.440875	0.432547
H31	H	-1.047010	0.477633	0.369638
H32	H	-1.109621	0.504133	0.488299
H33	H	-1.018139	0.400266	0.488280
H34	H	-0.642410	0.146907	0.000143
H35	H	-1.305731	0.703902	0.000109
C36	C	-1.267909	0.144540	0.567746
H37	H	-1.269804	0.141705	0.472447
H38	H	-1.240942	0.064320	0.591082
H39	H	-1.332410	0.168208	0.591104
H40	H	-1.077324	0.673203	0.000122
C41	C	-1.289790	0.929198	0.000152
H42	H	-1.330266	0.869219	0.000149
H43	H	-1.294880	0.990981	0.079306
H44	H	-1.310272	0.967761	-0.079014
C45	C	-1.005748	0.864515	0.000116
H46	H	-1.002198	0.777618	0.000125
H47	H	-0.982197	0.876162	-0.079041
H48	H	-0.966806	0.899371	0.079279
C49	C	-1.098144	0.400552	0.657491
H50	H	-1.073757	0.437310	0.594583
H51	H	-1.136368	0.463810	0.713243
H52	H	-1.044886	0.359942	0.713225
H53	H	-1.224532	0.209871	0.363247
