data_functionalizedCrystal
_audit_creation_method	'MofGen! by Chris Wilmer'
_symmetry_space_group_name_H-M	'P1'
_symmetry_Int_Tables_number	1
_symmetry_cell_setting	triclinic
loop_
_symmetry_equiv_pos_as_xyz
  x,y,z
_cell_length_a	12.759401
_cell_length_b	21.295417
_cell_length_c	12.759393
_cell_angle_alpha	89.961334
_cell_angle_beta	89.980718
_cell_angle_gamma	90.032032
loop_
_atom_site_label
_atom_site_type_symbol
_atom_site_fract_x
_atom_site_fract_y
_atom_site_fract_z
Zn1	Zn	1.606134	-0.250550	-0.593965
Zn2	Zn	1.605982	-0.355833	-0.418261
Zn3	Zn	1.430438	-0.250584	-0.418300
Zn4	Zn	1.430376	-0.355788	-0.593899
O5	O	1.518232	-0.303189	-0.506106
O6	O	1.753135	-0.264520	-0.570669
O7	O	1.582657	-0.341905	-0.271245
O8	O	1.453834	-0.162490	-0.441646
O9	O	1.753023	-0.341871	-0.441580
O10	O	1.582917	-0.162465	-0.570706
O11	O	1.453686	-0.264579	-0.271274
O12	O	1.283408	-0.264535	-0.441582
O13	O	1.453729	-0.341794	-0.740929
O14	O	1.283363	-0.341828	-0.570594
O15	O	1.582857	-0.264476	-0.740977
O16	O	1.582598	-0.443916	-0.441516
O17	O	1.453581	-0.443883	-0.570556
C18	C	1.245265	-0.303181	-0.506085
C19	C	1.128488	-0.303193	-0.506101
C20	C	1.073630	-0.343500	-0.573172
C21	C	0.963906	-0.343503	-0.573193
C22	C	0.963908	-0.262888	-0.439063
C23	C	1.073630	-0.262883	-0.439048
C24	C	0.813996	-0.366089	-0.697048
C25	C	0.759134	-0.406407	-0.764110
C26	C	0.794703	-0.467839	-0.780044
C27	C	0.885132	-0.488967	-0.728901
C28	C	0.939988	-0.448653	-0.661832
C29	C	0.904421	-0.387212	-0.645918
C30	C	1.223542	-0.240303	-0.315192
C31	C	1.278400	-0.199992	-0.248116
C32	C	1.242833	-0.138558	-0.232171
C33	C	1.152401	-0.117433	-0.283295
C34	C	1.097542	-0.157744	-0.350371
C35	C	1.133117	-0.219177	-0.366317
C36	C	1.518094	-0.466740	-0.506048
C37	C	1.518132	-0.536708	-0.506058
C38	C	1.585370	-0.569571	-0.438936
C39	C	1.585420	-0.635314	-0.438960
C40	C	1.518211	-0.668191	-0.506094
C41	C	1.450968	-0.635320	-0.573230
C42	C	1.450928	-0.569579	-0.573212
N43	N	1.426304	-0.771457	-0.514097
N44	N	1.426345	-0.833909	-0.514108
C45	C	1.518329	-0.866265	-0.506155
N46	N	1.610273	-0.833811	-0.498169
N47	N	1.610231	-0.771354	-0.498153
C48	C	1.518248	-0.739476	-0.506122
C49	C	1.585627	-0.970414	-0.439054
C50	C	1.585678	-1.036158	-0.439085
C51	C	1.451217	-1.036162	-0.573350
C52	C	1.451175	-0.970420	-0.573325
C53	C	1.518379	-0.937550	-0.506171
C54	C	1.792265	-0.303197	-0.506128
C55	C	1.909042	-0.303200	-0.506137
C56	C	1.518303	-0.303126	-0.780140
C57	C	1.518333	-0.303100	-0.896916
C58	C	1.518399	-0.138998	-0.506188
C59	C	1.518470	-0.069030	-0.506222
C60	C	1.451232	-0.262807	-1.061523
C61	C	1.451203	-0.262828	-0.951799
C62	C	1.585504	-0.343349	-0.951763
C63	C	1.585538	-0.343324	-1.061486
C64	C	1.413696	-0.188621	-0.801885
C65	C	1.346516	-0.148379	-0.747041
C66	C	1.244023	-0.138703	-0.782654
C67	C	1.208689	-0.169277	-0.873108
C68	C	1.275863	-0.209523	-0.927945
C69	C	1.378371	-0.219188	-0.892334
C70	C	1.623034	-0.417532	-1.211402
C71	C	1.690204	-0.457782	-1.266242
C72	C	1.792699	-0.467465	-1.230631
C73	C	1.828029	-0.436902	-1.140174
C74	C	1.760859	-0.396652	-1.085334
C75	C	1.658365	-0.386968	-1.120952
C76	C	1.518222	-0.303205	-0.233139
C77	C	1.518396	-0.303054	-0.116363
H78	H	1.013613	-0.465855	-0.620192
H79	H	1.352035	-0.217198	-0.206488
Cl80	Cl	1.956882	-0.449078	-1.095397
Cl81	Cl	1.669906	-0.393972	-0.882768
H82	H	1.539576	-0.409645	-1.240412
H83	H	1.252516	-0.290326	-0.328178
Cl84	Cl	1.079828	-0.157114	-0.917867
Cl85	Cl	0.929832	-0.566205	-0.748922
Cl86	Cl	0.725737	-0.518520	-0.864357
H87	H	1.640094	-0.542810	-0.384258
Cl88	Cl	1.877137	-0.518072	-1.299568
H89	H	1.118293	-0.376321	-0.627773
H90	H	0.785034	-0.316064	-0.684091
Cl91	Cl	1.366483	-0.676650	-0.657633
Cl92	Cl	0.894936	-0.212218	-0.354771
H93	H	1.789634	-0.371766	-1.011679
H94	H	1.023913	-0.140537	-0.392006
H95	H	1.247095	-0.234416	-1.001591
H96	H	1.640177	-0.662076	-0.384301
Cl97	Cl	1.107677	-0.040202	-0.263244
Cl98	Cl	1.311791	-0.087885	-0.147832
H99	H	1.396173	-0.542821	-0.627872
H100	H	1.661429	-0.482667	-1.339898
Cl101	Cl	1.670109	-0.929088	-0.354634
H102	H	1.396499	-1.062930	-0.628017
Cl103	Cl	1.670222	-1.077472	-0.354703
H104	H	1.396419	-0.943661	-0.627977
H105	H	1.396564	-0.230014	-1.106201
Cl106	Cl	1.159571	-0.088113	-0.713707
H107	H	1.375295	-0.123486	-0.673394
H108	H	0.685507	-0.389199	-0.805751
H109	H	1.497158	-0.196490	-0.772887
