data_functionalizedCrystal
_audit_creation_method	'MofGen! by Chris Wilmer'
_symmetry_space_group_name_H-M	'P1'
_symmetry_Int_Tables_number	1
_symmetry_cell_setting	triclinic
loop_
_symmetry_equiv_pos_as_xyz
  x,y,z
_cell_length_a	6.817900
_cell_length_b	19.551823
_cell_length_c	11.168136
_cell_angle_alpha	94.549227
_cell_angle_beta	108.508683
_cell_angle_gamma	101.663376
loop_
_atom_site_label
_atom_site_type_symbol
_atom_site_fract_x
_atom_site_fract_y
_atom_site_fract_z
V1	V	-4.075381	-0.096685	-0.394290
O2	O	-4.071120	0.004635	-0.386176
O3	O	-4.017763	-0.191700	-0.392177
O4	O	-4.052200	-0.095203	-0.565986
O5	O	-4.036445	-0.092530	-0.211164
V6	V	-4.556935	-0.084566	-0.372315
O7	O	-4.340957	-0.123271	-0.442492
O8	O	-4.741556	-0.057980	-0.324113
O9	O	-4.391346	0.010449	-0.374428
O10	O	-4.678592	-0.185886	-0.380429
O11	O	-4.713268	-0.088721	-0.555441
O12	O	-4.356909	-0.086048	-0.200619
C13	C	-3.859706	-0.214863	-0.386108
C14	C	-3.894052	-0.292539	-0.385525
C15	C	-4.092880	-0.332585	-0.391566
C16	C	-4.125159	-0.405571	-0.391031
C17	C	-3.958584	-0.438506	-0.384430
C18	C	-3.759731	-0.398452	-0.378396
C19	C	-3.727465	-0.325468	-0.378944
C20	C	-3.833594	-0.544992	-0.304360
C21	C	-3.865864	-0.617974	-0.303805
C22	C	-4.058099	-0.663612	-0.382747
C23	C	-4.218087	-0.636259	-0.462229
C24	C	-4.185821	-0.563276	-0.462776
C25	C	-3.993551	-0.517644	-0.383837
C26	C	-4.291941	-0.782798	-0.388210
C27	C	-4.324216	-0.855786	-0.387683
C28	C	-3.958776	-0.848664	-0.375035
C29	C	-3.926513	-0.775679	-0.375575
C30	C	-4.093100	-0.742750	-0.382157
C31	C	-3.903632	-0.091770	-0.607817
C32	C	-3.965902	-0.091186	-0.748184
C33	C	-4.167321	-0.094240	-0.816895
C34	C	-4.231684	-0.093638	-0.961971
C35	C	-4.212745	0.033608	-0.380494
C36	C	-4.157638	0.111284	-0.381084
C37	C	-4.168818	-0.089484	-0.158781
C38	C	-4.085787	-0.090063	-0.018413
H39	H	-4.228536	-0.305780	-0.396934
F40	F	-3.860247	-0.086652	-0.941223
F41	F	-4.336790	-0.448199	-0.397462
H42	H	-4.316088	-0.541008	-0.527495
H43	H	-4.374467	-0.673428	-0.526685
F44	F	-4.469244	-0.747752	-0.395237
H45	H	-3.841108	-0.088121	-0.796761
H46	H	-4.486134	-0.888392	-0.392611
H47	H	-4.404235	-0.096255	-1.021038
H48	H	-3.735597	-0.640238	-0.239079
F49	F	-3.515835	-0.282847	-0.372513
F50	F	-3.714885	-0.733056	-0.369136
F51	F	-3.781497	-0.883712	-0.368023
F52	F	-3.582454	-0.433505	-0.371377
F53	F	-3.628977	-0.496426	-0.220340
H54	H	-4.292110	-0.097297	-0.768314
