data_functionalizedCrystal
_audit_creation_method	'MofGen! by Chris Wilmer'
_symmetry_space_group_name_H-M	'P1'
_symmetry_Int_Tables_number	1
_symmetry_cell_setting	triclinic
loop_
_symmetry_equiv_pos_as_xyz
  x,y,z
_cell_length_a	12.759400
_cell_length_b	25.639243
_cell_length_c	12.759393
_cell_angle_alpha	89.974648
_cell_angle_beta	90.029805
_cell_angle_gamma	89.982675
loop_
_atom_site_label
_atom_site_type_symbol
_atom_site_fract_x
_atom_site_fract_y
_atom_site_fract_z
Zn1	Zn	-0.418140	-0.799361	0.594149
Zn2	Zn	-0.593856	-0.799307	0.418471
Zn3	Zn	-0.418200	-0.711923	0.418471
Zn4	Zn	-0.593786	-0.711919	0.594095
O5	O	-0.505995	-0.755627	0.506296
O6	O	-0.441454	-0.872519	0.570868
O7	O	-0.570609	-0.787694	0.271450
O8	O	-0.271171	-0.723546	0.441797
O9	O	-0.570551	-0.872479	0.441798
O10	O	-0.271127	-0.787786	0.570867
O11	O	-0.441555	-0.723493	0.271450
O12	O	-0.441487	-0.638757	0.441745
O13	O	-0.570432	-0.723539	0.741123
O14	O	-0.570490	-0.638754	0.570775
O15	O	-0.441386	-0.787782	0.741163
O16	O	-0.740868	-0.787690	0.441746
O17	O	-0.740816	-0.723487	0.570776
C18	C	-0.505988	-0.619785	0.506254
C19	C	-0.506010	-0.561671	0.506261
C20	C	-0.438879	-0.201323	0.573614
C21	C	-0.438878	-0.146718	0.573621
O22	O	-0.381782	-0.118494	0.630835
N23	N	-0.505991	-0.119388	0.506324
C24	C	-0.573102	-0.146665	0.439010
O25	O	-0.630187	-0.118405	0.381769
C26	C	-0.573097	-0.201268	0.438999
C27	C	-0.505987	-0.228596	0.506307
C28	C	-0.371774	-0.228650	0.640916
C29	C	-0.371776	-0.283251	0.640911
C30	C	-0.438884	-0.310524	0.573604
C31	C	-0.505990	-0.283196	0.506302
C32	C	-0.640202	-0.228544	0.371679
C33	C	-0.640191	-0.283151	0.371674
C34	C	-0.573081	-0.310479	0.438982
C35	C	-0.573101	-0.365070	0.438989
N36	N	-0.505987	-0.392400	0.506285
C37	C	-0.438879	-0.365127	0.573593
C38	C	-0.573107	-0.031994	0.439036
C39	C	-0.573118	0.022608	0.439052
C40	C	-0.438892	0.022551	0.573662
C41	C	-0.438887	-0.032052	0.573651
C42	C	-0.505994	-0.059325	0.506333
C43	C	-0.438890	-0.479792	0.573577
C44	C	-0.438902	-0.534398	0.573569
C45	C	-0.573124	-0.534336	0.438955
C46	C	-0.573116	-0.479735	0.438967
C47	C	-0.505991	-0.452465	0.506281
O48	O	-0.630165	-0.393328	0.381801
O49	O	-0.381795	-0.393394	0.630814
C50	C	-0.778963	-0.755596	0.506278
C51	C	-0.895739	-0.755631	0.506305
C52	C	-0.950489	-0.789066	0.573569
C53	C	-1.060213	-0.789096	0.573597
C54	C	-1.060428	-0.722253	0.439089
C55	C	-0.950706	-0.722221	0.439066
C56	C	-0.231962	-0.755672	0.506338
C57	C	-0.115185	-0.755692	0.506356
C58	C	-0.505895	-0.755666	0.780330
C59	C	-0.505852	-0.755683	0.897107
C60	C	-0.506003	0.108000	0.506339
C61	C	-0.506005	0.049886	0.506356
C62	C	-0.506020	-0.755618	0.233329
C63	C	-0.505767	-0.755703	0.116553
C64	C	-0.438646	-0.789137	0.951991
C65	C	-0.438601	-0.789146	1.061715
C66	C	-0.572975	-0.722245	1.061661
C67	C	-0.573014	-0.722234	0.951939
H68	H	-0.317127	-0.305496	0.695719
O69	O	-0.299390	-0.199238	0.713520
H70	H	-0.252739	-0.227422	0.760314
O71	O	-0.645503	-0.686147	0.892738
H72	H	-0.634235	-0.691755	0.807230
H73	H	-0.384238	-0.054299	0.628457
O74	O	-0.366208	-0.825210	0.892844
H75	H	-0.283742	-0.816256	0.913903
H76	H	-0.906126	-0.694992	0.384292
H77	H	-1.105196	-0.695053	0.384344
O78	O	-0.366515	-0.563872	0.646167
H79	H	-0.313014	-0.588750	0.599232
O80	O	-0.366122	-0.825231	1.120916
H81	H	-0.319436	-0.848489	1.064350
O82	O	-0.645411	-0.686169	1.120803
H83	H	-0.698857	-0.709564	1.170790
O84	O	-0.366500	-0.450382	0.646184
H85	H	-0.319851	-0.478565	0.692983
H86	H	-1.104785	-0.816321	0.628373
O87	O	-0.366494	0.051971	0.646250
H88	H	-0.377768	0.094530	0.634933
H89	H	-0.627763	-0.054196	0.384221
O90	O	-0.645502	0.052081	0.366458
H91	H	-0.692156	0.023937	0.319651
H92	H	-0.905737	-0.816270	0.628320
H93	H	-0.694850	-0.206304	0.316869
O94	O	-0.712573	-0.312567	0.299067
H95	H	-0.759239	-0.284388	0.252276
O96	O	-0.645496	-0.450256	0.366372
H97	H	-0.727977	-0.460726	0.384239
O98	O	-0.645494	-0.563756	0.366351
H99	H	-0.634203	-0.606315	0.377650
