data_functionalizedCrystal
_audit_creation_method	'MofGen! by Chris Wilmer'
_symmetry_space_group_name_H-M	'P1'
_symmetry_Int_Tables_number	1
_symmetry_cell_setting	triclinic
loop_
_symmetry_equiv_pos_as_xyz
  x,y,z
_cell_length_a	10.686220
_cell_length_b	10.686285
_cell_length_c	10.685880
_cell_angle_alpha	89.638885
_cell_angle_beta	89.641569
_cell_angle_gamma	90.345431
loop_
_atom_site_label
_atom_site_type_symbol
_atom_site_fract_x
_atom_site_fract_y
_atom_site_fract_z
Zn1	Zn	1.999728	-0.389334	-0.530460
Zn2	Zn	2.333061	-0.056000	-0.197127
Zn3	Zn	2.666394	0.277333	0.136207
Zn4	Zn	1.997195	-0.583279	-0.304810
Zn5	Zn	2.330529	-0.249946	0.028523
Zn6	Zn	2.663862	0.083387	0.361857
Zn7	Zn	1.774036	-0.391875	-0.336574
Zn8	Zn	2.107370	-0.058542	-0.003241
Zn9	Zn	2.440703	0.274791	0.330093
Zn10	Zn	1.805850	-0.614981	-0.527983
Zn11	Zn	2.139183	-0.281648	-0.194650
Zn12	Zn	2.472516	0.051685	0.138683
O13	O	1.894202	-0.494867	-0.424957
O14	O	2.227536	-0.161534	-0.091623
O15	O	2.560869	0.171799	0.241710
O16	O	2.173923	-0.400730	-0.488270
O17	O	2.507256	-0.067396	-0.154937
O18	O	2.840590	0.265937	0.178397
O19	O	1.953219	-0.545686	-0.134483
O20	O	2.286552	-0.212352	0.198851
O21	O	2.619886	0.120981	0.532184
O22	O	1.791721	-0.217001	-0.376623
O23	O	2.125054	0.116332	-0.043290
O24	O	2.458387	0.449666	0.290043
O25	O	2.172063	-0.543221	-0.322486
O26	O	2.505396	-0.209887	0.010847
O27	O	2.838729	0.123446	0.344181
O28	O	1.957535	-0.215133	-0.519070
O29	O	2.290868	0.118200	-0.185737
O30	O	2.624202	0.451533	0.147596
O31	O	1.789265	-0.405062	-0.157820
O32	O	2.122599	-0.071729	0.175514
O33	O	2.455932	0.261605	0.508847
O34	O	1.603725	-0.435802	-0.374222
O35	O	1.937058	-0.102469	-0.040888
O36	O	2.270392	0.230865	0.292445
O37	O	1.845942	-0.597252	-0.702853
O38	O	2.179275	-0.263919	-0.369519
O39	O	2.512608	0.069415	-0.036186
O40	O	1.627098	-0.599717	-0.514849
O41	O	1.960431	-0.266384	-0.181516
O42	O	2.293765	0.066950	0.151817
O43	O	1.988383	-0.431470	-0.704672
O44	O	2.321716	-0.098137	-0.371339
O45	O	2.655050	0.235197	-0.038005
O46	O	1.984067	-0.762022	-0.320085
O47	O	2.317400	-0.428689	0.013249
O48	O	2.650734	-0.095355	0.346582
O49	O	1.843486	-0.785313	-0.484049
O50	O	2.176819	-0.451980	-0.150716
O51	O	2.510153	-0.118647	0.182618
C52	C	1.570158	-0.521476	-0.447714
C53	C	1.903491	-0.188143	-0.114381
C54	C	2.236824	0.145190	0.218952
C55	C	1.431534	-0.532892	-0.457477
C56	C	1.764868	-0.199559	-0.124144
C57	C	2.098201	0.133775	0.209189
C58	C	1.916990	-0.818922	-0.398376
C59	C	2.250323	-0.485589	-0.065043
C60	C	2.583657	-0.152256	0.268291
C61	C	1.926856	-0.957548	-0.387038
C62	C	2.260190	-0.624215	-0.053705
C63	C	2.593523	-0.290881	0.279628
C64	C	2.219512	-0.468155	-0.402111
C65	C	2.552846	-0.134822	-0.068778
C66	C	2.886179	0.198511	0.264556
C67	C	2.358140	-0.456772	-0.392376
C68	C	2.691473	-0.123439	-0.059042
C69	C	3.024807	0.209894	0.274291
C70	C	1.920993	-0.517614	-0.750284
C71	C	2.254327	-0.184280	-0.416951
C72	C	2.587660	0.149053	-0.083618
C73	C	1.932410	-0.527307	-0.888919
C74	C	2.265744	-0.193974	-0.555586
C75	C	2.599077	0.139360	-0.222253
C76	C	1.871362	-0.169546	-0.451666
C77	C	2.204695	0.163787	-0.118333
C78	C	2.538028	0.497121	0.215000
C79	C	1.861628	-0.030914	-0.463048
C80	C	2.194962	0.302420	-0.129715
C81	C	2.528295	0.635753	0.203619
C82	C	1.867581	-0.472114	-0.100897
C83	C	2.200914	-0.138780	0.232436
C84	C	2.534247	0.194553	0.565769
C85	C	1.856381	-0.462049	0.037725
C86	C	2.189714	-0.128716	0.371059
C87	C	2.523047	0.204617	0.704392
H88	H	1.401355	-0.382871	-0.329169
H89	H	1.734688	-0.049538	0.004164
H90	H	2.068021	0.283796	0.337498
H91	H	1.798237	-0.987674	-0.536799
H92	H	2.131570	-0.654340	-0.203466
H93	H	2.464904	-0.321007	0.129868
Br94	Br	2.032502	-1.029618	-0.264088
Br95	Br	2.365835	-0.696284	0.069245
Br96	Br	2.699168	-0.362951	0.402579
H97	H	1.388314	-0.606806	-0.520679
H98	H	1.721647	-0.273472	-0.187346
H99	H	2.054981	0.059861	0.145987
H100	H	1.782545	-0.398767	-0.919018
H101	H	2.115878	-0.065434	-0.585685
H102	H	2.449211	0.267899	-0.252351
Br103	Br	2.055471	-0.632809	-0.961015
Br104	Br	2.388804	-0.299475	-0.627681
Br105	Br	2.722137	0.033858	-0.294348
