data_functionalizedCrystal
_audit_creation_method	'MofGen! by Chris Wilmer'
_symmetry_space_group_name_H-M	'P1'
_symmetry_Int_Tables_number	1
_symmetry_cell_setting	triclinic
loop_
_symmetry_equiv_pos_as_xyz
  x,y,z
_cell_length_a	13.185407
_cell_length_b	12.376457
_cell_length_c	16.974769
_cell_angle_alpha	97.695299
_cell_angle_beta	112.286478
_cell_angle_gamma	97.407600
loop_
_atom_site_label
_atom_site_type_symbol
_atom_site_fract_x
_atom_site_fract_y
_atom_site_fract_z
O1	O	1.463724	0.073697	0.221441
O2	O	1.963724	0.573697	0.721441
O3	O	1.147703	0.080909	0.142769
O4	O	1.647703	0.580909	0.642769
O5	O	1.312239	0.066786	0.296903
O6	O	1.812239	0.566786	0.796903
O7	O	1.299187	0.087820	0.067306
O8	O	1.799187	0.587820	0.567306
O9	O	1.271119	-0.117699	0.258413
O10	O	1.771119	0.382301	0.758413
O11	O	1.106583	-0.103576	0.104279
O12	O	1.606583	0.396424	0.604279
O13	O	1.422604	-0.110788	0.182951
O14	O	1.922604	0.389212	0.682951
Zn15	Zn	1.258065	-0.136473	0.137504
Zn16	Zn	1.758065	0.363527	0.637504
Zn17	Zn	1.312242	0.106594	0.188216
Zn18	Zn	1.812242	0.606594	0.688216
O19	O	1.258067	-0.096665	0.028816
O20	O	1.758067	0.403335	0.528816
C21	C	1.086664	-0.010602	0.115548
C22	C	1.586664	0.489398	0.615548
C23	C	0.966050	-0.008424	0.091792
C24	C	1.466050	0.491576	0.591792
N25	N	1.221098	-0.302361	0.102896
N26	N	1.721098	0.197639	0.602896
C27	C	0.672542	-0.029199	0.318512
C28	C	1.172542	0.470801	0.818512
C29	C	0.785864	-0.031253	0.340833
C30	C	1.285864	0.468747	0.840833
C31	C	0.830916	-0.025546	0.278575
C32	C	1.330916	0.474454	0.778575
C33	C	0.762635	-0.017784	0.193992
C34	C	1.262635	0.482216	0.693992
C35	C	0.649300	-0.015739	0.171667
C36	C	1.149300	0.484261	0.671667
C37	C	0.807674	-0.012085	0.131730
C38	C	1.307674	0.487915	0.631730
C39	C	0.739393	-0.004324	0.047147
C40	C	1.239393	0.495676	0.547147
C41	C	0.626069	-0.002278	0.024826
C42	C	1.126069	0.497722	0.524826
C43	C	0.581017	-0.007986	0.087084
C44	C	1.081017	0.492014	0.587084
C45	C	0.921009	-0.014131	0.154054
C46	C	1.421009	0.485869	0.654054
C47	C	0.897767	-0.000671	0.007209
C48	C	1.397767	0.499329	0.507209
C49	C	0.784445	0.001384	-0.015111
C50	C	1.284445	0.501384	0.484889
C51	C	1.435029	-0.675698	0.303182
C52	C	1.935029	-0.175698	0.803182
C53	C	1.460896	-0.559577	0.327403
C54	C	1.960896	-0.059577	0.827403
C55	C	1.400948	-0.495267	0.271278
C56	C	1.900948	0.004733	0.771278
C57	C	1.315130	-0.547089	0.190929
C58	C	1.815130	-0.047089	0.690929
C59	C	1.289266	-0.663221	0.166703
C60	C	1.789266	-0.163221	0.666703
C61	C	1.255185	-0.482791	0.134799
C62	C	1.755185	0.017209	0.634799
C63	C	1.169367	-0.534613	0.054449
C64	C	1.669367	-0.034613	0.554449
C65	C	1.143507	-0.650733	0.030227
C66	C	1.643507	-0.150733	0.530227
C67	C	1.203455	-0.715043	0.086352
C68	C	1.703455	-0.215043	0.586352
C69	C	1.281049	-0.366659	0.159025
C70	C	1.781049	0.133341	0.659025
C71	C	1.135286	-0.354182	0.022545
C72	C	1.635286	0.145818	0.522545
C73	C	1.109419	-0.470303	-0.001675
C74	C	1.609419	0.029697	0.498325
C75	C	1.483643	-0.019275	0.210172
C76	C	1.983643	0.480725	0.710172
C77	C	1.604259	-0.021446	0.233929
C78	C	2.104259	0.478554	0.733929
C79	C	1.290423	-0.028090	0.306425
C80	C	1.790423	0.471910	0.806425
C81	C	1.286666	-0.035935	0.392139
C82	C	1.786666	0.464065	0.892139
N83	N	1.349217	0.272480	0.222831
N84	N	1.849217	0.772480	0.722831
C85	C	1.263022	-0.090843	0.872347
C86	C	1.763022	0.409157	1.372347
C87	C	1.266562	-0.083477	0.791812
C88	C	1.766562	0.416523	1.291812
C89	C	1.290755	0.020771	0.772519
C90	C	1.790755	0.520771	1.272519
C91	C	1.311399	0.117660	0.833765
C92	C	1.811399	0.617660	1.333765
C93	C	1.307852	0.110293	0.914296
C94	C	1.807852	0.610293	1.414296
C95	C	1.303762	0.053587	0.533916
C96	C	1.803762	0.553587	1.033916
C97	C	1.307311	0.060946	0.453378
C98	C	1.807311	0.560946	0.953378
C99	C	1.262472	-0.140192	0.411430
C100	C	1.762472	0.359808	0.911430
C101	C	1.258933	-0.147549	0.491967
C102	C	1.758933	0.352451	0.991967
C103	C	1.279571	-0.050660	0.553203
C104	C	1.779571	0.449340	1.053203
N105	N	1.294377	0.028302	0.690201
N106	N	1.794377	0.528302	1.190201
N107	N	1.275941	-0.058193	0.635518
N108	N	1.775941	0.441807	1.135518
C109	C	1.279891	-0.001794	1.019296
C110	C	1.779891	0.498206	1.519296
C111	C	1.283668	0.006038	0.933586
C112	C	1.783668	0.506038	1.433586
H113	H	0.976593	-0.020449	0.222923
H114	H	1.476593	0.479551	0.722923
Cl115	Cl	0.954393	0.006496	-0.071065
Cl116	Cl	1.454393	0.506496	0.428935
H117	H	1.350923	-0.324476	0.224446
H118	H	1.850923	0.175524	0.724446
Cl119	Cl	1.232615	-0.221906	0.896593
Cl120	Cl	1.732615	0.278094	1.396593
Cl121	Cl	1.333801	0.232092	0.991281
Cl122	Cl	1.833801	0.732092	1.491281
H123	H	0.923189	-0.027218	0.296753
H124	H	1.423189	0.472782	0.796753
H125	H	1.086474	-0.301822	-0.023158
H126	H	1.586474	0.198178	0.476842
Cl127	Cl	1.035634	-0.715882	-0.070789
Cl128	Cl	1.535634	-0.215882	0.429211
Cl129	Cl	1.001537	-0.535462	-0.102684
Cl130	Cl	1.501537	-0.035462	0.397316
Cl131	Cl	1.240583	-0.205277	0.714821
Cl132	Cl	1.740583	0.294723	1.214821
H133	H	1.239237	-0.232439	0.507669
H134	H	1.739237	0.267561	1.007669
Cl135	Cl	0.615896	-0.036386	0.396766
Cl136	Cl	1.115896	0.463614	0.896766
H137	H	1.245668	-0.219073	0.361564
H138	H	1.745668	0.280927	0.861564
Cl139	Cl	0.540229	0.007466	-0.081510
Cl140	Cl	1.040229	0.507466	0.418490
H141	H	0.841450	-0.037577	0.409699
H142	H	1.341450	0.462423	0.909699
H143	H	1.331092	0.202541	0.818049
H144	H	1.831092	0.702541	1.318049
Cl145	Cl	1.337730	0.192011	0.429129
Cl146	Cl	1.837730	0.692011	0.929129
H147	H	1.483836	-0.728065	0.348869
H148	H	1.983836	-0.228065	0.848869
Cl149	Cl	0.438553	-0.005387	0.059031
Cl150	Cl	0.938553	0.494613	0.559031
Cl151	Cl	0.698594	0.011141	-0.121441
Cl152	Cl	1.198594	0.511141	0.378559
Cl153	Cl	1.329718	0.175391	0.610891
Cl154	Cl	1.829718	0.675391	1.110891
Cl155	Cl	1.568775	-0.494432	0.428407
Cl156	Cl	2.068775	0.005568	0.928407
Cl157	Cl	1.170930	-0.861030	0.055904
Cl158	Cl	1.670930	-0.361030	0.555904
Cl159	Cl	1.433465	-0.349285	0.301730
Cl160	Cl	1.933465	0.150715	0.801730
