data_functionalizedCrystal
_audit_creation_method	'MofGen! by Chris Wilmer'
_symmetry_space_group_name_H-M	'P1'
_symmetry_Int_Tables_number	1
_symmetry_cell_setting	triclinic
loop_
_symmetry_equiv_pos_as_xyz
  x,y,z
_cell_length_a	29.839131
_cell_length_b	12.827893
_cell_length_c	12.827885
_cell_angle_alpha	90.021189
_cell_angle_beta	89.963179
_cell_angle_gamma	89.960561
loop_
_atom_site_label
_atom_site_type_symbol
_atom_site_fract_x
_atom_site_fract_y
_atom_site_fract_z
Zn1	Zn	-0.178855	-1.597481	-0.590851
Zn2	Zn	0.321145	-1.097481	-0.090851
Zn3	Zn	-0.253992	-1.597295	-0.416090
Zn4	Zn	0.246008	-1.097295	0.083910
Zn5	Zn	-0.178875	-1.422722	-0.416119
Zn6	Zn	0.321125	-0.922722	0.083881
Zn7	Zn	-0.253956	-1.422628	-0.590784
Zn8	Zn	0.246044	-0.922628	-0.090784
O9	O	-0.216420	-1.510031	-0.503461
O10	O	0.283580	-1.010031	-0.003461
O11	O	-0.188829	-1.743692	-0.567684
O12	O	0.311171	-1.243692	-0.067684
O13	O	-0.244051	-1.574100	-0.269857
O14	O	0.255949	-1.074100	0.230143
O15	O	-0.116005	-1.446021	-0.439338
O16	O	0.383995	-0.946021	0.060662
O17	O	-0.244032	-1.743556	-0.439288
O18	O	0.255968	-1.243556	0.060712
O19	O	-0.115991	-1.574415	-0.567713
O20	O	0.384009	-1.074415	-0.067713
O21	O	-0.188862	-1.445841	-0.269879
O22	O	0.311138	-0.945841	0.230121
O23	O	-0.188827	-1.276473	-0.439273
O24	O	0.311173	-0.776473	0.060727
O25	O	-0.243971	-1.445861	-0.737029
O26	O	0.256029	-0.945861	-0.237029
O27	O	-0.243990	-1.276404	-0.567598
O28	O	0.256010	-0.776404	-0.067598
O29	O	-0.188794	-1.574324	-0.737078
O30	O	0.311206	-1.074324	-0.237078
O31	O	-0.316855	-1.574008	-0.439223
O32	O	0.183145	-1.074008	0.060777
O33	O	-0.316828	-1.445681	-0.567570
O34	O	0.183172	-0.945681	-0.067570
C35	C	-0.216407	-1.238522	-0.503432
C36	C	0.283593	-0.738522	-0.003432
C37	C	-0.216412	-1.122368	-0.503444
C38	C	0.283588	-0.622368	-0.003444
C39	C	-0.333142	-1.509843	-0.503409
C40	C	0.166858	-1.009843	-0.003409
C41	C	-0.383077	-1.509858	-0.503422
C42	C	0.116923	-1.009858	-0.003422
C43	C	-0.692721	-1.576973	-0.436728
C44	C	-0.192721	-1.076973	0.063272
C45	C	-0.880394	-1.577102	-0.436769
C46	C	-0.380394	-1.077102	0.063231
O47	O	-0.904660	-1.634016	-0.380024
O48	O	-0.404660	-1.134016	0.119976
N49	N	-0.903862	-1.510248	-0.503540
N50	N	-0.403862	-1.010248	-0.003540
C51	C	-0.880408	-1.443362	-0.570310
C52	C	-0.380408	-0.943362	-0.070310
O53	O	-0.904675	-1.386509	-0.627111
O54	O	-0.404675	-0.886509	-0.127111
C55	C	-0.692736	-1.443239	-0.570274
C56	C	-0.192736	-0.943239	-0.070274
C57	C	-0.669271	-1.510090	-0.503491
C58	C	-0.169271	-1.010090	-0.003491
C59	C	-0.669256	-1.643819	-0.369952
C60	C	-0.169256	-1.143819	0.130048
C61	C	-0.622341	-1.643782	-0.369938
C62	C	-0.122341	-1.143782	0.130062
C63	C	-0.598890	-1.576899	-0.436701
C64	C	-0.098890	-1.076899	0.063299
C65	C	-0.622355	-1.510053	-0.503478
C66	C	-0.122355	-1.010053	-0.003478
C67	C	-0.669283	-1.376359	-0.637049
C68	C	-0.169283	-0.876359	-0.137049
C69	C	-0.622362	-1.376336	-0.637036
C70	C	-0.122362	-0.876336	-0.137036
C71	C	-0.598897	-1.443187	-0.570253
C72	C	-0.098897	-0.943187	-0.070253
C73	C	-0.551990	-1.443133	-0.570227
C74	C	-0.051990	-0.943133	-0.070227
N75	N	-0.528522	-1.509987	-0.503456
N76	N	-0.028522	-1.009987	-0.003456
C77	C	-0.551972	-1.576870	-0.436693
C78	C	-0.051972	-1.076870	0.063307
C79	C	-0.978939	-1.443430	-0.570323
C80	C	-0.478939	-0.943430	-0.070323
C81	C	-1.025857	-1.443459	-0.570331
C82	C	-0.525857	-0.943459	-0.070331
C83	C	-1.025839	-1.577201	-0.436791
C84	C	-0.525839	-1.077201	0.063209
C85	C	-0.978921	-1.577165	-0.436778
C86	C	-0.478921	-1.077165	0.063222
C87	C	-0.955471	-1.510284	-0.503552
C88	C	-0.455471	-1.010284	-0.003552
C89	C	-0.453447	-1.576787	-0.436669
C90	C	0.046553	-1.076787	0.063331
C91	C	-0.406527	-1.576741	-0.436659
C92	C	0.093473	-1.076741	0.063341
C93	C	-0.406548	-1.443003	-0.570202
C94	C	0.093452	-0.943003	-0.070202
C95	C	-0.453464	-1.443045	-0.570210
C96	C	0.046536	-0.943045	-0.070210
C97	C	-0.476912	-1.509945	-0.503440
C98	C	0.023088	-1.009945	-0.003440
O99	O	-0.527695	-1.386257	-0.626951
O100	O	-0.027695	-0.886257	-0.126951
O101	O	-0.527698	-1.633731	-0.379917
O102	O	-0.027698	-1.133731	0.120083
C103	C	-0.739637	-1.577010	-0.436742
C104	C	-0.239637	-1.077010	0.063258
C105	C	-0.763102	-1.510164	-0.503518
C106	C	-0.263102	-1.010164	-0.003518
C107	C	-0.739651	-1.443281	-0.570281
C108	C	-0.239651	-0.943281	-0.070281
C109	C	-0.810020	-1.510193	-0.503526
C110	C	-0.310020	-1.010193	-0.003526
C111	C	-0.833470	-1.577076	-0.436763
C112	C	-0.333470	-1.077076	0.063237
C113	C	-0.810002	-1.643930	-0.369992
C114	C	-0.310002	-1.143930	0.130008
C115	C	-0.763087	-1.643893	-0.369979
C116	C	-0.263087	-1.143893	0.130021
C117	C	-0.763119	-1.376427	-0.637052
C118	C	-0.263119	-0.876427	-0.137052
C119	C	-0.810034	-1.376468	-0.637059
C120	C	-0.310034	-0.876468	-0.137059
C121	C	-0.833485	-1.443351	-0.570296
C122	C	-0.333485	-0.943351	-0.070296
C123	C	-0.216377	-1.510103	-0.776031
C124	C	0.283623	-1.010103	-0.276031
C125	C	-0.216358	-1.510133	-0.892184
C126	C	0.283642	-1.010133	-0.392184
C127	C	-0.099241	-1.510249	-0.503536
C128	C	0.400759	-1.010249	-0.003536
C129	C	-0.049307	-1.510342	-0.503568
C130	C	0.450693	-1.010342	-0.003568
C131	C	-0.243750	-1.070577	-0.566844
C132	C	0.256250	-0.570577	-0.066844
C133	C	-0.243757	-0.950527	-0.566859
C134	C	0.256243	-0.450527	-0.066859
C135	C	-0.216429	-0.782602	-0.503482
C136	C	0.283571	-0.282602	-0.003482
C137	C	-0.216424	-0.898755	-0.503470
C138	C	0.283576	-0.398755	-0.003470
C139	C	-0.243631	-1.446618	-1.063989
C140	C	0.256369	-0.946618	-0.563989
C141	C	-0.243650	-1.446585	-0.943939
C142	C	0.256350	-0.946585	-0.443939
C143	C	-0.216430	-1.510021	-0.231951
C144	C	0.283570	-1.010021	0.268049
C145	C	-0.216322	-1.510193	-0.115798
C146	C	0.283678	-1.010193	0.384202
H147	H	-0.387423	-1.631178	-0.382273
H148	H	0.112577	-1.131178	0.117727
H149	H	-1.044958	-1.389013	-0.624702
H150	H	-0.544958	-0.889013	-0.124702
F151	F	-0.694207	-1.715013	-0.298889
F152	F	-0.194207	-1.215013	0.201111
F153	F	-0.478438	-1.371876	-0.641267
F154	F	0.021562	-0.871876	-0.141267
F155	F	-0.274213	-1.375446	-0.885707
F156	F	0.225787	-0.875446	-0.385707
H157	H	-0.472532	-1.631265	-0.382301
H158	H	0.027468	-1.131265	0.117699
H159	H	-0.266994	-1.392211	-1.108510
H160	H	0.233006	-0.892211	-0.608510
F161	F	-0.597373	-1.714947	-0.298870
F162	F	-0.097373	-1.214947	0.201130
H163	H	-0.959818	-1.631602	-0.382399
H164	H	-0.459818	-1.131602	0.117601
F165	F	-0.834968	-1.715109	-0.298935
F166	F	-0.334968	-1.215109	0.201065
H167	H	-0.192979	-1.564568	-0.936732
H168	H	0.307021	-1.064568	-0.436732
F169	F	-0.953988	-1.372239	-0.641396
F170	F	-0.453988	-0.872239	-0.141396
H171	H	-0.193019	-0.943287	-0.449184
H172	H	0.306981	-0.443287	0.050816
F173	F	-0.835003	-1.305309	-0.708141
F174	F	-0.335003	-0.805309	-0.208141
H175	H	-1.044941	-1.631660	-0.382430
H176	H	-0.544941	-1.131660	0.117570
F177	F	-0.274339	-1.128784	-0.637777
F178	F	0.225661	-0.628784	-0.137777
F179	F	-0.185779	-1.581301	-1.057612
F180	F	0.314221	-1.081301	-0.557612
F181	F	-0.694246	-1.305215	-0.708138
F182	F	-0.194246	-0.805215	-0.208138
F183	F	-0.597408	-1.305151	-0.708110
F184	F	-0.097408	-0.805151	-0.208110
H185	H	-0.387448	-1.388545	-0.624557
H186	H	0.112552	-0.888545	-0.124557
H187	H	-0.193010	-1.077832	-0.449180
H188	H	0.306990	-0.577832	0.050820
F189	F	-0.274352	-0.892314	-0.637803
F190	F	0.225648	-0.392314	-0.137803
H191	H	-0.743985	-1.698329	-0.315598
H192	H	-0.243985	-1.198329	0.184402
H193	H	-0.744029	-1.321964	-0.691420
H194	H	-0.244029	-0.821964	-0.191420
