data_functionalizedCrystal
_audit_creation_method	'MofGen! by Chris Wilmer'
_symmetry_space_group_name_H-M	'P1'
_symmetry_Int_Tables_number	1
_symmetry_cell_setting	triclinic
loop_
_symmetry_equiv_pos_as_xyz
  x,y,z
_cell_length_a	6.817900
_cell_length_b	7.190339
_cell_length_c	11.168136
_cell_angle_alpha	92.004262
_cell_angle_beta	71.491317
_cell_angle_gamma	119.388276
loop_
_atom_site_label
_atom_site_type_symbol
_atom_site_fract_x
_atom_site_fract_y
_atom_site_fract_z
V1	V	4.171295	0.295127	-0.392807
O2	O	4.066522	-0.014149	-0.386248
O3	O	4.207934	0.585155	-0.389237
O4	O	4.146643	0.290601	-0.564526
O5	O	4.128237	0.282443	-0.209745
V6	V	4.640826	0.258132	-0.371018
O7	O	4.463244	0.376277	-0.440601
O8	O	4.799073	0.176981	-0.323224
O9	O	4.380980	-0.031896	-0.374588
O10	O	4.862995	0.567408	-0.377577
O11	O	4.801280	0.270815	-0.554080
O12	O	4.442271	0.262657	-0.199299
C13	C	3.994670	0.280122	-0.606409
C14	C	4.056361	0.278341	-0.746785
C15	C	4.260809	0.287664	-0.815449
C16	C	4.324574	0.285823	-0.960535
C17	C	4.072872	0.655860	-0.382818
C18	C	4.186369	0.897419	-0.381013
C19	C	4.257587	0.273143	-0.157409
C20	C	4.175131	0.274913	-0.017032
H21	H	4.388630	0.296993	-0.766822
H22	H	3.928525	0.268983	-0.795410
H23	H	4.499722	0.293814	-1.019562
H24	H	3.999992	0.266946	-0.958015
