data_functionalizedCrystal
_audit_creation_method	'MofGen! by Chris Wilmer'
_symmetry_space_group_name_H-M	'P1'
_symmetry_Int_Tables_number	1
_symmetry_cell_setting	triclinic
loop_
_symmetry_equiv_pos_as_xyz
  x,y,z
_cell_length_a	23.196402
_cell_length_b	14.560438
_cell_length_c	14.560438
_cell_angle_alpha	60.000905
_cell_angle_beta	89.999423
_cell_angle_gamma	59.999402
loop_
_atom_site_label
_atom_site_type_symbol
_atom_site_fract_x
_atom_site_fract_y
_atom_site_fract_z
Zr1	Zr	0.555361	1.005291	-0.120538
O2	O	0.463309	1.196891	-0.267178
O3	O	0.583580	0.813690	-0.075587
O4	O	0.583577	1.005294	-0.267188
O5	O	0.463314	1.005285	0.075564
O6	O	0.678447	1.005296	-0.267193
O7	O	0.463312	1.005287	-0.075577
O8	O	0.678452	0.662552	0.075545
O9	O	0.463309	1.348029	-0.267175
O10	O	0.666415	0.892500	-0.056418
O11	O	0.595617	0.892496	0.056381
O12	O	0.595614	1.118085	-0.169204
O13	O	0.524815	1.118081	-0.056405
Zr14	Zr	0.706672	1.005290	0.120506
Zr15	Zr	0.706668	1.005294	-0.120546
Zr16	Zr	0.555365	1.005286	0.120514
Zr17	Zr	0.555361	1.246338	-0.120533
Zr18	Zr	0.706671	0.764243	0.120501
O19	O	0.678453	1.196891	0.075555
O20	O	0.678447	1.196897	-0.267190
O21	O	0.463314	1.196886	0.075567
O22	O	0.798724	0.813689	0.267146
O23	O	0.798718	0.813695	-0.075599
O24	O	0.583585	0.813684	0.267158
O25	O	0.798719	1.005296	-0.075596
O26	O	0.678456	1.005287	0.267156
O27	O	0.583586	1.005285	0.267161
O28	O	0.798721	1.005293	0.075545
O29	O	0.583578	1.348032	-0.267182
O30	O	0.678455	0.662548	0.267150
O31	O	0.798724	0.662551	0.267143
O32	O	0.798721	0.662555	0.075539
O33	O	0.463312	1.348026	-0.075571
O34	O	0.583581	1.348029	-0.075577
O35	O	0.666419	0.892496	0.169172
O36	O	0.737218	0.892499	0.056373
O37	O	0.666416	1.118085	-0.056413
O38	O	0.595617	1.118081	0.056385
C39	C	0.631016	0.703777	-0.000022
C40	C	0.631016	0.601446	-0.000024
C41	C	0.667971	0.553371	-0.058904
C42	C	0.667973	0.457212	-0.058893
C43	C	0.594061	0.457213	0.058879
C44	C	0.594063	0.553364	0.058874
C45	C	0.441755	1.005286	-0.000006
C46	C	0.377521	1.005284	-0.000002
C47	C	0.384304	0.887535	0.058861
C48	C	0.323950	0.887533	0.058865
C49	C	0.256813	1.005287	-0.000015
C50	C	0.250033	1.123053	-0.058880
C51	C	0.310387	1.123051	-0.058874
C52	C	0.132882	1.095504	-0.098644
C53	C	0.072531	1.095501	-0.098654
C54	C	0.070659	1.005297	-0.000032
C55	C	0.129153	0.915075	0.098598
C56	C	0.189507	0.915073	0.098604
C57	C	0.191365	1.005302	-0.000027
C58	C	0.012001	0.887538	0.058841
C59	C	-0.048356	0.887541	0.058849
C60	C	-0.122273	1.123064	-0.058907
C61	C	-0.061916	1.123057	-0.058904
C62	C	0.005219	1.005291	-0.000033
C63	C	0.820278	1.005295	-0.000027
C64	C	0.884511	1.005297	-0.000030
C65	C	0.631012	1.005295	-0.301536
C66	C	0.631010	1.005297	-0.403869
C67	C	0.631017	1.306804	-0.000010
C68	C	0.631017	1.409135	-0.000009
C69	C	0.594053	1.123048	-0.510818
C70	C	0.594061	1.123042	-0.606967
C71	C	0.667984	0.887523	-0.489203
C72	C	0.667980	0.887531	-0.393056
C73	C	0.631021	1.005285	0.301503
C74	C	0.631023	1.005284	0.403836
C75	C	0.820277	0.703781	-0.000032
C76	C	0.884511	0.601452	-0.000038
C77	C	0.631021	0.703771	0.301498
C78	C	0.631022	0.601439	0.403829
C79	C	0.820282	0.703776	0.301487
C80	C	0.884517	0.601445	0.403815
C81	C	0.441750	1.306805	-0.301519
C82	C	0.377515	1.409136	-0.403847
C83	C	0.441755	1.306799	0.000000
C84	C	0.377522	1.409129	0.000006
C85	C	0.631012	1.306809	-0.301530
C86	C	0.631010	1.409142	-0.403861
C87	C	0.877718	0.553397	-0.058926
C88	C	0.938066	0.457261	-0.058954
C89	C	1.005207	0.409175	-0.000086
C90	C	1.011999	0.457239	0.058804
C91	C	0.951651	0.553380	0.058825
C92	C	0.951645	0.553391	0.392989
C93	C	1.012007	0.457253	0.489127
C94	C	1.005239	0.409165	0.596090
C95	C	0.938104	0.457228	0.606914
C96	C	0.877744	0.553371	0.510776
C97	C	0.310387	1.457201	-0.393021
C98	C	0.250026	1.553369	-0.489160
C99	C	0.256794	1.601462	-0.596122
C100	C	0.323929	1.553393	-0.606946
C101	C	0.384289	1.457234	-0.510809
C102	C	0.384315	1.457194	0.058884
C103	C	0.323967	1.553357	0.058885
C104	C	0.256826	1.601446	0.000014
C105	C	0.250034	1.553377	-0.058872
C106	C	0.310381	1.457223	-0.058879
C107	C	0.667980	0.553361	0.510780
C108	C	0.667974	0.457217	0.606927
C109	C	0.594050	0.457235	0.489158
C110	C	0.594053	0.553383	0.393013
H111	H	0.698061	0.592515	-0.106860
H112	H	0.438979	1.418047	0.106831
H113	H	0.957192	0.592494	0.106785
H114	H	0.563969	0.592505	0.106826
H115	H	0.563952	0.418094	0.480366
H116	H	0.127639	0.841601	0.178898
H117	H	0.304863	1.418049	-0.305935
H118	H	0.563974	0.418055	0.106830
O119	O	0.958104	0.600200	0.289008
C120	C	0.890440	0.695391	0.206460
H121	H	0.850435	0.679594	0.243925
H122	H	0.875059	0.795960	0.176391
C123	C	0.940479	0.704259	0.060280
C124	C	0.891345	0.684851	0.106294
H125	H	0.941037	0.697763	-0.001509
H126	H	0.986066	0.640131	0.115894
H127	H	0.927656	0.788066	0.035232
H128	H	0.904174	0.601040	0.131354
H129	H	0.845760	0.748965	0.050682
H130	H	0.195368	1.592491	-0.480325
H131	H	1.066673	0.418074	0.106732
H132	H	1.054340	0.330890	-0.000111
O133	O	0.703893	0.773024	-0.289240
C134	C	0.736534	0.669079	-0.300312
H135	H	0.707550	0.703587	-0.386107
H136	H	0.793897	0.632876	-0.292433
C137	C	0.769450	0.515442	-0.101777
C138	C	0.733848	0.557823	-0.207149
H139	H	0.767797	0.446811	-0.044307
H140	H	0.747462	0.585470	-0.094316
H141	H	0.817250	0.485282	-0.095227
H142	H	0.686048	0.587997	-0.213702
H143	H	0.755829	0.487796	-0.214609
O144	O	0.330699	1.599847	0.116196
C145	C	0.402902	1.536785	0.168142
H146	H	0.435074	1.439335	0.179783
H147	H	0.420695	1.599825	0.112973
C148	C	0.374762	1.634072	0.269384
C149	C	0.414276	1.514376	0.283691
H150	H	0.381779	1.620253	0.340658
H151	H	0.326118	1.676562	0.234385
H152	H	0.389594	1.686593	0.223407
H153	H	0.399437	1.461864	0.329656
H154	H	0.462918	1.471877	0.318701
H155	H	0.438964	0.791639	0.106791
H156	H	0.304840	1.418091	-0.106821
O157	O	0.246250	0.827395	0.194517
C158	C	0.231671	0.747751	0.281561
H159	H	0.172099	0.800477	0.261658
H160	H	0.254871	0.653395	0.289057
C161	C	0.338048	0.652227	0.417846
C162	C	0.264880	0.716991	0.393406
H163	H	0.358535	0.633246	0.486838
H164	H	0.347872	0.705881	0.359203
H165	H	0.357372	0.573604	0.424086
H166	H	0.245557	0.795618	0.387152
H167	H	0.255054	0.663349	0.452050
H168	H	0.932604	0.418060	0.694016
O169	O	1.077163	0.410670	0.478398
C170	C	1.070185	0.473747	0.363373
H171	H	1.016324	0.513355	0.312122
H172	H	1.075126	0.557264	0.335025
C173	C	1.194802	0.327681	0.408196
C174	C	1.128650	0.376318	0.345250
H175	H	1.230867	0.267585	0.397016
H176	H	1.199504	0.285187	0.485691
H177	H	1.198909	0.397289	0.384566
H178	H	1.124541	0.306713	0.368890
H179	H	1.123949	0.418799	0.267758
O180	O	0.703829	0.773245	-0.478901
C181	C	0.695882	0.798478	-0.586693
H182	H	0.645950	0.899663	-0.650405
H183	H	0.743613	0.792932	-0.611251
C184	C	0.751502	0.572572	-0.506946
C185	C	0.690172	0.696845	-0.585197
H186	H	0.747983	0.509878	-0.506024
H187	H	0.756859	0.555571	-0.434325
H188	H	0.791272	0.567969	-0.527421
H189	H	0.650405	0.701452	-0.564714
H190	H	0.684808	0.713845	-0.657816
O191	O	0.449549	1.410458	-0.521133
C192	C	0.501381	1.315255	-0.413353
H193	H	0.477874	1.331005	-0.349596
H194	H	0.520271	1.214689	-0.388877
C195	C	0.593110	1.306489	-0.493117
C196	C	0.564240	1.325840	-0.414810
H197	H	0.631886	1.313013	-0.494015
H198	H	0.558191	1.370625	-0.565731
H199	H	0.608846	1.222684	-0.472711
H200	H	0.548497	1.409649	-0.435225
H201	H	0.599159	1.261718	-0.342200
H202	H	0.698066	0.418071	-0.106837
H203	H	0.823087	0.592484	0.519607
O204	O	0.198134	1.694895	-0.000135
C205	C	0.137412	1.727023	-0.064699
H206	H	0.151249	1.700534	-0.126964
H207	H	0.117084	1.670818	-0.006726
C208	C	0.062853	1.906357	-0.052952
C209	C	0.079847	1.873833	-0.129434
H210	H	0.027342	1.996915	-0.092880
H211	H	0.103762	1.884710	-0.009451
H212	H	0.045917	1.859509	-0.004647
H213	H	0.096791	1.920668	-0.177728
H214	H	0.038939	1.895491	-0.172945
O215	O	0.184848	1.599865	-0.115964
C216	C	0.177100	1.497270	-0.072640
H217	H	0.231427	1.401084	-0.029549
H218	H	0.148274	1.495980	-0.009058
C219	C	0.067464	1.635014	-0.222341
C220	C	0.134190	1.516876	-0.169423
H221	H	0.040992	1.647109	-0.282039
H222	H	0.072682	1.704136	-0.251527
H223	H	0.043452	1.633924	-0.169345
H224	H	0.158204	1.517974	-0.222416
H225	H	0.128975	1.447754	-0.140248
H226	H	0.207639	1.679761	-0.674394
H227	H	1.054394	0.330879	0.674362
O228	O	0.703813	0.410412	0.710903
C229	C	0.695898	0.315225	0.793448
H230	H	0.645980	0.331020	0.755976
H231	H	0.743646	0.214654	0.823525
C232	C	0.751490	0.306367	0.939630
C233	C	0.690177	0.325773	0.893609
H234	H	0.747964	0.312868	1.001417
H235	H	0.756826	0.370492	0.884019
H236	H	0.791274	0.222558	0.964685
H237	H	0.650395	0.409586	0.868543
H238	H	0.684834	0.261662	0.949219
H239	H	0.698080	0.592489	0.519592
H240	H	0.563954	0.592532	0.305923
H241	H	0.329473	0.791644	0.106799
O242	O	0.812449	0.600203	-0.116021
C243	C	0.760630	0.695393	-0.103414
H244	H	0.784147	0.679597	-0.023886
H245	H	0.741754	0.795963	-0.179479
C246	C	0.668875	0.704257	-0.191996
C247	C	0.697757	0.684850	-0.094314
H248	H	0.630090	0.697759	-0.186388
H249	H	0.703785	0.640130	-0.200494
H250	H	0.653150	0.788065	-0.255373
H251	H	0.713489	0.601038	-0.030941
H252	H	0.662848	0.748963	-0.085805
H253	H	0.024909	1.168962	-0.178965
O254	O	0.077165	0.773030	0.116139
C255	C	0.070207	0.669096	0.168085
H256	H	0.016348	0.703622	0.179737
H257	H	0.075157	0.632880	0.112911
C258	C	0.194826	0.515442	0.269307
C259	C	0.128677	0.557845	0.283627
H260	H	0.230895	0.446814	0.340577
H261	H	0.199515	0.585463	0.234307
H262	H	0.198941	0.485271	0.223325
H263	H	0.124560	0.588030	0.329596
H264	H	0.123990	0.487826	0.318638
H265	H	-0.042827	0.791651	0.106790
O266	O	-0.068627	1.237557	-0.116195
C267	C	-0.140824	1.341494	-0.168141
H268	H	-0.173012	1.306973	-0.179803
H269	H	-0.158609	1.377702	-0.112962
C270	C	-0.112651	1.495145	-0.269345
C271	C	-0.152184	1.452749	-0.283677
H272	H	-0.119658	1.563776	-0.340611
H273	H	-0.064010	1.425122	-0.234345
H274	H	-0.127476	1.525310	-0.223359
H275	H	-0.137352	1.422570	-0.329650
H276	H	-0.200822	1.522770	-0.318688
H277	H	-0.176935	1.218942	-0.106849
O278	O	0.931585	0.410468	-0.116131
C279	C	0.999241	0.315278	-0.103516
H280	H	1.039254	0.331064	-0.081858
H281	H	1.014623	0.214708	-0.033020
C282	C	0.949173	0.306438	-0.240820
C283	C	0.998316	0.325834	-0.214229
H284	H	0.948603	0.312943	-0.309111
H285	H	0.903591	0.370565	-0.249317
H286	H	0.961997	0.222630	-0.182065
H287	H	0.985487	0.409646	-0.272977
H288	H	1.043896	0.261720	-0.205745
O289	O	0.134792	1.182855	-0.194535
C290	C	0.190556	1.116133	-0.224997
H291	H	0.231723	1.013939	-0.147481
H292	H	0.169121	1.110024	-0.290700
C293	C	0.174254	1.315067	-0.369435
C294	C	0.224819	1.189554	-0.274226
H295	H	0.195388	1.360358	-0.399807
H296	H	0.136683	1.360020	-0.348916
H297	H	0.156396	1.309959	-0.424176
H298	H	0.242670	1.194664	-0.219482
H299	H	0.262394	1.144603	-0.294737
O300	O	0.303674	1.237555	-0.116159
C301	C	0.231477	1.341493	-0.168101
H302	H	0.199287	1.306976	-0.179763
H303	H	0.213695	1.377698	-0.112920
C304	C	0.259652	1.495142	-0.269305
C305	C	0.220116	1.452751	-0.283637
H306	H	0.252644	1.563774	-0.340571
H307	H	0.308292	1.425118	-0.234308
H308	H	0.244830	1.525304	-0.223316
H309	H	0.234945	1.422575	-0.329613
H310	H	0.171478	1.522773	-0.318645
O311	O	0.558136	1.237557	-0.521518
C312	C	0.525505	1.341484	-0.636537
H313	H	0.554497	1.306955	-0.687809
H314	H	0.468142	1.377690	-0.664869
C315	C	0.492577	1.495154	-0.591670
C316	C	0.528189	1.452747	-0.654643
H317	H	0.494229	1.563789	-0.602840
H318	H	0.514558	1.425138	-0.514179
H319	H	0.444778	1.525316	-0.615288
H320	H	0.575989	1.422571	-0.631015
H321	H	0.506216	1.522762	-0.732130
O322	O	0.558222	1.237309	-0.710942
C323	C	0.566140	1.212058	-0.793489
H324	H	0.616057	1.110857	-0.756018
H325	H	0.518391	1.217634	-0.823570
C326	C	0.510548	1.437946	-0.939667
C327	C	0.571861	1.313653	-0.893647
H328	H	0.514074	1.500616	-1.001451
H329	H	0.505211	1.454960	-0.884054
H330	H	0.470764	1.442574	-0.964724
H331	H	0.611642	1.309021	-0.868577
H332	H	0.577205	1.296640	-0.949258
H333	H	0.195366	1.218929	-0.106819
H334	H	0.329431	1.592563	-0.694046
