data_functionalizedCrystal
_audit_creation_method	'MofGen! by Chris Wilmer'
_symmetry_space_group_name_H-M	'P1'
_symmetry_Int_Tables_number	1
_symmetry_cell_setting	triclinic
loop_
_symmetry_equiv_pos_as_xyz
  x,y,z
_cell_length_a	18.215407
_cell_length_b	13.897447
_cell_length_c	18.215407
_cell_angle_alpha	90.009321
_cell_angle_beta	90.010236
_cell_angle_gamma	90.019978
loop_
_atom_site_label
_atom_site_type_symbol
_atom_site_fract_x
_atom_site_fract_y
_atom_site_fract_z
Zn1	Zn	1.125030	-0.384163	0.416130
Zn2	Zn	1.625030	0.115837	0.916130
Zn3	Zn	1.124970	-0.545428	0.293070
Zn4	Zn	1.624970	-0.045428	0.793070
Zn5	Zn	1.001983	-0.384150	0.293078
Zn6	Zn	1.501983	0.115850	0.793078
Zn7	Zn	1.001940	-0.545419	0.416095
Zn8	Zn	1.501940	-0.045419	0.916095
O9	O	1.063481	-0.464790	0.354593
O10	O	1.563481	0.035210	0.854593
O11	O	1.228006	-0.405565	0.399818
O12	O	1.728006	0.094435	0.899818
O13	O	1.108649	-0.524033	0.190087
O14	O	1.608649	-0.024033	0.690087
O15	O	1.018348	-0.249170	0.309419
O16	O	1.518348	0.250830	0.809419
O17	O	1.227962	-0.524046	0.309406
O18	O	1.727962	-0.024046	0.809406
O19	O	1.108750	-0.249180	0.399825
O20	O	1.608750	0.250820	0.899825
O21	O	1.018291	-0.405543	0.190093
O22	O	1.518291	0.094457	0.690093
O23	O	0.898993	-0.405534	0.309385
O24	O	1.398993	0.094466	0.809385
O25	O	1.018275	-0.524029	0.519084
O26	O	1.518275	-0.024029	1.019084
O27	O	0.898961	-0.524017	0.399765
O28	O	1.398961	-0.024017	0.899765
O29	O	1.108708	-0.405555	0.519110
O30	O	1.608708	0.094445	1.019110
O31	O	1.108607	-0.680409	0.309372
O32	O	1.608607	-0.180409	0.809372
O33	O	1.018217	-0.680402	0.399758
O34	O	1.518217	-0.180402	0.899758
C35	C	0.872274	-0.464774	0.354572
C36	C	1.372274	0.035226	0.854572
C37	C	0.790475	-0.464790	0.354581
C38	C	1.290475	0.035210	0.854581
C39	C	1.063421	-0.715405	0.354576
C40	C	1.563421	-0.215405	0.854576
C41	C	1.063462	-0.822618	0.354594
C42	C	1.563462	-0.322618	0.854594
C43	C	0.602284	-0.526581	0.401583
C44	C	1.102284	-0.026581	0.901583
C45	C	0.525425	-0.526584	0.401592
C46	C	1.025425	-0.026584	0.901592
C47	C	0.525429	-0.403017	0.307620
C48	C	1.025429	0.096983	0.807620
C49	C	0.602286	-0.403010	0.307615
C50	C	1.102286	0.096990	0.807615
C51	C	0.640712	-0.464797	0.354596
C52	C	1.140712	0.035203	0.854596
C53	C	0.486996	-0.464807	0.354610
C54	C	0.986996	0.035193	0.854610
C55	C	0.403662	-0.464810	0.354619
C56	C	0.903662	0.035190	0.854619
C57	C	0.724051	-0.464793	0.354587
C58	C	1.224051	0.035207	0.854587
C59	C	1.063498	-0.909688	0.354611
C60	C	1.563498	-0.409688	0.854611
C61	C	1.063550	-1.018921	0.354629
C62	C	1.563550	-0.518921	0.854629
C63	C	1.255433	-0.464807	0.354615
C64	C	1.755433	0.035193	0.854615
C65	C	1.337232	-0.464815	0.354624
C66	C	1.837232	0.035185	0.854624
C67	C	1.063493	-0.464793	0.546546
C68	C	1.563493	0.035207	1.046546
C69	C	1.063499	-0.464794	0.628345
C70	C	1.563499	0.035206	1.128345
C71	C	1.063561	-0.213197	0.354627
C72	C	1.563561	0.286803	0.854627
C73	C	1.063595	-0.105983	0.354641
C74	C	1.563595	0.394017	0.854641
C75	C	1.110573	-0.403115	0.816554
C76	C	1.610573	0.096885	1.316554
C77	C	1.110569	-0.403114	0.893413
C78	C	1.610569	0.096886	1.393413
C79	C	1.016400	-0.526487	0.893374
C80	C	1.516400	-0.026487	1.393374
C81	C	1.016401	-0.526482	0.816517
C82	C	1.516401	-0.026482	1.316517
C83	C	1.063492	-0.464797	0.778109
C84	C	1.563492	0.035203	1.278109
C85	C	1.063487	-0.464802	0.931825
C86	C	1.563487	0.035198	1.431825
C87	C	1.063482	-0.464802	1.015159
C88	C	1.563482	0.035198	1.515159
C89	C	1.063496	-0.464796	0.694770
C90	C	1.563496	0.035204	1.194770
C91	C	1.063468	-0.464808	1.163387
C92	C	1.563468	0.035192	1.663387
C93	C	1.063480	-0.464805	1.081588
C94	C	1.563480	0.035195	1.581588
H95	H	0.494141	-0.576893	0.439855
H96	H	0.994141	-0.076893	0.939855
H97	H	0.494133	-0.352713	0.269370
H98	H	0.994133	0.147287	0.769370
N99	N	0.643740	-0.336356	0.256943
N100	N	1.143740	0.163644	0.756943
H101	H	0.607736	-0.297217	0.227181
H102	H	1.107736	0.202783	0.727181
H103	H	0.675617	-0.375540	0.222833
H104	H	1.175617	0.124460	0.722833
N105	N	1.161359	-0.336585	0.775126
N106	N	1.661359	0.163415	1.275126
H107	H	1.191183	-0.297509	0.811146
H108	H	1.691183	0.202491	1.311146
H109	H	1.131417	-0.291944	0.743238
H110	H	1.631417	0.208056	1.243238
N111	N	1.161340	-0.336574	0.934879
N112	N	1.661340	0.163426	1.434879
H113	H	1.191167	-0.297496	0.898883
H114	H	1.691167	0.202504	1.398883
H115	H	1.195387	-0.375832	0.966774
H116	H	1.695387	0.124168	1.466774
H117	H	0.978057	-0.576711	0.785214
H118	H	1.478057	-0.076711	1.285214
H119	H	0.633568	-0.576890	0.439839
H120	H	1.133568	-0.076890	0.939839
H121	H	0.978063	-0.576711	0.924656
H122	H	1.478063	-0.076711	1.424656
