data_functionalizedCrystal
_audit_creation_method	'MofGen! by Chris Wilmer'
_symmetry_space_group_name_H-M	'P1'
_symmetry_Int_Tables_number	1
_symmetry_cell_setting	triclinic
loop_
_symmetry_equiv_pos_as_xyz
  x,y,z
_cell_length_a	13.033286
_cell_length_b	13.897448
_cell_length_c	13.032268
_cell_angle_alpha	82.849629
_cell_angle_beta	105.163409
_cell_angle_gamma	97.150608
loop_
_atom_site_label
_atom_site_type_symbol
_atom_site_fract_x
_atom_site_fract_y
_atom_site_fract_z
Zn1	Zn	1.547440	0.611380	-0.393929
Zn2	Zn	1.880774	0.944714	-0.060596
Zn3	Zn	2.214107	1.278047	0.272738
Zn4	Zn	1.569888	0.754515	-0.216339
Zn5	Zn	1.903221	1.087848	0.116995
Zn6	Zn	2.236555	1.421181	0.450328
Zn7	Zn	1.392392	0.575097	-0.238937
Zn8	Zn	1.725725	0.908431	0.094396
Zn9	Zn	2.059059	1.241764	0.427730
Zn10	Zn	1.369803	0.754477	-0.416493
Zn11	Zn	1.703136	1.087810	-0.083159
Zn12	Zn	2.036469	1.421143	0.250174
O13	O	1.469881	0.673867	-0.316424
O14	O	1.803214	1.007201	0.016909
O15	O	2.136548	1.340534	0.350242
O16	O	1.699043	0.645568	-0.351471
O17	O	2.032376	0.978901	-0.018137
O18	O	2.365709	1.312234	0.315196
O19	O	1.565191	0.715546	-0.070707
O20	O	1.898524	1.048879	0.262627
O21	O	2.231858	1.382212	0.595960
O22	O	1.413019	0.444937	-0.259511
O23	O	1.746352	0.778271	0.073822
O24	O	2.079686	1.111604	0.407155
O25	O	1.715535	0.750728	-0.220996
O26	O	2.048868	1.084061	0.112337
O27	O	2.382202	1.417395	0.445671
O28	O	1.526932	0.471594	-0.373383
O29	O	1.860266	0.804928	-0.040050
O30	O	2.193599	1.138261	0.293283
O31	O	1.434786	0.583729	-0.087310
O32	O	1.768119	0.917062	0.246024
O33	O	2.101452	1.250395	0.579357
O34	O	1.240771	0.583692	-0.281391
O35	O	1.574104	0.917025	0.051943
O36	O	1.907438	1.250359	0.385276
O37	O	1.374518	0.750663	-0.562129
O38	O	1.707852	1.083997	-0.228796
O39	O	2.041185	1.417330	0.104537
O40	O	1.224175	0.715481	-0.411840
O41	O	1.557508	1.048815	-0.078507
O42	O	1.890841	1.382148	0.254827
O43	O	1.505028	0.645531	-0.545552
O44	O	1.838361	0.978864	-0.212218
O45	O	2.171695	1.312198	0.121115
O46	O	1.543287	0.889483	-0.242875
O47	O	1.876620	1.222816	0.090458
O48	O	2.209954	1.556149	0.423791
O49	O	1.396285	0.889455	-0.389927
O50	O	1.729619	1.222788	-0.056594
O51	O	2.062952	1.556121	0.276739
C52	C	1.193936	0.645646	-0.351517
C53	C	1.527269	0.978979	-0.018183
C54	C	1.860603	1.312313	0.315150
C55	C	1.075882	0.633599	-0.366554
C56	C	1.409216	0.966932	-0.033221
C57	C	1.742549	1.300265	0.300112
C58	C	1.031423	0.680158	-0.308602
C59	C	1.364757	1.013491	0.024731
C60	C	1.698090	1.346824	0.358064
C61	C	0.909409	0.667707	-0.324143
C62	C	1.242742	1.001041	0.009190
C63	C	1.576076	1.334374	0.342523
C64	C	1.469797	0.924471	-0.316417
C65	C	1.803130	1.257804	0.016916
C66	C	2.136463	1.591138	0.350250
C67	C	1.469853	1.031694	-0.316437
C68	C	1.803187	1.365027	0.016896
C69	C	2.136520	1.698360	0.350230
C70	C	1.469948	1.228007	-0.316500
C71	C	1.803281	1.561341	0.016833
C72	C	2.136615	1.894674	0.350166
C73	C	1.469892	1.118765	-0.316469
C74	C	1.803225	1.452098	0.016865
C75	C	2.136559	1.785431	0.350198
C76	C	1.746903	0.702199	-0.281196
C77	C	2.080236	1.035533	0.052138
C78	C	2.413570	1.368866	0.385471
C79	C	1.864954	0.714273	-0.266183
C80	C	2.198287	1.047606	0.067150
C81	C	2.531620	1.380939	0.400483
C82	C	1.434750	0.702140	-0.593456
C83	C	1.768083	1.035474	-0.260123
C84	C	2.101416	1.368807	0.073210
C85	C	1.419779	0.714189	-0.711511
C86	C	1.753112	1.047522	-0.378177
C87	C	2.086445	1.380855	-0.044844
C88	C	1.469981	1.422291	-0.316465
C89	C	1.803314	1.755624	0.016868
C90	C	2.136647	2.088957	0.350202
C91	C	1.469996	1.315085	-0.316517
C92	C	1.803329	1.648418	0.016816
C93	C	2.136663	1.981751	0.350150
C94	C	1.477678	0.667543	-0.755941
C95	C	1.811011	1.000876	-0.422607
C96	C	2.144344	1.334209	-0.089274
C97	C	1.462206	0.679994	-0.877956
C98	C	1.795539	1.013328	-0.544623
C99	C	2.128873	1.346661	-0.211289
C100	C	1.504937	0.645641	-0.040462
C101	C	1.838270	0.978974	0.292871
C102	C	2.171603	1.312307	0.626204
C103	C	1.520113	0.633342	0.077618
C104	C	1.853447	0.966675	0.410951
C105	C	2.186780	1.300009	0.744284
H106	H	0.917215	0.763363	-0.205067
H107	H	1.250549	1.096696	0.128267
H108	H	1.583882	1.430030	0.461600
Cl109	Cl	1.112112	0.755939	-0.214239
Cl110	Cl	1.445445	1.089272	0.119094
Cl111	Cl	1.778778	1.422605	0.452427
H112	H	0.857144	0.618629	-0.385271
H113	H	1.190477	0.951963	-0.051938
H114	H	1.523811	1.285296	0.281395
Cl115	Cl	0.995193	0.557829	-0.460929
Cl116	Cl	1.328526	0.891162	-0.127595
Cl117	Cl	1.661859	1.224496	0.205738
H118	H	1.581136	0.584179	-0.870095
H119	H	1.914469	0.917512	-0.536762
H120	H	2.247802	1.250846	-0.203428
Cl121	Cl	1.571871	0.591624	-0.675216
Cl122	Cl	1.905204	0.924958	-0.341883
Cl123	Cl	2.238537	1.258291	-0.008549
H124	H	1.401171	0.729144	-0.930247
H125	H	1.734505	1.062477	-0.596913
H126	H	2.067838	1.395811	-0.263580
Cl127	Cl	1.325554	0.790074	-0.792239
Cl128	Cl	1.658887	1.123408	-0.458906
Cl129	Cl	1.992220	1.456741	-0.125573
