data_functionalizedCrystal
_audit_creation_method	'MofGen! by Chris Wilmer'
_symmetry_space_group_name_H-M	'P1'
_symmetry_Int_Tables_number	1
_symmetry_cell_setting	triclinic
loop_
_symmetry_equiv_pos_as_xyz
  x,y,z
_cell_length_a	17.077404
_cell_length_b	17.077402
_cell_length_c	17.077396
_cell_angle_alpha	89.970216
_cell_angle_beta	90.021444
_cell_angle_gamma	89.978870
loop_
_atom_site_label
_atom_site_type_symbol
_atom_site_fract_x
_atom_site_fract_y
_atom_site_fract_z
Zn1	Zn	1.200055	0.312545	0.443876
Zn2	Zn	1.199962	0.443820	0.312607
Zn3	Zn	1.068786	0.312568	0.312620
Zn4	Zn	1.068754	0.443769	0.443826
O5	O	1.134389	0.378175	0.378232
O6	O	1.309889	0.329970	0.426479
O7	O	1.182536	0.426440	0.202762
O8	O	1.086252	0.202718	0.330057
O9	O	1.309821	0.426418	0.330036
O10	O	1.182694	0.202701	0.426491
O11	O	1.086162	0.330010	0.202771
O12	O	0.958935	0.329960	0.330009
O13	O	1.086197	0.426330	0.553680
O14	O	0.958912	0.426353	0.426406
O15	O	1.182663	0.329921	0.553717
O16	O	1.182505	0.553660	0.329988
O17	O	1.086107	0.553622	0.426394
C18	C	0.930441	0.378154	0.378204
C19	C	0.843192	0.378164	0.378210
C20	C	1.134314	0.582123	0.378201
C21	C	1.134353	0.669373	0.378214
C22	C	0.467410	0.328067	0.428559
C23	C	0.549390	0.328061	0.428550
C24	C	0.590343	0.378192	0.378252
C25	C	0.549310	0.428337	0.327965
C26	C	0.467332	0.428346	0.327978
C27	C	0.720181	0.428313	0.327940
C28	C	0.802165	0.428303	0.327925
C29	C	0.802239	0.328029	0.428512
C30	C	0.720260	0.328038	0.428525
C31	C	0.679234	0.378182	0.378237
C32	C	1.134437	0.378117	0.582977
C33	C	1.134457	0.378093	0.670227
C34	C	1.339134	0.378197	0.378262
C35	C	1.426383	0.378206	0.378274
C36	C	1.134487	0.173431	0.378281
C37	C	1.134528	0.086181	0.378302
C38	C	1.184598	0.710357	0.328069
C39	C	1.184637	0.792337	0.328089
C40	C	1.134425	0.833332	0.378251
C41	C	1.084178	0.792343	0.428401
C42	C	1.084144	0.710364	0.428384
C43	C	1.084250	0.963213	0.428431
C44	C	1.084283	1.045197	0.428447
C45	C	1.184743	1.045186	0.328136
C46	C	1.184709	0.963207	0.328119
C47	C	1.134461	0.922223	0.378269
C48	C	1.134387	0.378176	0.174285
C49	C	1.134519	0.377980	0.087035
C50	C	1.184689	0.327888	0.711237
C51	C	1.184698	0.327862	0.793218
C52	C	1.134479	0.378045	0.834186
C53	C	1.084242	0.428252	0.793170
C54	C	1.084229	0.428273	0.711191
C55	C	1.084274	0.428205	0.964040
C56	C	1.084288	0.428184	1.046025
C57	C	1.184742	0.327793	1.046067
C58	C	1.184730	0.327815	0.964088
C59	C	1.134493	0.378023	0.923077
H60	H	0.434072	0.287240	0.469513
H61	H	1.225591	0.929829	0.287270
H62	H	1.225645	0.286911	1.079462
H63	H	1.043298	0.825728	0.469247
Cl64	Cl	1.247906	1.096708	0.265083
Cl65	Cl	1.247808	0.843856	0.265050
H66	H	1.043411	1.078574	0.469307
H67	H	0.582791	0.287236	0.469500
H68	H	1.225585	0.287026	0.677886
Cl69	Cl	1.247720	0.658828	0.265000
Cl70	Cl	0.668778	0.265013	0.491755
H71	H	0.835647	0.287198	0.469457
H72	H	0.835506	0.469126	0.286970
H73	H	1.043354	0.469077	0.930652
H74	H	0.582660	0.469157	0.287014
H75	H	1.043350	0.469109	0.826533
H76	H	1.043335	0.929847	0.469271
Cl77	Cl	0.668605	0.491362	0.264728
H78	H	1.043318	0.469147	0.677801
H79	H	1.043230	0.676996	0.469218
Cl80	Cl	1.247884	0.264779	0.844770
Cl81	Cl	1.247867	0.264731	0.912585
H82	H	1.043393	0.469046	1.079379
H83	H	0.433929	0.469176	0.287032
