data_functionalizedCrystal
_audit_creation_method	'MofGen! by Chris Wilmer'
_symmetry_space_group_name_H-M	'P1'
_symmetry_Int_Tables_number	1
_symmetry_cell_setting	triclinic
loop_
_symmetry_equiv_pos_as_xyz
  x,y,z
_cell_length_a	19.288864
_cell_length_b	19.288857
_cell_length_c	13.448316
_cell_angle_alpha	89.991240
_cell_angle_beta	89.979390
_cell_angle_gamma	83.134677
loop_
_atom_site_label
_atom_site_type_symbol
_atom_site_fract_x
_atom_site_fract_y
_atom_site_fract_z
O1	O	0.921348	0.086650	-0.083015
O2	O	1.421348	0.586650	0.416985
O3	O	0.719087	0.098338	-0.082948
O4	O	1.219087	0.598338	0.417052
O5	O	0.826065	-0.008637	-0.082972
O6	O	1.326065	0.491363	0.417028
O7	O	0.814370	0.193625	-0.082992
O8	O	1.314370	0.693625	0.417008
O9	O	0.826051	-0.008643	0.082412
O10	O	1.326051	0.491357	0.582412
O11	O	0.719074	0.098332	0.082436
O12	O	1.219074	0.598332	0.582436
O13	O	0.921335	0.086643	0.082368
O14	O	1.421335	0.586643	0.582368
Cu15	Cu	0.820203	0.092487	0.097503
Cu16	Cu	1.320203	0.592487	0.597503
Cu17	Cu	0.820219	0.092495	-0.098083
Cu18	Cu	1.320219	0.592495	0.401917
O19	O	0.814357	0.193618	0.082392
O20	O	1.314357	0.693618	0.582392
C21	C	0.693204	0.097959	-0.000247
C22	C	1.193204	0.597959	0.499753
C23	C	0.616100	0.096830	-0.000221
C24	C	1.116100	0.596830	0.499779
C25	C	0.825683	-0.034516	-0.000279
C26	C	1.325683	0.465484	0.499721
C27	C	0.824556	-0.111620	-0.000276
C28	C	1.324556	0.388380	0.499724
C29	C	0.571402	0.159598	-0.000243
C30	C	1.071402	0.659598	0.499757
C31	C	0.498955	0.158537	-0.000254
C32	C	0.998955	0.658537	0.499746
C33	C	0.471209	0.094705	-0.000263
C34	C	0.971209	0.594705	0.499737
C35	C	0.515917	0.031929	-0.000235
C36	C	1.015917	0.531929	0.499765
C37	C	0.588363	0.032991	-0.000215
C38	C	1.088363	0.532991	0.499785
C39	C	0.362954	0.044528	-0.058233
C40	C	0.862954	0.544528	0.441767
C41	C	0.290509	0.043468	-0.058260
C42	C	0.790509	0.543468	0.441740
C43	C	0.247764	0.091425	-0.000323
C44	C	0.747764	0.591425	0.499677
C45	C	0.277471	0.140454	0.057628
C46	C	0.777471	0.640454	0.557628
C47	C	0.349916	0.141517	0.057649
C48	C	0.849916	0.641517	0.557649
C49	C	0.392656	0.093546	-0.000285
C50	C	0.892656	0.593546	0.499715
C51	C	0.124510	0.153048	-0.000355
C52	C	0.624510	0.653048	0.499645
C53	C	0.052062	0.151984	-0.000360
C54	C	0.552062	0.651984	0.499640
C55	C	0.069026	0.025374	-0.000351
C56	C	0.569026	0.525374	0.499649
C57	C	0.141472	0.026439	-0.000337
C58	C	0.641472	0.526439	0.499663
C59	C	0.169210	0.090278	-0.000343
C60	C	0.669210	0.590278	0.499657
C61	C	0.824037	-0.147827	-0.090426
C62	C	1.324037	0.352173	0.409574
C63	C	0.822968	-0.220273	-0.090433
C64	C	1.322968	0.279727	0.409567
C65	C	0.822432	-0.256511	-0.000284
C66	C	1.322432	0.243489	0.499716
C67	C	0.822947	-0.220295	0.089878
C68	C	1.322947	0.279705	0.589878
C69	C	0.824009	-0.147850	0.089883
C70	C	1.324009	0.352150	0.589883
C71	C	0.861428	-0.376746	0.068762
C72	C	1.361428	0.123254	0.568762
C73	C	0.860371	-0.449190	0.068754
C74	C	1.360371	0.050810	0.568754
C75	C	0.819155	-0.479957	-0.000295
C76	C	1.319155	0.020043	0.499705
C77	C	0.779005	-0.438272	-0.069351
C78	C	1.279005	0.061728	0.430649
C79	C	0.780066	-0.365826	-0.069347
C80	C	1.280066	0.134174	0.430653
C81	C	0.821281	-0.335066	-0.000279
C82	C	1.321281	0.164934	0.499721
C83	C	0.817476	-0.594718	-0.090459
C84	C	1.317476	-0.094718	0.409541
C85	C	0.816403	-0.667165	-0.090462
C86	C	1.316403	-0.167165	0.409538
C87	C	0.816389	-0.667187	0.089852
C88	C	1.316389	-0.167187	0.589852
C89	C	0.817455	-0.594740	0.089852
C90	C	1.317455	-0.094740	0.589852
C91	C	0.818002	-0.558511	-0.000306
C92	C	1.318002	-0.058511	0.499694
C93	C	0.947218	0.087022	-0.000334
C94	C	1.447218	0.587022	0.499666
C95	C	1.024321	0.088151	-0.000367
C96	C	1.524321	0.588151	0.499633
C97	C	0.814739	0.219498	-0.000303
C98	C	1.314739	0.719498	0.499697
C99	C	0.815866	0.296602	-0.000313
C100	C	1.315866	0.796602	0.499687
N101	N	0.820197	0.092481	0.235067
N102	N	1.320197	0.592481	0.735067
N103	N	0.820230	0.092495	-0.235647
N104	N	1.320230	0.592495	0.264353
C105	C	0.867581	0.045132	0.287097
C106	C	1.367581	0.545132	0.787097
C107	C	0.867585	0.045131	0.391200
C108	C	1.367585	0.545131	0.891200
C109	C	0.820208	0.092484	0.443272
C110	C	1.320208	0.592484	0.943272
C111	C	0.772819	0.139835	0.391235
C112	C	1.272819	0.639835	0.891235
C113	C	0.772812	0.139832	0.287133
C114	C	1.272812	0.639832	0.787133
C115	C	0.772838	0.139840	0.608215
C116	C	1.272838	0.639840	1.108215
C117	C	0.772846	0.139844	0.712323
C118	C	1.272846	0.639844	1.212323
C119	C	0.867612	0.045139	0.712282
C120	C	1.367612	0.545139	1.212282
C121	C	0.867605	0.045136	0.608180
C122	C	1.367605	0.545136	1.108180
C123	C	0.820216	0.092488	0.556150
C124	C	1.320216	0.592488	1.056150
H125	H	0.593981	0.211581	-0.000250
H126	H	1.093981	0.711581	0.499750
H127	H	0.745442	-0.463320	-0.125577
H128	H	1.245442	0.036680	0.374423
H129	H	0.242669	0.179505	0.104807
H130	H	0.742669	0.679505	0.604807
C131	C	0.735896	-0.319974	-0.145300
C132	C	1.235896	0.180026	0.354700
N133	N	0.702624	-0.285438	-0.202506
N134	N	1.202624	0.214562	0.297494
H135	H	0.893066	-0.483126	0.124980
H136	H	1.393066	0.016874	0.624980
C137	C	0.720691	0.191925	0.229901
C138	C	1.220691	0.691925	0.729901
N139	N	0.681432	0.231164	0.186795
N140	N	1.181432	0.731164	0.686795
H141	H	0.817917	-0.565219	-0.163871
H142	H	1.317917	-0.065219	0.336129
H143	H	0.624757	-0.018124	-0.000197
H144	H	1.124757	0.481876	0.499803
H145	H	0.462555	0.209652	-0.000269
H146	H	0.962555	0.709652	0.499731
C147	C	0.815799	-0.707044	0.189017
C148	C	1.315799	-0.207044	0.689017
N149	N	0.815354	-0.737068	0.263711
N150	N	1.315354	-0.237068	0.763711
H151	H	0.374100	0.181436	0.104838
H152	H	0.874100	0.681436	0.604838
H153	H	0.266328	0.003549	-0.105451
H154	H	0.766328	0.503549	0.394549
H155	H	0.147095	0.205029	-0.000346
H156	H	0.647095	0.705029	0.499654
C157	C	0.919700	-0.006961	0.229828
C158	C	1.419700	0.493039	0.729828
N159	N	0.958956	-0.046201	0.186696
N160	N	1.458956	0.453799	0.686696
C161	C	0.002893	0.221038	-0.000369
C162	C	0.502893	0.721038	0.499631
N163	N	-0.034142	0.273051	-0.000374
N164	N	0.465858	0.773051	0.499626
H165	H	0.894991	-0.351702	0.124997
H166	H	1.394991	0.148298	0.624997
H167	H	0.046436	-0.026600	-0.000420
H168	H	0.546436	0.473400	0.499580
C169	C	0.815868	-0.706998	-0.189641
C170	C	1.315868	-0.206998	0.310359
N171	N	0.815479	-0.737002	-0.264344
N172	N	1.315479	-0.237002	0.235656
C173	C	0.822356	-0.260158	0.189042
C174	C	1.322356	0.239842	0.689042
N175	N	0.821908	-0.290183	0.263735
N176	N	1.321908	0.209817	0.763735
H177	H	0.824428	-0.118370	0.163296
H178	H	1.324428	0.381630	0.663296
C179	C	0.919695	-0.006973	0.448429
C180	C	1.419695	0.493027	0.948429
N181	N	0.958941	-0.046227	0.491532
N182	N	1.458941	0.453773	0.991532
H183	H	0.817883	-0.565261	0.163263
H184	H	1.317883	-0.065261	0.663263
H185	H	0.906186	0.006581	0.565784
H186	H	1.406186	0.506581	1.065784
H187	H	0.734266	0.178403	0.754715
H188	H	1.234266	0.678403	1.254715
C189	C	0.190642	-0.042612	-0.000324
C190	C	0.690642	0.457388	0.499676
N191	N	0.227677	-0.094624	-0.000313
N192	N	0.727677	0.405376	0.499687
C193	C	0.409967	-0.008230	-0.121977
C194	C	0.909967	0.491770	0.378023
N195	N	0.445375	-0.047964	-0.169989
N196	N	0.945375	0.452036	0.330011
C197	C	0.822394	-0.260109	-0.189610
C198	C	1.322394	0.239891	0.310390
N199	N	0.821960	-0.290110	-0.264310
N200	N	1.321960	0.209890	0.235690
C201	C	0.919737	-0.006952	0.769517
C202	C	1.419737	0.493048	1.269517
N203	N	0.958998	-0.046184	0.812631
N204	N	1.458998	0.453816	1.312631
H205	H	0.493322	-0.020044	-0.000256
H206	H	0.993322	0.479956	0.499744
C207	C	0.720701	0.191923	0.550984
C208	C	1.220701	0.691923	1.050984
N209	N	0.681431	0.231151	0.507878
N210	N	1.181431	0.731151	1.007878
C211	C	0.824632	-0.107979	-0.189603
C212	C	1.324632	0.392021	0.310397
N213	N	0.825079	-0.077963	-0.264304
N214	N	1.325079	0.422037	0.235696
H215	H	0.734240	0.178388	0.433637
H216	H	1.234240	0.678388	0.933637
