data_functionalizedCrystal
_audit_creation_method	'MofGen! by Chris Wilmer'
_symmetry_space_group_name_H-M	'P1'
_symmetry_Int_Tables_number	1
_symmetry_cell_setting	triclinic
loop_
_symmetry_equiv_pos_as_xyz
  x,y,z
_cell_length_a	6.817900
_cell_length_b	17.284796
_cell_length_c	17.110486
_cell_angle_alpha	92.888757
_cell_angle_beta	99.060439
_cell_angle_gamma	103.042616
loop_
_atom_site_label
_atom_site_type_symbol
_atom_site_fract_x
_atom_site_fract_y
_atom_site_fract_z
V1	V	-3.971411	-0.108830	-0.239994
V2	V	-3.471411	0.391170	0.260006
O3	O	-3.965649	0.005471	-0.242362
O4	O	-3.465649	0.505471	0.257638
O5	O	-3.917852	-0.216024	-0.231681
O6	O	-3.417852	0.283976	0.268319
O7	O	-3.901358	-0.107050	-0.347707
O8	O	-3.401358	0.392950	0.152293
O9	O	-3.982257	-0.104257	-0.125533
O10	O	-3.482257	0.395743	0.374467
V11	V	-4.458513	-0.095171	-0.227114
V12	V	-3.958513	0.404829	0.272886
O13	O	-4.224818	-0.138793	-0.268247
O14	O	-3.724818	0.361207	0.231753
O15	O	-4.655303	-0.065208	-0.198860
O16	O	-4.155303	0.434792	0.301140
O17	O	-4.288865	0.012023	-0.235426
O18	O	-3.788865	0.512023	0.264574
O19	O	-4.581671	-0.209472	-0.224746
O20	O	-4.081671	0.290528	0.275254
O21	O	-4.565064	-0.099744	-0.341575
O22	O	-4.065064	0.400256	0.158425
O23	O	-4.305359	-0.096951	-0.119401
O24	O	-3.805359	0.403049	0.380599
C25	C	-3.762298	-0.242159	-0.226174
C26	C	-3.262298	0.257841	0.273826
C27	C	-3.799650	-0.329791	-0.220095
C28	C	-3.299650	0.170209	0.279905
C29	C	-4.007063	-0.821850	-0.178104
C30	C	-3.507063	-0.321850	0.321896
C31	C	-3.971982	-0.739513	-0.183829
C32	C	-3.471982	-0.239513	0.316171
C33	C	-3.979499	-0.709543	-0.258465
C34	C	-3.479499	-0.209543	0.241535
C35	C	-4.022082	-0.761914	-0.327381
C36	C	-3.522082	-0.261914	0.172619
C37	C	-4.057148	-0.844249	-0.321656
C38	C	-3.557148	-0.344249	0.178344
C39	C	-3.877298	-0.464497	-0.283286
C40	C	-3.377298	0.035503	0.216714
C41	C	-3.842234	-0.382156	-0.289006
C42	C	-3.342234	0.117844	0.210994
C43	C	-3.792132	-0.359760	-0.145452
C44	C	-3.292132	0.140240	0.354548
C45	C	-3.827213	-0.442099	-0.139734
C46	C	-3.327213	0.057901	0.360266
C47	C	-3.869782	-0.494462	-0.208650
C48	C	-3.369782	0.005538	0.291350
N49	N	-3.943648	-0.625381	-0.264319
N50	N	-3.443648	-0.125381	0.235681
N51	N	-3.905618	-0.578622	-0.202795
N52	N	-3.405618	-0.078622	0.297205
C53	C	-3.741258	-0.103151	-0.374175
C54	C	-3.241258	0.396849	0.125825
C55	C	-3.765232	-0.102405	-0.462187
C56	C	-3.265232	0.397595	0.037813
C57	C	-3.957593	-0.105988	-0.507324
C58	C	-3.457593	0.394012	-0.007324
C59	C	-3.980107	-0.105287	-0.590020
C60	C	-3.480107	0.394713	-0.090020
C61	C	-3.810260	-0.101007	-0.627580
C62	C	-3.310260	0.398993	-0.127580
C63	C	-3.617883	-0.097421	-0.582437
C64	C	-3.117883	0.402579	-0.082437
C65	C	-3.595369	-0.098117	-0.499741
C66	C	-3.095369	0.401883	0.000259
C67	C	-3.869176	-0.098704	-0.877077
C68	C	-3.369176	0.401296	-0.377077
C69	C	-3.891706	-0.098011	-0.959779
C70	C	-3.391706	0.401989	-0.459779
C71	C	-4.253928	-0.105876	-0.967356
C72	C	-3.753928	0.394124	-0.467356
C73	C	-4.231399	-0.106576	-0.884659
C74	C	-3.731399	0.393424	-0.384659
C75	C	-4.039023	-0.102985	-0.839523
C76	C	-3.539023	0.397015	-0.339523
C77	C	-3.833270	-0.100293	-0.712109
C78	C	-3.333270	0.399707	-0.212109
C79	C	-4.016014	-0.103694	-0.754995
C80	C	-3.516014	0.396306	-0.254995
C81	C	-4.107761	0.038154	-0.240931
C82	C	-3.607761	0.538154	0.259069
C83	C	-4.049647	0.125785	-0.247015
C84	C	-3.549647	0.625785	0.252985
C85	C	-4.128802	-0.100853	-0.092928
C86	C	-3.628802	0.399147	0.407072
C87	C	-4.084067	-0.101595	-0.004915
C88	C	-3.584067	0.398405	0.495085
H89	H	-4.028188	-0.737505	-0.388152
H90	H	-3.528188	-0.237505	0.111848
H91	H	-4.369710	-0.110060	-0.854084
H92	H	-3.869710	0.389940	-0.354084
Br93	Br	-3.852461	-0.341483	-0.390306
Br94	Br	-3.352461	0.158517	0.109694
Br95	Br	-3.734391	-0.288693	-0.051930
Br96	Br	-3.234391	0.211307	0.448070
H97	H	-3.821093	-0.466494	-0.078957
H98	H	-3.321093	0.033506	0.421043
H99	H	-3.753385	-0.094524	-0.990356
H100	H	-3.253385	0.405476	-0.490356
Br101	Br	-4.188119	-0.111805	-0.456360
Br102	Br	-3.688119	0.388195	0.043640
H103	H	-3.694986	-0.096811	-0.742699
H104	H	-3.194986	0.403189	-0.242699
H105	H	-4.154299	-0.107176	-0.724411
H106	H	-3.654299	0.392824	-0.224411
Br107	Br	-3.934864	-0.535548	-0.376811
Br108	Br	-3.434864	-0.035548	0.123189
Br109	Br	-4.114961	-0.915318	-0.415182
Br110	Br	-3.614961	-0.415318	0.084818
H111	H	-4.136741	-0.108201	-0.626767
H112	H	-3.636741	0.391799	-0.126767
H113	H	-3.712548	-0.095809	-0.840340
H114	H	-3.212548	0.404191	-0.340340
H115	H	-3.937315	-0.696880	-0.127714
H116	H	-3.437315	-0.196880	0.372286
Br117	Br	-4.514997	-0.110747	-1.028616
Br118	Br	-4.014997	0.389253	-0.528616
H119	H	-3.479591	-0.093932	-0.613024
H120	H	-2.979591	0.406068	-0.113024
H121	H	-4.000946	-0.846245	-0.117327
H122	H	-3.500946	-0.346245	0.382673
Br123	Br	-3.334293	-0.093242	-0.438482
Br124	Br	-2.834293	0.406758	0.061518
