data_functionalizedCrystal
_audit_creation_method	'MofGen! by Chris Wilmer'
_symmetry_space_group_name_H-M	'P1'
_symmetry_Int_Tables_number	1
_symmetry_cell_setting	triclinic
loop_
_symmetry_equiv_pos_as_xyz
  x,y,z
_cell_length_a	14.853567
_cell_length_b	14.853567
_cell_length_c	13.930277
_cell_angle_alpha	90.000757
_cell_angle_beta	89.995144
_cell_angle_gamma	96.365070
loop_
_atom_site_label
_atom_site_type_symbol
_atom_site_fract_x
_atom_site_fract_y
_atom_site_fract_z
O1	O	1.196368	-0.117704	-0.079770
O2	O	0.933909	-0.131725	-0.079782
O3	O	1.072149	0.006516	-0.079779
O4	O	1.058128	-0.255944	-0.079774
O5	O	1.072130	0.006519	0.079883
O6	O	0.933890	-0.131722	0.079879
O7	O	1.196349	-0.117701	0.079892
Zn8	Zn	1.065116	-0.124711	0.105235
Zn9	Zn	1.065142	-0.124715	-0.105126
O10	O	1.058109	-0.255941	0.079888
C11	C	1.071504	0.040106	0.000049
C12	C	1.069601	0.140189	0.000041
C13	C	0.900311	-0.131088	0.000047
C14	C	0.800227	-0.129184	0.000042
C15	C	1.229947	-0.118337	0.000061
C16	C	1.330031	-0.120241	0.000059
C17	C	1.742565	-0.210407	0.000044
C18	C	1.763846	-0.046174	0.000041
C19	C	1.669812	-0.044384	0.000047
C20	C	1.612150	-0.125607	0.000049
C21	C	1.648522	-0.208619	0.000047
C22	C	1.633433	0.038627	0.000040
C23	C	1.539394	0.040421	0.000044
C24	C	1.481730	-0.040803	0.000053
C25	C	1.518108	-0.123819	0.000052
C26	C	1.460446	-0.205042	0.000054
C27	C	1.496821	-0.288059	0.000060
C28	C	1.590859	-0.289843	0.000056
C29	C	1.387693	-0.039019	0.000057
C30	C	1.366403	-0.203254	0.000057
C31	C	1.058754	-0.289531	0.000058
C32	C	1.060657	-0.389615	0.000060
N33	N	1.065106	-0.124708	0.248801
C34	C	0.979435	0.552723	0.000055
C35	C	1.143668	0.574004	0.000063
C36	C	1.145458	0.479971	0.000057
C37	C	1.064235	0.422309	0.000052
C38	C	0.981223	0.458680	0.000052
C39	C	1.228469	0.443591	0.000066
C40	C	1.230262	0.349552	0.000062
C41	C	1.149039	0.291889	0.000050
C42	C	1.066023	0.328266	0.000049
C43	C	0.984800	0.270604	0.000044
C44	C	0.901783	0.306979	0.000036
C45	C	0.899999	0.401017	0.000040
C46	C	1.150823	0.197851	0.000046
C47	C	0.986588	0.176561	0.000041
N48	N	1.065160	-0.124711	-0.248692
C49	C	1.003926	-0.185904	0.701069
C50	C	1.126382	-0.063519	0.701042
C51	C	1.126371	-0.063516	0.600546
C52	C	1.065138	-0.124709	0.550307
C53	C	1.003916	-0.185904	0.600564
C54	C	1.187598	-0.002328	0.550282
C55	C	1.187591	-0.002323	0.449780
C56	C	1.126353	-0.063512	0.399539
C57	C	1.065127	-0.124710	0.449802
C58	C	1.003894	-0.185902	0.399563
C59	C	0.942664	-0.247096	0.449825
C60	C	0.942677	-0.247094	0.550323
C61	C	1.126339	-0.063515	0.299040
C62	C	1.003883	-0.185903	0.299058
H63	H	1.319460	-0.269396	0.000065
F64	F	1.230105	0.635374	0.000082
F65	F	1.500689	0.128773	0.000032
H66	H	1.449861	-0.354190	0.000056
H67	H	0.892811	-0.296924	0.408909
H68	H	1.620484	-0.357431	0.000059
F69	F	0.815343	0.245601	0.000038
F70	F	1.781278	-0.298755	0.000052
F71	F	1.825215	0.040263	0.000035
H72	H	1.680388	0.104754	0.000033
F73	F	0.877518	-0.312217	0.603818
F74	F	1.252754	0.062805	0.396295
H75	H	1.358080	0.028572	0.000046
F76	F	0.938705	-0.251030	0.245598
H77	H	1.176196	-0.013696	0.258122
H78	H	0.832411	0.430643	0.000035
F79	F	1.191553	0.001598	0.754509
F80	F	0.900137	0.115200	0.000029
H81	H	0.911844	0.582344	0.000045
F82	F	1.314905	0.504963	0.000090
F83	F	1.318615	0.310847	0.000058
F84	F	1.239169	0.159141	0.000070
F85	F	1.252770	0.062790	0.603749
F86	F	0.938760	-0.251025	0.754558
