data_functionalizedCrystal
_audit_creation_method	'MofGen! by Chris Wilmer'
_symmetry_space_group_name_H-M	'P1'
_symmetry_Int_Tables_number	1
_symmetry_cell_setting	triclinic
loop_
_symmetry_equiv_pos_as_xyz
  x,y,z
_cell_length_a	9.065215
_cell_length_b	8.597304
_cell_length_c	7.088638
_cell_angle_alpha	103.973825
_cell_angle_beta	83.701998
_cell_angle_gamma	85.172303
loop_
_atom_site_label
_atom_site_type_symbol
_atom_site_fract_x
_atom_site_fract_y
_atom_site_fract_z
O1	O	1.942052	0.250200	0.200180
O2	O	1.512504	0.269401	0.203351
O3	O	1.739313	0.027622	0.163515
O4	O	1.715242	0.491979	0.240016
O5	O	1.769631	-0.004770	-0.159812
O6	O	1.542821	0.237009	-0.119976
O7	O	1.972369	0.217807	-0.123147
Cu8	Cu	1.760363	0.224451	-0.151084
Cu9	Cu	1.724510	0.262758	0.231288
O10	O	1.745559	0.459587	-0.083311
C11	C	1.472701	0.251361	0.041385
C12	C	1.308933	0.245847	0.040480
C13	C	1.753576	-0.048053	-0.007944
C14	C	1.750889	-0.225280	-0.037129
C15	C	2.012171	0.235848	0.038824
C16	C	2.175939	0.241363	0.039741
C17	C	1.731296	0.535262	0.088152
C18	C	1.733982	0.712491	0.117350
N19	N	1.785592	0.197506	-0.420023
N20	N	1.699293	0.289690	0.500226
H21	H	1.721557	-0.205201	0.271946
H22	H	1.763294	-0.307595	-0.191735
Cl23	Cl	1.561243	0.437139	0.650640
Cl24	Cl	1.923663	0.050067	0.429556
