data_functionalizedCrystal
_audit_creation_method	'MofGen! by Chris Wilmer'
_symmetry_space_group_name_H-M	'P1'
_symmetry_Int_Tables_number	1
_symmetry_cell_setting	triclinic
loop_
_symmetry_equiv_pos_as_xyz
  x,y,z
_cell_length_a	16.992695
_cell_length_b	16.992694
_cell_length_c	9.130313
_cell_angle_alpha	90.002155
_cell_angle_beta	89.995176
_cell_angle_gamma	90.668223
loop_
_atom_site_label
_atom_site_type_symbol
_atom_site_fract_x
_atom_site_fract_y
_atom_site_fract_z
O1	O	0.166916	1.050849	-0.121617
O2	O	0.165085	0.822449	-0.121660
O3	O	0.051801	0.935734	-0.121627
O4	O	0.280201	0.937565	-0.121650
O5	O	0.051797	0.935725	0.121972
O6	O	0.165081	0.822441	0.121939
O7	O	0.166912	1.050841	0.121982
Cu8	Cu	0.165996	0.936640	0.144203
Cu9	Cu	0.166001	0.936650	-0.143881
O10	O	0.280197	0.937557	0.121949
C11	C	0.162727	0.793085	0.000134
C12	C	0.155699	0.705600	0.000118
C13	C	0.223517	0.659610	0.000112
C14	C	0.216908	0.577409	0.000133
C15	C	0.142480	0.541201	0.000149
C16	C	0.074657	0.587198	0.000159
C17	C	0.081267	0.669397	0.000148
C18	C	0.115086	0.295886	0.000191
C19	C	0.108481	0.213681	0.000197
C20	C	0.250732	0.203898	0.000173
C21	C	0.257336	0.286099	0.000154
C22	C	0.189512	0.332089	0.000172
N23	N	0.135723	0.457178	0.000166
N24	N	0.196270	0.416110	0.000166
C25	C	0.022439	0.933374	0.000172
C26	C	-0.065046	0.926345	0.000170
C27	C	-0.111037	0.994163	0.000184
C28	C	-0.193238	0.987554	0.000169
C29	C	-0.229446	0.913127	0.000150
C30	C	-0.183449	0.845303	0.000131
C31	C	-0.101250	0.851913	0.000136
C32	C	-0.474760	0.885732	0.000125
C33	C	-0.556966	0.879127	0.000124
C34	C	-0.566749	1.021379	0.000159
C35	C	-0.484547	1.027982	0.000173
C36	C	-0.438558	0.960159	0.000146
N37	N	-0.313468	0.906369	0.000139
N38	N	-0.354537	0.966917	0.000147
C39	C	0.309559	0.939917	0.000147
C40	C	0.397044	0.946945	0.000139
C41	C	0.169270	1.080205	0.000184
C42	C	0.176299	1.167690	0.000191
N43	N	0.165993	0.936639	0.346825
N44	N	0.165999	0.936657	-0.346504
C45	C	0.115854	0.986821	0.423492
C46	C	0.115855	0.986828	0.576829
C47	C	0.216140	0.886470	0.576819
C48	C	0.216135	0.886459	0.423485
H49	H	0.272133	0.539966	0.000126
N50	N	0.270230	0.832358	0.659495
H51	H	0.257629	0.775920	0.632827
H52	H	0.262606	0.840046	0.768240
H53	H	0.256964	0.845592	0.361059
N54	N	0.337611	0.325151	0.000109
H55	H	0.379572	0.283542	0.000102
H56	H	0.343460	0.359053	0.090401
H57	H	0.075025	1.027679	0.361079
N58	N	-0.005616	0.548140	0.000193
H59	H	-0.011530	0.514250	-0.090104
H60	H	-0.047530	0.589793	0.000257
H61	H	-0.437325	0.830505	0.000104
H62	H	-0.230680	1.042779	0.000184
N63	N	0.303793	0.698660	0.000077
H64	H	0.345751	0.657049	0.000078
H65	H	0.309636	0.732558	0.090375
N66	N	0.323881	0.154296	0.000157
H67	H	0.308403	0.096729	0.000167
H68	H	0.356093	0.166533	0.090457
N69	N	0.028202	0.174625	0.000205
H70	H	-0.013762	0.216231	0.000216
H71	H	0.022364	0.140733	0.090509
H72	H	0.059859	0.333322	0.000206
H73	H	-0.063804	0.796688	0.000124
H74	H	0.026042	0.706842	0.000152
H75	H	-0.081563	1.054770	0.000209
N76	N	-0.596017	0.798846	0.000095
H77	H	-0.629902	0.792944	-0.090205
H78	H	-0.629863	0.792979	0.090459
N79	N	-0.445508	1.108264	0.000190
H80	H	-0.461951	1.138208	-0.090108
H81	H	-0.386465	1.102103	0.000249
N82	N	-0.616357	1.094523	0.000186
H83	H	-0.650674	1.094956	-0.090118
H84	H	-0.580896	1.142635	0.000254
H85	H	-0.212936	0.784703	0.000107
N86	N	0.061788	1.040964	0.659521
H87	H	0.030030	1.072752	0.587685
H88	H	0.094143	1.077648	0.723115
