data_functionalizedCrystal
_audit_creation_method	'MofGen! by Chris Wilmer'
_symmetry_space_group_name_H-M	'P1'
_symmetry_Int_Tables_number	1
_symmetry_cell_setting	triclinic
loop_
_symmetry_equiv_pos_as_xyz
  x,y,z
_cell_length_a	27.732048
_cell_length_b	14.853567
_cell_length_c	13.330367
_cell_angle_alpha	90.000844
_cell_angle_beta	90.002051
_cell_angle_gamma	83.138792
loop_
_atom_site_label
_atom_site_type_symbol
_atom_site_fract_x
_atom_site_fract_y
_atom_site_fract_z
O1	O	-0.641431	-0.107269	-0.083287
O2	O	-0.141431	0.392731	0.416713
O3	O	-0.500714	-0.123580	-0.083316
O4	O	-0.000714	0.376420	0.416684
O5	O	-0.574831	0.015866	-0.083303
O6	O	-0.074831	0.515866	0.416697
O7	O	-0.567314	-0.246715	-0.083299
O8	O	-0.067314	0.253285	0.416701
O9	O	-0.574820	0.015869	0.083544
O10	O	-0.074820	0.515869	0.583544
O11	O	-0.500703	-0.123577	0.083531
O12	O	-0.000703	0.376423	0.583531
O13	O	-0.641420	-0.107266	0.083560
O14	O	-0.141420	0.392734	0.583560
Cu15	Cu	-0.571061	-0.115421	0.098780
Cu16	Cu	-0.071061	0.384579	0.598780
Cu17	Cu	-0.571073	-0.115425	-0.098536
Cu18	Cu	-0.071073	0.384575	0.401464
O19	O	-0.567303	-0.246713	0.083548
O20	O	-0.067303	0.253287	0.583548
C21	C	-0.482700	-0.123236	0.000104
C22	C	0.017300	0.376764	0.500104
C23	C	-0.429040	-0.122205	0.000092
C24	C	0.070960	0.377795	0.500092
C25	C	-0.574485	0.049451	0.000117
C26	C	-0.074485	0.549451	0.500117
C27	C	-0.573464	0.149518	0.000108
C28	C	-0.073464	0.649518	0.500108
C29	C	-0.659434	-0.107610	0.000139
C30	C	-0.159434	0.392390	0.500139
C31	C	-0.713094	-0.108641	0.000143
C32	C	-0.213094	0.391359	0.500143
C33	C	-0.090580	-0.198118	0.000137
C34	C	0.409420	0.301882	0.500137
C35	C	0.111097	-0.194293	0.000146
C36	C	0.611097	0.305707	0.500146
O37	O	0.142028	-0.263710	0.000191
O38	O	0.642028	0.236290	0.500191
N39	N	0.130608	-0.111607	0.000143
N40	N	0.630608	0.388393	0.500143
C41	C	0.099695	-0.029872	0.000144
C42	C	0.599695	0.470128	0.500144
O43	O	0.120918	0.040545	0.000152
O44	O	0.620918	0.540545	0.500152
C45	C	-0.101981	-0.033698	0.000142
C46	C	0.398019	0.466302	0.500142
C47	C	-0.121489	-0.116389	0.000135
C48	C	0.378511	0.383611	0.500135
C49	C	-0.110088	-0.280803	0.000131
C50	C	0.389912	0.219197	0.500131
C51	C	-0.160504	-0.281758	0.000124
C52	C	0.339496	0.218242	0.500124
C53	C	-0.191413	-0.200029	0.000122
C54	C	0.308587	0.299971	0.500122
C55	C	-0.171905	-0.117344	0.000128
C56	C	0.328095	0.382656	0.500128
C57	C	-0.132893	0.048036	0.000151
C58	C	0.367107	0.548036	0.500151
C59	C	-0.183314	0.047073	0.000153
C60	C	0.316686	0.547073	0.500153
C61	C	-0.202822	-0.035619	0.000146
C62	C	0.297178	0.464381	0.500146
C63	C	-0.253230	-0.036571	0.000118
C64	C	0.246770	0.463429	0.500118
N65	N	-0.272740	-0.119257	0.000121
N66	N	0.227260	0.380743	0.500121
C67	C	-0.241832	-0.200986	0.000123
C68	C	0.258168	0.299014	0.500123
C69	C	0.205579	-0.027869	0.000143
C70	C	0.705579	0.472131	0.500143
C71	C	0.255998	-0.026912	0.000142
C72	C	0.755998	0.473088	0.500142
C73	C	0.267396	-0.191334	0.000146
C74	C	0.767396	0.308666	0.500146
C75	C	0.216976	-0.192289	0.000140
C76	C	0.716976	0.307711	0.500140
C77	C	0.186068	-0.110555	0.000146
C78	C	0.686068	0.389445	0.500146
C79	C	-0.347710	-0.202986	0.000106
C80	C	0.152290	0.297014	0.500106
C81	C	-0.398132	-0.203934	0.000094
C82	C	0.101868	0.296066	0.500094
C83	C	-0.409526	-0.039513	0.000096
C84	C	0.090474	0.460487	0.500096
C85	C	-0.359109	-0.038564	0.000102
C86	C	0.140891	0.461436	0.500102
C87	C	-0.328202	-0.120308	0.000111
C88	C	0.171798	0.379692	0.500111
O89	O	-0.284189	0.032809	0.000085
O90	O	0.215811	0.532809	0.500085
O91	O	-0.263064	-0.271393	0.000138
O92	O	0.236936	0.228607	0.500138
C93	C	-0.040164	-0.197163	0.000145
C94	C	0.459836	0.302837	0.500145
C95	C	-0.020656	-0.114478	0.000151
C96	C	0.479344	0.385522	0.500151
C97	C	-0.051564	-0.032749	0.000149
C98	C	0.448436	0.467251	0.500149
C99	C	0.029763	-0.113522	0.000149
C100	C	0.529763	0.386478	0.500149
C101	C	0.060672	-0.195251	0.000151
C102	C	0.560672	0.304749	0.500151
C103	C	0.041161	-0.277936	0.000154
C104	C	0.541161	0.222064	0.500154
C105	C	-0.009255	-0.278892	0.000147
C106	C	0.490745	0.221108	0.500147
C107	C	-0.032054	0.049937	0.000146
C108	C	0.467946	0.549937	0.500146
C109	C	0.018363	0.050885	0.000152
C110	C	0.518363	0.550885	0.500152
C111	C	0.049272	-0.030844	0.000154
C112	C	0.549272	0.469156	0.500154
C113	C	-0.567649	-0.280297	0.000125
C114	C	-0.067649	0.219703	0.500125
C115	C	-0.568670	-0.380364	0.000128
C116	C	-0.068670	0.119636	0.500128
N117	N	-0.571055	-0.115418	0.237562
N118	N	-0.071055	0.384582	0.737562
C119	C	-0.525122	0.561265	0.000117
C120	C	-0.025122	1.061265	0.500117
C121	C	-0.613175	0.583979	0.000135
C122	C	-0.113175	1.083979	0.500135
C123	C	-0.614135	0.489961	0.000130
C124	C	-0.114135	0.989961	0.500130
C125	C	-0.570588	0.431590	0.000119
C126	C	-0.070588	0.931590	0.500119
C127	C	-0.526081	0.467238	0.000115
C128	C	-0.026081	0.967238	0.500115
C129	C	-0.658641	0.454306	0.000145
C130	C	-0.158641	0.954306	0.500145
C131	C	-0.659603	0.360282	0.000140
C132	C	-0.159603	0.860282	0.500140
C133	C	-0.616055	0.301910	0.000122
C134	C	-0.116055	0.801910	0.500122
C135	C	-0.571546	0.337563	0.000117
C136	C	-0.071546	0.837563	0.500117
C137	C	-0.527999	0.279193	0.000106
C138	C	-0.027999	0.779193	0.500106
C139	C	-0.483489	0.314844	0.000093
C140	C	0.016511	0.814844	0.500093
C141	C	-0.482533	0.408866	0.000097
C142	C	0.017467	0.908866	0.500097
C143	C	-0.617012	0.207888	0.000119
C144	C	-0.117012	0.707888	0.500119
C145	C	-0.528957	0.185166	0.000103
C146	C	-0.028957	0.685166	0.500103
N147	N	-0.571083	-0.115421	-0.237317
N148	N	-0.071083	0.384579	0.262683
C149	C	-0.538253	-0.177148	0.710179
C150	C	-0.038253	0.322852	1.210179
C151	C	-0.603907	-0.053695	0.710158
C152	C	-0.103907	0.446305	1.210158
C153	C	-0.603901	-0.053692	0.605140
C154	C	-0.103901	0.446308	1.105140
C155	C	-0.571072	-0.115419	0.552636
C156	C	-0.071072	0.384581	1.052636
C157	C	-0.538247	-0.177149	0.605151
C158	C	-0.038247	0.322851	1.105151
C159	C	-0.636729	0.008030	0.552617
C160	C	-0.136729	0.508030	1.052617
C161	C	-0.636725	0.008035	0.447592
C162	C	-0.136725	0.508035	0.947592
C163	C	-0.603892	-0.053689	0.395087
C164	C	-0.103892	0.446311	0.895087
C165	C	-0.571066	-0.115420	0.447608
C166	C	-0.071066	0.384580	0.947608
C167	C	-0.538236	-0.177147	0.395105
C168	C	-0.038236	0.322853	0.895105
C169	C	-0.505407	-0.238875	0.447624
C170	C	-0.005407	0.261125	0.947624
C171	C	-0.505415	-0.238872	0.552646
C172	C	-0.005415	0.261128	1.052646
C173	C	-0.603885	-0.053692	0.290065
C174	C	-0.103885	0.446308	0.790065
C175	C	-0.538231	-0.177148	0.290077
C176	C	-0.038231	0.322852	0.790077
H177	H	-0.414012	-0.271274	0.000088
H178	H	0.085988	0.228726	0.500088
H179	H	-0.488884	0.590297	0.000103
H180	H	0.011116	1.090297	0.500103
Br181	Br	0.083118	-0.388853	0.000149
Br182	Br	0.583118	0.111147	0.500149
H183	H	-0.648630	0.631509	0.000152
H184	H	-0.148630	1.131509	0.500152
H185	H	-0.511495	-0.227410	0.247335
H186	H	-0.011495	0.272590	0.747335
Br187	Br	0.190508	-0.304517	0.000131
Br188	Br	0.690508	0.195483	0.500131
H189	H	-0.694095	0.501837	0.000162
H190	H	-0.194095	1.001837	0.500162
Br191	Br	-0.460865	-0.322640	0.623923
Br192	Br	0.039135	0.177360	1.123923
Br193	Br	-0.460859	-0.322652	0.376358
Br194	Br	0.039141	0.177348	0.876358
H195	H	-0.511523	-0.227403	0.752943
H196	H	-0.011523	0.272597	1.252943
Br197	Br	-0.106432	0.160267	0.000138
Br198	Br	0.393568	0.660267	0.500138
H199	H	-0.176382	-0.349094	0.000118
H200	H	0.323618	0.150906	0.500118
H201	H	-0.208478	0.113633	0.000159
H202	H	0.291522	0.613633	0.500159
H203	H	-0.057215	0.116492	0.000147
H204	H	0.442785	0.616492	0.500147
H205	H	-0.343225	0.028769	0.000093
H206	H	0.156775	0.528769	0.500093
H207	H	-0.446296	0.437903	0.000087
H208	H	0.053704	0.937903	0.500087
H209	H	-0.695845	0.331264	0.000149
H210	H	-0.195845	0.831264	0.500149
H211	H	-0.630638	-0.003443	0.752910
H212	H	-0.130638	0.496557	1.252910
Br213	Br	-0.305773	-0.313925	0.000119
Br214	Br	0.194227	0.186075	0.500119
H215	H	-0.493495	0.137646	0.000091
H216	H	0.006505	0.637646	0.500091
Br217	Br	-0.068149	-0.391736	0.000134
Br218	Br	0.431851	0.108264	0.500134
H219	H	-0.434700	0.027028	0.000090
H220	H	0.065300	0.527028	0.500090
Br221	Br	-0.681287	0.091792	0.623868
Br222	Br	-0.181287	0.591792	1.123868
H223	H	-0.663455	0.058297	0.404838
H224	H	-0.163455	0.558297	0.904838
H225	H	0.271876	0.040423	0.000132
H226	H	0.771876	0.540423	0.500132
H227	H	-0.630616	-0.003438	0.247309
H228	H	-0.130616	0.496562	0.747309
Br229	Br	-0.424392	0.235617	0.000092
Br230	Br	0.075608	0.735617	0.500092
H231	H	-0.025133	-0.346227	0.000142
H232	H	0.474867	0.153773	0.500142
Br233	Br	-0.677412	0.159506	0.000160
Br234	Br	-0.177412	0.659506	0.500160
H235	H	0.292571	-0.257881	0.000147
H236	H	0.792571	0.242119	0.500147
H237	H	0.180417	0.038693	0.000148
H238	H	0.680417	0.538693	0.500148
Br239	Br	0.044830	0.163120	0.000145
Br240	Br	0.544830	0.663120	0.500145
