data_functionalizedCrystal
_audit_creation_method	'MofGen! by Chris Wilmer'
_symmetry_space_group_name_H-M	'P1'
_symmetry_Int_Tables_number	1
_symmetry_cell_setting	triclinic
loop_
_symmetry_equiv_pos_as_xyz
  x,y,z
_cell_length_a	14.908506
_cell_length_b	21.395364
_cell_length_c	21.395355
_cell_angle_alpha	90.025298
_cell_angle_beta	93.281598
_cell_angle_gamma	86.663375
loop_
_atom_site_label
_atom_site_type_symbol
_atom_site_fract_x
_atom_site_fract_y
_atom_site_fract_z
Zn1	Zn	-0.358873	-0.943517	-0.368663
Zn2	Zn	0.141127	-0.443517	0.131337
Zn3	Zn	-0.509718	-0.937392	-0.269933
Zn4	Zn	-0.009718	-0.437392	0.230067
Zn5	Zn	-0.358917	-0.838731	-0.263900
Zn6	Zn	0.141083	-0.338731	0.236100
Zn7	Zn	-0.509739	-0.832672	-0.374673
Zn8	Zn	-0.009739	-0.332672	0.125327
O9	O	-0.434311	-0.888078	-0.319292
O10	O	0.065689	-0.388078	0.180708
O11	O	-0.378855	-1.030384	-0.355576
O12	O	0.121145	-0.530384	0.144424
O13	O	-0.489724	-0.924276	-0.181456
O14	O	0.010276	-0.424276	0.318544
O15	O	-0.232662	-0.857730	-0.272757
O16	O	0.267338	-0.357730	0.227243
O17	O	-0.489681	-1.025883	-0.283040
O18	O	0.010319	-0.525883	0.216960
O19	O	-0.232630	-0.934716	-0.349725
O20	O	0.267370	-0.434716	0.150275
O21	O	-0.378931	-0.851790	-0.177023
O22	O	0.121069	-0.351790	0.322977
O23	O	-0.378951	-0.750248	-0.278584
O24	O	0.121049	-0.250248	0.221416
O25	O	-0.489716	-0.847405	-0.461553
O26	O	0.010284	-0.347405	0.038447
O27	O	-0.489759	-0.745797	-0.359969
O28	O	0.010241	-0.245797	0.140031
O29	O	-0.378875	-0.928842	-0.457138
O30	O	0.121125	-0.428842	0.042862
O31	O	-0.635969	-0.918401	-0.288868
O32	O	-0.135969	-0.418401	0.211132
O33	O	-0.635984	-0.841465	-0.365819
O34	O	-0.135984	-0.341465	0.134181
C35	C	-0.434362	-0.725288	-0.319275
C36	C	0.065638	-0.225288	0.180725
C37	C	-0.434406	-0.655645	-0.319283
C38	C	0.065594	-0.155645	0.180717
C39	C	-0.376795	-0.625294	-0.357118
C40	C	0.123205	-0.125294	0.142882
C41	C	-0.376774	-0.559860	-0.357118
C42	C	0.123226	-0.059860	0.142882
C43	C	-0.434380	-0.524778	-0.319291
C44	C	0.065620	-0.024778	0.180709
C45	C	-0.491995	-0.555137	-0.281449
C46	C	0.008005	-0.055137	0.218551
C47	C	-0.492008	-0.620571	-0.281445
C48	C	0.007992	-0.120571	0.218555
C49	C	-0.515631	-0.417807	-0.317510
C50	C	-0.015631	0.082193	0.182490
C51	C	-0.515620	-0.352374	-0.317519
C52	C	-0.015620	0.147626	0.182481
C53	C	-0.434339	-0.322959	-0.319301
C54	C	0.065661	0.177041	0.180699
C55	C	-0.353068	-0.358984	-0.321087
C56	C	0.146932	0.141016	0.178913
C57	C	-0.353081	-0.424418	-0.321083
C58	C	0.146919	0.075582	0.178917
C59	C	-0.434372	-0.453826	-0.319292
C60	C	0.065628	0.046174	0.180708
C61	C	-0.376701	-0.221656	-0.357139
C62	C	0.123299	0.278344	0.142861
C63	C	-0.376678	-0.156221	-0.357135
C64	C	0.123322	0.343779	0.142865
C65	C	-0.491907	-0.151499	-0.281469
C66	C	0.008093	0.348501	0.218531
C67	C	-0.491921	-0.216934	-0.281469
C68	C	0.008079	0.283066	0.218531
C69	C	-0.434319	-0.252008	-0.319307
C70	C	0.065681	0.247992	0.180693
C71	C	-0.668712	-0.878628	-0.328664
C72	C	-0.168712	-0.378628	0.171336
C73	C	-0.768989	-0.874642	-0.332694
C74	C	-0.268989	-0.374642	0.167306
C75	C	-0.910366	-0.828937	-0.378402
C76	C	-0.410366	-0.328937	0.121598
C77	C	-0.816147	-0.832680	-0.374619
C78	C	-0.316147	-0.332680	0.125381
C79	C	-0.816058	-0.912865	-0.294550
C80	C	-0.316058	-0.412865	0.205450
C81	C	-0.910277	-0.909122	-0.298333
C82	C	-0.410277	-0.409122	0.201667
C83	C	-0.957428	-0.867156	-0.340259
C84	C	-0.457428	-0.367156	0.159741
C85	C	-1.051650	-0.863410	-0.344038
C86	C	-0.551650	-0.363410	0.155962
C87	C	-1.051559	-0.943597	-0.263973
C88	C	-0.551559	-0.443597	0.236027
C89	C	-0.957340	-0.947340	-0.260190
C90	C	-0.457340	-0.447340	0.239810
C91	C	-0.198996	-0.897582	-0.309898
C92	C	0.301004	-0.397582	0.190102
C93	C	-0.098718	-0.901632	-0.305894
C94	C	0.401282	-0.401632	0.194106
C95	C	-0.434293	-0.888131	-0.482715
C96	C	0.065707	-0.388131	0.017285
C97	C	-0.434285	-0.888153	-0.552356
C98	C	0.065715	-0.388153	-0.052356
C99	C	-0.434272	-0.051503	-0.319308
C100	C	0.065728	0.448497	0.180692
C101	C	-0.434283	-0.121144	-0.319307
C102	C	0.065717	0.378856	0.180693
C103	C	-0.376568	-0.930556	-0.582771
C104	C	0.123432	-0.430556	-0.082771
C105	C	-0.376529	-0.930557	-0.648205
C106	C	0.123471	-0.430557	-0.148205
C107	C	-0.434224	-0.888161	-0.683222
C108	C	0.065776	-0.388161	-0.183222
C109	C	-0.491945	-0.845750	-0.652799
C110	C	0.008055	-0.345750	-0.152799
C111	C	-0.491976	-0.845746	-0.587366
C112	C	0.008024	-0.345746	-0.087366
C113	C	-0.515459	-0.879938	-0.790144
C114	C	-0.015459	-0.379938	-0.290144
C115	C	-0.515430	-0.879946	-0.855576
C116	C	-0.015430	-0.379946	-0.355576
C117	C	-0.434129	-0.888168	-0.885039
C118	C	0.065871	-0.388168	-0.385039
C119	C	-0.352854	-0.896396	-0.849062
C120	C	0.147146	-0.396396	-0.349062
C121	C	-0.352885	-0.896392	-0.783629
C122	C	0.147115	-0.396392	-0.283629
C123	C	-0.434197	-0.888160	-0.754173
C124	C	0.065803	-0.388160	-0.254173
C125	C	-0.376364	-0.930574	-0.986404
C126	C	0.123636	-0.430574	-0.486404
C127	C	-0.376324	-0.930571	-1.051839
C128	C	0.123676	-0.430571	-0.551839
C129	C	-0.491748	-0.845767	-1.056433
C130	C	0.008252	-0.345767	-0.556433
C131	C	-0.491780	-0.845767	-0.990999
C132	C	0.008220	-0.345767	-0.490999
C133	C	-0.434090	-0.888174	-0.955989
C134	C	0.065910	-0.388174	-0.455989
C135	C	-0.434265	-0.888064	-0.156503
C136	C	0.065735	-0.388064	0.343497
C137	C	-0.434018	-0.888173	-0.086852
C138	C	0.065982	-0.388173	0.413148
H139	H	-0.329792	-0.250216	-0.387945
H140	H	0.170208	0.249784	0.112055
F141	F	-0.315353	-0.123919	-0.397404
F142	F	0.184647	0.376081	0.102596
F143	F	-0.907149	-0.992003	-0.215574
F144	F	-0.407149	-0.492003	0.284426
F145	F	-0.553326	-0.652873	-0.241172
F146	F	-0.053326	-0.152873	0.258828
F147	F	-0.601929	-0.871195	-0.893860
F148	F	-0.101929	-0.371195	-0.393860
H149	H	-0.538917	-0.811229	-0.681314
H150	H	-0.038917	-0.311229	-0.181314
H151	H	-0.777831	-0.801560	-0.405679
H152	H	-0.277831	-0.301560	0.094321
F153	F	-0.765862	-0.957532	-0.249940
F154	F	-0.265862	-0.457532	0.250060
F155	F	-0.315165	-0.975687	-0.545513
F156	F	0.184835	-0.475687	-0.045513
F157	F	-0.315489	-0.662620	-0.397388
F158	F	0.184511	-0.162620	0.102612
F159	F	-0.315453	-0.527551	-0.397388
F160	F	0.184547	-0.027551	0.102612
H161	H	-0.286881	-0.335036	-0.322539
H162	H	0.213119	0.164964	0.177461
F163	F	-0.553144	-0.800641	-1.093696
F164	F	-0.053144	-0.300641	-0.593696
H165	H	-1.089887	-0.974717	-0.232914
H166	H	-0.589887	-0.474717	0.267086
F167	F	-0.314901	-0.975711	-1.084209
F168	F	0.185099	-0.475711	-0.584209
F169	F	-0.553409	-0.800613	-0.554996
F170	F	-0.053409	-0.300613	-0.054996
F171	F	-0.315082	-0.975680	-0.680580
F172	F	0.184918	-0.475680	-0.180580
F173	F	-0.553210	-0.114167	-0.241206
F174	F	-0.053210	0.385833	0.258794
H175	H	-0.286708	-0.903089	-0.754338
H176	H	0.213292	-0.403089	-0.254338
H177	H	-0.581796	-0.323047	-0.316067
H178	H	-0.081796	0.176953	0.183933
H179	H	-0.538838	-0.241646	-0.250663
H180	H	-0.038838	0.258354	0.249337
H181	H	-0.286650	-0.903092	-0.873048
H182	H	0.213350	-0.403092	-0.373048
F183	F	-0.553300	-0.517800	-0.241188
F184	F	-0.053300	-0.017800	0.258812
H185	H	-0.329384	-0.965101	-0.957897
H186	H	0.170616	-0.465101	-0.457897
F187	F	-0.553215	-0.800638	-0.958628
F188	F	-0.053215	-0.300638	-0.458628
F189	F	-0.601999	-0.871201	-0.758795
F190	F	-0.101999	-0.371201	-0.258795
H191	H	-0.286907	-0.453747	-0.322536
H192	H	0.213093	0.046253	0.177464
H193	H	-0.581824	-0.441750	-0.316059
H194	H	-0.081824	0.058250	0.183941
H195	H	-1.090038	-0.829240	-0.378179
H196	H	-0.590038	-0.329240	0.121821
H197	H	-0.948757	-0.794768	-0.412541
H198	H	-0.448757	-0.294768	0.087459
