data_functionalizedCrystal
_audit_creation_method	'MofGen! by Chris Wilmer'
_symmetry_space_group_name_H-M	'P1'
_symmetry_Int_Tables_number	1
_symmetry_cell_setting	triclinic
loop_
_symmetry_equiv_pos_as_xyz
  x,y,z
_cell_length_a	27.732048
_cell_length_b	15.021413
_cell_length_c	15.944551
_cell_angle_alpha	89.996935
_cell_angle_beta	96.929303
_cell_angle_gamma	89.998251
loop_
_atom_site_label
_atom_site_type_symbol
_atom_site_fract_x
_atom_site_fract_y
_atom_site_fract_z
O1	O	0.641363	-0.073919	-0.099933
O2	O	0.500635	-0.073947	-0.115130
O3	O	0.574842	-0.073924	0.014793
O4	O	0.567156	-0.073942	-0.229857
O5	O	0.574830	0.074140	0.014775
O6	O	0.500623	0.074118	-0.115149
O7	O	0.641351	0.074145	-0.099952
Zn8	Zn	0.570985	0.097640	-0.107553
Zn9	Zn	0.571001	-0.097441	-0.107529
O10	O	0.567144	0.074122	-0.229875
C11	C	0.482621	0.000082	-0.114820
C12	C	0.428962	0.000072	-0.113860
N13	N	0.570978	0.230777	-0.107569
N14	N	0.571012	-0.230579	-0.107506
C15	C	0.090453	0.000106	-0.184589
C16	C	-0.111222	0.000114	-0.181025
O17	O	-0.142198	0.000148	-0.245701
N18	N	-0.130679	0.000118	-0.103986
C19	C	-0.099715	0.000125	-0.027832
O20	O	-0.120892	0.000138	0.037776
C21	C	0.101959	0.000124	-0.031397
C22	C	0.121414	0.000111	-0.108441
C23	C	0.109908	0.000094	-0.261627
C24	C	0.160324	0.000087	-0.262517
C25	C	0.191285	0.000092	-0.186369
C26	C	0.171830	0.000104	-0.109331
C27	C	0.132923	0.000138	0.044756
C28	C	0.183345	0.000139	0.043858
C29	C	0.202799	0.000126	-0.033186
C30	C	0.253206	0.000102	-0.034073
N31	N	0.272664	0.000098	-0.111113
C32	C	0.241703	0.000093	-0.187260
C33	C	-0.205597	0.000125	-0.025966
C34	C	-0.256015	0.000123	-0.025074
C35	C	-0.267519	0.000113	-0.178268
C36	C	-0.217100	0.000108	-0.179158
C37	C	-0.186139	0.000121	-0.103005
C38	C	0.347580	0.000078	-0.189124
C39	C	0.398001	0.000067	-0.190007
C40	C	0.409500	0.000082	-0.036815
C41	C	0.359084	0.000088	-0.035931
C42	C	0.328125	0.000089	-0.112092
O43	O	0.284210	0.000078	0.030569
O44	O	0.262890	0.000100	-0.252859
C45	C	0.040037	0.000112	-0.183699
C46	C	0.020582	0.000124	-0.106661
C47	C	0.051543	0.000129	-0.030513
C48	C	-0.029836	0.000123	-0.105769
C49	C	-0.060797	0.000118	-0.181917
C50	C	-0.041339	0.000114	-0.258956
C51	C	0.009076	0.000107	-0.259846
C52	C	0.032086	0.000133	0.046526
C53	C	-0.018331	0.000139	0.047410
C54	C	-0.049291	0.000134	-0.028738
C55	C	0.659365	0.000114	-0.100262
C56	C	0.713024	0.000118	-0.101222
C57	C	0.574517	0.000108	0.046074
C58	C	0.573560	0.000108	0.139307
C59	C	0.536660	0.470450	-0.167618
C60	C	0.580337	0.529792	-0.183354
C61	C	0.570990	0.412384	-0.107548
C62	C	0.527325	0.529784	-0.091831
C63	C	0.570998	0.587808	-0.107530
C64	C	0.614690	0.470419	-0.123321
C65	C	0.561649	0.470407	-0.031766
C66	C	0.605358	0.529721	-0.047469
C67	C	0.570985	0.311327	-0.107561
C68	C	0.571009	0.688863	-0.107516
C69	C	0.567469	0.000088	-0.261156
C70	C	0.568426	0.000082	-0.354389
C71	C	0.525277	0.000087	0.353533
C72	C	0.547692	0.073096	0.414834
C73	C	0.571830	0.000101	0.310011
C74	C	0.547715	-0.072884	0.414836
C75	C	0.570155	0.000090	0.474902
C76	C	0.594258	0.073170	0.370084
C77	C	0.594274	-0.072875	0.370079
C78	C	0.616723	0.000152	0.431364
C79	C	0.572793	0.000108	0.215021
C80	C	0.569195	0.000090	0.569890
H81	H	0.322378	0.000081	-0.251142
O82	O	0.483291	0.561041	-0.076017
C83	C	0.434121	0.690169	-0.057453
C84	C	0.484010	0.654896	-0.075378
H85	H	0.434690	0.766053	-0.056913
H86	H	0.404877	0.665883	-0.108747
H87	H	0.425873	0.664671	0.006637
H88	H	0.492305	0.680378	-0.139443
H89	H	0.513226	0.679173	-0.024034
H90	H	-0.292736	0.000110	-0.240270
O91	O	-0.274852	0.000007	0.049820
C92	C	-0.280456	-0.076715	0.181018
C93	C	-0.259084	-0.076689	0.096236
H94	H	-0.267724	-0.138726	0.218562
H95	H	-0.267690	-0.014788	0.218661
H96	H	-0.321809	-0.076673	0.168565
H97	H	-0.217731	-0.076763	0.108612
H98	H	-0.271888	-0.138610	0.058619
H99	H	0.486636	0.000152	0.319720
H100	H	-0.066557	0.000107	-0.320958
O101	O	0.617755	-0.146434	0.346232
C102	C	0.645281	-0.228433	0.231125
C103	C	0.618694	-0.145070	0.258023
H104	H	0.646039	-0.227367	0.159804
H105	H	0.684063	-0.229070	0.264327
H106	H	0.625391	-0.290615	0.249332
H107	H	0.638543	-0.082843	0.239819
H108	H	0.579910	-0.144511	0.224827
H109	H	0.527997	0.134811	0.434677
O110	O	0.502009	0.439350	-0.228154
C111	C	0.428969	0.352463	-0.258808
C112	C	0.468168	0.387644	-0.190164
H113	H	0.401605	0.310636	-0.228121
H114	H	0.409506	0.410955	-0.293660
H115	H	0.446800	0.309700	-0.305476
H116	H	0.450376	0.430393	-0.143441
H117	H	0.487628	0.329111	-0.155376
H118	H	0.528024	-0.134612	0.434663
H119	H	0.413838	0.000056	-0.252749
H120	H	0.434718	0.000082	0.025183
O121	O	0.658713	0.439300	-0.139347
C122	C	0.708094	0.310316	-0.157350
C123	C	0.658222	0.345440	-0.139172
H124	H	0.707717	0.234426	-0.157197
H125	H	0.716106	0.335263	-0.221765
H126	H	0.737396	0.335265	-0.106481
H127	H	0.628888	0.320505	-0.189988
H128	H	0.650252	0.320499	-0.074732
H129	H	-0.201264	0.000103	-0.241894
H130	H	0.553727	0.444301	0.032292
H131	H	0.176158	0.000076	-0.325254
H132	H	0.588245	0.555876	-0.247433
O133	O	0.079788	-0.000036	-0.335549
C134	C	0.016224	-0.076799	-0.423478
C135	C	0.050294	-0.076742	-0.339715
H136	H	-0.007624	-0.138819	-0.426882
H137	H	-0.007707	-0.014881	-0.426929
H138	H	0.038809	-0.076765	-0.478668
H139	H	0.027747	-0.076808	-0.284478
H140	H	0.074226	-0.138655	-0.336338
O141	O	-0.175504	0.000285	0.047992
C142	C	-0.111889	0.076959	0.135883
C143	C	-0.145946	0.076906	0.052106
H144	H	-0.087975	0.138891	0.139228
H145	H	-0.134436	0.077015	0.191125
H146	H	-0.088019	0.014965	0.139292
H147	H	-0.169823	0.138890	0.048614
H148	H	-0.123369	0.076804	-0.003097
O149	O	0.617690	0.146862	0.346392
C150	C	0.644903	0.229512	0.231396
C151	C	0.618349	0.146031	0.258111
H152	H	0.645453	0.228858	0.160022
H153	H	0.625187	0.291677	0.250142
H154	H	0.683760	0.229773	0.264266
H155	H	0.579490	0.145683	0.225255
H156	H	0.638101	0.083903	0.239382
O157	O	0.662868	0.000363	0.471496
C158	C	0.739518	0.077502	0.494168
C159	C	0.687270	0.077379	0.448679
H160	H	0.759265	0.139753	0.475724
H161	H	0.738484	0.076970	0.565427
H162	H	0.759496	0.015830	0.474982
H163	H	0.667261	0.139041	0.467795
H164	H	0.688338	0.077865	0.377429
H165	H	0.117093	0.000149	0.107494
H166	H	0.208551	0.000150	0.105873
O167	O	0.340263	0.000128	0.038982
C168	C	0.357001	0.000077	0.190834
C169	C	0.378375	0.000044	0.106055
H170	H	0.387804	-0.000009	0.245084
H171	H	0.333705	0.062062	0.195135
H172	H	0.333665	-0.061867	0.195041
H173	H	0.401733	0.061947	0.101790
H174	H	0.401644	-0.061981	0.101790
O175	O	0.640096	0.560541	0.013059
C176	C	0.725355	0.565050	0.064887
C177	C	0.686065	0.530103	-0.003720
H178	H	0.762529	0.540440	0.051355
H179	H	0.724936	0.640941	0.064822
H180	H	0.717679	0.539591	0.129317
H181	H	0.693714	0.555497	-0.068184
H182	H	0.686493	0.454213	-0.003580
H183	H	0.057290	0.000140	0.108537
H184	H	0.024911	0.000098	-0.322584
O185	O	-0.037145	0.000190	0.122331
C186	C	-0.020399	0.000164	0.274182
C187	C	0.000970	0.000117	0.189399
H188	H	0.010406	0.000087	0.328428
H189	H	-0.043695	0.062150	0.278478
H190	H	-0.043735	-0.061779	0.278402
H191	H	0.024327	0.062019	0.185122
H192	H	0.024239	-0.061909	0.185139
