data_functionalizedCrystal
_audit_creation_method	'MofGen! by Chris Wilmer'
_symmetry_space_group_name_H-M	'P1'
_symmetry_Int_Tables_number	1
_symmetry_cell_setting	triclinic
loop_
_symmetry_equiv_pos_as_xyz
  x,y,z
_cell_length_a	19.077142
_cell_length_b	8.497374
_cell_length_c	19.076919
_cell_angle_alpha	87.716621
_cell_angle_beta	90.074357
_cell_angle_gamma	92.308618
loop_
_atom_site_label
_atom_site_type_symbol
_atom_site_fract_x
_atom_site_fract_y
_atom_site_fract_z
Zn1	Zn	-1.058439	-0.763264	0.440522
Zn2	Zn	-1.063135	-1.016925	0.323038
Zn3	Zn	-0.945652	-0.742126	0.318310
Zn4	Zn	-0.940957	-1.015969	0.435787
O5	O	-1.002046	-0.884571	0.379414
O6	O	-1.157395	-0.806159	0.428898
O7	O	-1.051481	-0.972026	0.224079
O8	O	-0.960613	-0.524168	0.334524
O9	O	-1.160846	-0.992523	0.342583
O10	O	-1.043477	-0.539698	0.424313
O11	O	-0.965167	-0.770133	0.220605
O12	O	-0.846696	-0.769206	0.329933
O13	O	-0.952611	-0.990894	0.534747
O14	O	-0.843246	-0.970397	0.416242
O15	O	-1.038924	-0.805233	0.538226
O16	O	-1.046928	-1.237560	0.337992
O17	O	-0.957164	-1.236858	0.420827
C18	C	-0.819474	-0.867405	0.372061
C19	C	-0.741368	-0.860101	0.368932
C20	C	-0.702899	-0.961565	0.412328
C21	C	-0.629510	-0.954681	0.409391
C22	C	-0.594592	-0.846340	0.363054
C23	C	-0.633066	-0.744865	0.319656
C24	C	-0.706454	-0.751742	0.322597
C25	C	-0.375298	-0.814516	0.349452
C26	C	-0.301906	-0.807650	0.346513
C27	C	-0.298355	-1.017465	0.436249
C28	C	-0.371744	-1.024339	0.439183
C29	C	-0.410211	-0.922858	0.395787
N30	N	-0.519577	-0.839305	0.360050
N31	N	-0.485225	-0.929887	0.398796
C32	C	-0.185331	-0.901797	0.386788
C33	C	-0.263437	-0.909114	0.389909
C34	C	-1.002040	-0.473091	0.379417
C35	C	-1.002040	-0.294447	0.379419
C36	C	-0.994720	-0.900314	0.562695
C37	C	-0.991598	-0.907023	0.640799
C38	C	-1.009384	-0.868779	0.196847
C39	C	-1.012641	-0.861639	0.118750
C40	C	-1.035068	-0.813516	0.679305
C41	C	-1.032126	-0.819812	0.752691
C42	C	-0.985717	-0.919626	0.787570
C43	C	-0.942243	-1.013137	0.749059
C44	C	-0.945181	-1.006831	0.675674
C45	C	-0.972106	-0.948844	1.006854
C46	C	-0.969172	-0.955147	1.080244
C47	C	-1.059054	-0.761819	1.083870
C48	C	-1.061992	-0.755528	1.010484
C49	C	-1.018515	-0.849033	0.971979
N50	N	-0.982711	-0.926069	0.862583
N51	N	-1.021518	-0.842581	0.896968
H52	H	-0.267027	-1.100082	0.471580
C53	C	-0.918114	-1.064949	1.118610
N54	N	-0.879660	-1.147649	1.147507
C55	C	-1.113038	-0.645709	0.972122
N56	N	-1.151486	-0.562989	0.943227
H57	H	-0.737774	-0.669112	0.287263
H58	H	-1.072861	-0.732241	0.650911
C59	C	-0.924277	-1.051698	0.964508
N60	N	-0.888249	-1.129170	0.932611
C61	C	-0.891185	-1.122918	0.787429
N62	N	-0.852728	-1.205607	0.816329
H63	H	-0.400169	-1.112565	0.476914
H64	H	-1.094450	-0.685690	1.115229
H65	H	-0.909776	-1.082959	0.644324
H66	H	-0.604630	-0.656645	0.281931
C67	C	-1.079948	-0.716949	0.795044
N68	N	-1.115969	-0.639467	0.826944
C69	C	-0.417603	-0.702893	0.301711
N70	N	-0.449470	-0.618816	0.265748
H71	H	-0.598192	-1.037305	0.444729
C72	C	-0.741302	-1.080750	0.463303
N73	N	-0.770226	-1.170520	0.501700
H74	H	-0.273477	-0.719408	0.308784
