data_functionalizedCrystal
_audit_creation_method	'MofGen! by Chris Wilmer'
_symmetry_space_group_name_H-M	'P1'
_symmetry_Int_Tables_number	1
_symmetry_cell_setting	triclinic
loop_
_symmetry_equiv_pos_as_xyz
  x,y,z
_cell_length_a	8.559649
_cell_length_b	11.792241
_cell_length_c	7.088929
_cell_angle_alpha	83.733449
_cell_angle_beta	95.325015
_cell_angle_gamma	76.986040
loop_
_atom_site_label
_atom_site_type_symbol
_atom_site_fract_x
_atom_site_fract_y
_atom_site_fract_z
O1	O	2.103509	-0.025390	-0.158956
O2	O	2.603509	0.474610	0.341044
O3	O	1.638811	0.033181	-0.158967
O4	O	2.138811	0.533181	0.341033
O5	O	1.882438	-0.162308	-0.158948
O6	O	2.382438	0.337692	0.341052
O7	O	1.859881	0.170100	-0.158976
O8	O	2.359881	0.670100	0.341024
O9	O	1.914996	-0.188486	0.159030
O10	O	2.414996	0.311514	0.659030
O11	O	1.671369	0.007004	0.159010
O12	O	2.171369	0.507004	0.659010
O13	O	2.136066	-0.051568	0.159022
O14	O	2.636066	0.448432	0.659022
Cu15	Cu	1.906690	-0.024672	0.188050
Cu16	Cu	2.406690	0.475328	0.688050
Cu17	Cu	1.868187	0.006286	-0.187996
Cu18	Cu	2.368187	0.506286	0.312004
O19	O	1.892439	0.143922	0.159002
O20	O	2.392439	0.643922	0.659002
C21	C	1.595598	0.024531	0.000020
C22	C	2.095598	0.524531	0.500020
C23	C	1.418332	0.037744	0.000016
C24	C	1.918332	0.537744	0.500016
C25	C	1.897300	-0.217558	0.000040
C26	C	2.397300	0.282442	0.500040
C27	C	1.893059	-0.343184	0.000038
C28	C	2.393059	0.156816	0.500038
C29	C	1.885259	-0.573179	0.000006
C30	C	2.385259	-0.073179	0.500006
C31	C	1.889593	-0.445192	0.000023
C32	C	2.389593	0.054808	0.500023
C33	C	2.179279	-0.042917	0.000030
C34	C	2.679279	0.457083	0.500030
C35	C	2.356543	-0.056129	0.000021
C36	C	2.856543	0.443871	0.500021
C37	C	1.877577	0.199172	0.000010
C38	C	2.377577	0.699172	0.500010
C39	C	1.881816	0.324799	-0.000001
C40	C	2.381816	0.824799	0.499999
N41	N	1.933783	-0.046448	0.452540
N42	N	2.433783	0.453552	0.952540
N43	N	1.841107	0.028052	-0.452486
N44	N	2.341107	0.528052	0.047514
H45	H	1.335608	0.128227	-0.000002
H46	H	1.835608	0.628227	0.499998
H47	H	1.745058	0.105257	0.465860
H48	H	2.245058	0.605257	0.965860
H49	H	2.029850	-0.123651	0.534203
H50	H	2.529850	0.376349	1.034203
H51	H	1.439256	-0.146604	0.000019
H52	H	1.939256	0.353396	0.500019
