data_functionalizedCrystal
_audit_creation_method	'MofGen! by Chris Wilmer'
_symmetry_space_group_name_H-M	'P1'
_symmetry_Int_Tables_number	1
_symmetry_cell_setting	triclinic
loop_
_symmetry_equiv_pos_as_xyz
  x,y,z
_cell_length_a	13.897449
_cell_length_b	12.759394
_cell_length_c	12.759387
_cell_angle_alpha	90.026897
_cell_angle_beta	89.975598
_cell_angle_gamma	89.983623
loop_
_atom_site_label
_atom_site_type_symbol
_atom_site_fract_x
_atom_site_fract_y
_atom_site_fract_z
Zn1	Zn	1.474727	0.418188	-0.594143
Zn2	Zn	1.474624	0.593905	-0.418475
Zn3	Zn	1.313413	0.418243	-0.418468
Zn4	Zn	1.313403	0.593828	-0.594102
O5	O	1.394042	0.506041	-0.506297
O6	O	1.609695	0.441506	-0.570860
O7	O	1.453200	0.570658	-0.271453
O8	O	1.334858	0.271215	-0.441785
O9	O	1.609619	0.570605	-0.441798
O10	O	1.453375	0.271174	-0.570853
O11	O	1.334759	0.441600	-0.271447
O12	O	1.178430	0.441526	-0.441746
O13	O	1.334842	0.570474	-0.741129
O14	O	1.178423	0.570527	-0.570784
O15	O	1.453366	0.441432	-0.741159
O16	O	1.453191	0.740916	-0.441759
O17	O	1.334743	0.740859	-0.570791
C18	C	1.143427	0.506025	-0.506260
C19	C	1.036213	0.506043	-0.506270
C20	C	0.949144	0.506047	-0.506287
C21	C	0.839911	0.506054	-0.506319
C22	C	1.393981	0.779008	-0.506294
C23	C	1.394043	0.895785	-0.506328
C24	C	1.517584	1.115214	-0.372121
C25	C	1.579278	1.060345	-0.304981
C26	C	1.579229	0.950623	-0.304955
C27	C	1.517478	0.895768	-0.372074
C28	C	1.455785	0.950637	-0.439214
C29	C	1.455842	1.060362	-0.439235
C30	C	1.332349	0.950654	-0.573468
C31	C	1.332401	1.060376	-0.573501
C32	C	1.270598	0.895799	-0.640587
C33	C	1.208908	0.950668	-0.707734
C34	C	1.208960	1.060397	-0.707759
C35	C	1.270708	1.115245	-0.640642
C36	C	1.645635	0.506058	-0.506334
C37	C	1.752849	0.506065	-0.506350
C38	C	1.394115	0.505938	-0.780331
C39	C	1.394146	0.505894	-0.897107
C40	C	1.394126	1.232007	-0.506335
C41	C	1.394152	1.115231	-0.506382
C42	C	1.517572	0.371531	-0.897158
C43	C	1.579299	0.304334	-0.952044
C44	C	1.579323	0.304296	-1.061766
C45	C	1.517611	0.371460	-1.116604
C46	C	1.455884	0.438657	-1.061718
C47	C	1.455869	0.438690	-0.951994
C48	C	1.332454	0.573013	-1.061667
C49	C	1.332434	0.573058	-0.951945
C50	C	1.270742	0.640176	-1.116505
C51	C	1.209018	0.707380	-1.061619
C52	C	1.208998	0.707417	-0.951891
C53	C	1.270707	0.640255	-0.897059
C54	C	1.394025	0.506068	-0.233329
C55	C	1.394180	0.505816	-0.116553
H56	H	1.517639	1.204555	-0.372146
H57	H	1.158722	0.762126	-0.907209
Cl58	Cl	1.270691	0.640299	-0.759122
H59	H	1.270760	1.204586	-0.640659
H60	H	1.158631	0.905999	-0.762373
Cl61	Cl	1.656853	0.219879	-0.883101
H62	H	1.517569	0.371566	-0.807817
Cl63	Cl	1.131391	1.129366	-0.792162
H64	H	1.629552	1.105020	-0.250332
Cl65	Cl	1.270771	0.640128	-1.254442
Cl66	Cl	1.656907	0.219803	-1.130769
H67	H	1.517627	0.371414	-1.205945
H68	H	1.629462	0.905949	-0.250280
Cl69	Cl	1.131441	0.791799	-1.130562
H70	H	1.270560	0.806458	-0.640557
H71	H	1.517436	0.806427	-0.372038
