data_functionalizedCrystal
_audit_creation_method	'MofGen! by Chris Wilmer'
_symmetry_space_group_name_H-M	'P1'
_symmetry_Int_Tables_number	1
_symmetry_cell_setting	triclinic
loop_
_symmetry_equiv_pos_as_xyz
  x,y,z
_cell_length_a	6.817900
_cell_length_b	11.102244
_cell_length_c	17.078481
_cell_angle_alpha	95.110868
_cell_angle_beta	99.306161
_cell_angle_gamma	108.604870
loop_
_atom_site_label
_atom_site_type_symbol
_atom_site_fract_x
_atom_site_fract_y
_atom_site_fract_z
V1	V	-4.005695	-0.175542	-0.247360
O2	O	-3.966748	0.008741	-0.242653
O3	O	-3.983190	-0.348363	-0.245666
O4	O	-3.936320	-0.172708	-0.355243
O5	O	-4.013943	-0.168131	-0.132318
V6	V	-4.488685	-0.153515	-0.233600
O7	O	-4.268122	-0.223859	-0.277543
O8	O	-4.676456	-0.105198	-0.203417
O9	O	-4.287983	0.019306	-0.235294
O10	O	-4.645029	-0.337798	-0.238306
O11	O	-4.597834	-0.160926	-0.348642
O12	O	-4.334854	-0.156349	-0.125717
C13	C	-3.835169	-0.390498	-0.241763
C14	C	-3.897916	-0.531781	-0.241097
C15	C	-3.898305	-0.580103	-0.168135
C16	C	-3.957274	-0.712856	-0.167519
C17	C	-4.015453	-0.748954	-0.312833
C18	C	-3.956500	-0.616204	-0.313449
C19	C	-3.864708	-0.559263	-0.084239
C20	C	-3.923676	-0.692016	-0.083622
C21	C	-3.775380	-0.166430	-0.381538
C22	C	-3.800114	-0.165256	-0.469733
C23	C	-3.994016	-0.171049	-0.515209
C24	C	-4.017243	-0.169945	-0.598077
C25	C	-3.846570	-0.163058	-0.635469
C26	C	-3.652650	-0.157261	-0.589986
C27	C	-3.629421	-0.158355	-0.507119
C28	C	-3.896492	-0.159096	-0.882872
C29	C	-3.919739	-0.158006	-0.965746
C30	C	-4.284330	-0.170688	-0.973830
C31	C	-4.261087	-0.171790	-0.890962
C32	C	-4.067167	-0.165986	-0.845486
N33	N	-3.870309	-0.161934	-0.720173
N34	N	-4.043426	-0.167101	-0.760782
C35	C	-4.099347	0.061434	-0.239194
C36	C	-4.015838	0.202716	-0.239865
C37	C	-4.159137	-0.162631	-0.099417
C38	C	-4.113641	-0.163799	-0.011222
H39	H	-3.691586	-0.506496	-0.055264
H40	H	-4.442212	-0.175411	-1.010865
H41	H	-4.400071	-0.177397	-0.860523
H42	H	-4.175132	-0.174655	-0.635099
H43	H	-3.471512	-0.153607	-0.470090
O44	O	-4.072044	-0.830826	-0.383158
C45	C	-3.966499	-0.896204	-0.503388
C46	C	-3.902154	-0.803388	-0.423777
H47	H	-3.829164	-0.874071	-0.536243
H48	H	-4.109138	-0.883948	-0.542427
H49	H	-4.008798	-0.999379	-0.490400
H50	H	-3.859747	-0.700176	-0.436690
H51	H	-3.759584	-0.815756	-0.384762
H52	H	-3.956203	-0.576867	-0.372862
O53	O	-3.754097	-0.151536	-1.002124
C54	C	-3.621338	-0.253503	-1.101783
C55	C	-3.809055	-0.261002	-1.060640
H56	H	-3.665720	-0.341981	-1.149114
H57	H	-3.478721	-0.249620	-1.055085
H58	H	-3.580643	-0.163294	-1.131648
H59	H	-3.849939	-0.351203	-1.030778
H60	H	-3.951557	-0.264815	-1.107372
H61	H	-3.738616	-0.154415	-0.845860
O62	O	-3.997449	-0.512873	-0.049642
C63	C	-4.298362	-0.561694	0.014115
C64	C	-4.148228	-0.614405	-0.025066
H65	H	-4.420276	-0.643751	0.034010
H66	H	-4.382372	-0.515660	-0.031104
H67	H	-4.203469	-0.486613	0.068498
H68	H	-4.242964	-0.689531	-0.079442
H69	H	-4.064212	-0.660358	0.020204
H70	H	-3.786806	-0.715077	-0.048210
O71	O	-4.105137	-0.739636	-0.055958
C72	C	-4.270416	-0.850187	0.044045
C73	C	-4.064800	-0.796359	0.012777
H74	H	-4.237865	-0.896036	0.099631
H75	H	-4.394234	-0.925595	-0.004490
H76	H	-4.331350	-0.768685	0.060169
H77	H	-4.003679	-0.877773	-0.003341
H78	H	-3.941117	-0.720917	0.061331
O79	O	-4.159859	-0.177967	-0.478875
C80	C	-4.397726	-0.297120	-0.400736
C81	C	-4.209927	-0.289464	-0.441860
H82	H	-4.438235	-0.387244	-0.370784
H83	H	-4.540410	-0.301153	-0.447450
H84	H	-4.353459	-0.208563	-0.353477
H85	H	-4.253991	-0.377998	-0.489115
H86	H	-4.067295	-0.285367	-0.395099
H87	H	-3.513683	-0.151645	-0.620437
