data_functionalizedCrystal
_audit_creation_method	'MofGen! by Chris Wilmer'
_symmetry_space_group_name_H-M	'P1'
_symmetry_Int_Tables_number	1
_symmetry_cell_setting	triclinic
loop_
_symmetry_equiv_pos_as_xyz
  x,y,z
_cell_length_a	23.096457
_cell_length_b	20.016444
_cell_length_c	23.096457
_cell_angle_alpha	60.005619
_cell_angle_beta	90.011236
_cell_angle_gamma	60.000689
loop_
_atom_site_label
_atom_site_type_symbol
_atom_site_fract_x
_atom_site_fract_y
_atom_site_fract_z
Zr1	Zr	0.557788	0.731242	-0.076002
O2	O	0.465322	0.870620	-0.168451
O3	O	0.586130	0.591866	-0.047660
O4	O	0.586107	0.731243	-0.168452
O5	O	0.465367	0.731242	0.047623
O6	O	0.681389	0.731240	-0.168454
O7	O	0.465344	0.731244	-0.047659
O8	O	0.681430	0.481921	0.047621
O9	O	0.465326	0.980560	-0.168452
O10	O	0.669331	0.649190	-0.035575
O11	O	0.598239	0.649191	0.035534
O12	O	0.598212	0.813289	-0.106683
O13	O	0.527121	0.813289	-0.035574
Zr14	Zr	0.709789	0.731235	0.075959
Zr15	Zr	0.709752	0.731238	-0.076005
Zr16	Zr	0.557824	0.731239	0.075962
Zr17	Zr	0.557795	0.906584	-0.076004
Zr18	Zr	0.709781	0.555892	0.075961
O19	O	0.681447	0.870610	0.047617
O20	O	0.681395	0.870614	-0.168456
O21	O	0.465373	0.870616	0.047622
O22	O	0.802255	0.591856	0.168409
O23	O	0.802204	0.591861	-0.047664
O24	O	0.586181	0.591862	0.168413
O25	O	0.802210	0.731234	-0.047666
O26	O	0.681470	0.731234	0.168410
O27	O	0.586187	0.731236	0.168412
O28	O	0.802232	0.731233	0.047616
O29	O	0.586117	0.980557	-0.168455
O30	O	0.681459	0.481919	0.168412
O31	O	0.802251	0.481916	0.168410
O32	O	0.802222	0.481918	0.047619
O33	O	0.465355	0.980558	-0.047661
O34	O	0.586146	0.980555	-0.047664
O35	O	0.669364	0.649188	0.106641
O36	O	0.740456	0.649187	0.035531
O37	O	0.669337	0.813285	-0.035577
O38	O	0.598246	0.813286	0.035532
C39	C	0.633779	0.511911	-0.000019
C40	C	0.633776	0.437474	-0.000018
C41	C	0.581285	0.326781	-0.052514
C42	C	0.581289	0.256837	-0.052517
C43	C	0.686297	0.135695	0.052474
C44	C	0.686295	0.205639	0.052473
C45	C	0.633785	0.301182	-0.000020
C46	C	0.633792	0.161294	-0.000022
C47	C	0.633797	0.085457	-0.000025
C48	C	0.633780	0.377025	-0.000019
C49	C	0.443704	0.731243	-0.000017
C50	C	0.379191	0.731245	-0.000016
C51	C	0.348876	0.731253	-0.052511
C52	C	0.288264	0.731244	-0.052511
C53	C	0.257961	0.731247	-0.000021
C54	C	0.288286	0.731234	0.052483
C55	C	0.348901	0.731233	0.052486
N56	N	0.139615	0.784735	0.015869
N57	N	0.082032	0.784738	0.015863
C58	C	0.075332	0.731247	-0.000025
N59	N	0.128384	0.677766	-0.015919
N60	N	0.185970	0.677767	-0.015915
C61	C	0.192234	0.731247	-0.000018
C62	C	-0.020706	0.731245	-0.052523
C63	C	-0.081317	0.731230	-0.052518
C64	C	-0.081298	0.731229	0.052474
C65	C	-0.020684	0.731234	0.052472
C66	C	0.009606	0.731246	-0.000030
C67	C	0.823872	0.731233	-0.000025
C68	C	0.888385	0.731231	-0.000027
C69	C	0.633743	0.731242	-0.190105
C70	C	0.633728	0.731243	-0.254617
C71	C	0.633797	0.950565	-0.000024
C72	C	0.633800	1.025002	-0.000025
C73	C	0.596608	0.816898	-0.322039
C74	C	0.596626	0.816899	-0.382655
C75	C	0.633754	0.731241	-0.375846
C76	C	0.670882	0.645575	-0.308413
C77	C	0.670869	0.645576	-0.247798
N78	N	0.628629	0.667482	-0.443401
N79	N	0.628638	0.667486	-0.500984
C80	C	0.633798	0.731232	-0.558472
N81	N	0.638935	0.794988	-0.556206
N82	N	0.638922	0.794986	-0.498618
C83	C	0.633773	0.731230	-0.441568
C84	C	0.596696	0.816895	-0.691623
C85	C	0.596720	0.816893	-0.752239
C86	C	0.670970	0.645565	-0.677994
C87	C	0.670952	0.645570	-0.617380
C88	C	0.633811	0.731237	-0.624199
C89	C	0.633833	0.731234	0.190062
C90	C	0.633849	0.731233	0.254575
C91	C	0.823863	0.511906	-0.000023
C92	C	0.888373	0.437467	-0.000024
C93	C	0.633824	0.511908	0.190065
C94	C	0.633837	0.437469	0.254578
C95	C	0.823909	0.511902	0.190061
C96	C	0.888434	0.437462	0.254573
C97	C	0.443668	0.950574	-0.190103
C98	C	0.379143	1.025014	-0.254615
C99	C	0.443713	0.950570	-0.000020
C100	C	0.379203	1.025009	-0.000019
C101	C	0.633752	0.950569	-0.190107
C102	C	0.633740	1.025007	-0.254621
C103	C	0.881541	0.402511	-0.037147
C104	C	0.942149	0.332577	-0.037162
C105	C	1.009588	0.297596	-0.000048
C106	C	1.016419	0.332558	0.037076
C107	C	0.955812	0.402496	0.037086
C108	C	0.670969	0.402510	0.321997
C109	C	0.670978	0.332577	0.382620
C110	C	0.633858	0.297599	0.375822
C111	C	0.596721	0.332565	0.308396
C112	C	0.596709	0.402501	0.247775
C113	C	0.955851	0.402504	0.247750
C114	C	1.016485	0.332569	0.308360
C115	C	1.009700	0.297588	0.375792
C116	C	0.942276	0.332554	0.382614
C117	C	0.881644	0.402492	0.322004
C118	C	0.311726	1.059981	-0.247792
C119	C	0.251092	1.129938	-0.308402
C120	C	0.257877	1.164922	-0.375835
C121	C	0.325301	1.129952	-0.382656
C122	C	0.385933	1.060001	-0.322047
C123	C	0.386036	1.059972	0.037098
C124	C	0.325428	1.129926	0.037096
C125	C	0.257988	1.164910	-0.000019
C126	C	0.251158	1.129944	-0.037141
C127	C	0.311765	1.059997	-0.037143
C128	C	0.670867	1.059963	-0.247800
C129	C	0.670869	1.129897	-0.308411
C130	C	0.633740	1.164878	-0.375843
C131	C	0.596612	1.129916	-0.382662
C132	C	0.596614	1.059979	-0.322051
H133	H	0.538523	0.404574	-0.095254
F134	F	0.193339	1.239370	-0.440335
F135	F	0.557189	0.439696	0.176023
F136	F	0.963094	0.439686	0.076605
F137	F	0.525412	0.284088	-0.108388
H138	H	-0.105997	0.731231	-0.095264
H139	H	0.729051	0.184787	0.095221
F140	F	0.193490	1.239354	-0.000010
F141	F	0.710384	1.167098	-0.301139
F142	F	0.557219	0.295328	0.301172
H143	H	0.633744	1.221826	-0.425190
H144	H	0.936574	0.304119	-0.067393
F145	F	1.074237	0.223152	0.440293
H146	H	0.701221	0.304116	0.437516
H147	H	0.701196	0.430981	0.327546
H148	H	0.961388	0.430974	0.192848
H149	H	0.330816	1.158445	-0.437567
F150	F	0.742177	0.034010	0.108341
F151	F	0.710492	0.554400	-0.670743
F152	F	0.381114	0.731261	-0.108385
F153	F	0.710448	0.554403	-0.545621
H154	H	0.633874	0.240652	0.425190
F155	F	1.088199	0.295316	0.076574
H156	H	1.058933	0.240647	-0.000062
H157	H	0.263577	0.731251	-0.095260
F158	F	0.256037	0.731232	0.108349
F159	F	0.381166	0.731225	0.108360
H160	H	0.196240	1.158439	-0.067359
F161	F	1.088235	0.295366	0.301085
H162	H	0.003959	0.731251	-0.095271
H163	H	0.566382	1.158409	-0.437573
F164	F	-0.113541	0.731223	0.108341
F165	F	0.011580	0.731232	0.108341
H166	H	0.566368	0.886655	-0.327598
H167	H	0.196199	1.158398	-0.302834
F168	F	0.809895	0.439686	0.329277
F169	F	0.935067	0.295315	0.454386
F170	F	0.557118	0.908069	-0.454421
F171	F	0.304489	1.022760	-0.176032
H172	H	0.306192	1.031532	-0.067366
F173	F	0.457682	1.022789	-0.329319
H174	H	0.566378	1.031525	-0.327615
H175	H	0.440943	1.031494	0.067327
F176	F	0.710398	0.554411	-0.301167
H177	H	0.701096	0.575823	-0.192899
H178	H	0.566455	0.886650	-0.697176
F179	F	0.332712	1.167123	0.076610
F180	F	0.710388	1.022745	-0.176040
H181	H	0.826634	0.430993	-0.067378
H182	H	0.566495	0.886646	-0.807138
