data_functionalizedCrystal
_audit_creation_method	'MofGen! by Chris Wilmer'
_symmetry_space_group_name_H-M	'P1'
_symmetry_Int_Tables_number	1
_symmetry_cell_setting	triclinic
loop_
_symmetry_equiv_pos_as_xyz
  x,y,z
_cell_length_a	16.120484
_cell_length_b	14.908941
_cell_length_c	14.908694
_cell_angle_alpha	90.213236
_cell_angle_beta	96.323893
_cell_angle_gamma	83.951051
loop_
_atom_site_label
_atom_site_type_symbol
_atom_site_fract_x
_atom_site_fract_y
_atom_site_fract_z
Zn1	Zn	-0.281536	-1.389405	-0.445490
Zn2	Zn	0.218464	-0.889405	0.054510
Zn3	Zn	-0.414188	-1.373782	-0.302802
Zn4	Zn	0.085812	-0.873782	0.197198
Zn5	Zn	-0.282502	-1.230322	-0.303864
Zn6	Zn	0.217498	-0.730322	0.196136
Zn7	Zn	-0.430258	-1.231332	-0.462699
Zn8	Zn	0.069742	-0.731332	0.037301
O9	O	-0.352121	-1.306210	-0.378714
O10	O	0.147879	-0.806210	0.121286
O11	O	-0.292002	-1.513525	-0.418916
O12	O	0.207998	-1.013525	0.081084
O13	O	-0.390399	-1.347791	-0.176755
O14	O	0.109601	-0.847791	0.323245
O15	O	-0.165022	-1.257539	-0.315893
O16	O	0.334978	-0.757539	0.184107
O17	O	-0.389462	-1.502047	-0.314084
O18	O	0.110538	-1.002047	0.185916
O19	O	-0.164312	-1.374417	-0.419945
O20	O	0.335688	-0.874417	0.080055
O21	O	-0.293650	-1.242391	-0.177534
O22	O	0.206350	-0.742391	0.322466
O23	O	-0.309232	-1.104263	-0.332580
O24	O	0.190768	-0.604263	0.167420
O25	O	-0.416851	-1.259262	-0.586604
O26	O	0.083149	-0.759262	-0.086604
O27	O	-0.417788	-1.105006	-0.449275
O28	O	0.082212	-0.605006	0.050725
O29	O	-0.307585	-1.375397	-0.573961
O30	O	0.192415	-0.875397	-0.073961
O31	O	-0.533672	-1.348771	-0.330770
O32	O	-0.033672	-0.848771	0.169230
O33	O	-0.545479	-1.244114	-0.448246
O34	O	-0.045479	-0.744114	0.051754
C35	C	-0.365360	-1.071914	-0.392910
C36	C	0.134640	-0.571914	0.107090
C37	C	-0.371044	-0.971681	-0.399006
C38	C	0.128956	-0.471681	0.100994
C39	C	-0.268534	-0.782525	-0.289098
C40	C	0.231466	-0.282525	0.210902
C41	C	-0.273873	-0.688347	-0.294823
C42	C	0.226127	-0.188347	0.205177
C43	C	-0.387063	-0.689146	-0.416175
C44	C	0.112937	-0.189146	0.083825
C45	C	-0.381725	-0.783324	-0.410451
C46	C	0.118275	-0.283324	0.089549
C47	C	-0.322458	-0.830010	-0.346911
C48	C	0.177542	-0.330010	0.153089
C49	C	-0.317116	-0.924190	-0.341191
C50	C	0.182884	-0.424190	0.158809
C51	C	-0.430310	-0.924986	-0.462539
C52	C	0.069690	-0.424986	0.037461
C53	C	-0.435648	-0.830808	-0.468263
C54	C	0.064352	-0.330808	0.031737
C55	C	-0.570003	-1.294882	-0.391279
C56	C	-0.070003	-0.794882	0.108721
C57	C	-0.663211	-1.290120	-0.396679
C58	C	-0.163211	-0.790120	0.103321
C59	C	-0.833863	-1.281432	-0.406557
C60	C	-0.333863	-0.781432	0.093443
C61	C	-0.869531	-1.331151	-0.350875
C62	C	-0.369531	-0.831151	0.149125
C63	C	-0.964487	-1.326317	-0.356371
C64	C	-0.464487	-0.826317	0.143629
C65	C	-0.738898	-1.286265	-0.401062
C66	C	-0.238898	-0.786265	0.098938
C67	C	-0.133388	-1.317608	-0.366118
C68	C	0.366612	-0.817608	0.133882
C69	C	-0.040177	-1.322465	-0.360750
C70	C	0.459823	-0.822465	0.139250
C71	C	-0.363903	-1.319185	-0.613917
C72	C	0.136097	-0.819185	-0.113917
C73	C	-0.368923	-1.324714	-0.714146
C74	C	0.131077	-0.824714	-0.214146
C75	C	-0.338823	-0.541421	-0.364455
C76	C	0.161177	-0.041421	0.135545
C77	C	-0.333134	-0.641655	-0.358360
C78	C	0.166866	-0.141655	0.141640
C79	C	-0.277616	-1.225330	-0.903303
C80	C	0.222384	-0.725330	-0.403303
C81	C	-0.282330	-1.230522	-0.997478
C82	C	0.217670	-0.730522	-0.497478
C83	C	-0.383071	-1.340285	-0.996672
C84	C	0.116929	-0.840285	-0.496672
C85	C	-0.378357	-1.335093	-0.902498
C86	C	0.121643	-0.835093	-0.402498
C87	C	-0.325626	-1.277614	-0.855816
C88	C	0.174374	-0.777614	-0.355816
C89	C	-0.320907	-1.272428	-0.761639
C90	C	0.179093	-0.772428	-0.261639
C91	C	-0.421652	-1.382186	-0.760836
C92	C	0.078348	-0.882186	-0.260836
C93	C	-0.426367	-1.387378	-0.855011
C94	C	0.073633	-0.887378	-0.355011
C95	C	-0.340322	-1.293341	-0.144419
C96	C	0.159678	-0.793341	0.355581
C97	C	-0.335055	-1.287999	-0.044166
C98	C	0.164945	-0.787999	0.455834
H99	H	-0.220267	-0.820539	-0.237372
H100	H	0.279733	-0.320539	0.262628
H101	H	-0.874638	-1.235239	-0.458351
H102	H	-0.374638	-0.735239	0.041649
O103	O	-0.820856	-1.386125	-0.288981
O104	O	-0.320856	-0.886125	0.211019
C105	C	-0.715075	-1.396565	-0.160914
C106	C	-0.215075	-0.896565	0.339086
C107	C	-0.770167	-1.334209	-0.230943
C108	C	-0.270167	-0.834209	0.269057
H109	H	-0.674066	-1.354618	-0.113985
H110	H	-0.174066	-0.854618	0.386015
H111	H	-0.756871	-1.433217	-0.119785
H112	H	-0.256871	-0.933217	0.380215
H113	H	-0.673459	-1.448040	-0.197178
H114	H	-0.173459	-0.948040	0.302822
H115	H	-0.811790	-1.282683	-0.194752
H116	H	-0.311790	-0.782683	0.305248
H117	H	-0.728321	-1.297623	-0.272069
H118	H	-0.228321	-0.797623	0.227931
O119	O	-0.259636	-0.969493	-0.279347
O120	O	0.240364	-0.469493	0.220653
C121	C	-0.209388	-0.991904	-0.121917
C122	C	0.290612	-0.491904	0.378083
C123	C	-0.274543	-0.940553	-0.191863
C124	C	0.225457	-0.440553	0.308137
H125	H	-0.221407	-0.968513	-0.051172
H126	H	0.278593	-0.468513	0.448828
H127	H	-0.214832	-1.067379	-0.127676
H128	H	0.285168	-0.567379	0.372324
H129	H	-0.143643	-0.977793	-0.135133
H130	H	0.356357	-0.477793	0.364867
H131	H	-0.340317	-0.954591	-0.178692
H132	H	0.159683	-0.454591	0.321308
H133	H	-0.269025	-0.865095	-0.186087
H134	H	0.230975	-0.365095	0.313913
O135	O	-0.269676	-1.216517	-0.716434
O136	O	0.230324	-0.716517	-0.216434
C137	C	-0.170225	-1.108225	-0.727174
C138	C	0.329775	-0.608225	-0.227174
C139	C	-0.228222	-1.171496	-0.778479
C140	C	0.271778	-0.671496	-0.278479
H141	H	-0.136681	-1.071822	-0.777313
H142	H	0.363319	-0.571822	-0.277313
H143	H	-0.209154	-1.056582	-0.688185
H144	H	0.290846	-0.556582	-0.188185
H145	H	-0.121858	-1.149484	-0.678026
H146	H	0.378142	-0.649484	-0.178026
H147	H	-0.276600	-1.130311	-0.827672
H148	H	0.223400	-0.630311	-0.327672
H149	H	-0.189238	-1.223140	-0.817408
H150	H	0.310762	-0.723140	-0.317408
O151	O	-0.226381	-1.169424	-0.858094
O152	O	0.273619	-0.669424	-0.358094
C153	C	-0.126916	-1.061146	-0.868824
C154	C	0.373084	-0.561146	-0.368824
C155	C	-0.184918	-1.124408	-0.920134
C156	C	0.315082	-0.624408	-0.420134
H157	H	-0.093364	-1.024748	-0.918959
H158	H	0.406636	-0.524748	-0.418959
H159	H	-0.165841	-1.009500	-0.829835
H160	H	0.334159	-0.509500	-0.329835
H161	H	-0.078555	-1.102412	-0.819674
H162	H	0.421445	-0.602412	-0.319674
H163	H	-0.233289	-1.083216	-0.969329
H164	H	0.266711	-0.583216	-0.469329
H165	H	-0.145937	-1.176056	-0.959062
H166	H	0.354063	-0.676056	-0.459062
H167	H	-0.243235	-1.187946	-1.036138
H168	H	0.256765	-0.687946	-0.536138
O169	O	-0.482814	-0.971008	-0.518670
O170	O	0.017186	-0.471008	-0.018670
C171	C	-0.626062	-0.994876	-0.568647
C172	C	-0.126062	-0.494876	-0.068647
C173	C	-0.566705	-0.942676	-0.505046
C174	C	-0.066705	-0.442676	-0.005046
H175	H	-0.693900	-0.972004	-0.557641
H176	H	-0.193900	-0.472004	-0.057641
H177	H	-0.616198	-0.981121	-0.641684
H178	H	-0.116198	-0.481121	-0.141684
H179	H	-0.612022	-1.070206	-0.553657
H180	H	-0.112022	-0.570206	-0.053657
H181	H	-0.580709	-0.867332	-0.519955
H182	H	-0.080709	-0.367332	-0.019955
H183	H	-0.576581	-0.956507	-0.432029
H184	H	-0.076581	-0.456507	0.067971
O185	O	-0.434233	-1.396083	-1.042165
O186	O	0.065767	-0.896083	-0.542165
C187	C	-0.486211	-1.452640	-1.186904
C188	C	0.013789	-0.952640	-0.686904
C189	C	-0.428214	-1.389437	-1.135494
C190	C	0.071786	-0.889437	-0.635494
H191	H	-0.481377	-1.447274	-1.262370
H192	H	0.018623	-0.947274	-0.762370
H193	H	-0.466463	-1.525133	-1.163219
H194	H	0.033537	-1.025133	-0.663219
H195	H	-0.553782	-1.432256	-1.173177
H196	H	-0.053782	-0.932256	-0.673177
H197	H	-0.360626	-1.409739	-1.149196
H198	H	0.139374	-0.909739	-0.649196
H199	H	-0.448032	-1.316959	-1.159186
H200	H	0.051968	-0.816959	-0.659186
O201	O	-0.477516	-1.443192	-0.900497
O202	O	0.022484	-0.943192	-0.400497
C203	C	-0.529468	-1.499794	-1.045226
C204	C	-0.029468	-0.999794	-0.545226
C205	C	-0.471494	-1.436560	-0.993827
C206	C	0.028506	-0.936560	-0.493827
H207	H	-0.524632	-1.494439	-1.120693
H208	H	-0.024632	-0.994439	-0.620693
H209	H	-0.509701	-1.572278	-1.021525
H210	H	-0.009701	-1.072278	-0.521525
H211	H	-0.597044	-1.479427	-1.031506
H212	H	-0.097044	-0.979427	-0.531506
H213	H	-0.403901	-1.456845	-1.007522
H214	H	0.096099	-0.956845	-0.507522
H215	H	-0.491332	-1.364091	-1.017534
H216	H	0.008668	-0.864091	-0.517534
H217	H	-0.460743	-1.424763	-0.722162
H218	H	0.039257	-0.924763	-0.222162
H219	H	-0.229962	-0.649689	-0.247747
H220	H	0.270038	-0.149689	0.252253
O221	O	-0.493143	-0.785317	-0.529959
O222	O	0.006857	-0.285317	-0.029959
C223	C	-0.551566	-0.640582	-0.592525
C224	C	-0.051566	-0.140582	-0.092525
C225	C	-0.486403	-0.691986	-0.522625
C226	C	0.013597	-0.191986	-0.022625
H227	H	-0.546151	-0.565113	-0.586606
H228	H	-0.046151	-0.065113	-0.086606
H229	H	-0.539533	-0.663816	-0.663315
H230	H	-0.039533	-0.163816	-0.163315
H231	H	-0.617305	-0.654764	-0.579358
H232	H	-0.117305	-0.154764	-0.079358
H233	H	-0.420639	-0.677828	-0.535707
H234	H	0.079361	-0.177828	-0.035707
H235	H	-0.498510	-0.668744	-0.451858
H236	H	0.001490	-0.168744	0.048142
H237	H	-0.435323	-0.651117	-0.467898
H238	H	0.064677	-0.151117	0.032102
