data_functionalizedCrystal
_audit_creation_method	'MofGen! by Chris Wilmer'
_symmetry_space_group_name_H-M	'P1'
_symmetry_Int_Tables_number	1
_symmetry_cell_setting	triclinic
loop_
_symmetry_equiv_pos_as_xyz
  x,y,z
_cell_length_a	13.930277
_cell_length_b	14.971486
_cell_length_c	14.971494
_cell_angle_alpha	96.384157
_cell_angle_beta	90.002835
_cell_angle_gamma	89.997740
loop_
_atom_site_label
_atom_site_type_symbol
_atom_site_fract_x
_atom_site_fract_y
_atom_site_fract_z
O1	O	0.079717	-1.186952	0.116562
O2	O	0.079742	-0.926552	0.130520
O3	O	0.079727	-1.063727	-0.006659
O4	O	0.079732	-1.049776	0.253741
O5	O	-0.079935	-1.063708	-0.006662
O6	O	-0.079919	-0.926533	0.130517
O7	O	-0.079945	-1.186933	0.116559
Zn8	Zn	-0.105282	-1.056730	0.123538
Zn9	Zn	0.105079	-1.056755	0.123541
O10	O	-0.079929	-1.049757	0.253738
C11	C	-0.000085	-0.893218	0.129895
C12	C	-0.000075	-0.793921	0.128024
N13	N	-0.248848	-1.056719	0.123534
C14	C	-0.000103	-1.063093	-0.039985
C15	C	-0.000098	-1.061219	-0.139281
C16	C	-0.701110	-0.996011	0.184260
C17	C	-0.701094	-1.117523	0.062816
C18	C	-0.600598	-1.117513	0.062813
C19	C	-0.550354	-1.056751	0.123536
C20	C	-0.600605	-0.996001	0.184261
C21	C	-0.550339	-1.178268	0.002094
C22	C	-0.449837	-1.178261	0.002090
C23	C	-0.399591	-1.117494	0.062809
C24	C	-0.449849	-1.056741	0.123536
C25	C	-0.399605	-0.995979	0.184259
C26	C	-0.449861	-0.935221	0.244983
C27	C	-0.550359	-0.935234	0.244981
C28	C	-0.299092	-1.117481	0.062811
C29	C	-0.299100	-0.995969	0.184260
N30	N	0.248645	-1.056773	0.123538
C31	C	-0.000115	-1.220267	0.117184
C32	C	-0.000119	-1.319564	0.119055
C33	C	-0.000075	-0.736698	0.208613
C34	C	-0.000089	-0.643398	0.206850
C35	C	-0.000097	-0.607323	0.124497
C36	C	-0.000100	-0.664554	0.043902
C37	C	-0.000093	-0.757851	0.045666
C38	C	-0.000114	-0.470091	0.040231
C39	C	-0.000119	-0.376787	0.038466
C40	C	-0.000110	-0.355638	0.201415
C41	C	-0.000103	-0.448936	0.203179
C42	C	-0.000104	-0.506159	0.122583
C43	C	0.086935	-1.060351	-0.185924
C44	C	0.086936	-1.058585	-0.279224
C45	C	-0.000096	-1.057693	-0.325879
C46	C	-0.087136	-1.058558	-0.279229
C47	C	-0.087136	-1.060318	-0.185930
C48	C	-0.087129	-1.054892	-0.473692
C49	C	-0.087129	-1.053134	-0.566997
C50	C	0.086943	-1.053159	-0.566985
C51	C	0.086943	-1.054919	-0.473687
C52	C	-0.000097	-1.055786	-0.427043
C53	C	-0.000098	-1.050392	0.287064
C54	C	-0.000096	-1.052266	0.386360
H55	H	-0.408940	-0.885752	0.294428
O56	O	-0.000117	-0.625651	-0.044925
H57	H	0.064959	-0.583655	-0.049634
H58	H	-0.157999	-1.052400	-0.604980
O59	O	0.180820	-1.057635	-0.329511
H60	H	0.184998	-1.117739	-0.379935
O61	O	-0.181006	-1.057592	-0.329550
H62	H	-0.241526	-1.058482	-0.281437
H63	H	0.157814	-1.052451	-0.604966
O64	O	-0.181006	-1.061264	-0.135616
H65	H	-0.241526	-1.060358	-0.183732
H66	H	-0.258197	-0.946486	0.233705
O67	O	-0.000097	-0.487839	0.292006
H68	H	0.064985	-0.529831	0.296713
H69	H	-0.000093	-0.804442	-0.019958
H70	H	-0.591284	-0.885768	0.294421
H71	H	0.157813	-1.055652	-0.435704
H72	H	-0.158006	-1.055578	-0.435715
O73	O	-0.000146	-0.337871	-0.050354
H74	H	0.064918	-0.360850	-0.089100
H75	H	-0.591251	-1.227743	-0.047340
H76	H	-0.742031	-0.946540	0.233699
H77	H	-0.742006	-1.166998	0.013381
O78	O	-0.395633	-1.243779	-0.063410
H79	H	-0.447457	-1.286025	-0.105639
H80	H	-0.258178	-1.166953	0.013375
H81	H	-0.000068	-0.766062	0.275674
H82	H	-0.000088	-0.596810	0.272473
H83	H	-0.000113	-0.309041	0.267038
H84	H	-0.000116	-0.516681	-0.025399
H85	H	0.157807	-1.061082	-0.147945
