data_functionalizedCrystal
_audit_creation_method	'MofGen! by Chris Wilmer'
_symmetry_space_group_name_H-M	'P1'
_symmetry_Int_Tables_number	1
_symmetry_cell_setting	triclinic
loop_
_symmetry_equiv_pos_as_xyz
  x,y,z
_cell_length_a	18.101398
_cell_length_b	18.101395
_cell_length_c	18.101389
_cell_angle_alpha	89.979213
_cell_angle_beta	89.987605
_cell_angle_gamma	90.029256
loop_
_atom_site_label
_atom_site_type_symbol
_atom_site_fract_x
_atom_site_fract_y
_atom_site_fract_z
Zn1	Zn	1.132107	-0.294915	-0.418650
Zn2	Zn	1.632107	0.205085	0.081350
Zn3	Zn	1.132007	-0.418749	-0.294812
Zn4	Zn	1.632007	0.081251	0.205188
Zn5	Zn	1.008270	-0.294922	-0.294832
Zn6	Zn	1.508270	0.205078	0.205168
Zn7	Zn	1.008216	-0.418715	-0.418622
Zn8	Zn	1.508216	0.081285	0.081378
O9	O	1.070150	-0.356825	-0.356729
O10	O	1.570150	0.143175	0.143271
O11	O	1.235726	-0.311353	-0.402225
O12	O	1.735726	0.188647	0.097775
O13	O	1.115573	-0.402340	-0.191181
O14	O	1.615573	0.097660	0.308819
O15	O	1.024761	-0.191288	-0.311277
O16	O	1.524761	0.308712	0.188723
O17	O	1.235653	-0.402334	-0.311242
O18	O	1.735653	0.097666	0.188758
O19	O	1.115744	-0.191283	-0.402245
O20	O	1.615744	0.308717	0.097755
O21	O	1.024664	-0.311365	-0.191197
O22	O	1.524664	0.188635	0.308803
O23	O	0.904630	-0.311332	-0.311250
O24	O	1.404630	0.188668	0.188750
O25	O	1.024670	-0.402276	-0.522258
O26	O	1.524670	0.097724	-0.022258
O27	O	0.904591	-0.402283	-0.402198
O28	O	1.404591	0.097717	0.097802
O29	O	1.115692	-0.311320	-0.522279
O30	O	1.615692	0.188680	-0.022279
O31	O	1.115522	-0.522378	-0.311215
O32	O	1.615522	-0.022378	0.188785
O33	O	1.024573	-0.522353	-0.402178
O34	O	1.524573	-0.022353	0.097822
C35	C	0.877739	-0.356805	-0.356724
C36	C	1.377739	0.143195	0.143276
C37	C	0.795425	-0.356814	-0.356739
C38	C	1.295425	0.143186	0.143261
C39	C	1.070051	-0.549236	-0.356707
C40	C	1.570051	-0.049236	0.143293
C41	C	1.070076	-0.631550	-0.356722
C42	C	1.570076	-0.131550	0.143278
C43	C	0.644717	-0.356828	-0.356738
C44	C	1.144717	0.143172	0.143262
C45	C	0.613363	-0.414139	-0.413871
C46	C	1.113363	0.085861	0.086129
C47	C	0.527745	-0.414371	-0.413702
C48	C	1.027745	0.085629	0.086298
C49	C	0.496334	-0.356842	-0.356738
C50	C	0.996334	0.143158	0.143262
C51	C	0.527390	-0.377660	-0.278597
C52	C	1.027390	0.122340	0.221403
C53	C	0.613035	-0.378068	-0.278927
C54	C	1.113035	0.121932	0.221073
C55	C	0.613195	-0.278556	-0.377064
C56	C	1.113195	0.221444	0.122936
C57	C	0.527545	-0.278985	-0.378785
C58	C	1.027545	0.221015	0.121215
C59	C	0.412475	-0.356848	-0.356733
C60	C	0.912475	0.143152	0.143267
C61	C	0.728576	-0.356823	-0.356737
C62	C	1.228576	0.143177	0.143263
C63	C	1.070239	-0.930641	-0.356762
C64	C	1.570239	-0.430641	0.143238
C65	C	1.013149	-0.899331	-0.414136
C66	C	1.513149	-0.399331	0.085864
C67	C	1.012878	-0.813713	-0.413956
C68	C	1.512878	-0.313713	0.086044
C69	C	1.070158	-0.782258	-0.356743
C70	C	1.570158	-0.282258	0.143257
C71	C	1.049032	-0.813400	-0.278695
C72	C	1.549032	-0.313400	0.221305
C73	C	1.048664	-0.899045	-0.279039
C74	C	1.548664	-0.399045	0.220961
C75	C	1.148580	-0.898989	-0.376750
C76	C	1.648580	-0.398989	0.123250
C77	C	1.148119	-0.813339	-0.378461
C78	C	1.648119	-0.313339	0.121539
C79	C	1.070114	-0.698399	-0.356728
C80	C	1.570114	-0.198399	0.143272
C81	C	1.070281	-1.014500	-0.356773
C82	C	1.570281	-0.514500	0.143227
C83	C	1.263312	-0.356846	-0.356734
C84	C	1.763312	0.143154	0.143266
C85	C	1.345626	-0.356855	-0.356737
C86	C	1.845626	0.143145	0.143263
C87	C	1.070186	-0.356793	-0.549891
C88	C	1.570186	0.143207	-0.049891
C89	C	1.070202	-0.356780	-0.632205
C90	C	1.570202	0.143220	-0.132205
C91	C	1.070270	-0.163663	-0.356767
C92	C	1.570270	0.336337	0.143233
C93	C	1.070321	-0.081349	-0.356783
C94	C	1.570321	0.418651	0.143217
C95	C	1.070229	-0.356722	-0.782913
C96	C	1.570229	0.143278	-0.282913
C97	C	1.012970	-0.413937	-0.814254
C98	C	1.512970	0.086063	-0.314254
C99	C	1.012762	-0.413736	-0.899873
C100	C	1.512762	0.086264	-0.399873
C101	C	1.070257	-0.356667	-0.931296
C102	C	1.570257	0.143333	-0.431296
C103	C	1.049370	-0.278571	-0.900213
C104	C	1.549370	0.221429	-0.400213
C105	C	1.048938	-0.278934	-0.814568
C106	C	1.548938	0.221066	-0.314568
C107	C	1.148526	-0.376908	-0.814475
C108	C	1.648526	0.123092	-0.314475
C109	C	1.148122	-0.378597	-0.900126
C110	C	1.648122	0.121403	-0.400126
C111	C	1.070273	-0.356630	-1.015156
C112	C	1.570273	0.143370	-0.515156
C113	C	1.070211	-0.356753	-0.699054
C114	C	1.570211	0.143247	-0.199054
C115	C	1.070156	-0.356804	-0.164318
C116	C	1.570156	0.143196	0.335682
C117	C	1.070285	-0.356609	-0.082005
C118	C	1.570285	0.143391	0.417995
H119	H	0.506748	-0.401386	-0.471633
H120	H	1.006748	0.098614	0.028367
C121	C	1.030364	-0.491956	-0.928267
C122	C	1.530364	0.008044	-0.428267
H123	H	1.037704	-0.524143	-0.887459
H124	H	1.537704	-0.024143	-0.387459
H125	H	1.073915	-0.490543	-0.957523
H126	H	1.573915	0.009457	-0.457523
H127	H	0.990316	-0.509448	-0.957327
H128	H	1.490316	-0.009448	-0.457327
H129	H	0.991397	-0.919085	-0.262107
H130	H	1.491397	-0.419085	0.237893
H131	H	0.507045	-0.337196	-0.234859
H132	H	1.007045	0.162804	0.265141
H133	H	0.505911	-0.434242	-0.261125
H134	H	1.005911	0.065758	0.238875
C135	C	0.642371	-0.252875	-0.452760
C136	C	1.142371	0.247125	0.047240
H137	H	0.674056	-0.289652	-0.472676
H138	H	1.174056	0.210348	0.027324
H139	H	0.669069	-0.208056	-0.446979
H140	H	1.169069	0.291944	0.053021
H141	H	0.601975	-0.245096	-0.485338
H142	H	1.101975	0.254904	0.014662
C143	C	1.102385	-0.927032	-0.219313
C144	C	1.602385	-0.427032	0.280687
H145	H	1.124332	-0.886057	-0.194944
H146	H	1.624332	-0.386057	0.305056
H147	H	1.139835	-0.956147	-0.241730
H148	H	1.639835	-0.456147	0.258270
H149	H	1.076116	-0.956148	-0.184406
H150	H	1.576116	-0.456148	0.315594
C151	C	1.030361	-0.492428	-0.786441
C152	C	1.530361	0.007572	-0.286441
H153	H	0.995181	-0.526124	-0.805983
H154	H	1.495181	-0.026124	-0.305983
H155	H	1.028163	-0.493318	-0.734015
H156	H	1.528163	0.006682	-0.234015
H157	H	1.078471	-0.506270	-0.802177
H158	H	1.578471	-0.006270	-0.302177
H159	H	0.633473	-0.235859	-0.335455
H160	H	1.133473	0.264141	0.164545
C161	C	1.102844	-0.219364	-0.786552
C162	C	1.602844	0.280636	-0.286552
H163	H	1.102949	-0.219185	-0.734068
H164	H	1.602949	0.280815	-0.234068
H165	H	1.087665	-0.172330	-0.804192
H166	H	1.587665	0.327670	-0.304192
H167	H	1.151180	-0.229834	-0.804105
H168	H	1.651180	0.270166	-0.304105
C169	C	1.208620	-0.784424	-0.326117
C170	C	1.708620	-0.284424	0.173883
H171	H	1.187028	-0.752881	-0.290169
H172	H	1.687028	-0.252881	0.209831
H173	H	1.244333	-0.757627	-0.353728
H174	H	1.744333	-0.257627	0.146272
H175	H	1.231813	-0.824935	-0.302141
H176	H	1.731813	-0.324935	0.197859
C177	C	0.935179	-0.928485	-0.396486
C178	C	1.435179	-0.428485	0.103514
H179	H	0.901029	-0.909309	-0.431413
H180	H	1.401029	-0.409309	0.068587
H181	H	0.921295	-0.913233	-0.348236
H182	H	1.421295	-0.413233	0.151764
H183	H	0.935112	-0.980910	-0.398935
H184	H	1.435112	-0.480910	0.101065
H185	H	1.089305	-0.793026	-0.234783
H186	H	1.589305	-0.293026	0.265217
C187	C	1.206044	-0.926339	-0.320306
C188	C	1.706044	-0.426339	0.179694
H189	H	1.253268	-0.907027	-0.332669
H190	H	1.753268	-0.407027	0.167331
H191	H	1.207795	-0.978780	-0.321140
H192	H	1.707795	-0.478780	0.178860
H193	H	1.192518	-0.910070	-0.272282
H194	H	1.692518	-0.410070	0.227718
C195	C	0.934401	-0.395631	-0.927561
C196	C	1.434401	0.104369	-0.427561
H197	H	0.902573	-0.388363	-0.886466
H198	H	1.402573	0.111637	-0.386466
H199	H	0.916498	-0.435428	-0.956704
H200	H	1.416498	0.064572	-0.456704
H201	H	0.935788	-0.351916	-0.956587
H202	H	1.435788	0.148084	-0.456587
C203	C	0.971633	-0.255874	-0.787583
C204	C	1.471633	0.244126	-0.287583
H205	H	0.940787	-0.246376	-0.828963
H206	H	1.440787	0.253624	-0.328963
H207	H	0.975548	-0.212476	-0.758352
H208	H	1.475548	0.287524	-0.258352
H209	H	0.950865	-0.294556	-0.758798
H210	H	1.450865	0.205444	-0.258798
C211	C	1.206159	-0.320622	-0.787094
C212	C	1.706159	0.179378	-0.287094
H213	H	1.253356	-0.333105	-0.806352
H214	H	1.753356	0.166895	-0.306352
H215	H	1.207870	-0.321474	-0.734651
H216	H	1.707870	0.178526	-0.234651
H217	H	1.192807	-0.272559	-0.803399
H218	H	1.692807	0.227441	-0.303399
H219	H	0.955284	-0.400719	-0.792735
H220	H	1.455284	0.099281	-0.292735
C221	C	0.500121	-0.257759	-0.456466
C222	C	1.000121	0.242241	0.043534
H223	H	0.469774	-0.296177	-0.475388
H224	H	0.969774	0.203823	0.024612
H225	H	0.541288	-0.250685	-0.488250
H226	H	1.041288	0.249315	0.011750
H227	H	0.472362	-0.213320	-0.453678
H228	H	0.972362	0.286680	0.046322
C229	C	1.103987	-0.219381	-0.927712
C230	C	1.603987	0.280619	-0.427712
H231	H	1.140097	-0.241824	-0.958470
H232	H	1.640097	0.258176	-0.458470
H233	H	1.127578	-0.196890	-0.886590
H234	H	1.627578	0.303110	-0.386590
H235	H	1.077977	-0.182917	-0.955056
H236	H	1.577977	0.317083	-0.455056
H237	H	0.634852	-0.471810	-0.400549
H238	H	1.134852	0.028190	0.099451
C239	C	0.972925	-0.255077	-0.929188
C240	C	1.472925	0.244923	-0.429188
H241	H	0.953636	-0.292751	-0.960218
H242	H	1.453636	0.207249	-0.460218
H243	H	0.977532	-0.210517	-0.956544
H244	H	1.477532	0.289483	-0.456544
H245	H	0.940440	-0.247486	-0.888673
H246	H	1.440440	0.252514	-0.388673
H247	H	1.163875	-0.436073	-0.920439
H248	H	1.663875	0.063927	-0.420439
C249	C	0.972484	-0.784520	-0.255413
C250	C	1.472484	-0.284520	0.244587
H251	H	0.953299	-0.753493	-0.293146
H252	H	1.453299	-0.253493	0.206854
H253	H	0.976916	-0.757182	-0.210847
H254	H	1.476916	-0.257182	0.289153
H255	H	0.940006	-0.825076	-0.247899
H256	H	1.440006	-0.325076	0.252101
C257	C	1.208820	-0.326409	-0.929009
C258	C	1.708820	0.173591	-0.429009
H259	H	1.187372	-0.290398	-0.960592
H260	H	1.687372	0.209602	-0.460592
H261	H	1.244457	-0.354112	-0.955756
H262	H	1.744457	0.145888	-0.455756
H263	H	1.232068	-0.302502	-0.888489
H264	H	1.732068	0.197498	-0.388489
H265	H	0.954810	-0.793286	-0.400717
H266	H	1.454810	-0.293286	0.099283
H267	H	0.507223	-0.472375	-0.400217
H268	H	1.007223	0.027625	0.099783
C269	C	1.030818	-0.927097	-0.492572
C270	C	1.530818	-0.427097	0.007428
H271	H	0.995735	-0.907576	-0.526365
H272	H	1.495735	-0.407576	-0.026365
H273	H	1.028657	-0.979524	-0.493448
H274	H	1.528657	-0.479524	0.006552
H275	H	1.078963	-0.911309	-0.506298
H276	H	1.578963	-0.411309	-0.006298
C277	C	0.639980	-0.455347	-0.255728
C278	C	1.139980	0.044653	0.244272
H279	H	0.598584	-0.486198	-0.246194
H280	H	1.098584	0.013802	0.253806
H281	H	0.669203	-0.451389	-0.212325
H282	H	1.169203	0.048611	0.287675
H283	H	0.668765	-0.476139	-0.294364
H284	H	1.168765	0.023861	0.205636
H285	H	0.633982	-0.401305	-0.471982
H286	H	1.133982	0.098695	0.028018
C287	C	1.174270	-0.452559	-0.785303
C288	C	1.674270	0.047441	-0.285303
H289	H	1.137504	-0.472542	-0.753598
H290	H	1.637504	0.027458	-0.253598
H291	H	1.219075	-0.446688	-0.758624
H292	H	1.719075	0.053312	-0.258624
H293	H	1.182096	-0.485126	-0.825694
H294	H	1.682096	0.014874	-0.325694
H295	H	0.633776	-0.338108	-0.234898
H296	H	1.133776	0.161892	0.265102
C297	C	1.174601	-0.928102	-0.452324
C298	C	1.674601	-0.428102	0.047676
H299	H	1.137925	-0.959835	-0.472395
H300	H	1.637925	-0.459835	0.027605
H301	H	1.219404	-0.954737	-0.446326
H302	H	1.719404	-0.454737	0.053674
H303	H	1.182508	-0.887689	-0.484882
H304	H	1.682508	-0.387689	0.015118
H305	H	0.506165	-0.234031	-0.340239
H306	H	1.006165	0.265969	0.159761
C307	C	1.169651	-0.785831	-0.456049
C308	C	1.669651	-0.285831	0.043951
H309	H	1.131297	-0.755528	-0.475132
H310	H	1.631297	-0.255528	0.024868
H311	H	1.176873	-0.826966	-0.487807
H312	H	1.676873	-0.326966	0.012193
H313	H	1.214066	-0.758009	-0.453071
H314	H	1.714066	-0.258009	0.046929
H315	H	1.026095	-0.792656	-0.471828
H316	H	1.526095	-0.292656	0.028172
