data_functionalizedCrystal
_audit_creation_method	'MofGen! by Chris Wilmer'
_symmetry_space_group_name_H-M	'P1'
_symmetry_Int_Tables_number	1
_symmetry_cell_setting	triclinic
loop_
_symmetry_equiv_pos_as_xyz
  x,y,z
_cell_length_a	11.026660
_cell_length_b	14.185328
_cell_length_c	10.908937
_cell_angle_alpha	72.787350
_cell_angle_beta	95.664605
_cell_angle_gamma	101.510593
loop_
_atom_site_label
_atom_site_type_symbol
_atom_site_fract_x
_atom_site_fract_y
_atom_site_fract_z
O1	O	1.524937	0.083422	-0.543993
O2	O	1.183438	0.083423	-0.485495
O3	O	1.399455	0.083419	-0.338276
O4	O	1.308920	0.083425	-0.691212
O5	O	1.362532	-0.083425	-0.277764
O6	O	1.146515	-0.083421	-0.424983
O7	O	1.488014	-0.083422	-0.483480
Cu8	Cu	1.313893	-0.098655	-0.448706
Cu9	Cu	1.357559	0.098656	-0.520269
O10	O	1.271997	-0.083418	-0.630700
C11	C	1.121944	0.000001	-0.444447
C12	C	0.993723	0.000001	-0.412276
N13	N	1.283190	-0.237434	-0.398374
C14	C	0.769465	0.000006	-0.467870
C15	C	0.901988	0.000004	-0.501122
C16	C	1.478379	-0.605037	-0.718484
C17	C	1.455153	-0.710064	-0.680345
C18	C	1.344589	-0.710052	-0.498943
C19	C	1.367801	-0.605022	-0.537070
C20	C	1.434698	-0.552523	-0.646840
C21	C	1.324120	-0.552509	-0.465426
C22	C	1.347336	-0.447489	-0.503547
C23	C	1.414233	-0.394982	-0.613311
C24	C	1.457914	-0.447503	-0.684961
C25	C	1.257230	-0.605010	-0.355651
C26	C	1.213549	-0.552496	-0.284007
C27	C	1.236757	-0.447474	-0.322133
C28	C	1.303655	-0.394968	-0.431897
C29	C	1.193077	-0.394953	-0.250483
C30	C	1.216293	-0.289933	-0.288603
C31	C	1.326871	-0.289948	-0.470017
C32	C	1.549509	0.000002	-0.524529
C33	C	1.677731	0.000008	-0.556703
C34	C	1.389455	-0.000002	-0.262135
C35	C	1.414653	0.000002	-0.125409
N36	N	1.388273	0.237435	-0.570594
C37	C	1.281998	0.000005	-0.706841
C38	C	1.256801	0.000007	-0.843570
C39	C	1.348743	0.000006	0.086166
C40	C	1.322698	0.000004	-0.055147
H41	H	0.749889	-0.000011	-0.367193
H42	H	0.921552	-0.000001	-0.601798
H43	H	1.446739	0.000001	0.130631
H44	H	0.974173	0.000066	-0.311621
H45	H	1.224693	-0.000003	-0.099602
H46	H	0.697303	0.000003	-0.657372
H47	H	1.381330	-0.247200	-0.559414
H48	H	1.433138	-0.309468	-0.644345
H49	H	1.158803	0.000000	0.111970
H50	H	1.512373	-0.404755	-0.774358
H51	H	1.532838	-0.562289	-0.807880
F52	F	1.501656	-0.765950	-0.756603
H53	H	1.512656	-0.000001	-0.080953
H54	H	1.290125	-0.752811	-0.409563
F55	F	1.232533	-0.716783	-0.315074
F56	F	1.142354	-0.608380	-0.167184
H57	H	1.138619	-0.437713	-0.161099
F58	F	1.169825	-0.234041	-0.212337
