data_functionalizedCrystal
_audit_creation_method	'MofGen! by Chris Wilmer'
_symmetry_space_group_name_H-M	'P1'
_symmetry_Int_Tables_number	1
_symmetry_cell_setting	triclinic
loop_
_symmetry_equiv_pos_as_xyz
  x,y,z
_cell_length_a	23.196402
_cell_length_b	23.196402
_cell_length_c	23.196401
_cell_angle_alpha	60.008822
_cell_angle_beta	90.011712
_cell_angle_gamma	60.000268
loop_
_atom_site_label
_atom_site_type_symbol
_atom_site_fract_x
_atom_site_fract_y
_atom_site_fract_z
Zr1	Zr	0.555361	0.631008	-0.075647
O2	O	0.463292	0.751273	-0.167690
O3	O	0.583583	0.510742	-0.047434
O4	O	0.583557	0.631009	-0.167699
O5	O	0.463340	0.631004	0.047447
O6	O	0.678427	0.631011	-0.167703
O7	O	0.463318	0.631006	-0.047425
O8	O	0.678473	0.415875	0.047430
O9	O	0.463295	0.846140	-0.167686
O10	O	0.666422	0.560210	-0.035400
O11	O	0.595639	0.560208	0.035404
O12	O	0.595609	0.701807	-0.106193
O13	O	0.524825	0.701805	-0.035389
Zr14	Zr	0.706704	0.631008	0.075657
Zr15	Zr	0.706668	0.631010	-0.075652
Zr16	Zr	0.555397	0.631005	0.075662
Zr17	Zr	0.555365	0.782310	-0.075640
Zr18	Zr	0.706700	0.479705	0.075650
O19	O	0.678482	0.751273	0.047444
O20	O	0.678431	0.751276	-0.167697
O21	O	0.463344	0.751269	0.047452
O22	O	0.798773	0.510742	0.167700
O23	O	0.798721	0.510746	-0.047442
O24	O	0.583634	0.510739	0.167708
O25	O	0.798725	0.631011	-0.047436
O26	O	0.678508	0.631006	0.167710
O27	O	0.583638	0.631004	0.167713
O28	O	0.798747	0.631009	0.047435
O29	O	0.583563	0.846142	-0.167690
O30	O	0.678502	0.415873	0.167700
O31	O	0.798770	0.415875	0.167696
O32	O	0.798741	0.415877	0.047426
O33	O	0.463323	0.846138	-0.047416
O34	O	0.583592	0.846140	-0.047420
O35	O	0.666456	0.560208	0.106203
O36	O	0.737239	0.560210	0.035399
O37	O	0.666426	0.701807	-0.035394
O38	O	0.595643	0.701805	0.035410
C39	C	0.631027	0.441751	-0.000003
C40	C	0.631025	0.377519	-0.000006
C41	C	0.667969	0.347350	-0.036967
C42	C	0.667976	0.286989	-0.036962
C43	C	0.631025	0.256811	-0.000004
C44	C	0.594080	0.286985	0.036966
C45	C	0.594080	0.347339	0.036965
C46	C	0.569120	0.194781	-0.005276
C47	C	0.569118	0.134432	-0.005280
C48	C	0.631026	0.070656	0.000003
C49	C	0.692936	0.067246	0.005277
C50	C	0.692936	0.127600	0.005276
C51	C	0.631022	0.191367	0.000002
C52	C	0.667980	-0.024964	-0.036954
C53	C	0.667989	-0.085330	-0.036943
C54	C	0.594087	-0.085327	0.036980
C55	C	0.594085	-0.024969	0.036974
C56	C	0.631030	0.005212	0.000003
C57	C	0.441771	0.631005	0.000012
C58	C	0.377537	0.631004	0.000014
C59	C	0.384326	0.557094	0.036960
C60	C	0.323972	0.557093	0.036963
C61	C	0.256829	0.631006	0.000006
C62	C	0.250043	0.704925	-0.036942
C63	C	0.310397	0.704924	-0.036938
C64	C	0.132887	0.687634	-0.061903
C65	C	0.072535	0.687632	-0.061908
C66	C	0.070675	0.631012	-0.000005
C67	C	0.129181	0.574380	0.061904
C68	C	0.189535	0.574379	0.061908
C69	C	0.191381	0.631015	-0.000002
C70	C	0.012023	0.557096	0.036948
C71	C	-0.048334	0.557098	0.036953
C72	C	-0.122262	0.704932	-0.036959
C73	C	-0.061906	0.704928	-0.036957
C74	C	0.005235	0.631008	-0.000005
C75	C	0.820294	0.631010	-0.000001
C76	C	0.884527	0.631011	-0.000004
C77	C	0.630987	0.631010	-0.189259
C78	C	0.630972	0.631011	-0.253494
C79	C	0.631038	0.820264	0.000013
C80	C	0.631039	0.884496	0.000016
C81	C	0.594011	0.704921	-0.320620
C82	C	0.594029	0.704922	-0.380975
C83	C	0.630998	0.631009	-0.374200
C84	C	0.667967	0.557090	-0.307062
C85	C	0.667953	0.557091	-0.246709
C86	C	0.625747	0.574381	-0.441520
C87	C	0.625755	0.574383	-0.501873
C88	C	0.631043	0.631003	-0.560348
C89	C	0.636308	0.687635	-0.558468
C90	C	0.636295	0.687636	-0.498115
C91	C	0.631017	0.631000	-0.439639
C92	C	0.594100	0.704919	-0.692921
C93	C	0.594123	0.704917	-0.753276
C94	C	0.668056	0.557083	-0.679360
C95	C	0.668037	0.557087	-0.619007
C96	C	0.631056	0.631007	-0.625792
C97	C	0.631078	0.631005	0.189270
C98	C	0.631093	0.631004	0.253504
C99	C	0.820289	0.441754	-0.000010
C100	C	0.884521	0.377523	-0.000015
C101	C	0.631073	0.441748	0.189261
C102	C	0.631086	0.377516	0.253493
C103	C	0.820334	0.441751	0.189255
C104	C	0.884581	0.377519	0.253484
C105	C	0.441731	0.820264	-0.189245
C106	C	0.377484	0.884496	-0.253474
C107	C	0.441776	0.820261	0.000020
C108	C	0.377544	0.884492	0.000025
C109	C	0.630992	0.820267	-0.189251
C110	C	0.630979	0.884500	-0.253483
C111	C	0.877719	0.347360	-0.036980
C112	C	0.938065	0.287017	-0.036998
C113	C	1.005214	0.256834	-0.000048
C114	C	1.012014	0.287003	0.036918
C115	C	0.951668	0.347349	0.036933
C116	C	0.668058	0.347351	0.320620
C117	C	0.668068	0.287006	0.380978
C118	C	0.631110	0.256822	0.374209
C119	C	0.594133	0.286993	0.307075
C120	C	0.594119	0.347341	0.246718
C121	C	0.951707	0.347357	0.246688
C122	C	1.012080	0.287012	0.307033
C123	C	1.005325	0.256828	0.374173
C124	C	0.938193	0.286997	0.380968
C125	C	0.877821	0.347344	0.320624
C126	C	0.310358	0.914666	-0.246678
C127	C	0.249985	0.975029	-0.307023
C128	C	0.256740	1.005216	-0.374163
C129	C	0.323872	0.975044	-0.380958
C130	C	0.384244	0.914686	-0.320614
C131	C	0.384346	0.914662	0.036984
C132	C	0.323999	0.975022	0.036986
C133	C	0.256851	1.005207	0.000033
C134	C	0.250051	0.975034	-0.036930
C135	C	0.310397	0.914679	-0.036936
C136	C	0.667944	0.914664	-0.246691
C137	C	0.667945	0.975010	-0.307037
C138	C	0.630976	1.005194	-0.374176
C139	C	0.594009	0.975023	-0.380967
C140	C	0.594013	0.914675	-0.320621
H141	H	0.698061	0.262421	-0.067061
H142	H	0.195329	0.999585	-0.301477
C143	C	0.708591	0.475789	-0.172865
H144	H	0.703286	0.486376	-0.137893
H145	H	0.690337	0.445429	-0.167598
H146	H	0.757225	0.445408	-0.167544
C147	C	0.553485	0.253784	0.299633
H148	H	0.531457	0.280392	0.251011
H149	H	0.585395	0.196805	0.321647
H150	H	0.518516	0.263681	0.321645
H151	H	0.563910	0.999608	-0.435639
H152	H	0.564014	0.371893	0.192063
C153	C	0.959151	0.380551	0.172842
H154	H	1.007779	0.353944	0.177448
H155	H	0.937142	0.370658	0.147759
H156	H	0.937136	0.437534	0.147767
C157	C	0.458080	0.881473	-0.328094
H158	H	0.493073	0.841199	-0.282544
H159	H	0.463335	0.857942	-0.353178
H160	H	0.463386	0.924790	-0.353171
H161	H	1.066737	0.262455	0.301488
H162	H	0.743345	0.124818	0.009571
H163	H	0.698182	0.262448	0.435635
H164	H	0.207719	1.054351	0.000043
C165	C	0.630974	1.071577	-0.440553
H166	H	0.603667	1.085234	-0.481514
H167	H	0.611194	1.118660	-0.440547
H168	H	0.678066	1.051782	-0.440550
C169	C	1.071588	0.190447	-0.000062
H170	H	1.057914	0.176803	-0.027364
H171	H	1.098894	0.210219	-0.019848
H172	H	1.098898	0.143351	0.047024
H173	H	0.631127	0.207683	0.423361
H174	H	0.698054	0.371920	-0.067069
C175	C	0.959155	0.380525	0.077596
H176	H	0.913602	0.420794	0.072313
H177	H	0.984249	0.337193	0.126214
H178	H	0.984228	0.404072	0.059336
C179	C	0.930572	0.253832	-0.077654
H180	H	0.881937	0.280443	-0.099645
H181	H	0.952560	0.263728	-0.112637
H182	H	0.952587	0.196850	-0.045753
C183	C	0.553425	0.380546	0.077606
H184	H	0.558716	0.420814	0.072310
H185	H	0.504802	0.404085	0.059352
H186	H	0.571684	0.337226	0.126233
H187	H	0.563908	0.890121	-0.326161
H188	H	0.698155	0.371920	0.326145
H189	H	0.563999	-0.000402	0.067069
C190	C	1.071738	0.190441	0.440545
H191	H	1.112681	0.176798	0.426876
H192	H	1.071759	0.210213	0.467856
H193	H	1.071752	0.143344	0.467845
C194	C	0.761041	-0.002907	0.011099
H195	H	0.752180	-0.038371	0.010355
H196	H	0.776058	0.018785	-0.027540
H197	H	0.796899	-0.032426	0.054085
C198	C	0.302918	0.881471	-0.172830
H199	H	0.348483	0.841197	-0.137858
H200	H	0.277848	0.924797	-0.167534
H201	H	0.277837	0.857928	-0.167538
C202	C	0.190327	1.071597	-0.440535
H203	H	0.149384	1.085230	-0.426866
H204	H	0.190305	1.118694	-0.467846
H205	H	0.190314	1.051807	-0.467834
H206	H	0.329364	0.999630	-0.435630
C207	C	0.930772	0.253781	0.454824
H208	H	0.976344	0.213514	0.489784
H209	H	0.905698	0.297094	0.460136
H210	H	0.905705	0.230222	0.460120
H211	H	0.823049	0.371934	-0.067078
H212	H	0.698066	-0.000392	-0.067055
H213	H	0.823167	0.371895	0.326167
H214	H	0.127677	0.528262	0.112307
H215	H	1.066694	0.262419	0.067002
C216	C	0.458201	0.881468	0.077636
H217	H	0.453599	0.908093	0.099639
H218	H	0.483288	0.824490	0.112609
H219	H	0.483275	0.891362	0.045731
H220	H	0.698047	0.999568	-0.301494
C221	C	0.331493	1.008192	0.077655
H222	H	0.380127	0.981557	0.099670
H223	H	0.309490	1.065169	0.045766
H224	H	0.309492	0.998296	0.112631
C225	C	-0.069372	0.786230	-0.077608
H226	H	-0.118003	0.830251	-0.099624
H227	H	-0.047359	0.789305	-0.045709
H228	H	-0.047370	0.789300	-0.112584
H229	H	0.195371	0.999620	-0.067016
H230	H	0.698077	-0.109897	-0.067039
C231	C	0.302906	0.881489	-0.077583
H232	H	0.254271	0.908108	-0.099581
H233	H	0.324902	0.891372	-0.112561
H234	H	0.324912	0.824509	-0.045678
C235	C	0.501021	0.138189	-0.011084
H236	H	0.464154	0.184806	-0.014218
H237	H	0.488017	0.141657	-0.052114
H238	H	0.508878	0.090424	0.029512
C239	C	0.553442	-0.118516	0.077633
H240	H	0.558730	-0.158779	0.072337
H241	H	0.571702	-0.142057	0.126253
H242	H	0.504813	-0.075186	0.059378
C243	C	0.501016	0.264932	-0.011091
H244	H	0.464144	0.258327	-0.014242
H245	H	0.508865	0.264264	0.029498
H246	H	0.488018	0.315485	-0.052127
H247	H	0.698049	0.890098	-0.192028
H248	H	0.563996	0.262409	0.067058
H249	H	0.329500	0.496905	0.067050
C250	C	0.458176	0.475785	0.077613
H251	H	0.453571	0.431766	0.099622
H252	H	0.483254	0.472711	0.045716
H253	H	0.483260	0.472710	0.112593
C254	C	0.708628	0.475788	-0.299608
H255	H	0.703337	0.486372	-0.345166
H256	H	0.757251	0.445417	-0.274520
H257	H	0.690373	0.445420	-0.274545
C258	C	0.253882	0.512099	0.130004
H259	H	0.244134	0.478380	0.166875
H260	H	0.293802	0.479352	0.122162
H261	H	0.263400	0.540150	0.142993
H262	H	-0.042800	0.496909	0.067044
C263	C	0.085877	0.475789	0.077606
H264	H	0.081275	0.431769	0.099621
H265	H	0.110958	0.472708	0.045711
H266	H	0.110958	0.472723	0.112581
H267	H	-0.176930	0.765114	-0.067051
H268	H	0.195371	0.765106	-0.067032
H269	H	0.024904	0.733742	-0.112319
C270	C	0.553340	0.786230	-0.328085
H271	H	0.531335	0.830249	-0.376711
H272	H	0.518363	0.789304	-0.306090
H273	H	0.585239	0.789305	-0.306067
C274	C	0.134928	0.749920	-0.129998
H275	H	0.179248	0.741815	-0.121129
H276	H	0.128595	0.742795	-0.165855
H277	H	0.098202	0.803580	-0.145012
C278	C	0.553364	0.786226	-0.454823
H279	H	0.531333	0.830250	-0.450219
H280	H	0.585261	0.789307	-0.479897
H281	H	0.518395	0.789285	-0.479906
H282	H	0.304864	0.765112	-0.067023
H283	H	0.640611	0.733743	-0.606081
H284	H	0.563988	0.765110	-0.698446
C285	C	0.642091	0.749919	-0.496042
H286	H	0.641320	0.741812	-0.451724
H287	H	0.685075	0.742795	-0.502352
H288	H	0.603442	0.803581	-0.532766
H289	H	0.564028	0.765106	-0.807934
H290	H	0.698131	0.496901	-0.564349
C291	C	0.708726	0.475777	-0.671897
H292	H	0.730739	0.431758	-0.623271
H293	H	0.676836	0.472699	-0.693918
H294	H	0.743708	0.472709	-0.693889
C295	C	0.619992	0.512071	-0.503926
H296	H	0.616864	0.478334	-0.460450
H297	H	0.578971	0.540080	-0.541494
H298	H	0.660608	0.479335	-0.511084
C299	C	0.619926	0.512099	-0.377203
H300	H	0.616780	0.478381	-0.386969
H301	H	0.660513	0.479350	-0.337273
H302	H	0.578881	0.540147	-0.367696
