data_functionalizedCrystal
_audit_creation_method	'MofGen! by Chris Wilmer'
_symmetry_space_group_name_H-M	'P1'
_symmetry_Int_Tables_number	1
_symmetry_cell_setting	triclinic
loop_
_symmetry_equiv_pos_as_xyz
  x,y,z
_cell_length_a	10.723023
_cell_length_b	12.376457
_cell_length_c	10.723024
_cell_angle_alpha	101.385709
_cell_angle_beta	84.467709
_cell_angle_gamma	78.597706
loop_
_atom_site_label
_atom_site_type_symbol
_atom_site_fract_x
_atom_site_fract_y
_atom_site_fract_z
O1	O	-1.680919	0.094017	-0.151305
O2	O	-1.317767	0.094016	-0.168060
O3	O	-1.507718	0.094011	0.021892
O4	O	-1.490968	0.094023	-0.341257
O5	O	-1.460247	-0.094000	-0.025531
O6	O	-1.270295	-0.093994	-0.215483
O7	O	-1.633448	-0.093993	-0.198728
Zn8	Zn	-1.444335	-0.123845	-0.214635
Zn9	Zn	-1.506880	0.123868	-0.152153
O10	O	-1.443497	-0.093988	-0.388680
C11	C	-1.247531	0.000011	-0.190552
C12	C	-1.108977	0.000011	-0.186905
N13	N	-1.401658	-0.292902	-0.257276
C14	C	-0.879418	-0.097383	-0.206075
C15	C	-1.022621	-0.097384	-0.209845
C16	C	-1.648632	-0.647894	-0.010493
C17	C	-1.678495	-0.529555	0.019352
C18	C	-1.609288	-0.470386	-0.049802
C19	C	-1.510214	-0.529567	-0.148807
C20	C	-1.480355	-0.647918	-0.178662
C21	C	-1.441011	-0.470410	-0.217971
C22	C	-1.341937	-0.529591	-0.316976
C23	C	-1.312082	-0.647930	-0.346825
C24	C	-1.381289	-0.707099	-0.277671
C25	C	-1.470869	-0.352059	-0.188116
C26	C	-1.302592	-0.352083	-0.356285
C27	C	-1.272730	-0.470422	-0.386130
C28	C	-0.703683	0.000012	-0.176236
C29	C	-0.842238	0.000012	-0.179883
C30	C	-1.482764	0.000006	0.044681
C31	C	-1.479117	0.000009	0.183236
N32	N	-1.549567	0.292925	-0.109502
C33	C	-1.585405	0.000010	0.258219
C34	C	-1.581638	0.000013	0.401423
C35	C	-1.468451	0.000017	0.588532
C36	C	-1.472098	0.000014	0.449977
H37	H	-0.805231	-0.180764	-0.225715
C38	C	-1.642132	-0.340209	-0.016959
N39	N	-1.666870	-0.242155	0.007788
H40	H	-1.076918	0.083398	-0.164470
H41	H	-1.192062	-0.518622	-0.466743
C42	C	-1.349164	0.000014	0.362941
N43	N	-1.256570	0.000016	0.297378
C44	C	-1.787466	-0.464464	0.128260
N45	N	-1.869546	-0.415437	0.210299
H46	H	-1.385332	0.000016	0.225059
H47	H	-1.054690	-0.180768	-0.232270
C48	C	-1.348420	-0.837280	-0.310471
N49	N	-1.323658	-0.935334	-0.335165
C50	C	-1.712108	0.000003	0.201724
N51	N	-1.807544	-0.000007	0.159173
C52	C	-0.942455	0.112662	-0.153357
N53	N	-1.017938	0.197513	-0.133374
C54	C	-1.724750	-0.712987	0.065562
N55	N	-1.782087	-0.762018	0.122853
H56	H	-1.551536	-0.303884	-0.107506
C57	C	-1.226456	-0.287002	-0.432358
N58	N	-1.169117	-0.237976	-0.489652
H59	H	-1.672627	0.000009	0.465855
C60	C	-1.203104	-0.713027	-0.455738
N61	N	-1.121018	-0.762055	-0.537770
