data_functionalizedCrystal
_audit_creation_method	'MofGen! by Chris Wilmer'
_symmetry_space_group_name_H-M	'P1'
_symmetry_Int_Tables_number	1
_symmetry_cell_setting	triclinic
loop_
_symmetry_equiv_pos_as_xyz
  x,y,z
_cell_length_a	14.519709
_cell_length_b	10.654550
_cell_length_c	9.130313
_cell_angle_alpha	90.000110
_cell_angle_beta	90.005376
_cell_angle_gamma	95.917476
loop_
_atom_site_label
_atom_site_type_symbol
_atom_site_fract_x
_atom_site_fract_y
_atom_site_fract_z
O1	O	1.224716	-0.164617	-0.121605
O2	O	1.724716	0.335383	0.378395
O3	O	0.956339	-0.184004	-0.121649
O4	O	1.456339	0.315996	0.378351
O5	O	1.096698	0.008488	-0.121620
O6	O	1.596698	0.508488	0.378380
O7	O	1.084357	-0.357109	-0.121633
O8	O	1.584357	0.142891	0.378367
O9	O	1.096696	0.008483	0.121978
O10	O	1.596696	0.508483	0.621978
O11	O	0.956338	-0.184009	0.121950
O12	O	1.456338	0.315991	0.621950
O13	O	1.224714	-0.164623	0.121994
O14	O	1.724714	0.335377	0.621994
Cu15	Cu	1.090526	-0.174316	0.144215
Cu16	Cu	1.590526	0.325684	0.644215
Cu17	Cu	1.090528	-0.174310	-0.143869
Cu18	Cu	1.590528	0.325690	0.356131
O19	O	1.084355	-0.357114	0.121966
O20	O	1.584355	0.142886	0.621966
C21	C	0.921974	-0.183103	0.000145
C22	C	1.421974	0.316897	0.500145
C23	C	0.819579	-0.180396	0.000128
C24	C	1.319579	0.319604	0.500128
N25	N	1.090531	-0.174320	0.346837
N26	N	1.590531	0.325680	0.846837
C27	C	1.095791	0.055275	0.000177
C28	C	1.595791	0.555275	0.500177
C29	C	1.093080	0.194692	0.000172
C30	C	1.593080	0.694692	0.500172
C31	C	0.444631	-0.170428	0.000195
C32	C	0.944631	0.329572	0.500195
C33	C	0.548954	-0.173196	0.000176
C34	C	1.048954	0.326804	0.500176
C35	C	0.632102	-0.175412	0.000160
C36	C	1.132102	0.324588	0.500160
C37	C	0.736431	-0.178180	0.000144
C38	C	1.236431	0.321820	0.500144
C39	C	1.259079	-0.165524	0.000197
C40	C	1.759079	0.334476	0.500197
C41	C	1.361475	-0.168231	0.000205
C42	C	1.861475	0.331769	0.500205
C43	C	1.085262	-0.403901	0.000165
C44	C	1.585262	0.096099	0.500165
C45	C	1.087973	-0.543318	0.000161
C46	C	1.587973	-0.043318	0.500161
C47	C	1.175721	0.274972	0.000190
C48	C	1.675721	0.774972	0.500190
C49	C	1.173168	0.405968	0.000179
C50	C	1.673168	0.905968	0.500179
C51	C	1.005326	0.376391	0.000138
C52	C	1.505326	0.876391	0.500138
C53	C	1.007880	0.245397	0.000138
C54	C	1.507880	0.745397	0.500138
C55	C	1.272623	0.292049	0.000219
C56	C	1.772623	0.792049	0.500219
C57	C	1.270070	0.423046	0.000209
C58	C	1.770070	0.923046	0.500209
N59	N	1.090530	-0.174297	-0.346492
N60	N	1.590530	0.325703	0.153508
C61	C	1.152698	-0.089113	0.423502
C62	C	1.652698	0.410887	0.923502
C63	C	1.152695	-0.089098	0.576839
C64	C	1.652695	0.410902	1.076839
C65	C	1.028356	-0.259507	0.576833
C66	C	1.528356	0.240493	1.076833
C67	C	1.028355	-0.259515	0.423499
C68	C	1.528355	0.240485	0.923499
C69	C	1.224487	0.009267	0.423506
C70	C	1.724487	0.509267	0.923506
C71	C	1.224485	0.009283	0.576843
C72	C	1.724485	0.509283	1.076843
H73	H	0.940586	0.180037	0.000103
H74	H	1.440586	0.680037	0.500103
H75	H	1.303480	0.256717	0.105406
H76	H	1.803480	0.756717	0.605406
F77	F	0.914655	0.430367	0.000099
F78	F	1.414655	0.930367	0.500099
H79	H	1.310526	0.263058	-0.101713
H80	H	1.810526	0.763058	0.398287
H81	H	1.299356	0.468972	-0.104966
H82	H	1.799356	0.968972	0.395034
F83	F	1.317789	0.478091	0.133462
F84	F	1.817789	0.978091	0.633462
H85	H	0.977726	-0.328886	0.361080
H86	H	1.477726	0.171114	0.861080
F87	F	0.962187	-0.350173	0.658433
F88	F	1.462187	0.149827	1.158433
H89	H	1.208741	0.105649	0.381887
H90	H	1.708741	0.605649	0.881887
H91	H	1.202078	0.100290	0.624389
H92	H	1.702078	0.600290	1.124389
F93	F	1.312000	-0.029885	0.361350
F94	F	1.812000	0.470115	0.861350
H95	H	1.295354	-0.011554	0.618471
H96	H	1.795354	0.488446	1.118471
