data_functionalizedCrystal
_audit_creation_method	'MofGen! by Chris Wilmer'
_symmetry_space_group_name_H-M	'P1'
_symmetry_Int_Tables_number	1
_symmetry_cell_setting	triclinic
loop_
_symmetry_equiv_pos_as_xyz
  x,y,z
_cell_length_a	19.188930
_cell_length_b	17.699086
_cell_length_c	16.176319
_cell_angle_alpha	89.999188
_cell_angle_beta	90.021299
_cell_angle_gamma	96.785650
loop_
_atom_site_label
_atom_site_type_symbol
_atom_site_fract_x
_atom_site_fract_y
_atom_site_fract_z
O1	O	-0.926254	0.094493	-0.069002
O2	O	-0.426254	0.594493	0.430998
O3	O	-0.722957	0.107213	-0.068943
O4	O	-0.222957	0.607213	0.431057
O5	O	-0.830349	-0.009343	-0.068981
O6	O	-0.330349	0.490657	0.431019
O7	O	-0.818863	0.211050	-0.068964
O8	O	-0.318863	0.711050	0.431036
O9	O	-0.830334	-0.009351	0.068512
O10	O	-0.330334	0.490649	0.568512
O11	O	-0.722942	0.107206	0.068550
O12	O	-0.222942	0.607206	0.568550
O13	O	-0.926239	0.094486	0.068492
O14	O	-0.426239	0.594486	0.568492
Cu15	Cu	-0.824590	0.100845	0.081075
Cu16	Cu	-0.324590	0.600845	0.581075
Cu17	Cu	-0.824607	0.100854	-0.081527
Cu18	Cu	-0.324607	0.600854	0.418473
O19	O	-0.818848	0.211043	0.068530
O20	O	-0.318848	0.711043	0.568530
C21	C	-0.696938	0.106798	-0.000190
C22	C	-0.196938	0.606798	0.499810
C23	C	-0.619432	0.105561	-0.000168
C24	C	-0.119432	0.605561	0.499832
C25	C	-0.952258	0.094902	-0.000264
C26	C	-0.452258	0.594902	0.499736
C27	C	-1.029764	0.096138	-0.000291
C28	C	-0.529764	0.596138	0.499709
C29	C	-0.829929	-0.037543	-0.000238
C30	C	-0.329929	0.462457	0.499762
C31	C	-0.828694	-0.121560	-0.000248
C32	C	-0.328694	0.378440	0.499752
C33	C	-0.574586	0.173953	-0.000175
C34	C	-0.074586	0.673953	0.499825
C35	C	-0.501761	0.172791	-0.000185
C36	C	-0.001761	0.672791	0.499815
C37	C	-0.473785	0.103234	-0.000203
C38	C	0.026215	0.603234	0.499797
C39	C	-0.518642	0.034833	-0.000191
C40	C	-0.018642	0.534833	0.499809
C41	C	-0.591466	0.035997	-0.000173
C42	C	-0.091466	0.535997	0.499827
N43	N	-0.365750	0.050069	-0.047035
N44	N	0.134250	0.550069	0.452965
N45	N	-0.296571	0.048968	-0.047054
N46	N	0.203429	0.548968	0.452946
C47	C	-0.254373	0.099724	-0.000254
C48	C	0.245627	0.599724	0.499746
N49	N	-0.283967	0.151634	0.046555
N50	N	0.216033	0.651634	0.546555
N51	N	-0.353153	0.152737	0.046570
N52	N	0.146847	0.652737	0.546570
C53	C	-0.394822	0.101964	-0.000221
C54	C	0.105178	0.601964	0.499779
C55	C	-0.130560	0.166861	-0.000270
C56	C	0.369440	0.666861	0.499730
C57	C	-0.057734	0.165696	-0.000274
C58	C	0.442266	0.665696	0.499726
C59	C	-0.074617	0.027736	-0.000289
C60	C	0.425383	0.527736	0.499711
C61	C	-0.147442	0.028903	-0.000276
C62	C	0.352558	0.528903	0.499724
C63	C	-0.175409	0.098467	-0.000271
C64	C	0.324591	0.598467	0.499729
C65	C	-0.819267	0.239243	-0.000215
C66	C	-0.319267	0.739243	0.499785
C67	C	-0.820503	0.323259	-0.000210
C68	C	-0.320503	0.823259	0.499790
C69	C	-0.828122	0.838968	-0.075194
C70	C	-0.328122	1.338968	0.424806
C71	C	-0.826953	0.760027	-0.075190
C72	C	-0.326953	1.260027	0.424810
C73	C	-0.826363	0.720558	-0.000239
C74	C	-0.326363	1.220558	0.499761
C75	C	-0.826933	0.760036	0.074713
C76	C	-0.326933	1.260036	0.574713
C77	C	-0.828096	0.838977	0.074708
C78	C	-0.328096	1.338977	0.574708
C79	C	-0.822241	0.441678	0.074736
C80	C	-0.322241	0.941678	0.574736
C81	C	-0.821080	0.362732	0.074736
C82	C	-0.321080	0.862732	0.574736
C83	C	-0.821099	0.362729	-0.075161
C84	C	-0.321099	0.862729	0.424839
C85	C	-0.822262	0.441669	-0.075166
C86	C	-0.322262	0.941669	0.424834
C87	C	-0.822828	0.481140	-0.000215
C88	C	-0.322828	0.981140	0.499785
C89	C	-0.824094	0.566738	-0.000221
C90	C	-0.324094	1.066738	0.499779
C91	C	-0.825102	0.634962	-0.000232
C92	C	-0.325102	1.134962	0.499768
N93	N	-0.824582	0.100839	0.195440
N94	N	-0.324582	0.600839	0.695440
N95	N	-0.824620	0.100855	-0.195892
N96	N	-0.324620	0.600855	0.304108
C97	C	-0.872150	0.049248	0.238688
C98	C	-0.372150	0.549248	0.738688
C99	C	-0.872153	0.049248	0.325235
C100	C	-0.372153	0.549248	0.825235
C101	C	-0.824592	0.100841	0.368533
C102	C	-0.324592	0.600841	0.868533
C103	C	-0.777020	0.152434	0.325279
C104	C	-0.277020	0.652434	0.825279
C105	C	-0.777014	0.152431	0.238734
C106	C	-0.277014	0.652431	0.738734
C107	C	-0.777044	0.152448	0.674308
C108	C	-0.277044	0.652448	1.174308
C109	C	-0.777055	0.152449	0.760859
C110	C	-0.277055	0.652449	1.260859
C111	C	-0.872183	0.049265	0.760808
C112	C	-0.372183	0.549265	1.260808
C113	C	-0.872177	0.049262	0.674263
C114	C	-0.372177	0.549262	1.174263
C115	C	-0.824603	0.100851	0.631017
C116	C	-0.324603	0.600851	1.131017
C117	C	-0.824599	0.100851	0.537173
C118	C	-0.324599	0.600851	1.037173
C119	C	-0.824599	0.100846	0.462375
C120	C	-0.324599	0.600846	0.962375
H121	H	-0.597351	0.230598	-0.000173
H122	H	-0.097351	0.730598	0.499827
H123	H	-0.828606	0.871098	-0.136228
H124	H	-0.328606	1.371098	0.363772
C125	C	-0.826278	0.716618	0.157160
C126	C	-0.326278	1.216618	0.657160
N127	N	-0.825786	0.683917	0.219261
N128	N	-0.325786	1.183917	0.719261
C129	C	-0.043849	-0.048778	-0.000307
C130	C	0.456151	0.451222	0.499693
N131	N	-0.020671	-0.106411	-0.000320
N132	N	0.479329	0.393589	0.499680
H133	H	-0.820634	0.330582	-0.136189
H134	H	-0.320634	0.830582	0.363811
H135	H	-0.910885	0.007238	0.360446
H136	H	-0.410885	0.507238	0.860446
C137	C	-0.008402	0.240936	-0.000270
C138	C	0.491598	0.740936	0.499730
N139	N	0.028756	0.297609	-0.000265
N140	N	0.528756	0.797609	0.499735
H141	H	-0.910908	0.007252	0.639012
H142	H	-0.410908	0.507252	1.139012
H143	H	-0.153332	0.223504	-0.000254
H144	H	0.346668	0.723504	0.499746
C145	C	-0.924511	-0.007492	0.808387
C146	C	-0.424511	0.492508	1.308387
N147	N	-0.963923	-0.050240	0.844221
N148	N	-0.463923	0.449760	1.344221
H149	H	-0.183957	-0.026789	-0.000275
H150	H	0.316043	0.473211	0.499725
H151	H	-0.828552	0.871115	0.135736
H152	H	-0.328552	1.371115	0.635736
H153	H	-0.738292	0.194440	0.360538
H154	H	-0.238292	0.694440	0.860538
C155	C	-0.820423	0.319319	0.157192
C156	C	-0.320423	0.819319	0.657192
N157	N	-0.819927	0.286620	0.219295
N158	N	-0.319927	0.786620	0.719295
C159	C	-0.924471	-0.007510	0.191068
C160	C	-0.424471	0.492490	0.691068
N161	N	-0.963879	-0.050265	0.155203
N162	N	-0.463879	0.449735	0.655203
H163	H	-0.822716	0.473804	0.135766
H164	H	-0.322716	0.973804	0.635766
C165	C	-0.724801	0.209296	0.626748
C166	C	-0.224801	0.709296	1.126748
N167	N	-0.685482	0.252152	0.590924
N168	N	-0.185482	0.752152	1.090924
H169	H	-0.822746	0.473800	-0.136199
H170	H	-0.322746	0.973800	0.363801
H171	H	-0.465239	0.228486	-0.000188
H172	H	0.034761	0.728486	0.499812
C173	C	-0.826388	0.716602	-0.157636
C174	C	-0.326388	1.216602	0.342364
N175	N	-0.825985	0.683892	-0.219738
N176	N	-0.325985	1.183892	0.280262
H177	H	-0.738323	0.194464	0.796111
H178	H	-0.238323	0.694464	1.296111
H179	H	-0.495860	-0.021801	-0.000217
H180	H	0.004140	0.478199	0.499783
C181	C	-0.640799	-0.039243	-0.000170
C182	C	-0.140799	0.460757	0.499830
N183	N	-0.677959	-0.095914	-0.000171
N184	N	-0.177959	0.404086	0.499829
H185	H	-0.738279	0.194440	0.203523
H186	H	-0.238279	0.694440	0.703523
