data_functionalizedCrystal
_audit_creation_method	'MofGen! by Chris Wilmer'
_symmetry_space_group_name_H-M	'P1'
_symmetry_Int_Tables_number	1
_symmetry_cell_setting	triclinic
loop_
_symmetry_equiv_pos_as_xyz
  x,y,z
_cell_length_a	19.805407
_cell_length_b	17.638516
_cell_length_c	19.805399
_cell_angle_alpha	78.823008
_cell_angle_beta	90.019573
_cell_angle_gamma	101.243580
loop_
_atom_site_label
_atom_site_type_symbol
_atom_site_fract_x
_atom_site_fract_y
_atom_site_fract_z
Zn1	Zn	0.980230	-0.314708	0.437160
Zn2	Zn	0.957251	-0.446894	0.346838
Zn3	Zn	0.867041	-0.314730	0.323988
Zn4	Zn	0.844122	-0.446852	0.459977
O5	O	0.912161	-0.380796	0.391991
O6	O	1.071897	-0.332252	0.425192
O7	O	0.945260	-0.429389	0.249095
O8	O	0.901264	-0.204113	0.319889
O9	O	1.055014	-0.429368	0.358833
O10	O	0.984424	-0.204097	0.403035
O11	O	0.878983	-0.332289	0.232307
O12	O	0.769286	-0.332248	0.342014
O13	O	0.862202	-0.429296	0.551662
O14	O	0.752447	-0.429318	0.441924
O15	O	0.962200	-0.332211	0.534898
O16	O	0.923036	-0.557503	0.380958
O17	O	0.839920	-0.557472	0.464081
C18	C	0.736308	-0.380781	0.391966
C19	C	0.661073	-0.380794	0.391975
C20	C	0.616966	-0.431414	0.443942
C21	C	0.546277	-0.431415	0.443951
C22	C	0.519697	-0.380800	0.391991
C23	C	0.563810	-0.330174	0.340022
C24	C	0.634498	-0.330169	0.340015
C25	C	0.278734	-0.330192	0.340047
C26	C	0.208040	-0.330202	0.340057
C27	C	0.190513	-0.431438	0.443983
C28	C	0.261201	-0.431433	0.443977
C29	C	0.305309	-0.380804	0.392010
C30	C	0.381957	-0.380802	0.392000
C31	C	0.443049	-0.380805	0.391997
C32	C	0.876516	-0.586168	0.427490
C33	C	0.861328	-0.674027	0.442699
C34	C	1.027944	-0.962927	0.276499
C35	C	1.013661	-1.045484	0.290801
C36	C	0.927040	-1.045496	0.377289
C37	C	0.941313	-0.962938	0.362991
C38	C	0.991766	-0.921659	0.312596
C39	C	0.905136	-0.921670	0.399089
C40	C	0.919410	-0.839119	0.384795
C41	C	0.969862	-0.797835	0.334403
C42	C	1.006041	-0.839108	0.298302
C43	C	0.854686	-0.962950	0.449487
C44	C	0.818508	-0.921682	0.485584
C45	C	0.832779	-0.839130	0.471287
C46	C	0.883231	-0.797846	0.420896
C47	C	0.796601	-0.797856	0.507388
C48	C	0.810875	-0.715305	0.493094
C49	C	0.897506	-0.715294	0.406601
C50	C	1.088701	-0.380812	0.392016
C51	C	1.163932	-0.380819	0.392026
C52	C	0.912208	-0.380746	0.568525
C53	C	0.912227	-0.380725	0.643753
C54	C	0.947964	-0.174622	0.356368
C55	C	0.963221	-0.086763	0.341188
C56	C	0.912163	-0.380789	0.216133
C57	C	0.912313	-0.380587	0.140867
C58	C	0.964298	-0.330170	0.670369
C59	C	0.964309	-0.330147	0.741054
C60	C	0.912251	-0.380684	0.785122
C61	C	0.860176	-0.431241	0.758501
C62	C	0.860163	-0.431260	0.687817
C63	C	0.860227	-0.431168	1.043562
C64	C	0.860245	-0.431147	1.114251
C65	C	0.964373	-0.330055	1.096798
C66	C	0.964360	-0.330074	1.026114
C67	C	0.912283	-0.380628	0.999499
C68	C	0.912271	-0.380651	0.922855
C69	C	0.912265	-0.380665	0.861766
H70	H	0.186402	-0.288980	0.297743
H71	H	0.777431	-0.955302	0.526618
C72	C	1.020829	-0.275277	0.978160
C73	C	1.009678	-0.286122	0.910562
C74	C	1.061684	-0.235655	0.866369
H75	H	1.020185	-0.222135	0.980486
H76	H	1.064320	-0.286840	0.991705
H77	H	0.966199	-0.274553	0.897021
H78	H	1.010330	-0.339253	0.908215
H79	H	1.105174	-0.247218	0.879914
H80	H	1.061035	-0.182517	0.868701
H81	H	1.054129	-0.243012	0.820501
C82	C	0.839330	-1.052578	0.465014
C83	C	0.899053	-1.079821	0.487038
C84	C	0.884935	-1.162381	0.501339
H85	H	0.804138	-1.071352	0.500214
H86	H	0.824442	-1.071328	0.424565
H87	H	0.913932	-1.061079	0.527482
H88	H	0.934252	-1.061069	0.451848
H89	H	0.870047	-1.181131	0.460890
H90	H	0.849743	-1.181148	0.536538
H91	H	0.925456	-1.180876	0.516278
C92	C	0.741829	-0.842821	0.562054
C93	C	0.737064	-0.923949	0.566838
C94	C	0.686609	-0.965393	0.617183
H95	H	0.753994	-0.829339	0.605234
H96	H	0.698664	-0.829392	0.549773
H97	H	0.780219	-0.937372	0.579123
H98	H	0.724889	-0.937454	0.523672
H99	H	0.643444	-0.951964	0.604902
H100	H	0.698779	-0.951904	0.660358
H101	H	0.683365	-1.020442	0.620431
C102	C	0.498281	-0.486291	0.500331
C103	C	0.430690	-0.475447	0.489231
C104	C	0.386459	-0.525978	0.541162
H105	H	0.500559	-0.539417	0.499573
H106	H	0.511845	-0.474787	0.543850
H107	H	0.417129	-0.486957	0.445724
H108	H	0.428390	-0.422331	0.489996
H109	H	0.400023	-0.514474	0.584680
H110	H	0.388743	-0.579101	0.540400
H111	H	0.340594	-0.518622	0.533641
H112	H	1.006775	-0.288889	1.118476
H113	H	0.781416	-0.681705	0.522489
H114	H	0.282838	-0.472652	0.486286
C115	C	1.020860	-0.275214	0.622634
C116	C	1.066452	-0.230920	0.661073
C117	C	1.118560	-0.180275	0.617123
H118	H	1.045171	-0.305371	0.600272
H119	H	1.000966	-0.240735	0.589111
H120	H	1.086345	-0.265394	0.694583
H121	H	1.042161	-0.200746	0.683433
H122	H	1.098666	-0.145796	0.583601
H123	H	1.142866	-0.210438	0.594763
H124	H	1.149497	-0.150210	0.643196
H125	H	0.542163	-0.288959	0.297717
H126	H	0.154592	-0.472659	0.486299
H127	H	0.314637	-0.288973	0.297728
C128	C	0.803568	-0.486023	0.658865
C129	C	0.767934	-0.441277	0.610558
C130	C	0.715786	-0.491699	0.583882
H131	H	0.823390	-0.520491	0.637195
H132	H	0.772532	-0.516104	0.695213
H133	H	0.798965	-0.411210	0.574216
H134	H	0.748097	-0.406812	0.632211
H135	H	0.684750	-0.521780	0.620230
H136	H	0.735614	-0.526164	0.562216
H137	H	0.691598	-0.461346	0.551108
H138	H	1.069023	-0.929317	0.235457
H139	H	1.043128	-1.079080	0.261405
H140	H	0.638601	-0.472634	0.486252
H141	H	0.670411	-0.288945	0.297702
H142	H	1.006711	-0.288982	0.762720
C143	C	1.060768	-0.794141	0.243585
C144	C	1.065511	-0.713014	0.238786
C145	C	1.115909	-0.671566	0.188385
H146	H	1.103954	-0.807523	0.255805
H147	H	1.048542	-0.807666	0.200425
H148	H	1.077741	-0.699495	0.281936
H149	H	1.022339	-0.699609	0.226557
H150	H	1.103683	-0.685091	0.145225
H151	H	1.159091	-0.684955	0.200609
H152	H	1.119130	-0.616518	0.185117
H153	H	0.981485	-0.730616	0.322768
C154	C	0.952233	-0.670327	0.351884
C155	C	0.956977	-0.589200	0.347085
C156	C	1.007374	-0.547752	0.296684
H157	H	0.995419	-0.683710	0.364104
H158	H	0.940007	-0.683852	0.308725
H159	H	0.969206	-0.575681	0.390235
H160	H	0.913804	-0.575795	0.334856
H161	H	0.995149	-0.561277	0.253525
H162	H	1.050556	-0.561141	0.308909
H163	H	1.010595	-0.492704	0.293417
C164	C	0.803639	-0.486044	1.161981
C165	C	0.758018	-0.530306	1.123542
C166	C	0.705864	-0.580875	1.167486
H167	H	0.823466	-0.520553	1.195524
H168	H	0.779371	-0.455809	1.184313
H169	H	0.782283	-0.560539	1.101221
H170	H	0.738174	-0.495818	1.090001
H171	H	0.681596	-0.550640	1.189818
H172	H	0.725697	-0.615378	1.201027
H173	H	0.674900	-0.610907	1.141411
C174	C	0.803787	-0.486105	1.014602
C175	C	0.833293	-0.536778	0.982767
C176	C	0.781318	-0.587394	0.956075
H177	H	0.772764	-0.516271	1.050914
H178	H	0.779543	-0.455896	0.981766
H179	H	0.857526	-0.566984	1.015600
H180	H	0.864311	-0.506634	0.946446
H181	H	0.757074	-0.557185	0.923239
H182	H	0.750298	-0.617554	0.992391
H183	H	0.801331	-0.621776	0.934466
H184	H	0.885963	-1.079116	0.418322
H185	H	0.817788	-0.472386	0.794387
