data_functionalizedCrystal
_audit_creation_method	'MofGen! by Chris Wilmer'
_symmetry_space_group_name_H-M	'P1'
_symmetry_Int_Tables_number	1
_symmetry_cell_setting	triclinic
loop_
_symmetry_equiv_pos_as_xyz
  x,y,z
_cell_length_a	14.519710
_cell_length_b	14.519709
_cell_length_c	12.996460
_cell_angle_alpha	90.005823
_cell_angle_beta	90.007695
_cell_angle_gamma	96.319855
loop_
_atom_site_label
_atom_site_type_symbol
_atom_site_fract_x
_atom_site_fract_y
_atom_site_fract_z
O1	O	1.223852	-0.120893	-0.085547
O2	O	1.723852	0.379107	0.414453
O3	O	0.955375	-0.135130	-0.085554
O4	O	1.455375	0.364870	0.414446
O5	O	1.096732	0.006227	-0.085541
O6	O	1.596732	0.506227	0.414459
O7	O	1.082496	-0.262250	-0.085560
O8	O	1.582496	0.237750	0.414440
O9	O	1.096750	0.006235	0.085593
O10	O	1.596750	0.506235	0.585593
O11	O	0.955394	-0.135122	0.085580
O12	O	1.455394	0.364878	0.585580
O13	O	1.223871	-0.120885	0.085587
O14	O	1.723871	0.379115	0.585587
Cu15	Cu	1.089634	-0.128002	0.101209
Cu16	Cu	1.589634	0.371998	0.601209
Cu17	Cu	1.089612	-0.128012	-0.101176
Cu18	Cu	1.589612	0.371988	0.398824
O19	O	1.082514	-0.262242	0.085574
O20	O	1.582514	0.237758	0.585574
C21	C	0.921025	-0.134462	0.000012
C22	C	1.421025	0.365538	0.500012
C23	C	0.818643	-0.132474	0.000010
C24	C	1.318643	0.367526	0.500010
C25	C	1.096078	0.040591	0.000026
C26	C	1.596078	0.540591	0.500026
C27	C	1.094090	0.142972	0.000027
C28	C	1.594090	0.642972	0.500027
N29	N	1.089598	-0.128012	-0.243523
N30	N	1.589598	0.371988	0.256477
C31	C	1.258221	-0.121553	0.000019
C32	C	1.758221	0.378447	0.500019
C33	C	1.360602	-0.123541	0.000015
C34	C	1.860602	0.376459	0.500015
C35	C	1.735498	-0.130860	0.000014
C36	C	2.235498	0.369140	0.500014
C37	C	1.631190	-0.128828	0.000014
C38	C	2.131190	0.371172	0.500014
C39	C	1.548054	-0.127201	0.000013
C40	C	2.048054	0.372799	0.500013
C41	C	1.443739	-0.125168	0.000015
C42	C	1.943739	0.374832	0.500015
C43	C	1.083168	-0.296606	0.000005
C44	C	1.583168	0.203394	0.500005
C45	C	1.085156	-0.398987	-0.000002
C46	C	1.585156	0.101013	0.499998
C47	C	1.086770	0.517868	-0.000000
C48	C	1.586770	1.017868	0.500000
C49	C	1.088803	0.413560	0.000008
C50	C	1.588803	0.913560	0.500008
C51	C	1.090430	0.330423	0.000014
C52	C	1.590430	0.830423	0.500014
C53	C	1.092463	0.226109	0.000020
C54	C	1.592463	0.726109	0.500020
C55	C	1.089600	-0.128013	-0.336629
C56	C	1.589600	0.371987	0.163371
C57	C	1.089613	-0.128011	-0.453434
C58	C	1.589613	0.371989	0.046566
C59	C	1.089628	-0.128005	-0.546533
C60	C	1.589628	0.371995	-0.046533
C61	C	1.089640	-0.128002	-0.663345
C62	C	1.589640	0.371998	-0.163345
N63	N	1.089656	-0.127995	0.243557
N64	N	1.589656	0.372005	0.743557
