data_functionalizedCrystal
_audit_creation_method	'MofGen! by Chris Wilmer'
_symmetry_space_group_name_H-M	'P1'
_symmetry_Int_Tables_number	1
_symmetry_cell_setting	triclinic
loop_
_symmetry_equiv_pos_as_xyz
  x,y,z
_cell_length_a	16.120484
_cell_length_b	16.120566
_cell_length_c	12.759387
_cell_angle_alpha	92.921641
_cell_angle_beta	92.862335
_cell_angle_gamma	89.831930
loop_
_atom_site_label
_atom_site_type_symbol
_atom_site_fract_x
_atom_site_fract_y
_atom_site_fract_z
Zn1	Zn	-0.395529	-1.254491	-0.699451
Zn2	Zn	0.104471	-0.754491	-0.199451
Zn3	Zn	-0.534604	-1.247330	-0.532182
Zn4	Zn	-0.034604	-0.747330	-0.032182
Zn5	Zn	-0.388515	-1.115426	-0.514447
Zn6	Zn	0.111485	-0.615426	-0.014447
Zn7	Zn	-0.527484	-1.108343	-0.698479
Zn8	Zn	-0.027484	-0.608343	-0.198479
O9	O	-0.461533	-1.181398	-0.611140
O10	O	0.038467	-0.681398	-0.111140
O11	O	-0.419893	-1.369907	-0.685091
O12	O	0.080107	-0.869907	-0.185091
O13	O	-0.515270	-1.229800	-0.382809
O14	O	-0.015270	-0.729800	0.117191
O15	O	-0.273082	-1.139835	-0.531973
O16	O	0.226918	-0.639835	-0.031973
O17	O	-0.522071	-1.364646	-0.562200
O18	O	-0.022071	-0.864646	-0.062200
O19	O	-0.278236	-1.242005	-0.667894
O20	O	0.221764	-0.742005	-0.167894
O21	O	-0.407938	-1.132891	-0.369779
O22	O	0.092062	-0.632891	0.130221
O23	O	-0.401034	-0.998121	-0.531031
O24	O	0.098966	-0.498121	-0.031031
O25	O	-0.509935	-1.127763	-0.845629
O26	O	-0.009935	-0.627763	-0.345629
O27	O	-0.503133	-0.992917	-0.666239
O28	O	-0.003133	-0.492917	-0.166239
O29	O	-0.412988	-1.235137	-0.846342
O30	O	0.087012	-0.735137	-0.346342
O31	O	-0.650022	-1.222932	-0.561258
O32	O	-0.150022	-0.722932	-0.061258
O33	O	-0.644791	-1.120819	-0.683436
O34	O	-0.144791	-0.620819	-0.183436
C35	C	-0.450550	-0.965347	-0.596606
C36	C	0.049450	-0.465347	-0.096606
C37	C	-0.445872	-0.872918	-0.590414
C38	C	0.054128	-0.372918	-0.090414
C39	C	-0.437311	-0.703690	-0.579117
C40	C	0.062689	-0.203690	-0.079117
C41	C	-0.485826	-0.659942	-0.643176
C42	C	0.014174	-0.159942	-0.143176
C43	C	-0.481063	-0.565778	-0.636890
C44	C	0.018937	-0.065778	-0.136890
C45	C	-0.442073	-0.797863	-0.585401
C46	C	0.057927	-0.297863	-0.085401
C47	C	-0.677579	-1.170353	-0.624190
C48	C	-0.177579	-0.670353	-0.124190
C49	C	-0.770008	-1.165704	-0.629813
C50	C	-0.270008	-0.665704	-0.129813
C51	C	-0.939239	-1.157220	-0.640102
C52	C	-0.439239	-0.657220	-0.140102
C53	C	-0.982994	-1.205724	-0.582205
C54	C	-0.482994	-0.705724	-0.082205
C55	C	-1.077159	-1.201004	-0.587930
C56	C	-0.577159	-0.701004	-0.087930
C57	C	-0.845065	-1.161939	-0.634379
C58	C	-0.345065	-0.661939	-0.134379
C59	C	-0.244644	-1.192509	-0.598063
C60	C	0.255356	-0.692509	-0.098063
C61	C	-0.152219	-1.197243	-0.592491
C62	C	0.347781	-0.697243	-0.092491
C63	C	-0.461450	-1.181459	-0.885172
C64	C	0.038550	-0.681459	-0.385172
C65	C	-0.461414	-1.181484	-1.001948
C66	C	0.038586	-0.681484	-0.501948
C67	C	-0.472561	-0.398292	-0.625715
C68	C	0.027439	0.101708	-0.125715
C69	C	-0.477268	-0.490720	-0.631882
C70	C	0.022732	0.009280	-0.131882
C71	C	-0.349643	-1.080580	-0.988399
C72	C	0.150357	-0.580580	-0.488399
C73	C	-0.293742	-1.030144	-1.036486
C74	C	0.206258	-0.530144	-0.536486
C75	C	-0.293713	-1.030170	-1.146207
C76	C	0.206287	-0.530170	-0.646207
C77	C	-0.349593	-1.080636	-1.207846
C78	C	0.150407	-0.580636	-0.707846
C79	C	-0.405495	-1.131073	-1.159759
C80	C	0.094505	-0.631073	-0.659759
C81	C	-0.405516	-1.131043	-1.050034
C82	C	0.094484	-0.631043	-0.550034
C83	C	-0.517268	-1.231971	-1.173308
C84	C	-0.017268	-0.731971	-0.673308
C85	C	-0.517295	-1.231951	-1.063587
C86	C	-0.017295	-0.731951	-0.563587
C87	C	-0.573149	-1.282438	-1.234947
C88	C	-0.073149	-0.782438	-0.734947
C89	C	-0.629047	-1.332879	-1.186861
C90	C	-0.129047	-0.832879	-0.686861
C91	C	-0.629073	-1.332852	-1.077132
C92	C	-0.129073	-0.832852	-0.577132
C93	C	-0.573196	-1.282387	-1.015500
C94	C	-0.073196	-0.782387	-0.515500
C95	C	-0.461558	-1.181388	-0.338173
C96	C	0.038442	-0.681388	0.161827
C97	C	-0.461367	-1.181535	-0.221395
C98	C	0.038633	-0.681535	0.278605
H99	H	-0.949733	-1.250793	-0.528339
H100	H	-0.449733	-0.750793	-0.028339
Br101	Br	-0.994672	-1.082104	-0.729876
Br102	Br	-0.494672	-0.582104	-0.229876
Br103	Br	-0.704951	-1.401297	-1.011882
Br104	Br	-0.204951	-0.901297	-0.511882
H105	H	-0.349655	-1.080560	-0.899058
H106	H	0.150345	-0.580560	-0.399058
H107	H	-0.573209	-1.282362	-0.926159
H108	H	-0.073209	-0.782362	-0.426159
Br109	Br	-0.362125	-0.648249	-0.479847
Br110	Br	0.137875	-0.148249	0.020153
Br111	Br	-0.217895	-0.961671	-0.952831
Br112	Br	0.282105	-0.461671	-0.452831
Br113	Br	-0.217845	-0.961724	-1.211472
Br114	Br	0.282155	-0.461724	-0.711472
Br115	Br	-0.349571	-1.080652	-1.356754
Br116	Br	0.150429	-0.580652	-0.856754
Br117	Br	-0.573121	-1.282463	-1.383856
Br118	Br	-0.073121	-0.782463	-0.883856
H119	H	-0.674543	-1.373961	-1.237055
H120	H	-0.174543	-0.873961	-0.737055
H121	H	-0.530937	-0.693207	-0.702740
H122	H	-0.030937	-0.193207	-0.202740
