data_functionalizedCrystal
_audit_creation_method	'MofGen! by Chris Wilmer'
_symmetry_space_group_name_H-M	'P1'
_symmetry_Int_Tables_number	1
_symmetry_cell_setting	triclinic
loop_
_symmetry_equiv_pos_as_xyz
  x,y,z
_cell_length_a	12.827893
_cell_length_b	21.295416
_cell_length_c	12.827885
_cell_angle_alpha	89.964373
_cell_angle_beta	90.019272
_cell_angle_gamma	89.969508
loop_
_atom_site_label
_atom_site_type_symbol
_atom_site_fract_x
_atom_site_fract_y
_atom_site_fract_z
Zn1	Zn	1.597561	0.250576	0.590806
Zn2	Zn	1.930894	0.583909	0.924140
Zn3	Zn	2.264228	0.917243	1.257473
Zn4	Zn	1.597410	0.355858	0.416049
Zn5	Zn	1.930743	0.689191	0.749382
Zn6	Zn	2.264076	1.022525	1.082715
Zn7	Zn	1.422803	0.250607	0.416080
Zn8	Zn	1.756136	0.583940	0.749413
Zn9	Zn	2.089469	0.917274	1.082747
Zn10	Zn	1.422742	0.355812	0.590749
Zn11	Zn	1.756076	0.689145	0.924082
Zn12	Zn	2.089409	1.022478	1.257415
O13	O	1.510129	0.303213	0.503421
O14	O	1.843462	0.636547	0.836754
O15	O	2.176796	0.969880	1.170088
O16	O	1.743777	0.264548	0.567635
O17	O	2.077110	0.597882	0.900969
O18	O	2.410444	0.931215	1.234302
O19	O	1.574209	0.341929	0.269817
O20	O	1.907543	0.675262	0.603150
O21	O	2.240876	1.008595	0.936483
O22	O	1.446073	0.162514	0.439295
O23	O	1.779407	0.495847	0.772628
O24	O	2.112740	0.829180	1.105961
O25	O	1.743666	0.341899	0.439242
O26	O	2.076999	0.675232	0.772575
O27	O	2.410332	1.008565	1.105908
O28	O	1.574468	0.162491	0.567666
O29	O	1.907801	0.495824	0.900999
O30	O	2.241134	0.829157	1.234332
O31	O	1.445926	0.264601	0.269840
O32	O	1.779260	0.597935	0.603173
O33	O	2.112593	0.931268	0.936506
O34	O	1.276558	0.264556	0.439239
O35	O	1.609892	0.597889	0.772572
O36	O	1.943225	0.931223	1.105906
O37	O	1.445971	0.341819	0.736992
O38	O	1.779304	0.675153	1.070326
O39	O	2.112637	1.008486	1.403659
O40	O	1.276514	0.341850	0.567567
O41	O	1.609848	0.675183	0.900901
O42	O	1.943181	1.008516	1.234234
O43	O	1.574409	0.264503	0.737035
O44	O	1.907743	0.597837	1.070368
O45	O	2.241076	0.931170	1.403701
O46	O	1.574151	0.443941	0.439186
O47	O	1.907484	0.777275	0.772519
O48	O	2.240818	1.110608	1.105853
O49	O	1.445824	0.443907	0.567537
O50	O	1.779157	0.777241	0.900871
O51	O	2.112490	1.110574	1.234204
C52	C	1.238619	0.303202	0.503401
C53	C	1.571952	0.636535	0.836734
C54	C	1.905286	0.969868	1.170068
C55	C	1.122466	0.303212	0.503417
C56	C	1.455799	0.636545	0.836751
C57	C	1.789133	0.969878	1.170084
C58	C	1.070736	0.265004	0.567049
C59	C	1.404069	0.598338	0.900383
C60	C	1.737403	0.931671	1.233716
C61	C	0.950686	0.265014	0.567068
C62	C	1.284019	0.598347	0.900401
C63	C	1.617352	0.931681	1.233734
C64	C	1.509993	0.466765	0.503375
C65	C	1.843326	0.800098	0.836708
C66	C	2.176659	1.133432	1.170041
C67	C	1.510030	0.536733	0.503390
C68	C	1.843363	0.870066	0.836723
C69	C	2.176697	1.203400	1.170057
C70	C	1.576910	0.569596	0.436628
C71	C	1.910243	0.902930	0.769962
C72	C	2.243576	1.236263	1.103295
C73	C	1.576959	0.635339	0.436656
C74	C	1.910292	0.968672	0.769990
C75	C	2.243626	1.302006	1.103323
C76	C	1.510110	0.668215	0.503435
C77	C	1.843443	1.001549	0.836769
C78	C	2.176777	1.334882	1.170102
C79	C	1.443226	0.635344	0.570210
C80	C	1.776559	0.968677	0.903543
C81	C	2.109892	1.302011	1.236877
C82	C	1.443186	0.569603	0.570187
C83	C	1.776519	0.902936	0.903521
C84	C	2.109852	1.236269	1.236854
N85	N	1.418694	0.771481	0.511403
N86	N	1.752027	1.104814	0.844736
N87	N	2.085361	1.438147	1.178069
N88	N	1.418735	0.833932	0.511418
N89	N	1.752068	1.167266	0.844752
N90	N	2.085402	1.500599	1.178085
C91	C	1.510228	0.866290	0.503509
C92	C	1.843561	1.199623	0.836843
C93	C	2.176895	1.532957	1.170176
N94	N	1.601681	0.833837	0.495564
N95	N	1.935014	1.167171	0.828898
N96	N	2.268347	1.500504	1.162231
N97	N	1.601639	0.771380	0.495543
N98	N	1.934972	1.104713	0.828877
N99	N	2.268305	1.438047	1.162210
C100	C	1.510146	0.739501	0.503468
C101	C	1.843480	1.072834	0.836801
C102	C	2.176813	1.406167	1.170135
C103	C	1.577167	0.970439	0.436775
C104	C	1.910500	1.303772	0.770108
C105	C	2.243834	1.637106	1.103441
C106	C	1.577218	1.036183	0.436810
C107	C	1.910551	1.369516	0.770144
C108	C	2.243885	1.702849	1.103477
C109	C	1.443475	1.036187	0.570358
C110	C	1.776809	1.369520	0.903692
C111	C	2.110142	1.702853	1.237025
C112	C	1.443434	0.970444	0.570328
C113	C	1.776767	1.303777	0.903662
C114	C	2.110100	1.637111	1.236995
C115	C	1.510278	0.937574	0.503531
C116	C	1.843611	1.270908	0.836864
C117	C	2.176945	1.604241	1.170198
C118	C	1.782699	0.303225	0.503441
C119	C	2.116032	0.636559	0.836775
C120	C	2.449366	0.969892	1.170108
C121	C	1.898852	0.303230	0.503450
C122	C	2.232185	0.636564	0.836784
C123	C	2.565519	0.969897	1.170117
C124	C	1.510200	0.303153	0.775991
C125	C	1.843533	0.636486	1.109325
C126	C	2.176867	0.969819	1.442658
C127	C	1.510230	0.303127	0.892144
C128	C	1.843564	0.636460	1.225478
C129	C	2.176897	0.969794	1.558811
C130	C	1.510295	1.139023	0.503508
C131	C	1.843629	1.472356	0.836841
C132	C	2.176962	1.805690	1.170175
C133	C	1.510370	1.069055	0.503591
C134	C	1.843703	1.402388	0.836925
C135	C	2.177036	1.735721	1.170258
C136	C	1.510118	0.303228	0.231911
C137	C	1.843451	0.636561	0.565244
C138	C	2.176785	0.969895	0.898578
C139	C	1.510290	0.303076	0.115758
C140	C	1.843624	0.636410	0.449092
C141	C	2.176957	0.969743	0.782425
C142	C	1.573793	0.264861	0.943950
C143	C	1.907126	0.598194	1.277283
C144	C	2.240459	0.931528	1.610617
C145	C	1.573826	0.264834	1.064001
C146	C	1.907159	0.598167	1.397334
C147	C	2.240492	0.931500	1.730667
H148	H	1.077877	0.335928	0.448951
H149	H	1.411210	0.669262	0.782284
H150	H	1.744544	1.002595	1.115617
Br151	Br	1.667641	0.524990	0.345990
Br152	Br	2.000974	0.858324	0.679323
Br153	Br	2.334307	1.191657	1.012656
H154	H	1.631424	0.662102	0.382291
H155	H	1.964757	0.995435	0.715625
H156	H	2.298091	1.328768	1.048958
H157	H	1.388723	0.542845	0.624554
H158	H	1.722057	0.876178	0.957887
H159	H	2.055390	1.209511	1.291221
Br160	Br	1.419590	0.357691	1.041517
Br161	Br	1.752923	0.691024	1.374850
Br162	Br	2.086257	1.024357	1.708184
H163	H	1.388799	0.662116	0.624584
H164	H	1.722132	0.995450	0.957917
H165	H	2.055465	1.328783	1.291250
H166	H	1.389050	1.062954	0.624736
H167	H	1.722384	1.396287	0.958069
H168	H	2.055717	1.729621	1.291403
Br169	Br	1.668002	1.080785	0.346208
Br170	Br	2.001336	1.414118	0.679541
Br171	Br	2.334669	1.747452	1.012874
H172	H	1.115325	0.232284	0.621510
H173	H	1.448658	0.565617	0.954843
H174	H	1.781992	0.898951	1.288177
Br175	Br	0.972985	0.357761	0.412650
Br176	Br	1.306319	0.691095	0.745983
Br177	Br	1.639652	1.024428	1.079317
H178	H	1.631599	0.943675	0.382387
H179	H	1.964932	1.277009	0.715721
H180	H	2.298266	1.610342	1.049054
H181	H	1.628247	0.232075	1.108552
H182	H	1.961581	0.565408	1.441885
H183	H	2.294914	0.898741	1.775219
Br184	Br	1.352661	0.925840	0.660936
Br185	Br	1.685994	1.259174	0.994270
Br186	Br	2.019327	1.592507	1.327603
H187	H	0.906199	0.232305	0.621549
H188	H	1.239532	0.565639	0.954882
H189	H	1.572866	0.898972	1.288216
Br190	Br	1.664427	0.210269	0.869752
Br191	Br	1.997760	0.543602	1.203085
Br192	Br	2.331094	0.876936	1.536418
H193	H	1.455830	0.335863	0.936668
H194	H	1.789163	0.669197	1.270002
H195	H	2.122496	1.002530	1.603335
