data_functionalizedCrystal
_audit_creation_method	'MofGen! by Chris Wilmer'
_symmetry_space_group_name_H-M	'P1'
_symmetry_Int_Tables_number	1
_symmetry_cell_setting	triclinic
loop_
_symmetry_equiv_pos_as_xyz
  x,y,z
_cell_length_a	13.635800
_cell_length_b	10.992469
_cell_length_c	10.992410
_cell_angle_alpha	88.169406
_cell_angle_beta	108.764651
_cell_angle_gamma	71.234376
loop_
_atom_site_label
_atom_site_type_symbol
_atom_site_fract_x
_atom_site_fract_y
_atom_site_fract_z
V1	V	2.057126	-0.177761	0.400575
O2	O	2.036188	0.008542	0.392968
O3	O	2.045918	-0.352470	0.397817
O4	O	2.045922	-0.175026	0.575288
O5	O	2.036183	-0.170130	0.214269
V6	V	2.295573	-0.155477	0.378293
O7	O	2.195027	-0.226642	0.449451
O8	O	2.382771	-0.106595	0.329417
O9	O	2.195178	0.019232	0.381051
O10	O	2.375210	-0.341780	0.385900
O11	O	2.375214	-0.163108	0.564599
O12	O	2.195173	-0.158211	0.203581
V13	V	2.557126	-0.177761	0.400575
O14	O	2.536188	0.008542	0.392968
O15	O	2.545918	-0.352470	0.397817
O16	O	2.545922	-0.175026	0.575288
O17	O	2.536183	-0.170130	0.214269
V18	V	2.795573	-0.155477	0.378293
O19	O	2.695027	-0.226642	0.449451
O20	O	2.882771	-0.106595	0.329417
O21	O	2.695178	0.019232	0.381051
O22	O	2.875210	-0.341780	0.385900
O23	O	2.875214	-0.163108	0.564599
O24	O	2.695173	-0.158211	0.203581
C25	C	1.971158	-0.395060	0.391493
C26	C	2.002724	-0.537887	0.390403
C27	C	1.903535	-0.584385	0.382247
C28	C	1.936462	-0.733022	0.381616
C29	C	2.135079	-0.764535	0.515760
C30	C	2.101516	-0.615889	0.516930
C31	C	2.039683	-0.577587	0.271579
C32	C	2.070052	-0.725808	0.268700
C33	C	1.971163	-0.168712	0.617873
C34	C	2.002730	-0.167632	0.760701
C35	C	2.101609	0.061816	0.387371
C36	C	2.059663	0.204641	0.388470
C37	C	2.101603	-0.164530	0.160989
C38	C	2.059655	-0.165603	0.018159
C39	C	2.471158	-0.395060	0.391493
C40	C	2.502724	-0.537887	0.390403
C41	C	2.471163	-0.168712	0.617873
C42	C	2.502730	-0.167632	0.760701
C43	C	1.936292	-0.157796	0.955826
C44	C	1.903517	-0.159451	0.807342
C45	C	2.101740	-0.294312	0.837792
C46	C	2.133897	-0.293192	0.986359
C47	C	2.072777	-0.047893	0.948352
C48	C	2.037422	-0.047293	0.799339
C49	C	2.601609	0.061816	0.387371
C50	C	2.559663	0.204641	0.388470
C51	C	2.601603	-0.164530	0.160989
C52	C	2.559655	-0.165603	0.018159
C53	C	2.436558	-0.733174	0.381616
C54	C	2.403515	-0.584530	0.382241
C55	C	2.538029	-0.576522	0.270587
C56	C	2.570148	-0.725066	0.269318
C57	C	2.635902	-0.763647	0.514933
C58	C	2.601373	-0.615134	0.517533
C59	C	2.436292	-0.157796	0.955826
C60	C	2.403517	-0.159451	0.807342
C61	C	2.601740	-0.294312	0.837792
C62	C	2.633897	-0.293192	0.986359
C63	C	2.572777	-0.047893	0.948352
C64	C	2.537422	-0.047293	0.799339
H65	H	1.878178	-0.752659	0.290140
H66	H	1.828947	-0.531792	0.291257
H67	H	2.225806	-0.806311	0.525421
H68	H	1.874833	-0.557714	0.467603
H69	H	1.923877	-0.779329	0.467026
H70	H	2.078694	-0.592854	0.606780
H71	H	2.662269	-0.052498	0.989192
H72	H	2.378662	-0.753734	0.290413
H73	H	2.724898	-0.304208	1.028989
H74	H	2.176524	-0.586514	0.528115
H75	H	2.078860	-0.383659	0.812178
H76	H	2.626117	-0.382320	1.032620
H77	H	2.632733	-0.813164	0.605595
H78	H	2.676263	-0.584926	0.530915
H79	H	2.725827	-0.804764	0.521213
H80	H	2.676928	-0.304874	0.808988
H81	H	2.578860	-0.383659	0.812178
H82	H	1.874928	-0.245201	0.782519
H83	H	2.128943	-0.813377	0.604719
H84	H	2.021318	0.048305	0.968721
H85	H	2.126117	-0.382320	1.032620
H86	H	1.971446	-0.523031	0.176097
H87	H	2.521318	0.048305	0.968721
H88	H	2.658255	-0.765949	0.269128
H89	H	2.608479	-0.045805	0.766828
H90	H	1.965794	0.046420	0.746991
H91	H	2.108479	-0.045805	0.766828
H92	H	2.162269	-0.052498	0.989192
H93	H	2.329288	-0.068362	0.754011
H94	H	2.374953	-0.558765	0.467854
H95	H	2.576873	-0.591237	0.606179
H96	H	2.013824	-0.744010	0.174605
H97	H	1.829288	-0.068362	0.754011
H98	H	2.465794	0.046420	0.746991
H99	H	2.377689	-0.066081	0.974664
H100	H	2.157403	-0.767458	0.266277
H101	H	2.176928	-0.304874	0.808988
H102	H	2.113526	-0.548039	0.276362
H103	H	2.423824	-0.242371	1.003809
H104	H	1.923824	-0.242371	1.003809
H105	H	2.224898	-0.304208	1.028989
H106	H	1.877689	-0.066081	0.974664
H107	H	2.423647	-0.779595	0.466698
H108	H	2.329174	-0.532087	0.290963
H109	H	2.514748	-0.742580	0.174186
H110	H	2.610844	-0.546287	0.271969
H111	H	2.467734	-0.522285	0.176469
H112	H	2.374928	-0.245201	0.782519
