data_functionalizedCrystal
_audit_creation_method	'MofGen! by Chris Wilmer'
_symmetry_space_group_name_H-M	'P1'
_symmetry_Int_Tables_number	1
_symmetry_cell_setting	triclinic
loop_
_symmetry_equiv_pos_as_xyz
  x,y,z
_cell_length_a	17.000383
_cell_length_b	15.944545
_cell_length_c	15.021413
_cell_angle_alpha	89.990408
_cell_angle_beta	89.997113
_cell_angle_gamma	79.548238
loop_
_atom_site_label
_atom_site_type_symbol
_atom_site_fract_x
_atom_site_fract_y
_atom_site_fract_z
O1	O	0.102624	1.106930	0.073973
O2	O	0.352624	1.356930	0.323973
O3	O	0.602624	1.606930	0.573973
O4	O	0.852624	1.856930	0.823973
O5	O	0.115285	0.861443	0.073987
O6	O	0.365285	1.111443	0.323987
O7	O	0.615285	1.361443	0.573987
O8	O	0.865285	1.611443	0.823987
O9	O	-0.006911	0.999428	0.073976
O10	O	0.243089	1.249428	0.323976
O11	O	0.493089	1.499428	0.573976
O12	O	0.743089	1.749428	0.823976
O13	O	0.224820	0.968945	0.073984
O14	O	0.474820	1.218945	0.323984
O15	O	0.724820	1.468945	0.573984
O16	O	0.974820	1.718945	0.823984
O17	O	-0.006903	0.999443	-0.074089
O18	O	0.243097	1.249443	0.175911
O19	O	0.493097	1.499443	0.425911
O20	O	0.743097	1.749443	0.675911
O21	O	0.115293	0.861458	-0.074077
O22	O	0.365293	1.111458	0.175923
O23	O	0.615293	1.361458	0.425923
O24	O	0.865293	1.611458	0.675923
O25	O	0.102632	1.106944	-0.074091
O26	O	0.352632	1.356944	0.175909
O27	O	0.602632	1.606944	0.425909
O28	O	0.852632	1.856944	0.675909
Zn29	Zn	0.108964	0.984203	-0.097593
Zn30	Zn	0.358964	1.234203	0.152407
Zn31	Zn	0.608964	1.484203	0.402407
Zn32	Zn	0.858964	1.734203	0.652407
Zn33	Zn	0.108954	0.984184	0.097488
Zn34	Zn	0.358954	1.234184	0.347488
Zn35	Zn	0.608954	1.484184	0.597488
Zn36	Zn	0.858954	1.734184	0.847488
O37	O	0.224828	0.968959	-0.074080
O38	O	0.474828	1.218959	0.175920
O39	O	0.724828	1.468959	0.425920
O40	O	0.974828	1.718959	0.675920
C41	C	0.114764	0.830195	-0.000043
C42	C	0.364764	1.080195	0.249957
C43	C	0.614764	1.330195	0.499957
C44	C	0.864764	1.580195	0.749957
C45	C	0.113191	0.737065	-0.000038
C46	C	0.363191	0.987065	0.249962
C47	C	0.613191	1.237065	0.499962
C48	C	0.863191	1.487065	0.749962
C49	C	0.032748	0.472378	-0.000050
C50	C	0.282748	0.722378	0.249950
C51	C	0.532748	0.972378	0.499950
C52	C	0.782748	1.222378	0.749950
C53	C	0.071535	0.520100	-0.073054
C54	C	0.321535	0.770100	0.176946
C55	C	0.571535	1.020100	0.426946
C56	C	0.821535	1.270100	0.676946
C57	C	0.107581	0.401836	-0.000053
C58	C	0.357581	0.651836	0.249947
C59	C	0.607581	0.901836	0.499947
C60	C	0.857581	1.151836	0.749947
C61	C	0.071547	0.520065	0.072925
C62	C	0.321547	0.770065	0.322925
C63	C	0.571547	1.020065	0.572925
C64	C	0.821547	1.270065	0.822925
C65	C	0.110333	0.566546	-0.000044
C66	C	0.360333	0.816546	0.249956
C67	C	0.610333	1.066546	0.499956
C68	C	0.860333	1.316546	0.749956
C69	C	0.146348	0.448332	-0.073118
C70	C	0.396348	0.698332	0.176882
C71	C	0.646348	0.948332	0.426882
C72	C	0.896348	1.198332	0.676882
C73	C	0.146350	0.448294	0.072928
C74	C	0.396350	0.698294	0.322928
C75	C	0.646350	0.948294	0.572928
C76	C	0.896350	1.198294	0.822928
C77	C	0.185192	0.495979	-0.000094
C78	C	0.435192	0.745979	0.249906
C79	C	0.685192	0.995979	0.499906
C80	C	0.935192	1.245979	0.749906
C81	C	0.105993	0.306951	-0.000059
C82	C	0.355993	0.556951	0.249941
C83	C	0.605993	0.806951	0.499941
C84	C	0.855993	1.056951	0.749941
C85	C	0.111927	0.661428	-0.000045
C86	C	0.361927	0.911428	0.249955
C87	C	0.611927	1.161428	0.499955
C88	C	0.861927	1.411428	0.749955
C89	C	-0.036561	1.001072	-0.000056
C90	C	0.213439	1.251072	0.249944
C91	C	0.463439	1.501072	0.499944
C92	C	0.713439	1.751072	0.749944
C93	C	-0.124919	1.005941	-0.000053
C94	C	0.125081	1.255941	0.249947
C95	C	0.375081	1.505941	0.499947
C96	C	0.625081	1.755941	0.749947
C97	C	-0.625135	1.037375	-0.000051
C98	C	-0.375135	1.287375	0.249949
C99	C	-0.125135	1.537375	0.499949
C100	C	0.124865	1.787375	0.749949
C101	C	-0.542112	1.032794	-0.000056
C102	C	-0.292112	1.282794	0.249944
C103	C	-0.042112	1.532794	0.499944
C104	C	0.207888	1.782794	0.749944
C105	C	-0.491120	0.953285	-0.000048
C106	C	-0.241120	1.203285	0.249952
C107	C	0.008880	1.453285	0.499952
C108	C	0.258880	1.703285	0.749952
C109	C	-0.523154	0.878351	-0.000043
C110	C	-0.273154	1.128351	0.249957
C111	C	-0.023154	1.378351	0.499957
C112	C	0.226846	1.628351	0.749957
C113	C	-0.606176	0.882932	-0.000044
C114	C	-0.356176	1.132932	0.249956
C115	C	-0.106176	1.382932	0.499956
C116	C	0.143824	1.632932	0.749956
C117	C	-0.239975	0.935588	-0.000049
C118	C	0.010025	1.185588	0.249951
C119	C	0.260025	1.435588	0.499951
C120	C	0.510025	1.685588	0.749951
C121	C	-0.156948	0.931012	-0.000045
C122	C	0.093052	1.181012	0.249955
C123	C	0.343052	1.431012	0.499955
C124	C	0.593052	1.681012	0.749955
C125	C	-0.175912	1.085457	-0.000061
C126	C	0.074088	1.335457	0.249939
C127	C	0.324088	1.585457	0.499939
C128	C	0.574088	1.835457	0.749939
C129	C	-0.258934	1.090031	-0.000057
C130	C	-0.008934	1.340031	0.249943
C131	C	0.241066	1.590031	0.499943
C132	C	0.491066	1.840031	0.749943
C133	C	-0.290961	1.015097	-0.000056
C134	C	-0.040961	1.265097	0.249944
C135	C	0.209039	1.515097	0.499944
C136	C	0.459039	1.765097	0.749944
C137	C	-0.406257	0.948600	-0.000050
C138	C	-0.156257	1.198600	0.249950
C139	C	0.093743	1.448600	0.499950
C140	C	0.343743	1.698600	0.749950
C141	C	-0.375822	1.019782	-0.000060
C142	C	-0.125822	1.269782	0.249940
C143	C	0.124178	1.519782	0.499940
C144	C	0.374178	1.769782	0.749940
C145	C	0.254478	0.967315	-0.000047
C146	C	0.504478	1.217315	0.249953
C147	C	0.754478	1.467315	0.499953
C148	C	1.004478	1.717315	0.749953
C149	C	0.342836	0.962447	-0.000044
C150	C	0.592836	1.212447	0.249956
C151	C	0.842836	1.462447	0.499956
C152	C	1.092836	1.712447	0.749956
N153	N	0.108970	0.984222	-0.230730
N154	N	0.358970	1.234222	0.019270
N155	N	0.608970	1.484222	0.269270
N156	N	0.858970	1.734222	0.519270
C157	C	0.103153	1.138192	-0.000059
C158	C	0.353153	1.388192	0.249941
C159	C	0.603153	1.638192	0.499941
C160	C	0.853153	1.888192	0.749941
C161	C	0.104726	1.231322	-0.000059
C162	C	0.354726	1.481322	0.249941
C163	C	0.604726	1.731322	0.499941
C164	C	0.854726	1.981322	0.749941
C165	C	0.052453	1.048039	-0.470395
C166	C	0.302453	1.298039	-0.220395
C167	C	0.552453	1.548039	0.029605
C168	C	0.802453	1.798039	0.279605
C169	C	0.036993	0.973282	-0.529720
C170	C	0.286993	1.223282	-0.279720
C171	C	0.536993	1.473282	-0.029720
C172	C	0.786993	1.723282	0.220280
C173	C	0.108960	0.984204	-0.412337
C174	C	0.358960	1.234204	-0.162337
C175	C	0.608960	1.484204	0.087663
C176	C	0.858960	1.734204	0.337663
C177	C	0.124373	1.058946	-0.529754
C178	C	0.374373	1.308946	-0.279754
C179	C	0.624373	1.558946	-0.029754
C180	C	0.874373	1.808946	0.220246
C181	C	0.108948	0.984193	-0.587761
C182	C	0.358948	1.234193	-0.337761
C183	C	0.608948	1.484193	-0.087761
C184	C	0.858948	1.734193	0.162239
C185	C	0.093464	0.909411	-0.470356
C186	C	0.343464	1.159411	-0.220356
C187	C	0.593464	1.409411	0.029644
C188	C	0.843464	1.659411	0.279644
C189	C	0.180875	0.995122	-0.470384
C190	C	0.430875	1.245122	-0.220384
C191	C	0.680875	1.495122	0.029616
C192	C	0.930875	1.745122	0.279616
C193	C	0.165446	0.920308	-0.529683
C194	C	0.415446	1.170308	-0.279683
C195	C	0.665446	1.420308	-0.029683
C196	C	0.915446	1.670308	0.220317
C197	C	0.108964	0.984211	-0.311280
C198	C	0.358964	1.234211	-0.061280
C199	C	0.608964	1.484211	0.188720
C200	C	0.858964	1.734211	0.438720
C201	C	0.108944	0.984176	-0.688817
C202	C	0.358944	1.234176	-0.438817
C203	C	0.608944	1.484176	-0.188817
C204	C	0.858944	1.734176	0.061183
N205	N	0.108941	0.984172	0.230626
N206	N	0.358941	1.234172	0.480626
N207	N	0.608941	1.484172	0.730626
N208	N	0.858941	1.734172	0.980626
H209	H	0.039934	0.551373	-0.134776
H210	H	0.289934	0.801373	0.115224
H211	H	0.539934	1.051373	0.365224
H212	H	0.789934	1.301373	0.615224
H213	H	-0.031700	0.461488	-0.000124
H214	H	0.218300	0.711488	0.249876
H215	H	0.468300	0.961488	0.499876
H216	H	0.718300	1.211488	0.749876
H217	H	-0.300447	1.154777	-0.000068
H218	H	-0.050447	1.404777	0.249932
H219	H	0.199553	1.654777	0.499932
H220	H	0.449553	1.904777	0.749932
H221	H	-0.666648	1.102121	-0.000051
H222	H	-0.416648	1.352121	0.249949
H223	H	-0.166648	1.602121	0.499949
H224	H	0.083352	1.852121	0.749949
H225	H	-0.481629	0.813612	-0.000041
H226	H	-0.231629	1.063612	0.249959
H227	H	0.018371	1.313612	0.499959
H228	H	0.268371	1.563612	0.749959
H229	H	-0.516039	1.093809	-0.000064
H230	H	-0.266039	1.343809	0.249936
H231	H	-0.016039	1.593809	0.499936
H232	H	0.233961	1.843809	0.749936
H233	H	-0.149826	1.146464	-0.000054
H234	H	0.100174	1.396464	0.249946
H235	H	0.350174	1.646464	0.499946
H236	H	0.600174	1.896464	0.749946
H237	H	0.177932	0.417194	-0.134903
H238	H	0.427932	0.667194	0.115097
H239	H	0.677932	0.917194	0.365097
H240	H	0.927932	1.167194	0.615097
H241	H	0.213229	0.866264	-0.555550
H242	H	0.463229	1.116264	-0.305550
H243	H	0.713229	1.366264	-0.055550
H244	H	0.963229	1.616264	0.194450
H245	H	0.249689	0.506704	-0.000135
H246	H	0.499689	0.756704	0.249865
H247	H	0.749689	1.006704	0.499865
H248	H	0.999689	1.256704	0.749865
H249	H	-0.417344	1.084519	-0.000072
H250	H	-0.167344	1.334519	0.249928
H251	H	0.082656	1.584519	0.499928
H252	H	0.332656	1.834519	0.749928
H253	H	-0.023829	0.964035	-0.555784
H254	H	0.226171	1.214035	-0.305784
H255	H	0.476171	1.464035	-0.055784
H256	H	0.726171	1.714035	0.194216
H257	H	0.080353	0.846188	-0.444375
H258	H	0.330353	1.096188	-0.194375
H259	H	0.580353	1.346188	0.055625
H260	H	0.830353	1.596188	0.305625
H261	H	0.177923	0.417008	0.134651
H262	H	0.427923	0.667008	0.384651
H263	H	0.677923	0.917008	0.634651
H264	H	0.927923	1.167008	0.884651
H265	H	-0.115431	0.866262	-0.000041
H266	H	0.134569	1.116262	0.249959
H267	H	0.384569	1.366262	0.499959
H268	H	0.634569	1.616262	0.749959
H269	H	-0.266040	0.874572	-0.000039
H270	H	-0.016040	1.124572	0.249961
H271	H	0.233960	1.374572	0.499961
H272	H	0.483960	1.624572	0.749961
H273	H	0.137416	1.122159	-0.555845
H274	H	0.387416	1.372159	-0.305845
H275	H	0.637416	1.622159	-0.055845
H276	H	0.887416	1.872159	0.194155
H277	H	0.241679	1.004394	-0.444301
H278	H	0.491679	1.254394	-0.194301
H279	H	0.741679	1.504394	0.055699
H280	H	0.991679	1.754394	0.305699
H281	H	0.039927	0.551313	0.134641
H282	H	0.289927	0.801313	0.384641
H283	H	0.539927	1.051313	0.634641
H284	H	0.789927	1.301313	0.884641
H285	H	-0.632252	0.821917	-0.000045
H286	H	-0.382252	1.071917	0.249955
H287	H	-0.132252	1.321917	0.499955
H288	H	0.117748	1.571917	0.749955
H289	H	-0.364730	0.883863	-0.000039
H290	H	-0.114730	1.133863	0.249961
H291	H	0.135270	1.383863	0.499961
H292	H	0.385270	1.633863	0.749961
H293	H	0.004641	1.101972	-0.444362
H294	H	0.254641	1.351972	-0.194362
H295	H	0.504641	1.601972	0.055638
H296	H	0.754641	1.851972	0.305638
