data_functionalizedCrystal
_audit_creation_method	'MofGen! by Chris Wilmer'
_symmetry_space_group_name_H-M	'P1'
_symmetry_Int_Tables_number	1
_symmetry_cell_setting	triclinic
loop_
_symmetry_equiv_pos_as_xyz
  x,y,z
_cell_length_a	14.044220
_cell_length_b	10.654562
_cell_length_c	9.130313
_cell_angle_alpha	89.996930
_cell_angle_beta	90.000354
_cell_angle_gamma	91.160509
loop_
_atom_site_label
_atom_site_type_symbol
_atom_site_fract_x
_atom_site_fract_y
_atom_site_fract_z
O1	O	-0.133285	1.681219	-0.121893
O2	O	-0.145966	1.317016	-0.121875
O3	O	-0.001605	1.493651	-0.121877
O4	O	-0.277646	1.504584	-0.121891
O5	O	-0.001609	1.493649	0.121721
O6	O	-0.145970	1.317014	0.121724
O7	O	-0.133289	1.681217	0.121705
Cu8	Cu	-0.139630	1.499115	0.143957
Cu9	Cu	-0.139625	1.499118	-0.144127
O10	O	-0.277650	1.504582	0.121708
C11	C	-0.145034	1.270124	-0.000073
C12	C	-0.142241	1.130401	-0.000066
C13	C	-0.140940	1.064738	0.132708
C14	C	-0.138323	0.933453	0.132684
C15	C	-0.138312	0.933504	-0.132901
C16	C	-0.140922	1.064788	-0.132875
C17	C	-0.142259	1.130351	0.265517
C18	C	-0.140960	1.064688	0.398302
C19	C	-0.138343	0.933403	0.398278
C20	C	-0.137025	0.867781	0.265469
C21	C	-0.312994	1.509369	-0.000094
C22	C	-0.418315	1.523645	-0.000100
C23	C	-0.611148	1.549743	-0.000094
C24	C	-0.668112	1.448495	-0.000088
C25	C	-0.775412	1.463017	-0.000085
C26	C	-0.503839	1.535223	-0.000097
C27	C	0.033739	1.488864	-0.000079
C28	C	0.139059	1.474588	-0.000083
C29	C	-0.134221	1.728109	-0.000100
C30	C	-0.137014	1.867832	-0.000116
N31	N	-0.139633	1.499123	0.346580
N32	N	-0.139615	1.499119	-0.346749
C33	C	-0.075731	1.577361	0.423231
C34	C	-0.075720	1.577356	0.576567
C35	C	-0.203519	1.420873	0.576589
C36	C	-0.203525	1.420872	0.423255
C37	C	-0.011839	1.655612	0.346555
C38	C	0.052067	1.733857	0.423206
C39	C	0.052079	1.733852	0.576543
C40	C	-0.011816	1.655603	0.653229
H41	H	-0.142025	1.118127	0.506431
F42	F	0.120071	1.817121	0.341592
F43	F	-0.271535	1.337598	0.341677
F44	F	-0.136952	0.863524	0.539596
H45	H	-0.137242	0.880064	-0.241028
F46	F	0.120098	1.817115	0.658119
H47	H	-0.642962	1.647322	-0.000094
H48	H	-0.141986	1.118251	-0.240992
H49	H	-0.636297	1.350908	-0.000082
H50	H	-0.011795	1.655596	0.778086
F51	F	-0.271517	1.337602	0.658207
H52	H	-0.134892	0.760880	0.265459
F53	F	-0.145050	1.270076	0.265554
F54	F	-0.011849	1.655626	0.183362
