data_functionalizedCrystal
_audit_creation_method	'MofGen! by Chris Wilmer'
_symmetry_space_group_name_H-M	'P1'
_symmetry_Int_Tables_number	1
_symmetry_cell_setting	triclinic
loop_
_symmetry_equiv_pos_as_xyz
  x,y,z
_cell_length_a	10.489741
_cell_length_b	10.723024
_cell_length_c	9.198806
_cell_angle_alpha	89.996352
_cell_angle_beta	89.999629
_cell_angle_gamma	95.496478
loop_
_atom_site_label
_atom_site_type_symbol
_atom_site_fract_x
_atom_site_fract_y
_atom_site_fract_z
O1	O	-0.178906	1.657297	-0.120871
O2	O	-0.196031	1.294155	-0.120874
O3	O	-0.001865	1.483989	-0.120876
O4	O	-0.373072	1.467463	-0.120869
O5	O	-0.001865	1.483974	0.120909
O6	O	-0.196030	1.294140	0.120911
O7	O	-0.178906	1.657282	0.120915
Cu8	Cu	-0.187468	1.475710	0.142990
Cu9	Cu	-0.187469	1.475728	-0.142949
O10	O	-0.373071	1.467448	0.120916
C11	C	-0.194785	1.247647	0.000018
C12	C	-0.191056	1.109091	0.000016
C13	C	-0.299701	1.034175	0.000017
C14	C	-0.295850	0.890969	0.000015
C15	C	-0.420602	1.468704	0.000024
C16	C	-0.562229	1.472438	0.000027
C17	C	-0.630292	1.593224	0.000017
C18	C	-0.722449	1.536158	0.119228
C19	C	-0.722428	1.536145	-0.119154
C20	C	-0.652521	1.415323	0.119336
C21	C	-0.652490	1.415326	-0.119152
C22	C	-0.744620	1.358173	0.000088
C23	C	0.045666	1.482734	0.000013
C24	C	0.187293	1.478999	0.000001
C25	C	-0.180152	1.703790	0.000019
C26	C	-0.183881	1.842347	0.000012
N27	N	-0.187467	1.475706	0.344103
N28	N	-0.187460	1.475741	-0.344063
C29	C	-0.105583	1.555412	0.416300
C30	C	-0.105578	1.555431	0.583712
H31	H	-0.580581	1.692534	0.000136
O32	O	-0.060670	0.927607	0.000021
H33	H	-0.004306	0.909341	-0.098530
H34	H	-0.095190	1.067210	-0.000023
H35	H	-0.794107	1.258774	0.000152
O36	O	-0.611337	1.347726	-0.252651
H37	H	-0.639007	1.398073	-0.351470
H38	H	-0.257572	1.407503	0.593860
H39	H	-0.257563	1.407477	0.406232
H40	H	-0.621720	1.364250	0.220231
H41	H	-0.753426	1.587259	0.220014
H42	H	-0.753379	1.587280	-0.219934
O43	O	-0.012707	1.645828	0.665934
H44	H	-0.027271	1.631651	0.784523
O45	O	-0.426697	1.089630	0.000020
H46	H	-0.409793	1.193408	0.000012
O47	O	-0.419062	0.805711	0.000029
H48	H	-0.396702	0.706612	0.000041
H49	H	-0.035476	1.623633	0.354173
