data_functionalizedCrystal
_audit_creation_method	'MofGen! by Chris Wilmer'
_symmetry_space_group_name_H-M	'P1'
_symmetry_Int_Tables_number	1
_symmetry_cell_setting	triclinic
loop_
_symmetry_equiv_pos_as_xyz
  x,y,z
_cell_length_a	25.639242
_cell_length_b	25.639239
_cell_length_c	25.639233
_cell_angle_alpha	89.981253
_cell_angle_beta	89.977834
_cell_angle_gamma	90.034213
loop_
_atom_site_label
_atom_site_type_symbol
_atom_site_fract_x
_atom_site_fract_y
_atom_site_fract_z
Zn1	Zn	0.799225	-0.208277	-0.295742
Zn2	Zn	1.299225	0.291723	0.204258
Zn3	Zn	0.799149	-0.295696	-0.208307
Zn4	Zn	1.299149	0.204304	0.291693
Zn5	Zn	0.711801	-0.208269	-0.208306
Zn6	Zn	1.211801	0.291731	0.291694
Zn7	Zn	0.711746	-0.295676	-0.295696
Zn8	Zn	1.211746	0.204324	0.204304
O9	O	0.755480	-0.251979	-0.252013
O10	O	1.255480	0.248021	0.247987
O11	O	0.872380	-0.219884	-0.284163
O12	O	1.372380	0.280116	0.215837
O13	O	0.787553	-0.284103	-0.135141
O14	O	1.287553	0.215897	0.364859
O15	O	0.723453	-0.135105	-0.219924
O16	O	1.223453	0.364895	0.280076
O17	O	0.872324	-0.284111	-0.219924
O18	O	1.372324	0.215889	0.280076
O19	O	0.787683	-0.135111	-0.284163
O20	O	1.287683	0.364889	0.215837
O21	O	0.723379	-0.219871	-0.135141
O22	O	1.223379	0.280129	0.364859
O23	O	0.638629	-0.219853	-0.219880
O24	O	1.138629	0.280147	0.280120
O25	O	0.723360	-0.284078	-0.368868
O26	O	1.223360	0.215922	0.131132
O27	O	0.638589	-0.284070	-0.284085
O28	O	1.138589	0.215930	0.215915
O29	O	0.787630	-0.219866	-0.368901
O30	O	1.287630	0.280134	0.131099
O31	O	0.787499	-0.368858	-0.219880
O32	O	1.287499	0.131142	0.280120
O33	O	0.723286	-0.368844	-0.284085
O34	O	1.223286	0.131156	0.215915
C35	C	0.619638	-0.251959	-0.251977
C36	C	1.119638	0.248041	0.248023
C37	C	0.561524	-0.251963	-0.251975
C38	C	1.061524	0.248037	0.248025
C39	C	0.201149	-0.285473	-0.285413
C40	C	0.701149	0.214527	0.214587
C41	C	0.146544	-0.285477	-0.285421
C42	C	0.646544	0.214523	0.214579
O43	O	0.118297	-0.313943	-0.313821
O44	O	0.618297	0.186057	0.186179
N45	N	0.119241	-0.251994	-0.252047
N46	N	0.619241	0.248006	0.247953
C47	C	0.146545	-0.218502	-0.218666
C48	C	0.646545	0.281498	0.281334
O49	O	0.118308	-0.190022	-0.190280
O50	O	0.618308	0.309978	0.309720
C51	C	0.201149	-0.218496	-0.218661
C52	C	0.701149	0.281504	0.281339
C53	C	0.228449	-0.251985	-0.252034
C54	C	0.728449	0.248015	0.247966
C55	C	0.228449	-0.318959	-0.318783
C56	C	0.728449	0.181041	0.181217
C57	C	0.283049	-0.318956	-0.318774
C58	C	0.783049	0.181044	0.181226
C59	C	0.310350	-0.285468	-0.285395
C60	C	0.810350	0.214532	0.214605
C61	C	0.283049	-0.251983	-0.252024
C62	C	0.783049	0.248017	0.247976
C63	C	0.228452	-0.185002	-0.185283
C64	C	0.728452	0.314998	0.314717
C65	C	0.283059	-0.185000	-0.185281
C66	C	0.783059	0.315000	0.314719
C67	C	0.310359	-0.218488	-0.218654
C68	C	0.810359	0.281512	0.281346
C69	C	0.364950	-0.218492	-0.218636
C70	C	0.864950	0.281508	0.281364
N71	N	0.392253	-0.251974	-0.252010
N72	N	0.892253	0.248026	0.247990
C73	C	0.364953	-0.285463	-0.285389
C74	C	0.864953	0.214537	0.214611
C75	C	0.031875	-0.218515	-0.218680
C76	C	0.531875	0.281485	0.281320
C77	C	-0.022728	-0.218523	-0.218683
C78	C	0.477272	0.281477	0.281317
C79	C	-0.022725	-0.285497	-0.285438
C80	C	0.477275	0.214503	0.214562
C81	C	0.031878	-0.285492	-0.285433
C82	C	0.531878	0.214508	0.214567
C83	C	0.059178	-0.251998	-0.252054
C84	C	0.559178	0.248002	0.247946
C85	C	0.479618	-0.285455	-0.285368
C86	C	0.979618	0.214545	0.214632
C87	C	0.534223	-0.285451	-0.285354
C88	C	1.034223	0.214549	0.214646
C89	C	0.534216	-0.218475	-0.218601
C90	C	1.034216	0.281525	0.281399
C91	C	0.479615	-0.218481	-0.218612
C92	C	0.979615	0.281519	0.281388
C93	C	0.452318	-0.251972	-0.252000
C94	C	0.952318	0.248028	0.248000
O95	O	0.393232	-0.190038	-0.190252
O96	O	0.893232	0.309962	0.309748
O97	O	0.393197	-0.313933	-0.313776
O98	O	0.893197	0.186067	0.186224
C99	C	0.755392	-0.387822	-0.251989
C100	C	1.255392	0.112178	0.248011
C101	C	0.755403	-0.445936	-0.251996
C102	C	1.255403	0.054064	0.248004
C103	C	0.789004	-0.806294	-0.218638
C104	C	1.289004	-0.306294	0.281362
C105	C	0.789024	-0.860898	-0.218645
C106	C	1.289024	-0.360898	0.281355
O107	O	0.817502	-0.889131	-0.190257
O108	O	1.317502	-0.389131	0.309743
N109	N	0.755572	-0.888218	-0.252048
N110	N	1.255572	-0.388218	0.247952
C111	C	0.722102	-0.860932	-0.285449
C112	C	1.222102	-0.360932	0.214551
O113	O	0.693651	-0.889184	-0.313861
O114	O	1.193651	-0.389184	0.186139
C115	C	0.722085	-0.806328	-0.285444
C116	C	1.222085	-0.306328	0.214556
C117	C	0.755535	-0.779011	-0.252036
C118	C	1.255535	-0.279011	0.247964
C119	C	0.822452	-0.778976	-0.185233
C120	C	1.322452	-0.278976	0.314767
C121	C	0.822431	-0.724376	-0.185226
C122	C	1.322431	-0.224376	0.314774
C123	C	0.788962	-0.697093	-0.218623
C124	C	1.288962	-0.197093	0.281377
C125	C	0.755514	-0.724410	-0.252028
C126	C	1.255514	-0.224410	0.247972
C127	C	0.688617	-0.779042	-0.318847
C128	C	1.188617	-0.279042	0.181153
C129	C	0.688603	-0.724435	-0.318840
C130	C	1.188603	-0.224435	0.181160
C131	C	0.722053	-0.697118	-0.285432
C132	C	1.222053	-0.197118	0.214568
C133	C	0.722024	-0.642527	-0.285418
C134	C	1.222024	-0.142527	0.214582
N135	N	0.755475	-0.615206	-0.252016
N136	N	1.255475	-0.115206	0.247984
C137	C	0.788944	-0.642490	-0.218618
C138	C	1.288944	-0.142490	0.281382
C139	C	0.722141	-0.975602	-0.285457
C140	C	1.222141	-0.475602	0.214543
C141	C	0.722155	-1.030204	-0.285459
C142	C	1.222155	-0.530204	0.214541
C143	C	0.789078	-1.030167	-0.218656
C144	C	1.289078	-0.530167	0.281344
C145	C	0.789061	-0.975564	-0.218652
C146	C	1.289061	-0.475564	0.281348
C147	C	0.755593	-0.948282	-0.252055
C148	C	1.255593	-0.448282	0.247945
C149	C	0.788897	-0.527824	-0.218605
C150	C	1.288897	-0.027824	0.281395
C151	C	0.788872	-0.473219	-0.218599
C152	C	1.288872	0.026781	0.281401
C153	C	0.721951	-0.473261	-0.285403
C154	C	1.221951	0.026739	0.214597
C155	C	0.721974	-0.527862	-0.285408
C156	C	1.221974	-0.027862	0.214592
C157	C	0.755452	-0.555142	-0.252007
C158	C	1.255452	-0.055142	0.247993
O159	O	0.693562	-0.614260	-0.313793
O160	O	1.193562	-0.114260	0.186207
O161	O	0.817396	-0.614231	-0.190216
O162	O	1.317396	-0.114231	0.309784
C163	C	0.891853	-0.252000	-0.252049
C164	C	1.391853	0.248000	0.247951
C165	C	0.949967	-0.252009	-0.252064
C166	C	1.449967	0.247991	0.247936
C167	C	0.755497	-0.251970	-0.388386
C168	C	1.255497	0.248030	0.111614
C169	C	0.755504	-0.251966	-0.446500
C170	C	1.255504	0.248034	0.053500
C171	C	0.755583	-0.115606	-0.252048
C172	C	1.255583	0.384394	0.247952
C173	C	0.755627	-0.057492	-0.252064
C174	C	1.255627	0.442508	0.247936
C175	C	0.789012	-0.218432	-0.806886
C176	C	1.289012	0.281568	-0.306886
C177	C	0.789019	-0.218417	-0.861491
C178	C	1.289019	0.281583	-0.361491
O179	O	0.817466	-0.189967	-0.889747
O180	O	1.317466	0.310033	-0.389747
N181	N	0.755562	-0.251844	-0.888783
N182	N	1.255562	0.248156	-0.388783
C183	C	0.722093	-0.285283	-0.861468
C184	C	1.222093	0.214717	-0.361468
O185	O	0.693636	-0.313713	-0.889695
O186	O	1.193636	0.186287	-0.389695
C187	C	0.722084	-0.285294	-0.806864
C188	C	1.222084	0.214706	-0.306864
C189	C	0.755547	-0.251870	-0.779575
C190	C	1.255547	0.248130	-0.279575
C191	C	0.822472	-0.185009	-0.779597
C192	C	1.322472	0.314991	-0.279597
C193	C	0.822466	-0.185025	-0.724997
C194	C	1.322466	0.314975	-0.224997
C195	C	0.789000	-0.218462	-0.697685
C196	C	1.289000	0.281538	-0.197685
C197	C	0.755541	-0.251885	-0.724974
C198	C	1.255541	0.248115	-0.224974
C199	C	0.688613	-0.318731	-0.779550
C200	C	1.188613	0.181269	-0.279550
C201	C	0.688607	-0.318739	-0.724943
C202	C	1.188607	0.181261	-0.224943
C203	C	0.722069	-0.285314	-0.697654
C204	C	1.222069	0.214686	-0.197654
C205	C	0.722070	-0.285338	-0.643063
C206	C	1.222070	0.214662	-0.143063
N207	N	0.755526	-0.251912	-0.615771
N208	N	1.255526	0.248088	-0.115771
C209	C	0.788992	-0.218474	-0.643082
C210	C	1.288992	0.281526	-0.143082
C211	C	0.722113	-0.285256	-0.976138
C212	C	1.222113	0.214744	-0.476138
C213	C	0.722124	-0.285247	-1.030741
C214	C	1.222124	0.214753	-0.530741
C215	C	0.789049	-0.218381	-1.030760
C216	C	1.289049	0.281619	-0.530760
C217	C	0.789041	-0.218392	-0.976157
C218	C	1.289041	0.281608	-0.476157
C219	C	0.755570	-0.251829	-0.948846
C220	C	1.255570	0.248171	-0.448846
C221	C	0.788977	-0.218509	-0.528417
C222	C	1.288977	0.281491	-0.028417
C223	C	0.788970	-0.218529	-0.473811
C224	C	1.288970	0.281471	0.026189
C225	C	0.722043	-0.285393	-0.473797
C226	C	1.222043	0.214607	0.026203
C227	C	0.722052	-0.285375	-0.528397
C228	C	1.222052	0.214625	-0.028397
C229	C	0.755521	-0.251929	-0.555706
C230	C	1.255521	0.248071	-0.055706
O231	O	0.693635	-0.313773	-0.614771
O232	O	1.193635	0.186227	-0.114771
O233	O	0.817439	-0.190044	-0.614847
O234	O	1.317439	0.309956	-0.114847
C235	C	0.755494	-0.251951	-0.116170
C236	C	1.255494	0.248049	0.383830
C237	C	0.755588	-0.251807	-0.058057
C238	C	1.255588	0.248193	0.441943
H239	H	0.206233	-0.157734	-0.158106
H240	H	0.706233	0.342266	0.341894
H241	H	-0.044963	-0.312763	-0.312619
H242	H	0.455037	0.187237	0.187381
C243	C	0.858869	-0.148684	-0.809149
C244	C	1.358869	0.351316	-0.309149
C245	C	0.888173	-0.119430	-0.773553
C246	C	1.388173	0.380570	-0.273553
C247	C	0.921718	-0.085968	-0.800753
C248	C	1.421718	0.414032	-0.300753
H249	H	0.838954	-0.125844	-0.830452
H250	H	1.338954	0.374156	-0.330452
H251	H	0.881668	-0.168672	-0.830439
H252	H	1.381668	0.331328	-0.330439
H253	H	0.865377	-0.099444	-0.752272
H254	H	1.365377	0.400556	-0.252272
H255	H	0.908099	-0.142256	-0.752249
H256	H	1.408099	0.357744	-0.252249
H257	H	0.944518	-0.105956	-0.822043
H258	H	1.444518	0.394044	-0.322043
H259	H	0.901799	-0.063132	-0.822054
H260	H	1.401799	0.436868	-0.322054
H261	H	0.941609	-0.066119	-0.776605
H262	H	1.441609	0.433881	-0.276605
C263	C	0.061539	-0.182090	-0.182518
C264	C	0.561539	0.317910	0.317482
C265	C	0.092909	-0.148605	-0.212173
C266	C	0.592909	0.351395	0.287827
C267	C	0.120235	-0.115039	-0.178879
C268	C	0.620235	0.384961	0.321121
H269	H	0.082860	-0.201994	-0.159687
H270	H	0.582860	0.298006	0.340313
H271	H	0.037471	-0.162122	-0.162653
H272	H	0.537471	0.337878	0.337347
H273	H	0.116975	-0.168570	-0.232029
H274	H	0.616975	0.331430	0.267971
H275	H	0.071601	-0.128690	-0.235002
H276	H	0.571601	0.371310	0.264998
H277	H	0.096166	-0.095071	-0.159014
H278	H	0.596166	0.404929	0.340986
H279	H	0.141553	-0.134947	-0.156050
H280	H	0.641553	0.365053	0.343950
H281	H	0.141519	-0.092312	-0.198995
H282	H	0.641519	0.407688	0.301005
C283	C	0.563769	-0.321830	-0.321648
C284	C	1.063769	0.178170	0.178352
C285	C	0.528169	-0.351146	-0.350892
C286	C	1.028169	0.148854	0.149108
C287	C	0.555364	-0.384657	-0.384335
C288	C	1.055364	0.115343	0.115665
H289	H	0.585048	-0.344628	-0.301663
H290	H	1.085048	0.155372	0.198337
H291	H	0.585081	-0.301874	-0.344490
H292	H	1.085081	0.198126	0.155510
H293	H	0.506865	-0.371100	-0.328052
H294	H	1.006865	0.128900	0.171948
H295	H	0.506888	-0.328362	-0.370887
H296	H	1.006888	0.171638	0.129113
H297	H	0.576677	-0.364701	-0.407178
H298	H	1.076677	0.135299	0.092822
H299	H	0.576643	-0.407451	-0.364346
H300	H	1.076643	0.092549	0.135654
H301	H	0.531214	-0.404548	-0.404185
H302	H	1.031214	0.095452	0.095815
C303	C	0.652287	-0.354988	-0.695198
C304	C	1.152287	0.145012	-0.195198
C305	C	0.659430	-0.347842	-0.641537
C306	C	1.159430	0.152158	-0.141537
C307	C	0.625978	-0.381221	-0.614121
C308	C	1.125978	0.118779	-0.114121
H309	H	0.659879	-0.390138	-0.704085
H310	H	1.159879	0.109862	-0.204085
H311	H	0.617154	-0.347321	-0.704109
H312	H	1.117154	0.152679	-0.204109
H313	H	0.694555	-0.355513	-0.632630
H314	H	1.194555	0.144487	-0.132630
H315	H	0.651834	-0.312699	-0.632634
H316	H	1.151834	0.187301	-0.132634
H317	H	0.590845	-0.373554	-0.623032
H318	H	1.090845	0.126446	-0.123032
H319	H	0.633573	-0.416368	-0.623013
H320	H	1.133573	0.083632	-0.123013
H321	H	0.630816	-0.376373	-0.577710
H322	H	1.130816	0.123627	-0.077710
C323	C	0.312792	-0.148655	-0.149095
C324	C	0.812792	0.351345	0.350905
C325	C	0.366455	-0.155806	-0.156236
C326	C	0.866455	0.344194	0.343764
C327	C	0.393860	-0.122332	-0.122916
C328	C	0.893860	0.377668	0.377084
H329	H	0.303881	-0.156221	-0.113932
H330	H	0.803881	0.343779	0.386068
H331	H	0.303895	-0.113527	-0.156820
H332	H	0.803895	0.386473	0.343180
H333	H	0.375348	-0.190927	-0.148508
H334	H	0.875348	0.309073	0.351492
H335	H	0.375381	-0.148237	-0.191392
H336	H	0.875381	0.351763	0.308608
H337	H	0.384963	-0.087204	-0.130640
H338	H	0.884963	0.412796	0.369360
H339	H	0.384945	-0.129900	-0.087755
H340	H	0.884945	0.370100	0.412245
H341	H	0.430273	-0.127176	-0.127759
H342	H	0.930273	0.372824	0.372241
C343	C	0.061583	-0.321762	-0.321700
C344	C	0.561583	0.178238	0.178300
C345	C	0.092969	-0.292206	-0.355257
C346	C	0.592969	0.207794	0.144743
C347	C	0.120342	-0.325602	-0.388671
C348	C	0.620342	0.174398	0.111329
H349	H	0.037559	-0.341719	-0.341628
H350	H	0.537559	0.158281	0.158372
H351	H	0.082894	-0.344505	-0.301674
H352	H	0.582894	0.155495	0.198326
H353	H	0.071660	-0.269473	-0.375282
H354	H	0.571660	0.230527	0.124718
H355	H	0.117003	-0.272251	-0.335343
H356	H	0.617003	0.227749	0.164657
H357	H	0.141654	-0.348344	-0.368645
H358	H	0.641654	0.151656	0.131355
H359	H	0.096314	-0.345556	-0.408595
H360	H	0.596314	0.154444	0.091405
H361	H	0.141644	-0.305553	-0.411440
H362	H	0.641644	0.194447	0.088560
H363	H	0.816300	-0.953325	-0.191448
H364	H	1.316300	-0.453325	0.308552
C365	C	0.858696	-0.694627	-0.148977
C366	C	1.358696	-0.194627	0.351023
C367	C	0.851515	-0.640966	-0.156103
C368	C	1.351515	-0.140966	0.343897
C369	C	0.884911	-0.613550	-0.122715
C370	C	1.384911	-0.113550	0.377285
H371	H	0.893843	-0.703481	-0.156637
H372	H	1.393843	-0.203481	0.343363
H373	H	0.851067	-0.703571	-0.113829
H374	H	1.351067	-0.203571	0.386171
H375	H	0.859147	-0.632026	-0.191243
H376	H	1.359147	-0.132026	0.308757
H377	H	0.816375	-0.632097	-0.148439
H378	H	1.316375	-0.132097	0.351561
H379	H	0.877282	-0.622494	-0.087567
H380	H	1.377282	-0.122494	0.412433
H381	H	0.920056	-0.622408	-0.130378
H382	H	1.420056	-0.122408	0.369622
H383	H	0.880040	-0.577138	-0.127542
H384	H	1.380040	-0.077138	0.372458
C385	C	0.563932	-0.182202	-0.182333
C386	C	1.063932	0.317798	0.317667
C387	C	0.595259	-0.211755	-0.148775
C388	C	1.095259	0.288245	0.351225
C389	C	0.622648	-0.178356	-0.115366
C390	C	1.122648	0.321644	0.384634
H391	H	0.539918	-0.162244	-0.162406
H392	H	1.039918	0.337756	0.337594
H393	H	0.585285	-0.159463	-0.202363
H394	H	1.085285	0.340537	0.297637
H395	H	0.573907	-0.234485	-0.128746
H396	H	1.073907	0.265515	0.371254
H397	H	0.619283	-0.231712	-0.168687
H398	H	1.119283	0.268288	0.331313
H399	H	0.644001	-0.155616	-0.135396
H400	H	1.144001	0.344384	0.364604
H401	H	0.598630	-0.158399	-0.095443
H402	H	1.098630	0.341601	0.404557
H403	H	0.643910	-0.198402	-0.092596
H404	H	1.143910	0.301598	0.407404
H405	H	0.694798	-0.312619	-0.451550
H406	H	1.194798	0.187381	0.048450
H407	H	0.816111	-0.450979	-0.191392
H408	H	1.316111	0.049021	0.308608
H409	H	0.816159	-0.550030	-0.191408
H410	H	1.316159	-0.050030	0.308592
C411	C	0.825230	-0.182133	-0.558088
C412	C	1.325230	0.317867	-0.058088
C413	C	0.795661	-0.148594	-0.589420
C414	C	1.295661	0.351406	-0.089420
C415	C	0.829040	-0.115076	-0.616754
C416	C	1.329040	0.384924	-0.116754
H417	H	0.848010	-0.202069	-0.579436
H418	H	1.348010	0.297931	-0.079436
H419	H	0.845145	-0.162203	-0.534025
H420	H	1.345145	0.337797	-0.034025
H421	H	0.775754	-0.168522	-0.613480
H422	H	1.275754	0.331478	-0.113480
H423	H	0.772881	-0.128646	-0.568085
H424	H	1.272881	0.371354	-0.068085
H425	H	0.848955	-0.095146	-0.592692
H426	H	1.348955	0.404854	-0.092692
H427	H	0.851819	-0.135016	-0.638099
H428	H	1.351819	0.364984	-0.138099
H429	H	0.808982	-0.092313	-0.638013
H430	H	1.308982	0.407687	-0.138013
C431	C	0.652233	-0.694750	-0.355023
C432	C	1.152233	-0.194750	0.144977
C433	C	0.618735	-0.663438	-0.325384
C434	C	1.118735	-0.163438	0.174616
C435	C	0.585228	-0.636082	-0.358697
C436	C	1.085228	-0.136082	0.141303
H437	H	0.632267	-0.718784	-0.374929
H438	H	1.132267	-0.218784	0.125071
H439	H	0.672196	-0.673390	-0.377815
H440	H	1.172196	-0.173390	0.122185
H441	H	0.598774	-0.684797	-0.302601
H442	H	1.098774	-0.184797	0.197399
H443	H	0.638686	-0.639395	-0.305479
H444	H	1.138686	-0.139395	0.194521
H445	H	0.605191	-0.614722	-0.381489
H446	H	1.105191	-0.114722	0.118511
H447	H	0.565266	-0.660120	-0.378602
H448	H	1.065266	-0.160120	0.121398
H449	H	0.562499	-0.614830	-0.338593
H450	H	1.062499	-0.114830	0.161407
H451	H	0.849709	-0.801185	-0.158037
H452	H	1.349709	-0.301185	0.341963
H453	H	0.457387	-0.191213	-0.191436
H454	H	0.957387	0.308787	0.308564
C455	C	0.825443	-1.059890	-0.182497
C456	C	1.325443	-0.559890	0.317503
C457	C	0.818324	-1.113555	-0.189685
C458	C	1.318324	-0.613555	0.310315
C459	C	0.851835	-1.140952	-0.156410
C460	C	1.351835	-0.640952	0.343590
H461	H	0.817889	-1.051053	-0.147321
H462	H	1.317889	-0.551053	0.352679
H463	H	0.860561	-1.050914	-0.190233
H464	H	1.360561	-0.550914	0.309767
H465	H	0.783214	-1.122527	-0.181946
H466	H	1.283214	-0.622527	0.318054
H467	H	0.825882	-1.122407	-0.224854
H468	H	1.325882	-0.622407	0.275146
H469	H	0.886953	-1.131977	-0.164146
H470	H	1.386953	-0.631977	0.335854
H471	H	0.844278	-1.132111	-0.121236
H472	H	1.344278	-0.632111	0.378764
H473	H	0.847013	-1.177366	-0.161286
H474	H	1.347013	-0.677366	0.338714
C475	C	0.685813	-1.059766	-0.321784
C476	C	1.185813	-0.559766	0.178216
C477	C	0.656510	-1.024178	-0.351037
C478	C	1.156510	-0.524178	0.148963
C479	C	0.623032	-1.051388	-0.384513
C480	C	1.123032	-0.551388	0.115487
H481	H	0.663006	-1.081100	-0.301823
H482	H	1.163006	-0.581100	0.198177
H483	H	0.705793	-1.081024	-0.344620
H484	H	1.205793	-0.581024	0.155380
H485	H	0.636532	-1.002928	-0.328204
H486	H	1.136532	-0.502928	0.171796
H487	H	0.679303	-1.002843	-0.371009
H488	H	1.179303	-0.502843	0.128991
H489	H	0.643012	-1.072647	-0.407349
H490	H	1.143012	-0.572647	0.092651
H491	H	0.600229	-1.072722	-0.364548
H492	H	1.100229	-0.572722	0.135452
H493	H	0.603149	-1.027247	-0.404369
H494	H	1.103149	-0.527247	0.095631
C495	C	0.652239	-0.808721	-0.355037
C496	C	1.152239	-0.308721	0.144963
C497	C	0.618742	-0.840107	-0.325413
C498	C	1.118742	-0.340107	0.174587
C499	C	0.585219	-0.867448	-0.358737
C500	C	1.085219	-0.367448	0.141263
H501	H	0.672174	-0.830033	-0.377852
H502	H	1.172174	-0.330033	0.122148
H503	H	0.632279	-0.784662	-0.374918
H504	H	1.132279	-0.284662	0.125082
H505	H	0.638701	-0.864162	-0.305541
H506	H	1.138701	-0.364162	0.194459
H507	H	0.598796	-0.818808	-0.302600
H508	H	1.098796	-0.318808	0.197400
H509	H	0.565259	-0.843390	-0.378617
H510	H	1.065259	-0.343390	0.121383
H511	H	0.605159	-0.888757	-0.381550
H512	H	1.105159	-0.388757	0.118450
H513	H	0.562485	-0.888743	-0.338641
H514	H	1.062485	-0.388743	0.161359
C515	C	0.685882	-0.945956	-0.321784
C516	C	1.185882	-0.445956	0.178216
C517	C	0.715448	-0.914577	-0.355338
C518	C	1.215448	-0.414577	0.144662
C519	C	0.682066	-0.887267	-0.388815
C520	C	1.182066	-0.387267	0.111185
H521	H	0.663097	-0.924643	-0.301819
H522	H	1.163097	-0.424643	0.198181
H523	H	0.665973	-0.970034	-0.341706
H524	H	1.165973	-0.470034	0.158294
H525	H	0.735349	-0.890501	-0.335419
H526	H	1.235349	-0.390501	0.164581
H527	H	0.738232	-0.935877	-0.375315
H528	H	1.238232	-0.435877	0.124685
H529	H	0.662157	-0.911346	-0.408737
H530	H	1.162157	-0.411346	0.091263
H531	H	0.659282	-0.865957	-0.368845
H532	H	1.159282	-0.365957	0.131155
H533	H	0.702122	-0.865977	-0.411588
H534	H	1.202122	-0.365977	0.088412
H535	H	0.457399	-0.312726	-0.312556
H536	H	0.957399	0.187274	0.187444
H537	H	0.694738	-0.550105	-0.312613
H538	H	1.194738	-0.050105	0.187387
H539	H	0.694809	-0.312597	-0.550617
H540	H	1.194809	0.187403	-0.050617
H541	H	0.694699	-0.451039	-0.312594
H542	H	1.194699	0.048961	0.187406
C543	C	0.825321	-0.182178	-0.444278
C544	C	1.325321	0.317822	0.055722
C545	C	0.854618	-0.152882	-0.479888
C546	C	1.354618	0.347118	0.020112
C547	C	0.888103	-0.119386	-0.452703
C548	C	1.388103	0.380614	0.047297
H549	H	0.848132	-0.202128	-0.422981
H550	H	1.348132	0.297872	0.077019
H551	H	0.805347	-0.159371	-0.422985
H552	H	1.305347	0.340629	0.077015
H553	H	0.874590	-0.175686	-0.501172
H554	H	1.374590	0.324314	-0.001172
H555	H	0.831820	-0.132921	-0.501187
H556	H	1.331820	0.367079	-0.001187
H557	H	0.868129	-0.096579	-0.431410
H558	H	1.368129	0.403421	0.068590
H559	H	0.910910	-0.139340	-0.431407
H560	H	1.410910	0.360660	0.068593
H561	H	0.907981	-0.099501	-0.476860
H562	H	1.407981	0.400499	0.023140
H563	H	0.849714	-0.157806	-0.702783
H564	H	1.349714	0.342194	-0.202783
H565	H	0.816288	-0.191174	-0.953941
H566	H	1.316288	0.308826	-0.453941
C567	C	0.825466	-0.182137	-1.060393
C568	C	1.325466	0.317863	-0.560393
C569	C	0.877191	-0.193535	-1.047141
C570	C	1.377191	0.306465	-0.547141
C571	C	0.910750	-0.160165	-1.074437
C572	C	1.410750	0.339835	-0.574437
H573	H	0.817907	-0.146989	-1.051471
H574	H	1.317907	0.353011	-0.551471
H575	H	0.820709	-0.186924	-1.096825
H576	H	1.320709	0.313076	-0.596825
H577	H	0.881946	-0.188743	-1.010718
H578	H	1.381946	0.311257	-0.510718
H579	H	0.884766	-0.228676	-1.056065
H580	H	1.384766	0.271324	-0.556065
H581	H	0.905992	-0.164952	-1.110869
H582	H	1.405992	0.335048	-0.610869
H583	H	0.903186	-0.125019	-1.065512
H584	H	1.403186	0.374981	-0.565512
H585	H	0.945849	-0.167897	-1.065453
H586	H	1.445849	0.332103	-0.565453
C587	C	0.312591	-0.355332	-0.355070
C588	C	0.812591	0.144668	0.144930
C589	C	0.276986	-0.384645	-0.384310
C590	C	0.776986	0.115355	0.115690
C591	C	0.304176	-0.418155	-0.417759
C592	C	0.804176	0.081845	0.082241
H593	H	0.333872	-0.378131	-0.335089
H594	H	0.833872	0.121869	0.164911
H595	H	0.333901	-0.335375	-0.377914
H596	H	0.833901	0.164625	0.122086
H597	H	0.255685	-0.404600	-0.361469
H598	H	0.755685	0.095400	0.138531
H599	H	0.255703	-0.361859	-0.404302
H600	H	0.755703	0.138141	0.095698
H601	H	0.325486	-0.398198	-0.440604
H602	H	0.825486	0.101802	0.059396
H603	H	0.325457	-0.440951	-0.397774
H604	H	0.825457	0.059049	0.102226
H605	H	0.280023	-0.438044	-0.437606
H606	H	0.780023	0.061956	0.062394
H607	H	0.206227	-0.346229	-0.345967
H608	H	0.706227	0.153771	0.154033
H609	H	0.694881	-0.312471	-1.052955
H610	H	1.194881	0.187529	-0.552955
H611	H	0.694857	-0.312487	-0.953905
H612	H	1.194857	0.187513	-0.453905
H613	H	0.661364	-0.345949	-0.801759
H614	H	1.161364	0.154051	-0.301759
H615	H	-0.044951	-0.191258	-0.191502
H616	H	0.455049	0.308742	0.308498
