data_functionalizedCrystal
_audit_creation_method	'MofGen! by Chris Wilmer'
_symmetry_space_group_name_H-M	'P1'
_symmetry_Int_Tables_number	1
_symmetry_cell_setting	triclinic
loop_
_symmetry_equiv_pos_as_xyz
  x,y,z
_cell_length_a	19.077105
_cell_length_b	12.645329
_cell_length_c	19.076919
_cell_angle_alpha	87.725138
_cell_angle_beta	89.923776
_cell_angle_gamma	87.714464
loop_
_atom_site_label
_atom_site_type_symbol
_atom_site_fract_x
_atom_site_fract_y
_atom_site_fract_z
Zn1	Zn	1.058308	-0.512860	0.440436
Zn2	Zn	1.062961	-0.683310	0.322935
Zn3	Zn	0.945525	-0.498658	0.318229
Zn4	Zn	0.940782	-0.682671	0.435688
O5	O	1.001894	-0.594375	0.379322
O6	O	1.157257	-0.541681	0.428806
O7	O	1.051314	-0.653140	0.223980
O8	O	0.960524	-0.352198	0.334457
O9	O	1.160676	-0.666910	0.342479
O10	O	1.043385	-0.362632	0.424243
O11	O	0.965035	-0.517477	0.220522
O12	O	0.846564	-0.516857	0.329853
O13	O	0.952440	-0.665821	0.534649
O14	O	0.843079	-0.652050	0.416150
O15	O	1.038786	-0.541061	0.538138
O16	O	1.046716	-0.831569	0.337875
O17	O	0.956952	-0.831100	0.420714
C18	C	0.819325	-0.582844	0.371976
C19	C	0.741220	-0.577938	0.368850
C20	C	0.702734	-0.646119	0.412241
C21	C	0.629346	-0.641495	0.409307
C22	C	0.594447	-0.568695	0.362979
C23	C	0.632938	-0.500507	0.319586
C24	C	0.706324	-0.505126	0.322524
C25	C	0.375158	-0.547316	0.349385
C26	C	0.301766	-0.542704	0.346449
C27	C	0.298179	-0.683691	0.436172
C28	C	0.371567	-0.688309	0.439102
C29	C	0.410052	-0.620117	0.395713
N30	N	0.519433	-0.563969	0.359977
N31	N	0.485065	-0.624838	0.398718
C32	C	1.001842	-0.869800	0.379306
C33	C	1.001884	-0.987634	0.379325
C34	C	0.945389	-1.032262	0.431406
C35	C	0.945604	-1.154849	0.431651
C36	C	1.075269	-1.161238	0.402258
C37	C	1.074875	-1.038638	0.402614
C38	C	0.985781	-1.027400	0.304253
C39	C	0.984195	-1.149933	0.304609
C40	C	1.185176	-0.605951	0.386697
C41	C	1.263280	-0.610884	0.389840
C42	C	0.994565	-0.604954	0.562603
C43	C	0.991442	-0.609462	0.640706
C44	C	1.001964	-0.317876	0.379355
C45	C	1.001994	-0.200048	0.379369
C46	C	1.009235	-0.583763	0.196756
C47	C	1.012494	-0.578965	0.118659
C48	C	1.034928	-0.546627	0.679216
C49	C	1.031985	-0.550859	0.752602
C50	C	0.985559	-0.617931	0.787477
C51	C	0.942068	-0.680768	0.748961
C52	C	0.945008	-0.676530	0.675576
C53	C	0.971943	-0.637564	1.006758
C54	C	0.969008	-0.641800	1.080148
C55	C	1.058924	-0.511888	1.083785
C56	C	1.061863	-0.507661	1.010398
C57	C	1.018369	-0.570494	0.971889
N58	N	0.982552	-0.622260	0.862489
N59	N	1.021374	-0.566159	0.896878
H60	H	0.266837	-0.739208	0.471498
O61	O	1.085008	-0.474292	0.641605
H62	H	1.054914	-0.416445	0.606903
H63	H	0.933384	-0.992172	0.283946
H64	H	0.904265	-0.735376	0.777361
O65	O	0.959022	-0.996621	0.504588
H66	H	0.968443	-1.067042	0.540428
O67	O	1.105813	-0.444088	1.125317
H68	H	1.095962	-0.458284	1.182204
O69	O	0.918920	-0.714129	1.117765
H70	H	0.949013	-0.771990	1.152458
H71	H	0.936538	-0.688744	0.975413
O72	O	1.078892	-0.483094	0.794141
H73	H	1.111676	-0.435755	0.757563
H74	H	0.930283	-1.174813	0.287397
H75	H	1.099670	-0.453047	0.982009
O76	O	0.898094	-0.744290	0.634040
H77	H	0.909554	-0.829068	0.648590
H78	H	0.890756	-0.998697	0.416882
O79	O	1.132326	-1.200960	0.353861
H80	H	1.121164	-1.170578	0.299471
O81	O	0.740375	-0.724635	0.462213
H82	H	0.701280	-0.771260	0.491898
H83	H	0.598013	-0.697016	0.444640
H84	H	0.399977	-0.747593	0.476827
O85	O	0.416653	-0.473790	0.302564
H86	H	0.402092	-0.390428	0.314130
H87	H	1.026960	-0.998496	0.265414
H88	H	0.273353	-0.483409	0.308727
O89	O	0.959473	-1.198917	0.505267
H90	H	1.011202	-1.173320	0.523284
H91	H	0.604517	-0.441227	0.281867
H92	H	0.737659	-0.449600	0.287194
H93	H	1.088851	-1.014141	0.457575
O94	O	0.873516	-1.189306	0.412253
H95	H	0.838185	-1.118359	0.402615
H96	H	1.118254	-1.009370	0.366482
H97	H	1.089581	-1.196026	0.456646
H98	H	1.022591	-1.180383	0.263513
