data_functionalizedCrystal
_audit_creation_method	'MofGen! by Chris Wilmer'
_symmetry_space_group_name_H-M	'P1'
_symmetry_Int_Tables_number	1
_symmetry_cell_setting	triclinic
loop_
_symmetry_equiv_pos_as_xyz
  x,y,z
_cell_length_a	10.540539
_cell_length_b	17.699083
_cell_length_c	16.776229
_cell_angle_alpha	89.998886
_cell_angle_beta	90.003688
_cell_angle_gamma	96.095747
loop_
_atom_site_label
_atom_site_type_symbol
_atom_site_fract_x
_atom_site_fract_y
_atom_site_fract_z
O1	O	-0.160520	1.005122	-0.066171
O2	O	-0.181404	0.784880	-0.066197
O3	O	0.013836	0.900026	-0.066184
O4	O	-0.355761	0.889976	-0.066184
O5	O	0.013848	0.900010	0.066392
O6	O	-0.181392	0.784864	0.066380
O7	O	-0.160508	1.005107	0.066405
Zn8	Zn	-0.170948	0.894983	0.087442
Zn9	Zn	-0.170964	0.895003	-0.087233
O10	O	-0.355749	0.889961	0.066393
C11	C	-0.180650	0.756670	0.000088
C12	C	-0.178405	0.672637	0.000078
C13	C	-0.293007	0.624761	0.000079
C14	C	-0.290890	0.545804	0.000089
C15	C	-0.174170	0.514725	0.000093
C16	C	-0.059559	0.562607	0.000095
C17	C	-0.061677	0.641562	0.000091
C18	C	-0.051014	0.244188	0.000115
C19	C	-0.048904	0.165226	0.000117
C20	C	-0.280227	0.148430	0.000113
C21	C	-0.282345	0.227386	0.000109
C22	C	-0.167735	0.275261	0.000115
C23	C	-0.170032	0.360875	0.000105
C24	C	-0.171872	0.429112	0.000097
C25	C	-0.403044	0.890722	0.000105
C26	C	-0.543951	0.892977	0.000105
C27	C	-0.725797	0.979376	-0.000192
C28	C	-0.579221	0.977090	0.000113
C29	C	-0.606350	0.852489	0.075806
C30	C	-0.752842	0.855360	0.075863
C31	C	-0.753389	0.853666	-0.074901
C32	C	-0.606421	0.852892	-0.075896
C33	C	0.061131	0.899264	0.000102
C34	C	0.202038	0.897009	0.000097
C35	C	-0.161263	1.033316	0.000119
C36	C	-0.163508	1.117349	0.000123
N37	N	-0.170937	0.894974	0.206653
N38	N	-0.170966	0.895018	-0.206445
C39	C	-0.084520	0.945977	0.248376
C40	C	-0.084519	0.945981	0.331828
C41	C	-0.170942	0.894986	0.373556
C42	C	-0.257363	0.843978	0.331827
C43	C	-0.257357	0.843971	0.248377
C44	C	-0.257388	0.844005	0.668375
C45	C	-0.257390	0.844018	0.751831
C46	C	-0.084550	0.946016	0.751826
C47	C	-0.084544	0.946009	0.668375
C48	C	-0.170960	0.894998	0.626654
C49	C	-0.170958	0.894993	0.536166
C50	C	-0.170950	0.894994	0.464043
H51	H	-0.536033	1.008952	-0.054149
F52	F	-0.412866	0.494854	0.000086
F53	F	-0.349377	0.789739	0.796240
F54	F	-0.349331	0.789684	0.203974
F55	F	0.060298	0.692515	0.000093
H56	H	-0.377390	0.252686	0.000101
H57	H	-0.373548	0.109440	0.000112
F58	F	-0.816562	0.774255	-0.075577
H59	H	-0.388054	0.650060	0.000074
H60	H	0.035477	0.537295	0.000110
H61	H	-0.753773	1.012605	-0.054487
H62	H	-0.014150	0.987506	0.214406
F63	F	-0.550011	0.889237	0.149453
F64	F	0.070965	0.295130	0.000122
F65	F	0.007457	1.000263	0.376233
H66	H	-0.327753	0.802472	0.634412
H67	H	-0.014181	0.987549	0.785804
F68	F	0.007434	1.000287	0.623969
H69	H	0.046149	0.139925	0.000122
F70	F	-0.816990	0.776293	0.080357
F71	F	-0.349336	0.789700	0.376238
H72	H	-0.564944	0.882478	-0.131899
H73	H	-0.755518	1.012492	0.053745
F74	F	-0.523873	1.019001	0.071176
H75	H	-0.780495	0.885270	0.132457
H76	H	-0.585126	0.790718	0.078615
H77	H	-0.784449	0.880894	-0.132281
F78	F	-0.576123	0.772758	-0.081924
