data_functionalizedCrystal
_audit_creation_method	'MofGen! by Chris Wilmer'
_symmetry_space_group_name_H-M	'P1'
_symmetry_Int_Tables_number	1
_symmetry_cell_setting	triclinic
loop_
_symmetry_equiv_pos_as_xyz
  x,y,z
_cell_length_a	17.077404
_cell_length_b	17.640280
_cell_length_c	17.077396
_cell_angle_alpha	78.774026
_cell_angle_beta	89.982756
_cell_angle_gamma	78.800538
loop_
_atom_site_label
_atom_site_type_symbol
_atom_site_fract_x
_atom_site_fract_y
_atom_site_fract_z
Zn1	Zn	1.263272	-0.314653	-0.380746
Zn2	Zn	1.763272	0.185347	0.119254
Zn3	Zn	1.289749	-0.446836	-0.222974
Zn4	Zn	1.789749	0.053164	0.277026
Zn5	Zn	1.132015	-0.314683	-0.249488
Zn6	Zn	1.632015	0.185317	0.250512
Zn7	Zn	1.158526	-0.446787	-0.354207
Zn8	Zn	1.658526	0.053213	0.145793
O9	O	1.210891	-0.380740	-0.301854
O10	O	1.710891	0.119260	0.198146
O11	O	1.376633	-0.332196	-0.359828
O12	O	1.876633	0.167804	0.140172
O13	O	1.268810	-0.429338	-0.116638
O14	O	1.768810	0.070662	0.383362
O15	O	1.127251	-0.204074	-0.289103
O16	O	1.627251	0.295926	0.210897
O17	O	1.396085	-0.429310	-0.243913
O18	O	1.896085	0.070690	0.256087
O19	O	1.223685	-0.204052	-0.385537
O20	O	1.723685	0.295948	0.114463
O21	O	1.152924	-0.332246	-0.136117
O22	O	1.652924	0.167754	0.363883
O23	O	1.025683	-0.332199	-0.263369
O24	O	1.525683	0.167801	0.236631
O25	O	1.172436	-0.429226	-0.467581
O26	O	1.672436	0.070774	0.032419
O27	O	1.045161	-0.429255	-0.340306
O28	O	1.545161	0.070745	0.159694
O29	O	1.249392	-0.332148	-0.487079
O30	O	1.749392	0.167852	0.012921
O31	O	1.294517	-0.557434	-0.218179
O32	O	1.794517	-0.057434	0.281821
O33	O	1.198109	-0.557398	-0.314596
O34	O	1.698109	-0.057398	0.185404
C35	C	1.006940	-0.380725	-0.301835
C36	C	1.506940	0.119275	0.198165
C37	C	0.919693	-0.380738	-0.301842
C38	C	1.419693	0.119262	0.198158
C39	C	0.888880	-0.431352	-0.341807
C40	C	1.388880	0.068648	0.158193
C41	C	0.806900	-0.431354	-0.341819
C42	C	1.306900	0.068646	0.158181
C43	C	0.755735	-0.380745	-0.301861
C44	C	1.255735	0.119255	0.198139
C45	C	0.786551	-0.330126	-0.261895
C46	C	1.286551	0.169874	0.238105
C47	C	0.868529	-0.330121	-0.261888
C48	C	1.368529	0.169879	0.238112
C49	C	0.615684	-0.330142	-0.261911
C50	C	1.115684	0.169858	0.238089
C51	C	0.533701	-0.330148	-0.261916
C52	C	1.033701	0.169852	0.238084
C53	C	0.554055	-0.431374	-0.341842
C54	C	1.054055	0.068626	0.158158
C55	C	0.636033	-0.431369	-0.341835
C56	C	1.136033	0.068631	0.158165
C57	C	0.666845	-0.380751	-0.301867
C58	C	1.166845	0.119249	0.198133
C59	C	1.252084	-0.586095	-0.260648
C60	C	1.752084	-0.086095	0.239352
C61	C	1.269779	-0.673947	-0.243046
C62	C	1.769779	-0.173947	0.256954
C63	C	1.076788	-0.962924	-0.435859
C64	C	1.576788	-0.462924	0.064141
C65	C	1.093416	-1.045475	-0.419294
C66	C	1.593416	-0.545475	0.080706
C67	C	1.193869	-1.045446	-0.318997
C68	C	1.693869	-0.545446	0.181003
C69	C	1.177251	-0.962895	-0.335556
C70	C	1.677251	-0.462895	0.164444
C71	C	1.118709	-0.921640	-0.393987
C72	C	1.618709	-0.421640	0.106013
C73	C	1.219173	-0.921610	-0.293684
C74	C	1.719173	-0.421610	0.206316
C75	C	1.202554	-0.839066	-0.310239
C76	C	1.702554	-0.339066	0.189761
C77	C	1.144013	-0.797805	-0.368666
C78	C	1.644013	-0.297805	0.131334
C79	C	1.102090	-0.839095	-0.410542
C80	C	1.602090	-0.339095	0.089458
C81	C	1.277711	-0.962866	-0.235249
C82	C	1.777711	-0.462866	0.264751
C83	C	1.319632	-0.921582	-0.193378
C84	C	1.819632	-0.421582	0.306622
C85	C	1.303017	-0.839036	-0.209936
C86	C	1.803017	-0.339036	0.290064
C87	C	1.244477	-0.797776	-0.268363
C88	C	1.744477	-0.297776	0.231637
C89	C	1.344940	-0.797746	-0.168060
C90	C	1.844940	-0.297746	0.331940
C91	C	1.328321	-0.715201	-0.184615
C92	C	1.828321	-0.215201	0.315385
C93	C	1.227857	-0.715231	-0.284918
C94	C	1.727857	-0.215231	0.215082
C95	C	1.415638	-0.380755	-0.301873
C96	C	1.915638	0.119245	0.198127
C97	C	1.502889	-0.380761	-0.301881
C98	C	2.002889	0.119239	0.198119
C99	C	1.210918	-0.380679	-0.506611
C100	C	1.710918	0.119321	-0.006611
C101	C	1.210929	-0.380652	-0.593866
C102	C	1.710929	0.119348	-0.093866
C103	C	1.169557	-0.174583	-0.343238
C104	C	1.669557	0.325417	0.156762
C105	C	1.151943	-0.086731	-0.360873
C106	C	1.651943	0.413269	0.139127
C107	C	1.150601	-0.330090	-0.645000
C108	C	1.650601	0.169910	-0.145000
C109	C	1.150611	-0.330073	-0.726984
C110	C	1.650611	0.169927	-0.226984
C111	C	1.210952	-0.380613	-0.757833
C112	C	1.710952	0.119387	-0.257833
C113	C	1.271283	-0.431181	-0.706692
C114	C	1.771283	0.068819	-0.206692
C115	C	1.271270	-0.431202	-0.624709
C116	C	1.771270	0.068798	-0.124709
C117	C	1.271307	-0.431131	-0.877572
C118	C	1.771307	0.068869	-0.377572
C119	C	1.271321	-0.431109	-0.959561
C120	C	1.771321	0.068891	-0.459561
C121	C	1.150648	-0.330002	-0.979847
C122	C	1.650648	0.169998	-0.479847
C123	C	1.150635	-0.330023	-0.897864
C124	C	1.650635	0.169977	-0.397864
C125	C	1.210967	-0.380590	-0.846729
C126	C	1.710967	0.119410	-0.346729
C127	C	1.210897	-0.380744	-0.097905
C128	C	1.710897	0.119256	0.402095
C129	C	1.210993	-0.380547	-0.010695
C130	C	1.710993	0.119453	0.489305
H131	H	0.893614	-0.288902	-0.229349
H132	H	1.393614	0.211098	0.270651
H133	H	1.130477	-0.730592	-0.382138
H134	H	1.630477	-0.230592	0.117862
H135	H	1.054425	-0.805504	-0.458128
H136	H	1.554425	-0.305504	0.041872
N137	N	1.336344	-0.485730	-0.569556
N138	N	1.836344	0.014270	-0.069556
H139	H	1.327178	-0.478076	-0.512940
H140	H	1.827178	0.021924	-0.012940
H141	H	1.335446	-0.542175	-0.572552
H142	H	1.835446	-0.042175	-0.072552
H143	H	1.320410	-0.472336	-0.731815
H144	H	1.820410	0.027664	-0.231815
N145	N	1.382771	-0.966090	-0.130362
N146	N	1.882771	-0.466090	0.369638
H147	H	1.435948	-0.951679	-0.145499
H148	H	1.935948	-0.451679	0.354501
H149	H	1.367665	-0.951746	-0.077161
H150	H	1.867665	-0.451746	0.422839
N151	N	1.373537	-0.670662	-0.139465
N152	N	1.873537	-0.170662	0.360535
H153	H	1.334772	-0.636457	-0.109919
H154	H	1.834772	-0.136457	0.390081
H155	H	1.413148	-0.709367	-0.099982
H156	H	1.913148	-0.209367	0.400018
N157	N	0.648919	-0.275544	-0.218808
N158	N	1.148919	0.224456	0.281192
H159	H	0.604068	-0.243486	-0.193493
H160	H	1.104068	0.256514	0.306507
H161	H	0.689364	-0.307670	-0.175980
H162	H	1.189364	0.192330	0.324020
N163	N	1.085541	-0.275541	-0.782136
N164	N	1.585541	0.224459	-0.282136
H165	H	1.047316	-0.243524	-0.750153
H166	H	1.547316	0.256476	-0.250153
H167	H	1.110166	-0.238959	-0.823500
H168	H	1.610166	0.261041	-0.323500
N169	N	0.944065	-0.485943	-0.384899
N170	N	1.444065	0.014057	0.115101
H171	H	0.912102	-0.518005	-0.410219
H172	H	1.412102	-0.018005	0.089781
H173	H	0.971648	-0.453815	-0.427722
H174	H	1.471648	0.046185	0.072278
H175	H	1.029123	-0.929333	-0.483445
H176	H	1.529123	-0.429333	0.016555
N177	N	1.336397	-0.485636	-0.992822
N178	N	1.836397	0.014364	-0.492822
H179	H	1.311834	-0.522246	-1.019480
H180	H	1.811834	-0.022246	-0.519480
H181	H	1.366330	-0.453466	-1.033254
H182	H	1.866330	0.046534	-0.533254
N183	N	0.773668	-0.485955	-0.384911
N184	N	1.273668	0.014045	0.115089
H185	H	0.818522	-0.518021	-0.410214
H186	H	1.318522	-0.018021	0.089786
H187	H	0.746976	-0.522486	-0.345558
H188	H	1.246976	-0.022486	0.154442
H189	H	0.744885	-0.288916	-0.229364
H190	H	1.244885	0.211084	0.270636
N191	N	1.085520	-0.275570	-0.611738
N192	N	1.585520	0.224430	-0.111738
H193	H	1.031896	-0.287837	-0.623537
H194	H	1.531896	0.212163	-0.123537
H195	H	1.094733	-0.283273	-0.552052
H196	H	1.594733	0.216727	-0.052052
H197	H	1.101502	-0.288865	-0.872750
H198	H	1.601502	0.211135	-0.372750
H199	H	1.392599	-0.831348	-0.120480
H200	H	1.892599	-0.331348	0.379520
N201	N	1.085580	-0.275453	-1.034996
N202	N	1.585580	0.224547	-0.534996
H203	H	1.094741	-0.283107	-1.091613
H204	H	1.594741	0.216893	-0.591613
H205	H	1.031976	-0.287743	-1.018194
H206	H	1.531976	0.212257	-0.518194
N207	N	1.164711	-0.670729	-0.347936
N208	N	1.664711	-0.170729	0.152064
H209	H	1.160545	-0.612173	-0.352065
H210	H	1.660545	-0.112173	0.147935
H211	H	1.179788	-0.685115	-0.401126
H212	H	1.679788	-0.185115	0.098874
H213	H	1.320441	-0.472301	-0.835941
H214	H	1.820441	0.027699	-0.335941
H215	H	1.059283	-1.079085	-0.453405
H216	H	1.559283	-0.579085	0.046595
H217	H	0.528965	-0.472587	-0.374388
H218	H	1.028965	0.027413	0.125612
N219	N	0.478512	-0.275564	-0.218820
N220	N	0.978512	0.224436	0.281180
H221	H	0.510468	-0.243493	-0.193505
H222	H	1.010468	0.256507	0.306495
H223	H	0.437181	-0.239036	-0.258171
H224	H	0.937181	0.260964	0.241829
N225	N	0.691223	-0.485959	-0.384923
N226	N	1.191223	0.014041	0.115077
H227	H	0.659267	-0.518026	-0.410244
H228	H	1.159267	-0.018026	0.089756
H229	H	0.718807	-0.453831	-0.427744
H230	H	1.218807	0.046169	0.072256
N231	N	1.256999	-1.089944	-0.255969
N232	N	1.756999	-0.589944	0.244031
H233	H	1.261164	-1.148501	-0.251831
H234	H	1.761164	-0.648501	0.248169
H235	H	1.310141	-1.075471	-0.271139
H236	H	1.810141	-0.575471	0.228861
H237	H	1.291242	-1.030080	-0.221775
H238	H	1.791242	-0.530080	0.278225
