data_functionalizedCrystal
_audit_creation_method	'MofGen! by Chris Wilmer'
_symmetry_space_group_name_H-M	'P1'
_symmetry_Int_Tables_number	1
_symmetry_cell_setting	triclinic
loop_
_symmetry_equiv_pos_as_xyz
  x,y,z
_cell_length_a	12.759400
_cell_length_b	12.645331
_cell_length_c	12.759393
_cell_angle_alpha	89.978122
_cell_angle_beta	89.971073
_cell_angle_gamma	90.013263
loop_
_atom_site_label
_atom_site_type_symbol
_atom_site_fract_x
_atom_site_fract_y
_atom_site_fract_z
Zn1	Zn	-0.418233	1.620748	-0.594095
Zn2	Zn	-0.593952	1.620643	-0.418424
Zn3	Zn	-0.418284	1.443465	-0.418424
Zn4	Zn	-0.593867	1.443455	-0.594055
O5	O	-0.506084	1.532078	-0.506250
O6	O	-0.441556	1.769081	-0.570809
O7	O	-0.570706	1.597100	-0.271403
O8	O	-0.271256	1.467030	-0.441745
O9	O	-0.570656	1.769004	-0.441744
O10	O	-0.271219	1.597279	-0.570810
O11	O	-0.441644	1.466928	-0.271403
O12	O	-0.441562	1.295116	-0.441705
O13	O	-0.570512	1.467013	-0.741081
O14	O	-0.570562	1.295109	-0.570740
O15	O	-0.441474	1.597270	-0.741111
O16	O	-0.740962	1.597090	-0.441704
O17	O	-0.740899	1.466911	-0.570739
C18	C	-0.506059	1.256648	-0.506219
C19	C	-0.506074	1.138818	-0.506231
C20	C	-0.424546	0.971223	-0.425503
C21	C	-0.424757	1.093783	-0.425147
C22	C	-0.616752	1.094305	-0.475991
C23	C	-0.616307	0.971706	-0.475440
C24	C	-0.477976	0.971665	-0.617511
C25	C	-0.475504	1.094271	-0.616893
C26	C	-0.779051	1.532017	-0.506240
C27	C	-0.895828	1.532088	-0.506271
C28	C	-0.950696	1.464289	-0.573407
C29	C	-1.060420	1.464345	-0.573417
C30	C	-1.060398	1.600008	-0.439153
C31	C	-0.950676	1.599946	-0.439138
C32	C	-0.950709	1.385968	-0.650927
C33	C	-1.060433	1.386024	-0.650937
C34	C	-0.232051	1.532168	-0.506282
C35	C	-0.115274	1.532206	-0.506296
C36	C	-0.505978	1.532152	-0.780283
C37	C	-0.505933	1.532184	-0.897060
C38	C	-0.506110	1.808583	-0.506281
C39	C	-0.506121	1.926413	-0.506294
C40	C	-0.438736	1.600017	-0.951939
C41	C	-0.438699	1.600043	-1.061663
C42	C	-0.573062	1.464397	-1.061619
C43	C	-0.573094	1.464367	-0.951897
C44	C	-0.361166	1.678335	-0.951965
C45	C	-0.361128	1.678360	-1.061690
C46	C	-0.506114	1.532065	-0.233282
C47	C	-0.505863	1.532238	-0.116506
H48	H	-0.530584	1.124931	-0.680307
O49	O	-0.648916	1.134895	-0.369445
H50	H	-0.586259	1.186758	-0.337857
H51	H	-0.627808	1.409127	-0.907218
O52	O	-0.645494	1.391253	-1.120769
H53	H	-0.727961	1.409388	-1.099695
H54	H	-0.921012	1.303858	-0.629059
O55	O	-0.315524	0.932116	-0.450316
H56	H	-0.292969	0.958460	-0.530195
O57	O	-0.905517	1.424745	-0.753369
H58	H	-0.970292	1.445365	-0.807689
H59	H	-1.090144	1.407930	-0.732346
H60	H	-0.279801	1.656369	-0.922204
O61	O	-1.105631	1.282761	-0.612254
H62	H	-1.040861	1.227964	-0.591744
H63	H	-0.390336	1.756304	-0.917935
H64	H	-0.283818	1.648983	-1.095732
O65	O	-0.390007	1.787106	-1.101158
H66	H	-0.404187	1.840323	-1.033463
H67	H	-1.105069	1.655255	-0.384495
O68	O	-0.316039	1.133662	-0.450218
H69	H	-0.262838	1.065380	-0.462705
H70	H	-0.442943	0.940377	-0.343572
H71	H	-0.443360	1.123063	-0.342731
H72	H	-0.679144	0.942065	-0.531719
H73	H	-0.679156	1.123477	-0.532989
O74	O	-0.372933	0.930741	-0.653939
H75	H	-0.319031	0.998351	-0.667179
O76	O	-0.556664	0.933279	-0.697259
H77	H	-0.615537	0.882219	-0.657942
H78	H	-0.640173	0.943063	-0.394135
O79	O	-0.891501	1.673065	-0.366716
H80	H	-0.805989	1.661616	-0.377975
H81	H	-0.394057	1.123370	-0.639695
