data_functionalizedCrystal
_audit_creation_method	'MofGen! by Chris Wilmer'
_symmetry_space_group_name_H-M	'P1'
_symmetry_Int_Tables_number	1
_symmetry_cell_setting	triclinic
loop_
_symmetry_equiv_pos_as_xyz
  x,y,z
_cell_length_a	16.120484
_cell_length_b	12.759401
_cell_length_c	12.759393
_cell_angle_alpha	89.979412
_cell_angle_beta	87.137118
_cell_angle_gamma	87.076404
loop_
_atom_site_label
_atom_site_type_symbol
_atom_site_fract_x
_atom_site_fract_y
_atom_site_fract_z
Zn1	Zn	-0.331898	-1.584969	0.615206
Zn2	Zn	0.168102	-1.084969	1.115206
Zn3	Zn	-0.471336	-1.575920	0.448419
Zn4	Zn	0.028664	-1.075920	0.948419
Zn5	Zn	-0.331937	-1.409268	0.439542
Zn6	Zn	0.168063	-0.909268	0.939542
Zn7	Zn	-0.471267	-1.400321	0.624050
Zn8	Zn	0.028733	-0.900321	1.124050
O9	O	-0.401610	-1.492620	0.531804
O10	O	0.098390	-0.992620	1.031804
O11	O	-0.350408	-1.730789	0.593096
O12	O	0.149592	-1.230789	1.093096
O13	O	-0.452889	-1.553771	0.300223
O14	O	0.047111	-1.053771	0.800223
O15	O	-0.215267	-1.440107	0.455428
O16	O	0.284733	-0.940107	0.955428
O17	O	-0.452852	-1.724141	0.470558
O18	O	0.047148	-1.224141	0.970558
O19	O	-0.215239	-1.569193	0.584488
O20	O	0.284761	-1.069193	1.084488
O21	O	-0.350474	-1.431333	0.293701
O22	O	0.149526	-0.931333	0.793701
O23	O	-0.350407	-1.261061	0.464003
O24	O	0.149593	-0.761061	0.964003
O25	O	-0.452734	-1.424857	0.769895
O26	O	0.047266	-0.924857	1.269895
O27	O	-0.452772	-1.254488	0.599560
O28	O	0.047228	-0.754488	1.099560
O29	O	-0.350341	-1.560517	0.763398
O30	O	0.149659	-1.060517	1.263398
O31	O	-0.587992	-1.545095	0.479133
O32	O	-0.087992	-1.045095	0.979133
O33	O	-0.587941	-1.416083	0.608168
O34	O	-0.087941	-0.916083	1.108168
C35	C	-0.401586	-1.219654	0.531779
C36	C	0.098414	-0.719654	1.031779
C37	C	-0.401597	-1.102876	0.531794
C38	C	0.098403	-0.602876	1.031794
C39	C	-0.454988	-0.934888	0.602293
C40	C	0.045012	-0.434888	1.102293
C41	C	-0.454980	-1.044613	0.602278
C42	C	0.045020	-0.544613	1.102278
C43	C	-0.348223	-1.051410	0.461313
C44	C	0.151777	-0.551410	0.961313
C45	C	-0.348236	-0.941687	0.461324
C46	C	0.151764	-0.441687	0.961324
C47	C	-0.508369	-0.876631	0.672789
C48	C	-0.008369	-0.376631	1.172789
C49	C	-0.561744	-0.928090	0.743269
C50	C	-0.061744	-0.428090	1.243269
C51	C	-0.561736	-1.037815	0.743253
C52	C	-0.061736	-0.537815	1.243253
C53	C	-0.508354	-1.096080	0.672758
C54	C	-0.008354	-0.596080	1.172758
C55	C	-0.618216	-1.478665	0.545596
C56	C	-0.118216	-0.978665	1.045596
C57	C	-0.710881	-1.472791	0.551532
C58	C	-0.210881	-0.972791	1.051532
C59	C	-0.880542	-1.462074	0.562390
C60	C	-0.380542	-0.962074	1.062390
C61	C	-0.921837	-1.523354	0.501236
C62	C	-0.421837	-1.023354	1.001236
C63	C	-1.016241	-1.517391	0.507278
C64	C	-0.516241	-1.017391	1.007278
C65	C	-0.786129	-1.468036	0.556349
C66	C	-0.286129	-0.968036	1.056349
C67	C	-0.184157	-1.506657	0.517981
C68	C	0.315843	-1.006657	1.017981
C69	C	-0.091492	-1.512639	0.512091
C70	C	0.408508	-1.012639	1.012091
C71	C	-0.401525	-1.492699	0.805832
C72	C	0.098475	-0.992699	1.305832
C73	C	-0.401490	-1.492732	0.922607
C74	C	0.098510	-0.992732	1.422607
C75	C	-0.401627	-0.766652	0.531825
C76	C	0.098373	-0.266652	1.031825
C77	C	-0.401617	-0.883429	0.531820
C78	C	0.098383	-0.383429	1.031820
C79	C	-0.401633	-1.492605	0.258838
C80	C	0.098367	-0.992605	0.758838
C81	C	-0.401434	-1.492790	0.142050
C82	C	0.098566	-0.992790	0.642050
C83	C	-0.348168	-1.563380	0.974087
C84	C	0.151832	-1.063380	1.474087
C85	C	-0.348138	-1.563407	1.083809
C86	C	0.151862	-1.063407	1.583809
C87	C	-0.454758	-1.422135	1.090562
C88	C	0.045242	-0.922135	1.590562
C89	C	-0.454783	-1.422104	0.980841
C90	C	0.045217	-0.922104	1.480841
C91	C	-0.294875	-1.634008	0.915853
C92	C	0.205125	-1.134008	1.415853
C93	C	-0.241550	-1.704663	0.967333
C94	C	0.258450	-1.204663	1.467333
C95	C	-0.241520	-1.704690	1.077055
C96	C	0.258480	-1.204690	1.577055
C97	C	-0.294815	-1.634062	1.135297
C98	C	0.205185	-1.134062	1.635297
H99	H	-0.508380	-0.787287	0.672812
H100	H	-0.008380	-0.287287	1.172812
H101	H	-0.916087	-1.405135	0.619277
H102	H	-0.416087	-0.905135	1.119277
Br103	Br	-0.294918	-1.633982	0.766945
Br104	Br	0.205082	-1.133982	1.266945
H105	H	-0.498189	-1.364561	0.938924
H106	H	0.001811	-0.864561	1.438924
H107	H	-0.198154	-1.762159	0.919905
H108	H	0.301846	-1.262159	1.419905
H109	H	-0.304772	-0.899788	0.403944
H110	H	0.195228	-0.399788	0.903944
Br111	Br	-0.508355	-1.244993	0.672727
Br112	Br	-0.008355	-0.744993	1.172727
H113	H	-0.605210	-0.880643	0.800657
H114	H	-0.105210	-0.380643	1.300657
Br115	Br	-0.275779	-1.130483	0.365650
Br116	Br	0.224221	-0.630483	0.865650
Br117	Br	-0.169153	-1.800576	1.146920
Br118	Br	0.330847	-1.300576	1.646920
H119	H	-0.294776	-1.634078	1.224640
H120	H	0.205224	-1.134078	1.724640
H121	H	-0.498147	-1.364633	1.137991
H122	H	0.001853	-0.864633	1.637991
Br123	Br	-0.634181	-1.107650	0.838890
Br124	Br	-0.134181	-0.607650	1.338890
Br125	Br	-0.862594	-1.618261	0.406408
Br126	Br	-0.362594	-1.118261	0.906408
