data_functionalizedCrystal
_audit_creation_method	'MofGen! by Chris Wilmer'
_symmetry_space_group_name_H-M	'P1'
_symmetry_Int_Tables_number	1
_symmetry_cell_setting	triclinic
loop_
_symmetry_equiv_pos_as_xyz
  x,y,z
_cell_length_a	8.497374
_cell_length_b	12.827893
_cell_length_c	12.827885
_cell_angle_alpha	90.019272
_cell_angle_beta	89.982760
_cell_angle_gamma	89.998937
loop_
_atom_site_label
_atom_site_type_symbol
_atom_site_fract_x
_atom_site_fract_y
_atom_site_fract_z
Zn1	Zn	0.627981	1.597773	0.590940
Zn2	Zn	0.891830	1.597711	0.416238
Zn3	Zn	0.628058	1.423015	0.416213
Zn4	Zn	0.891713	1.423044	0.590938
O5	O	0.759895	1.510386	0.503582
O6	O	0.662998	1.744001	0.567776
O7	O	0.856921	1.574499	0.269999
O8	O	0.407285	1.446211	0.439381
O9	O	0.856847	1.743955	0.439424
O10	O	0.407229	1.574605	0.567752
O11	O	0.663129	1.446151	0.269981
O12	O	0.663015	1.276783	0.439380
O13	O	0.856647	1.446260	0.737175
O14	O	0.856721	1.276804	0.567750
O15	O	0.662884	1.574633	0.737176
O16	O	1.112577	1.574527	0.439423
O17	O	1.112490	1.446200	0.567774
C18	C	0.759865	1.238876	0.503563
C19	C	0.759890	1.122723	0.503579
C20	C	0.855891	1.070976	0.567002
C21	C	0.855919	0.950926	0.567021
C22	C	1.169775	1.510373	0.503598
C23	C	1.348419	1.510400	0.503580
C24	C	0.759744	1.510457	0.776153
C25	C	0.759679	1.510487	0.892306
C26	C	0.759927	1.782956	0.503603
C27	C	0.759940	1.899109	0.503612
C28	C	0.759932	1.510375	0.232073
C29	C	0.759552	1.510547	0.115920
C30	C	0.663781	1.574017	0.944091
C31	C	0.663712	1.574050	1.064142
H32	H	0.677751	0.943603	0.449306
F33	F	0.556497	1.645059	0.885878
F34	F	0.556402	1.645150	1.122347
H35	H	0.938056	1.115551	0.621292
H36	H	0.841665	1.456158	1.071393
H37	H	0.841720	1.456114	0.936847
F38	F	0.963361	0.892764	0.637991
H39	H	0.677714	1.078148	0.449298
