data_functionalizedCrystal
_audit_creation_method	'MofGen! by Chris Wilmer'
_symmetry_space_group_name_H-M	'P1'
_symmetry_Int_Tables_number	1
_symmetry_cell_setting	triclinic
loop_
_symmetry_equiv_pos_as_xyz
  x,y,z
_cell_length_a	6.817900
_cell_length_b	15.300992
_cell_length_c	15.301058
_cell_angle_alpha	94.942046
_cell_angle_beta	104.176278
_cell_angle_gamma	104.175078
loop_
_atom_site_label
_atom_site_type_symbol
_atom_site_fract_x
_atom_site_fract_y
_atom_site_fract_z
V1	V	-4.037881	-0.125380	-0.281419
O2	O	-4.021615	0.005386	-0.275783
O3	O	-3.992753	-0.247992	-0.279763
O4	O	-3.992764	-0.123732	-0.404033
O5	O	-4.021603	-0.119735	-0.150652
V6	V	-4.520659	-0.109706	-0.265746
O7	O	-4.300772	-0.159763	-0.315800
O8	O	-4.707965	-0.075323	-0.231365
O9	O	-4.342580	0.012907	-0.267402
O10	O	-4.654322	-0.240471	-0.271382
O11	O	-4.654333	-0.115350	-0.396513
O12	O	-4.342569	-0.111354	-0.143132
C13	C	-3.838443	-0.277874	-0.275393
C14	C	-3.882855	-0.378113	-0.274856
C15	C	-3.860866	-0.412146	-0.192000
C16	C	-3.902616	-0.506332	-0.191499
C17	C	-3.966338	-0.566484	-0.273855
C18	C	-3.988333	-0.532446	-0.356718
C19	C	-3.946599	-0.438261	-0.357218
C20	C	-4.075313	-0.728754	-0.355668
C21	C	-4.117047	-0.822945	-0.355168
C22	C	-4.031330	-0.796825	-0.189949
C23	C	-3.989596	-0.702641	-0.190450
C24	C	-4.011590	-0.668609	-0.273313
C25	C	-3.838456	-0.119366	-0.433911
C26	C	-3.882874	-0.118830	-0.534150
C27	C	-3.946581	-0.201182	-0.594299
C28	C	-3.988324	-0.200677	-0.688485
C29	C	-3.966343	-0.117818	-0.722519
C30	C	-3.902636	-0.035459	-0.662362
C31	C	-3.860909	-0.035966	-0.568179
C32	C	-3.989607	-0.034409	-0.858670
C33	C	-4.031333	-0.033902	-0.952860
C34	C	-4.117021	-0.199120	-0.978977
C35	C	-4.075294	-0.199626	-0.884793
C36	C	-4.011586	-0.117267	-0.824643
C37	C	-4.160232	0.042784	-0.271769
C38	C	-4.095059	0.143022	-0.272312
C39	C	-4.160219	-0.115722	-0.113250
C40	C	-4.095040	-0.116254	-0.013009
H41	H	-3.808963	-0.363175	-0.124936
C42	C	-3.878413	-0.543763	-0.100350
N43	N	-3.860181	-0.571954	-0.031693
H44	H	-4.168892	-0.266179	-1.027956
H45	H	-3.937698	-0.653667	-0.123388
H46	H	-4.013415	-0.824538	-0.122479
C47	C	-4.187168	-0.889111	-0.445764
N48	N	-4.239991	-0.938948	-0.514003
H49	H	-4.093259	-0.701051	-0.423145
C50	C	-3.878448	0.055687	-0.699802
N51	N	-3.860215	0.124341	-0.728001
H52	H	-4.040234	-0.581429	-0.423773
H53	H	-4.013487	0.033568	-0.980568
H54	H	-3.937739	0.032657	-0.809697
H55	H	-3.809036	0.031094	-0.519205
C56	C	-3.970769	-0.292335	-0.556872
N57	N	-3.989000	-0.360995	-0.528685
C58	C	-4.058342	-0.291270	-0.754645
N59	N	-4.111062	-0.359508	-0.804476
H60	H	-4.093182	-0.267097	-0.857086
H61	H	-3.964527	-0.410555	-0.424689
