data_functionalizedCrystal
_audit_creation_method	'MofGen! by Chris Wilmer'
_symmetry_space_group_name_H-M	'P1'
_symmetry_Int_Tables_number	1
_symmetry_cell_setting	triclinic
loop_
_symmetry_equiv_pos_as_xyz
  x,y,z
_cell_length_a	16.120530
_cell_length_b	12.827892
_cell_length_c	16.120297
_cell_angle_alpha	87.123928
_cell_angle_beta	89.871860
_cell_angle_gamma	87.111104
loop_
_atom_site_label
_atom_site_type_symbol
_atom_site_fract_x
_atom_site_fract_y
_atom_site_fract_z
Zn1	Zn	1.247499	-0.529438	0.534590
Zn2	Zn	1.254468	-0.695798	0.395541
Zn3	Zn	1.115487	-0.511779	0.388507
Zn4	Zn	1.108424	-0.694836	0.527510
O5	O	1.181470	-0.607963	0.461537
O6	O	1.364790	-0.559299	0.522052
O7	O	1.241904	-0.664400	0.278242
O8	O	1.133038	-0.367889	0.407905
O9	O	1.369911	-0.681523	0.419892
O10	O	1.230026	-0.380863	0.515232
O11	O	1.139796	-0.529202	0.273075
O12	O	0.998183	-0.528269	0.401040
O13	O	1.121000	-0.679883	0.644815
O14	O	0.992994	-0.662760	0.503164
O15	O	1.223178	-0.558366	0.650017
O16	O	1.235056	-0.841903	0.413027
O17	O	1.127758	-0.841196	0.509984
C18	C	1.181418	-0.879469	0.461520
C19	C	1.181471	-0.995627	0.461544
C20	C	0.965416	-0.593495	0.450571
C21	C	0.872986	-0.587331	0.445899
C22	C	1.234622	-1.047734	0.413626
C23	C	1.234678	-1.167789	0.413650
C24	C	0.703755	-0.576055	0.437377
C25	C	0.660021	-0.639952	0.485757
C26	C	0.565855	-0.633677	0.481016
C27	C	0.797930	-0.582328	0.442118
C28	C	1.398367	-0.622489	0.472546
C29	C	1.490796	-0.628679	0.477238
C30	C	1.170524	-0.620987	0.678432
C31	C	1.165859	-0.626537	0.770859
C32	C	1.181543	-0.335400	0.461574
C33	C	1.181574	-0.219250	0.461589
C34	C	1.192421	-0.594917	0.245488
C35	C	1.197246	-0.589084	0.153069
C36	C	1.157313	-0.636645	0.940085
C37	C	1.205790	-0.578979	0.983850
C38	C	1.201035	-0.584603	1.078012
C39	C	1.162067	-0.631022	0.845913
H40	H	1.280181	-1.212599	0.372623
H41	H	1.250863	-0.525384	0.950599
H42	H	1.112243	-0.690235	0.973333
N43	N	1.121296	-1.159909	0.515940
H44	H	1.085865	-1.210752	0.547936
H45	H	1.084562	-1.110073	0.480067
N46	N	1.294855	-0.989109	0.359263
H47	H	1.286279	-0.911655	0.366954
H48	H	1.284983	-1.003743	0.299199
H49	H	0.670479	-0.516644	0.392400
H50	H	0.693300	-0.699366	0.530739
N51	N	1.121240	-1.054256	0.515905
H52	H	1.085760	-1.002988	0.547878
H53	H	1.153167	-1.104065	0.556111
