data_functionalizedCrystal
_audit_creation_method	'MofGen! by Chris Wilmer'
_symmetry_space_group_name_H-M	'P1'
_symmetry_Int_Tables_number	1
_symmetry_cell_setting	triclinic
loop_
_symmetry_equiv_pos_as_xyz
  x,y,z
_cell_length_a	27.732048
_cell_length_b	27.732048
_cell_length_c	14.048226
_cell_angle_alpha	90.007623
_cell_angle_beta	89.999178
_cell_angle_gamma	82.642655
loop_
_atom_site_label
_atom_site_type_symbol
_atom_site_fract_x
_atom_site_fract_y
_atom_site_fract_z
O1	O	0.640927	0.057515	0.079048
O2	O	1.140927	0.557515	0.579048
O3	O	0.500134	0.066261	0.079078
O4	O	1.000134	0.566261	0.579078
O5	O	0.574903	-0.008508	0.079044
O6	O	1.074903	0.491492	0.579044
O7	O	0.566158	0.132285	0.079082
O8	O	1.066158	0.632285	0.579082
O9	O	0.574896	-0.008508	-0.079277
O10	O	1.074896	0.491492	0.420723
O11	O	0.500127	0.066262	-0.079243
O12	O	1.000127	0.566262	0.420757
O13	O	0.640920	0.057516	-0.079273
O14	O	1.140920	0.557516	0.420727
Zn15	Zn	0.570523	0.061889	-0.104395
Zn16	Zn	1.070523	0.561889	0.395605
Zn17	Zn	0.570532	0.061888	0.104200
Zn18	Zn	1.070532	0.561888	0.604200
O19	O	0.566151	0.132286	-0.079239
O20	O	1.066151	0.632286	0.420761
C21	C	0.482124	0.066078	-0.000079
C22	C	0.982124	0.566078	0.499921
C23	C	0.428469	0.065525	-0.000068
C24	C	0.928469	0.565525	0.499932
C25	C	0.574716	-0.026515	-0.000119
C26	C	1.074716	0.473485	0.499881
C27	C	0.574164	-0.080170	-0.000127
C28	C	1.074164	0.419830	0.499873
C29	C	0.614867	-0.418985	-0.000087
C30	C	1.114867	0.081015	0.499913
C31	C	0.612816	-0.620645	-0.000073
C32	C	1.112816	-0.120645	0.499927
O33	O	0.650037	-0.651900	-0.000039
O34	O	1.150037	-0.151900	0.499961
N35	N	0.568481	-0.639768	-0.000064
N36	N	1.068481	-0.139768	0.499936
C37	C	0.524656	-0.608474	-0.000053
C38	C	1.024656	-0.108474	0.499947
O39	O	0.486899	-0.629367	-0.000035
O40	O	0.986899	-0.129367	0.499965
C41	C	0.526707	-0.406815	-0.000060
C42	C	1.026707	0.093185	0.499940
C43	C	0.571045	-0.387694	-0.000078
C44	C	1.071045	0.112306	0.499922
C45	C	0.659202	-0.399864	-0.000104
C46	C	1.159202	0.100136	0.499896
C47	C	0.659714	-0.349452	-0.000113
C48	C	1.159714	0.150548	0.499887
C49	C	0.615892	-0.318161	-0.000104
C50	C	1.115892	0.181839	0.499896
C51	C	0.571557	-0.337282	-0.000087
C52	C	1.071557	0.162718	0.499913
C53	C	0.482882	-0.375521	-0.000042
C54	C	0.982882	0.124479	0.499958
C55	C	0.483399	-0.325104	-0.000041
C56	C	0.983399	0.174896	0.499959
C57	C	0.527737	-0.305983	-0.000059
C58	C	1.027737	0.194017	0.499941
C59	C	0.528247	-0.255580	-0.000087
C60	C	1.028247	0.244420	0.499913
N61	N	0.572583	-0.236456	-0.000095
N62	N	1.072583	0.263544	0.499905
C63	C	0.616405	-0.267747	-0.000104
C64	C	1.116405	0.232253	0.499896
C65	C	0.523582	-0.714348	-0.000051
C66	C	1.023582	-0.214348	0.499949
C67	C	0.523069	-0.764762	-0.000051
C68	C	1.023069	-0.264762	0.499949
C69	C	0.611230	-0.776930	-0.000069
C70	C	1.111230	-0.276930	0.499931
C71	C	0.611742	-0.726514	-0.000076
C72	C	1.111742	-0.226514	0.499924
C73	C	0.567917	-0.695224	-0.000060
C74	C	1.067917	-0.195224	0.499940
C75	C	0.617477	-0.161878	-0.000123
C76	C	1.117477	0.338122	0.499877
C77	C	0.617986	-0.111461	-0.000135
C78	C	1.117986	0.388539	0.499865
C79	C	0.529825	-0.099298	-0.000112
C80	C	1.029825	0.400702	0.499888
C81	C	0.529316	-0.149710	-0.000105
C82	C	1.029316	0.350290	0.499895
C83	C	0.573147	-0.180999	-0.000107
C84	C	1.073147	0.319001	0.499893
O85	O	0.491047	-0.224296	-0.000110
O86	O	0.991047	0.275704	0.499890
O87	O	0.654156	-0.246844	-0.000100
O88	O	1.154156	0.253156	0.499900
C89	C	0.614355	-0.469397	-0.000078
C90	C	1.114355	0.030603	0.499922
C91	C	0.570021	-0.488518	-0.000061
C92	C	1.070021	0.011482	0.499939
C93	C	0.526198	-0.457228	-0.000052
C94	C	1.026198	0.042772	0.499948
C95	C	0.569508	-0.538933	-0.000061
C96	C	1.069508	-0.038933	0.499939
C97	C	0.613330	-0.570223	-0.000069
C98	C	1.113330	-0.070223	0.499931
C99	C	0.657665	-0.551100	-0.000078
C100	C	1.157665	-0.051100	0.499922
C101	C	0.658177	-0.500688	-0.000087
C102	C	1.158177	-0.000688	0.499913
C103	C	0.481863	-0.476351	-0.000044
C104	C	0.981863	0.023649	0.499956
C105	C	0.481355	-0.526764	-0.000036
C106	C	0.981355	-0.026764	0.499964
C107	C	0.525177	-0.558054	-0.000045
C108	C	1.025177	-0.058054	0.499955
C109	C	0.089654	0.106229	-0.000098
C110	C	0.589654	0.606229	0.499902
C111	C	-0.112006	0.104178	-0.000107
C112	C	0.387994	0.604178	0.499893
O113	O	-0.143262	0.141398	-0.000138
O114	O	0.356738	0.641398	0.499862
N115	N	-0.131130	0.059843	-0.000118
N116	N	0.368870	0.559843	0.499882
C117	C	-0.099835	0.016017	-0.000132
C118	C	0.400165	0.516017	0.499868
O119	O	-0.120728	-0.021740	-0.000151
O120	O	0.379272	0.478260	0.499849
C121	C	0.101824	0.018068	-0.000130
C122	C	0.601824	0.518068	0.499870
C123	C	0.120944	0.062407	-0.000110
C124	C	0.620944	0.562407	0.499890
C125	C	0.108775	0.150563	-0.000079
C126	C	0.608775	0.650563	0.499921
C127	C	0.159187	0.151075	-0.000072
C128	C	0.659187	0.651075	0.499928
C129	C	0.190477	0.107253	-0.000083
C130	C	0.690477	0.607253	0.499917
C131	C	0.171356	0.062919	-0.000102
C132	C	0.671356	0.562919	0.499898
C133	C	0.133117	-0.025757	-0.000151
C134	C	0.633117	0.474243	0.499849
C135	C	0.183535	-0.025240	-0.000153
C136	C	0.683535	0.474760	0.499847
C137	C	0.202655	0.019098	-0.000133
C138	C	0.702655	0.519098	0.499867
C139	C	0.253059	0.019609	-0.000106
C140	C	0.753059	0.519609	0.499894
N141	N	0.272183	0.063944	-0.000096
N142	N	0.772183	0.563944	0.499904
C143	C	0.240892	0.107766	-0.000084
C144	C	0.740892	0.607766	0.499916
C145	C	-0.205709	0.014943	-0.000131
C146	C	0.294291	0.514943	0.499869
C147	C	-0.256124	0.014430	-0.000130
C148	C	0.243876	0.514430	0.499870
C149	C	-0.268291	0.102591	-0.000107
C150	C	0.231709	0.602591	0.499893
C151	C	-0.217876	0.103104	-0.000102
C152	C	0.282124	0.603104	0.499898
C153	C	-0.186585	0.059278	-0.000121
C154	C	0.313415	0.559278	0.499879
C155	C	0.346761	0.108839	-0.000068
C156	C	0.846761	0.608839	0.499932
C157	C	0.397178	0.109347	-0.000057
C158	C	0.897178	0.609347	0.499943
C159	C	0.409341	0.021186	-0.000084
C160	C	0.909341	0.521186	0.499916
C161	C	0.358929	0.020678	-0.000091
C162	C	0.858929	0.520678	0.499909
C163	C	0.327639	0.064508	-0.000086
C164	C	0.827639	0.564508	0.499914
O165	O	0.284343	-0.017592	-0.000086
O166	O	0.784343	0.482408	0.499914
O167	O	0.261794	0.145518	-0.000087
O168	O	0.761794	0.645518	0.499913
C169	C	0.039242	0.105716	-0.000106
C170	C	0.539242	0.605716	0.499894
C171	C	0.020120	0.061382	-0.000125
C172	C	0.520120	0.561382	0.499875
C173	C	0.051411	0.017560	-0.000136
C174	C	0.551411	0.517560	0.499864
C175	C	-0.030294	0.060869	-0.000123
C176	C	0.469706	0.560869	0.499877
C177	C	-0.061585	0.104691	-0.000112
C178	C	0.438415	0.604691	0.499888
C179	C	-0.042461	0.149026	-0.000102
C180	C	0.457539	0.649026	0.499898
C181	C	0.007951	0.149539	-0.000094
C182	C	0.507951	0.649539	0.499906
C183	C	0.032287	-0.026775	-0.000146
C184	C	0.532287	0.473225	0.499854
C185	C	-0.018125	-0.027284	-0.000153
C186	C	0.481875	0.472716	0.499847
C187	C	-0.049416	0.016538	-0.000141
C188	C	0.450584	0.516538	0.499859
C189	C	0.658931	0.057699	-0.000114
C190	C	1.158931	0.557699	0.499886
C191	C	0.712586	0.058252	-0.000119
C192	C	1.212586	0.558252	0.499881
C193	C	0.566338	0.150292	-0.000074
C194	C	1.066338	0.650292	0.499926
C195	C	0.566891	0.203947	-0.000060
C196	C	1.066891	0.703947	0.499940
N197	N	0.570520	0.061889	-0.246756
N198	N	1.070520	0.561889	0.253244
C199	C	0.541442	0.032767	-0.703625
C200	C	1.041442	0.532767	-0.203625
C201	C	0.541441	0.032766	-0.603967
C202	C	1.041441	0.532766	-0.103967
C203	C	0.570533	0.061884	-0.554126
C204	C	1.070533	0.561884	-0.054126
C205	C	0.599632	0.091002	-0.603947
C206	C	1.099632	0.591002	-0.103947
C207	C	0.599636	0.091000	-0.703603
C208	C	1.099636	0.591000	-0.203603
C209	C	0.599621	0.091004	-0.396233
C210	C	1.099621	0.591004	0.103767
C211	C	0.599616	0.091006	-0.296570
C212	C	1.099616	0.591006	0.203430
C213	C	0.541425	0.032769	-0.296597
C214	C	1.041425	0.532769	0.203403
C215	C	0.541429	0.032768	-0.396253
C216	C	1.041429	0.532768	0.103747
C217	C	0.570528	0.061886	-0.446067
C218	C	1.070528	0.561886	0.053933
N219	N	0.570538	0.061884	0.246561
N220	N	1.070538	0.561884	0.746561
H221	H	0.653168	-0.187348	-0.000121
H222	H	1.153168	0.312652	0.499879
O223	O	0.510069	0.001346	-0.450017
O224	O	1.010069	0.501346	0.049983
H225	H	0.489844	-0.018912	-0.398638
H226	H	0.989844	0.481088	0.101362
O227	O	0.510051	0.001368	-0.550239
O228	O	1.010051	0.501368	-0.050239
H229	H	0.533414	-0.024776	-0.504842
H230	H	1.033414	0.475224	-0.004842
H231	H	-0.180236	-0.020747	-0.000147
H232	H	0.319764	0.479253	0.499853
O233	O	0.436127	-0.291358	-0.000034
O234	O	0.936127	0.208642	0.499966
H235	H	0.434250	-0.268093	0.064496
H236	H	0.934250	0.231907	0.564496
H237	H	0.117558	-0.061861	-0.000168
H238	H	0.617558	0.438139	0.499832
H239	H	0.623304	0.114719	-0.255992
H240	H	1.123304	0.614719	0.244008
O241	O	0.704932	-0.584853	-0.000088
O242	O	1.204932	-0.084853	0.499912
H243	H	0.697122	-0.623120	-0.000073
H244	H	1.197122	-0.123120	0.499927
O245	O	-0.276744	-0.033392	-0.000138
O246	O	0.223256	0.466608	0.499862
H247	H	-0.299424	-0.035733	-0.064666
H248	H	0.200576	0.464267	0.435334
H249	H	0.445246	-0.542327	-0.000030
H250	H	0.945246	-0.042327	0.499970
H251	H	0.623329	0.114710	-0.744160
H252	H	1.123329	0.614710	-0.244160
H253	H	0.517731	0.009061	-0.256033
H254	H	1.017731	0.509061	0.243967
O255	O	0.434596	-0.442604	-0.000052
O256	O	0.934596	0.057396	0.499948
H257	H	0.403684	-0.464377	-0.000055
H258	H	0.903684	0.035623	0.499945
H259	H	0.623317	0.114714	-0.436789
H260	H	1.123317	0.614714	0.063211
H261	H	0.695819	-0.333889	-0.000124
H262	H	1.195819	0.166111	0.499876
H263	H	0.694889	-0.425336	-0.000107
H264	H	1.194889	0.074664	0.499893
H265	H	0.654093	-0.095896	-0.000153
H266	H	1.154093	0.404104	0.499847
H267	H	0.647846	-0.710950	-0.000090
H268	H	1.147846	-0.210950	0.499910
O269	O	0.631006	0.122412	-0.550191
O270	O	1.131006	0.622412	-0.050191
H271	H	0.657155	0.099064	-0.504778
H272	H	1.157155	0.599064	-0.004778
O273	O	0.417802	0.157171	-0.000036
O274	O	0.917802	0.657171	0.499964
H275	H	0.440485	0.159511	-0.064558
H276	H	0.940485	0.659511	0.435442
H277	H	0.493213	-0.165279	-0.000116
H278	H	0.993213	0.334721	0.499884
H279	H	0.646911	-0.802415	-0.000077
H280	H	1.146911	-0.302415	0.499923
H281	H	0.486964	-0.780325	-0.000053
H282	H	0.986964	-0.280325	0.499947
H283	H	0.487892	-0.688875	-0.000038
H284	H	0.987892	-0.188875	0.499962
H285	H	-0.067947	0.184708	-0.000088
H286	H	0.432053	0.684708	0.499912
H287	H	0.517750	0.009058	-0.744199
H288	H	1.017750	0.509058	-0.244199
H289	H	0.494146	-0.073812	-0.000108
H290	H	0.994146	0.426188	0.499892
O291	O	0.435060	-0.396138	-0.000019
O292	O	0.935060	0.103862	0.499981
H293	H	0.404679	-0.365902	-0.000001
H294	H	0.904679	0.134098	0.499999
O295	O	0.217285	-0.072509	-0.000170
O296	O	0.717285	0.427491	0.499830
H297	H	0.195515	-0.103423	-0.000177
H298	H	0.695515	0.396577	0.499823
H299	H	0.694282	-0.485125	-0.000101
H300	H	1.194282	0.014875	0.499899
O301	O	0.313017	0.156111	-0.000054
O302	O	0.813017	0.656111	0.499946
H303	H	0.334790	0.187022	-0.000031
H304	H	0.834790	0.687022	0.499969
H305	H	0.434827	-0.014492	-0.000090
H306	H	0.934827	0.485508	0.499910
H307	H	0.174750	0.187180	-0.000055
H308	H	0.674750	0.687180	0.499945
H309	H	0.083302	0.186251	-0.000073
H310	H	0.583302	0.686251	0.499927
H311	H	-0.033688	-0.063392	-0.000161
H312	H	0.466312	0.436608	0.499839
O313	O	-0.197253	0.150924	-0.000098
O314	O	0.302747	0.650924	0.499902
H315	H	-0.227486	0.181307	-0.000098
H316	H	0.272514	0.681307	0.499902
H317	H	0.057760	-0.062462	-0.000158
H318	H	0.557760	0.437538	0.499842
O319	O	-0.302044	0.149859	-0.000109
O320	O	0.197956	0.649859	0.499891
H321	H	-0.340311	0.142048	-0.000122
H322	H	0.159689	0.642048	0.499878
O323	O	0.338300	-0.027142	-0.000109
O324	O	0.838300	0.472858	0.499891
H325	H	0.368531	-0.057528	-0.000120
H326	H	0.868531	0.442472	0.499880
H327	H	0.023514	0.185643	-0.000079
H328	H	0.523514	0.685643	0.499921
