data_functionalizedCrystal
_audit_creation_method	'MofGen! by Chris Wilmer'
_symmetry_space_group_name_H-M	'P1'
_symmetry_Int_Tables_number	1
_symmetry_cell_setting	triclinic
loop_
_symmetry_equiv_pos_as_xyz
  x,y,z
_cell_length_a	18.050591
_cell_length_b	13.897448
_cell_length_c	13.897441
_cell_angle_alpha	89.969401
_cell_angle_beta	89.969026
_cell_angle_gamma	90.010775
loop_
_atom_site_label
_atom_site_type_symbol
_atom_site_fract_x
_atom_site_fract_y
_atom_site_fract_z
Zn1	Zn	-1.135398	0.384162	0.545645
Zn2	Zn	-0.635398	0.884162	1.045645
Zn3	Zn	-1.135316	0.545484	0.384346
Zn4	Zn	-0.635316	1.045484	0.884346
Zn5	Zn	-1.011202	0.384185	0.384334
Zn6	Zn	-0.511202	0.884185	0.884334
Zn7	Zn	-1.011188	0.545397	0.545570
Zn8	Zn	-0.511188	1.045397	1.045570
O9	O	-1.073276	0.464807	0.464974
O10	O	-0.573276	0.964807	0.964974
O11	O	-1.239312	0.405588	0.524284
O12	O	-0.739312	0.905588	1.024284
O13	O	-1.118824	0.524133	0.249363
O14	O	-0.618824	1.024133	0.749363
O15	O	-1.027717	0.249200	0.405759
O16	O	-0.527717	0.749200	0.905759
O17	O	-1.239252	0.524111	0.405779
O18	O	-0.739252	1.024111	0.905779
O19	O	-1.118963	0.249183	0.524273
O20	O	-0.618963	0.749183	1.024273
O21	O	-1.027638	0.405627	0.249354
O22	O	-0.527638	0.905627	0.749354
O23	O	-0.907276	0.405543	0.405686
O24	O	-0.407276	0.905543	0.905686
O25	O	-1.027693	0.523963	0.680561
O26	O	-0.527693	1.023963	1.180561
O27	O	-0.907265	0.523986	0.524145
O28	O	-0.407265	1.023986	1.024145
O29	O	-1.118950	0.405505	0.680616
O30	O	-0.618950	0.905505	1.180616
O31	O	-1.118811	0.680454	0.405706
O32	O	-0.618811	1.180454	0.905706
O33	O	-1.027614	0.680390	0.524157
O34	O	-0.527614	1.180390	1.024157
C35	C	-0.880324	0.464758	0.464907
C36	C	-0.380324	0.964758	0.964907
C37	C	-0.797778	0.464761	0.464901
C38	C	-0.297778	0.964761	0.964901
C39	C	-0.598312	0.400264	0.400618
C40	C	-0.098312	0.900264	0.900618
C41	C	-0.548902	0.488243	0.376879
C42	C	-0.048902	0.988243	0.876879
C43	C	-0.646648	0.464780	0.464934
C44	C	-0.146648	0.964780	0.964934
C45	C	-0.548976	0.376822	0.488660
C46	C	-0.048976	0.876822	0.988660
C47	C	-0.500663	0.464791	0.464964
C48	C	-0.000663	0.964791	0.964964
C49	C	-0.598326	0.552805	0.441150
C50	C	-0.098326	1.052805	0.941150
C51	C	-0.598403	0.441325	0.552972
C52	C	-0.098403	0.941325	1.052972
C53	C	-0.549016	0.529364	0.529267
C54	C	-0.049016	1.029364	1.029267
C55	C	-0.730746	0.464772	0.464914
C56	C	-0.230746	0.964772	0.964914
C57	C	-0.416566	0.464808	0.464984
C58	C	0.083434	0.964808	0.964984
C59	C	-1.073222	0.715421	0.464946
C60	C	-0.573222	1.215421	0.964946
C61	C	-1.073267	0.822635	0.464966
C62	C	-0.573267	1.322635	0.964966
C63	C	-1.073329	0.464722	0.716567
C64	C	-0.573329	0.964722	1.216567
C65	C	-1.073351	0.464685	0.823781
C66	C	-0.573351	0.964685	1.323781
C67	C	-0.266982	0.464840	0.465024
C68	C	0.233018	0.964840	0.965024
C69	C	-0.349528	0.464811	0.465000
C70	C	0.150472	0.964811	0.965000
C71	C	-1.073351	0.213214	0.465023
C72	C	-0.573351	0.713214	0.965023
C73	C	-1.073383	0.106000	0.465044
C74	C	-0.573383	0.606000	0.965044
C75	C	-1.073345	1.018930	0.465027
C76	C	-0.573345	1.518930	0.965027
C77	C	-1.073299	0.909698	0.464996
C78	C	-0.573299	1.409698	0.964996
C79	C	-1.073266	0.464822	0.214359
C80	C	-0.573266	0.964822	0.714359
C81	C	-1.073388	0.464587	0.107146
C82	C	-0.573388	0.964587	0.607146
C83	C	-1.073371	0.464620	1.020076
C84	C	-0.573371	0.964620	1.520076
C85	C	-1.073358	0.464659	0.910844
C86	C	-0.573358	0.964659	1.410844
H87	H	-0.527160	0.508093	0.302440
H88	H	-0.027160	1.008093	0.802440
H89	H	-0.619913	0.627217	0.421012
H90	H	-0.119913	1.127217	0.921012
H91	H	-0.527508	0.583991	0.583670
H92	H	-0.027508	1.083991	1.083670
H93	H	-0.620163	0.421448	0.627388
H94	H	-0.120163	0.921448	1.127388
C95	C	-0.520027	0.277603	0.515212
C96	C	-0.020027	0.777603	1.015212
C97	C	-0.476271	0.242117	0.439967
C98	C	0.023729	0.742117	0.939967
C99	C	-0.449602	0.150713	0.464377
C100	C	0.050398	0.650713	0.964377
H101	H	-0.491057	0.281907	0.572089
H102	H	0.008943	0.781907	1.072089
H103	H	-0.560592	0.235358	0.525921
H104	H	-0.060592	0.735358	1.025921
H105	H	-0.435712	0.284351	0.429271
H106	H	0.064288	0.784351	0.929271
H107	H	-0.505224	0.237789	0.383083
H108	H	-0.005224	0.737789	0.883083
H109	H	-0.490167	0.108468	0.475086
H110	H	0.009833	0.608468	0.975086
H111	H	-0.420636	0.155027	0.521255
H112	H	0.079364	0.655027	1.021255
H113	H	-0.419916	0.126621	0.413325
H114	H	0.080084	0.626621	0.913325
C115	C	-0.627138	0.327724	0.327874
C116	C	-0.127138	0.827724	0.827874
C117	C	-0.602066	0.352743	0.235844
C118	C	-0.102066	0.852743	0.735844
C119	C	-0.628613	0.285953	0.168807
C120	C	-0.128613	0.785953	0.668807
H121	H	-0.609530	0.265358	0.343978
H122	H	-0.109530	0.765358	0.843978
H123	H	-0.679767	0.327827	0.328713
H124	H	-0.179767	0.827827	0.828713
H125	H	-0.549448	0.352630	0.235007
H126	H	-0.049448	0.852630	0.735007
H127	H	-0.619671	0.415098	0.219710
H128	H	-0.119671	0.915098	0.719710
H129	H	-0.681243	0.286056	0.169646
H130	H	-0.181243	0.786056	0.669646
H131	H	-0.611004	0.223591	0.184919
H132	H	-0.111004	0.723591	0.684919
H133	H	-0.611612	0.302924	0.106356
H134	H	-0.111612	0.802924	0.606356
