data_functionalizedCrystal
_audit_creation_method	'MofGen! by Chris Wilmer'
_symmetry_space_group_name_H-M	'P1'
_symmetry_Int_Tables_number	1
_symmetry_cell_setting	triclinic
loop_
_symmetry_equiv_pos_as_xyz
  x,y,z
_cell_length_a	27.731994
_cell_length_b	27.731996
_cell_length_c	26.809956
_cell_angle_alpha	89.998344
_cell_angle_beta	89.997334
_cell_angle_gamma	82.620961
loop_
_atom_site_label
_atom_site_type_symbol
_atom_site_fract_x
_atom_site_fract_y
_atom_site_fract_z
O1	O	0.640937	0.057387	-0.041415
O2	O	1.140937	0.557387	0.458585
O3	O	0.500139	0.066160	-0.041432
O4	O	1.000139	0.566160	0.458568
O5	O	0.574924	-0.008626	-0.041412
O6	O	1.074924	0.491374	0.458588
O7	O	0.566152	0.132173	-0.041435
O8	O	1.066152	0.632173	0.458565
O9	O	0.574910	-0.008615	0.041547
O10	O	1.074910	0.491385	0.541547
O11	O	0.500124	0.066171	0.041527
O12	O	1.000124	0.566171	0.541527
O13	O	0.640923	0.057398	0.041544
O14	O	1.140923	0.557398	0.541544
Zn15	Zn	0.570522	0.061787	0.054707
Zn16	Zn	1.070522	0.561787	0.554707
Zn17	Zn	0.570540	0.061772	-0.054595
Zn18	Zn	1.070540	0.561772	0.445405
O19	O	0.566138	0.132184	0.041524
O20	O	1.066138	0.632184	0.541524
C21	C	0.482124	0.065986	0.000045
C22	C	0.982124	0.565986	0.500045
C23	C	0.428468	0.065443	0.000039
C24	C	0.928468	0.565443	0.500039
C25	C	0.095742	0.062034	0.045280
C26	C	0.595742	0.562034	0.545280
C27	C	-0.105915	0.059972	0.045286
C28	C	0.394085	0.559972	0.545286
O29	O	-0.131994	0.059690	0.083745
O30	O	0.368006	0.559690	0.583745
N31	N	-0.131122	0.059710	0.000065
N32	N	0.368878	0.559710	0.500065
C33	C	-0.105912	0.059960	-0.045161
C34	C	0.394088	0.559960	0.454839
O35	O	-0.131978	0.059684	-0.083624
O36	O	0.368022	0.559684	0.416376
C37	C	0.095746	0.062018	-0.045166
C38	C	0.595746	0.562018	0.454834
C39	C	0.120950	0.062285	0.000058
C40	C	0.620950	0.562285	0.500058
C41	C	0.120946	0.062300	0.090500
C42	C	0.620946	0.562300	0.590500
C43	C	0.171357	0.062818	0.090498
C44	C	0.671357	0.562818	0.590498
C45	C	0.196565	0.063070	0.045276
C46	C	0.696565	0.563070	0.545276
C47	C	0.171361	0.062803	0.000056
C48	C	0.671361	0.562803	0.500056
C49	C	0.120956	0.062264	-0.090392
C50	C	0.620956	0.562264	0.409608
C51	C	0.171374	0.062778	-0.090389
C52	C	0.671374	0.562778	0.409611
C53	C	0.196578	0.063045	-0.045165
C54	C	0.696578	0.563045	0.454835
C55	C	0.246979	0.063573	-0.045168
C56	C	0.746979	0.563573	0.454832
N57	N	0.272186	0.063835	0.000053
N58	N	0.772186	0.563835	0.500053
C59	C	0.246979	0.063583	0.045275
C60	C	0.746979	0.563583	0.545275
C61	C	-0.211785	0.058880	-0.045155
C62	C	0.288215	0.558880	0.454845
C63	C	-0.262199	0.058366	-0.045154
C64	C	0.237801	0.558366	0.454846
C65	C	-0.262199	0.058378	0.045293
C66	C	0.237801	0.558378	0.545293
C67	C	-0.211784	0.058895	0.045292
C68	C	0.288216	0.558895	0.545292
C69	C	-0.186578	0.059142	0.000066
C70	C	0.313422	0.559142	0.500066
C71	C	0.352846	0.064672	0.045267
C72	C	0.852846	0.564672	0.545267
C73	C	0.403261	0.065192	0.045261
C74	C	0.903261	0.565192	0.545261
C75	C	0.403257	0.065178	-0.045185
C76	C	0.903257	0.565178	0.454815
C77	C	0.352846	0.064660	-0.045180
C78	C	0.852846	0.564660	0.454820
C79	C	0.327642	0.064406	0.000051
C80	C	0.827642	0.564406	0.500051
O81	O	0.273090	0.063850	-0.083607
O82	O	0.773090	0.563850	0.416393
O83	O	0.273056	0.063848	0.083732
O84	O	0.773056	0.563848	0.583732
C85	C	0.045331	0.061516	0.045282
C86	C	0.545331	0.561516	0.545282
C87	C	0.020127	0.061249	0.000062
C88	C	0.520127	0.561249	0.500062
C89	C	0.045335	0.061500	-0.045161
C90	C	0.545335	0.561500	0.454839
C91	C	-0.030287	0.060735	0.000063
C92	C	0.469713	0.560735	0.500063
C93	C	-0.055494	0.060484	0.045285
C94	C	0.444506	0.560484	0.545285
C95	C	-0.030287	0.060746	0.090506
C96	C	0.469713	0.560746	0.590506
C97	C	0.020124	0.061264	0.090504
C98	C	0.520124	0.561264	0.590504
C99	C	0.020128	0.061238	-0.090382
C100	C	0.520128	0.561238	0.409618
C101	C	-0.030284	0.060721	-0.090376
C102	C	0.469716	0.560721	0.409624
C103	C	-0.055491	0.060469	-0.045154
C104	C	0.444509	0.560469	0.454846
C105	C	0.574737	-0.026628	0.000069
C106	C	1.074737	0.473372	0.500069
C107	C	0.574194	-0.080284	0.000074
C108	C	1.074194	0.419716	0.500074
C109	C	0.570787	-0.413006	-0.045172
C110	C	1.070787	0.086994	0.454828
C111	C	0.568726	-0.614663	-0.045181
C112	C	1.068726	-0.114663	0.454819
O113	O	0.568445	-0.640739	-0.083640
O114	O	1.068445	-0.140739	0.416360
N115	N	0.568462	-0.639874	0.000040
N116	N	1.068462	-0.139874	0.500040
C117	C	0.568711	-0.614667	0.045266
C118	C	1.068711	-0.114667	0.545266
O119	O	0.568434	-0.640737	0.083729
O120	O	1.068434	-0.140737	0.583729
C121	C	0.570768	-0.413010	0.045274
C122	C	1.070768	0.086990	0.545274
C123	C	0.571037	-0.387802	0.000051
C124	C	1.071037	0.112198	0.500051
C125	C	0.571055	-0.387798	-0.090392
C126	C	1.071055	0.112202	0.409608
C127	C	0.571573	-0.337387	-0.090389
C128	C	1.071573	0.162613	0.409611
C129	C	0.571823	-0.312183	-0.045166
C130	C	1.071823	0.187817	0.454834
C131	C	0.571555	-0.337391	0.000054
C132	C	1.071555	0.162609	0.500054
C133	C	0.571013	-0.387803	0.090500
C134	C	1.071013	0.112197	0.590500
C135	C	0.571526	-0.337385	0.090498
C136	C	1.071526	0.162615	0.590498
C137	C	0.571795	-0.312178	0.045274
C138	C	1.071795	0.187822	0.545274
C139	C	0.572322	-0.261777	0.045279
C140	C	1.072322	0.238223	0.545279
N141	N	0.572586	-0.236566	0.000058
N142	N	1.072586	0.263434	0.500058
C143	C	0.572336	-0.261769	-0.045164
C144	C	1.072336	0.238231	0.454836
C145	C	0.567631	-0.720540	0.045258
C146	C	1.067631	-0.220540	0.545258
C147	C	0.567118	-0.770955	0.045256
C148	C	1.067118	-0.270955	0.545256
C149	C	0.567132	-0.770947	-0.045191
C150	C	1.067132	-0.270947	0.454809
C151	C	0.567649	-0.720533	-0.045188
C152	C	1.067649	-0.220533	0.454812
C153	C	0.567895	-0.695329	0.000038
C154	C	1.067895	-0.195329	0.500038
C155	C	0.573424	-0.155902	-0.045155
C156	C	1.073424	0.344098	0.454845
C157	C	0.573944	-0.105487	-0.045149
C158	C	1.073944	0.394513	0.454851
C159	C	0.573927	-0.105499	0.045298
C160	C	1.073927	0.394501	0.545298
C161	C	0.573410	-0.155910	0.045292
C162	C	1.073410	0.344090	0.545292
C163	C	0.573157	-0.181110	0.000061
C164	C	1.073157	0.318890	0.500061
O165	O	0.572598	-0.235669	0.083718
O166	O	1.072598	0.264331	0.583718
O167	O	0.572602	-0.235689	-0.083621
O168	O	1.072602	0.264311	0.416379
C169	C	0.570269	-0.463417	-0.045175
C170	C	1.070269	0.036583	0.454825
C171	C	0.570001	-0.488624	0.000045
C172	C	1.070001	0.011376	0.500045
C173	C	0.570251	-0.463421	0.045268
C174	C	1.070251	0.036579	0.545268
C175	C	0.569487	-0.539039	0.000043
C176	C	1.069487	-0.039039	0.500043
C177	C	0.569238	-0.564242	-0.045179
C178	C	1.069238	-0.064242	0.454821
C179	C	0.569501	-0.539031	-0.090400
C180	C	1.069501	-0.039031	0.409600
C181	C	0.570019	-0.488620	-0.090397
C182	C	1.070019	0.011380	0.409603
C183	C	0.569987	-0.488632	0.090489
C184	C	1.069987	0.011368	0.590489
C185	C	0.569470	-0.539043	0.090482
C186	C	1.069470	-0.039043	0.590482
C187	C	0.569220	-0.564246	0.045260
C188	C	1.069220	-0.064246	0.545260
C189	C	0.658938	0.057573	0.000066
C190	C	1.158938	0.557573	0.500066
C191	C	0.712594	0.058115	0.000069
C192	C	1.212594	0.558115	0.500069
C193	C	0.566325	0.150186	0.000042
C194	C	1.066325	0.650186	0.500042
C195	C	0.566868	0.203842	0.000034
C196	C	1.066868	0.703842	0.500034
N197	N	0.570513	0.061797	0.129303
N198	N	1.070513	0.561797	0.629303
N199	N	0.570553	0.061758	-0.129191
N200	N	1.070553	0.561758	0.370809
C201	C	0.603651	0.028665	0.473938
C202	C	1.103651	0.528665	0.973938
C203	C	0.603663	0.028657	0.682816
C204	C	1.103663	0.528657	1.182816
O205	O	0.631818	0.000490	0.709827
O206	O	1.131818	0.500490	1.209827
N207	N	0.570543	0.061761	0.708930
N208	N	1.070543	0.561761	1.208930
C209	C	0.537416	0.094867	0.682822
C210	C	1.037416	0.594867	1.182822
O211	O	0.509243	0.123020	0.709827
O212	O	1.009243	0.623020	1.209827
C213	C	0.537403	0.094872	0.473945
C214	C	1.037403	0.594872	0.973945
C215	C	0.570528	0.061769	0.447834
C216	C	1.070528	0.561769	0.947834
C217	C	0.636773	-0.004436	0.447826
C218	C	1.136773	0.495564	0.947826
C219	C	0.636771	-0.004432	0.395610
C220	C	1.136771	0.495568	0.895610
C221	C	0.603648	0.028672	0.369506
C222	C	1.103648	0.528672	0.869506
C223	C	0.570526	0.061773	0.395617
C224	C	1.070526	0.561773	0.895617
C225	C	0.504274	0.127975	0.447838
C226	C	1.004274	0.627975	0.947838
C227	C	0.504273	0.127972	0.395616
C228	C	1.004273	0.627972	0.895616
C229	C	0.537398	0.094870	0.369504
C230	C	1.037398	0.594870	0.869504
C231	C	0.537401	0.094881	0.317297
C232	C	1.037401	0.594881	0.817297
N233	N	0.570521	0.061777	0.291182
N234	N	1.070521	0.561777	0.791182
C235	C	0.603644	0.028673	0.317287
C236	C	1.103644	0.528673	0.817287
C237	C	0.537426	0.094863	0.792485
C238	C	1.037426	0.594863	1.292485
C239	C	0.537430	0.094862	0.844704
C240	C	1.037430	0.594862	1.344704
C241	C	0.603676	0.028652	0.844694
C242	C	1.103676	0.528652	1.344694
C243	C	0.603674	0.028655	0.792475
C244	C	1.103674	0.528655	1.292475
C245	C	0.570546	0.061759	0.766371
C246	C	1.070546	0.561759	1.266371
C247	C	0.603639	0.028684	0.207629
C248	C	1.103639	0.528684	0.707629
C249	C	0.603636	0.028692	0.155408
C250	C	1.103636	0.528692	0.655408
C251	C	0.537388	0.094901	0.155422
C252	C	1.037388	0.594901	0.655422
C253	C	0.537393	0.094895	0.207639
C254	C	1.037393	0.594895	0.707639
C255	C	0.570520	0.061782	0.233740
C256	C	1.070520	0.561782	0.733740
O257	O	0.509257	0.123030	0.290253
O258	O	1.009257	0.623030	0.790253
O259	O	0.631806	0.000517	0.290273
O260	O	1.131806	0.500517	0.790273
C261	C	0.603652	0.028661	0.526154
C262	C	1.103652	0.528661	1.026154
C263	C	0.570531	0.061761	0.552266
C264	C	1.070531	0.561761	1.052266
C265	C	0.537407	0.094865	0.526162
C266	C	1.037407	0.594865	1.026162
C267	C	0.570534	0.061761	0.604485
C268	C	1.070534	0.561761	1.104485
C269	C	0.603658	0.028656	0.630590
C270	C	1.103658	0.528656	1.130590
C271	C	0.636777	-0.004448	0.604475
C272	C	1.136777	0.495552	1.104475
C273	C	0.636776	-0.004444	0.552259
C274	C	1.136776	0.495556	1.052259
C275	C	0.504288	0.127969	0.552276
C276	C	1.004288	0.627969	1.052276
C277	C	0.504292	0.127963	0.604493
C278	C	1.004292	0.627963	1.104493
C279	C	0.537416	0.094859	0.630597
C280	C	1.037416	0.594859	1.130597
H281	H	0.191874	0.063033	0.127324
H282	H	0.691874	0.563033	0.627324
H283	H	0.663749	-0.031401	0.625738
H284	H	1.163749	0.468599	1.125738
N285	N	0.571774	-0.311633	0.136692
N286	N	1.071774	0.188367	0.636692
N287	N	0.537973	-0.278781	0.146777
N288	N	1.037973	0.221219	0.646777
H289	H	0.538148	-0.260593	0.179401
H290	H	1.038148	0.239407	0.679401
N291	N	0.503561	0.128713	0.128744
N292	N	1.003561	0.628713	0.628744
N293	N	0.503567	0.128706	0.082120
N294	N	1.003567	0.628706	0.582120
H295	H	0.479674	0.152585	0.063277
H296	H	0.979674	0.652585	0.563277
H297	H	0.630647	0.001700	0.771217
H298	H	1.130647	0.501700	1.271217
H299	H	0.477319	0.154923	0.625749
H300	H	0.977319	0.654923	1.125749
N301	N	0.637511	-0.005167	0.871362
N302	N	1.137511	0.494833	1.371362
N303	N	0.682187	-0.004832	0.865535
N304	N	1.182187	0.495168	1.365535
H305	H	0.706079	-0.028717	0.884372
H306	H	1.206079	0.471283	1.384372
H307	H	0.510448	0.121821	0.771235
H308	H	1.010448	0.621821	1.271235
N309	N	-0.287952	0.058108	0.091487
N310	N	0.212048	0.558108	0.591487
N311	N	-0.277608	0.024077	0.121767
N312	N	0.222392	0.524077	0.621767
H313	H	-0.295798	0.023882	0.154389
H314	H	0.204202	0.523882	0.654389
N315	N	-0.056041	0.060500	0.136700
N316	N	0.443959	0.560500	0.636700
N317	N	-0.088894	0.094301	0.146782
N318	N	0.411106	0.594301	0.646782
H319	H	-0.107085	0.094126	0.179405
H320	H	0.392915	0.594126	0.679405
H321	H	0.570238	-0.468100	-0.127223
H322	H	1.070238	0.031900	0.372777
H323	H	-0.282717	0.058157	-0.081979
H324	H	0.217283	0.558157	0.418021
N325	N	0.637466	-0.005125	0.128728
N326	N	1.137466	0.494875	0.628728
N327	N	0.637462	-0.005121	0.082105
N328	N	1.137462	0.494879	0.582105
H329	H	0.661352	-0.029004	0.063263
H330	H	1.161352	0.470996	0.563263
H331	H	0.510462	0.121822	0.865961
H332	H	1.010462	0.621822	1.365961
H333	H	0.569300	-0.559561	-0.127222
H334	H	1.069300	-0.059561	0.372778
N335	N	-0.056019	0.060454	-0.136579
N336	N	0.443981	0.560454	0.363421
N337	N	-0.033500	0.060678	-0.176951
N338	N	0.466500	0.560678	0.323049
H339	H	-0.051673	0.060486	-0.209581
H340	H	0.448327	0.560486	0.290419
H341	H	0.574164	-0.084966	-0.081977
H342	H	1.074164	0.415034	0.418023
N343	N	0.095203	0.062059	0.136699
N344	N	0.595203	0.562059	0.636699
N345	N	0.062358	0.095867	0.146786
N346	N	0.562358	0.595867	0.646786
H347	H	0.044179	0.095702	0.179417
H348	H	0.544179	0.595702	0.679417
N349	N	0.327090	0.064396	-0.091370
N350	N	0.827090	0.564396	0.408630
N351	N	0.294235	0.098190	-0.101467
N352	N	0.794235	0.598190	0.398533
H353	H	0.276048	0.098000	-0.134090
H354	H	0.776048	0.598000	0.365910
H355	H	0.423779	0.065411	0.082090
H356	H	0.923779	0.565411	0.582090
H357	H	0.570191	-0.468116	0.127315
H358	H	1.070191	0.031884	0.627315
H359	H	0.567834	-0.700025	0.082089
H360	H	1.067834	-0.200025	0.582089
H361	H	0.510424	0.121854	0.228899
H362	H	1.010424	0.621854	0.728899
N363	N	0.470433	0.161797	0.368960
N364	N	0.970433	0.661797	0.868960
N365	N	0.470750	0.206473	0.374798
N366	N	0.970750	0.706473	0.874798
H367	H	0.446852	0.230363	0.355974
H368	H	0.946852	0.730363	0.855974
H369	H	0.570795	-0.408319	0.127326
H370	H	1.070795	0.091681	0.627326
N371	N	0.197123	0.063022	-0.136587
N372	N	0.697123	0.563022	0.363413
N373	N	0.196213	0.028869	-0.166857
N374	N	0.696213	0.528869	0.333143
H375	H	0.214397	0.029041	-0.199484
H376	H	0.714397	0.529041	0.300516
N377	N	0.566888	-0.796696	-0.091387
N378	N	1.066888	-0.296696	0.408613
N379	N	0.600692	-0.829545	-0.101473
N380	N	1.100692	-0.329545	0.398527
H381	H	0.600518	-0.847732	-0.134097
H382	H	1.100518	-0.347732	0.365903
N383	N	0.429021	0.065431	-0.091371
N384	N	0.929021	0.565431	0.408629
N385	N	0.461876	0.031629	-0.101447
N386	N	0.961876	0.531629	0.398553
H387	H	0.480074	0.031805	-0.134066
H388	H	0.980074	0.531805	0.365934
H389	H	0.630614	0.001720	0.228875
H390	H	1.130614	0.501720	0.728875
H391	H	0.477314	0.154926	0.531026
H392	H	0.977314	0.654926	1.031026
N393	N	0.470437	0.161796	0.474494
N394	N	0.970437	0.661796	0.974494
N395	N	0.440867	0.191347	0.451170
N396	N	0.940867	0.691347	0.951170
H397	H	0.416968	0.215236	0.469995
H398	H	0.916968	0.715236	0.969995
N399	N	0.569200	-0.564797	0.136676
N400	N	1.069200	-0.064797	0.636676
N401	N	0.602993	-0.597652	0.146776
N402	N	1.102993	-0.097652	0.646776
H403	H	0.602799	-0.615841	0.179399
H404	H	1.102799	-0.115841	0.679399
N405	N	0.045867	0.061523	0.136700
N406	N	0.545867	0.561523	0.636700
N407	N	0.078715	0.027723	0.146799
N408	N	0.578715	0.527723	0.646799
H409	H	0.096893	0.027904	0.179428
H410	H	0.596893	0.527904	0.679428
N411	N	0.670616	-0.038261	0.525598
N412	N	1.170616	0.461739	1.025598
N413	N	0.700185	-0.067814	0.548921
N414	N	1.200185	0.432186	1.048921
H415	H	0.724086	-0.091700	0.530095
H416	H	1.224086	0.408300	1.030095
H417	H	0.332330	0.064469	0.082098
H418	H	0.832330	0.564469	0.582098
N419	N	0.573164	-0.181631	-0.091361
N420	N	1.073164	0.318369	0.408639
N421	N	0.573403	-0.159110	-0.131729
N422	N	1.073403	0.340890	0.368271
H423	H	0.573221	-0.177281	-0.164362
H424	H	1.073221	0.322719	0.335638
N425	N	-0.186050	0.059174	0.091491
N426	N	0.313950	0.559174	0.591491
N427	N	-0.208569	0.058956	0.131862
N428	N	0.291431	0.558956	0.631862
H429	H	-0.190397	0.059155	0.164493
H430	H	0.309603	0.559155	0.664493
N431	N	0.566854	-0.796694	0.091456
N432	N	1.066854	-0.296694	0.591456
N433	N	0.567077	-0.774179	0.131827
N434	N	1.067077	-0.274179	0.631827
H435	H	0.566889	-0.792356	0.164458
H436	H	1.066889	-0.292356	0.664458
N437	N	-0.186048	0.059132	-0.091359
N438	N	0.313952	0.559132	0.408641
N439	N	-0.208566	0.058898	-0.131728
N440	N	0.291434	0.558898	0.368272
H441	H	-0.190392	0.059077	-0.164361
H442	H	0.309608	0.559077	0.335639
N443	N	0.670646	-0.038215	0.368949
N444	N	1.170646	0.461785	0.868949
N445	N	0.700238	-0.067745	0.392272
N446	N	1.200238	0.432255	0.892272
H447	H	0.724176	-0.091593	0.373446
H448	H	1.224176	0.408407	0.873446
H449	H	0.571790	-0.316867	-0.127215
H450	H	1.071790	0.183133	0.372785
N451	N	0.095227	0.061995	-0.136592
N452	N	0.595227	0.561995	0.363408
N453	N	0.117749	0.062217	-0.176961
N454	N	0.617749	0.562217	0.323039
H455	H	0.099579	0.062027	-0.209594
H456	H	0.599579	0.562027	0.290406
H457	H	0.573196	-0.176435	0.082116
H458	H	1.073196	0.323565	0.582116
N459	N	0.045864	0.061492	-0.136582
N460	N	0.545864	0.561492	0.363418
N461	N	0.023347	0.061257	-0.176951
N462	N	0.523347	0.561257	0.323049
H463	H	0.041521	0.061438	-0.209584
H464	H	0.541521	0.561438	0.290416
H465	H	0.567867	-0.700012	-0.082013
H466	H	1.067867	-0.200012	0.417987
N467	N	0.570797	-0.413529	-0.136594
N468	N	1.070797	0.086471	0.363406
N469	N	0.571034	-0.391007	-0.176961
N470	N	1.071034	0.108993	0.323039
H471	H	0.570855	-0.409177	-0.209595
H472	H	1.070855	0.090823	0.290405
H473	H	0.574133	-0.084969	0.082117
H474	H	1.074133	0.415031	0.582117
N475	N	0.670612	-0.038260	0.474478
N476	N	1.170612	0.461740	0.974478
N477	N	0.700178	-0.067809	0.451148
N478	N	1.200178	0.432191	0.951148
H479	H	0.724081	-0.091698	0.469967
H480	H	1.224081	0.408302	0.969967
