data_functionalizedCrystal
_audit_creation_method	'MofGen! by Chris Wilmer'
_symmetry_space_group_name_H-M	'P1'
_symmetry_Int_Tables_number	1
_symmetry_cell_setting	triclinic
loop_
_symmetry_equiv_pos_as_xyz
  x,y,z
_cell_length_a	29.839134
_cell_length_b	18.101395
_cell_length_c	18.101389
_cell_angle_alpha	89.983159
_cell_angle_beta	90.028730
_cell_angle_gamma	89.974035
loop_
_atom_site_label
_atom_site_type_symbol
_atom_site_fract_x
_atom_site_fract_y
_atom_site_fract_z
Zn1	Zn	0.686782	0.295009	0.418934
Zn2	Zn	0.686719	0.418834	0.295096
Zn3	Zn	0.611656	0.295000	0.295085
Zn4	Zn	0.611626	0.418802	0.418875
O5	O	0.649195	0.356911	0.356997
O6	O	0.749640	0.311452	0.402535
O7	O	0.676747	0.402418	0.191461
O8	O	0.621660	0.191368	0.311535
O9	O	0.749594	0.402426	0.311552
O10	O	0.676855	0.191375	0.402526
O11	O	0.621599	0.311437	0.191454
O12	O	0.548785	0.311406	0.311477
O13	O	0.621609	0.402370	0.522516
O14	O	0.548763	0.402362	0.402425
O15	O	0.676826	0.311420	0.522559
O16	O	0.676718	0.522463	0.311495
O17	O	0.621548	0.522439	0.402435
C18	C	0.649135	0.549322	0.356976
C19	C	0.649151	0.631636	0.356991
C20	C	0.532473	0.356880	0.356944
C21	C	0.482538	0.356884	0.356939
C22	C	0.649221	0.356893	0.550159
C23	C	0.649232	0.356885	0.632474
C24	C	0.172893	0.404342	0.404296
C25	C	-0.014780	0.404363	0.404329
O26	O	-0.039046	0.444679	0.444562
N27	N	-0.038247	0.356938	0.357053
C28	C	-0.014792	0.309502	0.309770
O29	O	-0.039058	0.269159	0.269565
C30	C	0.172880	0.309478	0.309741
C31	C	0.196344	0.356911	0.357014
C32	C	0.196357	0.451771	0.451566
C33	C	0.243273	0.451768	0.451554
C34	C	0.266724	0.404337	0.404273
C35	C	0.243260	0.356908	0.357003
C36	C	0.196334	0.262038	0.262462
C37	C	0.243255	0.262034	0.262460
C38	C	0.266719	0.309468	0.309733
C39	C	0.313626	0.309473	0.309709
N40	N	0.337093	0.356898	0.356985
C41	C	0.313642	0.404330	0.404267
C42	C	-0.113323	0.309519	0.309787
C43	C	-0.160241	0.309525	0.309793
C44	C	-0.160225	0.404386	0.404353
C45	C	-0.113306	0.404383	0.404343
C46	C	-0.089856	0.356943	0.357062
C47	C	0.412168	0.404321	0.404238
C48	C	0.459087	0.404316	0.404220
C49	C	0.459068	0.309453	0.309663
C50	C	0.412152	0.309460	0.309678
C51	C	0.388703	0.356896	0.356971
O52	O	0.337922	0.269173	0.269503
O53	O	0.337916	0.444655	0.444477
C54	C	0.125978	0.404345	0.404307
C55	C	0.102513	0.356917	0.357037
C56	C	0.125965	0.309485	0.309756
C57	C	0.055596	0.356923	0.357043
C58	C	0.032144	0.404355	0.404325
C59	C	0.055611	0.451780	0.451600
C60	C	0.102527	0.451777	0.451589
C61	C	0.102498	0.262060	0.262480
C62	C	0.055582	0.262067	0.262495
C63	C	0.032131	0.309499	0.309777
C64	C	0.766374	0.356943	0.357052
C65	C	0.816308	0.356957	0.357075
C66	C	0.649268	0.163749	0.357036
C67	C	0.649299	0.081435	0.357052
C68	C	0.649249	0.930727	0.357031
C69	C	0.614618	0.899418	0.414390
C70	C	0.614454	0.813800	0.414211
C71	C	0.649200	0.782344	0.357012
C72	C	0.636383	0.813480	0.278959
C73	C	0.636160	0.899125	0.279302
C74	C	0.696774	0.899081	0.377038
C75	C	0.696495	0.813430	0.378750
C76	C	0.649174	0.698485	0.356996
C77	C	0.649275	1.014586	0.357041
C78	C	0.649195	0.356877	0.164587
C79	C	0.649271	0.356676	0.082273
C80	C	0.649259	0.356746	0.931565
C81	C	0.614398	0.413787	0.900212
C82	C	0.614492	0.414052	0.814594
C83	C	0.649245	0.356815	0.783182
C84	C	0.696578	0.378006	0.814294
C85	C	0.696384	0.378380	0.899939
C86	C	0.637198	0.278386	0.899985
C87	C	0.636145	0.278839	0.814334
C88	C	0.649241	0.356852	0.699323
C89	C	0.649266	0.356710	1.015424
H90	H	0.393081	0.442946	0.442751
C91	C	0.625258	0.785353	0.492405
C92	C	0.634099	0.840566	0.555450
C93	C	0.644889	0.812124	0.633653
C94	C	0.646838	0.728468	0.648813
C95	C	0.637997	0.673250	0.585767
C96	C	0.627207	0.701692	0.507563
H97	H	0.632656	0.902498	0.544229
H98	H	0.651433	0.853001	0.680324
H99	H	0.654825	0.707414	0.706704
H100	H	0.639439	0.611318	0.596987
H101	H	0.620662	0.660815	0.460892
C102	C	0.732611	0.323648	0.786810
C103	C	0.772426	0.352086	0.740798
C104	C	0.808458	0.297726	0.713313
C105	C	0.804675	0.214928	0.731839
C106	C	0.764858	0.186485	0.777853
C107	C	0.728827	0.240845	0.805339
H108	H	0.775228	0.413382	0.727082
H109	H	0.837932	0.318781	0.679250
H110	H	0.831347	0.174687	0.711492
H111	H	0.762057	0.125189	0.791569
H112	H	0.699352	0.219790	0.839402
C113	C	-0.186026	0.456558	0.456369
C114	C	-0.179604	0.540740	0.450191
C115	C	-0.205407	0.592904	0.502208
C116	C	-0.237633	0.560887	0.560403
C117	C	-0.244057	0.476701	0.566583
C118	C	-0.218254	0.424537	0.514566
H119	H	-0.155747	0.564445	0.407110
H120	H	-0.200651	0.655224	0.497633
H121	H	-0.256734	0.599502	0.598910
H122	H	-0.267914	0.452997	0.609665
H123	H	-0.223010	0.362217	0.519141
H124	H	0.660813	0.793105	0.235056
H125	H	0.706608	0.435662	0.919926
C126	C	0.589946	0.784590	0.255653
C127	C	0.584954	0.738278	0.184779
C128	C	0.538516	0.709390	0.161478
C129	C	0.497070	0.726814	0.209052
C130	C	0.502061	0.773128	0.279931
C131	C	0.548499	0.802016	0.303231
H132	H	0.615636	0.725378	0.149558
H133	H	0.534822	0.675106	0.109009
H134	H	0.462694	0.705429	0.191803
H135	H	0.471379	0.786028	0.315151
H136	H	0.552193	0.836301	0.355701
H137	H	0.660289	0.919838	0.235107
H138	H	0.662589	0.235888	0.920263
H139	H	0.706160	0.793079	0.436193
C140	C	-0.186048	0.257354	0.257786
C141	C	-0.237656	0.257351	0.257783
C142	C	-0.263462	0.205174	0.205777
C143	C	-0.237659	0.153000	0.153774
C144	C	-0.186049	0.153001	0.153775
C145	C	-0.160243	0.205178	0.205781
H146	H	-0.256759	0.295975	0.296280
H147	H	-0.301667	0.205174	0.205777
H148	H	-0.256762	0.114375	0.115277
H149	H	-0.166946	0.114377	0.115278
H150	H	-0.122037	0.205178	0.205781
C151	C	0.170567	0.503956	0.503578
C152	C	0.138292	0.562062	0.471391
C153	C	0.112506	0.614256	0.523401
C154	C	0.118994	0.608344	0.607599
C155	C	0.151270	0.550235	0.639790
C156	C	0.177057	0.498041	0.587780
H157	H	0.133488	0.566442	0.409059
H158	H	0.088613	0.657273	0.499571
H159	H	0.099906	0.646981	0.646100
H160	H	0.156075	0.545856	0.702122
H161	H	0.200950	0.455024	0.611610
H162	H	0.723661	0.792015	0.340018
H163	H	0.121627	0.490402	0.490084
H164	H	0.723238	0.338638	0.920682
C165	C	0.269078	0.503939	0.503565
C166	C	0.262599	0.588119	0.497385
C167	C	0.288400	0.640290	0.549403
C168	C	0.320680	0.608281	0.607601
C169	C	0.327160	0.524097	0.613784
C170	C	0.301359	0.471926	0.561766
H171	H	0.238703	0.611818	0.454301
H172	H	0.283603	0.702609	0.544826
H173	H	0.339780	0.646901	0.646108
H174	H	0.351057	0.500398	0.656868
H175	H	0.306157	0.409607	0.566343
H176	H	0.601419	0.919160	0.262356
H177	H	0.262346	0.223398	0.223962
H178	H	-0.094234	0.270887	0.271282
C179	C	0.484897	0.456493	0.456227
C180	C	0.478419	0.540673	0.450040
C181	C	0.504227	0.592847	0.502046
C182	C	0.536512	0.560842	0.560238
C183	C	0.542992	0.476658	0.566426
C184	C	0.517184	0.424483	0.514421
H185	H	0.454518	0.564369	0.406961
H186	H	0.499430	0.655166	0.497465
H187	H	0.555617	0.599464	0.598736
H188	H	0.566893	0.452961	0.609506
H189	H	0.521981	0.362165	0.519002
H190	H	0.121587	0.223435	0.223977
C191	C	0.731633	0.926434	0.320608
C192	C	0.781044	0.902998	0.328097
C193	C	0.815899	0.930356	0.271664
C194	C	0.801342	0.981151	0.207743
C195	C	0.751928	1.004591	0.200252
C196	C	0.717074	0.977232	0.256684
H197	H	0.791822	0.865393	0.375417
H198	H	0.852478	0.913004	0.277210
H199	H	0.827143	1.001403	0.165969
H200	H	0.741150	1.042195	0.152931
H201	H	0.680494	0.994584	0.251138
H202	H	0.622455	0.472134	0.794114
C203	C	0.625049	0.491776	0.929288
C204	C	0.635827	0.554534	0.874670
C205	C	0.646480	0.632522	0.903746
C206	C	0.646356	0.647752	0.987439
C207	C	0.635578	0.584992	1.042062
C208	C	0.624924	0.507004	1.012987
H209	H	0.635919	0.543262	0.812711
H210	H	0.654459	0.678981	0.863310
H211	H	0.654243	0.705483	1.008963
H212	H	0.635485	0.596264	1.104022
H213	H	0.616945	0.460545	1.053423
C214	C	0.386335	0.257283	0.257684
C215	C	0.392813	0.173105	0.263888
C216	C	0.366998	0.120918	0.211905
C217	C	0.334705	0.152911	0.153717
C218	C	0.328225	0.237093	0.147511
C219	C	0.354040	0.289279	0.199495
H220	H	0.416720	0.149418	0.306964
H221	H	0.371795	0.058601	0.216499
H222	H	0.315595	0.114279	0.115236
H223	H	0.304318	0.260780	0.104436
H224	H	0.349243	0.351597	0.194900
C225	C	0.591379	0.252304	0.929130
C226	C	0.548951	0.297989	0.912907
C227	C	0.503131	0.271916	0.942051
C228	C	0.499737	0.200159	0.987418
C229	C	0.542166	0.154469	1.003644
C230	C	0.587987	0.180542	0.974499
H231	H	0.551462	0.351112	0.879321
H232	H	0.471722	0.305739	0.930039
H233	H	0.465818	0.180858	1.008992
H234	H	0.539655	0.101346	1.037229
H235	H	0.619396	0.146720	0.986511
H236	H	0.579193	0.400661	0.920793
H237	H	0.622558	0.919977	0.472453
C238	C	0.710631	0.454570	0.785340
C239	C	0.679245	0.497927	0.733508
C240	C	0.693295	0.574493	0.704556
C241	C	0.738732	0.607702	0.727437
C242	C	0.770121	0.564344	0.779272
C243	C	0.756071	0.487778	0.808224
H244	H	0.645607	0.473344	0.716568
H245	H	0.670059	0.606589	0.666184
H246	H	0.749133	0.664380	0.706005
H247	H	0.803759	0.588927	0.796212
H248	H	0.779308	0.455682	0.846596
C249	C	0.667942	0.218372	0.785452
C250	C	0.661151	0.137445	0.809179
C251	C	0.692951	0.076980	0.780296
C252	C	0.731542	0.097441	0.727685
C253	C	0.738335	0.178371	0.703955
C254	C	0.706534	0.238836	0.732838
H255	H	0.632582	0.122296	0.848128
H256	H	0.687923	0.017070	0.797863
H257	H	0.755083	0.052680	0.706304
H258	H	0.766904	0.193520	0.665006
H259	H	0.711563	0.298746	0.715271
H260	H	0.601312	0.262859	0.793997
C261	C	-0.087498	0.456555	0.456348
C262	C	-0.093972	0.540735	0.450159
C263	C	-0.068167	0.592908	0.502169
C264	C	-0.035886	0.560900	0.560367
C265	C	-0.029410	0.476716	0.566559
C266	C	-0.055216	0.424543	0.514549
H267	H	-0.117869	0.564432	0.407075
H268	H	-0.072961	0.655227	0.497585
H269	H	-0.016783	0.599522	0.598868
H270	H	-0.005513	0.453018	0.609643
H271	H	-0.050422	0.362224	0.519133
H272	H	0.177237	0.223414	0.223965
C273	C	0.484872	0.257277	0.257661
C274	C	0.517153	0.199189	0.289865
C275	C	0.542960	0.147008	0.237869
C276	C	0.536486	0.152916	0.153668
C277	C	0.504204	0.211007	0.121459
C278	C	0.478397	0.263187	0.173455
H279	H	0.521946	0.194813	0.352200
H280	H	0.566857	0.104006	0.261713
H281	H	0.555590	0.114289	0.115177
H282	H	0.499411	0.215382	0.059124
H283	H	0.454500	0.306190	0.149612
C284	C	0.712563	0.928202	0.452620
C285	C	0.682500	0.981099	0.497141
C286	C	0.698283	1.010220	0.572725
C287	C	0.744129	0.986445	0.603789
C288	C	0.774195	0.933544	0.559267
C289	C	0.758412	0.904423	0.483683
H290	H	0.648559	0.998701	0.474146
H291	H	0.676026	1.049380	0.605683
H292	H	0.755813	1.008002	0.659741
H293	H	0.808135	0.915942	0.582262
H294	H	0.780669	0.865263	0.450726
H295	H	0.036509	0.490402	0.490097
H296	H	0.579393	0.400790	0.793556
C297	C	0.029776	0.209886	0.210488
C298	C	-0.002448	0.151788	0.242689
C299	C	-0.028252	0.099603	0.190689
C300	C	-0.021831	0.105516	0.106488
C301	C	0.010394	0.163616	0.074284
C302	C	0.036198	0.215801	0.126284
H303	H	-0.007202	0.147409	0.305023
H304	H	-0.052107	0.056594	0.214529
H305	H	-0.040933	0.066885	0.067995
H306	H	0.015149	0.167995	0.011950
H307	H	0.060054	0.258810	0.102443
C308	C	0.567318	0.928567	0.396713
C309	C	0.545614	0.911493	0.321433
C310	C	0.498316	0.940646	0.303753
C311	C	0.472720	0.986874	0.361354
C312	C	0.494424	1.003951	0.436640
C313	C	0.541723	0.974798	0.454319
H314	H	0.564562	0.877270	0.278788
H315	H	0.482249	0.928004	0.248021
H316	H	0.437707	1.008456	0.348267
H317	H	0.475477	1.038174	0.479284
H318	H	0.557789	0.987440	0.510051
C319	C	0.566866	0.786194	0.396297
C320	C	0.558742	0.737644	0.327746
C321	C	0.511153	0.710040	0.309828
C322	C	0.471688	0.730986	0.360462
C323	C	0.479811	0.779538	0.429017
C324	C	0.527401	0.807142	0.446935
H325	H	0.587957	0.722136	0.290260
H326	H	0.505139	0.674098	0.259078
H327	H	0.436460	0.710552	0.347198
H328	H	0.450596	0.795046	0.466503
H329	H	0.533414	0.843084	0.497685
