data_functionalizedCrystal
_audit_creation_method	'MofGen! by Chris Wilmer'
_symmetry_space_group_name_H-M	'P1'
_symmetry_Int_Tables_number	1
_symmetry_cell_setting	triclinic
loop_
_symmetry_equiv_pos_as_xyz
  x,y,z
_cell_length_a	10.967819
_cell_length_b	11.026607
_cell_length_c	15.186229
_cell_angle_alpha	89.998222
_cell_angle_beta	77.867327
_cell_angle_gamma	96.381100
loop_
_atom_site_label
_atom_site_type_symbol
_atom_site_fract_x
_atom_site_fract_y
_atom_site_fract_z
O1	O	1.694024	0.170547	-0.330298
O2	O	2.194024	0.670547	0.169702
O3	O	1.334388	0.186863	-0.275724
O4	O	1.834388	0.686863	0.224276
O5	O	1.484400	0.001803	-0.298485
O6	O	1.984400	0.501803	0.201515
O7	O	1.544012	0.355607	-0.307538
O8	O	2.044012	0.855607	0.192462
O9	O	1.484386	0.001801	-0.152026
O10	O	1.984386	0.501801	0.347974
O11	O	1.334375	0.186860	-0.129265
O12	O	1.834375	0.686860	0.370735
O13	O	1.694011	0.170544	-0.183839
O14	O	2.194011	0.670544	0.316161
Zn15	Zn	1.514191	0.178702	-0.133299
Zn16	Zn	2.014191	0.678702	0.366701
Zn17	Zn	1.514208	0.178705	-0.326265
Zn18	Zn	2.014208	0.678705	0.173735
O19	O	1.543999	0.355604	-0.161078
O20	O	2.043999	0.855604	0.338922
C21	C	1.287624	0.185673	-0.195399
C22	C	1.787624	0.685673	0.304601
C23	C	1.148300	0.182117	-0.174257
C24	C	1.648300	0.682117	0.325743
C25	C	0.942202	0.176870	-0.218867
C26	C	1.442202	0.676870	0.281133
C27	C	1.086200	0.180537	-0.240713
C28	C	1.586200	0.680537	0.259287
C29	C	1.473396	-0.043501	-0.223588
C30	C	1.973396	0.456499	0.276412
C31	C	1.440612	-0.178488	-0.218616
C32	C	1.940612	0.321512	0.281384
C33	C	1.531134	-0.251539	-0.232354
C34	C	2.031134	0.248461	0.267646
C35	C	1.497252	-0.391056	-0.227215
C36	C	1.997252	0.108944	0.272785
C37	C	1.740775	0.171734	-0.264166
C38	C	2.240775	0.671734	0.235834
C39	C	1.880099	0.175290	-0.285314
C40	C	2.380099	0.675290	0.214686
C41	C	1.555003	0.400908	-0.235978
C42	C	2.055003	0.900908	0.264022
C43	C	1.587787	0.535895	-0.240955
C44	C	2.087787	1.035895	0.259045
N45	N	1.514188	0.178699	-0.001605
N46	N	2.014188	0.678699	0.498395
N47	N	1.514219	0.178699	-0.457959
N48	N	2.014219	0.678699	0.042041
C49	C	1.580648	0.096782	0.214034
C50	C	2.080648	0.596782	0.714034
C51	C	1.580651	0.096779	0.306223
C52	C	2.080651	0.596779	0.806223
C53	C	1.447750	0.260619	0.326397
C54	C	1.947750	0.760619	0.826397
C55	C	1.447741	0.260615	0.234210
C56	C	1.947741	0.760615	0.734210
C57	C	1.514197	0.178698	0.178030
C58	C	2.014197	0.678698	0.678030
C59	C	1.514210	0.178699	0.362406
C60	C	2.014210	0.678699	0.862406
C61	C	1.514213	0.178697	0.462361
C62	C	2.014213	0.678697	0.962361
C63	C	1.514192	0.178699	0.078068
C64	C	2.014192	0.678699	0.578068
H65	H	0.933536	0.176659	-0.358375
H66	H	1.433536	0.676659	0.141625
H67	H	0.888766	0.175515	-0.145807
H68	H	1.388766	0.675515	0.354193
H69	H	1.634758	0.030079	0.168294
H70	H	2.134758	0.530079	0.668294
H71	H	1.139632	0.181906	-0.313779
H72	H	1.639632	0.681906	0.186221
H73	H	1.634760	0.030075	0.335534
H74	H	2.134760	0.530075	0.835534
H75	H	1.394663	-0.431797	-0.211654
H76	H	1.894663	0.068203	0.288346
H77	H	1.633716	-0.210792	-0.247915
H78	H	2.133716	0.289208	0.252085
H79	H	1.393645	0.327316	0.372147
H80	H	1.893645	0.827316	0.872147
H81	H	1.094871	0.180763	-0.101191
H82	H	1.594871	0.680763	0.398809
H83	H	1.393622	0.327322	0.204895
H84	H	1.893622	0.827322	0.704895
H85	H	1.690377	-0.423365	-0.256589
H86	H	2.190377	0.076635	0.243411
H87	H	1.338029	-0.219235	-0.203055
H88	H	1.838029	0.280765	0.296945
