data_functionalizedCrystal
_audit_creation_method	'MofGen! by Chris Wilmer'
_symmetry_space_group_name_H-M	'P1'
_symmetry_Int_Tables_number	1
_symmetry_cell_setting	triclinic
loop_
_symmetry_equiv_pos_as_xyz
  x,y,z
_cell_length_a	13.262402
_cell_length_b	14.519709
_cell_length_c	11.804365
_cell_angle_alpha	101.851959
_cell_angle_beta	93.583660
_cell_angle_gamma	84.074946
loop_
_atom_site_label
_atom_site_type_symbol
_atom_site_fract_x
_atom_site_fract_y
_atom_site_fract_z
O1	O	1.322475	0.185900	0.329325
O2	O	1.036710	0.182072	0.236762
O3	O	1.187167	0.050228	0.285508
O4	O	1.172018	0.317743	0.280579
O5	O	1.147558	0.084900	0.470731
O6	O	0.997101	0.216743	0.421985
O7	O	1.282865	0.220572	0.514548
Cu8	Cu	1.136366	0.221823	0.485179
Cu9	Cu	1.183209	0.180820	0.266131
O10	O	1.132409	0.352415	0.465803
C11	C	0.980333	0.196432	0.317528
C12	C	0.871360	0.187555	0.282230
C13	C	0.841755	0.164483	0.164679
C14	C	0.739367	0.156152	0.131516
C15	C	0.666575	0.170885	0.215902
C16	C	0.696180	0.193950	0.333456
C17	C	0.798577	0.202290	0.366621
C18	C	0.623397	0.208691	0.417845
C19	C	0.653003	0.231757	0.535398
C20	C	0.755390	0.240094	0.568558
C21	C	0.828182	0.225362	0.484173
C22	C	0.521001	0.200352	0.384679
C23	C	0.477823	0.238158	0.586622
C24	C	0.580211	0.246490	0.619784
C25	C	1.166656	0.033160	0.377891
C26	C	1.164540	-0.069355	0.377206
C27	C	1.156755	-0.444749	0.374653
C28	C	1.158917	-0.340303	0.375363
C29	C	1.160647	-0.257055	0.375931
C30	C	1.162810	-0.152603	0.376638
C31	C	1.339243	0.206211	0.433780
C32	C	1.448218	0.215086	0.469071
C33	C	1.152920	0.369483	0.373417
C34	C	1.155038	0.471997	0.374095
N35	N	1.103427	0.250663	0.639248
N36	N	1.216157	0.151974	0.112065
C37	C	1.295257	0.082702	1.075346
C38	C	1.320174	0.060881	0.958757
C39	C	1.265989	0.108324	0.878874
C40	C	1.186883	0.177593	0.915591
C41	C	1.161968	0.199421	1.032193
C42	C	1.132701	0.225044	0.835721
C43	C	1.053594	0.294312	0.872438
C44	C	1.028683	0.316137	0.989029
C45	C	1.082868	0.268693	1.068912
C46	C	1.157616	0.203215	0.719120
C47	C	1.024327	0.319935	0.675967
C48	C	0.999409	0.341756	0.792555
H49	H	0.911558	0.232137	0.511168
C50	C	0.912391	0.417949	0.832960
N51	N	0.846848	0.475336	0.863393
H52	H	1.222024	0.146817	0.689236
H53	H	1.339372	0.044084	1.140394
H54	H	1.286281	0.090554	0.783943
H55	H	0.583207	0.164100	0.188894
H56	H	1.062578	0.286457	1.163848
C57	C	0.964717	0.372125	0.588099
N58	N	0.919824	0.411431	0.521910
C59	C	0.941668	0.392338	1.029415
N60	N	0.876126	0.449732	1.059831
H61	H	0.779489	0.258885	0.664278
C62	C	0.397756	0.254363	0.679453
N63	N	0.337443	0.266569	0.749367
H64	H	0.496907	0.181573	0.288966
H65	H	0.604331	0.265271	0.715498
C66	C	1.407183	-0.015317	0.918376
N67	N	1.472721	-0.072716	0.887960
H68	H	0.715270	0.137372	0.035804
H69	H	0.901028	0.152497	0.095985
