data_functionalizedCrystal
_audit_creation_method	'MofGen! by Chris Wilmer'
_symmetry_space_group_name_H-M	'P1'
_symmetry_Int_Tables_number	1
_symmetry_cell_setting	triclinic
loop_
_symmetry_equiv_pos_as_xyz
  x,y,z
_cell_length_a	17.038278
_cell_length_b	17.038272
_cell_length_c	12.996460
_cell_angle_alpha	89.993697
_cell_angle_beta	89.994454
_cell_angle_gamma	91.111028
loop_
_atom_site_label
_atom_site_type_symbol
_atom_site_fract_x
_atom_site_fract_y
_atom_site_fract_z
O1	O	1.048755	0.170529	-0.085577
O2	O	0.820944	0.167823	-0.085577
O3	O	0.933495	0.055270	-0.085569
O4	O	0.936203	0.283082	-0.085585
O5	O	0.933482	0.055262	0.085565
O6	O	0.820931	0.167815	0.085557
O7	O	1.048742	0.170521	0.085557
Cu8	Cu	0.934835	0.169168	0.101183
Cu9	Cu	0.934851	0.169176	-0.101203
O10	O	0.936190	0.283074	0.085549
C11	C	0.791645	0.165356	-0.000010
C12	C	0.704361	0.158009	-0.000010
C13	C	0.210935	0.112872	-0.000011
C14	C	0.292947	0.119781	-0.000005
C15	C	0.329347	0.194155	-0.000015
C16	C	0.283730	0.261623	-0.000020
C17	C	0.201720	0.254713	-0.000019
C18	C	0.576734	0.218567	-0.000014
C19	C	0.658751	0.225473	-0.000018
C20	C	0.667962	0.083630	-0.000001
C21	C	0.585949	0.076726	-0.000006
C22	C	0.540340	0.144194	-0.000006
C23	C	0.413176	0.201219	-0.000012
C24	C	0.456513	0.137129	-0.000001
C25	C	0.931026	0.025974	-0.000002
C26	C	0.923678	-0.061310	-0.000002
C27	C	0.991142	-0.106920	-0.000001
C28	C	0.984233	-0.188932	-0.000011
C29	C	0.909859	-0.225332	-0.000015
C30	C	0.842391	-0.179716	-0.000019
C31	C	0.849300	-0.097706	-0.000016
C32	C	0.885449	-0.472720	-0.000029
C33	C	0.878544	-0.554736	-0.000028
C34	C	1.020387	-0.563946	-0.000022
C35	C	1.027290	-0.481934	-0.000014
C36	C	0.959821	-0.436325	-0.000023
C37	C	0.902796	-0.309161	-0.000021
C38	C	0.966886	-0.352497	-0.000024
C39	C	1.078041	0.172988	-0.000012
C40	C	1.165325	0.180335	-0.000019
C41	C	0.938660	0.312370	-0.000020
C42	C	0.946008	0.399654	-0.000027
N43	N	0.934830	0.169161	0.243530
N44	N	0.934862	0.169177	-0.243550
C45	C	0.934850	0.169177	0.663344
C46	C	0.934842	0.169175	0.546539
C47	C	0.934840	0.169170	0.453441
C48	C	0.934832	0.169167	0.336628
H49	H	0.688384	0.286039	-0.000012
H50	H	0.181305	0.052309	-0.000009
H51	H	0.330080	0.064845	0.000006
H52	H	0.830511	-0.435595	-0.000036
H53	H	0.313374	0.322180	-0.000022
Cl54	Cl	1.069049	-0.246267	-0.000006
H55	H	0.442822	0.261775	-0.000024
H56	H	0.539609	0.273505	-0.000019
H57	H	0.781834	-0.209360	-0.000028
H58	H	0.164585	0.309649	-0.000022
Cl59	Cl	0.809300	-0.354929	-0.000031
H60	H	0.794364	-0.060571	-0.000018
Cl61	Cl	0.410751	0.043634	0.000016
Cl62	Cl	1.105199	-0.621287	-0.000013
H63	H	1.051704	-0.077289	0.000008
H64	H	1.087852	-0.452303	-0.000010
H65	H	0.556319	0.016163	0.000002
Cl66	Cl	1.060380	-0.306735	-0.000025
H67	H	0.817978	-0.584370	-0.000014
H68	H	0.705105	0.028701	-0.000000
