data_functionalizedCrystal
_audit_creation_method	'MofGen! by Chris Wilmer'
_symmetry_space_group_name_H-M	'P1'
_symmetry_Int_Tables_number	1
_symmetry_cell_setting	triclinic
loop_
_symmetry_equiv_pos_as_xyz
  x,y,z
_cell_length_a	10.654550
_cell_length_b	8.559649
_cell_length_c	7.088929
_cell_angle_alpha	84.674985
_cell_angle_beta	83.717104
_cell_angle_gamma	102.868216
loop_
_atom_site_label
_atom_site_type_symbol
_atom_site_fract_x
_atom_site_fract_y
_atom_site_fract_z
O1	O	-0.028084	-2.103417	-0.158957
O2	O	0.036703	-1.638930	-0.158966
O3	O	-0.179534	-1.881854	-0.158954
O4	O	0.188152	-1.860494	-0.158969
O5	O	-0.208490	-1.914318	0.159022
O6	O	0.007747	-1.671394	0.159011
O7	O	-0.057041	-2.135881	0.159020
Cu8	Cu	-0.027291	-1.906602	0.188049
Cu9	Cu	0.006953	-1.868210	-0.187995
O10	O	0.159196	-1.892957	0.159008
C11	C	0.027135	-1.595687	0.000021
C12	C	0.041749	-1.418468	0.000018
C13	C	-0.240648	-1.896517	0.000032
C14	C	-0.379606	-1.891825	0.000025
N15	N	-0.051378	-1.933616	0.452538
C16	C	-0.473867	-2.034854	0.000033
C17	C	-0.604430	-2.030434	0.000020
C18	C	-0.546457	-1.739944	-0.000003
C19	C	-0.415896	-1.744364	-0.000003
C20	C	-0.437576	-2.182315	0.000061
C21	C	-0.531840	-2.325357	0.000072
C22	C	-0.662403	-2.320937	0.000058
C23	C	-0.698703	-2.173476	0.000034
C24	C	0.220310	-1.878293	0.000017
C25	C	0.359270	-1.882985	0.000012
C26	C	-0.047472	-2.179124	0.000028
C27	C	-0.062086	-2.356341	0.000019
N28	N	0.031029	-1.841208	-0.452485
H29	H	-0.331269	-2.185931	0.000078
H30	H	-0.162163	-1.438729	0.000013
O31	O	-0.153301	-2.048005	0.549647
C32	C	-0.226045	-2.129515	0.418574
H33	H	-0.161901	-2.117499	0.275833
H34	H	-0.312253	-2.074329	0.397368
C35	C	-0.354483	-2.324089	0.672180
C36	C	-0.275697	-2.309342	0.496868
H37	H	-0.385116	-2.435014	0.720477
H38	H	-0.305478	-2.269172	0.760489
H39	H	-0.426313	-2.278091	0.654485
H40	H	-0.203860	-2.355322	0.514570
H41	H	-0.324691	-2.364272	0.408564
H42	H	-0.805017	-2.169886	0.000003
H43	H	0.141835	-1.336070	0.000003
O44	O	0.133058	-1.727113	0.450206
C45	C	0.250275	-1.759575	0.499008
H46	H	0.233498	-1.892979	0.554135
H47	H	0.285210	-1.683340	0.615064
C48	C	0.374396	-1.553958	0.253365
C49	C	0.353792	-1.717811	0.321059
H50	H	0.438253	-1.528189	0.143602
H51	H	0.295425	-1.532082	0.220490
H52	H	0.403502	-1.490448	0.350095
H53	H	0.324671	-1.781316	0.224338
H54	H	0.432760	-1.739696	0.353914
H55	H	-0.502271	-2.445410	0.000044
H56	H	-0.739149	-2.437406	0.000047
H57	H	-0.576024	-1.619888	-0.000019
H58	H	-0.339145	-1.627896	-0.000007
