data_functionalizedCrystal
_audit_creation_method	'MofGen! by Chris Wilmer'
_symmetry_space_group_name_H-M	'P1'
_symmetry_Int_Tables_number	1
_symmetry_cell_setting	triclinic
loop_
_symmetry_equiv_pos_as_xyz
  x,y,z
_cell_length_a	10.654554
_cell_length_b	19.188924
_cell_length_c	9.130313
_cell_angle_alpha	89.996698
_cell_angle_beta	89.998999
_cell_angle_gamma	83.814403
loop_
_atom_site_label
_atom_site_type_symbol
_atom_site_fract_x
_atom_site_fract_y
_atom_site_fract_z
O1	O	1.665751	0.098075	-0.121833
O2	O	2.165751	0.598075	0.378167
O3	O	1.300075	0.107414	-0.121831
O4	O	1.800075	0.607414	0.378169
O5	O	1.493470	0.001158	-0.121815
O6	O	1.993470	0.501158	0.378185
O7	O	1.472356	0.204331	-0.121849
O8	O	1.972356	0.704331	0.378151
O9	O	1.493468	0.001160	0.121784
O10	O	1.993468	0.501160	0.621784
O11	O	1.300073	0.107417	0.121768
O12	O	1.800073	0.607417	0.621768
O13	O	1.665749	0.098078	0.121766
O14	O	2.165749	0.598078	0.621766
Cu15	Cu	1.482910	0.102748	0.144010
Cu16	Cu	1.982910	0.602748	0.644010
Cu17	Cu	1.482913	0.102744	-0.144074
Cu18	Cu	1.982913	0.602744	0.355926
O19	O	1.472354	0.204334	0.121750
O20	O	1.972354	0.704334	0.621750
C21	C	1.253291	0.106729	-0.000031
C22	C	1.753291	0.606729	0.499969
C23	C	1.113891	0.104675	-0.000029
C24	C	1.613891	0.604675	0.499971
C25	C	0.932738	0.038251	-0.000037
C26	C	1.432738	0.538251	0.499963
C27	C	1.063719	0.040181	-0.000023
C28	C	1.563719	0.540181	0.499977
C29	C	1.033075	0.167245	-0.000036
C30	C	1.533075	0.667245	0.499964
C31	C	0.902097	0.165315	-0.000040
C32	C	1.402097	0.665315	0.499960
C33	C	0.950431	-0.035108	-0.000036
C34	C	1.450431	0.464892	0.499964
C35	C	1.081411	-0.033179	-0.000021
C36	C	1.581411	0.466821	0.499979
C37	C	1.492787	-0.024857	-0.000014
C38	C	1.992787	0.475143	0.499986
C39	C	1.490738	-0.102375	-0.000010
C40	C	1.990738	0.397625	0.499990
C41	C	1.489784	-0.138781	-0.132796
C42	C	1.989784	0.361219	0.367204
C43	C	1.487842	-0.211617	-0.132807
C44	C	1.987842	0.288383	0.367193
C45	C	1.486879	-0.248045	-0.000025
C46	C	1.986879	0.251955	0.499975
C47	C	1.487827	-0.211629	0.132779
C48	C	1.987827	0.288371	0.632779
C49	C	1.489756	-0.138794	0.132786
C50	C	1.989756	0.361206	0.632786
N51	N	1.555311	-0.367258	0.098802
N52	N	2.055311	0.132742	0.598802
N53	N	1.553480	-0.436449	0.098786
N54	N	2.053480	0.063551	0.598786
C55	C	1.481062	-0.467492	-0.000039
C56	C	1.981062	0.032508	0.499961
N57	N	1.410560	-0.426732	-0.098869
N58	N	1.910560	0.073268	0.401131
N59	N	1.412396	-0.357536	-0.098857
N60	N	1.912396	0.142464	0.401143
C61	C	1.484786	-0.327022	-0.000018
C62	C	1.984786	0.172978	0.499982
C63	C	1.478000	-0.582875	-0.132846
C64	C	1.978000	-0.082875	0.367154
C65	C	1.476050	-0.655711	-0.132852
C66	C	1.976050	-0.155711	0.367148
C67	C	1.476048	-0.655722	0.132738
C68	C	1.976048	-0.155722	0.632738
C69	C	1.477985	-0.582887	0.132740
C70	C	1.977985	-0.082887	0.632740
C71	C	1.478967	-0.546468	-0.000056
C72	C	1.978967	-0.046468	0.499944
C73	C	1.712533	0.098763	-0.000037
C74	C	2.212533	0.598763	0.499963
C75	C	1.851932	0.100816	-0.000048
C76	C	2.351932	0.600816	0.499952
C77	C	1.473037	0.230348	-0.000054
C78	C	1.973037	0.730348	0.499946
C79	C	1.475085	0.307866	-0.000068
C80	C	1.975085	0.807866	0.499932
N81	N	1.482918	0.102749	0.346632
N82	N	1.982918	0.602749	0.846632
N83	N	1.482916	0.102737	-0.346697
N84	N	1.982916	0.602737	0.153303
C85	C	1.568574	0.055715	0.423291
C86	C	2.068574	0.555715	0.923291
C87	C	1.568571	0.055707	0.576628
C88	C	2.068571	0.555707	1.076628
C89	C	1.397250	0.149773	0.576633
C90	C	1.897250	0.649773	1.076633
C91	C	1.397248	0.149778	0.423299
C92	C	1.897248	0.649778	0.923299
C93	C	1.667489	0.001409	0.423290
C94	C	2.167489	0.501409	0.923290
C95	C	1.667486	0.001400	0.576626
C96	C	2.167486	0.501400	1.076626
H97	H	0.915299	-0.058469	-0.105214
H98	H	1.415299	0.441531	0.394786
H99	H	1.123756	-0.060818	-0.101964
H100	H	1.623756	0.439182	0.398036
H101	H	1.475266	-0.685352	-0.240986
H102	H	1.975266	-0.185352	0.259014
F103	F	1.475017	-0.694486	0.274057
F104	F	1.975017	-0.194486	0.774057
F105	F	1.141683	-0.062150	0.137465
F106	F	1.641683	0.437850	0.637465
F107	F	1.490823	-0.100026	-0.274130
F108	F	1.990823	0.399974	0.225870
H109	H	1.327500	0.188062	0.639072
H110	H	1.827500	0.688062	1.139072
H111	H	1.073936	0.219758	-0.000028
H112	H	1.573936	0.719758	0.499972
H113	H	1.487056	-0.241265	-0.240941
H114	H	1.987056	0.258735	0.259059
F115	F	1.786194	0.023643	0.361115
F116	F	2.286194	0.523643	0.861115
F117	F	1.486794	-0.250398	0.274095
F118	F	1.986794	0.249602	0.774095
H119	H	1.478773	-0.553245	0.240869
H120	H	1.978773	-0.053245	0.740869
H121	H	1.638048	-0.049312	0.624182
H122	H	2.138048	0.450688	1.124182
H123	H	1.490529	-0.109151	0.240920
H124	H	1.990529	0.390849	0.740920
H125	H	1.478792	-0.553221	-0.240977
H126	H	1.978792	-0.053221	0.259023
H127	H	1.327489	0.188070	0.360885
H128	H	1.827489	0.688070	0.860885
H129	H	1.647184	-0.052255	0.381679
H130	H	2.147184	0.447745	0.881679
F131	F	1.793301	0.017032	0.631026
F132	F	2.293301	0.517032	1.131026
H133	H	0.836309	0.216262	-0.000032
H134	H	1.336309	0.716262	0.499968
H135	H	0.921675	-0.063799	0.101908
H136	H	1.421675	0.436201	0.601908
