data_functionalizedCrystal
_audit_creation_method	'MofGen! by Chris Wilmer'
_symmetry_space_group_name_H-M	'P1'
_symmetry_Int_Tables_number	1
_symmetry_cell_setting	triclinic
loop_
_symmetry_equiv_pos_as_xyz
  x,y,z
_cell_length_a	23.196402
_cell_length_b	12.477989
_cell_length_c	23.196401
_cell_angle_alpha	90.013368
_cell_angle_beta	60.007332
_cell_angle_gamma	64.373720
loop_
_atom_site_label
_atom_site_type_symbol
_atom_site_fract_x
_atom_site_fract_y
_atom_site_fract_z
Zr1	Zr	0.699331	0.973120	-0.109806
O2	O	0.808264	0.811823	-0.196189
O3	O	0.582541	1.022551	-0.083328
O4	O	0.702802	1.022522	-0.203593
O5	O	0.688004	0.811892	0.018946
O6	O	0.714478	1.188742	-0.209431
O7	O	0.688003	0.811852	-0.075924
O8	O	0.499353	1.188794	0.005701
O9	O	0.903129	0.811839	-0.196186
O10	O	0.642202	1.167699	-0.076389
O11	O	0.633489	1.043680	-0.001232
O12	O	0.775081	1.043646	-0.142828
O13	O	0.766369	0.919628	-0.067671
Zr14	Zr	0.717954	1.238285	0.032190
Zr15	Zr	0.717952	1.238221	-0.119117
Zr16	Zr	0.699333	0.973183	0.041500
Zr17	Zr	0.850630	0.973146	-0.109802
Zr18	Zr	0.566655	1.238258	0.032185
O19	O	0.834744	1.188853	0.005712
O20	O	0.834741	1.188763	-0.209427
O21	O	0.808267	0.811913	0.018950
O22	O	0.609021	1.399581	0.118572
O23	O	0.609018	1.399491	-0.096566
O24	O	0.582544	1.022641	0.131810
O25	O	0.729281	1.399513	-0.096562
O26	O	0.714483	1.188882	0.125977
O27	O	0.702807	1.022662	0.131814
O28	O	0.729282	1.399552	-0.001692
O29	O	0.917930	1.022560	-0.203586
O30	O	0.499355	1.188844	0.125970
O31	O	0.514156	1.399565	0.118570
O32	O	0.514154	1.399514	-0.001699
O33	O	0.903131	0.811890	-0.075917
O34	O	0.917932	1.022610	-0.083318
O35	O	0.642204	1.167758	0.065212
O36	O	0.650916	1.291776	-0.009945
O37	O	0.783796	1.167724	-0.076384
O38	O	0.775083	1.043705	-0.001228
C39	C	0.519390	1.105669	-0.038814
C40	C	0.455160	1.105657	-0.038816
C41	C	0.379164	1.197252	0.010228
C42	C	0.318804	1.197261	0.010234
C43	C	0.334446	1.105683	-0.038815
C44	C	0.410454	1.014072	-0.087863
C45	C	0.470811	1.014059	-0.087863
C46	C	0.276855	1.077144	-0.101605
C47	C	0.216497	1.077166	-0.101605
C48	C	0.148287	1.105717	-0.038813
C49	C	0.140433	1.134273	0.023982
C50	C	0.200790	1.134259	0.023981
C51	C	0.269004	1.105687	-0.038819
C52	C	0.006839	1.197326	0.010241
C53	C	-0.053521	1.197326	0.010248
C54	C	0.038132	1.014143	-0.087854
C55	C	0.098489	1.014138	-0.087855
C56	C	0.082837	1.105736	-0.038808
C57	C	0.685350	0.774100	-0.027162
C58	C	0.677445	0.661558	-0.023210
C59	C	0.897895	1.105736	-0.038802
C60	C	0.962125	1.105747	-0.038800
C61	C	0.708640	1.105623	-0.228070
C62	C	0.708639	1.105596	-0.292303
C63	C	0.731935	1.437304	-0.050454
C64	C	0.739840	1.549846	-0.054406
C65	C	0.777999	1.040848	-0.357157
C66	C	0.778002	1.040879	-0.417514
C67	C	0.708640	1.105642	-0.413011
C68	C	0.639272	1.170404	-0.348146
C69	C	0.639271	1.170381	-0.287792
C70	C	0.651367	1.096434	-0.480007
C71	C	0.651370	1.096448	-0.540361
C72	C	0.708639	1.105720	-0.599162
C73	C	0.765917	1.114953	-0.597607
C74	C	0.765917	1.114930	-0.537253
C75	C	0.708633	1.105675	-0.478451
C76	C	0.778008	1.041003	-0.729464
C77	C	0.778009	1.041043	-0.789820
C78	C	0.639275	1.170560	-0.720449
C79	C	0.639277	1.170528	-0.660095
C80	C	0.708645	1.105743	-0.664607
C81	C	0.708645	1.105781	0.150453
C82	C	0.708646	1.105808	0.214687
C83	C	0.542683	1.437270	-0.050460
C84	C	0.486357	1.549801	-0.054414
C85	C	0.519393	1.105748	0.150448
C86	C	0.455163	1.105763	0.214679
C87	C	0.542685	1.437350	0.138802
C88	C	0.486361	1.549908	0.199081
C89	C	0.874600	0.774055	-0.216418
C90	C	0.930924	0.661496	-0.276697
C91	C	0.874603	0.774134	-0.027157
C92	C	0.930928	0.661603	-0.023202
C93	C	0.897892	1.105656	-0.228064
C94	C	0.962122	1.105641	-0.292296
C95	C	0.455358	1.537880	-0.090961
C96	C	0.402442	1.643605	-0.094690
C97	C	0.380522	1.761250	-0.061868
C98	C	0.411528	1.773169	-0.025321
C99	C	0.464447	1.667445	-0.021596
C100	C	0.429549	1.170538	0.279532
C101	C	0.369207	1.170548	0.339891
C102	C	0.334476	1.105790	0.335394
C103	C	0.360096	1.041007	0.270534
C104	C	0.420441	1.040991	0.210178
C105	C	0.464459	1.667514	0.188157
C106	C	0.411545	1.773284	0.244790
C107	C	0.380530	1.761446	0.312346
C108	C	0.402437	1.643828	0.323268
C109	C	0.455354	1.538060	0.266636
C110	C	0.952834	0.543891	-0.265774
C111	C	1.005766	0.438120	-0.322406
C112	C	1.036784	0.449958	-0.389962
C113	C	1.014873	0.567577	-0.400885
C114	C	0.961946	0.673344	-0.344253
C115	C	0.961934	0.673524	0.013338
C116	C	1.014866	0.567799	0.017051
C117	C	1.036788	0.450154	-0.015773
C118	C	1.005780	0.438235	-0.052318
C119	C	0.952852	0.543959	-0.056034
C120	C	0.996834	1.170411	-0.287777
C121	C	1.057178	1.170421	-0.348124
C122	C	1.082812	1.105652	-0.412990
C123	C	1.048094	1.040879	-0.417507
C124	C	0.987747	1.040877	-0.357160
H125	H	0.366413	1.271837	0.050166
H126	H	0.337431	1.847327	-0.064906
H127	H	0.457821	1.223272	0.283207
O128	O	1.029428	0.311339	-0.087715
H129	H	0.998983	0.320795	-0.113756
H130	H	0.617975	0.671099	0.006521
O131	O	0.447988	0.971153	0.140253
H132	H	0.509529	0.899523	0.113451
O133	O	0.969192	1.240291	-0.217822
H134	H	0.976190	1.174943	-0.186257
O135	O	0.564449	1.240249	-0.217844
H136	H	0.565948	1.311815	-0.191089
O137	O	1.048295	0.580676	0.056476
H138	H	1.033554	0.535600	0.098902
O139	O	0.387913	1.900147	0.233017
H140	H	0.361158	1.910902	0.203346
O141	O	1.093855	0.336139	-0.011735
H142	H	1.148847	0.336218	-0.034847
O143	O	0.938309	0.800399	0.048740
H144	H	0.875341	0.851687	0.087796
H145	H	1.131952	1.105663	-0.462122
H146	H	0.337443	1.847579	0.358453
O147	O	0.236826	1.296066	0.063126
H148	H	0.236084	1.359762	0.097227
H149	H	0.348356	1.223306	0.392696
O150	O	1.048332	0.580334	-0.473751
H151	H	1.001282	0.631661	-0.481701
H152	H	0.927607	0.534235	-0.085787
O153	O	0.852820	0.971036	-0.487471
H154	H	0.860955	1.036419	-0.519014
O155	O	0.478959	1.411212	0.278422
H156	H	0.448489	1.420763	0.334913
H157	H	1.023596	0.342361	-0.313499
O158	O	0.368980	1.631067	0.396134
H159	H	0.337875	1.579723	0.404076
O160	O	0.269377	1.105835	0.400495
H161	H	0.257398	1.161777	0.446344
O162	O	0.852814	0.970980	-0.362020
H163	H	0.901045	0.925967	-0.417262
H164	H	1.085440	1.223165	-0.344433
O165	O	1.075720	0.971048	-0.487467
H166	H	1.096223	0.871524	-0.490123
O167	O	0.938305	0.800192	-0.356038
H168	H	0.968762	0.790641	-0.412529
O169	O	0.950317	0.970996	-0.362037
H170	H	0.978292	0.925951	-0.417281
H171	H	0.812553	1.122451	-0.535990
H172	H	0.377202	1.633876	-0.124451
H173	H	0.331809	0.988283	0.266883
O174	O	0.919388	0.531107	-0.192913
H175	H	0.943531	0.431551	-0.194843
O176	O	0.818624	0.537155	-0.093812
H177	H	0.850457	0.485822	-0.148815
H178	H	0.393673	1.868970	0.001400
H179	H	0.489680	1.677169	0.008168
H180	H	1.079880	0.363825	-0.436069
H181	H	0.194392	1.157507	0.075111
O182	O	0.827690	1.124966	-0.661018
H183	H	0.818064	1.123450	-0.703245
H184	H	0.084895	1.157512	0.075113
H185	H	0.222898	1.053919	-0.152736
O186	O	-0.010033	1.296101	0.063146
H187	H	-0.073023	1.359783	0.097260
O188	O	0.497908	1.680311	0.115299
H189	H	0.483153	1.635241	0.087612
H190	H	-0.115403	1.271912	0.050190
H191	H	0.532693	0.939466	-0.127800
O192	O	0.055011	0.915374	-0.140761
H193	H	0.026296	0.862597	-0.113775
O194	O	0.180463	0.915366	-0.140764
H195	H	0.181203	0.851694	-0.174877
O196	O	0.852822	0.971149	-0.734320
H197	H	0.901056	0.926147	-0.789562
H198	H	0.332397	1.053882	-0.152741
H199	H	0.423186	0.939509	-0.127798
H200	H	0.834493	0.988322	-0.842628
H201	H	0.582796	1.223248	-0.607287
O202	O	0.564453	1.240435	-0.715569
H203	H	0.556306	1.175091	-0.739009
O204	O	0.589516	1.086717	-0.542000
H205	H	0.549655	1.080374	-0.490955
H206	H	0.604732	1.088874	-0.432133
H207	H	0.582797	1.223136	-0.344484
O208	O	0.479001	1.410997	-0.126372
H209	H	0.448557	1.420490	-0.152417
