data_functionalizedCrystal
_audit_creation_method	'MofGen! by Chris Wilmer'
_symmetry_space_group_name_H-M	'P1'
_symmetry_Int_Tables_number	1
_symmetry_cell_setting	triclinic
loop_
_symmetry_equiv_pos_as_xyz
  x,y,z
_cell_length_a	21.395361
_cell_length_b	21.395364
_cell_length_c	21.395355
_cell_angle_alpha	89.974702
_cell_angle_beta	90.021511
_cell_angle_gamma	89.952591
loop_
_atom_site_label
_atom_site_type_symbol
_atom_site_fract_x
_atom_site_fract_y
_atom_site_fract_z
Zn1	Zn	-0.249232	-0.957859	0.354261
Zn2	Zn	-0.353992	-0.957762	0.249478
Zn3	Zn	-0.249263	-0.853074	0.249496
Zn4	Zn	-0.354006	-0.853043	0.354217
O5	O	-0.301623	-0.905435	0.301863
O6	O	-0.263110	-1.045524	0.340372
O7	O	-0.340106	-0.943847	0.161802
O8	O	-0.161581	-0.867028	0.263420
O9	O	-0.340076	-1.045453	0.263388
O10	O	-0.161558	-0.944013	0.340390
O11	O	-0.263162	-0.866933	0.161816
O12	O	-0.263176	-0.765392	0.263377
O13	O	-0.340101	-0.866975	0.441901
O14	O	-0.340131	-0.765370	0.340315
O15	O	-0.263124	-0.943983	0.441933
O16	O	-0.441672	-0.943817	0.263346
O17	O	-0.441682	-0.866881	0.340297
C18	C	-0.301659	-0.742647	0.301843
C19	C	-0.301689	-0.673006	0.301850
C20	C	-0.261679	-0.640352	0.341997
C21	C	-0.261664	-0.574917	0.341998
C22	C	-0.301671	-0.542137	0.301859
C23	C	-0.341683	-0.574799	0.261705
C24	C	-0.341692	-0.640233	0.261700
C25	C	-0.358099	-0.438413	0.296818
C26	C	-0.358090	-0.372980	0.296827
C27	C	-0.301642	-0.340317	0.301871
C28	C	-0.245200	-0.373094	0.306919
C29	C	-0.245210	-0.438528	0.306914
C30	C	-0.301665	-0.471185	0.301860
C31	C	-0.261613	-0.236711	0.342021
C32	C	-0.261597	-0.171274	0.342019
C33	C	-0.341622	-0.171157	0.261728
C34	C	-0.341632	-0.236593	0.261728
C35	C	-0.301629	-0.269365	0.301878
C36	C	-0.464411	-0.905352	0.301828
C37	C	-0.534052	-0.905374	0.301834
C38	C	-0.566739	-0.945470	0.261807
C39	C	-0.632174	-0.945499	0.261821
C40	C	-0.664920	-0.905421	0.301856
C41	C	-0.632226	-0.865322	0.341891
C42	C	-0.566791	-0.865298	0.341880
C43	C	-0.768652	-0.849006	0.306765
C44	C	-0.834085	-0.849029	0.306771
C45	C	-0.866741	-0.905494	0.301892
C46	C	-0.833956	-0.961938	0.296994
C47	C	-0.768522	-0.961915	0.296983
C48	C	-0.735873	-0.905442	0.301872
C49	C	-0.970380	-0.945625	0.261878
C50	C	-1.035817	-0.945655	0.261896
C51	C	-1.035867	-0.865473	0.341963
C52	C	-0.970432	-0.865448	0.341948
C53	C	-0.937692	-0.905523	0.301902
C54	C	-0.138200	-0.905535	0.301912
C55	C	-0.068558	-0.905577	0.301932
C56	C	-0.301610	-0.905487	0.465286
C57	C	-0.301605	-0.905509	0.534928
C58	C	-0.301596	-0.068858	0.301880
C59	C	-0.301604	-0.138499	0.301879
C60	C	-0.301591	-0.905419	0.139075
C61	C	-0.301419	-0.905518	0.069435
C62	C	-0.261521	-0.945605	0.567659
C63	C	-0.261494	-0.945604	0.633094
C64	C	-0.301562	-0.905514	0.665796
C65	C	-0.341649	-0.865410	0.633057
C66	C	-0.341670	-0.865407	0.567623
C67	C	-0.357979	-0.900538	0.769459
C68	C	-0.357959	-0.900545	0.834892
C69	C	-0.301496	-0.905518	0.867617
C70	C	-0.245052	-0.910497	0.834901
C71	C	-0.245073	-0.910494	0.769467
C72	C	-0.301543	-0.905512	0.736748
C73	C	-0.261380	-0.945615	0.971300
C74	C	-0.261352	-0.945610	1.036737
C75	C	-0.341512	-0.865419	1.036699
C76	C	-0.341534	-0.865421	0.971263
C77	C	-0.301469	-0.905522	0.938568
H78	H	-0.404069	-0.465002	0.292710
N79	N	-0.384829	-0.539449	0.218407
H80	H	-0.378753	-0.493041	0.224502
H81	H	-0.429594	-0.550848	0.228071
N82	N	-1.071077	-0.988901	0.218720
H83	H	-1.098175	-1.017937	0.244212
H84	H	-1.040367	-1.014240	0.193358
H85	H	-0.228850	-0.978254	0.659749
H86	H	-1.062528	-0.832843	0.374563
N87	N	-0.869169	-1.022845	0.291728
H88	H	-0.896287	-1.028716	0.329909
H89	H	-0.838431	-1.058557	0.288603
H90	H	-0.943723	-0.978259	0.229272
N91	N	-0.218174	-0.988864	0.936025
H92	H	-0.173401	-0.979166	0.947399
H93	H	-0.224335	-0.982757	0.889618
N94	N	-0.218519	-0.675690	0.385291
H95	H	-0.189449	-0.702850	0.359877
H96	H	-0.244063	-0.702797	0.414274
H97	H	-0.374274	-0.666819	0.229006
N98	N	-0.418833	-0.895174	0.870176
H99	H	-0.424697	-0.933341	0.897337
H100	H	-0.454567	-0.891995	0.839478
H101	H	-0.540084	-0.978103	0.229201
N102	N	-0.667440	-0.988748	0.218648
H103	H	-0.636771	-1.014132	0.193279
H104	H	-0.694634	-0.963263	0.189637
N105	N	-0.218112	-0.988862	1.072034
H106	H	-0.243557	-1.017881	1.099196
H107	H	-0.189075	-0.963377	1.099134
N108	N	-0.218511	-0.539692	0.385307
H109	H	-0.244019	-0.512535	0.414293
H110	H	-0.189440	-0.512593	0.359860
H111	H	-0.199253	-0.465213	0.311022
H112	H	-0.860773	-0.803068	0.310753
H113	H	-0.741830	-1.007873	0.292997
H114	H	-0.742070	-0.803022	0.310740
H115	H	-0.943816	-0.832795	0.374540
N116	N	-0.667540	-0.822096	0.385074
H117	H	-0.713953	-0.828193	0.379006
H118	H	-0.656159	-0.777349	0.375279
N119	N	-0.531532	-0.822049	0.385053
H120	H	-0.562203	-0.796664	0.410420
H121	H	-0.504433	-0.793056	0.359515
H122	H	-0.228896	-0.978258	0.541042
H123	H	-0.374130	-0.832770	1.063324
H124	H	-0.199115	-0.914547	0.742833
H125	H	-0.199075	-0.914547	0.861545
H126	H	-0.374179	-0.832774	0.944614
N127	N	-0.418883	-0.895182	0.734165
H128	H	-0.454635	-0.892038	0.764817
H129	H	-0.424692	-0.933358	0.707036
H130	H	-0.374270	-0.832766	0.659687
H131	H	-0.374310	-0.832753	0.540974
H132	H	-0.199235	-0.346501	0.311026
H133	H	-0.229036	-0.263396	0.374710
H134	H	-0.374196	-0.144469	0.229047
N135	N	-0.218431	-0.136051	0.385311
H136	H	-0.193090	-0.166745	0.410741
H137	H	-0.243967	-0.108886	0.414260
N138	N	-0.384791	-0.271811	0.218426
H139	H	-0.429570	-0.260385	0.228075
H140	H	-0.378674	-0.318226	0.224531
N141	N	-0.418963	-0.337630	0.291383
H142	H	-0.454723	-0.368249	0.288177
H143	H	-0.417994	-0.310462	0.252781
