data_functionalizedCrystal
_audit_creation_method	'MofGen! by Chris Wilmer'
_symmetry_space_group_name_H-M	'P1'
_symmetry_Int_Tables_number	1
_symmetry_cell_setting	triclinic
loop_
_symmetry_equiv_pos_as_xyz
  x,y,z
_cell_length_a	16.992701
_cell_length_b	19.188937
_cell_length_c	16.053789
_cell_angle_alpha	87.103083
_cell_angle_beta	87.278449
_cell_angle_gamma	86.907300
loop_
_atom_site_label
_atom_site_type_symbol
_atom_site_fract_x
_atom_site_fract_y
_atom_site_fract_z
O1	O	-1.042827	-0.150799	0.069439
O2	O	-0.814548	-0.149177	0.069440
O3	O	-0.935272	-0.048718	0.069432
O4	O	-0.922103	-0.251258	0.069447
O5	O	-0.929383	-0.043135	-0.069428
O6	O	-0.808659	-0.143595	-0.069420
O7	O	-1.036938	-0.145217	-0.069421
Zn8	Zn	-0.921863	-0.143519	-0.091467
Zn9	Zn	-0.929623	-0.150874	0.091486
O10	O	-0.916214	-0.245676	-0.069413
C11	C	-0.782398	-0.144297	0.000010
C12	C	-0.695375	-0.138065	0.000009
C13	C	-0.931900	-0.019891	0.000002
C14	C	-0.930617	0.057689	0.000001
C15	C	-1.069088	-0.150097	0.000011
C16	C	-1.156112	-0.156329	0.000017
C17	C	-0.206558	-0.096190	0.000009
C18	C	-0.288324	-0.102051	0.000005
C19	C	-0.319643	-0.168052	0.000014
C20	C	-0.269190	-0.228196	0.000019
C21	C	-0.187425	-0.222334	0.000017
C22	C	-0.563157	-0.192347	0.000013
C23	C	-0.644929	-0.198204	0.000017
C24	C	-0.664057	-0.072058	0.000002
C25	C	-0.582289	-0.066202	0.000005
C26	C	-0.531844	-0.126346	0.000006
N27	N	-0.403221	-0.174045	0.000012
N28	N	-0.448267	-0.120353	0.000002
N29	N	-0.916574	-0.138499	-0.216328
C30	C	-0.918281	0.614526	-0.075679
C31	C	-0.919478	0.541631	-0.075683
C32	C	-0.923290	0.502133	0.000009
C33	C	-0.925886	0.535534	0.075711
C34	C	-0.924681	0.608427	0.075712
N35	N	-0.972181	0.388123	0.056350
N36	N	-0.973327	0.318879	0.056343
C37	C	-0.926918	0.282511	0.000009
N38	N	-0.879330	0.318006	-0.056330
N39	N	-0.878187	0.387257	-0.056326
C40	C	-0.924596	0.423093	0.000016
C41	C	-0.925615	0.170078	-0.075691
C42	C	-0.926807	0.097182	-0.075692
C43	C	-0.933222	0.091087	0.075704
C44	C	-0.932022	0.163981	0.075702
C45	C	-0.928222	0.203473	0.000002
C46	C	-0.919589	0.725497	0.000016
C47	C	-0.920881	0.647919	0.000012
C48	C	-0.962123	-0.181760	-0.260016
C49	C	-0.958433	-0.178245	-0.347423
C50	C	-0.909190	-0.131471	-0.391141
C51	C	-0.863639	-0.088206	-0.347448
C52	C	-0.867333	-0.091718	-0.260042
C53	C	-0.893062	-0.116136	-0.652553
C54	C	-0.889369	-0.112628	-0.739965
C55	C	-0.984166	-0.202666	-0.739934
C56	C	-0.987852	-0.206178	-0.652527
C57	C	-0.942304	-0.162910	-0.608841
N58	N	-0.905415	-0.127878	-0.480486
N59	N	-0.946083	-0.166500	-0.519498
N60	N	-0.934919	-0.155889	0.216347
H61	H	-0.181065	-0.042445	0.000008
C62	C	-1.088517	-0.211985	-0.374291
C63	C	-1.008501	-0.225804	-0.395438
H64	H	-1.119427	-0.241351	-0.403929
H65	H	-1.102642	-0.164474	-0.388625
H66	H	-1.097748	-0.220770	-0.315976
H67	H	-0.999269	-0.217013	-0.453752
H68	H	-0.994372	-0.273326	-0.381110
H69	H	-0.329394	-0.053078	-0.000005
C70	C	-0.933025	0.273013	0.142923
C71	C	-0.934889	0.200693	0.158905
H72	H	-0.934788	0.295676	0.194292
H73	H	-0.977212	0.288981	0.111829
H74	H	-0.885801	0.283431	0.111819
H75	H	-0.982115	0.190275	0.190004
H76	H	-0.890697	0.184720	0.190012
C77	C	-0.993640	-0.301517	-0.233094
C78	C	-1.016254	-0.233176	-0.211966
H79	H	-1.027065	-0.333257	-0.203435
H80	H	-0.940573	-0.312039	-0.218771
H81	H	-0.997960	-0.305605	-0.291404
H82	H	-1.011929	-0.229087	-0.153656
H83	H	-1.069335	-0.222651	-0.226283
H84	H	-1.027954	-0.244263	-0.616937
H85	H	-0.830242	-0.056491	-0.224473
H86	H	-1.021248	-0.237892	-0.775512
H87	H	-0.522094	-0.241320	0.000018
H88	H	-0.928987	0.503370	0.137339
C89	C	-0.870827	0.001550	0.163508
C90	C	-0.937346	0.047702	0.158927
H91	H	-0.873355	-0.025231	0.214893
H92	H	-0.824546	0.027366	0.160298
H93	H	-0.869477	-0.028792	0.118447
H94	H	-0.938693	0.078048	0.203985
H95	H	-0.983640	0.021885	0.162145
H96	H	-0.294696	-0.281936	0.000021
H97	H	-0.922514	0.202233	-0.137331
C98	C	-0.798982	-0.026794	-0.661376
C99	C	-0.842988	-0.068583	-0.604542
H100	H	-0.768063	0.002561	-0.631731
H101	H	-0.833716	0.001148	-0.695463
H102	H	-0.765311	-0.055751	-0.695470
H103	H	-0.876663	-0.039625	-0.570451
H104	H	-0.808250	-0.096527	-0.570441
H105	H	-0.849265	-0.074540	-0.775558
H106	H	-0.926797	0.635615	0.137351
H107	H	-0.146352	-0.271306	0.000020
H108	H	-0.915186	0.646675	-0.137320
C109	C	-0.920373	0.110534	-0.225337
C110	C	-0.923956	0.060474	-0.158899
H111	H	-0.918620	0.087871	-0.276705
H112	H	-0.874333	0.136063	-0.222200
H113	H	-0.965745	0.141613	-0.222170
H114	H	-0.878580	0.029398	-0.162062
H115	H	-0.970000	0.034933	-0.162038
H116	H	-0.917346	0.514436	-0.137322
C117	C	-0.815832	-0.042879	-0.481445
C118	C	-0.809506	-0.036792	-0.395499
H119	H	-0.782406	-0.011140	-0.511105
H120	H	-0.868896	-0.032371	-0.495790
H121	H	-0.800471	-0.089251	-0.495727
H122	H	-0.824872	0.009579	-0.381215
H123	H	-0.756430	-0.047294	-0.381148
C124	C	-0.609412	0.057900	-0.000028
C125	C	-0.547866	0.006349	-0.000015
H126	H	-0.588158	0.102690	-0.000046
H127	H	-0.642956	0.051050	0.048395
H128	H	-0.638854	0.054927	-0.048453
H129	H	-0.518427	0.009319	0.048412
H130	H	-0.514309	0.013201	-0.048443
H131	H	-0.705138	-0.023093	0.000000
H132	H	-0.670424	-0.251953	0.000012
