data_functionalizedCrystal
_audit_creation_method	'MofGen! by Chris Wilmer'
_symmetry_space_group_name_H-M	'P1'
_symmetry_Int_Tables_number	1
_symmetry_cell_setting	triclinic
loop_
_symmetry_equiv_pos_as_xyz
  x,y,z
_cell_length_a	16.959455
_cell_length_b	18.050588
_cell_length_c	16.959447
_cell_angle_alpha	89.970410
_cell_angle_beta	89.979626
_cell_angle_gamma	90.026581
loop_
_atom_site_label
_atom_site_type_symbol
_atom_site_fract_x
_atom_site_fract_y
_atom_site_fract_z
Zn1	Zn	1.208332	-0.295704	-0.447040
Zn2	Zn	1.708332	0.204296	0.052960
Zn3	Zn	1.208232	-0.419905	-0.314863
Zn4	Zn	1.708232	0.080095	0.185137
Zn5	Zn	1.076160	-0.295727	-0.314864
Zn6	Zn	1.576160	0.204273	0.185136
Zn7	Zn	1.076103	-0.419850	-0.446988
Zn8	Zn	1.576103	0.080150	0.053012
O9	O	1.142207	-0.357797	-0.380939
O10	O	1.642207	0.142203	0.119061
O11	O	1.318929	-0.312193	-0.429528
O12	O	1.818929	0.187807	0.070472
O13	O	1.190695	-0.403466	-0.204253
O14	O	1.690695	0.096534	0.295747
O15	O	1.093759	-0.191800	-0.332419
O16	O	1.593759	0.308200	0.167581
O17	O	1.318856	-0.403443	-0.332419
O18	O	1.818856	0.096557	0.167581
O19	O	1.190864	-0.191782	-0.429529
O20	O	1.690864	0.308218	0.070471
O21	O	1.093662	-0.312233	-0.204253
O22	O	1.593662	0.187767	0.295747
O23	O	0.965542	-0.312179	-0.332369
O24	O	1.465542	0.187821	0.167631
O25	O	1.093661	-0.403349	-0.557606
O26	O	1.593661	0.096651	-0.057606
O27	O	0.965500	-0.403372	-0.429440
O28	O	1.465500	0.096628	0.070560
O29	O	1.190809	-0.312139	-0.557644
O30	O	1.690809	0.187861	-0.057644
O31	O	1.190640	-0.523823	-0.332368
O32	O	1.690640	-0.023823	0.167632
O33	O	1.093565	-0.523782	-0.429439
O34	O	1.593565	-0.023782	0.070561
C35	C	0.936841	-0.357772	-0.380899
C36	C	1.436841	0.142228	0.119101
C37	C	0.848984	-0.357780	-0.380901
C38	C	1.348984	0.142220	0.119099
C39	C	0.477460	-0.405264	-0.330348
C40	C	0.977460	0.094736	0.169652
C41	C	0.477557	-0.310391	-0.431626
C42	C	0.977557	0.189609	0.068374
C43	C	0.560103	-0.310379	-0.431607
C44	C	1.060103	0.189621	0.068393
C45	C	0.601331	-0.357811	-0.380958
C46	C	1.101331	0.142189	0.119042
C47	C	0.560013	-0.405254	-0.330329
C48	C	1.060013	0.094746	0.169671
C49	C	0.601427	-0.262941	-0.482241
C50	C	1.101427	0.237059	0.017759
C51	C	0.683978	-0.262928	-0.482224
C52	C	1.183978	0.237072	0.017776
C53	C	0.725207	-0.310356	-0.431571
C54	C	1.225207	0.189644	0.068429
C55	C	0.683885	-0.357801	-0.380939
C56	C	1.183885	0.142199	0.119061
C57	C	0.725113	-0.405233	-0.330291
C58	C	1.225113	0.094767	0.169709
C59	C	0.683791	-0.452675	-0.279654
C60	C	1.183791	0.047325	0.220346
C61	C	0.601243	-0.452683	-0.279676
C62	C	1.101243	0.047317	0.220324
C63	C	0.807756	-0.310348	-0.431549
C64	C	1.307756	0.189652	0.068451
C65	C	0.807666	-0.405224	-0.330272
C66	C	1.307666	0.094776	0.169728
C67	C	1.142107	-0.550749	-0.380915
C68	C	1.642107	-0.050749	0.119085
C69	C	1.142136	-0.633295	-0.380932
C70	C	1.642136	-0.133295	0.119068
C71	C	1.089430	-0.882125	-0.433719
C72	C	1.589430	-0.382125	0.066281
C73	C	1.161503	-0.832657	-0.453122
C74	C	1.661503	-0.332657	0.046878
C75	C	1.142300	-0.930415	-0.380976
C76	C	1.642300	-0.430415	0.119024
C77	C	1.070150	-0.832801	-0.361588
C78	C	1.570150	-0.332801	0.138412
C79	C	1.142216	-0.784430	-0.380956
C80	C	1.642216	-0.284430	0.119044
C81	C	1.214412	-0.882034	-0.400416
C82	C	1.714412	-0.382034	0.099584
C83	C	1.123010	-0.882182	-0.308848
C84	C	1.623010	-0.382182	0.191152
C85	C	1.195133	-0.832737	-0.328224
C86	C	1.695133	-0.332737	0.171776
C87	C	1.142348	-1.014513	-0.380989
C88	C	1.642348	-0.514513	0.119011
C89	C	1.142176	-0.700333	-0.380942
C90	C	1.642176	-0.200333	0.119058
C91	C	1.348375	-0.357822	-0.380979
C92	C	1.848375	0.142178	0.119021
C93	C	1.436232	-0.357832	-0.380997
C94	C	1.936232	0.142168	0.119003
C95	C	1.142240	-0.357735	-0.587107
C96	C	1.642240	0.142265	-0.087107
C97	C	1.142254	-0.357709	-0.674964
C98	C	1.642254	0.142291	-0.174964
C99	C	1.142329	-0.164091	-0.380980
C100	C	1.642329	0.335909	0.119020
C101	C	1.142381	-0.081545	-0.380998
C102	C	1.642381	0.418455	0.119002
C103	C	1.091768	-0.405119	-1.046422
C104	C	1.591768	0.094881	-0.546422
C105	C	1.192929	-0.310142	-1.046457
C106	C	1.692929	0.189858	-0.546457
C107	C	1.192908	-0.310158	-0.963911
C108	C	1.692908	0.189842	-0.463911
C109	C	1.142317	-0.357656	-0.922617
C110	C	1.642317	0.142344	-0.422617
C111	C	1.091747	-0.405138	-0.963869
C112	C	1.591747	0.094862	-0.463869
C113	C	1.243482	-0.262682	-0.922654
C114	C	1.743482	0.237318	-0.422654
C115	C	1.243464	-0.262696	-0.840103
C116	C	1.743464	0.237304	-0.340103
C117	C	1.192868	-0.310191	-0.798807
C118	C	1.692868	0.189809	-0.298807
C119	C	1.142296	-0.357675	-0.840063
C120	C	1.642296	0.142325	-0.340063
C121	C	1.091705	-0.405173	-0.798769
C122	C	1.591705	0.094827	-0.298769
C123	C	1.041128	-0.452653	-0.840024
C124	C	1.541128	0.047347	-0.340024
C125	C	1.041151	-0.452633	-0.922573
C126	C	1.541151	0.047367	-0.422573
C127	C	1.192845	-0.310211	-0.716258
C128	C	1.692845	0.189789	-0.216258
C129	C	1.091684	-0.405191	-0.716215
C130	C	1.591684	0.094809	-0.216215
C131	C	1.142220	-0.357804	-0.175573
C132	C	1.642220	0.142196	0.324427
C133	C	1.142359	-0.357621	-0.087717
C134	C	1.642359	0.142379	0.412283
H135	H	0.443984	-0.271779	-0.472866
H136	H	0.943984	0.228221	0.027134
C137	C	0.556071	-0.210753	-0.537931
C138	C	1.056071	0.289247	-0.037931
N139	N	0.521906	-0.171434	-0.579871
N140	N	1.021906	0.328566	-0.079871
C141	C	0.432006	-0.457447	-0.274651
C142	C	0.932006	0.042553	0.225349
N143	N	0.397770	-0.496753	-0.232699
N144	N	0.897770	0.003247	0.267301
H145	H	0.717370	-0.491298	-0.238420
H146	H	1.217370	0.008702	0.261580
C147	C	0.853010	-0.457403	-0.274552
C148	C	1.353010	0.042597	0.225448
N149	N	0.887163	-0.496706	-0.232585
N150	N	1.387163	0.003294	0.267415
C151	C	0.729424	-0.210734	-0.537917
C152	C	1.229424	0.289266	-0.037917
N153	N	0.763654	-0.171417	-0.579862
N154	N	1.263654	0.328583	-0.079862
C155	C	0.853205	-0.258166	-0.487247
C156	C	1.353205	0.241834	0.012753
N157	N	0.887437	-0.218858	-0.529199
N158	N	1.387437	0.281142	-0.029199
H159	H	1.009169	-0.811171	-0.345199
H160	H	1.509169	-0.311171	0.154801
C161	C	1.029153	-0.911424	-0.494033
C162	C	1.529153	-0.411424	0.005967
N163	N	0.983756	-0.933493	-0.539462
N164	N	1.483756	-0.433493	-0.039462
H165	H	1.177788	-0.810905	-0.514110
H166	H	1.677788	-0.310905	-0.014110
C167	C	0.985517	-0.504853	-0.967959
C168	C	1.485517	-0.004853	-0.467959
N169	N	0.943613	-0.544184	-1.002148
N170	N	1.443613	-0.044184	-0.502148
C171	C	1.248570	-0.257892	-1.091884
C172	C	1.748570	0.242108	-0.591884
N173	N	1.290478	-0.218532	-1.126102
N174	N	1.790478	0.281468	-0.626102
C175	C	1.248477	-0.257986	-0.670881
C176	C	1.748477	0.242014	-0.170881
N177	N	1.290380	-0.218647	-0.636704
N178	N	1.790380	0.281353	-0.136704
C179	C	0.985479	-0.504899	-0.794590
C180	C	1.485479	-0.004899	-0.294590
N181	N	0.943565	-0.544249	-0.760365
N182	N	1.443565	-0.044249	-0.260365
C183	C	1.036130	-0.457340	-1.091803
C184	C	1.536130	0.042660	-0.591803
N185	N	0.994221	-0.496672	-1.125985
N186	N	1.494221	0.003328	-0.625985
C187	C	1.299120	-0.210430	-0.968082
C188	C	1.799120	0.289570	-0.468082
N189	N	1.341023	-0.171067	-1.002303
N190	N	1.841023	0.328933	-0.502303
C191	C	1.036027	-0.457443	-0.670798
C192	C	1.536027	0.042557	-0.170798
N193	N	0.994106	-0.496799	-0.636591
N194	N	1.494106	0.003201	-0.136591
H195	H	1.275411	-0.903572	-0.416876
H196	H	1.775411	-0.403572	0.083124
H197	H	1.284646	-0.224034	-0.806520
H198	H	1.784646	0.275966	-0.306520
C199	C	1.255557	-0.803612	-0.267963
C200	C	1.755557	-0.303612	0.232037
N201	N	1.301071	-0.781669	-0.222581
N202	N	1.801071	-0.281669	0.277419
H203	H	0.567592	-0.491307	-0.238450
H204	H	1.067592	0.008693	0.261550
C205	C	1.100979	-0.911597	-0.226481
C206	C	1.600979	-0.411597	0.273519
N207	N	1.084376	-0.933754	-0.164442
N208	N	1.584376	-0.433754	0.335558
