data_functionalizedCrystal
_audit_creation_method	'MofGen! by Chris Wilmer'
_symmetry_space_group_name_H-M	'P1'
_symmetry_Int_Tables_number	1
_symmetry_cell_setting	triclinic
loop_
_symmetry_equiv_pos_as_xyz
  x,y,z
_cell_length_a	16.956995
_cell_length_b	14.044190
_cell_length_c	15.455313
_cell_angle_alpha	92.904485
_cell_angle_beta	87.515363
_cell_angle_gamma	84.623124
loop_
_atom_site_label
_atom_site_type_symbol
_atom_site_fract_x
_atom_site_fract_y
_atom_site_fract_z
O1	O	1.064002	0.034668	-0.072194
O2	O	1.564002	0.534668	0.427806
O3	O	0.834199	0.067761	-0.072185
O4	O	1.334199	0.567761	0.427815
O5	O	0.945647	-0.086499	-0.072172
O6	O	1.445647	0.413501	0.427828
O7	O	0.952553	0.188928	-0.072207
O8	O	1.452553	0.688928	0.427793
O9	O	0.939272	-0.077712	0.072089
O10	O	1.439272	0.422288	0.572089
O11	O	0.827823	0.076548	0.072076
O12	O	1.327823	0.576548	0.572076
O13	O	1.057626	0.043455	0.072068
O14	O	1.557626	0.543455	0.572068
Cu15	Cu	0.942143	0.060804	0.085244
Cu16	Cu	1.442143	0.560804	0.585244
Cu17	Cu	0.949682	0.050412	-0.085362
Cu18	Cu	1.449682	0.550412	0.414638
O19	O	0.946178	0.197715	0.072055
O20	O	1.446178	0.697715	0.572055
C21	C	0.801423	0.073849	-0.000053
C22	C	1.301423	0.573849	0.499947
C23	C	0.713261	0.078886	-0.000049
C24	C	1.213261	0.578886	0.499951
C25	C	0.939439	-0.117183	-0.000039
C26	C	1.439439	0.382817	0.499961
C27	C	0.930429	-0.221703	-0.000031
C28	C	1.430429	0.278297	0.499969
C29	C	0.216644	0.116569	-0.000086
C30	C	0.716644	0.616569	0.499914
C31	C	0.299482	0.111829	-0.000085
C32	C	0.799482	0.611829	0.499915
C33	C	0.344238	0.022848	-0.000067
C34	C	0.844238	0.522848	0.499933
C35	C	0.306153	-0.061399	-0.000060
C36	C	0.806153	0.438601	0.499940
C37	C	0.223317	-0.056658	-0.000067
C38	C	0.723317	0.443342	0.499933
C39	C	0.592340	-0.000619	-0.000049
C40	C	1.092340	0.499381	0.499951
C41	C	0.675181	-0.005353	-0.000039
C42	C	1.175181	0.494647	0.499961
C43	C	0.668505	0.167874	-0.000066
C44	C	1.168505	0.667874	0.499934
C45	C	0.585667	0.172608	-0.000068
C46	C	1.085667	0.672608	0.499932
C47	C	0.547589	0.088361	-0.000065
C48	C	1.047589	0.588361	0.499935
N49	N	0.428912	0.018000	-0.000063
N50	N	0.928912	0.518000	0.499937
N51	N	0.462917	0.093209	-0.000075
N52	N	0.962917	0.593209	0.499925
C53	C	0.977858	-0.475707	-0.000067
C54	C	1.477858	0.024293	0.499933
C55	C	0.913971	-0.413072	-0.000058
C56	C	1.413971	0.086928	0.499942
C57	C	0.923130	-0.306585	-0.000043
C58	C	1.423130	0.193415	0.499957
C59	C	0.968700	-0.582205	-0.000082
C60	C	1.468700	-0.082205	0.499918
C61	C	1.090402	0.037367	-0.000066
C62	C	1.590402	0.537367	0.499934
C63	C	1.178564	0.032329	-0.000076
C64	C	1.678564	0.532329	0.499924
C65	C	0.952386	0.228399	-0.000080
C66	C	1.452386	0.728399	0.499920
C67	C	0.961397	0.332918	-0.000094
C68	C	1.461397	0.832918	0.499906
N69	N	0.936845	0.068112	0.205239
N70	N	1.436845	0.568112	0.705239
N71	N	0.954986	0.043096	-0.205356
N72	N	1.454986	0.543096	0.294644
C73	C	0.984212	0.002598	0.250639
C74	C	1.484212	0.502598	0.750639
C75	C	0.980214	0.008133	0.341446
C76	C	1.480214	0.508133	0.841446
C77	C	0.928852	0.079187	0.386852
C78	C	1.428852	0.579187	0.886852
C79	C	0.881480	0.144703	0.341446
C80	C	1.381480	0.644703	0.841446
C81	C	0.885475	0.139164	0.250641
C82	C	1.385475	0.639164	0.750641
C83	C	0.911608	0.103073	0.658432
C84	C	1.411608	0.603073	1.158432
C85	C	0.907619	0.108610	0.749244
C86	C	1.407619	0.608610	1.249244
C87	C	1.006352	-0.027962	0.749237
C88	C	1.506352	0.472038	1.249237
C89	C	1.010345	-0.033492	0.658430
C90	C	1.510345	0.466508	1.158430
C91	C	0.962970	0.032021	0.613032
C92	C	1.462970	0.532021	1.113032
N93	N	0.924766	0.084848	0.479672
N94	N	1.424766	0.584848	0.979672
N95	N	0.967053	0.026355	0.520214
N96	N	1.467053	0.526355	1.020214
H97	H	0.180208	0.189027	-0.000094
H98	H	0.680208	0.689027	0.499906
C99	C	0.724413	-0.103244	-0.000026
C100	C	1.224413	0.396756	0.499974
N101	N	0.761493	-0.176972	-0.000018
N102	N	1.261493	0.323028	0.499982
H103	H	0.549232	0.245065	-0.000085
H104	H	1.049232	0.745065	0.499915
C105	C	0.851112	0.186775	0.799189
C106	C	1.351112	0.686775	1.299189
N107	N	0.808554	0.245646	0.836807
N108	N	1.308554	0.745646	1.336807
H109	H	0.192314	-0.125255	-0.000060
H110	H	0.692314	0.374745	0.499940
H111	H	0.330483	0.180425	-0.000101
H112	H	0.830483	0.680425	0.499899
H113	H	1.044921	-0.081301	0.786209
H114	H	1.544921	0.418699	1.286209
C115	C	0.859605	0.175255	0.608506
C116	C	1.359605	0.675255	1.108506
N117	N	0.820474	0.229667	0.570898
N118	N	1.320474	0.729667	1.070898
H119	H	0.699517	0.236463	-0.000069
H120	H	1.199517	0.736463	0.499931
H121	H	0.852397	-0.439424	-0.000061
H122	H	1.352397	0.060576	0.499939
H123	H	1.039427	-0.449357	-0.000060
H124	H	1.539427	0.050643	0.499940
H125	H	1.026039	-0.055257	0.213675
H126	H	1.526039	0.444743	0.713675
C127	C	0.550464	-0.093292	-0.000024
C128	C	1.050464	0.406708	0.499976
N129	N	0.518921	-0.163098	0.000002
N130	N	1.018921	0.336902	0.500002
C131	C	1.032301	-0.063959	0.391382
C132	C	1.532301	0.436041	0.891382
N133	N	1.071527	-0.118270	0.428993
N134	N	1.571527	0.381730	0.928993
H135	H	0.342600	-0.133849	-0.000050
H136	H	0.842600	0.366151	0.499950
C137	C	1.066842	-0.111661	0.608490
C138	C	1.566842	0.388339	1.108490
N139	N	1.109397	-0.170539	0.570875
N140	N	1.609397	0.329461	1.070875
H141	H	0.839656	0.202554	0.378421
H142	H	1.339656	0.702554	0.878421
C143	C	0.833374	0.211241	0.200702
C144	C	1.333374	0.711241	0.700702
N145	N	0.794131	0.265533	0.163089
N146	N	1.294131	0.765533	0.663089
