data_functionalizedCrystal
_audit_creation_method	'MofGen! by Chris Wilmer'
_symmetry_space_group_name_H-M	'P1'
_symmetry_Int_Tables_number	1
_symmetry_cell_setting	triclinic
loop_
_symmetry_equiv_pos_as_xyz
  x,y,z
_cell_length_a	16.992694
_cell_length_b	8.559649
_cell_length_c	16.053802
_cell_angle_alpha	92.204030
_cell_angle_beta	87.249047
_cell_angle_gamma	80.223444
loop_
_atom_site_label
_atom_site_type_symbol
_atom_site_fract_x
_atom_site_fract_y
_atom_site_fract_z
O1	O	1.023824	0.329978	-0.069320
O2	O	1.523824	0.829978	0.430680
O3	O	0.795762	0.326287	-0.069345
O4	O	1.295762	0.826287	0.430655
O5	O	0.929885	0.098096	-0.069329
O6	O	1.429885	0.598096	0.430671
O7	O	0.889700	0.558168	-0.069335
O8	O	1.389700	1.058168	0.430665
O9	O	0.922506	0.110601	0.069529
O10	O	1.422506	0.610601	0.569529
O11	O	0.788383	0.338792	0.069513
O12	O	1.288383	0.838792	0.569513
O13	O	1.016444	0.342483	0.069538
O14	O	1.516444	0.842483	0.569538
Zn15	Zn	0.901242	0.342623	0.091572
Zn16	Zn	1.401242	0.842623	0.591572
Zn17	Zn	0.910964	0.326147	-0.091379
Zn18	Zn	1.410964	0.826147	0.408621
O19	O	0.882321	0.570673	0.069523
O20	O	1.382321	1.070673	0.569523
C21	C	0.763145	0.327794	0.000081
C22	C	1.263145	0.827794	0.500081
C23	C	0.676954	0.313635	0.000072
C24	C	1.176954	0.813635	0.500072
C25	C	0.618488	0.450242	0.000071
C26	C	1.118488	0.950242	0.500071
C27	C	0.537502	0.436931	0.000082
C28	C	1.037502	0.936931	0.500082
C29	C	0.514985	0.287010	0.000089
C30	C	1.014985	0.787010	0.500089
C31	C	0.573459	0.150392	0.000093
C32	C	1.073459	0.650392	0.500093
C33	C	0.654442	0.163706	0.000087
C34	C	1.154442	0.663706	0.500087
C35	C	0.274709	0.231830	0.000112
C36	C	0.774709	0.731830	0.500112
C37	C	0.193719	0.218527	0.000115
C38	C	0.693719	0.718527	0.500115
C39	C	0.157768	0.505067	0.000106
C40	C	0.657768	1.005067	0.500106
C41	C	0.238755	0.518367	0.000096
C42	C	0.738755	1.018367	0.500096
C43	C	0.297221	0.381749	0.000104
C44	C	0.797221	0.881749	0.500104
N45	N	0.432206	0.273399	0.000099
N46	N	0.932206	0.773399	0.500099
N47	N	0.379998	0.395362	0.000100
N48	N	0.879998	0.895362	0.500100
C49	C	0.929241	0.045208	0.000098
C50	C	1.429241	0.545208	0.500098
C51	C	0.938306	-0.131015	0.000095
C52	C	1.438306	0.368985	0.500095
C53	C	1.049061	0.340975	0.000110
C54	C	1.549061	0.840975	0.500110
C55	C	1.135252	0.355134	0.000114
C56	C	1.635252	0.855134	0.500114
C57	C	0.882965	0.623562	0.000093
C58	C	1.382965	1.123562	0.500093
C59	C	0.873901	0.799784	0.000091
C60	C	1.373901	1.299784	0.500091
N61	N	0.894612	0.353867	0.216432
N62	N	1.394612	0.853867	0.716432
N63	N	0.917601	0.314891	-0.216239
N64	N	1.417601	0.814891	0.283761
C65	C	0.951698	0.256811	0.260132
C66	C	1.451698	0.756811	0.760132
C67	C	0.947067	0.264692	0.347539
C68	C	1.447067	0.764692	0.847539
C69	C	0.885353	0.369639	0.391243
C70	C	1.385353	0.869639	0.891243
C71	C	0.828261	0.466699	0.347536
C72	C	1.328261	0.966699	0.847536
C73	C	0.832890	0.458808	0.260132
C74	C	1.332890	0.958808	0.760132
C75	C	0.865138	0.404060	0.652650
C76	C	1.365138	0.904060	1.152650
C77	C	0.860515	0.411947	0.740061
C78	C	1.360515	0.911947	1.240061
C79	C	0.979321	0.209937	0.740057
C80	C	1.479321	0.709937	1.240057
C81	C	0.983946	0.202063	0.652651
C82	C	1.483946	0.702063	1.152651
C83	C	0.926852	0.299117	0.608952
C84	C	1.426852	0.799117	1.108952
N85	N	0.880619	0.377701	0.480586
N86	N	1.380619	0.877701	0.980586
N87	N	0.931583	0.291046	0.519610
N88	N	1.431583	0.791046	1.019610
H89	H	0.636813	0.572324	0.000064
H90	H	1.136813	1.072324	0.500064
F91	F	0.792762	-0.101444	0.000085
F92	F	1.292762	0.398556	0.500085
H93	H	0.818650	0.483089	0.617077
H94	H	1.318650	0.983089	1.117077
F95	F	0.762576	0.578385	0.394050
F96	F	1.262576	1.078385	0.894050
F97	F	1.017387	0.145118	0.213627
F98	F	1.517387	0.645118	0.713627
H99	H	0.786403	0.537840	0.224552
H100	H	1.286403	1.037840	0.724552
F101	F	1.019448	-0.229794	0.000113
F102	F	1.519448	0.270206	0.500113
F103	F	0.336923	0.086428	0.000121
F104	F	0.836923	0.586428	0.500121
F105	F	1.007824	0.161392	0.394048
F106	F	1.507824	0.661392	0.894048
H107	H	0.555119	0.028324	0.000110
H108	H	1.055119	0.528324	0.500110
H109	H	0.702047	0.052465	0.000088
H110	H	1.202047	0.552465	0.500088
H111	H	0.257081	0.640447	0.000080
H112	H	0.757081	1.140447	0.500080
H113	H	1.034199	0.116607	0.617069
H114	H	1.534199	0.616607	1.117069
H115	H	0.810257	0.497414	0.775641
H116	H	1.310257	0.997414	1.275641
F117	F	0.475280	0.582328	0.000077
F118	F	0.975280	1.082328	0.500077
F119	F	0.095539	0.650454	0.000100
F120	F	0.595539	1.150454	0.500100
F121	F	0.169757	0.058954	0.000137
F122	F	0.669757	0.558954	0.500137
F123	F	1.040079	0.106648	0.786570
F124	F	1.540079	0.606648	1.286570
