data_functionalizedCrystal
_audit_creation_method	'MofGen! by Chris Wilmer'
_symmetry_space_group_name_H-M	'P1'
_symmetry_Int_Tables_number	1
_symmetry_cell_setting	triclinic
loop_
_symmetry_equiv_pos_as_xyz
  x,y,z
_cell_length_a	15.711784
_cell_length_b	15.538191
_cell_length_c	8.140239
_cell_angle_alpha	89.999314
_cell_angle_beta	90.002442
_cell_angle_gamma	83.430448
loop_
_atom_site_label
_atom_site_type_symbol
_atom_site_fract_x
_atom_site_fract_y
_atom_site_fract_z
O1	O	1.000647	0.466244	0.136617
O2	O	0.769293	0.401513	0.136614
O3	O	0.930005	0.312268	0.136624
O4	O	0.839935	0.555489	0.136607
O5	O	0.930002	0.312266	-0.136603
O6	O	0.769289	0.401511	-0.136613
O7	O	1.000644	0.466242	-0.136610
Zn8	Zn	0.884966	0.433876	-0.179992
Zn9	Zn	0.884971	0.433879	0.179996
O10	O	0.839931	0.555487	-0.136620
C11	C	0.740405	0.390938	0.000000
C12	C	0.654335	0.359420	-0.000000
C13	C	0.566616	0.240766	0.000006
C14	C	0.647487	0.270391	0.000006
C15	C	0.580307	0.418861	0.000002
C16	C	0.499428	0.389249	0.000011
C17	C	0.492590	0.300200	0.000011
C18	C	0.425403	0.448683	0.000015
C19	C	0.344532	0.419073	0.000015
C20	C	0.337685	0.330028	0.000010
C21	C	0.411719	0.270590	0.000011
C22	C	0.432243	0.537731	0.000003
C23	C	0.358218	0.597165	0.000008
C24	C	0.277344	0.567555	0.000019
C25	C	0.270498	0.478511	0.000015
C26	C	0.203311	0.626993	0.000019
C27	C	0.122439	0.597383	0.000019
C28	C	0.189627	0.448901	0.000014
C29	C	0.939427	0.280419	0.000016
C30	C	0.967497	0.185518	0.000033
C31	C	0.688628	-0.198370	-0.000006
C32	C	0.715024	-0.287540	-0.000010
C33	C	0.863494	-0.258820	-0.000007
C34	C	0.837111	-0.169646	0.000005
C35	C	0.749677	-0.139429	0.000003
C36	C	0.898159	-0.110705	0.000014
C37	C	0.871778	-0.021538	0.000017
C38	C	0.784348	0.008686	0.000010
C39	C	0.723295	-0.050263	0.000006
C40	C	0.985593	-0.140924	0.000004
C41	C	1.046642	-0.081982	0.000013
C42	C	1.020260	0.007186	0.000027
C43	C	0.932830	0.037411	0.000021
C44	C	1.081313	0.066135	0.000032
C45	C	1.054931	0.155301	0.000034
C46	C	0.906449	0.126577	0.000024
C47	C	1.029532	0.476817	0.000008
C48	C	1.115601	0.508335	0.000019
C49	C	0.830510	0.587336	-0.000008
C50	C	0.802439	0.682237	-0.000014
N51	N	0.884969	0.433876	-0.425675
N52	N	0.884976	0.433875	0.425679
H53	H	0.585887	0.491364	-0.000004
H54	H	0.665304	-0.335530	-0.000041
H55	H	1.152501	0.041518	0.000017
H56	H	1.007070	-0.213529	0.000016
H57	H	0.498096	0.561836	-0.000003
H58	H	0.363798	0.669669	0.000002
H59	H	0.835251	0.151181	0.000034
H60	H	0.762869	0.081292	0.000003
H61	H	0.208892	0.699497	0.000003
H62	H	1.117831	-0.106598	0.000008
H63	H	0.062164	0.645781	0.000016
H64	H	0.934683	-0.283436	-0.000012
H65	H	1.104643	0.203294	0.000040
H66	H	0.184060	0.376389	0.000032
H67	H	0.271833	0.305921	-0.000005
H68	H	0.406152	0.198078	0.000028
H69	H	0.707761	0.221985	0.000008
H70	H	0.561049	0.168254	0.000024
H71	H	0.652098	-0.025659	0.000016
H72	H	0.617431	-0.173766	0.000004
