data_functionalizedCrystal
_audit_creation_method	'MofGen! by Chris Wilmer'
_symmetry_space_group_name_H-M	'P1'
_symmetry_Int_Tables_number	1
_symmetry_cell_setting	triclinic
loop_
_symmetry_equiv_pos_as_xyz
  x,y,z
_cell_length_a	10.489768
_cell_length_b	9.565339
_cell_length_c	14.044220
_cell_angle_alpha	90.000736
_cell_angle_beta	91.130317
_cell_angle_gamma	89.998724
loop_
_atom_site_label
_atom_site_type_symbol
_atom_site_fract_x
_atom_site_fract_y
_atom_site_fract_z
O1	O	-1.707619	0.116190	0.133955
O2	O	-1.337699	0.116209	0.146490
O3	O	-1.517106	0.116186	0.002200
O4	O	-1.528211	0.116213	0.278245
O5	O	-1.517092	-0.116334	0.002209
O6	O	-1.337684	-0.116311	0.146499
O7	O	-1.707604	-0.116331	0.133964
Zn8	Zn	-1.522642	-0.153238	0.140233
Zn9	Zn	-1.522661	0.153117	0.140221
O10	O	-1.528197	-0.116307	0.278254
C11	C	-1.290064	-0.000049	0.145542
C12	C	-1.148147	-0.000042	0.142693
N13	N	-1.522638	-0.362318	0.140240
C14	C	-0.985807	-0.000072	0.049187
C15	C	-1.067935	-0.114707	0.095941
C16	C	-1.067907	0.114539	0.095954
C17	C	-0.977418	-0.114809	0.184418
C18	C	-0.977383	0.114540	0.184418
C19	C	-1.059468	-0.000123	0.231237
C20	C	-1.439638	-0.453510	0.206948
C21	C	-1.557082	-0.546693	0.226151
C22	C	-1.405246	-0.546690	0.121045
C23	C	-1.640144	-0.453449	0.159487
C24	C	-1.488228	-0.453438	0.054343
C25	C	-1.605751	-0.546579	0.073510
C26	C	-0.755240	-0.000073	0.134897
C27	C	-0.897160	-0.000079	0.137701
C28	C	-1.512238	-0.000075	-0.033144
C29	C	-1.497738	-0.000076	-0.138470
N30	N	-1.522674	0.362196	0.140206
C31	C	-1.471230	-0.000054	-0.331314
C32	C	-1.574067	-0.000055	-0.388238
C33	C	-1.559318	-0.000043	-0.495543
C34	C	-1.485978	-0.000066	-0.223999
C35	C	-1.533065	-0.000044	0.313598
C36	C	-1.547565	-0.000034	0.418924
H37	H	-0.953280	-0.000196	-0.027785
Br38	Br	-0.911596	-0.276532	0.246663
H39	H	-1.459067	-0.412444	-0.018260
H40	H	-0.937675	0.211471	0.221747
H41	H	-1.673186	0.000033	-0.356383
H42	H	-1.676040	-0.587186	0.017081
Br43	Br	-1.134066	-0.276263	0.033674
Br44	Br	-1.134011	0.276074	0.033643
H45	H	-1.372119	-0.000046	-0.363167
H46	H	-1.369524	-0.412646	0.263412
Br47	Br	-1.113282	-0.000200	0.359626
H48	H	-1.586210	-0.587654	0.298777
H49	H	-1.739467	-0.412664	0.175794
H50	H	-1.305954	-0.587651	0.104825
