data_functionalizedCrystal
_audit_creation_method	'MofGen! by Chris Wilmer'
_symmetry_space_group_name_H-M	'P1'
_symmetry_Int_Tables_number	1
_symmetry_cell_setting	triclinic
loop_
_symmetry_equiv_pos_as_xyz
  x,y,z
_cell_length_a	12.759401
_cell_length_b	18.215404
_cell_length_c	12.759393
_cell_angle_alpha	89.966542
_cell_angle_beta	90.020938
_cell_angle_gamma	89.974652
loop_
_atom_site_label
_atom_site_type_symbol
_atom_site_fract_x
_atom_site_fract_y
_atom_site_fract_z
Zn1	Zn	1.606200	0.292919	0.593998
Zn2	Zn	2.106200	0.792919	1.093998
Zn3	Zn	1.606063	0.416003	0.418310
Zn4	Zn	2.106063	0.916003	0.918310
Zn5	Zn	1.430498	0.292958	0.418334
Zn6	Zn	1.930498	0.792958	0.918334
Zn7	Zn	1.430462	0.415951	0.593947
Zn8	Zn	1.930462	0.915951	1.093947
O9	O	1.518306	0.354458	0.506147
O10	O	2.018306	0.854458	1.006147
O11	O	1.753203	0.309251	0.570705
O12	O	2.253203	0.809251	1.070705
O13	O	1.582732	0.399719	0.271292
O14	O	2.082732	0.899719	0.771292
O15	O	1.453878	0.189968	0.441668
O16	O	1.953878	0.689968	0.941668
O17	O	1.753102	0.399681	0.441627
O18	O	2.253102	0.899681	0.941627
O19	O	1.582965	0.189940	0.570728
O20	O	2.082965	0.689940	1.070728
O21	O	1.453745	0.309318	0.271309
O22	O	1.953745	0.809318	0.771309
O23	O	1.283473	0.309268	0.441618
O24	O	1.783473	0.809268	0.941618
O25	O	1.453817	0.399593	0.740975
O26	O	1.953817	0.899593	1.240975
O27	O	1.283446	0.399631	0.570640
O28	O	1.783446	0.899631	1.070640
O29	O	1.582930	0.309201	0.741013
O30	O	2.082930	0.809201	1.241013
O31	O	1.582697	0.518980	0.441576
O32	O	2.082697	1.018980	0.941576
O33	O	1.453684	0.518942	0.570616
O34	O	1.953684	1.018942	1.070616
C35	C	1.245339	0.354449	0.506126
C36	C	1.745339	0.854449	1.006126
C37	C	1.128562	0.354463	0.506142
C38	C	1.628562	0.854463	1.006142
C39	C	1.073714	0.401586	0.573218
C40	C	1.573714	0.901586	1.073218
C41	C	0.963990	0.401589	0.573239
C42	C	1.463990	0.901589	1.073239
C43	C	0.963972	0.307343	0.439099
C44	C	1.463972	0.807343	0.939099
C45	C	1.073694	0.307337	0.439084
C46	C	1.573694	0.807337	0.939084
C47	C	1.518200	0.545664	0.506111
C48	C	2.018200	1.045664	1.006111
C49	C	1.518251	0.627463	0.506131
C50	C	2.018251	1.127463	1.006131
C51	C	1.585591	0.815652	0.439078
C52	C	2.085591	1.315652	0.939078
C53	C	1.585640	0.892511	0.439109
C54	C	2.085640	1.392511	0.939109
C55	C	1.451182	0.892511	0.573368
C56	C	1.951182	1.392511	1.073368
C57	C	1.451139	0.815654	0.573341
C58	C	1.951139	1.315654	1.073341
C59	C	1.518342	0.777226	0.506190
C60	C	2.018342	1.277226	1.006190
C61	C	1.518434	0.930942	0.506248
C62	C	2.018434	1.430942	1.006248
C63	C	1.518486	1.014276	0.506282
C64	C	2.018486	1.514276	1.006282
C65	C	1.518291	0.693887	0.506157
C66	C	2.018291	1.193887	1.006157
C67	C	1.792339	0.354467	0.506169
C68	C	2.292339	0.854467	1.006169
C69	C	1.909116	0.354471	0.506178
C70	C	2.409116	0.854471	1.006178
C71	C	1.518385	0.354387	0.780181
C72	C	2.018385	0.854387	1.280181
C73	C	1.518418	0.354357	0.896957
C74	C	2.018418	0.854357	1.396957
C75	C	1.518447	1.162505	0.506225
C76	C	2.018447	1.662505	1.006225
C77	C	1.518525	1.080706	0.506307
C78	C	2.018525	1.580706	1.006307
C79	C	1.518288	0.354475	0.233180
C80	C	2.018288	0.854475	0.733180
C81	C	1.518458	0.354298	0.116404
C82	C	2.018458	0.854298	0.616404
C83	C	1.585652	0.307283	0.951841
C84	C	2.085652	0.807283	1.451841
C85	C	1.585670	0.307251	1.061565
C86	C	2.085670	0.807251	1.561565
C87	C	1.451216	0.401374	1.061512
C88	C	1.951216	0.901374	1.561512
C89	C	1.451194	0.401402	0.951790
C90	C	1.951194	0.901402	1.451790
H91	H	1.118352	0.268958	0.384462
H92	H	1.618352	0.768958	0.884462
Cl93	Cl	1.142687	0.460827	0.657524
Cl94	Cl	1.642687	0.960827	1.157524
Cl95	Cl	0.895042	0.460831	0.657569
Cl96	Cl	1.395042	0.960831	1.157569
Cl97	Cl	1.670076	0.767345	0.354662
Cl98	Cl	2.170076	1.267345	0.854662
H99	H	1.640402	0.923793	0.384461
H100	H	2.140402	1.423793	0.884461
Cl101	Cl	0.894987	0.248104	0.354799
Cl102	Cl	1.394987	0.748104	0.854799
Cl103	Cl	1.366700	0.940826	0.657778
Cl104	Cl	1.866700	1.440826	1.157778
Cl105	Cl	1.366596	0.767344	0.657724
Cl106	Cl	1.866596	1.267344	1.157724
Cl107	Cl	1.670158	0.248138	0.882911
Cl108	Cl	2.170158	0.748138	1.382911
H109	H	1.640417	0.268917	1.106246
H110	H	2.140417	0.768917	1.606246
H111	H	1.396487	0.439678	1.106171
H112	H	1.896487	0.939678	1.606171
H113	H	1.396436	0.439735	0.907103
H114	H	1.896436	0.939735	1.407103
