data_functionalizedCrystal
_audit_creation_method	'MofGen! by Chris Wilmer'
_symmetry_space_group_name_H-M	'P1'
_symmetry_Int_Tables_number	1
_symmetry_cell_setting	triclinic
loop_
_symmetry_equiv_pos_as_xyz
  x,y,z
_cell_length_a	15.995350
_cell_length_b	11.026607
_cell_length_c	9.482900
_cell_angle_alpha	78.599815
_cell_angle_beta	80.716666
_cell_angle_gamma	83.960804
loop_
_atom_site_label
_atom_site_type_symbol
_atom_site_fract_x
_atom_site_fract_y
_atom_site_fract_z
O1	O	1.144729	-0.137454	-0.120670
O2	O	0.903870	-0.156762	-0.120719
O3	O	1.004337	0.029545	-0.120693
O4	O	1.044262	-0.323761	-0.120696
O5	O	0.983953	-0.008450	0.121094
O6	O	0.883485	-0.194757	0.121068
O7	O	1.124345	-0.175449	0.121117
Cu8	Cu	1.002054	-0.188572	0.143170
Cu9	Cu	1.026161	-0.143639	-0.142772
O10	O	1.023878	-0.361756	0.121092
C11	C	0.862363	-0.174960	0.000168
C12	C	0.769053	-0.172563	0.000149
C13	C	0.986780	0.055759	0.000197
C14	C	0.964824	0.190474	0.000187
C15	C	1.165852	-0.157250	0.000227
C16	C	1.259163	-0.159646	0.000236
C17	C	1.598211	-0.168234	0.000178
C18	C	1.570730	-0.301007	0.000723
C19	C	1.473724	-0.298530	0.000194
C20	C	1.430005	-0.163974	0.000208
C21	C	1.472842	-0.076831	-0.137867
C22	C	1.569991	-0.080143	-0.137998
C23	C	1.546789	-0.120611	0.136960
C24	C	1.449693	-0.120931	0.138800
C25	C	1.334942	-0.161559	0.000220
C26	C	1.693274	-0.170644	0.000156
C27	C	1.041436	-0.387969	0.000198
C28	C	1.063392	-0.522683	0.000198
N29	N	0.985105	-0.220175	0.344286
C30	C	1.025449	0.264278	0.000198
C31	C	1.002758	0.403514	0.000188
N32	N	1.043115	-0.112026	-0.343887
C33	C	1.021155	-0.152954	0.416494
C34	C	1.007060	-0.179257	0.583908
H35	H	1.444724	-0.365533	0.099166
H36	H	1.132109	0.437448	0.000103
H37	H	1.062450	-0.075925	0.354377
H38	H	0.965755	-0.256282	0.646022
Cl39	Cl	1.455634	-0.354426	-0.152879
H40	H	1.094151	0.224383	0.000221
Cl41	Cl	1.574995	-0.212975	0.298524
H42	H	0.896122	0.230370	0.000164
Cl43	Cl	1.107100	0.006644	0.560225
H44	H	0.934052	0.443404	0.000164
H45	H	0.943802	-0.297195	0.406405
H46	H	1.588923	-0.369600	0.099729
H47	H	1.444247	0.022830	-0.142991
H48	H	1.420998	-0.184771	0.240946
H49	H	1.606571	-0.338332	-0.097743
H50	H	1.604175	-0.111651	-0.241213
H51	H	1.588085	0.018260	-0.144283
Cl52	Cl	1.452961	-0.122079	-0.296506
H53	H	1.418841	-0.024117	0.147144
Cl54	Cl	1.572949	0.030194	0.138413
