data_functionalizedCrystal
_audit_creation_method	'MofGen! by Chris Wilmer'
_symmetry_space_group_name_H-M	'P1'
_symmetry_Int_Tables_number	1
_symmetry_cell_setting	triclinic
loop_
_symmetry_equiv_pos_as_xyz
  x,y,z
_cell_length_a	8.559649
_cell_length_b	7.088929
_cell_length_c	8.559649
_cell_angle_alpha	95.344185
_cell_angle_beta	69.778664
_cell_angle_gamma	84.674985
loop_
_atom_site_label
_atom_site_type_symbol
_atom_site_fract_x
_atom_site_fract_y
_atom_site_fract_z
O1	O	2.108185	0.158958	-0.036318
O2	O	1.632699	0.158965	0.047464
O3	O	1.912333	0.158959	-0.232170
O4	O	1.828551	0.158964	0.243315
O5	O	1.949712	-0.159017	-0.269616
O6	O	1.670079	-0.159011	0.010018
O7	O	2.145564	-0.159018	-0.073764
Cu8	Cu	1.911235	-0.188048	-0.035292
Cu9	Cu	1.867029	0.187995	0.008992
O10	O	1.865931	-0.159012	0.205870
C11	C	1.591080	-0.000022	0.035090
C12	C	1.411380	-0.000019	0.053990
N13	N	1.942338	-0.452537	-0.066441
C14	C	2.187183	-0.000027	-0.061390
C15	C	2.366881	-0.000017	-0.080288
C16	C	1.937372	-0.000026	-0.311201
C17	C	1.956269	-0.000015	-0.490899
N18	N	1.835940	0.452484	0.040127
C19	C	1.840892	-0.000023	0.284902
C20	C	1.821992	-0.000021	0.464601
H21	H	1.311991	-0.000007	0.183419
N22	N	1.689871	-0.439379	0.186417
H23	H	1.692064	-0.297430	0.184207
H24	H	1.581113	-0.474289	0.177819
N25	N	1.498521	-0.000032	-0.251721
H26	H	1.499464	-0.117909	-0.328204
H27	H	1.471684	0.117917	-0.300308
H28	H	2.052625	-0.534195	-0.176874
N29	N	1.650556	-0.000046	-0.403777
H30	H	1.660900	-0.000044	-0.289758
H31	H	1.574170	0.117823	-0.402950
N32	N	2.127712	-0.000027	-0.622547
H33	H	2.176462	0.117848	-0.595764
H34	H	2.204045	-0.117977	-0.623449
