data_functionalizedCrystal
_audit_creation_method	'MofGen! by Chris Wilmer'
_symmetry_space_group_name_H-M	'P1'
_symmetry_Int_Tables_number	1
_symmetry_cell_setting	triclinic
loop_
_symmetry_equiv_pos_as_xyz
  x,y,z
_cell_length_a	14.853559
_cell_length_b	27.732064
_cell_length_c	13.330367
_cell_angle_alpha	90.000086
_cell_angle_beta	89.997552
_cell_angle_gamma	83.140439
loop_
_atom_site_label
_atom_site_type_symbol
_atom_site_fract_x
_atom_site_fract_y
_atom_site_fract_z
O1	O	0.107341	0.641424	-0.083240
O2	O	0.607341	1.141424	0.416760
O3	O	0.123636	0.500708	-0.083281
O4	O	0.623636	1.000708	0.416719
O5	O	-0.015803	0.574827	-0.083258
O6	O	0.484197	1.074827	0.416742
O7	O	0.246780	0.567305	-0.083263
O8	O	0.746780	1.067305	0.416737
O9	O	-0.015805	0.574816	0.083589
O10	O	0.484195	1.074816	0.583589
O11	O	0.123633	0.500697	0.083566
O12	O	0.623633	1.000697	0.583566
O13	O	0.107338	0.641413	0.083607
O14	O	0.607338	1.141413	0.583607
Cu15	Cu	0.115485	0.571054	0.098821
Cu16	Cu	0.615485	1.071054	0.598821
Cu17	Cu	0.115489	0.571067	-0.098495
Cu18	Cu	0.615489	1.071067	0.401505
O19	O	0.246777	0.567294	0.083585
O20	O	0.746777	1.067294	0.583585
C21	C	0.123290	0.482694	0.000138
C22	C	0.623290	0.982694	0.500138
C23	C	0.122253	0.429035	0.000122
C24	C	0.622253	0.929035	0.500122
C25	C	0.032793	0.051545	0.000181
C26	C	0.532793	0.551545	0.500181
C27	C	0.036610	0.253223	0.000154
C28	C	0.536610	0.753223	0.500154
O29	O	-0.032809	0.284152	0.000193
O30	O	0.467191	0.784152	0.500193
N31	N	0.119294	0.272736	0.000149
N32	N	0.619294	0.772736	0.500149
C33	C	0.201030	0.241826	0.000156
C34	C	0.701030	0.741826	0.500156
O35	O	0.271446	0.263050	0.000161
O36	O	0.771446	0.763050	0.500161
C37	C	0.197213	0.040149	0.000189
C38	C	0.697213	0.540149	0.500189
C39	C	0.114523	0.020639	0.000185
C40	C	0.614523	0.520639	0.500185
C41	C	-0.049890	0.032035	0.000177
C42	C	0.450110	0.532035	0.500177
C43	C	-0.050843	-0.018382	0.000178
C44	C	0.449157	0.481618	0.500178
C45	C	0.030887	-0.049288	0.000183
C46	C	0.530887	0.450712	0.500183
C47	C	0.113570	-0.029778	0.000186
C48	C	0.613570	0.470222	0.500186
C49	C	0.278948	0.009240	0.000204
C50	C	0.778948	0.509240	0.500204
C51	C	0.277987	-0.041182	0.000215
C52	C	0.777987	0.458818	0.500215
C53	C	0.195297	-0.060692	0.000210
C54	C	0.695297	0.439308	0.500210
C55	C	0.194347	-0.111100	0.000191
C56	C	0.694347	0.388900	0.500191
N57	N	0.111662	-0.130613	0.000197
N58	N	0.611662	0.369387	0.500197
C59	C	0.029932	-0.099707	0.000193
C60	C	0.529932	0.400293	0.500193
C61	C	0.203029	0.347710	0.000136
C62	C	0.703029	0.847710	0.500136
C63	C	0.203983	0.398129	0.000126
C64	C	0.703983	0.898129	0.500126
C65	C	0.039562	0.409523	0.000127
C66	C	0.539562	0.909523	0.500127
C67	C	0.038608	0.359103	0.000130
C68	C	0.538608	0.859103	0.500130
C69	C	0.120344	0.328197	0.000142
C70	C	0.620344	0.828197	0.500142
C71	C	0.027937	-0.205586	0.000194
C72	C	0.527937	0.294414	0.500194
C73	C	0.026991	-0.256007	0.000191
C74	C	0.526991	0.243993	0.500191
C75	C	0.191411	-0.267397	0.000196
C76	C	0.691411	0.232603	0.500196
C77	C	0.192358	-0.216980	0.000194
C78	C	0.692358	0.283020	0.500194
C79	C	0.110613	-0.186075	0.000196
C80	C	0.610613	0.313925	0.500196
O81	O	0.263728	-0.142058	0.000164
O82	O	0.763728	0.357942	0.500164
O83	O	-0.040473	-0.120941	0.000210
O84	O	0.459527	0.379059	0.500210
C85	C	0.033747	0.101962	0.000179
C86	C	0.533747	0.601962	0.500179
C87	C	0.116430	0.121472	0.000183
C88	C	0.616430	0.621472	0.500183
C89	C	0.198160	0.090566	0.000187
C90	C	0.698160	0.590566	0.500187
C91	C	0.117384	0.171891	0.000173
C92	C	0.617384	0.671891	0.500173
C93	C	0.035654	0.202797	0.000168
C94	C	0.535654	0.702797	0.500168
C95	C	-0.047030	0.183285	0.000174
C96	C	0.452970	0.683285	0.500174
C97	C	-0.047983	0.132868	0.000175
C98	C	0.452017	0.632868	0.500175
C99	C	0.280844	0.110079	0.000181
C100	C	0.780844	0.610079	0.500181
C101	C	0.281790	0.160496	0.000179
C102	C	0.781790	0.660496	0.500179
C103	C	0.200061	0.191402	0.000175
C104	C	0.700061	0.691402	0.500175
C105	C	-0.049387	0.574482	0.000163
C106	C	0.450613	1.074482	0.500163
C107	C	-0.149455	0.573462	0.000157
C108	C	0.350545	1.073462	0.500157
C109	C	-0.572559	0.569145	-0.090792
C110	C	-0.072559	1.069145	0.409208
C111	C	-0.572556	0.569133	0.091111
C112	C	-0.072556	1.069133	0.591111
C113	C	-0.478539	0.570095	0.091112
C114	C	0.021461	1.070095	0.591112
C115	C	-0.431526	0.570581	0.000159
C116	C	0.068474	1.070581	0.500159
C117	C	-0.478532	0.570105	-0.090794
C118	C	0.021468	1.070105	0.409206
C119	C	-0.431525	0.570565	0.182064
C120	C	0.068475	1.070565	0.682064
C121	C	-0.337501	0.571526	0.182069
C122	C	0.162499	1.071526	0.682069
C123	C	-0.290488	0.572016	0.091115
C124	C	0.209512	1.072016	0.591115
C125	C	-0.337500	0.571541	0.000158
C126	C	0.162500	1.071541	0.500158
C127	C	-0.290487	0.572027	-0.090795
C128	C	0.209513	1.072027	0.409205
C129	C	-0.337498	0.571555	-0.181753
C130	C	0.162502	1.071555	0.318247
C131	C	-0.431519	0.570595	-0.181748
C132	C	0.068481	1.070595	0.318252
C133	C	-0.196467	0.572976	0.091110
C134	C	0.303533	1.072976	0.591110
C135	C	-0.196460	0.572987	-0.090796
C136	C	0.303540	1.072987	0.409204
C137	C	0.280361	0.567640	0.000161
C138	C	0.780361	1.067640	0.500161
C139	C	0.380429	0.568659	0.000160
C140	C	0.880429	1.068659	0.500160
C141	C	0.107684	0.659427	0.000186
C142	C	0.607684	1.159427	0.500186
C143	C	0.108721	0.713086	0.000195
C144	C	0.608721	1.213086	0.500195
N145	N	0.115482	0.571049	0.237603
N146	N	0.615482	1.071049	0.737603
N147	N	0.115485	0.571076	-0.237276
N148	N	0.615485	1.071076	0.262724
C149	C	0.177208	0.538246	0.710216
C150	C	0.677208	1.038246	1.210216
C151	C	0.053762	0.603901	0.710203
C152	C	0.553762	1.103901	1.210203
C153	C	0.053759	0.603896	0.605185
C154	C	0.553759	1.103896	1.105185
C155	C	0.115483	0.571065	0.552677
C156	C	0.615483	1.071065	1.052677
C157	C	0.177209	0.538240	0.605187
C158	C	0.677209	1.038240	1.105187
C159	C	-0.007959	0.636724	0.552667
C160	C	0.492041	1.136724	1.052667
C161	C	-0.007964	0.636720	0.447642
C162	C	0.492036	1.136720	0.947642
C163	C	0.053756	0.603887	0.395132
C164	C	0.553756	1.103887	0.895132
C165	C	0.115484	0.571060	0.447649
C166	C	0.615484	1.071060	0.947649
C167	C	0.177207	0.538229	0.395141
C168	C	0.677207	1.038229	0.895141
C169	C	0.238932	0.505400	0.447656
C170	C	0.738932	1.005400	0.947656
C171	C	0.238929	0.505407	0.552678
C172	C	0.738929	1.005407	1.052678
C173	C	0.053759	0.603880	0.290111
C174	C	0.553759	1.103880	0.790111
C175	C	0.177208	0.538224	0.290113
C176	C	0.677208	1.038224	0.790113
H177	H	-0.118177	-0.034261	0.000179
H178	H	0.381823	0.465739	0.500179
H179	H	-0.610839	0.568734	0.165160
H180	H	-0.110839	1.068734	0.665160
H181	H	-0.299207	0.571947	-0.255806
H182	H	0.200793	1.071947	0.244194
H183	H	0.347400	0.084919	0.000186
H184	H	0.847400	0.584919	0.500186
C185	C	-0.144754	0.573522	-0.190853
C186	C	0.355246	1.073522	0.309147
N187	N	-0.105810	0.573924	-0.266217
N188	N	0.394190	1.073924	0.233783
H189	H	-0.299234	0.571912	0.256132
H190	H	0.200766	1.071912	0.756132
H191	H	-0.026986	0.434695	0.000119
H192	H	0.473014	0.934695	0.500119
H193	H	-0.038628	-0.180428	0.000196
H194	H	0.461372	0.319572	0.500196
H195	H	0.003513	0.630634	0.752959
H196	H	0.503513	1.130634	1.252959
C197	C	0.367905	-0.075176	0.000225
C198	C	0.867905	0.424824	0.500225
N199	N	0.435631	-0.100779	0.000230
N200	N	0.935631	0.399221	0.500230
C201	C	-0.075850	0.672835	0.610431
C202	C	0.424150	1.172835	1.110431
N203	N	-0.126991	0.700034	0.653945
N204	N	0.373009	1.200034	1.153945
H205	H	-0.469803	0.570210	-0.255801
H206	H	0.030197	1.070210	0.244199
C207	C	-0.063978	-0.277464	0.000195
C208	C	0.436022	0.222536	0.500195
N209	N	-0.132494	-0.293624	0.000203
N210	N	0.367506	0.206376	0.500203
C211	C	0.372762	0.181950	0.000188
C212	C	0.872762	0.681950	0.500188
N213	N	0.441280	0.198107	0.000206
N214	N	0.941280	0.698107	0.500206
C215	C	-0.624270	0.568625	-0.190842
C216	C	-0.124270	1.068625	0.309158
N217	N	-0.663220	0.568233	-0.266200
N218	N	-0.163220	1.068233	0.233800
H219	H	-0.469809	0.570167	0.256112
H220	H	0.030191	1.070167	0.756112
C221	C	0.306826	0.469288	0.389884
C222	C	0.806826	0.969288	0.889884
N223	N	0.357962	0.442088	0.346365
N224	N	0.857962	0.942088	0.846365
C225	C	-0.144760	0.573495	0.191158
C226	C	0.355240	1.073495	0.691158
N227	N	-0.105816	0.573887	0.266519
N228	N	0.394184	1.073887	0.766519
C229	C	0.306815	0.469295	0.610452
C230	C	0.806815	0.969295	1.110452
N231	N	0.357946	0.442096	0.653971
N232	N	0.857946	0.942096	1.153971
H233	H	0.227468	0.511487	0.247367
H234	H	0.727468	1.011487	0.747367
H235	H	0.227461	0.511515	0.752976
H236	H	0.727461	1.011515	1.252976
C237	C	-0.075868	0.672829	0.389885
C238	C	0.424132	1.172829	0.889885
N239	N	-0.127018	0.700025	0.346382
N240	N	0.372982	1.200025	0.846382
C241	C	0.283320	-0.195518	0.000187
C242	C	0.783320	0.304482	0.500187
N243	N	0.351835	-0.179357	0.000192
N244	N	0.851835	0.320643	0.500192
H245	H	0.003508	0.630611	0.247358
H246	H	0.503508	1.130611	0.747358
H247	H	-0.028725	0.343222	0.000127
H248	H	0.471275	0.843222	0.500127
C249	C	-0.139808	0.066025	0.000168
C250	C	0.360192	0.566025	0.500168
N251	N	-0.207540	0.091623	0.000153
N252	N	0.292460	0.591623	0.500153
H253	H	0.271317	0.414009	0.000116
H254	H	0.771317	0.914009	0.500116
H255	H	0.346283	0.025115	0.000203
H256	H	0.846283	0.525115	0.500203
C257	C	0.292951	0.313719	0.000154
C258	C	0.792951	0.813719	0.500154
N259	N	0.360681	0.288119	0.000166
N260	N	0.860681	0.788119	0.500166
H261	H	0.257954	-0.292570	0.000194
H262	H	0.757954	0.207430	0.500194
H263	H	-0.115318	0.116988	0.000172
H264	H	0.384682	0.616988	0.500172
C265	C	-0.136933	0.217291	0.000175
C266	C	0.363067	0.717291	0.500175
N267	N	-0.204644	0.242907	0.000184
N268	N	0.295356	0.742907	0.500184
