data_functionalizedCrystal
_audit_creation_method	'MofGen! by Chris Wilmer'
_symmetry_space_group_name_H-M	'P1'
_symmetry_Int_Tables_number	1
_symmetry_cell_setting	triclinic
loop_
_symmetry_equiv_pos_as_xyz
  x,y,z
_cell_length_a	29.839133
_cell_length_b	29.839134
_cell_length_c	16.120297
_cell_angle_alpha	87.135127
_cell_angle_beta	92.878609
_cell_angle_gamma	89.978030
loop_
_atom_site_label
_atom_site_type_symbol
_atom_site_fract_x
_atom_site_fract_y
_atom_site_fract_z
Zn1	Zn	-0.191844	-0.673899	-0.471728
Zn2	Zn	0.141489	-0.340565	-0.138395
Zn3	Zn	0.474823	-0.007232	0.194938
Zn4	Zn	-0.263163	-0.677646	-0.332335
Zn5	Zn	0.070170	-0.344312	0.000998
Zn6	Zn	0.403504	-0.010979	0.334332
Zn7	Zn	-0.188037	-0.602582	-0.332299
Zn8	Zn	0.145297	-0.269249	0.001034
Zn9	Zn	0.478630	0.064085	0.334367
Zn10	Zn	-0.266936	-0.598746	-0.471666
Zn11	Zn	0.066397	-0.265413	-0.138333
Zn12	Zn	0.399731	0.067920	0.195000
O13	O	-0.227495	-0.638218	-0.402007
O14	O	0.105838	-0.304885	-0.068674
O15	O	0.439172	0.028449	0.264659
O16	O	-0.201319	-0.737262	-0.453278
O17	O	0.132014	-0.403928	-0.119945
O18	O	0.465348	-0.070595	0.213388
O19	O	-0.250025	-0.670862	-0.215668
O20	O	0.083308	-0.337528	0.117665
O21	O	0.416642	-0.004195	0.450999
O22	O	-0.125675	-0.612079	-0.350806
O23	O	0.207658	-0.278746	-0.017473
O24	O	0.540992	0.054587	0.315861
O25	O	-0.253717	-0.740015	-0.350867
O26	O	0.079617	-0.406681	-0.017533
O27	O	0.412950	-0.073348	0.315800
O28	O	-0.128472	-0.664475	-0.453244
O29	O	0.204861	-0.331142	-0.119911
O30	O	0.538195	0.002191	0.213423
O31	O	-0.194830	-0.615713	-0.215642
O32	O	0.138503	-0.282379	0.117691
O33	O	0.471837	0.050954	0.451025
O34	O	-0.198489	-0.539207	-0.350746
O35	O	0.134845	-0.205874	-0.017412
O36	O	0.468178	0.127460	0.315921
O37	O	-0.260147	-0.605542	-0.588337
O38	O	0.073186	-0.272209	-0.255003
O39	O	0.406519	0.061125	0.078330
O40	O	-0.256456	-0.536389	-0.453138
O41	O	0.076878	-0.203056	-0.119805
O42	O	0.410211	0.130277	0.213529
O43	O	-0.204977	-0.660756	-0.588382
O44	O	0.128356	-0.327423	-0.255049
O45	O	0.461689	0.005910	0.078284
O46	O	-0.326530	-0.667143	-0.350806
O47	O	0.006803	-0.333809	-0.017473
O48	O	0.340136	-0.000476	0.315860
O49	O	-0.329302	-0.609176	-0.453172
O50	O	0.004031	-0.275842	-0.119839
O51	O	0.337364	0.057491	0.213494
C52	C	-0.227469	-0.521498	-0.401932
C53	C	0.105865	-0.188164	-0.068598
C54	C	0.439198	0.145169	0.264735
C55	C	-0.227469	-0.471564	-0.401919
C56	C	0.105864	-0.138230	-0.068586
C57	C	0.439198	0.195103	0.264748
C58	C	-0.197268	-0.116427	-0.348771
C59	C	0.136066	0.216907	-0.015438
C60	C	0.469399	0.550240	0.317896
C61	C	-0.197255	-0.304101	-0.348731
C62	C	0.136078	0.029233	-0.015398
C63	C	0.469411	0.362566	0.317936
O64	O	-0.171540	-0.329600	-0.303483
O65	O	0.161794	0.003733	0.029850
O66	O	0.495127	0.337067	0.363183
N67	N	-0.227476	-0.326117	-0.401953
N68	N	0.105857	0.007216	-0.068620
N69	N	0.439191	0.340549	0.264714
C70	C	-0.257700	-0.301213	-0.455193
C71	C	0.075633	0.032121	-0.121859
C72	C	0.408966	0.365454	0.211474
O73	O	-0.283402	-0.324245	-0.500466
O74	O	0.049932	0.009088	-0.167133
O75	O	0.383265	0.342421	0.166200
C76	C	-0.257710	-0.113539	-0.455236
C77	C	0.075623	0.219794	-0.121903
C78	C	0.408956	0.553127	0.211430
C79	C	-0.227491	-0.091525	-0.402005
C80	C	0.105843	0.241808	-0.068672
C81	C	0.439176	0.575141	0.264662
C82	C	-0.167050	-0.094412	-0.295545
C83	C	0.166283	0.238921	0.037789
C84	C	0.499616	0.572254	0.371122
C85	C	-0.167055	-0.047497	-0.295552
C86	C	0.166278	0.285837	0.037781
C87	C	0.499611	0.619170	0.371115
C88	C	-0.197278	-0.022595	-0.348786
C89	C	0.136055	0.310738	-0.015452
C90	C	0.469389	0.644071	0.317881
C91	C	-0.227496	-0.044610	-0.402012
C92	C	0.105838	0.288724	-0.068679
C93	C	0.439171	0.622057	0.264654
C94	C	-0.287932	-0.088635	-0.508480
C95	C	0.045401	0.244698	-0.175146
C96	C	0.378735	0.578032	0.158187
C97	C	-0.287931	-0.041714	-0.508487
C98	C	0.045402	0.291619	-0.175154
C99	C	0.378736	0.624953	0.158179
C100	C	-0.257711	-0.019700	-0.455256
C101	C	0.075622	0.313634	-0.121922
C102	C	0.408955	0.646967	0.211411
C103	C	-0.257723	0.027208	-0.455253
C104	C	0.075610	0.360541	-0.121920
C105	C	0.408943	0.693874	0.211413
N106	N	-0.227503	0.049224	-0.402031
N107	N	0.105831	0.382558	-0.068698
N108	N	0.439164	0.715891	0.264635
C109	C	-0.197280	0.024323	-0.348798
C110	C	0.136053	0.357656	-0.015464
C111	C	0.469387	0.690990	0.317869
C112	C	-0.257693	-0.399744	-0.455165
C113	C	0.075640	-0.066411	-0.121831
C114	C	0.408973	0.266923	0.211502
C115	C	-0.257692	-0.446662	-0.455153
C116	C	0.075642	-0.113329	-0.121820
C117	C	0.408975	0.220005	0.211514
C118	C	-0.197246	-0.449547	-0.348692
C119	C	0.136087	-0.116214	-0.015359
C120	C	0.469421	0.217120	0.317974
C121	C	-0.197250	-0.402628	-0.348700
C122	C	0.136083	-0.069295	-0.015367
C123	C	0.469416	0.264039	0.317966
C124	C	-0.227473	-0.377727	-0.401943
C125	C	0.105861	-0.044394	-0.068609
C126	C	0.439194	0.288939	0.264724
C127	C	-0.197293	0.122849	-0.348817
C128	C	0.136040	0.456183	-0.015483
C129	C	0.469374	0.789516	0.317850
C130	C	-0.197302	0.169769	-0.348826
C131	C	0.136031	0.503102	-0.015493
C132	C	0.469365	0.836436	0.317841
C133	C	-0.257746	0.172650	-0.455290
C134	C	0.075587	0.505983	-0.121956
C135	C	0.408921	0.839317	0.211377
C136	C	-0.257739	0.125734	-0.455277
C137	C	0.075595	0.459067	-0.121944
C138	C	0.408928	0.792401	0.211389
C139	C	-0.227509	0.100835	-0.402038
C140	C	0.105825	0.434168	-0.068705
C141	C	0.439158	0.767501	0.264629
O142	O	-0.283422	0.052735	-0.500484
O143	O	0.049911	0.386069	-0.167151
O144	O	0.383245	0.719402	0.166183
O145	O	-0.171576	0.047364	-0.303544
O146	O	0.161758	0.380698	0.029790
O147	O	0.495091	0.714031	0.363123
C148	C	-0.197263	-0.163342	-0.348764
C149	C	0.136071	0.169991	-0.015430
C150	C	0.469404	0.503324	0.317903
C151	C	-0.227480	-0.185356	-0.401990
C152	C	0.105853	0.147977	-0.068657
C153	C	0.439186	0.481310	0.264677
C154	C	-0.257703	-0.160455	-0.455224
C155	C	0.075630	0.172878	-0.121891
C156	C	0.408964	0.506212	0.211443
C157	C	-0.227479	-0.232275	-0.401978
C158	C	0.105855	0.101059	-0.068645
C159	C	0.439188	0.434392	0.264688
C160	C	-0.197256	-0.257176	-0.348745
C161	C	0.136078	0.076157	-0.015411
C162	C	0.469411	0.409491	0.317922
C163	C	-0.167035	-0.235159	-0.295523
C164	C	0.166298	0.098174	0.037811
C165	C	0.499632	0.431507	0.371144
C166	C	-0.167040	-0.188244	-0.295530
C167	C	0.166293	0.145090	0.037803
C168	C	0.499627	0.478423	0.371137
C169	C	-0.287924	-0.182472	-0.508446
C170	C	0.045409	0.150862	-0.175113
C171	C	0.378743	0.484195	0.158221
C172	C	-0.287917	-0.229388	-0.508434
C173	C	0.045417	0.103946	-0.175100
C174	C	0.378750	0.437279	0.158233
C175	C	-0.257694	-0.254289	-0.455200
C176	C	0.075639	0.079044	-0.121866
C177	C	0.408973	0.412378	0.211467
C178	C	-0.344217	-0.638161	-0.402005
C179	C	-0.010884	-0.304828	-0.068671
C180	C	0.322449	0.028505	0.264662
C181	C	-0.394153	-0.638177	-0.402032
C182	C	-0.060819	-0.304844	-0.068698
C183	C	0.272514	0.028490	0.264635
C184	C	-0.752162	-0.665516	-0.455408
C185	C	-0.418829	-0.332182	-0.122074
C186	C	-0.085496	0.001151	0.211259
C187	C	-0.564489	-0.665473	-0.455407
C188	C	-0.231156	-0.332140	-0.122073
C189	C	0.102178	0.001194	0.211260
O190	O	-0.541434	-0.688660	-0.500777
O191	O	-0.208100	-0.355326	-0.167443
O192	O	0.125233	-0.021993	0.165890
N193	N	-0.539598	-0.638213	-0.402030
N194	N	-0.206264	-0.304879	-0.068696
N195	N	0.127069	0.028454	0.264637
C196	C	-0.561627	-0.610963	-0.348645
C197	C	-0.228294	-0.277630	-0.015312
C198	C	0.105040	0.055704	0.318021
O199	O	-0.536149	-0.587779	-0.303239
O200	O	-0.202816	-0.254445	0.030095
O201	O	0.130518	0.078888	0.363428
C202	C	-0.749299	-0.611008	-0.348643
C203	C	-0.415966	-0.277675	-0.015309
C204	C	-0.082633	0.055658	0.318024
C205	C	-0.774189	-0.638267	-0.402029
C206	C	-0.440855	-0.304934	-0.068696
C207	C	-0.107522	0.028400	0.264637
C208	C	-0.777051	-0.692773	-0.508789
C209	C	-0.443718	-0.359439	-0.175456
C210	C	-0.110385	-0.026106	0.157877
C211	C	-0.823967	-0.692781	-0.508792
C212	C	-0.490634	-0.359448	-0.175459
C213	C	-0.157300	-0.026115	0.157874
C214	C	-0.845993	-0.665533	-0.455414
C215	C	-0.512660	-0.332199	-0.122080
C216	C	-0.179327	0.001134	0.211253
C217	C	-0.821104	-0.638276	-0.402032
C218	C	-0.487771	-0.304942	-0.068699
C219	C	-0.154437	0.028391	0.264635
C220	C	-0.771328	-0.583761	-0.295255
C221	C	-0.437994	-0.250428	0.038079
C222	C	-0.104661	0.082905	0.371412
C223	C	-0.818249	-0.583776	-0.295257
C224	C	-0.484916	-0.250443	0.038076
C225	C	-0.151582	0.082891	0.371409
C226	C	-0.843138	-0.611035	-0.348644
C227	C	-0.509805	-0.277701	-0.015310
C228	C	-0.176471	0.055632	0.318023
C229	C	-0.890046	-0.611036	-0.348656
C230	C	-0.556713	-0.277702	-0.015323
C231	C	-0.223379	0.055631	0.318010
N232	N	-0.914937	-0.638296	-0.402033
N233	N	-0.581604	-0.304963	-0.068700
N234	N	-0.248271	0.028370	0.264633
C235	C	-0.892911	-0.665545	-0.455412
C236	C	-0.559578	-0.332211	-0.122079
C237	C	-0.226244	0.001122	0.211255
C238	C	-0.463097	-0.610941	-0.348652
C239	C	-0.129763	-0.277607	-0.015318
C240	C	0.203570	0.055726	0.318015
C241	C	-0.416179	-0.610929	-0.348653
C242	C	-0.082846	-0.277595	-0.015320
C243	C	0.250488	0.055738	0.318014
C244	C	-0.419044	-0.665439	-0.455414
C245	C	-0.085711	-0.332106	-0.122080
C246	C	0.247623	0.001227	0.211253
C247	C	-0.465963	-0.665449	-0.455416
C248	C	-0.132630	-0.332115	-0.122082
C249	C	0.200704	0.001218	0.211251
C250	C	-0.487988	-0.638201	-0.402029
C251	C	-0.154655	-0.304868	-0.068695
C252	C	0.178679	0.028466	0.264638
C253	C	-0.991437	-0.665560	-0.455415
C254	C	-0.658104	-0.332227	-0.122081
C255	C	-0.324770	0.001106	0.211252
C256	C	-1.038357	-0.665565	-0.455415
C257	C	-0.705023	-0.332232	-0.122082
C258	C	-0.371690	0.001102	0.211251
C259	C	-1.035487	-0.611056	-0.348652
C260	C	-0.702154	-0.277723	-0.015319
C261	C	-0.368821	0.055611	0.318015
C262	C	-0.988572	-0.611049	-0.348654
C263	C	-0.655238	-0.277716	-0.015321
C264	C	-0.321905	0.055617	0.318013
C265	C	-0.966548	-0.638305	-0.402038
C266	C	-0.633215	-0.304972	-0.068705
C267	C	-0.299881	0.028362	0.264628
O268	O	-0.913131	-0.587865	-0.303304
O269	O	-0.579797	-0.254532	0.030030
O270	O	-0.246464	0.078801	0.363363
O271	O	-0.918397	-0.688733	-0.500799
O272	O	-0.585063	-0.355400	-0.167465
O273	O	-0.251730	-0.022066	0.165868
C274	C	-0.705247	-0.665507	-0.455405
C275	C	-0.371913	-0.332174	-0.122072
C276	C	-0.038580	0.001160	0.211262
C277	C	-0.680357	-0.638250	-0.402023
C278	C	-0.347024	-0.304917	-0.068690
C279	C	-0.013691	0.028417	0.264643
C280	C	-0.702384	-0.611002	-0.348645
C281	C	-0.369050	-0.277668	-0.015311
C282	C	-0.035717	0.055665	0.318022
C283	C	-0.633440	-0.638238	-0.402025
C284	C	-0.300106	-0.304905	-0.068692
C285	C	0.033227	0.028429	0.264642
C286	C	-0.611413	-0.665487	-0.455403
C287	C	-0.278080	-0.332153	-0.122070
C288	C	0.055253	0.001180	0.211263
C289	C	-0.636305	-0.692747	-0.508781
C290	C	-0.302971	-0.359414	-0.175447
C291	C	0.030362	-0.026080	0.157886
C292	C	-0.683220	-0.692756	-0.508783
C293	C	-0.349887	-0.359422	-0.175450
C294	C	-0.016554	-0.026089	0.157883
C295	C	-0.677492	-0.583741	-0.295268
C296	C	-0.344159	-0.250408	0.038066
C297	C	-0.010826	0.082926	0.371399
C298	C	-0.630577	-0.583734	-0.295270
C299	C	-0.297244	-0.250401	0.038064
C300	C	0.036090	0.082932	0.371397
C301	C	-0.608551	-0.610983	-0.348648
C302	C	-0.275217	-0.277650	-0.015315
C303	C	0.058116	0.055684	0.318018
C304	C	-0.110317	-0.638287	-0.402028
C305	C	0.223016	-0.304954	-0.068695
C306	C	0.556350	0.028380	0.264639
C307	C	-0.060383	-0.638316	-0.402037
C308	C	0.272950	-0.304983	-0.068703
C309	C	0.606284	0.028350	0.264630
C310	C	-0.233408	-0.632303	-0.619454
C311	C	0.099925	-0.298970	-0.286121
C312	C	0.433259	0.034363	0.047212
C313	C	-0.235928	-0.629783	-0.712117
C314	C	0.097406	-0.296450	-0.378784
C315	C	0.430739	0.036884	-0.045451
C316	C	-0.227520	0.244605	-0.402069
C317	C	0.105814	0.577939	-0.068736
C318	C	0.439147	0.911272	0.264597
C319	C	-0.227525	0.194671	-0.402060
C320	C	0.105809	0.528004	-0.068727
C321	C	0.439142	0.861337	0.264607
C322	C	-0.240518	-0.625164	-0.881774
C323	C	0.092815	-0.291831	-0.548440
C324	C	0.426149	0.041502	-0.215107
C325	C	-0.214337	-0.651360	-0.923092
C326	C	0.118996	-0.318027	-0.589759
C327	C	0.452329	0.015306	-0.256426
C328	C	-0.216891	-0.648791	-1.017495
C329	C	0.116442	-0.315457	-0.684162
C330	C	0.449775	0.017876	-0.350828
C331	C	-0.237964	-0.627734	-0.787363
C332	C	0.095369	-0.294400	-0.454029
C333	C	0.428702	0.038933	-0.120696
C334	C	-0.221573	-0.644136	-0.185406
C335	C	0.111761	-0.310802	0.147927
C336	C	0.445094	0.022531	0.481261
C337	C	-0.218926	-0.646743	-0.092743
C338	C	0.114407	-0.313410	0.240590
C339	C	0.447740	0.019923	0.573923
H340	H	-0.172693	0.187691	-0.305476
H341	H	0.160641	0.521024	0.027857
H342	H	0.493974	0.854357	0.361190
Br343	Br	-0.606403	-0.729724	-0.581227
Br344	Br	-0.273069	-0.396391	-0.247894
Br345	Br	0.060264	-0.063057	0.085439
Br346	Br	-0.156266	0.089065	-0.276562
Br347	Br	0.177067	0.422398	0.056771
Br348	Br	0.510400	0.755731	0.390104
Br349	Br	-0.126036	-0.017628	-0.223314
Br350	Br	0.207297	0.315706	0.110020
Br351	Br	0.540631	0.649039	0.443353
Br352	Br	-0.848137	-0.546797	-0.222795
Br353	Br	-0.514804	-0.213464	0.110538
Br354	Br	-0.181471	0.119870	0.443872
Br355	Br	-0.126026	-0.128199	-0.223292
Br356	Br	0.207307	0.205135	0.110042
Br357	Br	0.540640	0.538468	0.443375
Br358	Br	-0.328947	-0.118499	-0.580727
Br359	Br	0.004386	0.214834	-0.247393
Br360	Br	0.337719	0.548167	0.085940
H361	H	-0.968307	-0.588848	-0.305190
H362	H	-0.634973	-0.255515	0.028143
H363	H	-0.301640	0.077819	0.361476
H364	H	-0.481025	-0.588751	-0.305175
H365	H	-0.147692	-0.255418	0.028158
H366	H	0.185642	0.077916	0.361492
Br367	Br	-0.328948	-0.007922	-0.580753
Br368	Br	0.004386	0.325411	-0.247419
Br369	Br	0.337719	0.658744	0.085914
H370	H	-0.264849	-0.600810	-0.917296
H371	H	0.068485	-0.267477	-0.583963
H372	H	0.401818	0.065857	-0.250630
Br373	Br	-0.173792	-0.691968	-0.863887
Br374	Br	0.159542	-0.358634	-0.530554
Br375	Br	0.492875	-0.025301	-0.197220
Br376	Br	-0.156237	-0.372757	-0.276455
Br377	Br	0.177097	-0.039424	0.056878
Br378	Br	0.510430	0.293910	0.390211
Br379	Br	-0.857738	-0.729776	-0.581253
Br380	Br	-0.524405	-0.396442	-0.247919
Br381	Br	-0.191072	-0.063109	0.085414
Br382	Br	-0.156230	-0.483351	-0.276445
Br383	Br	0.177103	-0.150017	0.056888
Br384	Br	0.510437	0.183316	0.390221
H385	H	-0.282304	-0.464582	-0.498490
H386	H	0.051029	-0.131249	-0.165157
H387	H	0.384363	0.202085	0.168176
H388	H	-0.282306	-0.379474	-0.498523
H389	H	0.051027	-0.046140	-0.165189
H390	H	0.384361	0.287193	0.168144
H391	H	-0.759122	-0.714964	-0.552256
H392	H	-0.425789	-0.381630	-0.218923
H393	H	-0.092455	-0.048297	0.114410
H394	H	-0.282349	0.107809	-0.498616
H395	H	0.050984	0.441143	-0.165283
H396	H	0.384317	0.774476	0.168050
H397	H	-1.058620	-0.687762	-0.498894
H398	H	-0.725286	-0.354428	-0.165561
H399	H	-0.391953	-0.021095	0.167773
H400	H	-0.486225	-0.687643	-0.498891
H401	H	-0.152892	-0.354310	-0.165558
H402	H	0.180442	-0.020977	0.167775
H403	H	-0.401103	-0.687626	-0.498878
H404	H	-0.067769	-0.354292	-0.165545
H405	H	0.265564	-0.020959	0.167789
Br406	Br	-0.737561	-0.546760	-0.222805
Br407	Br	-0.404228	-0.213427	0.110529
Br408	Br	-0.070895	0.119907	0.443862
H409	H	-0.395917	-0.588727	-0.305190
H410	H	-0.062584	-0.255393	0.028143
H411	H	0.270749	0.077940	0.361477
Br412	Br	-0.596804	-0.546732	-0.222818
Br413	Br	-0.263471	-0.213399	0.110516
Br414	Br	0.069862	0.119935	0.443849
H415	H	-0.282354	0.192933	-0.498628
H416	H	0.050979	0.526266	-0.165295
H417	H	0.384313	0.859600	0.168038
H418	H	-1.053430	-0.588870	-0.305194
H419	H	-0.720096	-0.255537	0.028139
H420	H	-0.386763	0.077797	0.361472
H421	H	-0.703481	-0.714952	-0.552257
H422	H	-0.370148	-0.381619	-0.218924
H423	H	-0.036815	-0.048286	0.114410
H424	H	-0.142432	-0.170324	-0.252184
H425	H	0.190902	0.163009	0.081149
H426	H	0.524235	0.496343	0.414483
H427	H	-0.142428	-0.255442	-0.252175
H428	H	0.190905	0.077891	0.081158
H429	H	0.524239	0.411224	0.414492
H430	H	-0.312529	-0.247307	-0.551780
H431	H	0.020804	0.086026	-0.218446
H432	H	0.354137	0.419359	0.114887
H433	H	-0.312535	-0.162202	-0.551797
H434	H	0.020798	0.171132	-0.218464
H435	H	0.354132	0.504465	0.114870
H436	H	-0.973511	-0.687755	-0.498884
H437	H	-0.640177	-0.354422	-0.165551
H438	H	-0.306844	-0.021088	0.167783
H439	H	-0.695421	-0.561552	-0.251798
H440	H	-0.362088	-0.228219	0.081535
H441	H	-0.028755	0.105114	0.414869
