data_functionalizedCrystal
_audit_creation_method	'MofGen! by Chris Wilmer'
_symmetry_space_group_name_H-M	'P1'
_symmetry_Int_Tables_number	1
_symmetry_cell_setting	triclinic
loop_
_symmetry_equiv_pos_as_xyz
  x,y,z
_cell_length_a	9.065215
_cell_length_b	16.109304
_cell_length_c	7.540329
_cell_angle_alpha	89.999220
_cell_angle_beta	89.997574
_cell_angle_gamma	84.238668
loop_
_atom_site_label
_atom_site_type_symbol
_atom_site_fract_x
_atom_site_fract_y
_atom_site_fract_z
O1	O	1.957454	0.121893	-0.147449
O2	O	2.457454	0.621893	0.352551
O3	O	1.527927	0.131895	-0.147456
O4	O	2.027927	0.631895	0.352544
O5	O	1.754487	0.005954	-0.147454
O6	O	2.254487	0.505954	0.352546
O7	O	1.730893	0.247835	-0.147452
O8	O	2.230893	0.747835	0.352548
O9	O	1.754474	0.005952	0.147511
O10	O	2.254474	0.505952	0.647511
O11	O	1.527913	0.131894	0.147509
O12	O	2.027913	0.631894	0.647509
O13	O	1.957440	0.121892	0.147516
O14	O	2.457440	0.621892	0.647516
Cu15	Cu	1.742675	0.126893	0.174445
Cu16	Cu	2.242675	0.626893	0.674445
Cu17	Cu	1.742691	0.126895	-0.174385
Cu18	Cu	2.242691	0.626895	0.325615
O19	O	1.730879	0.247833	0.147513
O20	O	2.230879	0.747833	0.647513
C21	C	1.472956	0.130934	0.000025
C22	C	1.972956	0.630934	0.500025
C23	C	1.309183	0.128061	0.000022
C24	C	1.809183	0.628061	0.500022
C25	C	1.753524	-0.025029	0.000025
C26	C	2.253524	0.474971	0.500025
C27	C	1.750657	-0.117346	0.000013
C28	C	2.250657	0.382654	0.500013
C29	C	1.744039	-0.329733	-0.160766
C30	C	2.244039	0.170267	0.339234
C31	C	1.741331	-0.416474	-0.160765
C32	C	2.241331	0.083526	0.339235
C33	C	1.741324	-0.416473	0.160823
C34	C	2.241324	0.083527	0.660823
C35	C	1.744021	-0.329733	0.160819
C36	C	2.244021	0.170267	0.660819
C37	C	1.745386	-0.286366	0.000019
C38	C	2.245386	0.213634	0.500019
C39	C	1.739981	-0.459847	0.000024
C40	C	2.239981	0.040153	0.500024
C41	C	1.737045	-0.553895	0.000027
C42	C	2.237045	-0.053895	0.500027
C43	C	1.748320	-0.192311	0.000016
C44	C	2.248320	0.307689	0.500016
C45	C	2.012410	0.122853	0.000030
C46	C	2.512410	0.622853	0.500030
C47	C	2.176184	0.125726	0.000022
C48	C	2.676184	0.625726	0.500022
C49	C	1.731843	0.278816	0.000031
C50	C	2.231843	0.778816	0.500031
C51	C	1.734710	0.371133	0.000031
C52	C	2.234710	0.871133	0.500031
N53	N	1.742675	0.126891	0.419793
N54	N	2.242675	0.626891	0.919793
N55	N	1.742703	0.126890	-0.419734
N56	N	2.242703	0.626890	0.080266
H57	H	1.745146	-0.294426	-0.291700
H58	H	2.245146	0.205574	0.208300
Cl59	Cl	1.739608	-0.470998	0.362959
Cl60	Cl	2.239608	0.029002	0.862959
H61	H	1.740231	-0.451780	-0.291692
H62	H	2.240231	0.048220	0.208308
Cl63	Cl	1.745698	-0.275209	0.362967
Cl64	Cl	2.245698	0.224791	0.862967
