data_functionalizedCrystal
_audit_creation_method	'MofGen! by Chris Wilmer'
_symmetry_space_group_name_H-M	'P1'
_symmetry_Int_Tables_number	1
_symmetry_cell_setting	triclinic
loop_
_symmetry_equiv_pos_as_xyz
  x,y,z
_cell_length_a	19.077236
_cell_length_b	16.959453
_cell_length_c	19.076929
_cell_angle_alpha	87.731693
_cell_angle_beta	90.110372
_cell_angle_gamma	92.312753
loop_
_atom_site_label
_atom_site_type_symbol
_atom_site_fract_x
_atom_site_fract_y
_atom_site_fract_z
Zn1	Zn	1.058294	-0.286903	0.440539
Zn2	Zn	1.558294	0.213097	0.940539
Zn3	Zn	1.062948	-0.413581	0.323032
Zn4	Zn	1.562948	0.086419	0.823032
Zn5	Zn	0.945515	-0.286496	0.318319
Zn6	Zn	1.445515	0.213504	0.818319
Zn7	Zn	0.940764	-0.424120	0.435770
Zn8	Zn	1.440764	0.075880	0.935770
O9	O	1.001880	-0.352775	0.379415
O10	O	1.501880	0.147225	0.879415
O11	O	1.157245	-0.299468	0.428919
O12	O	1.657245	0.200532	0.928919
O13	O	1.051306	-0.392142	0.224076
O14	O	1.551306	0.107858	0.724076
O15	O	0.960516	-0.175938	0.334556
O16	O	1.460516	0.324062	0.834556
O17	O	1.160664	-0.392537	0.342587
O18	O	1.660664	0.107463	0.842587
O19	O	1.043375	-0.176238	0.424350
O20	O	1.543375	0.323762	0.924350
O21	O	0.965028	-0.298773	0.220614
O22	O	1.465028	0.201227	0.720614
O23	O	0.846551	-0.308992	0.329931
O24	O	1.346551	0.191008	0.829931
O25	O	0.952418	-0.410500	0.534733
O26	O	1.452418	0.089500	1.034733
O27	O	0.843061	-0.410104	0.416221
O28	O	1.343061	0.089896	0.916221
O29	O	1.038768	-0.309687	0.538237
O30	O	1.538768	0.190313	1.038237
O31	O	1.046699	-0.525591	0.337963
O32	O	1.546699	-0.025591	0.837963
O33	O	0.956931	-0.533334	0.420791
O34	O	1.456931	-0.033334	0.920791
C35	C	0.819309	-0.360648	0.372048
C36	C	1.319309	0.139352	0.872048
C37	C	0.741204	-0.364036	0.368913
C38	C	1.241204	0.135964	0.868913
C39	C	0.702728	-0.317254	0.412457
C40	C	1.202728	0.182746	0.912457
C41	C	0.629340	-0.320433	0.409505
C42	C	1.129340	0.179567	0.909505
C43	C	0.594429	-0.370399	0.363012
C44	C	1.094429	0.129601	0.863012
C45	C	0.632910	-0.417182	0.319463
C46	C	1.132910	0.082818	0.819463
C47	C	0.706297	-0.413998	0.322412
C48	C	1.206297	0.086002	0.822412
C49	C	0.375137	-0.385104	0.349363
C50	C	0.875137	0.114896	0.849363
C51	C	0.301745	-0.388286	0.346419
C52	C	0.801745	0.111714	0.846419
C53	C	0.298179	-0.291536	0.436460
C54	C	0.798179	0.208464	0.936460
C55	C	0.371567	-0.288360	0.439408
C56	C	0.871567	0.211640	0.939408
C57	C	0.410043	-0.335140	0.395856
C58	C	0.910043	0.164860	0.895856
N59	N	0.519414	-0.373651	0.359995
N60	N	1.019414	0.126349	0.859995
N61	N	0.485056	-0.331883	0.398870
N62	N	0.985056	0.168117	0.898870
C63	C	1.001823	-0.558143	0.379387
C64	C	1.501823	-0.058143	0.879387
C65	C	1.001861	-0.645998	0.379401
C66	C	1.501861	-0.145998	0.879401
C67	C	1.045079	-1.017573	0.426258
C68	C	1.545079	-0.517573	0.926258
C69	C	0.958874	-1.017371	0.332684
C70	C	1.458874	-0.517371	0.832684
C71	C	0.958848	-0.934826	0.332667
C72	C	1.458848	-0.434826	0.832667
C73	C	1.001938	-0.893650	0.379447
C74	C	1.501938	-0.393650	0.879447
C75	C	1.045053	-0.935020	0.426243
C76	C	1.545053	-0.435020	0.926243
C77	C	0.915728	-0.893450	0.285876
C78	C	1.415728	-0.393450	0.785876
C79	C	0.915701	-0.810900	0.285857
C80	C	1.415701	-0.310900	0.785857
C81	C	0.958795	-0.769722	0.332634
C82	C	1.458795	-0.269722	0.832634
C83	C	1.001912	-0.811097	0.379432
C84	C	1.501912	-0.311097	0.879432
C85	C	1.045002	-0.769921	0.426212
C86	C	1.545002	-0.269921	0.926212
C87	C	1.088124	-0.811294	0.473007
C88	C	1.588124	-0.311294	0.973007
C89	C	1.088147	-0.893842	0.473020
C90	C	1.588147	-0.393842	0.973020
C91	C	0.958771	-0.687174	0.332621
C92	C	1.458771	-0.187174	0.832621
C93	C	1.044977	-0.687368	0.426198
C94	C	1.544977	-0.187368	0.926198
C95	C	1.185164	-0.344872	0.386811
C96	C	1.685164	0.155128	0.886811
C97	C	1.263269	-0.341505	0.389963
C98	C	1.763269	0.158495	0.889963
C99	C	0.994544	-0.361314	0.562694
C100	C	1.494544	0.138686	1.062694
C101	C	0.991418	-0.364953	0.640796
C102	C	1.491418	0.135047	1.140796
C103	C	1.001956	-0.146606	0.379459
C104	C	1.501956	0.353394	0.879459
C105	C	1.001989	-0.058748	0.379478
C106	C	1.501989	0.441252	0.879478
C107	C	1.009228	-0.344211	0.196851
C108	C	1.509228	0.155789	0.696851
C109	C	1.012490	-0.340343	0.118754
C110	C	1.512490	0.159657	0.618754
C111	C	0.969001	-0.391115	1.080235
C112	C	1.469001	0.108885	1.580235
C113	C	0.971935	-0.387684	1.006849
C114	C	1.471935	0.112316	1.506849
C115	C	1.018364	-0.333485	0.971984
C116	C	1.518364	0.166515	1.471984
C117	C	1.061855	-0.282708	1.010509
C118	C	1.561855	0.217292	1.510509
C119	C	1.058916	-0.286136	1.083893
C120	C	1.558916	0.213864	1.583893
C121	C	1.031971	-0.317604	0.752705
C122	C	1.531971	0.182396	1.252705
C123	C	1.034908	-0.314182	0.679315
C124	C	1.534908	0.185818	1.179315
C125	C	0.944986	-0.419157	0.675661
C126	C	1.444986	0.080843	1.175661
C127	C	0.942055	-0.422582	0.749047
C128	C	1.442055	0.077418	1.249047
C129	C	0.985544	-0.371803	0.787565
C130	C	1.485544	0.128197	1.287565
N131	N	1.021366	-0.329979	0.896972
N132	N	1.521366	0.170021	1.396972
N133	N	0.982537	-0.375306	0.862575
N134	N	1.482537	0.124694	1.362575
H135	H	1.080069	-0.653848	0.464289
H136	H	1.580069	-0.153848	0.964289
N137	N	1.085002	-0.255748	0.641699
N138	N	1.585002	0.244252	1.141699
H139	H	1.057695	-0.218929	0.610093
H140	H	1.557695	0.281071	1.110093
H141	H	1.118747	-0.285142	0.612612
H142	H	1.618747	0.214858	1.112612
H143	H	1.123254	-0.927535	0.511119
H144	H	1.623254	-0.427535	1.011119
N145	N	1.105825	-0.231382	1.125446
N146	N	1.605825	0.268618	1.625446
H147	H	1.076061	-0.197404	1.154750
H148	H	1.576061	0.302596	1.654750
H149	H	1.135678	-0.196577	1.092184
H150	H	1.635678	0.303423	1.592184
H151	H	1.080190	-1.051262	0.464356
H152	H	1.580190	-0.551262	0.964356
H153	H	1.123205	-0.777760	0.511099
H154	H	1.623205	-0.277760	1.011099
H155	H	0.923789	-1.050901	0.294601
H156	H	1.423789	-0.550901	0.794601
N157	N	0.918928	-0.449577	1.117837
N158	N	1.418928	0.050423	1.617837
H159	H	0.891823	-0.481218	1.082296
H160	H	1.391823	0.018782	1.582296
H161	H	0.885203	-0.420225	1.146982
H162	H	1.385203	0.079775	1.646982
N163	N	0.256686	-0.241070	0.483423
N164	N	0.756686	0.258930	0.983423
H165	H	0.267455	-0.255214	0.534123
H166	H	0.767455	0.244786	1.034123
H167	H	0.204913	-0.250683	0.474443
H168	H	0.704913	0.249317	0.974443
H169	H	0.604480	-0.457861	0.281604
H170	H	1.104480	0.042139	0.781604
H171	H	0.731146	-0.276569	0.450318
H172	H	1.231146	0.223431	0.950318
N173	N	0.898070	-0.473914	0.634121
N174	N	1.398070	0.026086	1.134121
H175	H	0.908445	-0.530518	0.647315
H176	H	1.408445	-0.030518	1.147315
H177	H	0.906992	-0.463455	0.582355
H178	H	1.406992	0.036545	1.082355
N179	N	1.078863	-0.262824	0.794243
N180	N	1.578863	0.237176	1.294243
H181	H	1.108717	-0.227969	0.761019
H182	H	1.608717	0.272031	1.261019
H183	H	1.110154	-0.295004	0.826003
H184	H	1.610154	0.204996	1.326003
H185	H	0.598015	-0.282341	0.444965
H186	H	1.098015	0.217659	0.944965
H187	H	0.880645	-0.926982	0.247792
H188	H	1.380645	-0.426982	0.747792
N189	N	0.747800	-0.464450	0.275443
N190	N	1.247800	0.035550	0.775443
H191	H	0.714550	-0.496587	0.245543
H192	H	1.214550	0.003413	0.745543
H193	H	0.777108	-0.501089	0.305209
H194	H	1.277108	-0.001089	0.805209
H195	H	0.880590	-0.777219	0.247754
H196	H	1.380590	-0.277219	0.747754
H197	H	0.904248	-0.466717	0.777428
H198	H	1.404248	0.033283	1.277428
N199	N	0.912263	-0.642550	0.282161
N200	N	1.412263	-0.142550	0.782161
H201	H	0.884967	-0.681161	0.252531
H202	H	1.384967	-0.181161	0.752531
H203	H	0.942181	-0.605542	0.250812
H204	H	1.442181	-0.105542	0.750812
H205	H	0.936529	-0.429036	0.975490
H206	H	1.436529	0.070964	1.475490
N207	N	1.111948	-0.224266	0.972909
N208	N	1.611948	0.275734	1.472909
H209	H	1.107219	-0.229807	0.920576
H210	H	1.607219	0.270193	1.420576
H211	H	1.161607	-0.235030	0.987771
H212	H	1.661607	0.264970	1.487771
H213	H	0.406455	-0.423196	0.313901
H214	H	0.906455	0.076804	0.813901
H215	H	0.273323	-0.428978	0.308558
H216	H	0.773323	0.071022	0.808558
N217	N	0.409220	-0.234472	0.489556
N218	N	0.909220	0.265528	0.989556
H219	H	0.373709	-0.205318	0.516694
H220	H	0.873709	0.294682	1.016694
H221	H	0.440814	-0.195192	0.462236
H222	H	0.940814	0.304808	0.962236
