data_functionalizedCrystal
_audit_creation_method	'MofGen! by Chris Wilmer'
_symmetry_space_group_name_H-M	'P1'
_symmetry_Int_Tables_number	1
_symmetry_cell_setting	triclinic
loop_
_symmetry_equiv_pos_as_xyz
  x,y,z
_cell_length_a	16.625548
_cell_length_b	16.625548
_cell_length_c	21.395361
_cell_angle_alpha	89.983559
_cell_angle_beta	89.968224
_cell_angle_gamma	90.008236
loop_
_atom_site_label
_atom_site_type_symbol
_atom_site_fract_x
_atom_site_fract_y
_atom_site_fract_z
Zn1	Zn	1.232536	0.455880	0.249525
Zn2	Zn	1.732536	0.955880	0.749525
Zn3	Zn	1.232449	0.321036	0.354275
Zn4	Zn	1.732449	0.821036	0.854275
Zn5	Zn	1.097727	0.321061	0.249517
Zn6	Zn	1.597727	0.821061	0.749517
Zn7	Zn	1.097649	0.455825	0.354270
Zn8	Zn	1.597649	0.955825	0.854270
O9	O	1.165090	0.388451	0.301897
O10	O	1.665090	0.888451	0.801897
O11	O	1.345357	0.438005	0.263425
O12	O	1.845357	0.938005	0.763425
O13	O	1.214574	0.208207	0.340378
O14	O	1.714574	0.708207	0.840378
O15	O	1.115679	0.338979	0.161840
O16	O	1.615679	0.838979	0.661840
O17	O	1.345293	0.338935	0.340385
O18	O	1.845293	0.838935	0.840385
O19	O	1.214722	0.438030	0.161846
O20	O	1.714722	0.938030	0.661846
O21	O	1.115594	0.208225	0.263413
O22	O	1.615594	0.708225	0.763413
O23	O	0.984884	0.338925	0.263408
O24	O	1.484884	0.838925	0.763408
O25	O	1.115546	0.568665	0.340377
O26	O	1.615546	1.068665	0.840377
O27	O	0.984827	0.437936	0.340370
O28	O	1.484827	0.937936	0.840370
O29	O	1.214647	0.568705	0.263420
O30	O	1.714647	1.068705	0.763420
O31	O	1.214498	0.338882	0.441952
O32	O	1.714498	0.838882	0.941952
O33	O	1.115461	0.437912	0.441949
O34	O	1.615461	0.937912	0.941949
C35	C	0.955599	0.388428	0.301888
C36	C	1.455599	0.888428	0.801888
C37	C	0.865978	0.388437	0.301899
C38	C	1.365978	0.888437	0.801899
C39	C	0.537803	0.388472	0.301903
C40	C	1.037803	0.888472	0.801903
C41	C	0.629111	0.388460	0.301900
C42	C	1.129111	0.888460	0.801900
C43	C	0.701888	0.388454	0.301902
C44	C	1.201888	0.888454	0.801902
C45	C	0.793202	0.388443	0.301898
C46	C	1.293202	0.888443	0.801898
C47	C	1.165097	0.598759	0.301899
C48	C	1.665097	1.098759	0.801899
C49	C	1.165100	0.688380	0.301899
C50	C	1.665100	1.188380	0.801899
C51	C	1.165067	1.016556	0.301905
C52	C	1.665067	1.516556	0.801905
C53	C	1.165074	0.925248	0.301905
C54	C	1.665074	1.425248	0.801905
C55	C	1.165084	0.852471	0.301903
C56	C	1.665084	1.352471	0.801903
C57	C	1.165090	0.761157	0.301902
C58	C	1.665090	1.261157	0.801902
C59	C	1.375399	0.388474	0.301906
C60	C	1.875399	0.888474	0.801906
C61	C	1.465020	0.388483	0.301910
C62	C	1.965020	0.888483	0.801910
C63	C	1.164984	0.388406	0.464685
C64	C	1.664984	0.888406	0.964685
C65	C	1.165012	0.388413	0.534326
C66	C	1.665012	0.888413	1.034326
C67	C	1.165075	1.178960	0.301908
C68	C	1.665075	1.678960	0.801908
C69	C	1.165067	1.089339	0.301903
C70	C	1.665067	1.589339	0.801903
C71	C	1.165219	0.388513	0.138474
C72	C	1.665219	0.888513	0.638474
C73	C	1.165274	0.388540	0.068832
C74	C	1.665274	0.888540	0.568832
C75	C	1.216626	0.336902	0.567020
C76	C	1.716626	0.836902	1.067020
C77	C	1.216664	0.336920	0.632455
C78	C	1.716664	0.836920	1.132455
C79	C	1.165073	0.388441	0.665194
C80	C	1.665073	0.888441	1.165194
C81	C	1.113455	0.439963	0.632492
C82	C	1.613455	0.939963	1.132492
C83	C	1.113424	0.439949	0.567058
C84	C	1.613424	0.939949	1.067058
C85	C	1.092471	0.394760	0.768911
C86	C	1.592471	0.894760	1.268911
C87	C	1.092500	0.394768	0.834344
C88	C	1.592500	0.894768	1.334344
C89	C	1.165167	0.388488	0.867015
C90	C	1.665167	0.888488	1.367015
C91	C	1.237806	0.382184	0.834245
C92	C	1.737806	0.882184	1.334245
C93	C	1.237776	0.382170	0.768811
C94	C	1.737776	0.882170	1.268811
C95	C	1.165100	0.388462	0.736146
C96	C	1.665100	0.888462	1.236146
C97	C	1.216826	0.336993	0.970662
C98	C	1.716826	0.836993	1.470662
C99	C	1.216865	0.337017	1.036098
C100	C	1.716865	0.837017	1.536098
C101	C	1.113648	0.440056	1.036133
C102	C	1.613648	0.940056	1.536133
C103	C	1.113617	0.440037	0.970698
C104	C	1.613617	0.940037	1.470698
C105	C	1.165204	0.388501	0.937966
C106	C	1.665204	0.888501	1.437966
H107	H	1.258634	0.294940	0.540371
H108	H	1.758634	0.794940	1.040371
C109	C	1.056645	0.496610	0.531090
C110	C	1.556645	0.996610	1.031090
H111	H	1.064019	0.489225	0.487431
H112	H	1.564019	0.989225	0.987431
H113	H	1.002484	0.484767	0.541857
H114	H	1.502484	0.984767	1.041857
H115	H	1.068417	0.550802	0.541784
H116	H	1.568417	1.050802	1.041784
C117	C	1.273435	0.280248	0.668427
C118	C	1.773435	0.780248	1.168427
H119	H	1.304150	0.249550	0.639561
H120	H	1.804150	0.749550	1.139561
H121	H	1.308556	0.311122	0.693920
H122	H	1.808556	0.811122	1.193920
H123	H	1.242616	0.245095	0.693983
H124	H	1.742616	0.745095	1.193983
C125	C	1.056830	0.496690	0.934733
C126	C	1.556830	0.996690	1.434733
H127	H	1.026104	0.527373	0.963601
H128	H	1.526104	1.027373	1.463601
H129	H	1.087631	0.531845	0.909170
H130	H	1.587631	1.031845	1.409170
H131	H	1.021709	0.465800	0.909245
H132	H	1.521709	0.965800	1.409245
C133	C	1.317671	0.375248	0.732763
C134	C	1.817671	0.875248	1.232763
H135	H	1.307242	0.376136	0.689115
H136	H	1.807242	0.876136	1.189115
H137	H	1.351556	0.419145	0.743447
H138	H	1.851556	0.919145	1.243447
H139	H	1.343500	0.326184	0.743482
H140	H	1.843500	0.826184	1.243482
C141	C	1.317745	0.375283	0.870174
C142	C	1.817745	0.875283	1.370174
H143	H	1.307363	0.376204	0.913837
H144	H	1.807363	0.876204	1.413837
H145	H	1.343564	0.326219	0.859453
H146	H	1.843564	0.826219	1.359453
H147	H	1.351617	0.419181	0.859406
H148	H	1.851617	0.919181	1.359406
H149	H	1.258834	0.295032	0.944010
H150	H	1.758834	0.795032	1.444010
C151	C	1.056705	0.496633	0.668502
C152	C	1.556705	0.996633	1.168502
H153	H	1.064109	0.489258	0.712155
H154	H	1.564109	0.989258	1.212155
H155	H	1.068457	0.550817	0.657752
H156	H	1.568457	1.050817	1.157752
H157	H	1.002531	0.484776	0.657819
H158	H	1.502531	0.984776	1.157819
H159	H	1.258900	0.295071	1.062717
H160	H	1.758900	0.795071	1.562717
H161	H	1.033292	0.399876	0.742316
H162	H	1.533292	0.899876	1.242316
C163	C	1.056903	0.496733	1.072138
C164	C	1.556903	0.996733	1.572138
H165	H	1.064311	0.489362	1.115791
H166	H	1.564311	0.989362	1.615791
H167	H	1.068657	0.550915	1.061385
H168	H	1.568657	1.050915	1.561385
H169	H	1.002728	0.484877	1.061459
H170	H	1.502728	0.984877	1.561459
C171	C	1.012604	0.401709	0.870387
C172	C	1.512604	0.901709	1.370387
H173	H	1.023027	0.400810	0.914036
H174	H	1.523027	0.900810	1.414036
H175	H	0.986787	0.450774	0.859664
H176	H	1.486787	0.950774	1.359664
H177	H	0.978709	0.357814	0.859704
H178	H	1.478709	0.857814	1.359704
