data_functionalizedCrystal
_audit_creation_method	'MofGen! by Chris Wilmer'
_symmetry_space_group_name_H-M	'P1'
_symmetry_Int_Tables_number	1
_symmetry_cell_setting	triclinic
loop_
_symmetry_equiv_pos_as_xyz
  x,y,z
_cell_length_a	19.288840
_cell_length_b	16.109298
_cell_length_c	18.366186
_cell_angle_alpha	89.999156
_cell_angle_beta	89.983729
_cell_angle_gamma	83.293103
loop_
_atom_site_label
_atom_site_type_symbol
_atom_site_fract_x
_atom_site_fract_y
_atom_site_fract_z
O1	O	0.921610	0.103617	-0.060663
O2	O	0.719380	0.117630	-0.060636
O3	O	0.826052	-0.010428	-0.060655
O4	O	0.814939	0.231674	-0.060644
O5	O	0.826034	-0.010434	0.060444
O6	O	0.719362	0.117623	0.060463
O7	O	0.921592	0.103611	0.060437
Zn8	Zn	0.820474	0.110616	0.079677
Zn9	Zn	0.820498	0.110624	-0.079877
O10	O	0.814921	0.231668	0.060456
C11	C	0.693494	0.117179	-0.000083
C12	C	0.616386	0.115836	-0.000074
C13	C	0.580191	0.115194	-0.066087
C14	C	0.507741	0.113923	-0.066096
C15	C	0.471491	0.113277	-0.000088
C16	C	0.507694	0.113924	0.065934
C17	C	0.580142	0.115203	0.065941
C18	C	0.362035	0.062549	0.050471
C19	C	0.289589	0.061265	0.050461
C20	C	0.248038	0.109334	-0.000107
C21	C	0.278942	0.158677	-0.050678
C22	C	0.351390	0.159957	-0.050671
C23	C	0.392933	0.111890	-0.000088
C24	C	0.133284	0.107315	-0.066135
C25	C	0.060832	0.106049	-0.066141
C26	C	0.060788	0.106041	0.065891
C27	C	0.133237	0.107315	0.065895
C28	C	0.169481	0.107948	-0.000120
C29	C	0.825593	-0.041404	-0.000109
C30	C	0.824245	-0.133695	-0.000117
C31	C	0.819854	-0.432745	-0.066112
C32	C	0.821130	-0.346029	-0.066118
C33	C	0.821121	-0.346022	0.065911
C34	C	0.819849	-0.432736	0.065916
C35	C	0.819212	-0.476095	-0.000098
C36	C	0.821760	-0.302665	-0.000108
C37	C	0.823144	-0.208644	-0.000113
C38	C	0.817830	-0.570122	-0.000093
C39	C	0.947479	0.104061	-0.000118
C40	C	1.024587	0.105404	-0.000132
C41	C	0.815379	0.262644	-0.000093
C42	C	0.816728	0.354935	-0.000089
N43	N	0.820463	0.110610	0.188568
N44	N	0.820515	0.110624	-0.188768
C45	C	0.867713	0.053934	0.226660
C46	C	0.867717	0.053930	0.302888
C47	C	0.820479	0.110617	0.341021
C48	C	0.773220	0.167297	0.302920
C49	C	0.773212	0.167294	0.226693
C50	C	0.811360	0.186371	0.461786
C51	C	0.811373	0.186376	0.538011
C52	C	0.820498	0.110627	0.576128
C53	C	0.829626	0.034870	0.538012
C54	C	0.829618	0.034867	0.461786
C55	C	0.820481	0.110626	0.423676
C56	C	0.867755	0.053942	0.696875
C57	C	0.867755	0.053938	0.773104
C58	C	0.773261	0.167312	0.773135
C59	C	0.773258	0.167309	0.696907
C60	C	0.820509	0.110626	0.658782
H61	H	0.376549	0.200136	-0.091845
H62	H	0.803917	0.248059	0.430756
Br63	Br	0.818986	-0.491576	0.155514
Br64	Br	0.182476	0.108180	-0.155723
Br65	Br	0.821982	-0.287172	0.155498
H66	H	0.906185	0.007777	0.195621
H67	H	0.906195	0.007776	0.333908
H68	H	0.837056	-0.026812	0.569046
H69	H	0.821654	-0.310737	-0.119873
Br70	Br	0.841998	-0.067940	0.410058
H71	H	0.906228	0.007784	0.665832
H72	H	0.609611	0.115727	0.119698
Br73	Br	0.931878	-0.022993	0.824805
H74	H	0.734796	0.213464	0.804182
Br75	Br	0.709133	0.244233	0.645205
Br76	Br	0.798994	0.289187	0.589732
H77	H	0.245112	0.197824	-0.091853
Br78	Br	0.709082	0.244216	0.174993
H79	H	0.031363	0.105531	-0.119899
H80	H	0.734756	0.213451	0.333971
H81	H	0.609696	0.115710	-0.119841
H82	H	0.478265	0.113402	-0.119853
Br83	Br	0.418419	-0.002690	0.119108
H84	H	0.031273	0.105520	0.119636
Br85	Br	0.818991	-0.491586	-0.155702
H86	H	0.162708	0.107833	0.119650
H87	H	0.478174	0.113399	0.119678
Br88	Br	0.247652	-0.005680	0.119106
