data_functionalizedCrystal
_audit_creation_method	'MofGen! by Chris Wilmer'
_symmetry_space_group_name_H-M	'P1'
_symmetry_Int_Tables_number	1
_symmetry_cell_setting	triclinic
loop_
_symmetry_equiv_pos_as_xyz
  x,y,z
_cell_length_a	10.654541
_cell_length_b	16.992695
_cell_length_c	16.053802
_cell_angle_alpha	92.741074
_cell_angle_beta	92.605833
_cell_angle_gamma	92.423924
loop_
_atom_site_label
_atom_site_type_symbol
_atom_site_fract_x
_atom_site_fract_y
_atom_site_fract_z
O1	O	1.682335	-0.106907	0.069425
O2	O	1.317763	-0.117407	0.069428
O3	O	1.498587	0.001994	0.069420
O4	O	1.501511	-0.226307	0.069433
O5	O	1.488631	-0.004551	-0.069438
O6	O	1.307807	-0.123952	-0.069430
O7	O	1.672379	-0.113452	-0.069433
Zn8	Zn	1.488512	-0.119741	-0.091478
Zn9	Zn	1.501629	-0.111118	0.091474
O10	O	1.491555	-0.232852	-0.069425
C11	C	1.265921	-0.119909	-0.000001
C12	C	1.126278	-0.117603	0.000000
C13	C	1.724221	-0.110950	-0.000002
C14	C	1.863864	-0.113255	0.000002
C15	C	1.489849	0.027954	-0.000009
C16	C	1.478629	0.115059	-0.000009
C17	C	1.879497	0.029521	0.000004
C18	C	1.952917	0.099823	0.000009
C19	C	2.084122	0.097652	0.000013
C20	C	2.141911	0.025171	0.000008
C21	C	2.068491	-0.045130	0.000002
C22	C	1.937284	-0.042952	0.000002
C23	C	2.052859	-0.187905	-0.000005
C24	C	1.921653	-0.185736	-0.000003
C25	C	2.110647	-0.260386	-0.000010
C26	C	2.037228	-0.330689	-0.000010
C27	C	1.906014	-0.328515	-0.000012
C28	C	1.848233	-0.256037	-0.000008
C29	C	1.500293	-0.258812	0.000006
C30	C	1.511513	-0.345917	0.000011
N31	N	1.479569	-0.125625	-0.216338
C32	C	1.586880	0.164712	-0.000010
C33	C	1.576332	0.246556	-0.000002
C34	C	1.457531	0.278746	0.000001
C35	C	1.349272	0.229087	0.000006
C36	C	1.359822	0.147245	0.000004
C37	C	1.413804	0.522582	0.000013
C38	C	1.403262	0.604430	0.000013
C39	C	1.630323	0.621893	0.000006
C40	C	1.640862	0.540048	-0.000001
C41	C	1.532604	0.490397	0.000008
N42	N	1.446745	0.362404	0.000007
N43	N	1.543391	0.406741	0.000008
C44	C	1.556542	-0.074839	-0.260036
C45	C	1.550299	-0.078963	-0.347442
C46	C	1.467088	-0.133877	-0.391150
C47	C	1.390107	-0.184666	-0.347446
C48	C	1.396345	-0.180538	-0.260041
C49	C	1.439839	-0.151888	-0.652558
C50	C	1.433609	-0.156014	-0.739969
C51	C	1.593800	-0.050308	-0.739959
C52	C	1.600035	-0.046188	-0.652552
C53	C	1.523050	-0.096974	-0.608857
N54	N	1.460707	-0.138096	-0.480493
N55	N	1.529425	-0.092752	-0.519515
N56	N	1.510582	-0.105227	0.216333
H57	H	1.772664	0.031296	0.000011
H58	H	1.664481	0.286980	-0.000006
Cl59	Cl	1.253901	0.644896	0.000012
Cl60	Cl	2.109882	-0.421797	-0.000020
H61	H	2.143901	0.154898	0.000015
H62	H	1.365846	-0.200735	-0.775552
H63	H	1.377156	-0.193241	-0.616988
H64	H	2.248746	0.023410	0.000000
H65	H	1.846243	-0.385764	-0.000022
Cl66	Cl	1.299570	-0.244385	-0.205108
H67	H	1.612975	-0.037608	-0.383020
H68	H	1.322349	-0.229376	-0.383038
Cl69	Cl	1.736237	0.124252	-0.000024
Cl70	Cl	1.704645	0.022847	-0.597606
H71	H	1.656476	-0.008960	-0.775544
Cl72	Cl	1.277706	0.460174	0.000026
H73	H	1.741400	-0.254260	-0.000006
H74	H	1.905850	0.158835	0.000001
Cl75	Cl	1.766410	0.684316	-0.000002
Cl76	Cl	2.275596	-0.263113	0.000035
H77	H	1.252542	0.255303	0.000014
Cl78	Cl	1.790220	0.499589	0.000022
Cl79	Cl	1.223729	0.084824	0.000009
H80	H	1.624306	-0.030125	-0.224455
