data_functionalizedCrystal
_audit_creation_method	'MofGen! by Chris Wilmer'
_symmetry_space_group_name_H-M	'P1'
_symmetry_Int_Tables_number	1
_symmetry_cell_setting	triclinic
loop_
_symmetry_equiv_pos_as_xyz
  x,y,z
_cell_length_a	16.992695
_cell_length_b	16.992697
_cell_length_c	16.053789
_cell_angle_alpha	87.285052
_cell_angle_beta	92.721521
_cell_angle_gamma	89.331663
loop_
_atom_site_label
_atom_site_type_symbol
_atom_site_fract_x
_atom_site_fract_y
_atom_site_fract_z
O1	O	0.170059	-1.053991	0.069309
O2	O	0.670059	-0.553991	0.569309
O3	O	0.168228	-0.825592	0.069337
O4	O	0.668228	-0.325592	0.569337
O5	O	0.054943	-0.938876	0.069317
O6	O	0.554943	-0.438876	0.569317
O7	O	0.283344	-0.940708	0.069330
O8	O	0.783344	-0.440708	0.569330
O9	O	0.048648	-0.932573	-0.069542
O10	O	0.548648	-0.432573	0.430458
O11	O	0.161933	-0.819290	-0.069522
O12	O	0.661933	-0.319290	0.430478
O13	O	0.163763	-1.047688	-0.069550
O14	O	0.663763	-0.547688	0.430450
Zn15	Zn	0.161849	-0.932488	-0.091583
Zn16	Zn	0.661849	-0.432488	0.408417
Zn17	Zn	0.170143	-0.940792	0.091370
Zn18	Zn	0.670143	-0.440792	0.591370
O19	O	0.277049	-0.934405	-0.069529
O20	O	0.777049	-0.434405	0.430471
C21	C	0.162725	-0.793081	-0.000089
C22	C	0.662725	-0.293081	0.499911
C23	C	0.155697	-0.705597	-0.000078
C24	C	0.655697	-0.205597	0.499922
C25	C	0.223515	-0.659606	-0.000074
C26	C	0.723515	-0.159606	0.499926
C27	C	0.216905	-0.577405	-0.000085
C28	C	0.716905	-0.077405	0.499915
C29	C	0.142477	-0.541196	-0.000093
C30	C	0.642477	-0.041196	0.499907
C31	C	0.074654	-0.587193	-0.000100
C32	C	0.574654	-0.087193	0.499900
C33	C	0.081264	-0.669392	-0.000095
C34	C	0.581264	-0.169392	0.499905
C35	C	0.115081	-0.295881	-0.000113
C36	C	0.615081	0.204119	0.499887
C37	C	0.108476	-0.213676	-0.000115
C38	C	0.608476	0.286324	0.499885
C39	C	0.250728	-0.203893	-0.000102
C40	C	0.750728	0.296107	0.499898
C41	C	0.257332	-0.286095	-0.000092
C42	C	0.757332	0.213905	0.499908
C43	C	0.189508	-0.332084	-0.000103
C44	C	0.689508	0.167916	0.499897
N45	N	0.135719	-0.457174	-0.000101
N46	N	0.635719	0.042826	0.499899
N47	N	0.196267	-0.416105	-0.000101
N48	N	0.696267	0.083895	0.499899
C49	C	0.022435	-0.933369	-0.000112
C50	C	0.522435	-0.433369	0.499888
C51	C	-0.065049	-0.926340	-0.000111
C52	C	0.434951	-0.426340	0.499889
C53	C	-0.111040	-0.994158	-0.000120
C54	C	0.388960	-0.494158	0.499880
C55	C	-0.193241	-0.987549	-0.000112
C56	C	0.306759	-0.487549	0.499888
C57	C	-0.229449	-0.913122	-0.000100
C58	C	0.270551	-0.413122	0.499900
C59	C	-0.183451	-0.845299	-0.000088
C60	C	0.316549	-0.345299	0.499912
C61	C	-0.101252	-0.851909	-0.000091
C62	C	0.398748	-0.351909	0.499909
C63	C	-0.474762	-0.885728	-0.000085
C64	C	0.025238	-0.385728	0.499915
C65	C	-0.556968	-0.879123	-0.000085
C66	C	-0.056968	-0.379123	0.499915
C67	C	-0.566751	-1.021374	-0.000107
C68	C	-0.066751	-0.521374	0.499893
C69	C	-0.484551	-1.027977	-0.000115
C70	C	0.015449	-0.527977	0.499885
C71	C	-0.438560	-0.960154	-0.000098
C72	C	0.061440	-0.460154	0.499902
N73	N	-0.313471	-0.906365	-0.000093
N74	N	0.186529	-0.406365	0.499907
N75	N	-0.354539	-0.966912	-0.000099
N76	N	0.145461	-0.466912	0.499901
C77	C	0.309556	-0.939912	-0.000098
C78	C	0.809556	-0.439912	0.499902
C79	C	0.397041	-0.946941	-0.000094
C80	C	0.897041	-0.446941	0.499906
C81	C	0.169266	-0.080200	-0.000118
C82	C	0.669266	0.419800	0.499882
C83	C	0.176294	-0.167685	-0.000112
C84	C	0.676294	0.332315	0.499888
N85	N	0.156188	-0.926827	-0.216443
N86	N	0.656188	-0.426827	0.283557
C87	C	0.204972	-0.975580	-0.260137
C88	C	0.704972	-0.475580	0.239863
C89	C	0.201008	-0.971630	-0.347543
C90	C	0.701008	-0.471630	0.152457
C91	C	0.148263	-0.918922	-0.391255
C92	C	0.648263	-0.418922	0.108745
C93	C	0.099473	-0.870167	-0.347555
C94	C	0.599473	-0.370167	0.152445
C95	C	0.103434	-0.874122	-0.260150
C96	C	0.603434	-0.374122	0.239850
C97	C	0.130969	-0.901659	-0.652665
C98	C	0.630969	-0.401659	-0.152665
C99	C	0.127014	-0.897706	-0.740076
C100	C	0.627014	-0.397706	-0.240076
C101	C	0.228548	-0.999171	-0.740058
C102	C	0.728548	-0.499171	-0.240058
C103	C	0.232508	-1.003117	-0.652651
C104	C	0.732508	-0.503117	-0.152651
C105	C	0.183715	-0.954365	-0.608959
C106	C	0.683715	-0.454365	-0.108959
N107	N	0.144211	-0.914882	-0.480599
N108	N	0.644211	-0.414882	0.019401
N109	N	0.187763	-0.958410	-0.519617
N110	N	0.687763	-0.458410	-0.019617
N111	N	0.175798	-0.946460	0.216230
N112	N	0.675798	-0.446460	0.716230
H113	H	0.317939	-0.315570	-0.000076
H114	H	0.817939	0.184430	0.499924
N115	N	0.078353	-0.849060	-0.605559
N116	N	0.578353	-0.349060	-0.105559
H117	H	0.111834	-0.814317	-0.569296
H118	H	0.611834	-0.314317	-0.069296
H119	H	0.043632	-0.882603	-0.569343
H120	H	0.543632	-0.382603	-0.069343
H121	H	-0.063807	-0.796684	-0.000083
H122	H	0.436193	-0.296684	0.499917
H123	H	0.240732	-1.011331	-0.383115
H124	H	0.740732	-0.511331	0.116885
N125	N	0.281156	-1.051758	-0.787193
N126	N	0.781156	-0.551758	-0.287193
H127	H	0.269934	-1.108745	-0.771977
H128	H	0.769934	-0.608745	-0.271977
H129	H	0.338120	-1.040444	-0.771965
H130	H	0.838120	-0.540444	-0.271965
N131	N	0.070114	-0.840853	-0.787212
N132	N	0.570114	-0.340853	-0.287212
H133	H	0.032111	-0.871072	-0.823482
H134	H	0.532111	-0.371072	-0.323482
H135	H	0.100363	-0.802837	-0.823423
H136	H	0.600363	-0.302837	-0.323423
H137	H	-0.437327	-0.830502	-0.000072
H138	H	0.062673	-0.330502	0.499928
N139	N	0.323877	-0.154292	-0.000092
N140	N	0.823877	0.345708	0.499908
H141	H	0.308399	-0.096724	-0.000097
H142	H	0.808399	0.403276	0.499903
H143	H	0.353757	-0.164196	-0.051566
H144	H	0.853757	0.335804	0.448434
N145	N	-0.222495	-0.765021	-0.000074
N146	N	0.277505	-0.265021	0.499926
H147	H	-0.254047	-0.761444	0.051400
H148	H	0.245953	-0.261444	0.551400
H149	H	-0.258676	-0.756819	-0.051584
H150	H	0.241324	-0.256819	0.448416
N151	N	0.028197	-0.174619	-0.000120
N152	N	0.528197	0.325381	0.499880
H153	H	-0.013767	-0.216226	-0.000126
H154	H	0.486233	0.283774	0.499874
H155	H	0.020027	-0.138394	-0.051595
H156	H	0.520027	0.361606	0.448405
N157	N	0.042577	-0.813322	-0.394696
N158	N	0.542577	-0.313322	0.105304
H159	H	0.047470	-0.818213	-0.456698
H160	H	0.547470	-0.318213	0.043302
H161	H	0.055199	-0.757737	-0.379419
H162	H	0.555199	-0.257737	0.120581
N163	N	0.041932	-0.345477	-0.000130
N164	N	0.541932	0.154523	0.499870
H165	H	-0.006219	-0.310064	-0.000135
H166	H	0.493781	0.189936	0.499865
H167	H	0.043902	-0.382129	0.051344
H168	H	0.543902	0.117871	0.551344
H169	H	-0.230684	-1.042773	-0.000121
H170	H	0.269316	-0.542773	0.499879
N171	N	-0.005624	-0.548143	-0.000122
N172	N	0.494376	-0.048143	0.499878
H173	H	0.000477	-0.489091	-0.000124
H174	H	0.500477	0.010909	0.499876
H175	H	-0.033200	-0.566976	0.051350
H176	H	0.466800	-0.066976	0.551350
H177	H	0.063708	-0.834421	-0.224576
H178	H	0.563708	-0.334421	0.275424
N179	N	0.008118	-0.719000	-0.000106
N180	N	0.508118	-0.219000	0.499894
H181	H	-0.040036	-0.683591	-0.000111
H182	H	0.459964	-0.183591	0.499889
H183	H	0.010092	-0.755650	0.051371
H184	H	0.510092	-0.255650	0.551371
N185	N	0.303792	-0.698657	-0.000055
N186	N	0.803792	-0.198657	0.499945
H187	H	0.345750	-0.657046	-0.000055
H188	H	0.845750	-0.157046	0.499945
H189	H	0.307303	-0.730223	-0.051528
H190	H	0.807303	-0.230223	0.448472
H191	H	-0.081567	-1.054764	-0.000135
H192	H	0.418433	-0.554764	0.499865
N193	N	-0.596020	-0.798844	-0.000063
N194	N	-0.096020	-0.298844	0.499937
H195	H	-0.655071	-0.804951	-0.000068
H196	H	-0.155071	-0.304951	0.499932
H197	H	-0.581851	-0.766600	-0.051533
H198	H	-0.081851	-0.266600	0.448467
H199	H	0.272130	-0.539962	-0.000081
H200	H	0.772130	-0.039962	0.499919
H201	H	0.247928	-1.018496	-0.224553
H202	H	0.747928	-0.518496	0.275447
N203	N	-0.445499	-1.108251	-0.000132
N204	N	0.054501	-0.608251	0.499868
H205	H	-0.487108	-1.150212	-0.000137
H206	H	0.012892	-0.650212	0.499863
H207	H	-0.409268	-1.116431	0.051341
H208	H	0.090732	-0.616431	0.551341
H209	H	-0.604205	-1.076591	-0.000118
H210	H	-0.104205	-0.576591	0.499882
N211	N	0.289389	-1.059975	-0.605508
N212	N	0.789389	-0.559975	-0.105508
H213	H	0.344995	-1.047351	-0.620714
H214	H	0.844995	-0.547351	-0.120714
H215	H	0.276719	-1.115563	-0.620740
H216	H	0.776719	-0.615563	-0.120740
