data_functionalizedCrystal
_audit_creation_method	'MofGen! by Chris Wilmer'
_symmetry_space_group_name_H-M	'P1'
_symmetry_Int_Tables_number	1
_symmetry_cell_setting	triclinic
loop_
_symmetry_equiv_pos_as_xyz
  x,y,z
_cell_length_a	10.268362
_cell_length_b	16.992694
_cell_length_c	16.992695
_cell_angle_alpha	89.331777
_cell_angle_beta	90.005527
_cell_angle_gamma	90.001137
loop_
_atom_site_label
_atom_site_type_symbol
_atom_site_fract_x
_atom_site_fract_y
_atom_site_fract_z
O1	O	0.108138	-1.050851	0.166917
O2	O	0.108177	-0.822451	0.165086
O3	O	0.108147	-0.935735	0.051802
O4	O	0.108168	-0.937566	0.280202
O5	O	-0.108453	-0.935724	0.051796
O6	O	-0.108424	-0.822440	0.165080
O7	O	-0.108462	-1.050840	0.166912
Cu8	Cu	-0.128221	-0.936639	0.165995
Cu9	Cu	0.127935	-0.936652	0.166002
O10	O	-0.108433	-0.937555	0.280196
C11	C	-0.000119	-0.793085	0.162727
C12	C	-0.000105	-0.705600	0.155699
N13	N	-0.308386	-0.936636	0.165991
C14	C	-0.000153	-0.933374	0.022439
C15	C	-0.000151	-0.926345	-0.065046
C16	C	-0.574057	-0.936648	0.166000
C17	C	-0.426219	-0.936638	0.165997
N18	N	0.308101	-0.936661	0.166001
C19	C	-0.000164	-1.080205	0.169270
C20	C	-0.000170	-1.167690	0.176299
C21	C	-0.000099	-0.659610	0.223517
C22	C	-0.000118	-0.577409	0.216908
C23	C	-0.000132	-0.541201	0.142480
C24	C	-0.000141	-0.587198	0.074657
C25	C	-0.000132	-0.669397	0.081267
C26	C	-0.000170	-0.295886	0.115086
C27	C	-0.000175	-0.213681	0.108481
C28	C	-0.000154	-0.203898	0.250732
C29	C	-0.000137	-0.286099	0.257335
C30	C	-0.000153	-0.332089	0.189512
N31	N	-0.000147	-0.457178	0.135723
N32	N	-0.000147	-0.416110	0.196270
C33	C	-0.000164	-0.994163	-0.111037
C34	C	-0.000150	-0.987554	-0.193238
C35	C	-0.000133	-0.913127	-0.229446
C36	C	-0.000117	-0.845303	-0.183449
C37	C	-0.000121	-0.851913	-0.101250
C38	C	-0.000111	-0.885732	-0.474760
C39	C	-0.000111	-0.879127	-0.556966
C40	C	-0.000142	-1.021379	-0.566749
C41	C	-0.000154	-1.027982	-0.484547
C42	C	-0.000130	-0.960159	-0.438558
N43	N	-0.000124	-0.906369	-0.313468
N44	N	-0.000131	-0.966917	-0.354537
C45	C	-0.000130	-0.939917	0.309559
C46	C	-0.000123	-0.946945	0.397044
H47	H	-0.000087	-0.689084	0.284124
H48	H	-0.000164	-1.042779	-0.230680
H49	H	-0.000184	-0.333322	0.059859
H50	H	-0.000168	-1.088589	-0.455073
H51	H	-0.000186	-1.054770	-0.081563
H52	H	-0.000144	-0.166444	0.305950
Br53	Br	-0.000107	-0.514995	0.308951
H54	H	-0.000135	-0.706842	0.026042
Br55	Br	-0.000103	-0.335233	0.358348
Br56	Br	-0.000222	-0.164541	0.007465
Br57	Br	-0.000174	-0.538059	-0.026353
Br58	Br	-0.000174	-1.113419	-0.629167
H59	H	-0.000118	-0.818517	-0.586443
H60	H	-0.000092	-0.830505	-0.437325
Br61	Br	-0.000072	-0.744293	-0.232588
H62	H	-0.000110	-0.796688	-0.063804
