data_functionalizedCrystal
_audit_creation_method	'MofGen! by Chris Wilmer'
_symmetry_space_group_name_H-M	'P1'
_symmetry_Int_Tables_number	1
_symmetry_cell_setting	triclinic
loop_
_symmetry_equiv_pos_as_xyz
  x,y,z
_cell_length_a	17.699097
_cell_length_b	17.699091
_cell_length_c	16.776229
_cell_angle_alpha	89.993740
_cell_angle_beta	89.995199
_cell_angle_gamma	83.287253
loop_
_atom_site_label
_atom_site_type_symbol
_atom_site_fract_x
_atom_site_fract_y
_atom_site_fract_z
O1	O	-1.004068	-0.095762	0.066352
O2	O	-0.783691	-0.108204	0.066339
O3	O	-0.900103	0.008206	0.066343
O4	O	-0.887656	-0.212171	0.066348
O5	O	-0.900101	0.008216	-0.066233
O6	O	-0.783689	-0.108194	-0.066237
O7	O	-1.004066	-0.095752	-0.066224
Zn8	Zn	-0.893877	-0.101971	-0.087280
Zn9	Zn	-0.893880	-0.101985	0.087395
O10	O	-0.887654	-0.212161	-0.066228
C11	C	-0.755494	-0.107751	0.000049
C12	C	-0.671476	-0.106409	0.000044
C13	C	-0.899655	0.036408	0.000056
C14	C	-0.898314	0.120425	0.000059
C15	C	-1.032264	-0.096204	0.000068
C16	C	-1.116281	-0.097547	0.000078
C17	C	-0.155759	-0.098185	0.072344
C18	C	-0.234703	-0.099441	0.072340
C19	C	-0.274168	-0.100065	0.000069
C20	C	-0.234685	-0.099425	-0.072202
C21	C	-0.155743	-0.098163	-0.072198
C22	C	-0.553049	-0.104512	-0.072223
C23	C	-0.631997	-0.105776	-0.072222
C24	C	-0.632009	-0.105790	0.072314
C25	C	-0.553067	-0.104529	0.072319
C26	C	-0.513592	-0.103884	0.000048
C27	C	-0.427992	-0.102521	0.000053
C28	C	-0.359765	-0.101434	0.000063
C29	C	-0.897687	0.159887	0.072327
C30	C	-0.896422	0.238830	0.072327
C31	C	-0.895790	0.278311	0.000058
C32	C	-0.896415	0.238843	-0.072216
C33	C	-0.897674	0.159901	-0.072215
C34	C	-0.891335	0.557209	-0.072220
C35	C	-0.890078	0.636157	-0.072215
C36	C	-0.890083	0.636138	0.072321
C37	C	-0.891343	0.557196	0.072322
C38	C	-0.891964	0.517734	0.000049
C39	C	-0.893333	0.432135	0.000050
C40	C	-0.894426	0.363909	0.000056
C41	C	-0.888103	0.759637	0.000058
C42	C	-0.889446	0.675619	0.000053
N43	N	-0.893882	-0.101988	0.206606
N44	N	-0.893881	-0.101961	-0.206491
C45	C	-0.945525	-0.050543	0.248325
C46	C	-0.945528	-0.050542	0.331778
C47	C	-0.893884	-0.101981	0.373509
C48	C	-0.842239	-0.153432	0.331785
C49	C	-0.842240	-0.153437	0.248334
C50	C	-0.842233	-0.153414	0.668332
C51	C	-0.842234	-0.153403	0.751788
C52	C	-0.945521	-0.050518	0.751775
C53	C	-0.945522	-0.050523	0.668325
C54	C	-0.893880	-0.101976	0.626607
C55	C	-0.893878	-0.101978	0.536119
C56	C	-0.893881	-0.101976	0.463996
H57	H	-0.266842	-0.099956	0.131186
H58	H	-0.891856	0.525091	-0.131069
H59	H	-0.987573	-0.008625	0.785751
H60	H	-0.520938	-0.104025	0.131169
H61	H	-0.895896	0.270994	-0.131058
C62	C	-1.002330	0.006052	0.377665
H63	H	-1.033080	0.036694	0.340859
H64	H	-1.033729	-0.021195	0.410228
H65	H	-0.975222	0.037586	0.410209
C66	C	-0.675409	-0.106447	-0.151724
H67	H	-0.640595	-0.105872	-0.194766
H68	H	-0.700356	-0.151055	-0.154739
H69	H	-0.712053	-0.062812	-0.154716
C70	C	-0.509569	-0.104296	-0.151714
H71	H	-0.456883	-0.103594	-0.141365
H72	H	-0.516812	-0.148768	-0.181079
H73	H	-0.528160	-0.060522	-0.181735
C74	C	-0.785432	-0.209995	0.797696
H75	H	-0.792825	-0.202617	0.853370
H76	H	-0.793467	-0.260525	0.784032
H77	H	-0.734959	-0.201744	0.784015
C78	C	-0.898382	0.116466	0.151823
H79	H	-0.897820	0.151276	0.194863
H80	H	-0.942991	0.091519	0.154833
H81	H	-0.854748	0.079821	0.154824
H82	H	-0.895915	0.270957	0.131174
H83	H	-0.800183	-0.195307	0.634372
H84	H	-0.664159	-0.106312	0.131161
C85	C	-1.002333	0.006042	0.202428
H86	H	-1.033094	0.036676	0.239229
H87	H	-0.975235	0.037573	0.169864
H88	H	-1.033732	-0.021218	0.169883
H89	H	-0.987573	-0.008634	0.634349
C90	C	-0.889374	0.679583	-0.151715
H91	H	-0.889916	0.644774	-0.194758
H92	H	-0.933001	0.716229	-0.154722
H93	H	-0.844758	0.704527	-0.154711
H94	H	-0.800192	-0.195319	0.365767
C95	C	-0.112309	-0.097506	-0.151688
H96	H	-0.059642	-0.096670	-0.141335
H97	H	-0.119404	-0.141841	-0.181356
H98	H	-0.131079	-0.053597	-0.181409
H99	H	-0.800189	-0.195329	0.214367
H100	H	-0.891861	0.525055	0.131171
C101	C	-0.112353	-0.097505	0.151843
H102	H	-0.147174	-0.098060	0.194880
H103	H	-0.075708	-0.141133	0.154848
H104	H	-0.087409	-0.052890	0.154852
H105	H	-0.889574	0.668276	0.131169
C106	C	-0.278094	-0.100113	-0.151699
H107	H	-0.330762	-0.100964	-0.141353
H108	H	-0.271007	-0.055786	-0.181395
H109	H	-0.259298	-0.144029	-0.181388
H110	H	-0.898174	0.127771	-0.131063
