data_functionalizedCrystal
_audit_creation_method	'MofGen! by Chris Wilmer'
_symmetry_space_group_name_H-M	'P1'
_symmetry_Int_Tables_number	1
_symmetry_cell_setting	triclinic
loop_
_symmetry_equiv_pos_as_xyz
  x,y,z
_cell_length_a	11.169417
_cell_length_b	10.686285
_cell_length_c	11.169409
_cell_angle_alpha	94.400340
_cell_angle_beta	90.019824
_cell_angle_gamma	85.632710
loop_
_atom_site_label
_atom_site_type_symbol
_atom_site_fract_x
_atom_site_fract_y
_atom_site_fract_z
Zn1	Zn	1.871633	-0.502220	0.641959
Zn2	Zn	2.204966	-0.168887	0.975292
Zn3	Zn	2.538300	0.164447	1.308626
Zn4	Zn	1.886933	-0.713272	0.425902
Zn5	Zn	2.220266	-0.379939	0.759235
Zn6	Zn	2.553599	-0.046606	1.092569
Zn7	Zn	1.670924	-0.502297	0.441288
Zn8	Zn	2.004258	-0.168963	0.774621
Zn9	Zn	2.337591	0.164370	1.107954
Zn10	Zn	1.686329	-0.713169	0.626554
Zn11	Zn	2.019662	-0.379836	0.959888
Zn12	Zn	2.352996	-0.046503	1.293221
O13	O	1.778955	-0.607740	0.533926
O14	O	2.112288	-0.274406	0.867259
O15	O	2.445621	0.058927	1.200592
O16	O	2.041613	-0.530227	0.613306
O17	O	2.374946	-0.196894	0.946640
O18	O	2.708280	0.136439	1.279973
O19	O	1.858235	-0.685361	0.259988
O20	O	2.191568	-0.352028	0.593321
O21	O	2.524901	-0.018694	0.926654
O22	O	1.684699	-0.325709	0.480793
O23	O	2.018032	0.007624	0.814126
O24	O	2.351366	0.340957	1.147460
O25	O	2.052854	-0.685286	0.454570
O26	O	2.386187	-0.351953	0.787904
O27	O	2.719520	-0.018620	1.121237
O28	O	1.832159	-0.325653	0.628225
O29	O	2.165492	0.007680	0.961559
O30	O	2.498825	0.341014	1.294892
O31	O	1.699534	-0.530358	0.271291
O32	O	2.032868	-0.197025	0.604625
O33	O	2.366201	0.136308	0.937958
O34	O	1.505017	-0.530259	0.465856
O35	O	1.838351	-0.196925	0.799189
O36	O	2.171684	0.136408	1.132522
O37	O	1.710954	-0.685111	0.796553
O38	O	2.044287	-0.351778	1.129886
O39	O	2.377621	-0.018445	1.463220
O40	O	1.516335	-0.685186	0.601970
O41	O	1.849669	-0.351853	0.935304
O42	O	2.183002	-0.018519	1.268637
O43	O	1.847096	-0.530128	0.807871
O44	O	2.180429	-0.196794	1.141204
O45	O	2.513763	0.136539	1.474537
O46	O	1.873172	-0.889836	0.439633
O47	O	2.206505	-0.556502	0.772966
O48	O	2.539839	-0.223169	1.106300
O49	O	1.725790	-0.889760	0.587051
O50	O	2.059123	-0.556427	0.920385
O51	O	2.392456	-0.223094	1.253718
C52	C	1.467129	-0.607720	0.533912
C53	C	1.800462	-0.274387	0.867245
C54	C	2.133795	0.058946	1.200578
C55	C	1.333730	-0.607743	0.533932
C56	C	1.667064	-0.274409	0.867265
C57	C	2.000397	0.058924	1.200599
C58	C	1.802845	-0.935582	0.510027
C59	C	2.136179	-0.602249	0.843361
C60	C	2.469512	-0.268916	1.176694
C61	C	1.813176	-1.075835	0.499843
C62	C	2.146509	-0.742502	0.833177
C63	C	2.479842	-0.409168	1.166510
C64	C	2.091999	-0.607760	0.533940
C65	C	2.425332	-0.274426	0.867274
C66	C	2.758665	0.058907	1.200607
C67	C	2.225399	-0.607768	0.533947
C68	C	2.558732	-0.274435	0.867280
C69	C	2.892066	0.058898	1.200613
C70	C	1.779037	-0.607599	0.846979
C71	C	2.112370	-0.274266	1.180312
C72	C	2.445703	0.059067	1.513645
C73	C	1.779072	-0.607540	0.980383
C74	C	2.112405	-0.274206	1.313716
C75	C	2.445738	0.059127	1.647050
C76	C	1.755004	-0.278617	0.557944
C77	C	2.088337	0.054717	0.891277
C78	C	2.421670	0.388050	1.224611
C79	C	1.744797	-0.138364	0.568179
C80	C	2.078130	0.194969	0.901512
C81	C	2.411464	0.528303	1.234846
C82	C	1.778936	-0.607788	0.222097
C83	C	2.112269	-0.274455	0.555431
C84	C	2.445602	0.058879	0.888764
C85	C	1.779107	-0.607492	0.088720
C86	C	2.112441	-0.274159	0.422053
C87	C	2.445774	0.059174	0.755386
H88	H	1.879615	-1.129605	0.433534
H89	H	2.212949	-0.796272	0.766867
H90	H	2.546282	-0.462938	1.100200
H91	H	1.678353	-1.084602	0.634477
H92	H	2.011687	-0.751268	0.967810
H93	H	2.345020	-0.417935	1.301143
