data_functionalizedCrystal
_audit_creation_method	'MofGen! by Chris Wilmer'
_symmetry_space_group_name_H-M	'P1'
_symmetry_Int_Tables_number	1
_symmetry_cell_setting	triclinic
loop_
_symmetry_equiv_pos_as_xyz
  x,y,z
_cell_length_a	6.817900
_cell_length_b	17.078472
_cell_length_c	17.078539
_cell_angle_alpha	96.867077
_cell_angle_beta	99.306943
_cell_angle_gamma	99.306020
loop_
_atom_site_label
_atom_site_type_symbol
_atom_site_fract_x
_atom_site_fract_y
_atom_site_fract_z
V1	V	-3.958852	-0.109560	-0.247278
O2	O	-3.969078	0.005479	-0.242653
O3	O	-3.890232	-0.217444	-0.245508
O4	O	-3.890232	-0.107780	-0.355161
O5	O	-3.969078	-0.104944	-0.132241
V6	V	-4.447720	-0.095811	-0.233529
O7	O	-4.208386	-0.139719	-0.277440
O8	O	-4.648383	-0.065652	-0.203367
O9	O	-4.293133	0.012074	-0.235299
O10	O	-4.554890	-0.210849	-0.238154
O11	O	-4.554890	-0.100426	-0.348566
O12	O	-4.293133	-0.097590	-0.125646
C13	C	-3.730968	-0.243747	-0.241587
C14	C	-3.756015	-0.331943	-0.240859
C15	C	-3.730968	-0.103859	-0.381459
C16	C	-3.756013	-0.103118	-0.469653
C17	C	-3.877576	-0.098631	-0.965674
C18	C	-3.854051	-0.099305	-0.882803
C19	C	-4.022887	-0.103604	-0.845410
C20	C	-4.215259	-0.107221	-0.890890
C21	C	-4.238780	-0.106542	-0.973759
C22	C	-3.971906	-0.106056	-0.598002
C23	C	-3.948371	-0.106738	-0.515128
C24	C	-3.587162	-0.098820	-0.507046
C25	C	-3.610702	-0.098146	-0.589918
C26	C	-3.803069	-0.101759	-0.635390
N27	N	-3.998846	-0.104295	-0.760703
N28	N	-3.827106	-0.101061	-0.720095
C29	C	-3.948370	-0.377415	-0.244471
C30	C	-3.971895	-0.460285	-0.243792
C31	C	-3.803060	-0.497681	-0.239494
C32	C	-3.610690	-0.452203	-0.235884
C33	C	-3.587170	-0.369335	-0.236569
C34	C	-3.854039	-0.745087	-0.237026
C35	C	-3.877573	-0.827960	-0.236339
C36	C	-4.238778	-0.836037	-0.244248
C37	C	-4.215239	-0.753167	-0.244928
C38	C	-4.022874	-0.707697	-0.241322
N39	N	-3.827100	-0.582387	-0.238797
N40	N	-3.998838	-0.622993	-0.242025
C41	C	-4.115738	0.038372	-0.239218
C42	C	-4.069928	0.126568	-0.239951
C43	C	-4.115740	-0.101514	-0.099344
C44	C	-4.069933	-0.102250	-0.011149
H45	H	-3.697424	-0.096380	-0.845785
C46	C	-4.183491	-0.510297	-0.247751
C47	C	-4.352396	-0.512965	-0.320299
C48	C	-4.564003	-0.562974	-0.324256
C49	C	-4.606705	-0.610315	-0.255664
C50	C	-4.437794	-0.607649	-0.183111
C51	C	-4.226187	-0.557640	-0.179155
H52	H	-4.320790	-0.477919	-0.371079
H53	H	-4.689042	-0.564948	-0.377964
H54	H	-4.763349	-0.647334	-0.258593
H55	H	-4.469400	-0.642695	-0.132331
H56	H	-4.101149	-0.555666	-0.125446
H57	H	-4.128539	-0.108996	-0.635016
H58	H	-4.085856	-0.346973	-0.247963
H59	H	-3.740088	-0.095134	-0.996114
H60	H	-3.473214	-0.094647	-0.620358
H61	H	-3.430543	-0.095877	-0.470014
H62	H	-4.085869	-0.110240	-0.484685
H63	H	-4.352729	-0.722726	-0.248433
H64	H	-4.352726	-0.110716	-0.860437
H65	H	-4.395416	-0.109490	-1.010784
H66	H	-4.395395	-0.873068	-0.247184
H67	H	-3.740083	-0.858408	-0.232858
H68	H	-3.473225	-0.482657	-0.232390
H69	H	-3.697405	-0.708074	-0.234085
H70	H	-3.430537	-0.332313	-0.233631
