data_functionalizedCrystal
_audit_creation_method	'MofGen! by Chris Wilmer'
_symmetry_space_group_name_H-M	'P1'
_symmetry_Int_Tables_number	1
_symmetry_cell_setting	triclinic
loop_
_symmetry_equiv_pos_as_xyz
  x,y,z
_cell_length_a	14.044209
_cell_length_b	14.971486
_cell_length_c	12.503552
_cell_angle_alpha	93.523690
_cell_angle_beta	86.160764
_cell_angle_gamma	88.401041
loop_
_atom_site_label
_atom_site_type_symbol
_atom_site_fract_x
_atom_site_fract_y
_atom_site_fract_z
O1	O	-1.263411	-0.210925	0.089192
O2	O	-0.987435	-0.203143	0.089222
O3	O	-1.132820	-0.077417	0.089199
O4	O	-1.118027	-0.336651	0.089216
O5	O	-1.121873	-0.086880	-0.089442
O6	O	-0.976489	-0.212606	-0.089418
O7	O	-1.252465	-0.220388	-0.089449
Cu8	Cu	-1.113477	-0.217361	-0.105745
Cu9	Cu	-1.126423	-0.206170	0.105518
O10	O	-1.107080	-0.346114	-0.089425
C11	C	-0.946644	-0.204468	-0.000094
C12	C	-0.841407	-0.194307	-0.000083
N13	N	-1.104379	-0.225233	-0.254336
C14	C	-1.126685	-0.048772	-0.000121
C15	C	-1.124702	0.050682	-0.000120
C16	C	-0.648723	-0.175733	-0.000103
C17	C	-0.591172	-0.247800	-0.000102
C18	C	-0.483956	-0.237465	-0.000113
C19	C	-0.755949	-0.186066	-0.000092
C20	C	-0.293256	-0.219064	-0.000127
C21	C	-0.398493	-0.229230	-0.000122
C22	C	-1.113215	-0.374759	-0.000103
C23	C	-1.115198	-0.474212	-0.000097
C24	C	-1.210112	0.101179	-0.000130
C25	C	-1.208244	0.194626	-0.000119
C26	C	-1.120965	0.237574	-0.000106
C27	C	-1.035549	0.187070	-0.000092
C28	C	-1.037418	0.093625	-0.000096
C29	C	-1.031659	0.381840	-0.000088
C30	C	-1.029789	0.475291	-0.000087
C31	C	-1.202484	0.482840	-0.000112
C32	C	-1.204354	0.389395	-0.000115
C33	C	-1.118937	0.338898	-0.000104
C34	C	-1.148907	-0.186709	-0.526777
C35	C	-1.091003	-0.236813	-0.473443
C36	C	-1.098448	-0.230368	-0.351521
C37	C	-1.141464	-0.193153	-0.648710
N38	N	-1.135528	-0.198292	0.254110
H39	H	-0.617475	-0.106278	-0.000113
H40	H	-0.958717	0.510256	-0.000093
N41	N	-1.304249	0.054859	-0.000155
H42	H	-1.358072	0.101032	-0.000158
H43	H	-1.312846	0.019755	0.066066
H44	H	-1.035840	-0.284548	-0.519350
N45	N	-1.221960	-0.123465	-0.465981
H46	H	-1.216981	-0.127763	-0.386240
H47	H	-1.288058	-0.140168	-0.485553
H48	H	-0.967869	0.052512	-0.000087
H49	H	-0.622422	-0.317261	-0.000093
N50	N	-1.294612	0.537302	-0.000126
H51	H	-1.301752	0.579743	0.066099
H52	H	-1.350130	0.495854	-0.000184
H53	H	-1.277793	0.235737	-0.000130
N54	N	-1.298487	0.343068	-0.000143
H55	H	-1.352315	0.389236	-0.000148
H56	H	-1.307081	0.307964	0.066079
N57	N	-0.939533	0.327372	-0.000069
H58	H	-0.883958	0.368757	-0.000063
H59	H	-0.932491	0.284932	-0.066294
H60	H	-0.964485	0.222047	-0.000075
