data_functionalizedCrystal
_audit_creation_method	'MofGen! by Chris Wilmer'
_symmetry_space_group_name_H-M	'P1'
_symmetry_Int_Tables_number	1
_symmetry_cell_setting	triclinic
loop_
_symmetry_equiv_pos_as_xyz
  x,y,z
_cell_length_a	18.050590
_cell_length_b	18.050590
_cell_length_c	18.101389
_cell_angle_alpha	90.019149
_cell_angle_beta	90.003324
_cell_angle_gamma	90.007719
loop_
_atom_site_label
_atom_site_type_symbol
_atom_site_fract_x
_atom_site_fract_y
_atom_site_fract_z
Zn1	Zn	1.135372	-0.295952	0.418420
Zn2	Zn	1.635372	0.204048	0.918420
Zn3	Zn	1.135295	-0.420126	0.294577
Zn4	Zn	1.635295	0.079874	0.794577
Zn5	Zn	1.011183	-0.295931	0.294626
Zn6	Zn	1.511183	0.204069	0.794626
Zn7	Zn	1.011160	-0.420081	0.418411
Zn8	Zn	1.511160	0.079919	0.918411
O9	O	1.073253	-0.358023	0.356509
O10	O	1.573253	0.141977	0.856509
O11	O	1.239287	-0.312452	0.401975
O12	O	1.739287	0.187548	0.901975
O13	O	1.118808	-0.403662	0.190950
O14	O	1.618808	0.096338	0.690950
O15	O	1.027698	-0.192009	0.311073
O16	O	1.527698	0.307991	0.811073
O17	O	1.239230	-0.403682	0.310988
O18	O	1.739230	0.096318	0.810988
O19	O	1.118940	-0.192025	0.402023
O20	O	1.618940	0.307975	0.902023
O21	O	1.027623	-0.312416	0.190987
O22	O	1.527623	0.187584	0.690987
O23	O	0.907255	-0.312372	0.311064
O24	O	1.407255	0.187628	0.811064
O25	O	1.027660	-0.403605	0.522045
O26	O	1.527660	0.096395	1.022045
O27	O	0.907239	-0.403585	0.402007
O28	O	1.407239	0.096415	0.902007
O29	O	1.118918	-0.312408	0.522052
O30	O	1.618918	0.187592	1.022052
O31	O	1.118787	-0.524045	0.310979
O32	O	1.618787	-0.024045	0.810979
O33	O	1.027586	-0.524012	0.401959
O34	O	1.527586	-0.024012	0.901959
C35	C	0.880301	-0.357972	0.356540
C36	C	1.380301	0.142028	0.856540
C37	C	0.797755	-0.357968	0.356572
C38	C	1.297755	0.142032	0.856572
C39	C	0.598317	-0.407712	0.405909
C40	C	1.098317	0.092288	0.905909
C41	C	0.548914	-0.339998	0.424134
C42	C	1.048914	0.160002	0.924134
C43	C	0.646624	-0.358010	0.356535
C44	C	1.146624	0.141990	0.856535
C45	C	0.548946	-0.425762	0.338310
C46	C	1.048946	0.074238	0.838310
C47	C	0.500639	-0.358056	0.356502
C48	C	1.000639	0.141944	0.856502
C49	C	0.598308	-0.290260	0.374796
C50	C	1.098308	0.209740	0.874796
C51	C	0.598345	-0.376070	0.288940
C52	C	1.098345	0.123930	0.788940
C53	C	0.548964	-0.308309	0.307139
C54	C	1.048964	0.191691	0.807139
C55	C	0.730723	-0.357984	0.356557
C56	C	1.230723	0.142016	0.856557
C57	C	0.416543	-0.358074	0.356481
C58	C	0.916543	0.141926	0.856481
C59	C	1.073196	-0.550975	0.356479
C60	C	1.573196	-0.050975	0.856479
C61	C	1.073239	-0.633521	0.356491
C62	C	1.573239	-0.133521	0.856491
C63	C	1.122937	-0.832962	0.307085
C64	C	1.622937	-0.332962	0.807085
C65	C	1.141078	-0.882309	0.374670
C66	C	1.641078	-0.382309	0.874670
C67	C	1.073281	-0.784651	0.356521
C68	C	1.573281	-0.284651	0.856521
C69	C	1.055216	-0.882386	0.288966
C70	C	1.555216	-0.382386	0.788966
C71	C	1.073323	-0.930636	0.356543
C72	C	1.573323	-0.430636	0.856543
C73	C	1.091456	-0.832911	0.424141
C74	C	1.591456	-0.332911	0.924141
C75	C	1.005564	-0.832983	0.338392
C76	C	1.505564	-0.332983	0.838392
C77	C	1.023678	-0.882307	0.406023
C78	C	1.523678	-0.382307	0.906023
C79	C	1.073259	-0.700553	0.356507
C80	C	1.573259	-0.200553	0.856507
C81	C	1.073346	-1.014733	0.356565
C82	C	1.573346	-0.514733	0.856565
C83	C	1.266958	-0.358074	0.356477
C84	C	1.766958	0.141926	0.856477
C85	C	1.349504	-0.358096	0.356463
C86	C	1.849504	0.141904	0.856463
C87	C	1.073296	-0.358004	0.549670
C88	C	1.573296	0.141996	1.049670
C89	C	1.073314	-0.357996	0.631985
C90	C	1.573314	0.142004	1.131985
C91	C	1.073330	-0.164317	0.356554
C92	C	1.573330	0.335683	0.856554
C93	C	1.073363	-0.081771	0.356574
C94	C	1.573363	0.418229	0.856574
C95	C	1.073253	-0.357988	0.164098
C96	C	1.573253	0.142012	0.664098
C97	C	1.073378	-0.357787	0.081784
C98	C	1.573378	0.142213	0.581784
C99	C	1.073357	-0.357857	0.931076
C100	C	1.573357	0.142143	1.431076
C101	C	1.015742	-0.415053	0.899746
C102	C	1.515742	0.084947	1.399746
C103	C	1.015898	-0.415318	0.814128
C104	C	1.515898	0.084682	1.314128
C105	C	1.073335	-0.357926	0.782693
C106	C	1.573335	0.142074	1.282693
C107	C	1.151585	-0.379184	0.813770
C108	C	1.651585	0.120816	1.313770
C109	C	1.151264	-0.379560	0.899415
C110	C	1.651264	0.120440	1.399415
C111	C	1.053402	-0.279275	0.899508
C112	C	1.553402	0.220725	1.399508
C113	C	1.051662	-0.279728	0.813858
C114	C	1.551662	0.220272	1.313858
C115	C	1.073327	-0.357964	0.698834
C116	C	1.573327	0.142036	1.198834
C117	C	1.073370	-0.357821	1.014935
C118	C	1.573370	0.142179	1.514935
H119	H	0.620074	-0.391351	0.231806
H120	H	1.120074	0.108649	0.731806
Cl121	Cl	0.962750	-0.254979	0.782510
Cl122	Cl	1.462750	0.245021	1.282510
H123	H	0.957873	-0.402014	0.793117
H124	H	1.457873	0.097986	1.293117
H125	H	1.090562	-0.234851	0.792460
H126	H	1.590562	0.265149	1.292460
H127	H	0.948295	-0.811298	0.323023
H128	H	1.448295	-0.311298	0.823023
H129	H	1.106696	-0.811271	0.481330
H130	H	1.606696	-0.311271	0.981330
Cl131	Cl	1.219748	-0.317994	0.931416
Cl132	Cl	1.719748	0.182006	1.431416
Cl133	Cl	1.219646	-0.316890	0.782336
Cl134	Cl	1.719646	0.183110	1.282336
H135	H	0.527259	-0.483040	0.322911
H136	H	1.027259	0.016960	0.822911
Cl137	Cl	1.036283	-0.505238	0.782491
Cl138	Cl	1.536283	-0.005238	1.282491
Cl139	Cl	1.178153	-0.466933	0.780657
Cl140	Cl	1.678153	0.033067	1.280657
H141	H	0.981704	-0.903837	0.447887
H142	H	1.481704	-0.403837	0.947887
Cl143	Cl	1.177376	-0.468250	0.930261
Cl144	Cl	1.677376	0.031750	1.430261
H145	H	0.997334	-0.259910	0.921115
H146	H	1.497334	0.240090	1.421115
Cl147	Cl	0.515389	-0.316435	0.512368
Cl148	Cl	1.015389	0.183565	1.012368
H149	H	0.619901	-0.232965	0.390261
H150	H	1.119901	0.267035	0.890261
H151	H	1.095366	-0.236661	0.919769
H152	H	1.595366	0.263339	1.419769
H153	H	0.619989	-0.449669	0.447710
H154	H	1.119989	0.050331	0.947710
Cl155	Cl	1.031599	-0.915939	0.200749
Cl156	Cl	1.531599	-0.415939	0.700749
H157	H	0.527431	-0.266249	0.265371
H158	H	1.027431	0.233751	0.765371
Cl159	Cl	1.187789	-0.799506	0.242605
Cl160	Cl	1.687789	-0.299506	0.742605
Cl161	Cl	0.925882	-0.394720	0.931555
Cl162	Cl	1.425882	0.105280	1.431555
Cl163	Cl	1.229524	-0.915747	0.398380
Cl164	Cl	1.729524	-0.415747	0.898380
Cl165	Cl	1.035837	-0.504424	0.933025
Cl166	Cl	1.535837	-0.004424	1.433025
