data_functionalizedCrystal
_audit_creation_method	'MofGen! by Chris Wilmer'
_symmetry_space_group_name_H-M	'P1'
_symmetry_Int_Tables_number	1
_symmetry_cell_setting	triclinic
loop_
_symmetry_equiv_pos_as_xyz
  x,y,z
_cell_length_a	16.625548
_cell_length_b	12.645330
_cell_length_c	12.645331
_cell_angle_alpha	90.010682
_cell_angle_beta	90.009786
_cell_angle_gamma	90.018760
loop_
_atom_site_label
_atom_site_type_symbol
_atom_site_fract_x
_atom_site_fract_y
_atom_site_fract_z
Zn1	Zn	1.232621	-0.422149	0.599440
Zn2	Zn	1.732621	0.077851	1.099440
Zn3	Zn	1.232561	-0.599393	0.422180
Zn4	Zn	1.732561	-0.099393	0.922180
Zn5	Zn	1.097809	-0.422148	0.422185
Zn6	Zn	1.597809	0.077852	0.922185
Zn7	Zn	1.097765	-0.599374	0.599396
Zn8	Zn	1.597765	-0.099374	1.099396
O9	O	1.165189	-0.510766	0.510800
O10	O	1.665189	-0.010766	1.010800
O11	O	1.345446	-0.445670	0.575942
O12	O	1.845446	0.054330	1.075942
O13	O	1.214679	-0.575888	0.273833
O14	O	1.714679	-0.075888	0.773833
O15	O	1.115735	-0.273801	0.445719
O16	O	1.615735	0.226199	0.945719
O17	O	1.345402	-0.575890	0.445710
O18	O	1.845402	-0.075890	0.945710
O19	O	1.214782	-0.273802	0.575947
O20	O	1.714782	0.226198	1.075947
O21	O	1.115677	-0.445667	0.273837
O22	O	1.615677	0.054333	0.773837
O23	O	0.984970	-0.445649	0.445676
O24	O	1.484970	0.054351	0.945676
O25	O	1.115661	-0.575858	0.747749
O26	O	1.615661	-0.075858	1.247749
O27	O	0.984938	-0.575856	0.575872
O28	O	1.484938	-0.075856	1.075872
O29	O	1.214739	-0.445651	0.747781
O30	O	1.714739	0.054349	1.247781
O31	O	1.214637	-0.747738	0.445668
O32	O	1.714637	-0.247738	0.945668
O33	O	1.115602	-0.747724	0.575867
O34	O	1.615602	-0.247724	1.075867
C35	C	0.955698	-0.510751	0.510771
C36	C	1.455698	-0.010751	1.010771
C37	C	0.866077	-0.510770	0.510783
C38	C	1.366077	-0.010770	1.010783
C39	C	0.537901	-0.510777	0.510828
C40	C	1.037901	-0.010777	1.010828
C41	C	0.629210	-0.510772	0.510812
C42	C	1.129210	-0.010772	1.010812
C43	C	0.701986	-0.510774	0.510805
C44	C	1.201986	-0.010774	1.010805
C45	C	0.793301	-0.510768	0.510791
C46	C	1.293301	-0.010768	1.010791
C47	C	1.165130	-0.786196	0.510785
C48	C	1.665130	-0.286196	1.010785
C49	C	1.165179	-0.904026	0.510815
C50	C	1.665179	-0.404026	1.010815
C51	C	1.103133	-1.071625	0.592976
C52	C	1.603133	-0.571625	1.092976
C53	C	1.102816	-0.949066	0.592712
C54	C	1.602816	-0.449066	1.092712
C55	C	1.142193	-0.948593	0.399093
C56	C	1.642193	-0.448593	0.899093
C57	C	1.141814	-1.071191	0.399591
C58	C	1.641814	-0.571191	0.899591
C59	C	1.250590	-1.071120	0.539469
C60	C	1.750590	-0.571120	1.039469
C61	C	1.250066	-0.948514	0.541912
C62	C	1.750066	-0.448514	1.041912
C63	C	1.375498	-0.510782	0.510831
C64	C	1.875498	-0.010782	1.010831
C65	C	1.465119	-0.510789	0.510844
C66	C	1.965119	-0.010789	1.010844
C67	C	1.165202	-0.510753	0.787305
C68	C	1.665202	-0.010753	1.287305
C69	C	1.165207	-0.510747	0.905136
C70	C	1.665207	-0.010747	1.405136
C71	C	1.165270	-0.234261	0.510838
C72	C	1.665270	0.265739	1.010838
C73	C	1.165305	-0.116431	0.510855
C74	C	1.665305	0.383569	1.010855
C75	C	1.227751	-0.429133	1.072720
C76	C	1.727751	0.070867	1.572720
C77	C	1.227572	-0.428793	0.950160
C78	C	1.727572	0.071207	1.450160
C79	C	1.080255	-0.480407	0.949614
C80	C	1.580255	0.019593	1.449614
C81	C	1.080613	-0.479832	1.072212
C82	C	1.580613	0.020168	1.572212
C83	C	1.186861	-0.622959	1.072333
C84	C	1.686861	-0.122959	1.572333
C85	C	1.188741	-0.622350	0.949728
C86	C	1.688741	-0.122350	1.449728
C87	C	1.165179	-0.510796	1.235371
C88	C	1.665179	-0.010796	1.735371
C89	C	1.165201	-0.510778	1.117540
C90	C	1.665201	-0.010778	1.617540
H91	H	1.117195	-0.918932	0.675552
H92	H	1.617195	-0.418932	1.175552
H93	H	1.039589	-0.919828	0.573754
H94	H	1.539589	-0.419828	1.073754
Br95	Br	1.278962	-0.899966	0.678955
Br96	Br	1.778962	-0.399966	1.178955
H97	H	1.296909	-1.100092	0.479657
H98	H	1.796909	-0.600092	0.979657
H99	H	1.141307	-0.683793	1.101326
H100	H	1.641307	-0.183793	1.601326
Br101	Br	1.332568	-0.460443	0.900033
Br102	Br	1.832568	0.039557	1.400033
Br103	Br	1.285545	-1.122560	0.672946
Br104	Br	1.785545	-0.622560	1.172946
H105	H	1.251258	-0.645229	0.920656
H106	H	1.751258	-0.145229	1.420656
H107	H	1.298825	-0.917849	0.486455
H108	H	1.798825	-0.417849	0.986455
Br109	Br	1.333080	-0.460429	1.121879
Br110	Br	1.833080	0.039571	1.621879
H111	H	1.213594	-0.346490	1.103543
H112	H	1.713594	0.153510	1.603543
Br113	Br	1.049110	-0.345212	0.898466
Br114	Br	1.549110	0.154788	1.398466
H115	H	1.117380	-1.101057	0.676088
H116	H	1.617380	-0.601057	1.176088
Br117	Br	1.203687	-0.290245	0.901293
Br118	Br	1.703687	0.209755	1.401293
Br119	Br	1.049971	-0.343170	1.119903
Br120	Br	1.549971	0.156830	1.619903
H121	H	1.032423	-0.536712	1.101860
H122	H	1.532423	-0.036712	1.601860
H123	H	1.032392	-0.538024	0.920447
H124	H	1.532392	-0.038024	1.420447
H125	H	1.079471	-1.099878	0.375351
H126	H	1.579471	-0.599878	0.875351
Br127	Br	1.214005	-1.120601	0.294126
Br128	Br	1.714005	-0.620601	0.794126
Br129	Br	1.288329	-0.668992	1.123885
Br130	Br	1.788329	-0.168992	1.623885
Br131	Br	0.998411	-1.123150	0.561812
Br132	Br	1.498411	-0.623150	1.061812
H133	H	1.146504	-0.686431	0.919075
H134	H	1.646504	-0.186431	1.419075
Br135	Br	1.215274	-0.899973	0.294318
Br136	Br	1.715274	-0.399973	0.794318
H137	H	1.080500	-0.917977	0.374414
H138	H	1.580500	-0.417977	0.874414
