data_functionalizedCrystal
_audit_creation_method	'MofGen! by Chris Wilmer'
_symmetry_space_group_name_H-M	'P1'
_symmetry_Int_Tables_number	1
_symmetry_cell_setting	triclinic
loop_
_symmetry_equiv_pos_as_xyz
  x,y,z
_cell_length_a	27.732048
_cell_length_b	15.072220
_cell_length_c	15.995292
_cell_angle_alpha	89.995866
_cell_angle_beta	83.055636
_cell_angle_gamma	89.993036
loop_
_atom_site_label
_atom_site_type_symbol
_atom_site_fract_x
_atom_site_fract_y
_atom_site_fract_z
O1	O	0.641351	-0.073674	0.099625
O2	O	0.500621	-0.073702	0.114774
O3	O	0.574847	-0.073674	-0.014741
O4	O	0.567124	-0.073701	0.229140
O5	O	0.574829	0.073891	-0.014734
O6	O	0.500602	0.073863	0.114781
O7	O	0.641332	0.073891	0.099632
Zn8	Zn	0.570964	0.097306	0.107208
Zn9	Zn	0.570989	-0.097117	0.107198
O10	O	0.567106	0.073864	0.229148
C11	C	0.482603	0.000078	0.114460
C12	C	0.428944	0.000067	0.113502
N13	N	0.570952	0.229995	0.107214
C14	C	0.574524	0.000109	-0.045929
C15	C	0.573581	0.000113	-0.138870
C16	C	0.090425	0.000098	0.184009
C17	C	-0.111250	0.000106	0.180456
O18	O	-0.142235	0.000138	0.244930
N19	N	-0.130695	0.000113	0.103659
C20	C	-0.099719	0.000124	0.027745
O21	O	-0.120886	0.000139	-0.037658
C22	C	0.101955	0.000122	0.031298
C23	C	0.121397	0.000106	0.108100
C24	C	0.109868	0.000083	0.260805
C25	C	0.160284	0.000076	0.261692
C26	C	0.191256	0.000084	0.185784
C27	C	0.171813	0.000099	0.108988
C28	C	0.132930	0.000139	-0.044615
C29	C	0.183351	0.000141	-0.043720
C30	C	0.202794	0.000125	0.033082
C31	C	0.253201	0.000100	0.033966
N32	N	0.272647	0.000093	0.110764
C33	C	0.241674	0.000085	0.186672
C34	C	-0.205601	0.000123	0.025884
C35	C	-0.256019	0.000122	0.024996
C36	C	-0.267546	0.000106	0.177708
C37	C	-0.217127	0.000101	0.178595
C38	C	-0.186155	0.000116	0.102681
C39	C	0.347551	0.000070	0.188530
C40	C	0.397972	0.000060	0.189411
C41	C	0.409495	0.000080	0.036699
C42	C	0.359079	0.000086	0.035818
C43	C	0.328108	0.000084	0.111740
O44	O	0.284215	0.000079	-0.030473
O45	O	0.262851	0.000090	0.252065
C46	C	0.040009	0.000105	0.183122
C47	C	0.020566	0.000120	0.106326
C48	C	0.051539	0.000128	0.030417
C49	C	-0.029852	0.000119	0.105437
C50	C	-0.060825	0.000111	0.181346
C51	C	-0.041379	0.000104	0.258143
C52	C	0.009037	0.000097	0.259030
C53	C	0.032093	0.000135	-0.046380
C54	C	-0.018323	0.000141	-0.047261
C55	C	-0.049296	0.000133	0.028647
C56	C	0.659350	0.000110	0.099947
C57	C	0.713009	0.000114	0.100904
N58	N	0.571005	-0.229806	0.107186
C59	C	0.570988	0.589197	0.107195
C60	C	0.531137	0.551575	0.176267
C61	C	0.531229	0.448749	0.176516
C62	C	0.570969	0.410993	0.107205
C63	C	0.621402	0.448291	0.125634
C64	C	0.621178	0.551149	0.126124
C65	C	0.560856	0.551304	0.019484
C66	C	0.559698	0.448441	0.020085
C67	C	0.570962	0.310279	0.107208
C68	C	0.570998	0.689910	0.107193
C69	C	0.567429	0.000078	0.260336
C70	C	0.568372	0.000068	0.353276
C71	C	0.571836	0.000098	0.690970
C72	C	0.518261	0.000414	0.668351
C73	C	0.517243	0.000072	0.571689
C74	C	0.570117	0.000084	0.523436
C75	C	0.596912	-0.084173	0.552198
C76	C	0.597557	-0.084234	0.648980
C77	C	0.598630	0.083575	0.648809
C78	C	0.596645	0.084680	0.552342
C79	C	0.569148	0.000073	0.428753
C80	C	0.572806	0.000103	0.785653
H81	H	0.322340	0.000071	0.250353
H82	H	0.522600	0.424063	0.006084
C83	C	0.337691	0.000096	-0.048665
C84	C	0.304616	-0.076518	-0.070288
C85	C	0.283233	-0.076498	-0.154773
C86	C	0.294925	0.000136	-0.217636
C87	C	0.328001	0.076756	-0.196014
C88	C	0.349384	0.076736	-0.111529
H89	H	0.295959	-0.133252	-0.023752
H90	H	0.258748	-0.133218	-0.170778
H91	H	0.279096	0.000151	-0.280177
H92	H	0.336658	0.133490	-0.242550
H93	H	0.373869	0.133455	-0.095524
C94	C	-0.171536	0.000130	-0.057629
C95	C	-0.173725	0.076757	-0.120745
C96	C	-0.139663	0.076757	-0.204259
C97	C	-0.103413	0.000131	-0.224658
C98	C	-0.101223	-0.076502	-0.161541
C99	C	-0.135284	-0.076503	-0.078027
H100	H	-0.200560	0.133485	-0.105646
H101	H	-0.141284	0.133486	-0.250983
H102	H	-0.078199	0.000131	-0.286481
H103	H	-0.074387	-0.133231	-0.176640
H104	H	-0.133663	-0.133232	-0.031303
H105	H	0.524880	0.577290	0.001601
C106	C	0.480583	0.414680	0.161825
C107	C	0.474729	0.355769	0.085046
C108	C	0.424081	0.321707	0.070358
C109	C	0.379287	0.346556	0.132449
C110	C	0.385140	0.405470	0.209233
C111	C	0.435788	0.439532	0.223921
H112	H	0.507890	0.337372	0.039078
H113	H	0.419748	0.278095	0.013517
H114	H	0.341794	0.321341	0.121576
H115	H	0.351979	0.423867	0.255201
H116	H	0.440120	0.483144	0.280762
H117	H	0.208567	0.000154	-0.105540
C118	C	0.066157	0.000138	-0.129887
C119	C	0.102402	0.076760	-0.150291
C120	C	0.136464	0.076758	-0.233805
C121	C	0.134282	0.000134	-0.296915
C122	C	0.098036	-0.076494	-0.276512
C123	C	0.063974	-0.076491	-0.192998
H124	H	0.104018	0.133487	-0.103573
H125	H	0.163295	0.133483	-0.248908
H126	H	0.159497	0.000132	-0.358736
H127	H	0.096420	-0.133220	-0.323231
H128	H	0.037143	-0.133216	-0.177895
C129	C	0.571796	-0.168903	0.525441
C130	C	0.591463	-0.260717	0.546596
C131	C	0.566343	-0.345445	0.519842
C132	C	0.521557	-0.338358	0.471933
C133	C	0.501887	-0.246539	0.450775
C134	C	0.527007	-0.161812	0.477529
H135	H	0.624619	-0.265967	0.582063
H136	H	0.580904	-0.413415	0.535504
H137	H	0.502962	-0.401078	0.452128
H138	H	0.468731	-0.241289	0.415308
H139	H	0.512446	-0.093842	0.461867
H140	H	0.117109	0.000152	-0.107156
C141	C	0.633756	0.413482	0.211034
C142	C	0.638200	0.312975	0.225636
C143	C	0.650551	0.278168	0.311038
C144	C	0.658459	0.343867	0.381838
C145	C	0.654016	0.444379	0.367238
C146	C	0.641664	0.479187	0.281836
H147	H	0.632346	0.264335	0.173224
H148	H	0.653840	0.203761	0.321846
H149	H	0.667602	0.318100	0.445058
H150	H	0.659870	0.493019	0.419650
H151	H	0.638375	0.553593	0.271028
C152	C	0.480333	0.584984	0.161754
C153	C	0.469500	0.685213	0.162692
C154	C	0.418697	0.718611	0.148141
C155	C	0.378726	0.651781	0.132653
C156	C	0.389558	0.551546	0.131715
C157	C	0.440361	0.518148	0.146266
H158	H	0.499090	0.734690	0.174158
H159	H	0.410679	0.792812	0.148836
H160	H	0.341119	0.676504	0.121882
H161	H	0.359969	0.502068	0.120250
H162	H	0.448379	0.443947	0.145571
C163	C	0.539967	0.415481	0.264464
C164	C	0.546887	0.482506	0.334688
C165	C	0.555627	0.449238	0.422639
C166	C	0.557446	0.348944	0.440367
C167	C	0.550526	0.281913	0.370141
C168	C	0.541786	0.315181	0.282190
H169	H	0.545540	0.556754	0.321566
H170	H	0.560750	0.498859	0.474625
H171	H	0.563916	0.324317	0.505474
H172	H	0.551873	0.207665	0.383262
H173	H	0.536664	0.265560	0.230204
C174	C	0.030418	0.000088	0.343516
C175	C	0.018719	0.076711	0.406383
C176	C	0.040095	0.076705	0.490874
C177	C	0.073171	0.000075	0.512498
C178	C	0.084873	-0.076553	0.449629
C179	C	0.063496	-0.076547	0.365138
H180	H	-0.005768	0.133442	0.390377
H181	H	0.031433	0.133431	0.537414
H182	H	0.088996	0.000071	0.575043
H183	H	0.109359	-0.133284	0.465635
H184	H	0.072158	-0.133273	0.318599
H185	H	-0.201301	0.000093	0.241135
H186	H	-0.292773	0.000100	0.239515
C187	C	0.648781	0.091581	0.507132
C188	C	0.692237	0.091884	0.558646
C189	C	0.744376	0.098782	0.513435
C190	C	0.753058	0.105378	0.416711
C191	C	0.709601	0.105075	0.365191
C192	C	0.657463	0.098176	0.410402
H193	H	0.685811	0.087001	0.630252
H194	H	0.776546	0.099006	0.551574
H195	H	0.791655	0.110484	0.383243
H196	H	0.716028	0.109957	0.293585
H197	H	0.625293	0.097952	0.372263
H198	H	0.084655	0.000080	0.322623
H199	H	0.434722	0.000083	-0.025104
H200	H	-0.066606	0.000094	0.319950
H201	H	0.537517	0.577408	0.241004
H202	H	0.630108	0.575126	0.190071
H203	H	0.638064	0.084158	0.662294
C204	C	0.596362	0.413729	-0.052544
C205	C	0.637362	0.350492	-0.033933
C206	C	0.674030	0.315782	-0.106561
C207	C	0.669698	0.344308	-0.197799
C208	C	0.628696	0.407548	-0.216414
C209	C	0.592028	0.442259	-0.143787
H210	H	0.640570	0.329372	0.033611
H211	H	0.704382	0.268967	-0.092780
H212	H	0.696842	0.318613	-0.251563
H213	H	0.625488	0.428668	-0.283958
H214	H	0.561676	0.489074	-0.157567
H215	H	0.581841	0.147442	0.677280
H216	H	0.651758	0.576035	0.077764
C217	C	0.490526	-0.080767	0.707911
C218	C	0.516309	-0.147253	0.760609
C219	C	0.488575	-0.228435	0.800172
C220	C	0.435058	-0.243131	0.787037
C221	C	0.409271	-0.176643	0.734337
C222	C	0.437005	-0.095461	0.694774
H223	H	0.555929	-0.136376	0.770334
H224	H	0.507664	-0.277653	0.839184
H225	H	0.414527	-0.303226	0.816323
H226	H	0.369652	-0.187520	0.724611
H227	H	0.417916	-0.046243	0.655762
C228	C	0.419357	0.000047	0.273899
C229	C	0.407664	0.076670	0.336769
C230	C	0.429047	0.076659	0.421254
C231	C	0.462123	0.000026	0.442869
C232	C	0.473818	-0.076603	0.379997
C233	C	0.452435	-0.076592	0.295512
H234	H	0.383178	0.133403	0.320769
H235	H	0.420390	0.133385	0.467795
H236	H	0.477952	0.000018	0.505410
H237	H	0.498304	-0.133337	0.395997
H238	H	0.461092	-0.133318	0.248971
H239	H	0.577134	0.147012	0.534022
H240	H	0.176109	0.000063	0.324233
H241	H	-0.271844	0.000121	-0.037544
C242	C	0.600109	0.584175	-0.049952
C243	C	0.607011	0.684334	-0.066238
C244	C	0.646265	0.717211	-0.135666
C245	C	0.678618	0.649930	-0.188809
C246	C	0.671717	0.549765	-0.172524
C247	C	0.632463	0.516887	-0.103096
H248	H	0.583061	0.734146	-0.026897
H249	H	0.651373	0.791361	-0.147721
H250	H	0.707676	0.674267	-0.240204
H251	H	0.695668	0.499953	-0.211865
H252	H	0.627355	0.442738	-0.091041
H253	H	0.496254	0.060464	0.552931
C254	C	0.490352	0.082046	0.706528
C255	C	0.483731	0.096207	0.802577
C256	C	0.455823	0.177843	0.840760
C257	C	0.434535	0.245320	0.782895
C258	C	0.441155	0.231161	0.686840
C259	C	0.469063	0.149524	0.648657
H260	H	0.499491	0.046255	0.845418
H261	H	0.450923	0.188324	0.911866
H262	H	0.413876	0.305752	0.811160
H263	H	0.425396	0.281113	0.644000
H264	H	0.473963	0.139043	0.577551
C265	C	0.488753	-0.081687	0.547197
C266	C	0.506178	-0.175566	0.566882
C267	C	0.477688	-0.257333	0.542394
C268	C	0.431773	-0.245219	0.498222
C269	C	0.414345	-0.151336	0.478536
C270	C	0.442835	-0.069569	0.503023
H271	H	0.540170	-0.184537	0.599582
H272	H	0.490590	-0.326832	0.556968
H273	H	0.410683	-0.305748	0.480095
H274	H	0.380353	-0.142365	0.445835
H275	H	0.429933	-0.000070	0.488450
H276	H	0.636839	-0.088052	0.663023
H277	H	-0.034148	0.000146	-0.109808
H278	H	0.635821	-0.087297	0.519826
C279	C	0.572505	-0.169328	0.685546
C280	C	0.600817	-0.235972	0.733943
C281	C	0.575762	-0.321067	0.770504
C282	C	0.522395	-0.339517	0.758669
C283	C	0.494079	-0.272871	0.710270
C284	C	0.519134	-0.187776	0.673709
H285	H	0.640326	-0.222316	0.742706
H286	H	0.596724	-0.370403	0.806332
H287	H	0.503848	-0.402509	0.785733
H288	H	0.454571	-0.286527	0.701507
H289	H	0.498173	-0.138440	0.637881
H290	H	0.651764	0.423833	0.076637
