data_functionalizedCrystal
_audit_creation_method	'MofGen! by Chris Wilmer'
_symmetry_space_group_name_H-M	'P1'
_symmetry_Int_Tables_number	1
_symmetry_cell_setting	triclinic
loop_
_symmetry_equiv_pos_as_xyz
  x,y,z
_cell_length_a	14.853569
_cell_length_b	10.654550
_cell_length_c	9.130313
_cell_angle_alpha	90.004369
_cell_angle_beta	89.996338
_cell_angle_gamma	95.939752
loop_
_atom_site_label
_atom_site_type_symbol
_atom_site_fract_x
_atom_site_fract_y
_atom_site_fract_z
O1	O	1.197240	-0.163970	-0.121804
O2	O	0.934886	-0.183500	-0.121805
O3	O	1.072095	0.009067	-0.121795
O4	O	1.060031	-0.356537	-0.121814
O5	O	1.072086	0.009073	0.121804
O6	O	0.934876	-0.183494	0.121793
O7	O	1.197231	-0.163964	0.121795
Cu8	Cu	1.066053	-0.173729	0.144037
Cu9	Cu	1.066064	-0.173735	-0.144047
O10	O	1.060022	-0.356531	0.121785
C11	C	0.901288	-0.182612	-0.000006
C12	C	0.801190	-0.179959	-0.000007
C13	C	1.230829	-0.164852	-0.000007
C14	C	1.330927	-0.167505	-0.000016
C15	C	1.367923	-0.283139	-0.000029
C16	C	1.387987	-0.054364	-0.000000
C17	C	1.482035	-0.056853	-0.000001
C18	C	1.519030	-0.172486	-0.000013
C19	C	1.461979	-0.285631	-0.000025
C20	C	1.539093	0.056290	0.000026
C21	C	1.633147	0.053806	0.000027
C22	C	1.670144	-0.061829	0.000004
C23	C	1.613086	-0.174978	-0.000010
C24	C	1.650082	-0.290612	-0.000022
C25	C	1.593025	-0.403762	-0.000046
C26	C	1.498976	-0.401266	-0.000048
C27	C	1.764194	-0.064325	0.000006
C28	C	1.744138	-0.293104	-0.000019
C29	C	1.071205	0.055859	0.000003
C30	C	1.068554	0.195274	0.000001
C31	C	1.060912	-0.403323	-0.000017
C32	C	1.063562	-0.542738	-0.000024
N33	N	1.066051	-0.173723	0.346659
C34	C	1.149341	0.275599	0.000001
C35	C	1.146846	0.406594	-0.000017
C36	C	0.982769	0.376927	-0.000029
C37	C	0.985266	0.245935	-0.000021
N38	N	1.066072	-0.173731	-0.346670
C39	C	1.126828	-0.088491	0.423316
C40	C	1.126837	-0.088491	0.576653
C41	C	1.005289	-0.258968	0.576663
C42	C	1.005277	-0.258960	0.423329
H43	H	1.774252	-0.387268	-0.000031
Cl44	Cl	0.878070	0.440624	-0.000056
H45	H	0.955808	-0.328368	0.639103
Cl46	Cl	1.835917	0.077909	0.000047
H47	H	1.508964	0.150433	0.000148
H48	H	0.919475	0.180531	-0.000026
H49	H	1.623160	-0.497911	-0.000047
Cl50	Cl	1.427244	-0.543498	-0.000077
H51	H	1.321463	-0.375263	-0.000054
H52	H	0.955780	-0.328368	0.360911
Cl53	Cl	1.203228	0.018669	0.326937
Cl54	Cl	1.248411	0.507568	-0.000020
Cl55	Cl	1.341477	0.090995	0.000028
H56	H	1.176326	-0.019085	0.639062
H57	H	1.679595	0.145941	0.000045
H58	H	1.217160	0.234356	0.000016
