data_functionalizedCrystal
_audit_creation_method	'MofGen! by Chris Wilmer'
_symmetry_space_group_name_H-M	'P1'
_symmetry_Int_Tables_number	1
_symmetry_cell_setting	triclinic
loop_
_symmetry_equiv_pos_as_xyz
  x,y,z
_cell_length_a	16.992694
_cell_length_b	14.853567
_cell_length_c	15.455313
_cell_angle_alpha	92.672621
_cell_angle_beta	87.142206
_cell_angle_gamma	87.151577
loop_
_atom_site_label
_atom_site_type_symbol
_atom_site_fract_x
_atom_site_fract_y
_atom_site_fract_z
O1	O	1.044027	0.187488	-0.072010
O2	O	0.815740	0.185390	-0.072036
O3	O	0.935981	0.055640	-0.072025
O4	O	0.923785	0.317238	-0.072021
O5	O	0.929105	0.063027	0.072237
O6	O	0.808864	0.192777	0.072226
O7	O	1.037151	0.194875	0.072251
Cu8	Cu	0.922380	0.194501	0.085411
Cu9	Cu	0.930511	0.185764	-0.085195
O10	O	0.916909	0.324625	0.072241
C11	C	0.783087	0.186385	0.000092
C12	C	0.696034	0.178334	0.000081
C13	C	0.931991	0.025705	0.000103
C14	C	0.930335	-0.074496	0.000096
C15	C	0.645878	0.256009	0.000083
C16	C	0.564083	0.248440	0.000095
C17	C	0.532445	0.163195	0.000099
C18	C	0.582608	0.085514	0.000100
C19	C	0.664401	0.093084	0.000094
C20	C	0.288813	0.131820	0.000122
C21	C	0.207013	0.124255	0.000125
C22	C	0.188493	0.287183	0.000122
C23	C	0.270290	0.294745	0.000111
C24	C	0.320445	0.217064	0.000116
N25	N	0.448838	0.155456	0.000108
N26	N	0.404050	0.224804	0.000113
C27	C	0.851909	-0.492567	0.000103
C28	C	0.994758	-0.503760	0.000119
C29	C	0.996315	-0.409617	0.000114
C30	C	0.925668	-0.356944	0.000105
C31	C	0.853464	-0.398414	0.000101
C32	C	1.068518	-0.368139	0.000127
C33	C	1.070078	-0.273990	0.000123
C34	C	0.999430	-0.221316	0.000108
C35	C	0.927223	-0.262791	0.000103
C36	C	0.856576	-0.210118	0.000094
C37	C	0.784368	-0.251593	0.000082
C38	C	0.782816	-0.345740	0.000086
C39	C	1.000982	-0.127169	0.000105
C40	C	0.858131	-0.115966	0.000091
C41	C	1.069804	0.193880	0.000122
C42	C	1.156857	0.201931	0.000127
C43	C	0.920900	0.354560	0.000110
C44	C	0.922556	0.454760	0.000112
N45	N	0.916666	0.200645	0.205406
N46	N	0.936231	0.179613	-0.205190
C47	C	0.967766	0.145545	0.250805
C48	C	0.963453	0.150201	0.341612
C49	C	0.908042	0.209961	0.387019
C50	C	0.856936	0.265063	0.341614
C51	C	0.861246	0.260402	0.250808
C52	C	0.889436	0.230054	0.658599
C53	C	0.885131	0.234713	0.749411
C54	C	0.991647	0.119849	0.749403
C55	C	0.995956	0.115198	0.658595
C56	C	0.944847	0.170296	0.613198
N57	N	0.903633	0.214723	0.479839
N58	N	0.949253	0.165529	0.520380
H59	H	0.671631	0.325425	0.000080
Br60	Br	1.168072	-0.217712	0.000126
Br61	Br	0.762248	-0.044488	0.000069
Br62	Br	0.781727	0.346161	0.403234
H63	H	0.523249	0.311692	0.000096
Br64	Br	0.809926	0.315827	0.811030
H65	H	1.012891	0.096886	0.213840
Br66	Br	0.120423	0.392601	0.000116
H67	H	0.329639	0.068566	0.000127
H68	H	0.181257	0.054835	0.000127
Br69	Br	0.313221	0.410439	0.000096
H70	H	0.556842	0.016105	0.000115
H71	H	0.847822	0.274919	0.621644
H72	H	0.705238	0.029832	0.000092
H73	H	0.726847	-0.208694	0.000081
Br74	Br	0.684829	-0.402032	0.000065
Br75	Br	1.061004	0.045075	0.811016
Br76	Br	1.071160	0.034098	0.596970
Br77	Br	0.753918	-0.548849	0.000076
H78	H	1.126034	-0.411032	0.000143
H79	H	1.059772	-0.093404	0.000120
H80	H	0.819634	0.305269	0.213845
H81	H	1.052275	-0.546652	0.000134
Br82	Br	1.032801	0.075419	0.403228
