data_functionalizedCrystal
_audit_creation_method	'MofGen! by Chris Wilmer'
_symmetry_space_group_name_H-M	'P1'
_symmetry_Int_Tables_number	1
_symmetry_cell_setting	triclinic
loop_
_symmetry_equiv_pos_as_xyz
  x,y,z
_cell_length_a	13.930277
_cell_length_b	14.853567
_cell_length_c	14.853567
_cell_angle_alpha	96.365069
_cell_angle_beta	89.996315
_cell_angle_gamma	90.001833
loop_
_atom_site_label
_atom_site_type_symbol
_atom_site_fract_x
_atom_site_fract_y
_atom_site_fract_z
O1	O	-0.079769	-1.196366	0.117700
O2	O	-0.079786	-0.933906	0.131721
O3	O	-0.079766	-1.072147	-0.006519
O4	O	-0.079789	-1.058125	0.255941
O5	O	0.079896	-1.072133	-0.006515
O6	O	0.079876	-0.933892	0.131725
O7	O	0.079893	-1.196352	0.117704
Zn8	Zn	0.105234	-1.065120	0.124715
Zn9	Zn	-0.105127	-1.065138	0.124710
O10	O	0.079873	-1.058112	0.255944
C11	C	0.000043	-0.900311	0.131088
C12	C	0.000037	-0.800227	0.129184
N13	N	0.248800	-1.065114	0.124718
N14	N	-0.248693	-1.065151	0.124700
C15	C	0.299054	-1.003893	0.185912
C16	C	0.299051	-1.126341	0.063521
C17	C	0.399546	-1.126351	0.063517
C18	C	0.449801	-1.065130	0.124711
C19	C	0.399560	-1.003899	0.185909
C20	C	0.449795	-1.187574	0.002314
C21	C	0.550297	-1.187586	0.002307
C22	C	0.600553	-1.126368	0.063506
C23	C	0.550306	-1.065136	0.124707
C24	C	0.600560	-1.003914	0.185901
C25	C	0.550315	-0.942685	0.247107
C26	C	0.449816	-0.942681	0.247108
C27	C	0.701052	-1.126372	0.063506
C28	C	0.701065	-1.003920	0.185898
C29	C	0.000066	-1.071504	-0.040106
C30	C	0.000068	-1.069601	-0.140189
C31	C	0.000062	-1.229947	0.118337
C32	C	0.000062	-1.330031	0.120241
C33	C	0.000066	-0.387693	0.039019
C34	C	0.000051	-0.366412	0.203251
C35	C	0.000048	-0.460446	0.205042
C36	C	0.000052	-0.518108	0.123819
C37	C	0.000060	-0.481736	0.040806
C38	C	0.000030	-0.496825	0.288053
C39	C	0.000026	-0.590864	0.289846
C40	C	0.000037	-0.648528	0.208623
C41	C	0.000046	-0.612150	0.125607
C42	C	0.000051	-0.669812	0.044384
C43	C	0.000067	-0.633437	-0.038633
C44	C	0.000072	-0.539399	-0.040417
C45	C	0.000032	-0.742565	0.210407
C46	C	0.000045	-0.763855	0.046172
C47	C	0.000039	-1.058754	0.289531
C48	C	0.000030	-1.060657	0.389615
C49	C	0.000071	-1.150823	0.802149
C50	C	0.000059	-0.986590	0.823430
C51	C	0.000050	-0.984800	0.729396
C52	C	0.000052	-1.066023	0.671734
C53	C	0.000064	-1.149036	0.708106
C54	C	0.000048	-0.901789	0.693017
C55	C	0.000039	-0.899996	0.598978
C56	C	0.000035	-0.981219	0.541314
C57	C	0.000046	-1.064235	0.577691
C58	C	0.000048	-1.145458	0.520029
C59	C	0.000052	-1.228475	0.556405
C60	C	0.000060	-1.230259	0.650442
C61	C	0.000028	-0.979435	0.447277
C62	C	0.000042	-1.143670	0.425987
H63	H	0.741976	-0.954069	0.235733
H64	H	0.000088	-1.297847	0.680068
Cl65	Cl	0.000086	-0.493664	-0.144771
Cl66	Cl	0.613457	-1.264559	-0.074632
Cl67	Cl	0.000032	-0.293923	0.305354
Cl68	Cl	0.000047	-0.799688	0.765508
Cl69	Cl	0.000028	-0.795634	0.553257
H70	H	0.591243	-0.892835	0.296928
Cl71	Cl	0.386648	-0.865711	0.324043
Cl72	Cl	0.000008	-0.424333	0.390154
H73	H	0.000039	-0.911844	0.417664
Cl74	Cl	0.235877	-1.203296	-0.013412
H75	H	0.741958	-1.176220	0.013669
H76	H	0.000070	-1.218414	0.831770
H77	H	0.000013	-0.620472	0.357443
H78	H	0.258142	-0.954044	0.235748
H79	H	0.000021	-0.772178	0.277998
Cl80	Cl	0.000061	-0.884488	0.895919
Cl81	Cl	0.000067	-1.330579	0.483905
H82	H	0.408875	-1.237414	-0.047513
H83	H	0.000052	-0.810798	-0.019971
H84	H	0.000064	-0.680397	-0.104764
H85	H	0.000083	-0.358072	-0.028572
H86	H	0.000038	-1.209813	0.379044
