data_functionalizedCrystal
_audit_creation_method	'MofGen! by Chris Wilmer'
_symmetry_space_group_name_H-M	'P1'
_symmetry_Int_Tables_number	1
_symmetry_cell_setting	triclinic
loop_
_symmetry_equiv_pos_as_xyz
  x,y,z
_cell_length_a	15.944551
_cell_length_b	27.732048
_cell_length_c	14.421503
_cell_angle_alpha	89.999321
_cell_angle_beta	89.996859
_cell_angle_gamma	83.070697
loop_
_atom_site_label
_atom_site_type_symbol
_atom_site_fract_x
_atom_site_fract_y
_atom_site_fract_z
O1	O	1.113714	0.062334	-0.077025
O2	O	1.613714	0.562334	0.422975
O3	O	0.869064	0.070020	-0.077050
O4	O	1.369064	0.570020	0.422950
O5	O	0.998987	-0.004187	-0.077019
O6	O	1.498987	0.495813	0.422981
O7	O	0.983791	0.136540	-0.077056
O8	O	1.483791	0.636540	0.422944
O9	O	0.998966	-0.004176	0.077204
O10	O	1.498966	0.495824	0.577204
O11	O	0.869042	0.070031	0.077174
O12	O	1.369042	0.570031	0.577174
O13	O	1.113693	0.062345	0.077198
O14	O	1.613693	0.562345	0.577198
Cu15	Cu	0.991366	0.066189	0.091268
Cu16	Cu	1.491366	0.566189	0.591268
Cu17	Cu	0.991391	0.066176	-0.091119
Cu18	Cu	1.491391	0.566176	0.408881
O19	O	0.983769	0.136552	0.077168
O20	O	1.483769	0.636552	0.577168
C21	C	0.837763	0.069706	0.000059
C22	C	1.337763	0.569706	0.500059
C23	C	0.744530	0.068749	0.000051
C24	C	1.244530	0.568749	0.500051
C25	C	0.530305	0.020466	0.000081
C26	C	1.030305	0.520466	0.500081
C27	C	0.469002	0.042882	-0.075965
C28	C	0.969002	0.542882	0.424035
C29	C	0.573827	0.067019	0.000062
C30	C	1.073827	0.567019	0.500062
C31	C	0.469003	0.042904	0.076087
C32	C	0.969003	0.542904	0.576087
C33	C	0.408936	0.065344	0.000077
C34	C	0.908936	0.565344	0.500077
C35	C	0.513752	0.089447	-0.076047
C36	C	1.013752	0.589447	0.423953
C37	C	0.513759	0.089463	0.076074
C38	C	1.013759	0.589463	0.576074
C39	C	0.452474	0.111912	0.000009
C40	C	0.952474	0.611912	0.500009
C41	C	0.668816	0.067983	0.000053
C42	C	1.168816	0.567983	0.500053
C43	C	0.313947	0.064384	0.000080
C44	C	0.813947	0.564384	0.500080
C45	C	0.998658	-0.022190	0.000095
C46	C	1.498658	0.477810	0.500095
C47	C	0.997697	-0.075849	0.000103
C48	C	1.497697	0.424151	0.500103
C49	C	1.068426	-0.414358	0.000062
C50	C	1.568426	0.085642	0.500062
C51	C	1.064862	-0.616033	0.000049
C52	C	1.564862	-0.116033	0.500049
O53	O	1.129539	-0.647008	0.000015
O54	O	1.629539	-0.147008	0.500015
N55	N	0.987823	-0.635490	0.000042
N56	N	1.487823	-0.135490	0.500042
C57	C	0.911669	-0.604525	0.000032
C58	C	1.411669	-0.104525	0.500032
O59	O	0.846061	-0.625703	0.000017
O60	O	1.346061	-0.125703	0.500017
C61	C	0.915234	-0.402851	0.000039
C62	C	1.415234	0.097149	0.500039
C63	C	0.992278	-0.383397	0.000055
C64	C	1.492278	0.116603	0.500055
C65	C	1.145464	-0.394903	0.000077
C66	C	1.645464	0.105097	0.500077
C67	C	1.146354	-0.344487	0.000086
C68	C	1.646354	0.155513	0.500086
C69	C	1.070206	-0.313526	0.000079
C70	C	1.570206	0.186474	0.500079
C71	C	0.993168	-0.332981	0.000064
C72	C	1.493168	0.167019	0.500064
C73	C	0.839081	-0.371887	0.000023
C74	C	1.339081	0.128113	0.500023
C75	C	0.839979	-0.321466	0.000022
C76	C	1.339979	0.178534	0.500022
C77	C	0.917024	-0.302012	0.000038
C78	C	1.417024	0.197988	0.500038
C79	C	0.917911	-0.251604	0.000065
C80	C	1.417911	0.248396	0.500065
N81	N	0.994950	-0.232147	0.000072
N82	N	1.494950	0.267853	0.500072
C83	C	1.071098	-0.263108	0.000079
C84	C	1.571098	0.236892	0.500079
C85	C	0.909803	-0.710408	0.000031
C86	C	1.409803	-0.210408	0.500031
C87	C	0.908912	-0.760826	0.000031
C88	C	1.408912	-0.260826	0.500031
C89	C	1.062105	-0.772330	0.000045
C90	C	1.562105	-0.272330	0.500045
C91	C	1.062995	-0.721911	0.000052
C92	C	1.562995	-0.221911	0.500052
C93	C	0.986842	-0.690950	0.000038
C94	C	1.486842	-0.190950	0.500038
C95	C	1.072961	-0.157231	0.000097
C96	C	1.572961	0.342769	0.500097
C97	C	1.073845	-0.106810	0.000109
C98	C	1.573845	0.393190	0.500109
C99	C	0.920652	-0.095310	0.000090
C100	C	1.420652	0.404690	0.500090
C101	C	0.919768	-0.145727	0.000083
C102	C	1.419768	0.354273	0.500083
C103	C	0.995930	-0.176686	0.000083
C104	C	1.495930	0.323314	0.500083
O105	O	0.853269	-0.220600	0.000089
O106	O	1.353269	0.279400	0.500089
O107	O	1.136697	-0.241921	0.000074
O108	O	1.636697	0.258079	0.500074
C109	C	1.067536	-0.464774	0.000054
C110	C	1.567536	0.035226	0.500054
C111	C	0.990498	-0.484228	0.000039
C112	C	1.490498	0.015772	0.500039
C113	C	0.914350	-0.453268	0.000032
C114	C	1.414350	0.046732	0.500032
C115	C	0.989607	-0.534647	0.000039
C116	C	1.489607	-0.034647	0.500039
C117	C	1.065754	-0.565608	0.000045
C118	C	1.565754	-0.065608	0.500045
C119	C	1.142794	-0.546150	0.000052
C120	C	1.642794	-0.046150	0.500052
C121	C	1.143684	-0.495734	0.000061
C122	C	1.643684	0.004266	0.500061
C123	C	0.837311	-0.472725	0.000025
C124	C	1.337311	0.027275	0.500025
C125	C	0.836427	-0.523141	0.000018
C126	C	1.336427	-0.023141	0.500018
C127	C	0.912575	-0.554102	0.000024
C128	C	1.412575	-0.054102	0.500024
C129	C	1.144993	0.062658	0.000087
C130	C	1.644993	0.562658	0.500087
C131	C	1.238227	0.063615	0.000090
C132	C	1.738227	0.563615	0.500090
C133	C	0.984099	0.154554	0.000051
C134	C	1.484099	0.654554	0.500051
C135	C	0.985059	0.208213	0.000038
C136	C	1.485059	0.708213	0.500038
N137	N	0.991354	0.066198	0.219549
N138	N	1.491354	0.566198	0.719549
N139	N	0.991409	0.066163	-0.219401
N140	N	1.491409	0.566163	0.280599
C141	C	0.931267	0.100495	0.469189
C142	C	1.431267	0.600495	0.969189
C143	C	1.007044	0.109880	0.530996
C144	C	1.507044	0.609880	1.030996
C145	C	0.991374	0.066186	0.408710
C146	C	1.491374	0.566186	0.908710
C147	C	0.915616	0.056813	0.530997
C148	C	1.415616	0.556813	1.030997
C149	C	0.991387	0.066176	0.591432
C150	C	1.491387	0.566176	1.091432
C151	C	1.067190	0.075592	0.469157
C152	C	1.567190	0.575592	0.969157
C153	C	0.975712	0.022507	0.469153
C154	C	1.475712	0.522507	0.969153
C155	C	1.051545	0.031872	0.530932
C156	C	1.551545	0.531872	1.030932
C157	C	0.991366	0.066193	0.303449
C158	C	1.491366	0.566193	0.803449
C159	C	0.991405	0.066169	0.696691
C160	C	1.491405	0.566169	1.196691
H161	H	1.136586	-0.090973	0.000125
H162	H	1.636586	0.409027	0.500125
H163	H	0.775301	-0.447521	0.000017
H164	H	1.275301	0.052479	0.500017
H165	H	1.131276	0.083559	0.442107
H166	H	1.631276	0.583559	0.942107
H167	H	1.207476	-0.420107	0.000079
H168	H	1.707476	0.079893	0.500079
H169	H	1.124107	-0.797547	0.000051
H170	H	1.624107	-0.297547	0.500051
H171	H	1.102436	0.002852	0.557872
H172	H	1.602436	0.502852	1.057872
H173	H	0.962429	-0.014416	0.441967
H174	H	1.462429	0.485584	0.941967
H175	H	0.533624	0.109141	0.140358
H176	H	1.033624	0.609141	0.640358
H177	H	0.564143	-0.018169	-0.000003
H178	H	1.064143	0.481831	0.499997
H179	H	1.134979	-0.182432	0.000094
H180	H	1.634979	0.317568	0.500094
H181	H	0.418809	0.150587	-0.000044
H182	H	0.918809	0.650587	0.499956
H183	H	0.449158	0.023187	-0.140246
H184	H	0.949158	0.523187	0.359754
H185	H	0.533491	0.109118	-0.140408
H186	H	1.033491	0.609118	0.359592
H187	H	1.206421	-0.479900	0.000073
H188	H	1.706421	0.020100	0.500073
H189	H	0.851544	0.048890	0.558163
H190	H	1.351544	0.548890	1.058163
H191	H	0.449165	0.023210	0.140376
H192	H	0.949165	0.523210	0.640376
H193	H	1.209091	-0.328652	0.000095
H194	H	1.709091	0.171348	0.500095
H195	H	0.846175	-0.776661	0.000034
H196	H	1.346175	-0.276661	0.500034
H197	H	1.125732	-0.706075	0.000065
H198	H	1.625732	-0.206075	0.500065
H199	H	0.776344	-0.387718	0.000004
H200	H	1.276344	0.112282	0.500004
H201	H	0.847786	-0.685203	0.000019
H202	H	1.347786	-0.185203	0.500019
H203	H	0.777965	-0.296260	0.000009
H204	H	1.277965	0.203740	0.500009
H205	H	0.857033	-0.161567	0.000095
H206	H	1.357033	0.338433	0.500095
H207	H	0.858655	-0.070093	0.000088
H208	H	1.358655	0.429907	0.500088
H209	H	1.204796	-0.571368	0.000062
H210	H	1.704796	-0.071368	0.500062
H211	H	0.773684	-0.538976	0.000013
H212	H	1.273684	-0.038976	0.500013
H213	H	0.880487	0.129533	0.442079
H214	H	1.380487	0.629533	0.942079
H215	H	1.020304	0.146814	0.558160
H216	H	1.520304	0.646814	1.058160
