data_functionalizedCrystal
_audit_creation_method	'MofGen! by Chris Wilmer'
_symmetry_space_group_name_H-M	'P1'
_symmetry_Int_Tables_number	1
_symmetry_cell_setting	triclinic
loop_
_symmetry_equiv_pos_as_xyz
  x,y,z
_cell_length_a	6.817900
_cell_length_b	14.125469
_cell_length_c	10.992410
_cell_angle_alpha	94.598388
_cell_angle_beta	108.764651
_cell_angle_gamma	100.398878
loop_
_atom_site_label
_atom_site_type_symbol
_atom_site_fract_x
_atom_site_fract_y
_atom_site_fract_z
V1	V	-4.071585	-0.133114	-0.400097
O2	O	-4.074426	0.006397	-0.392991
O3	O	-4.007233	-0.263943	-0.396869
O4	O	-4.049833	-0.131066	-0.574817
O5	O	-4.031531	-0.127399	-0.213812
V6	V	-4.553827	-0.116427	-0.377875
O7	O	-4.335653	-0.169718	-0.448842
O8	O	-4.739956	-0.079822	-0.329131
O9	O	-4.394972	0.014402	-0.381103
O10	O	-4.668382	-0.255937	-0.384981
O11	O	-4.711278	-0.122141	-0.564160
O12	O	-4.352372	-0.118474	-0.203155
C13	C	-3.847491	-0.295836	-0.390431
C14	C	-3.876340	-0.402790	-0.388957
C15	C	-3.901831	-0.126338	-0.617419
C16	C	-3.965224	-0.125529	-0.760251
C17	C	-3.929229	-0.598615	-0.386276
C18	C	-4.115550	-0.650937	-0.391700
C19	C	-4.144980	-0.759901	-0.390209
C20	C	-3.899791	-0.489641	-0.387768
C21	C	-3.834708	-0.118163	-0.955401
C22	C	-3.768761	-0.119403	-0.806913
C23	C	-4.132836	-0.220392	-0.837001
C24	C	-4.197419	-0.219553	-0.985571
C25	C	-4.134058	-0.035864	-0.948224
C26	C	-4.063493	-0.035415	-0.799212
C27	C	-4.218055	0.046290	-0.387538
C28	C	-4.168446	0.153243	-0.389020
C29	C	-4.163715	-0.123206	-0.160546
C30	C	-4.079560	-0.124010	-0.017714
H31	H	-3.791828	-0.635653	-0.380512
H32	H	-4.054231	0.036172	-0.968851
N33	N	-3.601066	-0.029056	-0.736582
H34	H	-3.569415	0.011936	-0.801981
H35	H	-3.467443	-0.048390	-0.683265
H36	H	-3.942730	0.034761	-0.747116
N37	N	-4.297578	-0.601882	-0.399338
H38	H	-4.343771	-0.612117	-0.321917
H39	H	-4.420352	-0.630823	-0.481926
N40	N	-4.328672	-0.230889	-0.798812
H41	H	-4.456514	-0.232019	-0.877829
H42	H	-4.310392	-0.174103	-0.731202
N43	N	-4.252108	-0.033886	-0.756065
H44	H	-4.276657	-0.091854	-0.710461
H45	H	-4.382232	-0.036763	-0.834394
N46	N	-4.043837	-0.309024	-0.802774
H47	H	-4.136428	-0.351688	-0.764014
H48	H	-3.895041	-0.287861	-0.737645
H49	H	-3.739516	-0.049484	-0.974487
N50	N	-4.369671	-0.040421	-1.002299
H51	H	-4.440838	-0.099263	-1.071467
H52	H	-4.394892	0.020485	-1.041440
H53	H	-3.691000	-0.183615	-0.781859
N54	N	-3.774766	-0.202054	-1.018643
H55	H	-3.905528	-0.243829	-1.087483
H56	H	-3.711080	-0.242432	-0.950747
N57	N	-4.148484	-0.307958	-1.046545
H58	H	-4.085243	-0.347105	-0.976850
H59	H	-4.043919	-0.286482	-1.091678
H60	H	-4.376777	-0.227802	-1.028171
