data_functionalizedCrystal
_audit_creation_method	'MofGen! by Chris Wilmer'
_symmetry_space_group_name_H-M	'P1'
_symmetry_Int_Tables_number	1
_symmetry_cell_setting	triclinic
loop_
_symmetry_equiv_pos_as_xyz
  x,y,z
_cell_length_a	10.654551
_cell_length_b	10.654548
_cell_length_c	9.798715
_cell_angle_alpha	89.998695
_cell_angle_beta	89.996882
_cell_angle_gamma	84.484785
loop_
_atom_site_label
_atom_site_type_symbol
_atom_site_fract_x
_atom_site_fract_y
_atom_site_fract_z
O1	O	1.667838	0.176401	-0.113468
O2	O	1.302360	0.193206	-0.113474
O3	O	1.493503	0.002064	-0.113468
O4	O	1.476695	0.367543	-0.113473
O5	O	1.493489	0.002064	0.113515
O6	O	1.302346	0.193206	0.113509
O7	O	1.667824	0.176401	0.113515
Zn8	Zn	1.485083	0.184803	0.149550
Zn9	Zn	1.485101	0.184804	-0.149509
O10	O	1.476681	0.367543	0.113509
C11	C	1.255555	0.191972	0.000017
C12	C	1.116112	0.188280	0.000014
C13	C	0.919572	0.183061	0.123744
C14	C	1.050592	0.186542	0.123744
C15	C	1.050602	0.186549	-0.123724
C16	C	0.919583	0.183078	-0.123723
C17	C	0.854061	0.181311	0.247482
C18	C	0.919561	0.183044	0.371221
C19	C	1.050582	0.186524	0.371221
C20	C	1.116102	0.188272	0.247483
C21	C	1.492262	-0.044734	0.000021
C22	C	1.488571	-0.184177	0.000015
C23	C	1.483356	-0.380708	-0.123714
C24	C	1.486840	-0.249688	-0.123715
C25	C	1.486831	-0.249694	0.123753
C26	C	1.483357	-0.380713	0.123753
C27	C	1.481613	-0.446211	-0.247452
C28	C	1.483355	-0.380704	-0.371192
C29	C	1.486838	-0.249684	-0.371192
C30	C	1.488580	-0.184171	-0.247454
C31	C	1.714629	0.177635	0.000021
C32	C	1.854072	0.181328	0.000015
C33	C	1.477922	0.414341	0.000017
C34	C	1.481613	0.553784	0.000015
N35	N	1.485079	0.184802	0.353650
N36	N	1.485115	0.184795	-0.353609
C37	C	1.565335	0.104193	0.421429
C38	C	1.565355	0.104189	0.578592
H39	H	0.866252	0.181669	-0.224474
O40	O	1.488726	-0.179025	-0.504645
H41	H	1.404868	-0.108871	-0.510552
H42	H	1.416406	0.253816	0.588113
H43	H	1.103907	0.187948	0.471975
H44	H	1.222786	0.191121	0.247493
O45	O	1.394086	0.276237	0.430877
H46	H	1.332485	0.222947	0.496004
H47	H	1.103959	0.187972	-0.224466
H48	H	1.488248	-0.196343	0.224495
H49	H	1.491428	-0.077488	-0.247465
H50	H	1.481933	-0.434050	0.224504
H51	H	1.478772	-0.552894	-0.247466
O52	O	1.656301	0.012738	0.344193
H53	H	1.641996	0.027080	0.232871
H54	H	0.866205	0.181631	0.471964
O55	O	0.712746	0.177566	0.247477
H56	H	0.678192	0.176651	0.354302
H57	H	1.481947	-0.434054	-0.471935
O58	O	1.656375	0.012764	0.655783
H59	H	1.642101	0.027101	0.767111
