data_functionalizedCrystal
_audit_creation_method	'MofGen! by Chris Wilmer'
_symmetry_space_group_name_H-M	'P1'
_symmetry_Int_Tables_number	1
_symmetry_cell_setting	triclinic
loop_
_symmetry_equiv_pos_as_xyz
  x,y,z
_cell_length_a	17.019282
_cell_length_b	17.019448
_cell_length_c	11.295483
_cell_angle_alpha	97.952495
_cell_angle_beta	89.768720
_cell_angle_gamma	83.132058
loop_
_atom_site_label
_atom_site_type_symbol
_atom_site_fract_x
_atom_site_fract_y
_atom_site_fract_z
O1	O	1.045574	0.101440	0.018621
O2	O	0.817091	0.113072	-0.003629
O3	O	0.938328	-0.008176	-0.003600
O4	O	0.924337	0.222689	0.018593
O5	O	0.927680	0.002457	0.194446
O6	O	0.806442	0.123705	0.194418
O7	O	1.034926	0.112073	0.216667
Cu8	Cu	0.919712	0.118860	0.223626
Cu9	Cu	0.932305	0.106285	-0.010587
O10	O	0.913688	0.233322	0.216639
C11	C	0.782542	0.117740	0.092330
C12	C	0.695464	0.115797	0.083198
C13	C	0.932680	-0.032412	0.092363
C14	C	0.931706	-0.120468	0.083243
C15	C	0.926569	-0.618799	0.026127
C16	C	0.927475	-0.536059	0.034719
C17	C	0.922117	-0.488909	0.146970
C18	C	0.915861	-0.524503	0.250636
C19	C	0.914961	-0.607242	0.242044
C20	C	0.924550	-0.238801	0.178316
C21	C	0.925448	-0.156056	0.186901
C22	C	0.937064	-0.167618	-0.029017
C23	C	0.936158	-0.250358	-0.037600
C24	C	0.929906	-0.285946	0.066066
C25	C	0.923040	-0.404335	0.155755
C26	C	0.928988	-0.370519	0.057281
C27	C	0.648755	0.120678	0.186865
C28	C	0.566937	0.118840	0.178287
C29	C	0.531829	0.112126	0.066040
C30	C	0.578545	0.107242	-0.037635
C31	C	0.660362	0.109074	-0.029056
C32	C	0.285086	0.106297	0.034735
C33	C	0.203262	0.104467	0.026163
C34	C	0.191660	0.116064	0.242086
C35	C	0.273478	0.117901	0.250656
C36	C	0.320188	0.113012	0.146980
C37	C	0.448198	0.110249	0.057269
C38	C	0.403818	0.114883	0.155752
C39	C	1.069474	0.107405	0.120706
C40	C	1.156553	0.109348	0.129831
C41	C	0.919336	0.257557	0.120674
C42	C	0.920311	0.345612	0.129785
N43	N	0.910860	0.127704	0.388359
N44	N	0.941163	0.097435	-0.175320
C45	C	1.004881	0.033727	0.637676
C46	C	0.998197	0.040416	0.762339
C47	C	0.890806	0.147767	0.762349
C48	C	0.897490	0.141078	0.637686
C49	C	0.954530	0.084057	0.575354
C50	C	0.961217	0.077372	0.450690
C51	C	0.853822	0.184719	0.450702
C52	C	0.847138	0.191408	0.575364
H53	H	0.930924	-0.657182	-0.065280
C54	C	0.934354	-0.496915	-0.079311
C55	C	1.004710	-0.450329	-0.097009
C56	C	1.011591	-0.411187	-0.211047
C57	C	0.948116	-0.418633	-0.307387
C58	C	0.877755	-0.465221	-0.289692
C59	C	0.870874	-0.504362	-0.175654
H60	H	1.051703	-0.444815	-0.025690
H61	H	1.063677	-0.376699	-0.224145
H62	H	0.953209	-0.389658	-0.391805
H63	H	0.830762	-0.470734	-0.361012
H64	H	0.818788	-0.538850	-0.162556
H65	H	0.919460	-0.267767	0.262729
C66	C	0.336465	0.100919	-0.079301
C67	C	0.384957	0.169367	-0.097022
C68	C	0.436343	0.163986	-0.211060
C69	C	0.439237	0.090158	-0.307378
C70	C	0.390743	0.021706	-0.289660
C71	C	0.339357	0.027086	-0.175621
H72	H	0.382816	0.224023	-0.025719
H73	H	0.472241	0.214660	-0.224176
H74	H	0.477276	0.086175	-0.391796
H75	H	0.392884	-0.032951	-0.360962
H76	H	0.303459	-0.023587	-0.162505
H77	H	0.844360	0.194187	0.813114
C78	C	0.943949	-0.128470	-0.143043
C79	C	1.014305	-0.081880	-0.160720
C80	C	1.021195	-0.042733	-0.274751
C81	C	0.957728	-0.050177	-0.371105
C82	C	0.887367	-0.096769	-0.353430
C83	C	0.880477	-0.135916	-0.239399
H84	H	1.061292	-0.076368	-0.089391
H85	H	1.073281	-0.008243	-0.287835
H86	H	0.962828	-0.021198	-0.455517
H87	H	0.840380	-0.102281	-0.424759
H88	H	0.828391	-0.170407	-0.226316
H89	H	0.677332	0.126152	0.278269
H90	H	0.933354	-0.408913	-0.034113
H91	H	0.432407	0.120346	0.247142
C92	C	0.908067	-0.646396	0.356065
C93	C	0.835257	-0.621558	0.440196
C94	C	0.828365	-0.660712	0.554219
C95	C	0.894283	-0.724704	0.584112
C96	C	0.967099	-0.749546	0.499979
C97	C	0.973991	-0.710391	0.385956
H98	H	0.786456	-0.574184	0.418069
H99	H	0.774461	-0.642322	0.616499
H100	H	0.889181	-0.753689	0.668519
H101	H	1.015900	-0.796920	0.522105
H102	H	1.027894	-0.728781	0.323675
H103	H	0.911504	-0.486107	0.342034
C104	C	0.917139	-0.352463	0.279227
C105	C	0.848023	-0.285291	0.308698
C106	C	0.842123	-0.233416	0.432169
C107	C	0.905339	-0.248712	0.526168
C108	C	0.974460	-0.315886	0.496699
C109	C	0.980360	-0.367762	0.373229
H110	H	0.801222	-0.273966	0.239112
H111	H	0.790954	-0.183689	0.453983
H112	H	0.900971	-0.210310	0.617568
H113	H	1.021261	-0.327212	0.566285
H114	H	1.031529	-0.417489	0.351415
H115	H	0.153621	0.120042	0.326493
C116	C	0.515561	0.124207	0.292327
C117	C	0.512660	0.198032	0.388650
C118	C	0.461287	0.203396	0.502698
C119	C	0.412815	0.134934	0.520423
C120	C	0.415714	0.061104	0.424097
C121	C	0.467088	0.055740	0.310049
H122	H	0.548543	0.248717	0.375532
H123	H	0.459140	0.258051	0.574005
H124	H	0.374785	0.138905	0.604848
H125	H	0.379831	0.010419	0.437215
H126	H	0.469234	0.001085	0.238742
C127	C	1.053587	-0.014945	0.830895
C128	C	1.116337	-0.077653	0.762329
C129	C	1.171728	-0.133017	0.830885
C130	C	1.164368	-0.125675	0.968007
C131	C	1.101616	-0.062965	1.036580
C132	C	1.046225	-0.007600	0.968024
H133	H	1.121787	-0.083090	0.660817
H134	H	1.218181	-0.179439	0.780122
H135	H	1.205372	-0.166659	1.018756
H136	H	1.096166	-0.057527	1.138093
H137	H	0.999771	0.038822	1.018787
H138	H	0.302057	0.123364	0.342059
C139	C	0.164640	0.097072	-0.097314
C140	C	0.190027	0.023742	-0.191268
C141	C	0.151402	0.016348	-0.314736
C142	C	0.087389	0.082283	-0.344250
C143	C	0.061998	0.155618	-0.250293
C144	C	0.100623	0.163012	-0.126825
H145	H	0.237416	-0.025072	-0.169423
H146	H	0.170198	-0.037940	-0.384289
H147	H	0.058796	0.076809	-0.435648
H148	H	0.014609	0.204432	-0.272139
H149	H	0.081827	0.217300	-0.057272
C150	C	0.711747	0.103707	-0.143091
C151	C	0.714645	0.029883	-0.239415
C152	C	0.766030	0.024512	-0.353453
C153	C	0.814516	0.092965	-0.371167
C154	C	0.811619	0.166795	-0.274839
C155	C	0.760234	0.172166	-0.160801
H156	H	0.678752	-0.020795	-0.226305
H157	H	0.768174	-0.030143	-0.424760
H158	H	0.852554	0.088989	-0.455584
H159	H	0.847512	0.217473	-0.287950
H160	H	0.758090	0.226820	-0.089494
H161	H	0.812825	0.225703	0.399946
C162	C	1.023957	0.014649	0.382122
C163	C	1.022304	-0.074757	0.389940
C164	C	1.085044	-0.137484	0.321376
C165	C	1.149437	-0.110805	0.244993
C166	C	1.151092	-0.021394	0.237171
C167	C	1.088352	0.041333	0.305736
H168	H	0.974635	-0.094511	0.446487
H169	H	1.083818	-0.203672	0.327167
H170	H	1.195880	-0.157239	0.194237
H171	H	1.198761	-0.001641	0.180625
H172	H	1.089578	0.107520	0.299945
C173	C	1.067626	-0.028990	0.569106
C174	C	1.065987	-0.118399	0.576922
C175	C	1.128733	-0.181116	0.508355
C176	C	1.193119	-0.154426	0.431971
C177	C	1.194760	-0.065013	0.424151
C178	C	1.132013	-0.002295	0.492719
H179	H	1.018323	-0.138160	0.633469
H180	H	1.127518	-0.247306	0.514144
H181	H	1.239567	-0.200853	0.381213
H182	H	1.242424	-0.045252	0.367604
H183	H	1.133229	0.063894	0.486929
H184	H	0.940526	-0.288743	-0.129006
H185	H	0.800695	0.237832	0.626129
H186	H	0.419605	0.104782	-0.034123
H187	H	0.921062	-0.117665	0.278312
H188	H	0.549955	0.101769	-0.129030
