data_functionalizedCrystal
_audit_creation_method	'MofGen! by Chris Wilmer'
_symmetry_space_group_name_H-M	'P1'
_symmetry_Int_Tables_number	1
_symmetry_cell_setting	triclinic
loop_
_symmetry_equiv_pos_as_xyz
  x,y,z
_cell_length_a	27.731994
_cell_length_b	27.732048
_cell_length_c	15.500227
_cell_angle_alpha	92.799543
_cell_angle_beta	87.185826
_cell_angle_gamma	82.631595
loop_
_atom_site_label
_atom_site_type_symbol
_atom_site_fract_x
_atom_site_fract_y
_atom_site_fract_z
O1	O	0.643206	0.055135	-0.071829
O2	O	1.143206	0.555135	0.428171
O3	O	0.502410	0.063906	-0.071859
O4	O	1.002410	0.563906	0.428141
O5	O	0.577180	-0.010877	-0.071827
O6	O	1.077180	0.489123	0.428173
O7	O	0.568436	0.129918	-0.071862
O8	O	1.068436	0.629918	0.428138
O9	O	0.572643	-0.006356	0.072060
O10	O	1.072643	0.493644	0.572060
O11	O	0.497873	0.068427	0.072027
O12	O	0.997873	0.568427	0.572027
O13	O	0.638669	0.059655	0.072058
O14	O	1.138669	0.559655	0.572058
Cu15	Cu	0.567857	0.064454	0.085181
Cu16	Cu	1.067857	0.564454	0.585181
Cu17	Cu	0.573222	0.059108	-0.084982
Cu18	Cu	1.073222	0.559108	0.415018
O19	O	0.563899	0.134438	0.072025
O20	O	1.063899	0.634438	0.572025
C21	C	0.482134	0.065986	0.000080
C22	C	0.982134	0.565986	0.500080
C23	C	0.428478	0.065444	0.000070
C24	C	0.928478	0.565444	0.500070
C25	C	0.093285	0.064493	0.078537
C26	C	0.593285	0.564493	0.578537
C27	C	-0.108373	0.062432	0.078547
C28	C	0.391627	0.562432	0.578547
O29	O	-0.136549	0.064240	0.145251
O30	O	0.363451	0.564240	0.645251
N31	N	-0.131115	0.059712	0.000114
N32	N	0.368885	0.559712	0.500114
C33	C	-0.103438	0.057504	-0.078326
C34	C	0.396562	0.557504	0.421674
O35	O	-0.127408	0.055138	-0.145038
O36	O	0.372592	0.555138	0.354962
C37	C	0.098220	0.059562	-0.078336
C38	C	0.598220	0.559562	0.421664
C39	C	0.120958	0.062287	0.000102
C40	C	0.620958	0.562287	0.500102
C41	C	0.116024	0.067218	0.156968
C42	C	0.616024	0.567218	0.656968
C43	C	0.166435	0.067735	0.156965
C44	C	0.666435	0.567735	0.656965
C45	C	0.194108	0.065529	0.078530
C46	C	0.694108	0.565529	0.578530
C47	C	0.171369	0.062805	0.000099
C48	C	0.671369	0.562805	0.500099
C49	C	0.125896	0.057350	-0.156775
C50	C	0.625896	0.557350	0.343225
C51	C	0.176314	0.057863	-0.156771
C52	C	0.676314	0.557863	0.343229
C53	C	0.199052	0.060589	-0.078333
C54	C	0.699052	0.560589	0.421667
C55	C	0.249453	0.061116	-0.078339
C56	C	0.749453	0.561116	0.421661
N57	N	0.272195	0.063836	0.000093
N58	N	0.772195	0.563836	0.500093
C59	C	0.244522	0.066043	0.078528
C60	C	0.744522	0.566043	0.578528
C61	C	-0.209312	0.056424	-0.078316
C62	C	0.290688	0.556424	0.421684
C63	C	-0.259726	0.055911	-0.078314
C64	C	0.240274	0.555911	0.421686
C65	C	-0.264658	0.060838	0.078560
C66	C	0.235342	0.560838	0.578560
C67	C	-0.214243	0.061355	0.078557
C68	C	0.285757	0.561355	0.578557
C69	C	-0.186570	0.059144	0.000117
C70	C	0.313430	0.559144	0.500117
C71	C	0.350390	0.067130	0.078515
C72	C	0.850390	0.567130	0.578515
C73	C	0.400805	0.067650	0.078504
C74	C	0.900805	0.567650	0.578504
C75	C	0.405733	0.062720	-0.078369
C76	C	0.905733	0.562720	0.421631
C77	C	0.355321	0.062203	-0.078359
C78	C	0.855321	0.562203	0.421641
C79	C	0.327651	0.064407	0.000090
C80	C	0.827651	0.564407	0.500090
O81	O	0.277660	0.059304	-0.145008
O82	O	0.777660	0.559304	0.354992
O83	O	0.268502	0.068397	0.145229
O84	O	0.768502	0.568397	0.645229
C85	C	0.042874	0.063975	0.078540
C86	C	0.542874	0.563975	0.578540
C87	C	0.020136	0.061251	0.000109
C88	C	0.520136	0.561251	0.500109
C89	C	0.047808	0.059044	-0.078326
C90	C	0.547808	0.559044	0.421674
C91	C	-0.030279	0.060737	0.000111
C92	C	0.469721	0.560737	0.500111
C93	C	-0.057952	0.062944	0.078546
C94	C	0.442048	0.562944	0.578546
C95	C	-0.035210	0.065664	0.156978
C96	C	0.464790	0.565664	0.656978
C97	C	0.015201	0.066182	0.156975
C98	C	0.515201	0.566182	0.656975
C99	C	0.025067	0.056324	-0.156758
C100	C	0.525067	0.556324	0.343242
C101	C	-0.025345	0.055807	-0.156749
C102	C	0.474655	0.555807	0.343251
C103	C	-0.053018	0.058014	-0.078314
C104	C	0.446982	0.558014	0.421686
C105	C	0.574728	-0.026623	0.000119
C106	C	1.074728	0.473377	0.500119
C107	C	0.574175	-0.080278	0.000126
C108	C	1.074175	0.419722	0.500126
C109	C	0.614881	-0.419102	0.000090
C110	C	1.114881	0.080898	0.500090
C111	C	0.612830	-0.620761	0.000078
C112	C	1.112830	-0.120761	0.500078
O113	O	0.650053	-0.652025	0.000048
O114	O	1.150053	-0.152025	0.500048
N115	N	0.568494	-0.639877	0.000069
N116	N	1.068494	-0.139877	0.500069
C117	C	0.524668	-0.608574	0.000058
C118	C	1.024668	-0.108574	0.500058
O119	O	0.486910	-0.629460	0.000041
O120	O	0.986910	-0.129460	0.500041
C121	C	0.526719	-0.406916	0.000064
C122	C	1.026719	0.093084	0.500064
C123	C	0.571058	-0.387803	0.000082
C124	C	1.071058	0.112197	0.500082
C125	C	0.659216	-0.399989	0.000107
C126	C	1.159216	0.100011	0.500107
C127	C	0.659728	-0.349577	0.000115
C128	C	1.159728	0.150423	0.500115
C129	C	0.615905	-0.318278	0.000106
C130	C	1.115905	0.181722	0.500106
C131	C	0.571570	-0.337391	0.000089
C132	C	1.071570	0.162609	0.500089
C133	C	0.482894	-0.375614	0.000047
C134	C	0.982894	0.124386	0.500047
C135	C	0.483410	-0.325197	0.000046
C136	C	0.983410	0.174803	0.500046
C137	C	0.527749	-0.306084	0.000064
C138	C	1.027749	0.193916	0.500064
C139	C	0.528259	-0.255680	0.000089
C140	C	1.028259	0.244320	0.500089
N141	N	0.572595	-0.236564	0.000097
N142	N	1.072595	0.263436	0.500097
C143	C	0.616418	-0.267863	0.000106
C144	C	1.116418	0.232137	0.500106
C145	C	0.523594	-0.714448	0.000056
C146	C	1.023594	-0.214448	0.500056
C147	C	0.523081	-0.764862	0.000056
C148	C	1.023081	-0.264862	0.500056
C149	C	0.611244	-0.777046	0.000074
C150	C	1.111244	-0.277046	0.500074
C151	C	0.611756	-0.726631	0.000081
C152	C	1.111756	-0.226631	0.500081
C153	C	0.567930	-0.695333	0.000065
C154	C	1.067930	-0.195333	0.500065
C155	C	0.617490	-0.161994	0.000123
C156	C	1.117490	0.338006	0.500123
C157	C	0.617998	-0.111577	0.000135
C158	C	1.117998	0.388423	0.500135
C159	C	0.529836	-0.099397	0.000112
C160	C	1.029836	0.400603	0.500112
C161	C	0.529327	-0.149810	0.000105
C162	C	1.029327	0.350190	0.500105
C163	C	0.573159	-0.181108	0.000108
C164	C	1.073159	0.318892	0.500108
O165	O	0.491057	-0.224388	0.000109
O166	O	0.991057	0.275612	0.500109
O167	O	0.654171	-0.246968	0.000103
O168	O	1.154171	0.253032	0.500103
C169	C	0.614369	-0.469514	0.000082
C170	C	1.114369	0.030486	0.500082
C171	C	0.570034	-0.488627	0.000066
C172	C	1.070034	0.011373	0.500066
C173	C	0.526211	-0.457328	0.000057
C174	C	1.026211	0.042672	0.500057
C175	C	0.569521	-0.539041	0.000066
C176	C	1.069521	-0.039041	0.500066
C177	C	0.613344	-0.570340	0.000074
C178	C	1.113344	-0.070340	0.500074
C179	C	0.657680	-0.551225	0.000083
C180	C	1.157680	-0.051225	0.500083
C181	C	0.658192	-0.500813	0.000091
C182	C	1.158192	-0.000813	0.500091
C183	C	0.481875	-0.476444	0.000049
C184	C	0.981875	0.023556	0.500049
C185	C	0.481366	-0.526856	0.000042
C186	C	0.981366	-0.026856	0.500042
C187	C	0.525189	-0.558155	0.000050
C188	C	1.025189	-0.058155	0.500050
C189	C	0.658945	0.057575	0.000116
C190	C	1.158945	0.557575	0.500116
C191	C	0.712601	0.058117	0.000121
C192	C	1.212601	0.558117	0.500121
C193	C	0.566351	0.150184	0.000078
C194	C	1.066351	0.650184	0.500078
C195	C	0.566904	0.203839	0.000065
C196	C	1.066904	0.703839	0.500065
N197	N	0.564086	0.068213	0.204864
N198	N	1.064086	0.568213	0.704864
N199	N	0.576997	0.055344	-0.204666
N200	N	1.076997	0.555344	0.295334
C201	C	0.595780	0.036537	0.250154
C202	C	1.095780	0.536537	0.750154
C203	C	0.592933	0.039384	0.340726
C204	C	1.092933	0.539384	0.840726
C205	C	0.558394	0.073911	0.386005
C206	C	1.058394	0.573911	0.886005
C207	C	0.526697	0.105590	0.340709
C208	C	1.026697	0.605590	0.840709
C209	C	0.529542	0.102739	0.250139
C210	C	1.029542	0.602739	0.750139
C211	C	0.548145	0.084172	0.659468
C212	C	1.048145	0.584172	1.159468
C213	C	0.545303	0.087021	0.750044
C214	C	1.045303	0.587021	1.250044
C215	C	0.611538	0.020815	0.750055
C216	C	1.111538	0.520815	1.250055
C217	C	0.614382	0.017969	0.659483
C218	C	1.114382	0.517969	1.159483
C219	C	0.582684	0.049646	0.614195
C220	C	1.082684	0.549646	1.114195
C221	C	0.555484	0.076824	0.478584
C222	C	1.055484	0.576824	0.978584
C223	C	0.585592	0.046730	0.521617
C224	C	1.085592	0.546730	1.021617
H225	H	0.198842	0.056063	-0.220648
H226	H	0.698842	0.556063	0.279352
H227	H	0.336806	0.059992	-0.142229
H228	H	0.836806	0.559992	0.357771
C229	C	0.040207	0.069175	0.243263
C230	C	0.540207	0.569175	0.743263
N231	N	0.059038	0.071428	0.308260
N232	N	0.559038	0.571428	0.808260
H233	H	0.428273	0.060926	-0.142228
H234	H	0.928273	0.560926	0.357772
H235	H	0.646926	-0.802539	0.000082
H236	H	1.146926	-0.302539	0.500082
H237	H	0.494156	-0.073905	0.000108
H238	H	0.994156	0.426095	0.500108
C239	C	0.665707	-0.196414	0.000134
C240	C	1.165707	0.303586	0.500134
N241	N	0.702023	-0.222339	0.000150
N242	N	1.202023	0.277661	0.500150
C243	C	-0.065660	0.068090	0.243257
C244	C	0.434340	0.568090	0.743257
N245	N	-0.088596	0.069914	0.308238
N246	N	0.411404	0.569914	0.808238
C247	C	-0.050351	0.052807	-0.243043
C248	C	0.449649	0.552807	0.256957
N249	N	-0.069182	0.050542	-0.308038
N250	N	0.430818	0.550542	0.191962
C251	C	0.434117	-0.396626	0.000022
C252	C	0.934117	0.103374	0.500022
N253	N	0.397375	-0.412451	-0.000000
N254	N	0.897375	0.087549	0.500000
C255	C	0.475379	-0.680025	0.000040
C256	C	0.975379	-0.180025	0.500040
N257	N	0.439062	-0.654100	0.000029
N258	N	0.939062	-0.154100	0.500029
H259	H	0.613712	0.018617	0.484748
H260	H	1.113712	0.518617	0.984748
H261	H	0.654106	-0.096018	0.000151
H262	H	1.154106	0.403982	0.500151
H263	H	0.618740	0.013590	0.377601
H264	H	1.118740	0.513590	0.877601
C265	C	0.652375	-0.020016	0.609683
C266	C	1.152375	0.479984	1.109683
N267	N	0.680992	-0.048626	0.572173
N268	N	1.180992	0.451374	1.072173
C269	C	0.432587	-0.547873	0.000023
C270	C	0.932587	-0.047873	0.500023
N271	N	0.395847	-0.563702	0.000001
N272	N	0.895847	-0.063702	0.500001
H273	H	0.527363	0.104938	0.515458
H274	H	1.027363	0.604938	1.015458
C275	C	0.474305	-0.785880	0.000048
C276	C	0.974305	-0.285880	0.500048
N277	N	0.437565	-0.801708	0.000036
N278	N	0.937565	-0.301708	0.500036
H279	H	0.637345	-0.004975	0.786937
H280	H	1.137345	0.495025	1.286937
C281	C	0.319959	0.069560	0.164812
C282	C	0.819959	0.569560	0.664812
N283	N	0.297038	0.071393	0.229812
N284	N	0.797038	0.571393	0.729812
H285	H	0.419316	0.069871	0.142381
H286	H	0.919316	0.569871	0.642381
H287	H	0.517176	0.115139	0.786907
H288	H	1.017176	0.615139	1.286907
H289	H	0.447721	-0.299715	0.000032
H290	H	0.947721	0.200285	0.500032
H291	H	0.493222	-0.165371	0.000115
H292	H	0.993222	0.334629	0.500115
C293	C	0.488699	0.143565	0.390519
C294	C	0.988699	0.643565	0.890519
N295	N	0.460078	0.172169	0.428036
N296	N	0.960078	0.672169	0.928036
H297	H	-0.195733	0.063575	0.142428
H298	H	0.304267	0.563575	0.642428
H299	H	0.503733	0.128533	0.213264
H300	H	1.003733	0.628533	0.713264
C301	C	0.055500	0.053895	-0.243048
C302	C	0.555500	0.553895	0.256952
N303	N	0.078421	0.052067	-0.308047
N304	N	0.578421	0.552067	0.191953
H305	H	0.623907	0.008423	0.213294
H306	H	1.123907	0.508423	0.713294
H307	H	0.184944	0.069952	0.220837
H308	H	0.684944	0.569952	0.720837
H309	H	0.647861	-0.711073	0.000094
H310	H	1.147861	-0.211073	0.500094
H311	H	0.695833	-0.334020	0.000125
H312	H	1.195833	0.165980	0.500125
H313	H	0.107392	0.055130	-0.220648
H314	H	0.607392	0.555130	0.279352
H315	H	0.694904	-0.425468	0.000111
H316	H	1.194904	0.074532	0.500111
H317	H	0.093498	0.069013	0.220842
H318	H	0.593498	0.569013	0.720842
H319	H	0.694297	-0.485256	0.000105
H320	H	1.194297	0.014744	0.500105
H321	H	-0.287198	0.062636	0.142425
H322	H	0.212802	0.562636	0.642425
C323	C	-0.284733	0.052917	-0.164601
C324	C	0.215267	0.552917	0.335399
N325	N	-0.303566	0.050658	-0.229596
N326	N	0.196434	0.550658	0.270404
H327	H	0.693362	-0.576717	0.000094
H328	H	1.193362	-0.076717	0.500094
H329	H	-0.186785	0.054624	-0.142195
H330	H	0.313215	0.554624	0.357805
C331	C	0.513337	0.119080	0.609662
C332	C	1.013337	0.619080	1.109662
N333	N	0.487140	0.145396	0.572145
N334	N	0.987140	0.645396	1.072145
H335	H	0.446188	-0.450964	0.000040
H336	H	0.946188	0.049036	0.500040
