data_functionalizedCrystal
_audit_creation_method	'MofGen! by Chris Wilmer'
_symmetry_space_group_name_H-M	'P1'
_symmetry_Int_Tables_number	1
_symmetry_cell_setting	triclinic
loop_
_symmetry_equiv_pos_as_xyz
  x,y,z
_cell_length_a	8.497374
_cell_length_b	19.077105
_cell_length_c	19.077068
_cell_angle_alpha	89.884684
_cell_angle_beta	92.284024
_cell_angle_gamma	92.300019
loop_
_atom_site_label
_atom_site_type_symbol
_atom_site_fract_x
_atom_site_fract_y
_atom_site_fract_z
Zn1	Zn	1.016648	1.062860	0.323110
Zn2	Zn	0.762970	1.058079	0.440586
Zn3	Zn	0.741875	0.945387	0.318369
Zn4	Zn	1.015701	0.940595	0.435851
O5	O	0.884299	1.001730	0.379479
O6	O	0.992222	1.160556	0.342659
O7	O	0.539410	1.043135	0.424372
O8	O	0.769893	0.964977	0.220667
O9	O	0.805846	1.157044	0.428968
O10	O	0.971767	1.051283	0.224150
O11	O	0.523911	0.960341	0.334579
O12	O	0.768974	0.846421	0.329988
O13	O	1.236588	0.956809	0.420898
O14	O	0.970152	0.842901	0.416301
O15	O	1.237285	1.046636	0.338067
O16	O	0.804927	1.038488	0.538289
O17	O	0.990607	0.952173	0.534810
C18	C	0.867172	0.819165	0.372117
C19	C	0.859884	0.741062	0.368984
C20	C	0.961050	0.702552	0.412519
C21	C	0.954209	0.629166	0.409566
C22	C	0.846193	0.594292	0.363082
C23	C	0.745023	0.632808	0.319542
C24	C	0.751873	0.706192	0.322492
C25	C	0.814499	0.375011	0.349430
C26	C	0.807654	0.301621	0.346485
C27	C	1.016843	0.297985	0.436509
C28	C	1.023677	0.371371	0.439457
C29	C	0.922512	0.409880	0.395915
N30	N	0.839195	0.519280	0.360064
N31	N	0.929519	0.484891	0.398930
C32	C	0.899989	0.994311	0.562047
C33	C	0.906761	0.991201	0.640152
C34	C	1.295778	1.001725	0.379480
C35	C	1.474423	1.001726	0.379487
C36	C	0.901493	1.185009	0.386870
C37	C	0.908820	1.263111	0.390020
C38	C	0.868583	1.009198	0.196199
C39	C	0.861886	1.012380	0.118097
C40	C	0.813355	1.034715	0.678636
C41	C	0.819734	1.031794	0.752025
C42	C	0.919510	0.985356	0.786928
C43	C	1.012926	0.941841	0.748439
C44	C	1.006555	0.944765	0.675052
C45	C	0.948930	0.971789	1.006221
C46	C	0.955291	0.968866	1.079613
C47	C	0.762100	1.058821	1.083193
C48	C	0.755730	1.061739	1.009804
C49	C	0.849152	1.018226	0.971322
N50	N	0.926029	0.982368	0.861943
N51	N	0.842641	1.021218	0.896309
H52	H	1.036588	0.597814	0.445018
C53	C	0.717794	1.079138	0.567730
C54	C	0.703673	1.085760	0.640272
H55	H	0.650073	1.110651	0.544049
H56	H	0.823711	1.089863	0.556091
H57	H	0.689148	1.032410	0.553853
H58	H	0.732330	1.132487	0.654150
H59	H	0.597733	1.075040	0.651917
C60	C	0.735689	1.159552	0.930996
C61	C	0.646061	1.112785	0.971434
H62	H	0.667975	1.191060	0.907304
H63	H	0.809451	1.185266	0.960672
H64	H	0.790405	1.134044	0.897580
H65	H	0.591353	1.138293	1.004855
H66	H	0.572270	1.087068	0.941756
C67	C	0.686111	1.094295	1.197280
C68	C	0.659444	1.106661	1.125495
H69	H	0.622745	1.123837	1.223394
H70	H	0.659535	1.046619	1.207451
H71	H	0.794138	1.104054	1.209681
H72	H	0.551419	1.096897	1.113093
H73	H	0.686009	1.154348	1.115320
C74	C	1.099243	0.183877	0.471957
C75	C	1.128053	0.255654	0.484361
H76	H	1.167914	0.157746	0.501497
H77	H	0.992979	0.171431	0.481687
H78	H	1.117324	0.173777	0.424275
H79	H	1.109961	0.265756	0.532043
H80	H	1.234343	0.268105	0.474636
H81	H	0.743672	1.067227	0.783355
H82	H	1.082618	0.909333	0.643719
H83	H	1.111631	0.399760	0.477312
C84	C	0.601576	0.312583	0.257784
C85	C	0.688921	0.263286	0.295382
H86	H	0.528287	0.288915	0.226235
H87	H	0.546413	0.339961	0.289502
H88	H	0.670796	0.342300	0.232106
H89	H	0.619702	0.233573	0.321065
H90	H	0.744087	0.235897	0.263660
C91	C	0.609173	0.457916	0.342828
C92	C	0.703287	0.417332	0.301574
H93	H	0.540518	0.484047	0.313280
H94	H	0.548682	0.428043	0.372247
H95	H	0.674498	0.489190	0.370926
H96	H	0.637963	0.386054	0.273479
H97	H	0.763783	0.447208	0.272142
H98	H	1.036570	0.931059	1.108030
H99	H	0.657081	0.604407	0.281691
C100	C	1.210813	0.938340	0.982243
C101	C	1.051599	0.923947	0.963932
H102	H	1.274192	0.908796	0.956137
H103	H	1.237373	0.986015	0.972063
H104	H	1.228854	0.929957	1.030948
H105	H	1.033556	0.932335	0.915228
H106	H	1.025030	0.876261	0.974107
C107	C	1.167150	0.691579	0.501199
C108	C	1.079792	0.740882	0.463615
H109	H	1.240466	0.715242	0.532739
H110	H	1.097953	0.661865	0.526879
H111	H	1.222297	0.664200	0.469466
H112	H	1.024635	0.768257	0.495347
H113	H	1.148998	0.770608	0.437933
C114	C	0.544388	0.702420	0.233223
C115	C	0.640654	0.748525	0.274643
H116	H	0.475721	0.728556	0.203686
H117	H	0.608241	0.674895	0.205241
H118	H	0.483897	0.672548	0.262654
H119	H	0.701154	0.778394	0.245212
H120	H	0.576794	0.776062	0.302628
H121	H	1.094174	0.904033	0.776864
