data_functionalizedCrystal
_audit_creation_method	'MofGen! by Chris Wilmer'
_symmetry_space_group_name_H-M	'P1'
_symmetry_Int_Tables_number	1
_symmetry_cell_setting	triclinic
loop_
_symmetry_equiv_pos_as_xyz
  x,y,z
_cell_length_a	19.077105
_cell_length_b	21.295417
_cell_length_c	19.076919
_cell_angle_alpha	92.266620
_cell_angle_beta	90.076224
_cell_angle_gamma	87.726672
loop_
_atom_site_label
_atom_site_type_symbol
_atom_site_fract_x
_atom_site_fract_y
_atom_site_fract_z
Zn1	Zn	1.058236	-0.304534	-0.440387
Zn2	Zn	1.062864	-0.405747	-0.322870
Zn3	Zn	0.945454	-0.296102	-0.318181
Zn4	Zn	0.940686	-0.405368	-0.435623
O5	O	1.001810	-0.352938	-0.379265
O6	O	1.157181	-0.321649	-0.428754
O7	O	1.051222	-0.387832	-0.223917
O8	O	0.960474	-0.209134	-0.334424
O9	O	1.160581	-0.396009	-0.342415
O10	O	1.043334	-0.215330	-0.424208
O11	O	0.964962	-0.307276	-0.220472
O12	O	0.846490	-0.306908	-0.329804
O13	O	0.952346	-0.395362	-0.534586
O14	O	0.842987	-0.387185	-0.416088
O15	O	1.038710	-0.321280	-0.538086
O16	O	1.046598	-0.493783	-0.337795
O17	O	0.956834	-0.493504	-0.420634
C18	C	0.819242	-0.346091	-0.371921
C19	C	0.741139	-0.343178	-0.368795
C20	C	0.702642	-0.383663	-0.412179
C21	C	0.629255	-0.380918	-0.409246
C22	C	0.594366	-0.337689	-0.362924
C23	C	0.632868	-0.297199	-0.319538
C24	C	0.706253	-0.299942	-0.322476
C25	C	0.375080	-0.324994	-0.349333
C26	C	0.301690	-0.322256	-0.346397
C27	C	0.298082	-0.405974	-0.436106
C28	C	0.371470	-0.408715	-0.439037
C29	C	0.409965	-0.368223	-0.395653
N30	N	0.519353	-0.334883	-0.359923
N31	N	0.484976	-0.371027	-0.398658
C32	C	1.001719	-0.516485	-0.379223
C33	C	1.001744	-0.586454	-0.379231
C34	C	1.048522	-0.619448	-0.336144
C35	C	1.048554	-0.685192	-0.336161
C36	C	1.001796	-0.717939	-0.379257
C37	C	0.955015	-0.684937	-0.422352
C38	C	0.954989	-0.619195	-0.422339
N39	N	0.940111	-0.819089	-0.382141
N40	N	0.940138	-0.881541	-0.382149
C41	C	1.001873	-0.916018	-0.379300
N42	N	1.063583	-0.885683	-0.376429
N43	N	1.063555	-0.823224	-0.376417
C44	C	1.001820	-0.789226	-0.379276
C45	C	1.048690	-1.020300	-0.336230
C46	C	1.048724	-1.086046	-0.336252
C47	C	0.955178	-1.085789	-0.422439
C48	C	0.955151	-1.020045	-0.422421
C49	C	1.001906	-0.987304	-0.379313
C50	C	1.185090	-0.359812	-0.386639
C51	C	1.263193	-0.362741	-0.389782
C52	C	0.994480	-0.359220	-0.562545
C53	C	0.991356	-0.361897	-0.640648
C54	C	1.001919	-0.188754	-0.379324
C55	C	1.001966	-0.118788	-0.379349
C56	C	1.034851	-0.324586	-0.679164
C57	C	1.031907	-0.327098	-0.752550
C58	C	0.985472	-0.366925	-0.787418
C59	C	0.941972	-0.404238	-0.748896
C60	C	0.944913	-0.401722	-0.675512
C61	C	0.971853	-0.378584	-1.006698
C62	C	0.968917	-0.381099	-1.080087
C63	C	1.058852	-0.303958	-1.083736
C64	C	1.061791	-0.301448	-1.010350
C65	C	1.018289	-0.338758	-0.971835
N66	N	0.982464	-0.369496	-0.862429
N67	N	1.021294	-0.336183	-0.896824
C68	C	1.009152	-0.346637	-0.196700
C69	C	1.012412	-0.343787	-0.118604
H70	H	0.273285	-0.287047	-0.308681
O71	O	0.591784	-0.420271	-0.451284
C72	C	0.550920	-0.457916	-0.409488
H73	H	0.542058	-0.433401	-0.355845
H74	H	0.498171	-0.465443	-0.436024
H75	H	0.579486	-0.505344	-0.402797
O76	O	1.094045	-0.988392	-0.294384
C77	C	1.084000	-0.923291	-0.303620
H78	H	1.028830	-0.913103	-0.324401
H79	H	1.090906	-0.896701	-0.251178
H80	H	1.124141	-0.907426	-0.342747
H81	H	0.399871	-0.443918	-0.476755
O82	O	0.412362	-0.285635	-0.307122
C83	C	0.365828	-0.246884	-0.265622
H84	H	0.313605	-0.270629	-0.261037
H85	H	0.389237	-0.238979	-0.211122
H86	H	0.357014	-0.199709	-0.291146
O87	O	1.106819	-0.262654	-0.976524
C88	C	1.090781	-0.199965	-0.993892
H89	H	1.033836	-0.195386	-1.011796
H90	H	1.098791	-0.167425	-0.945899
H91	H	1.126748	-0.186391	-1.038025
O92	O	1.094083	-0.717194	-0.294339
C93	C	1.163491	-0.704244	-0.312560
H94	H	1.163848	-0.657475	-0.339616
H95	H	1.197056	-0.701446	-0.263133
H96	H	1.185696	-0.743336	-0.349663
O97	O	1.074130	-0.290761	-0.789881
C98	C	1.059524	-0.226834	-0.771357
H99	H	1.034644	-0.222696	-0.716988
H100	H	1.110358	-0.200427	-0.770892
H101	H	1.021760	-0.205687	-0.811209
H102	H	0.266732	-0.438939	-0.471428
O103	O	1.094192	-1.117999	-0.294331
C104	C	1.135462	-1.075001	-0.256295
H105	H	1.106760	-1.027001	-0.252672
H106	H	1.145220	-1.092400	-0.201245
H107	H	1.187777	-1.070833	-0.284210
O108	O	1.101032	-0.267734	-1.121256
C109	C	1.088494	-0.278504	-1.193504
H110	H	1.033852	-0.297431	-1.201335
H111	H	1.092172	-0.232488	-1.221602
H112	H	1.129319	-0.314300	-1.215997
O113	O	0.909497	-0.716671	-0.464177
C114	C	0.840085	-0.697529	-0.445934
H115	H	0.839712	-0.648828	-0.418855
H116	H	0.806509	-0.695840	-0.495353
H117	H	0.817905	-0.732439	-0.408845
H118	H	0.909487	-0.432098	-0.644152
O119	O	0.598869	-0.255259	-0.274563
C120	C	0.525841	-0.261508	-0.281285
H121	H	0.514880	-0.310531	-0.303790
H122	H	0.500046	-0.254313	-0.227544
H123	H	0.503544	-0.224732	-0.317953
O124	O	0.743677	-0.260554	-0.280431
C125	C	0.784565	-0.222923	-0.322220
H126	H	0.760250	-0.220183	-0.376686
H127	H	0.786428	-0.173608	-0.296940
H128	H	0.840078	-0.244548	-0.326825
H129	H	1.086595	-0.592792	-0.301045
O130	O	0.909784	-1.117688	-0.464241
C131	C	0.919852	-1.182791	-0.455031
H132	H	0.945078	-1.190781	-0.401750
H133	H	0.867037	-1.206010	-0.457647
H134	H	0.955581	-1.204226	-0.498248
O135	O	0.909574	-0.587215	-0.464291
C136	C	0.922092	-0.606196	-0.534959
H137	H	0.949064	-0.654969	-0.537537
H138	H	0.870096	-0.607651	-0.564386
H139	H	0.957237	-0.571318	-0.560097
H140	H	0.917057	-0.993179	-0.457503
H141	H	1.072666	-0.292156	-0.650780
H142	H	0.931101	-0.413532	-1.108474
O143	O	0.929662	-0.414917	-0.969331
C144	C	0.944235	-0.478846	-0.987871
H145	H	0.999567	-0.484832	-1.010288
H146	H	0.940072	-0.508064	-0.939358
H147	H	0.904853	-0.495338	-1.028955
O148	O	0.736419	-0.425674	-0.457239
C149	C	0.686701	-0.460828	-0.494890
H150	H	0.634305	-0.433178	-0.495281
H151	H	0.705698	-0.470308	-0.551090
H152	H	0.679899	-0.507424	-0.468748
O153	O	0.896925	-0.442911	-0.782876
C154	C	0.903643	-0.437122	-0.855906
H155	H	0.957484	-0.418886	-0.868122
H156	H	0.897726	-0.485049	-0.883585
H157	H	0.861153	-0.402750	-0.875064
