data_functionalizedCrystal
_audit_creation_method	'MofGen! by Chris Wilmer'
_symmetry_space_group_name_H-M	'P1'
_symmetry_Int_Tables_number	1
_symmetry_cell_setting	triclinic
loop_
_symmetry_equiv_pos_as_xyz
  x,y,z
_cell_length_a	15.995350
_cell_length_b	15.995292
_cell_length_c	16.176319
_cell_angle_alpha	89.996390
_cell_angle_beta	89.996232
_cell_angle_gamma	83.480495
loop_
_atom_site_label
_atom_site_type_symbol
_atom_site_fract_x
_atom_site_fract_y
_atom_site_fract_z
O1	O	1.110966	0.107932	-0.068671
O2	O	1.444300	0.441265	0.264663
O3	O	1.777633	0.774598	0.597996
O4	O	0.867188	0.121260	-0.068687
O5	O	1.200522	0.454593	0.264646
O6	O	1.533855	0.787926	0.597980
O7	O	0.995766	-0.007295	-0.068680
O8	O	1.329100	0.326038	0.264654
O9	O	1.662433	0.659371	0.597987
O10	O	0.982388	0.236487	-0.068678
O11	O	1.315721	0.569820	0.264655
O12	O	1.649055	0.903153	0.597989
O13	O	0.995749	-0.007304	0.068814
O14	O	1.329082	0.326030	0.402147
O15	O	1.662415	0.659363	0.735480
O16	O	0.867171	0.121251	0.068806
O17	O	1.200504	0.454585	0.402140
O18	O	1.533837	0.787918	0.735473
O19	O	1.110949	0.107923	0.068823
O20	O	1.444282	0.441257	0.402156
O21	O	1.777615	0.774590	0.735489
Cu22	Cu	0.989058	0.114587	0.081369
Cu23	Cu	1.322391	0.447920	0.414702
Cu24	Cu	1.655725	0.781253	0.748035
Cu25	Cu	0.989079	0.114596	-0.081233
Cu26	Cu	1.322412	0.447930	0.252100
Cu27	Cu	1.655746	0.781263	0.585434
O28	O	0.982370	0.236478	0.068815
O29	O	1.315704	0.569812	0.402149
O30	O	1.649037	0.903145	0.735482
C31	C	0.995213	-0.038495	0.000065
C32	C	1.328546	0.294838	0.333398
C33	C	1.661880	0.628172	0.666732
C34	C	0.993581	-0.131448	0.000059
C35	C	1.326914	0.201885	0.333392
C36	C	1.660247	0.535219	0.666725
C37	C	0.835985	0.120704	0.000058
C38	C	1.169318	0.454038	0.333391
C39	C	1.502651	0.787371	0.666724
C40	C	0.743035	0.119053	0.000051
C41	C	1.076368	0.452386	0.333384
C42	C	1.409701	0.785719	0.666718
C43	C	0.987580	-0.469186	0.000066
C44	C	1.320913	-0.135853	0.333399
C45	C	1.654246	0.197480	0.666732
C46	C	1.080384	-0.445874	0.000379
C47	C	1.413717	-0.112541	0.333713
C48	C	1.747050	0.220793	0.667046
C49	C	1.082148	-0.349199	0.000066
C50	C	1.415481	-0.015865	0.333400
C51	C	1.748814	0.317468	0.666733
C52	C	0.990557	-0.301631	0.000063
C53	C	1.323891	0.031703	0.333396
C54	C	1.657224	0.365036	0.666729
C55	C	0.944170	-0.330727	-0.078453
C56	C	1.277503	0.002606	0.254880
C57	C	1.610836	0.335940	0.588214
C58	C	0.943052	-0.427517	-0.078516
C59	C	1.276386	-0.094184	0.254817
C60	C	1.609719	0.239149	0.588151
C61	C	0.941137	-0.427384	0.077839
C62	C	1.274471	-0.094051	0.411173
C63	C	1.607804	0.239283	0.744506
C64	C	0.944576	-0.330891	0.078874
C65	C	1.277910	0.002442	0.412208
C66	C	1.611243	0.335775	0.745541
C67	C	0.992235	-0.206934	0.000058
C68	C	1.325569	0.126399	0.333392
C69	C	1.658902	0.459732	0.666725
C70	C	0.985899	-0.563882	0.000065
C71	C	1.319232	-0.230549	0.333398
C72	C	1.652565	0.102784	0.666731
C73	C	0.405288	0.113120	0.000068
C74	C	0.738622	0.446454	0.333402
C75	C	1.071955	0.779787	0.666735
C76	C	0.452742	0.021566	0.000374
C77	C	0.786075	0.354899	0.333708
C78	C	1.119408	0.688232	0.667041
C79	C	0.549431	0.023218	0.000059
C80	C	0.882765	0.356551	0.333392
C81	C	1.216098	0.689885	0.666725
C82	C	0.572848	0.116063	0.000060
C83	C	0.906182	0.449396	0.333394
C84	C	1.239515	0.782729	0.666727
C85	C	0.531762	0.161225	-0.078452
C86	C	0.865095	0.494559	0.254882
C87	C	1.198429	0.827892	0.588215
C88	C	0.435127	0.158925	-0.078512
C89	C	0.768460	0.492259	0.254822
C90	C	1.101793	0.825592	0.588155
C91	C	0.434767	0.160808	0.077844
C92	C	0.768101	0.494141	0.411177
C93	C	1.101434	0.827474	0.744511
C94	C	0.531713	0.160786	0.078876
C95	C	0.865046	0.494119	0.412209
C96	C	1.198379	0.827452	0.745543
C97	C	0.667546	0.117731	0.000053
C98	C	1.000879	0.451064	0.333386
C99	C	1.334212	0.784397	0.666720
C100	C	0.310591	0.111455	0.000070
C101	C	0.643924	0.444788	0.333403
C102	C	0.977258	0.778122	0.666737
C103	C	1.142152	0.108479	0.000076
C104	C	1.475485	0.441812	0.333410
C105	C	1.808819	0.775145	0.666743
C106	C	1.235102	0.110130	0.000077
C107	C	1.568435	0.443464	0.333411
C108	C	1.901769	0.776797	0.666744
C109	C	0.982924	0.267678	0.000069
C110	C	1.316257	0.601011	0.333402
C111	C	1.649590	0.934345	0.666736
C112	C	0.984556	0.360631	0.000070
C113	C	1.317889	0.693964	0.333403
C114	C	1.651223	1.027298	0.666737
N115	N	0.989049	0.114579	0.195734
N116	N	1.322383	0.447913	0.529067
N117	N	1.655716	0.781246	0.862401
N118	N	0.989094	0.114597	-0.195598
N119	N	1.322427	0.447930	0.137735
N120	N	1.655761	0.781264	0.471069
C121	C	1.046001	0.057678	0.239001
C122	C	1.379334	0.391012	0.572335
C123	C	1.712668	0.724345	0.905668
C124	C	1.046005	0.057678	0.325548
C125	C	1.379339	0.391011	0.658882
C126	C	1.712672	0.724344	0.992215
C127	C	0.989061	0.114582	0.368827
C128	C	1.322395	0.447916	0.702160
C129	C	1.655728	0.781249	1.035493
C130	C	0.932104	0.171486	0.325553
C131	C	1.265437	0.504819	0.658886
C132	C	1.598770	0.838152	0.992220
C133	C	0.932096	0.171482	0.239008
C134	C	1.265429	0.504815	0.572341
C135	C	1.598763	0.838149	0.905674
C136	C	0.932132	0.171501	0.674581
C137	C	1.265466	0.504835	1.007915
C138	C	1.598799	0.838168	1.341248
C139	C	0.932146	0.171503	0.761133
C140	C	1.265479	0.504836	1.094466
C141	C	1.598813	0.838169	1.427799
C142	C	1.046041	0.057697	0.761122
C143	C	1.379375	0.391030	1.094456
C144	C	1.712708	0.724364	1.427789
C145	C	1.046034	0.057693	0.674577
C146	C	1.379367	0.391027	1.007910
C147	C	1.712701	0.724360	1.341243
C148	C	0.989074	0.114593	0.631311
C149	C	1.322407	0.447927	0.964644
C150	C	1.655740	0.781260	1.297977
C151	C	0.989069	0.114593	0.537467
C152	C	1.322402	0.447926	0.870800
C153	C	1.655735	0.781259	1.204133
C154	C	0.989070	0.114588	0.462669
C155	C	1.322403	0.447921	0.796002
C156	C	1.655736	0.781254	1.129336
H157	H	1.118478	-0.330177	0.056349
H158	H	1.451811	0.003157	0.389682
H159	H	1.785145	0.336490	0.723015
F160	F	0.428529	-0.026273	0.073968
F161	F	0.761862	0.307060	0.407302
F162	F	1.095195	0.640394	0.740635
H163	H	0.547063	0.228491	0.083619
H164	H	0.880396	0.561824	0.416953
H165	H	1.213730	0.895157	0.750286
F166	F	0.411213	0.115886	-0.155223
F167	F	0.744546	0.449220	0.178110
F168	F	1.077879	0.782553	0.511443
H169	H	0.402865	0.226143	-0.082074
H170	H	0.736198	0.559477	0.251260
H171	H	1.069531	0.892810	0.584593
H172	H	0.545873	0.229436	-0.081370
H173	H	0.879206	0.562769	0.251963
H174	H	1.212540	0.896103	0.585297
H175	H	0.975193	-0.454330	-0.137205
H176	H	1.308527	-0.120997	0.196128
H177	H	1.641860	0.212336	0.529461
F178	F	0.585842	-0.023298	-0.073750
F179	F	0.919175	0.310035	0.259584
F180	F	1.252508	0.643369	0.592917
F181	F	0.407928	0.121679	0.155629
F182	F	0.741262	0.455012	0.488962
F183	F	1.074595	0.788345	0.822296
F184	F	0.427147	-0.026049	-0.072809
F185	F	0.760480	0.307284	0.260525
F186	F	1.093813	0.640617	0.593858
F187	F	0.851851	-0.445671	0.078529
F188	F	1.185184	-0.112338	0.411862
F189	F	1.518517	0.220996	0.745196
H190	H	1.092375	0.011344	0.203770
H191	H	1.425708	0.344677	0.537103
H192	H	1.759041	0.678010	0.870437
F193	F	0.568865	0.120235	-0.154827
F194	F	0.902198	0.453568	0.178506
F195	F	1.235531	0.786902	0.511840
F196	F	0.871495	0.232045	0.371613
F197	F	1.204828	0.565378	0.704947
F198	F	1.538161	0.898712	1.038280
H199	H	0.402992	0.228310	0.078376
H200	H	0.736325	0.561643	0.411709
H201	H	1.069658	0.894977	0.745043
H202	H	1.116148	-0.473875	0.056686
H203	H	1.449481	-0.140541	0.390020
H204	H	1.782814	0.192792	0.723353
F205	F	0.567333	0.117626	0.154794
F206	F	0.900667	0.450960	0.488127
F207	F	1.234000	0.784293	0.821461
F208	F	0.871478	0.232042	0.192960
F209	F	1.204811	0.565375	0.526294
F210	F	1.538144	0.898708	0.859627
F211	F	1.106618	-0.002883	0.371597
F212	F	1.439952	0.330450	0.704930
F213	F	1.773285	0.663783	1.038264
F214	F	1.106644	-0.002869	0.628520
F215	F	1.439977	0.330465	0.961854
F216	F	1.773310	0.663798	1.295187
H217	H	1.115963	-0.474889	-0.055607
H218	H	1.449297	-0.141555	0.277726
H219	H	1.782630	0.191778	0.611059
F220	F	1.106662	-0.002865	0.807175
F221	F	1.439995	0.330469	1.140509
F222	F	1.773329	0.663802	1.473842
H223	H	0.970356	-0.455476	0.137354
H224	H	1.303689	-0.122143	0.470687
H225	H	1.637022	0.211191	0.804020
F226	F	0.871514	0.232060	0.628541
F227	F	1.204848	0.565393	0.961874
F228	F	1.538181	0.898727	1.295208
F229	F	1.129931	-0.325134	-0.073624
F230	F	1.463264	0.008200	0.259709
F231	F	1.796597	0.341533	0.593043
F232	F	0.854116	-0.446538	-0.083182
F233	F	1.187449	-0.113205	0.250152
F234	F	1.520783	0.220128	0.583485
F235	F	0.871535	0.232071	0.807191
F236	F	1.204868	0.565404	1.140524
F237	F	1.538201	0.898737	1.473858
F238	F	0.856076	-0.289071	-0.082278
F239	F	1.189410	0.044262	0.251056
F240	F	1.522743	0.377596	0.584389
H241	H	0.976397	-0.310663	-0.136881
H242	H	1.309730	0.022670	0.196452
H243	H	1.643064	0.356004	0.529785
F244	F	0.988720	-0.306624	0.154798
F245	F	1.322053	0.026709	0.488132
F246	F	1.655386	0.360043	0.821465
H247	H	0.577861	-0.012282	0.056339
H248	H	0.911194	0.321052	0.389673
H249	H	1.244527	0.654385	0.723006
F250	F	0.857193	-0.287801	0.085070
F251	F	1.190527	0.045533	0.418403
F252	F	1.523860	0.378866	0.751736
