data_functionalizedCrystal
_audit_creation_method	'MofGen! by Chris Wilmer'
_symmetry_space_group_name_H-M	'P1'
_symmetry_Int_Tables_number	1
_symmetry_cell_setting	triclinic
loop_
_symmetry_equiv_pos_as_xyz
  x,y,z
_cell_length_a	6.817900
_cell_length_b	15.185311
_cell_length_c	12.200875
_cell_angle_alpha	94.011397
_cell_angle_beta	107.143593
_cell_angle_gamma	104.261569
loop_
_atom_site_label
_atom_site_type_symbol
_atom_site_fract_x
_atom_site_fract_y
_atom_site_fract_z
V1	V	-4.072254	-0.125962	-0.357998
O2	O	-4.054857	0.005841	-0.350837
O3	O	-4.027350	-0.249557	-0.355883
O4	O	-4.041920	-0.124118	-0.513981
O5	O	-4.040186	-0.120467	-0.191644
V6	V	-4.553088	-0.110186	-0.338060
O7	O	-4.339411	-0.160568	-0.401733
O8	O	-4.736129	-0.075580	-0.294325
O9	O	-4.374786	0.013409	-0.340176
O10	O	-4.687882	-0.241989	-0.345221
O11	O	-4.702553	-0.115681	-0.504415
O12	O	-4.360216	-0.112030	-0.182077
C13	C	-3.872617	-0.279684	-0.350321
C14	C	-3.917309	-0.380726	-0.349631
C15	C	-4.053540	-0.794923	-0.241662
C16	C	-4.159255	-0.820989	-0.451839
C17	C	-4.117235	-0.726054	-0.452481
C18	C	-4.043368	-0.665549	-0.347712
C19	C	-4.011520	-0.699979	-0.242301
C20	C	-4.149099	-0.691617	-0.557891
C21	C	-4.107081	-0.596677	-0.558537
C22	C	-4.033198	-0.536169	-0.453766
C23	C	-4.001349	-0.570605	-0.348351
C24	C	-3.927481	-0.510100	-0.243581
C25	C	-3.895616	-0.544533	-0.138164
C26	C	-3.937637	-0.639472	-0.137530
C27	C	-3.991177	-0.441231	-0.454400
C28	C	-3.885462	-0.415156	-0.244220
C29	C	-3.891200	-0.119673	-0.551990
C30	C	-3.947705	-0.118982	-0.679510
C31	C	-4.051117	-0.117720	-0.912980
C32	C	-3.993563	-0.118422	-0.783060
C33	C	-4.192861	0.043531	-0.345734
C34	C	-4.127407	0.144572	-0.346431
C35	C	-4.174277	-0.116479	-0.144062
C36	C	-4.097010	-0.117164	-0.016542
H37	H	-3.835480	-0.495258	-0.052862
Br38	Br	-3.894412	-0.686209	0.005522
H39	H	-4.027590	-0.822963	-0.155834
H40	H	-3.825301	-0.365898	-0.158903
H41	H	-4.219416	-0.870257	-0.537138
Br42	Br	-4.249371	-0.773733	-0.700069
Br43	Br	-4.150319	-0.549953	-0.701598
H44	H	-4.017158	-0.413200	-0.540230
