data_functionalizedCrystal
_audit_creation_method	'MofGen! by Chris Wilmer'
_symmetry_space_group_name_H-M	'P1'
_symmetry_Int_Tables_number	1
_symmetry_cell_setting	triclinic
loop_
_symmetry_equiv_pos_as_xyz
  x,y,z
_cell_length_a	15.944545
_cell_length_b	15.944551
_cell_length_c	13.930277
_cell_angle_alpha	89.996314
_cell_angle_beta	90.003812
_cell_angle_gamma	83.497455
loop_
_atom_site_label
_atom_site_type_symbol
_atom_site_fract_x
_atom_site_fract_y
_atom_site_fract_z
O1	O	1.114531	0.108295	0.079771
O2	O	0.869981	0.121657	0.079787
O3	O	0.998934	-0.007299	0.079770
O4	O	0.985578	0.237251	0.079788
O5	O	0.998915	-0.007279	-0.079892
O6	O	0.869962	0.121677	-0.079875
O7	O	1.114512	0.108315	-0.079891
Zn8	Zn	0.992234	0.114999	-0.105233
Zn9	Zn	0.992259	0.114973	0.105128
O10	O	0.985559	0.237271	-0.079874
C11	C	0.838677	0.121113	-0.000042
C12	C	0.745431	0.119453	-0.000037
C13	C	0.474798	0.034559	-0.000053
C14	C	0.525371	0.075498	-0.078774
C15	C	0.409787	0.113532	-0.000053
C16	C	0.525370	0.075499	0.078640
C17	C	0.574701	0.116437	-0.000044
C18	C	0.459131	0.154450	-0.078839
C19	C	0.459127	0.154440	0.078645
C20	C	0.509667	0.195436	-0.000095
C21	C	0.314785	0.111856	-0.000060
C22	C	0.669700	0.118119	-0.000044
C23	C	0.998370	-0.038583	-0.000061
C24	C	0.996708	-0.131829	-0.000062
C25	C	0.912803	-0.346684	-0.000043
C26	C	0.951757	-0.407692	-0.078769
C27	C	0.993701	-0.302555	-0.000054
C28	C	0.951794	-0.407695	0.078645
C29	C	0.990790	-0.467468	-0.000043
C30	C	1.032676	-0.362335	-0.078845
C31	C	1.032703	-0.362332	0.078640
C32	C	1.071715	-0.423322	-0.000105
C33	C	0.995375	-0.207553	-0.000062
C34	C	0.989122	-0.562469	-0.000042
C35	C	1.145816	0.108859	-0.000060
C36	C	1.239062	0.110519	-0.000059
C37	C	0.986123	0.268555	-0.000041
C38	C	0.987785	0.361801	-0.000034
N39	N	0.992223	0.115016	-0.248799
C40	C	1.043214	0.165933	-0.701058
C41	C	0.941330	0.063978	-0.701048
C42	C	0.941317	0.063991	-0.600553
C43	C	0.992255	0.114976	-0.550305
C44	C	1.043205	0.165947	-0.600553
C45	C	0.890374	0.013015	-0.550297
C46	C	0.890360	0.013026	-0.449795
C47	C	0.941294	0.064016	-0.399546
C48	C	0.992245	0.114989	-0.449800
C49	C	1.043183	0.165974	-0.399552
C50	C	1.094131	0.216952	-0.449804
C51	C	1.094139	0.216936	-0.550303
C52	C	0.941286	0.064032	-0.299047
C53	C	1.043174	0.165987	-0.299047
N54	N	0.992277	0.114949	0.248695
H55	H	0.459145	-0.033453	-0.000135
Br56	Br	1.089699	-0.328792	0.189571
Br57	Br	0.894754	-0.441197	0.189567
Br58	Br	0.894718	-0.441192	-0.189695
H59	H	1.084650	0.207509	-0.258142
Br60	Br	1.183730	-0.478595	-0.000179
Br61	Br	1.163266	0.286134	-0.381599
Br62	Br	1.163272	0.286119	-0.618507
H63	H	1.066856	-0.342337	-0.145474
H64	H	1.084692	0.207441	-0.741977
Br65	Br	0.821204	-0.056143	-0.381604
Br66	Br	0.872207	-0.005216	-0.769242
Br67	Br	0.573574	0.019927	-0.189711
H68	H	0.430189	0.187755	0.145205
H69	H	0.848911	-0.028501	-0.591216
Br70	Br	0.872168	-0.005167	-0.230851
Br71	Br	0.535486	0.308883	-0.000153
Br72	Br	0.411107	0.210013	-0.189885
Br73	Br	0.573585	0.019876	0.189556
H74	H	0.845655	-0.313375	-0.000117
