data_functionalizedCrystal
_audit_creation_method	'MofGen! by Chris Wilmer'
_symmetry_space_group_name_H-M	'P1'
_symmetry_Int_Tables_number	1
_symmetry_cell_setting	triclinic
loop_
_symmetry_equiv_pos_as_xyz
  x,y,z
_cell_length_a	17.699083
_cell_length_b	19.288865
_cell_length_c	16.776229
_cell_angle_alpha	90.008647
_cell_angle_beta	90.000273
_cell_angle_gamma	96.790368
loop_
_atom_site_label
_atom_site_type_symbol
_atom_site_fract_x
_atom_site_fract_y
_atom_site_fract_z
O1	O	1.003954	-0.087835	-0.066186
O2	O	1.503954	0.412165	0.433814
O3	O	0.783559	-0.099262	-0.066213
O4	O	1.283559	0.400738	0.433787
O5	O	0.900125	0.007574	-0.066183
O6	O	1.400125	0.507574	0.433817
O7	O	0.887388	-0.194671	-0.066216
O8	O	1.387388	0.305329	0.433784
O9	O	0.900112	0.007575	0.066394
O10	O	1.400112	0.507575	0.566394
O11	O	0.783546	-0.099262	0.066363
O12	O	1.283546	0.400738	0.566363
O13	O	1.003941	-0.087834	0.066391
O14	O	1.503941	0.412166	0.566391
Zn15	Zn	0.893741	-0.093548	0.087427
Zn16	Zn	1.393741	0.406452	0.587427
Zn17	Zn	0.893759	-0.093549	-0.087249
Zn18	Zn	1.393759	0.406451	0.412751
O19	O	0.887375	-0.194671	0.066361
O20	O	1.387375	0.305329	0.566361
C21	C	0.755356	-0.098853	0.000072
C22	C	1.255356	0.401147	0.500072
C23	C	0.671340	-0.097624	0.000062
C24	C	1.171340	0.402376	0.500062
N25	N	0.893735	-0.093547	0.206638
N26	N	1.393735	0.406453	0.706638
C27	C	0.899709	0.033451	0.000108
C28	C	1.399709	0.533451	0.500108
C29	C	0.898478	0.110556	0.000115
C30	C	1.398478	0.610556	0.500115
C31	C	0.622631	-0.160335	0.000052
C32	C	1.122631	0.339665	0.500052
C33	C	0.543689	-0.159177	0.000063
C34	C	1.043689	0.340823	0.500063
C35	C	0.513458	-0.095307	0.000078
C36	C	1.013458	0.404693	0.500078
C37	C	0.562174	-0.032591	0.000090
C38	C	1.062174	0.467409	0.500090
C39	C	0.641114	-0.033750	0.000085
C40	C	1.141114	0.466250	0.500085
C41	C	0.243817	-0.027915	0.000110
C42	C	0.743817	0.472085	0.500110
C43	C	0.164871	-0.026761	0.000113
C44	C	0.664871	0.473239	0.500113
C45	C	0.146393	-0.153342	0.000088
C46	C	0.646393	0.346658	0.500088
C47	C	0.225333	-0.154501	0.000083
C48	C	0.725333	0.345499	0.500083
C49	C	0.274041	-0.091785	0.000100
C50	C	0.774041	0.408215	0.500100
C51	C	0.359639	-0.093042	0.000090
C52	C	0.859639	0.406958	0.500090
C53	C	0.427862	-0.094049	0.000082
C54	C	0.927862	0.405951	0.500082
C55	C	1.032144	-0.088244	0.000104
C56	C	1.532144	0.411756	0.500104
C57	C	1.116160	-0.089472	0.000109
C58	C	1.616160	0.410528	0.500109
C59	C	0.887792	-0.220548	0.000068
C60	C	1.387792	0.279452	0.500068
C61	C	0.889022	-0.297653	0.000056
C62	C	1.389022	0.202347	0.500056
C63	C	0.966874	0.155172	0.000127
C64	C	1.466874	0.655172	0.500127
C65	C	0.965718	0.227620	0.000114
C66	C	1.465718	0.727620	0.500114
C67	C	0.896163	0.255450	0.000105
C68	C	1.396163	0.755450	0.500105
C69	C	0.827759	0.210825	0.000088
C70	C	1.327759	0.710825	0.500088
C71	C	0.828916	0.138378	0.000093
C72	C	1.328916	0.638378	0.500093
C73	C	0.841480	0.363802	0.046537
C74	C	1.341480	0.863802	0.546537
C75	C	0.840325	0.436248	0.046537
C76	C	1.340325	0.936248	0.546537
C77	C	0.892589	0.478900	0.000087
C78	C	1.392589	0.978900	0.500087
C79	C	0.946021	0.449098	-0.046353
C80	C	1.446021	0.949098	0.453647
C81	C	0.947179	0.376652	-0.046349
C82	C	1.447179	0.876652	0.453651
C83	C	0.894900	0.334006	0.000099
C84	C	1.394900	0.834006	0.500099
C85	C	0.959736	0.602073	0.000084
C86	C	1.459736	1.102073	0.500084
C87	C	0.958578	0.674522	0.000067
C88	C	1.458578	1.174522	0.500067
C89	C	0.820616	0.657725	0.000049
C90	C	1.320616	1.157725	0.500049
C91	C	0.821777	0.585277	0.000058
C92	C	1.321777	1.085277	0.500058
C93	C	0.891339	0.557456	0.000080
C94	C	1.391339	1.057456	0.500080
N95	N	0.893771	-0.093544	-0.206460
N96	N	1.393771	0.406456	0.293540
C97	C	0.939491	-0.135624	0.248350
C98	C	1.439491	0.364376	0.748350
C99	C	0.939499	-0.135621	0.331802
C100	C	1.439499	0.364379	0.831802
C101	C	0.893747	-0.093545	0.373541
C102	C	1.393747	0.406455	0.873541
C103	C	0.847990	-0.051464	0.331822
C104	C	1.347990	0.448536	0.831822
C105	C	0.847986	-0.051464	0.248372
C106	C	1.347986	0.448536	0.748372
C107	C	0.848005	-0.051465	0.668370
C108	C	1.348005	0.448535	1.168370
C109	C	0.848011	-0.051471	0.751826
C110	C	1.348011	0.448529	1.251826
C111	C	0.939519	-0.135623	0.751800
C112	C	1.439519	0.364377	1.251800
C113	C	0.939515	-0.135622	0.668349
C114	C	1.439515	0.364378	1.168349
C115	C	0.893760	-0.093538	0.626639
C116	C	1.393760	0.406462	1.126639
C117	C	0.893753	-0.093541	0.536150
C118	C	1.393753	0.406459	1.036150
C119	C	0.893750	-0.093546	0.464027
C120	C	1.393750	0.406454	0.964027
H121	H	0.647238	-0.212346	0.000040
H122	H	1.147238	0.287654	0.500040
O123	O	0.983843	-0.176577	0.627772
O124	O	1.483843	0.323423	1.127772
C125	C	0.937530	-0.224014	0.579480
C126	C	1.437530	0.275986	1.079480
H127	H	0.877282	-0.231540	0.604630
H128	H	1.377282	0.268460	1.104630
H129	H	0.961533	-0.276310	0.578523
H130	H	1.461533	0.223690	1.078523
H131	H	0.936324	-0.202552	0.516238
H132	H	1.436324	0.297448	1.016238
H133	H	0.810749	-0.017198	0.634419
H134	H	1.310749	0.482802	1.134419
O135	O	0.496481	-0.220158	0.000016
O136	O	0.996481	0.279842	0.500016
C137	C	0.540092	-0.276780	0.000018
C138	C	1.040092	0.223220	0.500018
H139	H	0.599069	-0.259049	-0.025085
H140	H	1.099069	0.240951	0.474915
H141	H	0.510816	-0.320710	-0.038480
H142	H	1.010816	0.179290	0.461520
H143	H	0.545653	-0.296366	0.063616
H144	H	1.045653	0.203634	0.563616
H145	H	0.990684	0.352390	-0.084163
H146	H	1.490684	0.852390	0.415837
H147	H	0.976776	-0.169887	0.785771
H148	H	1.476776	0.330113	1.285771
H149	H	0.810741	-0.017202	0.365813
H150	H	1.310741	0.482798	0.865813
O151	O	1.034424	0.128112	0.000279
O152	O	1.534424	0.628112	0.500279
C153	C	1.039207	0.086702	0.068932
C154	C	1.539207	0.586702	0.568932
H155	H	0.999712	0.103776	0.116919
H156	H	1.499712	0.603776	0.616919
H157	H	1.100226	0.093309	0.091986
H158	H	1.600226	0.593309	0.591986
H159	H	1.021553	0.029538	0.053406
H160	H	1.521553	0.529538	0.553406
H161	H	0.140260	0.025253	0.000126
H162	H	0.640260	0.525253	0.500126
H163	H	1.021416	0.263953	0.000121
H164	H	1.521416	0.763953	0.500121
H165	H	0.283467	0.023152	0.000125
H166	H	0.783467	0.523152	0.500125
H167	H	0.771126	0.233489	0.000079
H168	H	1.271126	0.733489	0.500079
H169	H	0.810727	-0.017201	0.214411
H170	H	1.310727	0.482799	0.714411
O171	O	0.688325	0.027231	0.000055
O172	O	1.188325	0.527231	0.500055
C173	C	0.644717	0.083854	0.000087
C174	C	1.144717	0.583854	0.500087
H175	H	0.585735	0.066126	-0.025012
H176	H	1.085735	0.566126	0.474988
H177	H	0.673987	0.127785	-0.038397
H178	H	1.173987	0.627785	0.461603
H179	H	0.639166	0.103438	0.063695
H180	H	1.139166	0.603438	0.563695
O181	O	0.254572	-0.216605	0.000105
O182	O	0.754572	0.283395	0.500105
C183	C	0.194652	-0.271709	0.000079
C184	C	0.694652	0.228291	0.500079
H185	H	0.141090	-0.252329	0.025184
H186	H	0.641090	0.247671	0.525184
H187	H	0.210999	-0.316308	0.038563
H188	H	0.710999	0.183692	0.538563
H189	H	0.183412	-0.291048	-0.063527
H190	H	0.683412	0.208952	0.436473
O191	O	0.532684	0.029392	0.000070
O192	O	1.032684	0.529392	0.500070
C193	C	0.452564	0.016970	0.000090
C194	C	0.952564	0.516970	0.500090
H195	H	0.433839	-0.037265	-0.025019
H196	H	0.933839	0.462735	0.474981
H197	H	0.428464	0.057832	-0.038391
H198	H	0.928464	0.557832	0.461609
H199	H	0.430602	0.020298	0.063695
H200	H	0.930602	0.520298	0.563695
H201	H	0.773219	0.102051	0.000083
H202	H	1.273219	0.602051	0.500083
O203	O	0.983978	-0.176399	0.207721
O204	O	1.483978	0.323601	0.707721
C205	C	1.035777	-0.133985	0.159469
C206	C	1.535777	0.366015	0.659469
H207	H	1.012403	-0.082474	0.146977
H208	H	1.512403	0.417526	0.646977
H209	H	1.044108	-0.161899	0.100782
H210	H	1.544108	0.338101	0.600782
H211	H	1.092706	-0.123287	0.191630
H212	H	1.592706	0.376713	0.691630
H213	H	1.016378	0.579419	0.000098
H214	H	1.516378	1.079419	0.500098
O215	O	0.098968	-0.214202	0.000115
O216	O	0.598968	0.285798	0.500115
C217	C	0.022810	-0.199488	0.000105
C218	C	0.522810	0.300512	0.500105
H219	H	0.019969	-0.144938	0.025219
H220	H	0.519969	0.355062	0.525219
H221	H	-0.013089	-0.239473	0.038588
H222	H	0.486911	0.260527	0.538588
H223	H	-0.000034	-0.202157	-0.063497
H224	H	0.499966	0.297843	0.436503
O225	O	0.996692	0.490537	-0.091578
O226	O	1.496692	0.990537	0.408422
C227	C	0.957065	0.527699	-0.146957
C228	C	1.457065	1.027699	0.353043
H229	H	0.897986	0.498629	-0.157363
H230	H	1.397986	0.998629	0.342637
H231	H	0.989653	0.532473	-0.205694
H232	H	1.489653	1.032473	0.294306
H233	H	0.951513	0.582042	-0.122596
H234	H	1.451513	1.082042	0.377404
O235	O	0.753116	0.684866	0.000071
O236	O	1.253116	1.184866	0.500071
C237	C	0.766758	0.758377	0.000044
C238	C	1.266758	1.258377	0.500044
H239	H	0.825877	0.775494	0.025154
H240	H	1.325877	1.275494	0.525154
H241	H	0.722259	0.780556	0.038522
H242	H	1.222259	1.280556	0.538522
H243	H	0.763170	0.778524	-0.063563
H244	H	1.263170	1.278524	0.436437
O245	O	0.755267	0.542033	0.000092
O246	O	1.255267	1.042033	0.500092
C247	C	0.693626	0.582128	0.000061
C248	C	1.193626	1.082128	0.500061
H249	H	0.713020	0.636238	0.025158
H250	H	1.213020	1.136238	0.525158
H251	H	0.645715	0.555330	0.038548
H252	H	1.145715	1.055330	0.538548
H253	H	0.672298	0.587239	-0.063546
H254	H	1.172298	1.087239	0.436454
O255	O	0.790670	0.322477	0.091730
O256	O	1.290670	0.822477	0.591730
C257	C	0.743254	0.364311	0.132704
C258	C	1.243254	0.864311	0.632704
H259	H	0.773320	0.419714	0.138321
H260	H	1.273320	0.919714	0.638321
H261	H	0.730233	0.341762	0.194676
H262	H	1.230233	0.841762	0.694676
H263	H	0.687870	0.365286	0.098251
H264	H	1.187870	0.865286	0.598251
O265	O	0.788524	0.465240	0.091737
O266	O	1.288524	0.965240	0.591737
C267	C	0.826801	0.511912	0.147111
C268	C	1.326801	1.011912	0.647111
H269	H	0.886574	0.497314	0.157539
H270	H	1.386574	0.997314	0.657539
H271	H	0.794174	0.508778	0.205840
H272	H	1.294174	1.008778	0.705840
H273	H	0.830606	0.567382	0.122733
H274	H	1.330606	1.067382	0.622733
O275	O	0.803549	-0.010528	0.792250
O276	O	1.303549	0.489472	1.292250
C277	C	0.763150	0.026606	0.737543
C278	C	1.263150	0.526606	1.237543
H279	H	0.794489	0.030698	0.678054
H280	H	1.294489	0.530698	1.178054
H281	H	0.758654	0.081219	0.761672
H282	H	1.258654	0.581219	1.261672
H283	H	0.703641	-0.002071	0.728665
H284	H	1.203641	0.497929	1.228665
H285	H	1.014276	0.710848	0.000072
H286	H	1.514276	1.210848	0.500072
H287	H	0.976760	-0.169882	0.365761
H288	H	1.476760	0.330118	0.865761
