data_functionalizedCrystal
_audit_creation_method	'MofGen! by Chris Wilmer'
_symmetry_space_group_name_H-M	'P1'
_symmetry_Int_Tables_number	1
_symmetry_cell_setting	triclinic
loop_
_symmetry_equiv_pos_as_xyz
  x,y,z
_cell_length_a	19.805407
_cell_length_b	14.908579
_cell_length_c	19.805399
_cell_angle_alpha	93.273228
_cell_angle_beta	90.019573
_cell_angle_gamma	86.677887
loop_
_atom_site_label
_atom_site_type_symbol
_atom_site_fract_x
_atom_site_fract_y
_atom_site_fract_z
Zn1	Zn	1.019197	0.359181	0.398282
Zn2	Zn	1.012585	0.510047	0.291630
Zn3	Zn	0.906011	0.359206	0.285107
Zn4	Zn	0.899451	0.509999	0.404775
O5	O	0.959311	0.434608	0.344949
O6	O	1.113036	0.379203	0.384147
O7	O	0.998426	0.490068	0.196050
O8	O	0.926538	0.232958	0.294673
O9	O	1.108179	0.490044	0.305790
O10	O	1.009695	0.232939	0.377822
O11	O	0.920126	0.379246	0.191257
O12	O	0.810424	0.379199	0.300969
O13	O	0.915357	0.489962	0.498629
O14	O	0.805605	0.489986	0.388888
O15	O	1.003334	0.379157	0.493858
O16	O	0.992065	0.636286	0.312086
O17	O	0.908946	0.636250	0.395213
C18	C	0.783456	0.434591	0.344926
C19	C	0.708223	0.434605	0.344933
C20	C	0.949095	0.669002	0.355077
C21	C	0.944786	0.769277	0.359432
C22	C	0.670383	0.492379	0.390646
C23	C	0.599695	0.492380	0.390656
C24	C	0.566847	0.434612	0.344949
C25	C	0.604692	0.376832	0.299233
C26	C	0.675380	0.376827	0.299227
C27	C	0.319618	0.376852	0.299257
C28	C	0.248925	0.376864	0.299265
C29	C	0.243933	0.492406	0.390685
C30	C	0.314621	0.492400	0.390679
C31	C	0.352460	0.434618	0.344967
C32	C	0.429108	0.434615	0.344958
C33	C	0.490200	0.434618	0.344954
C34	C	1.023331	0.957679	0.281126
C35	C	1.019285	1.051896	0.285216
C36	C	0.932652	1.051929	0.371705
C37	C	0.936698	0.957712	0.367615
C38	C	0.982038	0.910590	0.322323
C39	C	0.986081	0.816372	0.318230
C40	C	0.899451	0.816407	0.404722
C41	C	0.895405	0.910624	0.408813
C42	C	1.135853	0.434626	0.344972
C43	C	1.211085	0.434634	0.344982
C44	C	0.959351	0.434551	0.521489
C45	C	0.959369	0.434527	0.596720
C46	C	0.969581	1.199299	0.334804
C47	C	0.973946	1.099024	0.330504
C48	C	0.959313	0.434600	0.169092
C49	C	0.959437	0.434370	0.093851
C50	C	1.005179	0.376828	0.629581
C51	C	1.005188	0.376802	0.700268
C52	C	0.959388	0.434480	0.738093
C53	C	0.913572	0.492182	0.705227
C54	C	0.913561	0.492203	0.634541
C55	C	0.913614	0.492098	0.990297
C56	C	0.913629	0.492074	1.060988
C57	C	1.005240	0.376697	1.056024
C58	C	1.005229	0.376718	0.985338
C59	C	0.959412	0.434416	0.952478
C60	C	0.959403	0.434442	0.875831
C61	C	0.959399	0.434459	0.814740
H62	H	0.697122	0.539423	0.427864
H63	H	1.042477	0.329862	0.598789
C64	C	1.055610	0.313264	0.943734
N65	N	1.093556	0.265465	0.912399
H66	H	0.706188	0.329777	0.262006
C67	C	1.055633	0.313216	1.092176
N68	N	1.093588	0.265403	1.119405
H69	H	0.568889	0.539426	0.427880
C70	C	1.055584	0.313330	0.736412
N71	N	1.093545	0.265520	0.763635
C72	C	0.361232	0.313295	0.248967
N73	N	0.392577	0.265422	0.211086
H74	H	0.876315	0.539092	0.963552
C75	C	1.035956	0.764539	0.268409
N76	N	1.073524	0.725501	0.230883
C77	C	0.863167	0.555678	0.598394
N78	N	0.825207	0.603488	0.571170
C79	C	1.073204	0.905843	0.231304
N80	N	1.110770	0.866801	0.193778
C81	C	0.350749	0.555951	0.440960
N82	N	0.377960	0.603816	0.478834
H83	H	0.213116	0.539452	0.427909
C84	C	0.863239	0.555522	1.102595
N85	N	0.825286	0.603307	1.133932
C86	C	0.212795	0.313305	0.248986
N87	N	0.185582	0.265433	0.211118
C88	C	1.064708	1.103690	0.239893
N89	N	1.098922	1.142701	0.205754
H90	H	0.577942	0.329793	0.262020
H91	H	0.895742	1.090312	0.408584
C92	C	0.845530	0.962469	0.458627
N93	N	0.807959	1.001517	0.496146
C94	C	0.854026	0.764602	0.450042
N95	N	0.819812	0.725581	0.484175
H96	H	0.876278	0.539141	0.736030
