data_functionalizedCrystal
_audit_creation_method	'MofGen! by Chris Wilmer'
_symmetry_space_group_name_H-M	'P1'
_symmetry_Int_Tables_number	1
_symmetry_cell_setting	triclinic
loop_
_symmetry_equiv_pos_as_xyz
  x,y,z
_cell_length_a	14.044220
_cell_length_b	14.853567
_cell_length_c	13.930277
_cell_angle_alpha	89.991563
_cell_angle_beta	90.002434
_cell_angle_gamma	88.411904
loop_
_atom_site_label
_atom_site_type_symbol
_atom_site_fract_x
_atom_site_fract_y
_atom_site_fract_z
O1	O	-1.257997	-0.217360	-0.079714
O2	O	-0.982018	-0.209516	-0.079738
O3	O	-1.127379	-0.082793	-0.079728
O4	O	-1.112636	-0.344084	-0.079724
O5	O	-1.127358	-0.082812	0.079934
O6	O	-0.981996	-0.209536	0.079923
O7	O	-1.257976	-0.217380	0.079948
Zn8	Zn	-1.119983	-0.213461	0.105286
Zn9	Zn	-1.120011	-0.213435	-0.105076
O10	O	-1.112614	-0.344103	0.079938
C11	C	-0.946688	-0.206092	0.000089
C12	C	-0.841449	-0.195851	0.000079
C13	C	-1.293306	-0.220803	0.000118
C14	C	-1.398545	-0.231045	0.000122
C15	C	-1.126701	-0.049161	0.000100
C16	C	-1.124699	0.051082	0.000091
C17	C	-0.648763	-0.177127	0.000098
C18	C	-0.591225	-0.249765	0.000103
C19	C	-0.484008	-0.239347	0.000114
C20	C	-0.755990	-0.187544	0.000088
C21	C	-1.113293	-0.377735	0.000108
C22	C	-1.115295	-0.477978	0.000110
N23	N	-1.119970	-0.213478	0.248852
C24	C	-1.029888	0.471127	0.000101
C25	C	-1.202581	0.478726	0.000116
C26	C	-1.204464	0.384543	0.000111
C27	C	-1.119057	0.333648	0.000102
C28	C	-1.031768	0.376935	0.000098
C29	C	-1.291751	0.341248	0.000124
C30	C	-1.293637	0.247060	0.000120
C31	C	-1.208229	0.196163	0.000104
C32	C	-1.120937	0.239456	0.000099
C33	C	-1.035530	0.188561	0.000090
C34	C	-0.948237	0.231852	0.000079
C35	C	-0.946360	0.326038	0.000083
C36	C	-1.210105	0.101977	0.000100
C37	C	-1.037410	0.094369	0.000088
N38	N	-1.120031	-0.213411	-0.248642
C39	C	-1.177587	-0.272760	0.701117
C40	C	-1.062464	-0.154076	0.701094
C41	C	-1.062449	-0.154089	0.600598
C42	C	-1.120006	-0.213438	0.550357
C43	C	-1.177577	-0.272773	0.600612
C44	C	-1.004887	-0.094749	0.550336
C45	C	-1.004871	-0.094759	0.449834
C46	C	-1.062423	-0.154113	0.399591
C47	C	-1.119995	-0.213451	0.449852
C48	C	-1.177552	-0.272800	0.399611
C49	C	-1.235120	-0.332143	0.449871
C50	C	-1.235129	-0.332127	0.550370
C51	C	-1.062414	-0.154130	0.299092
C52	C	-1.177541	-0.272813	0.299106
H53	H	-0.622488	-0.319778	0.000100
H54	H	-0.617501	-0.107120	0.000102
O55	O	-0.949020	-0.037166	0.400868
C56	C	-0.897890	0.015339	0.246036
C57	C	-0.961216	-0.049906	0.301371
H58	H	-0.907713	0.005048	0.165584
H59	H	-0.918916	0.087695	0.265684
H60	H	-0.820099	0.001531	0.265887
H61	H	-1.039024	-0.036181	0.281551
H62	H	-0.940109	-0.122241	0.281719
O63	O	-1.294868	0.059884	0.000281
C64	C	-1.397179	-0.042100	0.082974
C65	C	-1.301156	0.005526	0.082902
H66	H	-1.402286	-0.086074	0.149755
H67	H	-1.457934	0.010418	0.083048
H68	H	-1.402377	-0.085951	0.016122
H69	H	-1.295865	0.049374	0.149742
H70	H	-1.240447	-0.047039	0.082778
O71	O	-0.954355	0.045068	0.000120
C72	C	-0.782867	0.047472	0.000036
C73	C	-0.876853	0.103413	0.000024
H74	H	-0.720182	0.094619	-0.000062
H75	H	-0.779350	0.003199	0.066870
H76	H	-0.779495	0.003172	-0.066766
H77	H	-0.880288	0.147764	0.066781
H78	H	-0.880331	0.147627	-0.066855
O79	O	-0.865213	0.182505	-0.000058
C80	C	-0.718232	0.147136	-0.082822
C81	C	-0.812206	0.203096	-0.082775
H82	H	-0.675359	0.163750	-0.149702
H83	H	-0.675201	0.163783	-0.016056
H84	H	-0.734602	0.072390	-0.082771
H85	H	-0.795922	0.277858	-0.082861
H86	H	-0.855209	0.186374	-0.149535
H87	H	-1.015546	-0.105811	0.258176
O88	O	-1.233541	-0.330498	0.250455
C89	C	-1.347681	-0.448260	0.261085
C90	C	-1.284326	-0.382965	0.316301
H91	H	-1.388742	-0.490709	0.314297
H92	H	-1.400041	-0.408207	0.214043
H93	H	-1.301104	-0.494246	0.214024
H94	H	-1.330827	-0.336964	0.363413
H95	H	-1.231960	-0.423074	0.363282
H96	H	-0.875291	0.361295	0.000074
H97	H	-0.958816	0.506379	0.000088
O98	O	-1.291025	-0.389678	0.599339
C99	C	-1.342022	-0.442283	0.754177
C100	C	-1.278690	-0.377049	0.698835
H101	H	-1.332057	-0.432108	0.834629
H102	H	-1.419853	-0.428486	0.734473
H103	H	-1.320991	-0.514603	0.734391
H104	H	-1.299637	-0.304705	0.718592
H105	H	-1.200875	-0.390924	0.718544
H106	H	-1.272115	0.520170	0.000132
H107	H	-1.361284	0.382694	0.000141
H108	H	-1.364716	0.211820	0.000128
H109	H	-1.281987	-0.380461	0.408952
H110	H	-1.224455	-0.321078	0.742043
H111	H	-1.015610	-0.105751	0.742006
O112	O	-0.949005	-0.037184	0.599281
C113	C	-0.897972	0.015421	0.754094
C114	C	-0.961292	-0.049835	0.698782
H115	H	-0.907899	0.005228	0.834551
H116	H	-0.820144	0.001663	0.734366
H117	H	-0.919049	0.087735	0.734304
H118	H	-0.940300	-0.122173	0.718543
H119	H	-1.039105	-0.035999	0.718515
