data_functionalizedCrystal
_audit_creation_method	'MofGen! by Chris Wilmer'
_symmetry_space_group_name_H-M	'P1'
_symmetry_Int_Tables_number	1
_symmetry_cell_setting	triclinic
loop_
_symmetry_equiv_pos_as_xyz
  x,y,z
_cell_length_a	18.215407
_cell_length_b	18.215405
_cell_length_c	18.215407
_cell_angle_alpha	90.011538
_cell_angle_beta	90.009795
_cell_angle_gamma	90.025333
loop_
_atom_site_label
_atom_site_type_symbol
_atom_site_fract_x
_atom_site_fract_y
_atom_site_fract_z
Zn1	Zn	1.124999	-0.293121	0.416102
Zn2	Zn	1.624999	0.206879	0.916102
Zn3	Zn	1.124929	-0.416152	0.293030
Zn4	Zn	1.624929	0.083848	0.793030
Zn5	Zn	1.001953	-0.293104	0.293050
Zn6	Zn	1.501953	0.206896	0.793050
Zn7	Zn	1.001897	-0.416151	0.416055
Zn8	Zn	1.501897	0.083849	0.916055
O9	O	1.063445	-0.354632	0.354559
O10	O	1.563445	0.145368	0.854559
O11	O	1.227974	-0.309448	0.399788
O12	O	1.727974	0.190552	0.899788
O13	O	1.108610	-0.399822	0.190049
O14	O	1.608610	0.100178	0.690049
O15	O	1.018328	-0.190122	0.309401
O16	O	1.518328	0.309878	0.809401
O17	O	1.227923	-0.399838	0.309368
O18	O	1.727923	0.100162	0.809368
O19	O	1.108729	-0.190135	0.399807
O20	O	1.608729	0.309865	0.899807
O21	O	1.018260	-0.309420	0.190063
O22	O	1.518260	0.190580	0.690063
O23	O	0.898961	-0.309420	0.309355
O24	O	1.398961	0.190580	0.809355
O25	O	1.018233	-0.399838	0.519046
O26	O	1.518233	0.100162	1.019046
O27	O	0.898921	-0.399822	0.399727
O28	O	1.398921	0.100178	0.899727
O29	O	1.108675	-0.309448	0.519080
O30	O	1.608675	0.190552	1.019080
O31	O	1.108556	-0.519136	0.309322
O32	O	1.608556	-0.019136	0.809322
O33	O	1.018165	-0.519136	0.399708
O34	O	1.518165	-0.019136	0.899708
C35	C	0.872238	-0.354620	0.354538
C36	C	1.372238	0.145380	0.854538
C37	C	0.790439	-0.354632	0.354547
C38	C	1.290439	0.145368	0.854547
C39	C	0.602244	-0.401778	0.401544
C40	C	1.102244	0.098222	0.901544
C41	C	0.525385	-0.401781	0.401553
C42	C	1.025385	0.098219	0.901553
C43	C	0.525398	-0.307499	0.307591
C44	C	1.025398	0.192501	0.807591
C45	C	0.602255	-0.307494	0.307586
C46	C	1.102255	0.192506	0.807586
C47	C	0.640676	-0.354638	0.354561
C48	C	1.140676	0.145362	0.854561
C49	C	0.486960	-0.354645	0.354576
C50	C	0.986960	0.145355	0.854576
C51	C	0.403626	-0.354647	0.354585
C52	C	0.903626	0.145353	0.854585
C53	C	0.724015	-0.354635	0.354553
C54	C	1.224015	0.145365	0.854553
C55	C	1.063367	-0.545838	0.354524
C56	C	1.563367	-0.045838	0.854524
C57	C	1.063401	-0.627637	0.354534
C58	C	1.563401	-0.127637	0.854534
C59	C	1.110578	-0.815807	0.307556
C60	C	1.610578	-0.315807	0.807556
C61	C	1.110611	-0.892666	0.307574
C62	C	1.610611	-0.392666	0.807574
C63	C	1.016405	-0.892705	0.401616
C64	C	1.516405	-0.392705	0.901616
C65	C	1.016377	-0.815848	0.401601
C66	C	1.516377	-0.315848	0.901601
C67	C	1.063462	-0.777401	0.354567
C68	C	1.563462	-0.277401	0.854567
C69	C	1.063524	-0.931117	0.354600
C70	C	1.563524	-0.431117	0.854600
C71	C	1.063559	-1.014450	0.354619
C72	C	1.563559	-0.514450	0.854619
C73	C	1.063428	-0.694062	0.354548
C74	C	1.563428	-0.194062	0.854548
C75	C	1.255398	-0.354645	0.354581
C76	C	1.755398	0.145355	0.854581
C77	C	1.337196	-0.354651	0.354590
C78	C	1.837196	0.145349	0.854590
C79	C	1.063456	-0.354645	0.546512
C80	C	1.563456	0.145355	1.046512
C81	C	1.063461	-0.354651	0.628311
C82	C	1.563461	0.145349	1.128311
C83	C	1.063543	-0.162679	0.354611
C84	C	1.563543	0.337321	0.854611
C85	C	1.063584	-0.080880	0.354633
C86	C	1.563584	0.419120	0.854633
C87	C	1.110495	-0.401708	0.893366
C88	C	1.610495	0.098292	1.393366
C89	C	1.110496	-0.401712	0.816507
C90	C	1.610496	0.098288	1.316507
C91	C	1.016406	-0.307581	0.816505
C92	C	1.516406	0.192419	1.316505
C93	C	1.016401	-0.307582	0.893362
C94	C	1.516401	0.192418	1.393362
C95	C	1.063449	-0.354645	0.931791
C96	C	1.563449	0.145355	1.431791
C97	C	1.063456	-0.354647	0.778075
C98	C	1.563456	0.145353	1.278075
C99	C	1.063458	-0.354650	0.694741
C100	C	1.563458	0.145350	1.194741
C101	C	1.063447	-0.354642	1.015130
C102	C	1.563447	0.145358	1.515130
C103	C	1.063433	-0.354638	1.163353
C104	C	1.563433	0.145362	1.663353
C105	C	1.063445	-0.354641	1.081554
C106	C	1.563445	0.145359	1.581554
H107	H	0.633524	-0.440164	0.439797
H108	H	1.133524	0.059836	0.939797
H109	H	0.494106	-0.269118	0.269344
H110	H	0.994106	0.230882	0.769344
C111	C	1.162249	-0.453479	0.774243
C112	C	1.662249	0.046521	1.274243
H113	H	1.190270	-0.481502	0.808139
H114	H	1.690270	0.018498	1.308139
H115	H	1.134088	-0.485547	0.744248
H116	H	1.634088	0.014453	1.244248
H117	H	1.194330	-0.425322	0.744274
H118	H	1.694330	0.074678	1.244274
C119	C	0.483109	-0.453635	0.453232
C120	C	0.983109	0.046365	0.953232
H121	H	0.431832	-0.446883	0.446515
H122	H	0.931832	0.053117	0.946515
H123	H	0.495682	-0.503064	0.442373
H124	H	0.995682	-0.003064	0.942373
H125	H	0.495723	-0.442938	0.502699
H126	H	0.995723	0.057062	1.002699
C127	C	0.644534	-0.255638	0.255901
C128	C	1.144534	0.244362	0.755901
H129	H	0.610645	-0.227569	0.227918
H130	H	1.110645	0.272431	0.727918
H131	H	0.674535	-0.223616	0.284109
H132	H	1.174535	0.276384	0.784109
H133	H	0.674497	-0.283742	0.223782
H134	H	1.174497	0.216258	0.723782
C135	C	1.162376	-0.773517	0.255828
C136	C	1.662376	-0.273517	0.755828
H137	H	1.190446	-0.807401	0.227839
H138	H	1.690446	-0.307401	0.727839
H139	H	1.134242	-0.743569	0.223728
H140	H	1.634242	-0.243569	0.723728
H141	H	1.194410	-0.743500	0.284012
H142	H	1.694410	-0.243500	0.784012
C143	C	1.162429	-0.934913	0.255855
C144	C	1.662429	-0.434913	0.755855
H145	H	1.155708	-0.986193	0.262601
H146	H	1.655708	-0.486193	0.762601
H147	H	1.151686	-0.922343	0.206398
H148	H	1.651686	-0.422343	0.706398
H149	H	1.211867	-0.922273	0.266668
H150	H	1.711867	-0.422273	0.766668
H151	H	0.978101	-0.269264	0.785207
H152	H	1.478101	0.230736	1.285207
C153	C	1.162240	-0.453478	0.935638
C154	C	1.662240	0.046522	1.435638
H155	H	1.155505	-0.446734	0.986916
H156	H	1.655505	0.053266	1.486916
H157	H	1.151448	-0.502924	0.923030
H158	H	1.651448	-0.002924	1.423030
H159	H	1.211694	-0.442703	0.923055
H160	H	1.711694	0.057297	1.423055
C161	C	0.964609	-0.935000	0.453341
C162	C	1.464609	-0.435000	0.953341
H163	H	0.971367	-0.986274	0.446612
H164	H	1.471367	-0.486274	0.946612
H165	H	0.975331	-0.922378	0.502797
H166	H	1.475331	-0.422378	1.002797
H167	H	0.915164	-0.922446	0.442513
H168	H	1.415164	-0.422446	0.942513
H169	H	0.978009	-0.784576	0.439886
H170	H	1.478009	-0.284576	0.939886
C171	C	0.964650	-0.255807	0.935633
C172	C	1.464650	0.244193	1.435633
H173	H	0.936638	-0.227771	0.901740
H174	H	1.436638	0.272229	1.401740
H175	H	0.932572	-0.283960	0.965602
H176	H	1.432572	0.216040	1.465602
H177	H	0.992821	-0.223741	0.965627
H178	H	1.492821	0.276259	1.465627
