data_functionalizedCrystal
_audit_creation_method	'MofGen! by Chris Wilmer'
_symmetry_space_group_name_H-M	'P1'
_symmetry_Int_Tables_number	1
_symmetry_cell_setting	triclinic
loop_
_symmetry_equiv_pos_as_xyz
  x,y,z
_cell_length_a	14.971482
_cell_length_b	11.026607
_cell_length_c	13.448316
_cell_angle_alpha	90.001313
_cell_angle_beta	90.004522
_cell_angle_gamma	96.099312
loop_
_atom_site_label
_atom_site_type_symbol
_atom_site_fract_x
_atom_site_fract_y
_atom_site_fract_z
O1	O	1.212288	0.158154	0.082676
O2	O	1.712288	0.658154	0.582676
O3	O	0.954923	0.177101	0.082680
O4	O	1.454923	0.677101	0.582680
O5	O	1.062276	-0.009056	0.082675
O6	O	1.562276	0.490944	0.582675
O7	O	1.104936	0.344311	0.082681
O8	O	1.604936	0.844311	0.582681
O9	O	1.062262	-0.009058	-0.082709
O10	O	1.562262	0.490942	0.417291
O11	O	0.954909	0.177099	-0.082703
O12	O	1.454909	0.677099	0.417297
O13	O	1.212274	0.158152	-0.082708
O14	O	1.712274	0.658152	0.417292
Cu15	Cu	1.083591	0.167626	-0.097807
Cu16	Cu	1.583591	0.667626	0.402193
Cu17	Cu	1.083607	0.167627	0.097779
Cu18	Cu	1.583607	0.667627	0.597779
O19	O	1.104922	0.344309	-0.082702
O20	O	1.604922	0.844309	0.417298
C21	C	0.921456	0.176254	-0.000011
C22	C	1.421456	0.676254	0.499989
C23	C	0.821752	0.173717	-0.000009
C24	C	1.321752	0.673717	0.499991
C25	C	0.774909	0.172521	-0.090161
C26	C	1.274909	0.672521	0.409839
C27	C	0.681225	0.170118	-0.090162
C28	C	1.181225	0.670118	0.409838
C29	C	0.634388	0.168919	-0.000010
C30	C	1.134388	0.668919	0.499990
C31	C	0.681238	0.170112	0.090148
C32	C	1.181238	0.670112	0.590148
C33	C	0.774919	0.172506	0.090148
C34	C	1.274919	0.672506	0.590148
C35	C	0.485977	0.165124	0.090142
C36	C	0.985977	0.665124	0.590142
C37	C	0.392289	0.162732	0.090142
C38	C	0.892289	0.662732	0.590142
C39	C	0.392283	0.162736	-0.090169
C40	C	0.892283	0.662736	0.409831
C41	C	0.485964	0.165130	-0.090169
C42	C	0.985964	0.665130	0.409831
C43	C	0.532808	0.166325	-0.000009
C44	C	1.032808	0.666325	0.499991
C45	C	1.054399	-0.054279	-0.000016
C46	C	1.554399	0.445721	0.499984
C47	C	1.030938	-0.189027	-0.000012
C48	C	1.530938	0.310973	0.499988
C49	C	1.095717	-0.262740	-0.000011
C50	C	1.595717	0.237260	0.499989
C51	C	1.071471	-0.402009	-0.000007
C52	C	1.571471	0.097991	0.499993
C53	C	1.245742	0.158999	-0.000014
C54	C	1.745742	0.658999	0.499986
C55	C	1.345445	0.161536	-0.000010
C56	C	1.845445	0.661536	0.499990
C57	C	1.112799	0.389532	-0.000010
C58	C	1.612799	0.889532	0.499990
C59	C	1.136260	0.524280	-0.000007
C60	C	1.636260	1.024280	0.499993
N61	N	1.083585	0.167623	-0.235371
N62	N	1.583585	0.667623	0.264629
C63	C	1.149703	0.241364	-0.287406
C64	C	1.649703	0.741364	0.212594
C65	C	1.149713	0.241359	-0.391510
C66	C	1.649713	0.741359	0.108490
C67	C	1.083601	0.167618	-0.443575
C68	C	1.583601	0.667618	0.056425
C69	C	1.017480	0.093869	-0.391533
C70	C	1.517480	0.593869	0.108467
C71	C	1.017474	0.093869	-0.287431
C72	C	1.517474	0.593869	0.212569
C73	C	1.017496	0.093877	-0.608513
C74	C	1.517496	0.593877	-0.108513
C75	C	1.017500	0.093879	-0.712621
C76	C	1.517500	0.593879	-0.212621
C77	C	1.149735	0.241367	-0.712591
C78	C	1.649735	0.741367	-0.212591
C79	C	1.149729	0.241367	-0.608490
C80	C	1.649729	0.741367	-0.108490
C81	C	1.083606	0.167619	-0.556454
C82	C	1.583606	0.667619	-0.056454
N83	N	1.083618	0.167620	0.235343
N84	N	1.583618	0.667620	0.735343
H85	H	0.643088	0.169124	-0.163573
H86	H	1.143088	0.669124	0.336427
H87	H	0.957527	-0.229024	-0.000004
H88	H	1.457527	0.270976	0.499996
H89	H	0.524097	0.166114	-0.163578
H90	H	1.024097	0.666114	0.336422
F91	F	0.342428	0.161465	-0.186123
F92	F	0.842428	0.661465	0.313877
F93	F	0.947130	0.015370	-0.553135
F94	F	1.447130	0.515370	-0.053135
H95	H	0.354156	0.161757	0.163552
H96	H	0.854156	0.661757	0.663552
F97	F	1.232221	-0.423457	-0.000004
F98	F	1.732221	0.076543	0.499996
H99	H	1.203535	0.301420	-0.245022
H100	H	1.703535	0.801420	0.254978
H101	H	1.203554	0.301404	-0.433872
H102	H	1.703554	0.801404	0.066128
F103	F	1.220079	0.319874	-0.553079
F104	F	1.720079	0.819874	-0.053079
F105	F	1.220110	0.319852	-0.767972
F106	F	1.720110	0.819852	-0.267972
H107	H	0.963634	0.033822	-0.245065
H108	H	1.463634	0.533822	0.254935
H109	H	0.643095	0.169127	0.163552
H110	H	1.143095	0.669127	0.663552
F111	F	0.947140	0.015391	-0.768031
F112	F	1.447140	0.515391	-0.268031
H113	H	0.524114	0.166097	0.163559
H114	H	1.024114	0.666097	0.663559
F115	F	0.947120	0.015386	-0.446948
F116	F	1.447120	0.515386	0.053052
F117	F	0.824773	0.173774	0.186100
F118	F	1.324773	0.673774	0.686100
H119	H	1.169128	-0.222743	-0.000019
H120	H	1.669128	0.277257	0.499981
H121	H	0.813038	0.173507	-0.163573
H122	H	1.313038	0.673507	0.336427
F123	F	0.975511	-0.454275	0.000003
F124	F	1.475511	0.045725	0.500003
