data_functionalizedCrystal
_audit_creation_method	'MofGen! by Chris Wilmer'
_symmetry_space_group_name_H-M	'P1'
_symmetry_Int_Tables_number	1
_symmetry_cell_setting	triclinic
loop_
_symmetry_equiv_pos_as_xyz
  x,y,z
_cell_length_a	16.109301
_cell_length_b	16.109301
_cell_length_c	14.586319
_cell_angle_alpha	89.998390
_cell_angle_beta	89.996867
_cell_angle_gamma	83.461481
loop_
_atom_site_label
_atom_site_type_symbol
_atom_site_fract_x
_atom_site_fract_y
_atom_site_fract_z
O1	O	-1.103134	-0.106861	0.076185
O2	O	-0.603134	0.393139	0.576185
O3	O	-0.861072	-0.120161	0.076200
O4	O	-0.361072	0.379839	0.576200
O5	O	-0.988753	0.007520	0.076183
O6	O	-0.488753	0.507520	0.576183
O7	O	-0.975454	-0.234542	0.076203
O8	O	-0.475454	0.265458	0.576203
O9	O	-0.988737	0.007512	-0.076298
O10	O	-0.488737	0.507512	0.423702
O11	O	-0.861057	-0.120168	-0.076281
O12	O	-0.361057	0.379832	0.423719
O13	O	-1.103119	-0.106869	-0.076295
O14	O	-0.603119	0.393131	0.423705
Cu15	Cu	-0.982086	-0.113519	-0.090211
Cu16	Cu	-0.482086	0.386481	0.409789
Cu17	Cu	-0.982105	-0.113510	0.090115
Cu18	Cu	-0.482105	0.386490	0.590115
O19	O	-0.975438	-0.234550	-0.076278
O20	O	-0.475438	0.265450	0.423722
C21	C	-0.830090	-0.119626	-0.000038
C22	C	-0.330090	0.380374	0.499962
C23	C	-0.737794	-0.118011	-0.000033
C24	C	-0.237794	0.381989	0.499967
C25	C	-0.988206	0.038491	-0.000058
C26	C	-0.488206	0.538491	0.499942
C27	C	-0.986591	0.130786	-0.000059
C28	C	-0.486591	0.630786	0.499941
C29	C	-1.134101	-0.107404	-0.000055
C30	C	-0.634101	0.392596	0.499945
C31	C	-1.226397	-0.109019	-0.000054
C32	C	-0.726397	0.390981	0.499946
C33	C	-0.975984	-0.265521	-0.000035
C34	C	-0.475984	0.234479	0.499965
C35	C	-0.977600	-0.357816	-0.000028
C36	C	-0.477600	0.142184	0.499972
C37	C	-0.515522	-0.190018	-0.000038
C38	C	-0.015522	0.309982	0.499962
C39	C	-0.428801	-0.188494	-0.000044
C40	C	0.071199	0.311506	0.499956
C41	C	-0.448676	-0.037006	-0.000052
C42	C	0.051324	0.462994	0.499948
C43	C	-0.535394	-0.038530	-0.000053
C44	C	-0.035394	0.461470	0.499947
C45	C	-0.568815	-0.115039	-0.000041
C46	C	-0.068815	0.384961	0.499959
C47	C	-0.395376	-0.111990	-0.000046
C48	C	0.104624	0.388010	0.499954
C49	C	-0.301350	-0.110337	-0.000053
C50	C	0.198650	0.389663	0.499947
C51	C	-0.662847	-0.116693	-0.000036
C52	C	-0.162847	0.383307	0.499964
N53	N	-0.982079	-0.113525	-0.217042
N54	N	-0.482079	0.386475	0.282958
C55	C	-1.058599	0.353059	-0.000049
C56	C	-0.558599	0.853059	0.499951
C57	C	-1.057075	0.439779	-0.000041
C58	C	-0.557075	0.939779	0.499959
C59	C	-0.905586	0.419905	-0.000036
C60	C	-0.405586	0.919905	0.499964
C61	C	-0.907111	0.333186	-0.000037
C62	C	-0.407111	0.833186	0.499963
C63	C	-0.983620	0.299766	-0.000048
C64	C	-0.483620	0.799766	0.499952
C65	C	-0.980571	0.473205	-0.000039
C66	C	-0.480571	0.973205	0.499961
C67	C	-0.978918	0.567231	-0.000031
C68	C	-0.478918	1.067231	0.499969
C69	C	-0.985273	0.205734	-0.000055
C70	C	-0.485273	0.705734	0.499945
C71	C	-1.032502	-0.163954	-0.452048
C72	C	-0.532502	0.336046	0.047952
C73	C	-1.032511	-0.163948	-0.548029
C74	C	-0.532511	0.336052	-0.048029
C75	C	-0.931693	-0.063064	-0.548041
C76	C	-0.431693	0.436936	-0.048041
C77	C	-0.931690	-0.063066	-0.452061
C78	C	-0.431690	0.436934	0.047939
C79	C	-0.982093	-0.113515	-0.404067
C80	C	-0.482093	0.386485	0.095933
C81	C	-0.982105	-0.113508	-0.596028
C82	C	-0.482105	0.386492	-0.096028
C83	C	-0.982114	-0.113501	-0.700095
C84	C	-0.482114	0.386499	-0.200095
C85	C	-0.982085	-0.113521	-0.299993
C86	C	-0.482085	0.386479	0.200007
N87	N	-0.982118	-0.113498	0.216947
N88	N	-0.482118	0.386502	0.716947
H89	H	-0.542730	-0.252317	-0.000035
H90	H	-0.042730	0.247683	0.499965
F91	F	-0.827304	0.276464	-0.000029
F92	F	-0.327304	0.776464	0.499971
F93	F	-0.878049	-0.009379	-0.599127
F94	F	-0.378049	0.490621	-0.099127
H95	H	-0.578788	0.022530	-0.000058
H96	H	-0.078788	0.522530	0.499942
H97	H	-0.385413	-0.249550	-0.000043
H98	H	0.114587	0.250450	0.499957
H99	H	-0.421454	0.025285	-0.000067
H100	H	0.078546	0.525285	0.499933
H101	H	-1.120897	0.325851	-0.000056
H102	H	-0.620897	0.825851	0.499944
H103	H	-1.118130	0.483168	-0.000040
H104	H	-0.618130	0.983168	0.499960
H105	H	-0.843295	0.447127	-0.000028
H106	H	-0.343295	0.947127	0.499972
H107	H	-1.073544	-0.205033	-0.412974
H108	H	-0.573544	0.294967	0.087026
F109	F	-1.086165	-0.217630	-0.599089
F110	F	-0.586165	0.282370	-0.099089
H111	H	-0.890639	-0.021988	-0.412994
H112	H	-0.390639	0.478012	0.087006
