data_functionalizedCrystal
_audit_creation_method	'MofGen! by Chris Wilmer'
_symmetry_space_group_name_H-M	'P1'
_symmetry_Int_Tables_number	1
_symmetry_cell_setting	triclinic
loop_
_symmetry_equiv_pos_as_xyz
  x,y,z
_cell_length_a	16.959455
_cell_length_b	16.120444
_cell_length_c	16.120339
_cell_angle_alpha	89.786690
_cell_angle_beta	92.859329
_cell_angle_gamma	92.923869
loop_
_atom_site_label
_atom_site_type_symbol
_atom_site_fract_x
_atom_site_fract_y
_atom_site_fract_z
Zn1	Zn	1.170340	-0.306962	-0.487076
Zn2	Zn	1.169520	-0.453165	-0.355064
Zn3	Zn	1.044462	-0.314124	-0.348022
Zn4	Zn	1.031102	-0.445970	-0.494062
O5	O	1.103856	-0.380055	-0.421056
O6	O	1.280841	-0.326370	-0.469588
O7	O	1.158179	-0.440730	-0.237765
O8	O	1.067095	-0.196810	-0.360597
O9	O	1.280238	-0.433785	-0.372600
O10	O	1.159577	-0.191548	-0.462760
O11	O	1.066299	-0.338577	-0.232591
O12	O	0.932081	-0.331600	-0.367371
O13	O	1.044324	-0.421522	-0.609501
O14	O	0.922265	-0.428467	-0.474666
O15	O	1.146622	-0.319393	-0.604369
O16	O	1.145224	-0.568575	-0.379373
O17	O	1.043529	-0.563289	-0.481494
C18	C	0.898493	-0.380030	-0.421013
C19	C	0.810636	-0.380039	-0.421015
C20	C	0.438837	-0.435935	-0.370524
C21	C	0.439470	-0.324240	-0.471693
C22	C	0.522018	-0.324227	-0.471672
C23	C	0.562979	-0.380070	-0.421077
C24	C	0.521392	-0.435926	-0.370504
C25	C	0.563610	-0.268378	-0.522251
C26	C	0.646162	-0.268364	-0.522232
C27	C	0.687125	-0.324203	-0.471633
C28	C	0.645534	-0.380061	-0.421057
C29	C	0.686494	-0.435904	-0.370462
C30	C	0.644905	-0.491758	-0.319881
C31	C	0.562355	-0.491765	-0.319904
C32	C	0.769675	-0.324196	-0.471610
C33	C	0.769049	-0.435894	-0.370442
C34	C	1.092858	-0.596103	-0.431974
C35	C	1.088224	-0.688528	-0.436673
C36	C	1.128080	-0.901516	-0.396861
C37	C	1.079778	-0.857744	-0.445260
C38	C	1.084479	-0.763583	-0.440481
C39	C	1.123380	-0.995684	-0.401639
C40	C	1.310021	-0.380081	-0.421100
C41	C	1.397876	-0.380092	-0.421119
C42	C	1.094074	-0.368856	-0.637951
C43	C	1.089906	-0.364084	-0.730378
C44	C	1.114918	-0.163163	-0.410114
C45	C	1.119631	-0.070736	-0.405451
C46	C	1.113648	-0.391151	-0.205002
C47	C	1.117982	-0.395689	-0.112564
C48	C	1.081991	-0.355803	0.100374
C49	C	1.125895	-0.403967	0.056679
C50	C	1.121490	-0.399360	-0.037496
C51	C	1.086394	-0.360409	0.194558
H52	H	0.528485	-0.537238	-0.278723
H53	H	1.041099	-0.311113	0.067057
H54	H	0.530253	-0.222919	-0.563447
H55	H	0.803534	-0.278722	-0.512794
C56	C	1.019954	-0.902216	-0.505212
C57	C	1.027105	-0.988123	-0.498072
C58	C	0.972003	-1.029121	-0.553274
H59	H	1.029593	-0.885212	-0.560428
H60	H	0.968080	-0.888767	-0.492272
H61	H	1.078968	-1.001567	-0.511018
H62	H	1.017459	-1.005152	-0.442868
H63	H	0.920128	-1.015672	-0.540334
H64	H	0.981647	-1.012111	-0.608487
H65	H	0.976843	-1.087414	-0.548432
C66	C	1.187792	-0.857158	-0.336716
C67	C	1.147906	-0.810132	-0.280887
C68	C	1.202882	-0.769257	-0.225462
H69	H	1.222455	-0.821518	-0.366770
H70	H	1.217471	-0.896977	-0.306921
H71	H	1.118241	-0.770318	-0.310679
H72	H	1.113246	-0.845753	-0.250814
H73	H	1.232560	-0.809076	-0.195667
H74	H	1.237542	-0.733621	-0.255523
H75	H	1.175827	-0.737351	-0.187571
C76	C	0.813373	-0.496620	-0.315483
C77	C	0.759278	-0.545545	-0.271210
C78	C	0.800078	-0.601502	-0.220583
H79	H	0.848815	-0.466717	-0.277617
H80	H	0.842292	-0.531306	-0.349044
H81	H	0.730372	-0.510864	-0.237652
H82	H	0.723834	-0.575466	-0.309055
H83	H	0.828998	-0.636188	-0.254145
H84	H	0.835520	-0.571592	-0.182723
H85	H	0.763381	-0.634709	-0.190544
C86	C	0.393543	-0.496539	-0.315700
C87	C	0.312480	-0.484612	-0.326555
C88	C	0.270730	-0.540433	-0.276072
H89	H	0.410098	-0.487220	-0.259195
H90	H	0.403647	-0.551821	-0.330610
H91	H	0.302381	-0.429342	-0.311639
H92	H	0.295902	-0.493938	-0.383049
H93	H	0.280834	-0.595715	-0.290982
H94	H	0.287291	-0.531109	-0.219570
H95	H	0.215724	-0.532353	-0.283436
H96	H	0.680018	-0.222884	-0.563418
C97	C	0.394861	-0.263649	-0.526532
C98	C	0.313667	-0.275600	-0.515712
C99	C	0.272547	-0.219788	-0.566209
H100	H	0.405178	-0.272961	-0.583032
H101	H	0.411720	-0.208364	-0.511613
H102	H	0.296813	-0.330872	-0.530636
H103	H	0.303326	-0.266281	-0.459224
H104	H	0.289406	-0.164503	-0.551290
H105	H	0.282870	-0.229105	-0.622706
H106	H	0.217453	-0.227884	-0.558869
C107	C	1.180340	-0.463547	0.101250
C108	C	1.173916	-0.456355	0.187150
C109	C	1.224046	-0.511236	0.228238
H110	H	1.233384	-0.450358	0.087658
H111	H	1.165647	-0.518851	0.084453
H112	H	1.188614	-0.401065	0.203941
H113	H	1.120884	-0.469551	0.200766
H114	H	1.209353	-0.566539	0.211441
H115	H	1.277087	-0.498042	0.214640
H116	H	1.219689	-0.506369	0.286525
H117	H	0.678266	-0.537229	-0.278692
