data_functionalizedCrystal
_audit_creation_method	'MofGen! by Chris Wilmer'
_symmetry_space_group_name_H-M	'P1'
_symmetry_Int_Tables_number	1
_symmetry_cell_setting	triclinic
loop_
_symmetry_equiv_pos_as_xyz
  x,y,z
_cell_length_a	16.992694
_cell_length_b	13.101039
_cell_length_c	16.992695
_cell_angle_alpha	86.408978
_cell_angle_beta	90.668223
_cell_angle_gamma	93.581737
loop_
_atom_site_label
_atom_site_type_symbol
_atom_site_fract_x
_atom_site_fract_y
_atom_site_fract_z
O1	O	1.054903	0.085087	0.162849
O2	O	1.304903	0.335087	0.412849
O3	O	1.554903	0.585087	0.662849
O4	O	1.804903	0.835087	0.912849
O5	O	0.826504	0.085117	0.161017
O6	O	1.076504	0.335117	0.411017
O7	O	1.326504	0.585117	0.661017
O8	O	1.576504	0.835117	0.911017
O9	O	0.939787	0.085094	0.047733
O10	O	1.189787	0.335094	0.297733
O11	O	1.439787	0.585094	0.547733
O12	O	1.689787	0.835094	0.797733
O13	O	0.941619	0.085110	0.276133
O14	O	1.191619	0.335110	0.526133
O15	O	1.441619	0.585110	0.776133
O16	O	1.691619	0.835110	1.026133
O17	O	0.931660	-0.085335	0.055876
O18	O	1.181660	0.164665	0.305876
O19	O	1.431660	0.414665	0.555876
O20	O	1.681660	0.664665	0.805876
O21	O	0.818377	-0.085311	0.169159
O22	O	1.068377	0.164689	0.419159
O23	O	1.318377	0.414689	0.669159
O24	O	1.568377	0.664689	0.919159
O25	O	1.046776	-0.085342	0.170992
O26	O	1.296776	0.164658	0.420992
O27	O	1.546776	0.414658	0.670992
O28	O	1.796776	0.664658	0.920992
Zn29	Zn	0.931286	-0.112386	0.171368
Zn30	Zn	1.181286	0.137614	0.421368
Zn31	Zn	1.431286	0.387614	0.671368
Zn32	Zn	1.681286	0.637614	0.921368
Zn33	Zn	0.941994	0.112161	0.160640
Zn34	Zn	1.191994	0.362161	0.410640
Zn35	Zn	1.441994	0.612161	0.660640
Zn36	Zn	1.691994	0.862161	0.910640
O37	O	0.933492	-0.085319	0.284275
O38	O	1.183492	0.164681	0.534275
O39	O	1.433492	0.414681	0.784275
O40	O	1.683492	0.664681	1.034275
C41	C	0.793081	-0.000094	0.162732
C42	C	1.043081	0.249906	0.412732
C43	C	1.293081	0.499906	0.662732
C44	C	1.543081	0.749906	0.912732
C45	C	0.705597	-0.000082	0.155703
C46	C	0.955597	0.249918	0.405703
C47	C	1.205597	0.499918	0.655703
C48	C	1.455597	0.749918	0.905703
N49	N	0.923984	-0.265633	0.178689
N50	N	1.173984	-0.015633	0.428689
N51	N	1.423984	0.234367	0.678689
N52	N	1.673984	0.484367	0.928689
C53	C	0.659606	-0.000078	0.223520
C54	C	0.909606	0.249922	0.473520
C55	C	1.159606	0.499922	0.723520
C56	C	1.409606	0.749922	0.973520
C57	C	0.577404	-0.000093	0.216912
C58	C	0.827404	0.249907	0.466912
C59	C	1.077404	0.499907	0.716912
C60	C	1.327404	0.749907	0.966912
C61	C	0.541196	-0.000104	0.142485
C62	C	0.791196	0.249896	0.392485
C63	C	1.041196	0.499896	0.642485
C64	C	1.291196	0.749896	0.892485
C65	C	0.587192	-0.000111	0.074662
C66	C	0.837192	0.249889	0.324662
C67	C	1.087192	0.499889	0.574662
C68	C	1.337192	0.749889	0.824662
C69	C	0.669392	-0.000104	0.081272
C70	C	0.919392	0.249896	0.331272
C71	C	1.169392	0.499896	0.581272
C72	C	1.419392	0.749896	0.831272
C73	C	0.295880	-0.000133	0.115092
C74	C	0.545880	0.249867	0.365092
C75	C	0.795880	0.499867	0.615092
C76	C	1.045880	0.749867	0.865092
C77	C	0.213674	-0.000138	0.108488
C78	C	0.463674	0.249862	0.358488
C79	C	0.713674	0.499862	0.608488
C80	C	0.963674	0.749862	0.858488
C81	C	0.203892	-0.000121	0.250738
C82	C	0.453892	0.249879	0.500738
C83	C	0.703892	0.499879	0.750738
C84	C	0.953892	0.749879	1.000738
C85	C	0.286094	-0.000108	0.257341
C86	C	0.536094	0.249892	0.507341
C87	C	0.786094	0.499892	0.757341
C88	C	1.036094	0.749892	1.007341
C89	C	0.332083	-0.000120	0.189518
C90	C	0.582083	0.249880	0.439518
C91	C	0.832083	0.499880	0.689518
C92	C	1.082083	0.749880	0.939518
N93	N	0.457173	-0.000116	0.135728
N94	N	0.707173	0.249884	0.385728
N95	N	0.957173	0.499884	0.635728
N96	N	1.207173	0.749884	0.885728
N97	N	0.416104	-0.000116	0.196276
N98	N	0.666104	0.249884	0.446276
N99	N	0.916104	0.499884	0.696276
N100	N	1.166104	0.749884	0.946276
C101	C	0.914050	-0.474673	0.188658
C102	C	1.164050	-0.224673	0.438658
C103	C	1.414050	0.025327	0.688658
C104	C	1.664050	0.275327	0.938658
C105	C	0.959233	-0.525558	0.143347
C106	C	1.209233	-0.275558	0.393347
C107	C	1.459233	-0.025558	0.643347
C108	C	1.709233	0.224442	0.893347
C109	C	0.953706	-0.641876	0.148894
C110	C	1.203706	-0.391876	0.398894
C111	C	1.453706	-0.141876	0.648894
C112	C	1.703706	0.108124	0.898894
C113	C	0.919576	-0.358345	0.183112
C114	C	1.169576	-0.108345	0.433112
C115	C	1.419576	0.141655	0.683112
C116	C	1.669576	0.391655	0.933112
C117	C	1.080199	-0.000129	0.169276
C118	C	1.330199	0.249871	0.419276
C119	C	1.580199	0.499871	0.669276
C120	C	1.830199	0.749871	0.919276
C121	C	1.167684	-0.000134	0.176305
C122	C	1.417684	0.249866	0.426305
C123	C	1.667684	0.499866	0.676305
C124	C	1.917684	0.749866	0.926305
C125	C	0.933368	-0.000120	0.022444
C126	C	1.183368	0.249880	0.272444
C127	C	1.433368	0.499880	0.522444
C128	C	1.683368	0.749880	0.772444
C129	C	0.926339	-0.000119	-0.065040
C130	C	1.176339	0.249881	0.184960
C131	C	1.426339	0.499881	0.434960
C132	C	1.676339	0.749881	0.684960
N133	N	0.949302	0.265408	0.153313
N134	N	1.199302	0.515408	0.403313
N135	N	1.449302	0.765408	0.653313
N136	N	1.699302	1.015408	0.903313
C137	C	0.994157	-0.000129	-0.111031
C138	C	1.244157	0.249871	0.138969
C139	C	1.494157	0.499871	0.388969
C140	C	1.744157	0.749871	0.638969
C141	C	0.987549	-0.000118	-0.193232
C142	C	1.237549	0.249882	0.056768
C143	C	1.487549	0.499882	0.306768
C144	C	1.737549	0.749882	0.556768
C145	C	0.913122	-0.000105	-0.229441
C146	C	1.163122	0.249895	0.020559
C147	C	1.413122	0.499895	0.270559
C148	C	1.663122	0.749895	0.520559
C149	C	0.845299	-0.000092	-0.183445
C150	C	1.095299	0.249908	0.066555
C151	C	1.345299	0.499908	0.316555
C152	C	1.595299	0.749908	0.566555
C153	C	0.851909	-0.000095	-0.101245
C154	C	1.101909	0.249905	0.148755
C155	C	1.351909	0.499905	0.398755
C156	C	1.601909	0.749905	0.648755
C157	C	0.885728	-0.000087	-0.474756
C158	C	1.135728	0.249913	-0.224756
C159	C	1.385728	0.499913	0.025244
C160	C	1.635728	0.749913	0.275244
C161	C	0.879123	-0.000087	-0.556961
C162	C	1.129123	0.249913	-0.306961
C163	C	1.379123	0.499913	-0.056961
C164	C	1.629123	0.749913	0.193039
C165	C	1.021373	-0.000112	-0.566743
C166	C	1.271373	0.249888	-0.316743
C167	C	1.521373	0.499888	-0.066743
C168	C	1.771373	0.749888	0.183257
C169	C	1.027976	-0.000121	-0.484542
C170	C	1.277976	0.249879	-0.234542
C171	C	1.527976	0.499879	0.015458
C172	C	1.777976	0.749879	0.265458
C173	C	0.960154	-0.000102	-0.438553
C174	C	1.210154	0.249898	-0.188553
C175	C	1.460154	0.499898	0.061447
C176	C	1.710154	0.749898	0.311447
N177	N	0.906365	-0.000097	-0.313464
N178	N	1.156365	0.249903	-0.063464
N179	N	1.406365	0.499903	0.186536
N180	N	1.656365	0.749903	0.436536
N181	N	0.966912	-0.000103	-0.354532
N182	N	1.216912	0.249897	-0.104532
N183	N	1.466912	0.499897	0.145468
N184	N	1.716912	0.749897	0.395468
C185	C	0.939912	-0.000103	0.309564
C186	C	1.189912	0.249897	0.559564
C187	C	1.439912	0.499897	0.809564
C188	C	1.689912	0.749897	1.059564
C189	C	0.946941	-0.000097	0.397048
C190	C	1.196941	0.249903	0.647048
C191	C	1.446941	0.499903	0.897048
C192	C	1.696941	0.749903	1.147048
H193	H	0.689081	-0.000068	0.284127
H194	H	0.939081	0.249932	0.534127
H195	H	1.189081	0.499932	0.784127
H196	H	1.439081	0.749932	1.034127
Cl197	Cl	0.353684	-0.000148	0.029828
Cl198	Cl	0.603684	0.249852	0.279828
Cl199	Cl	0.853684	0.499852	0.529828
Cl200	Cl	1.103684	0.749852	0.779828
Cl201	Cl	1.025686	-0.457950	0.077345
Cl202	Cl	1.275686	-0.207950	0.327345
Cl203	Cl	1.525686	0.042050	0.577345
Cl204	Cl	1.775686	0.292050	0.827345
Cl205	Cl	0.541672	-0.000132	-0.018904
Cl206	Cl	0.791672	0.249868	0.231096
Cl207	Cl	1.041672	0.499868	0.481096
Cl208	Cl	1.291672	0.749868	0.731096
Cl209	Cl	1.087727	-0.000156	-0.065519
Cl210	Cl	1.337727	0.249844	0.184481
Cl211	Cl	1.587727	0.499844	0.434481
Cl212	Cl	1.837727	0.749844	0.684481
Cl213	Cl	0.800465	-0.000061	-0.416952
Cl214	Cl	1.050465	0.249939	-0.166952
Cl215	Cl	1.300465	0.499939	0.083048
Cl216	Cl	1.550465	0.749939	0.333048
Cl217	Cl	0.519591	-0.000082	0.302173
Cl218	Cl	0.769591	0.249918	0.552173
Cl219	Cl	1.019591	0.499918	0.802173
Cl220	Cl	1.269591	0.749918	1.052173
H221	H	0.315570	-0.000087	0.317946
H222	H	0.565570	0.249913	0.567946
H223	H	0.815570	0.499913	0.817946
H224	H	1.065570	0.749913	1.067946
H225	H	0.706837	-0.000106	0.026047
H226	H	0.956837	0.249894	0.276047
H227	H	1.206837	0.499894	0.526047
H228	H	1.456837	0.749894	0.776047
H229	H	1.042773	-0.000129	-0.230674
H230	H	1.292773	0.249871	0.019326
H231	H	1.542773	0.499871	0.269326
H232	H	1.792773	0.749871	0.519326
H233	H	0.796684	-0.000087	-0.063800
H234	H	1.046684	0.249913	0.186200
H235	H	1.296684	0.499913	0.436200
H236	H	1.546684	0.749913	0.686200
H237	H	0.871219	-0.518462	0.231612
H238	H	1.121219	-0.268462	0.481612
H239	H	1.371219	-0.018462	0.731612
H240	H	1.621219	0.231538	0.981612
H241	H	1.088582	-0.000132	-0.455066
H242	H	1.338582	0.249868	-0.205066
H243	H	1.588582	0.499868	0.044934
H244	H	1.838582	0.749868	0.294934
H245	H	0.166439	-0.000113	0.305955
H246	H	0.416439	0.249887	0.555955
H247	H	0.666439	0.499887	0.805955
H248	H	0.916439	0.749887	1.055955
H249	H	1.076590	-0.000125	-0.604196
H250	H	1.326590	0.249875	-0.354196
H251	H	1.576590	0.499875	-0.104196
H252	H	1.826590	0.749875	0.145804
H253	H	0.818512	-0.000093	-0.586439
H254	H	1.068512	0.249907	-0.336439
H255	H	1.318512	0.499907	-0.086439
H256	H	1.568512	0.749907	0.163561
H257	H	0.184196	-0.000146	0.047877
H258	H	0.434196	0.249854	0.297877
H259	H	0.684196	0.499854	0.547877
H260	H	0.934196	0.749854	0.797877
Cl261	Cl	0.751734	-0.000063	-0.228965
Cl262	Cl	1.001734	0.249937	0.021035
Cl263	Cl	1.251734	0.499937	0.271035
Cl264	Cl	1.501734	0.749937	0.521035
