data_functionalizedCrystal
_audit_creation_method	'MofGen! by Chris Wilmer'
_symmetry_space_group_name_H-M	'P1'
_symmetry_Int_Tables_number	1
_symmetry_cell_setting	triclinic
loop_
_symmetry_equiv_pos_as_xyz
  x,y,z
_cell_length_a	10.654554
_cell_length_b	17.019294
_cell_length_c	9.730223
_cell_angle_alpha	86.119703
_cell_angle_beta	89.999030
_cell_angle_gamma	83.939222
loop_
_atom_site_label
_atom_site_type_symbol
_atom_site_fract_x
_atom_site_fract_y
_atom_site_fract_z
O1	O	1.666095	0.110808	-0.127426
O2	O	1.300452	0.121360	-0.128672
O3	O	1.493474	0.001308	-0.114459
O4	O	1.473072	0.230861	-0.141639
O5	O	1.493472	0.001311	0.114121
O6	O	1.300449	0.121363	0.099908
O7	O	1.666092	0.110812	0.101154
Zn8	Zn	1.483271	0.116088	0.136823
Zn9	Zn	1.483274	0.116084	-0.164341
O10	O	1.473070	0.230864	0.086941
C11	C	1.253665	0.120586	-0.014290
C12	C	1.114258	0.118266	-0.014014
C13	C	0.932872	0.043218	-0.005146
C14	C	1.063859	0.045397	-0.005390
C15	C	1.033662	0.188959	-0.022381
C16	C	0.902677	0.186779	-0.022127
C17	C	0.950307	-0.039667	0.004657
C18	C	1.081295	-0.037487	0.004413
C19	C	1.492700	-0.028084	0.003308
C20	C	1.490380	-0.115667	0.013670
C21	C	1.489294	-0.156811	-0.106060
C22	C	1.487106	-0.239103	-0.096320
C23	C	1.486013	-0.280251	0.033151
C24	C	1.487095	-0.239102	0.152890
C25	C	1.489274	-0.156810	0.143149
C26	C	1.479426	-0.528720	0.068797
C27	C	1.477250	-0.611018	0.078530
C28	C	1.477259	-0.611013	-0.170682
C29	C	1.479446	-0.528720	-0.180411
C30	C	1.480521	-0.487577	-0.060673
C31	C	1.483780	-0.364368	0.043110
C32	C	1.482744	-0.403461	-0.070633
C33	C	1.712879	0.111586	-0.013231
C34	C	1.852286	0.113906	-0.013516
C35	C	1.473845	0.260256	-0.030830
C36	C	1.476165	0.347839	-0.041200
N37	N	1.483278	0.116090	0.342359
N38	N	1.483276	0.116075	-0.369876
C39	C	1.568770	0.062949	0.420576
C40	C	1.568767	0.062940	0.564460
C41	C	1.397775	0.169219	0.551896
C42	C	1.397773	0.169224	0.408015
C43	C	1.667494	0.001592	0.427831
C44	C	1.667491	0.001582	0.571715
H45	H	0.915093	-0.066061	-0.090915
H46	H	1.483626	-0.369954	-0.176048
O47	O	1.136025	-0.067423	0.125757
C48	C	1.104666	-0.125799	0.354100
C49	C	1.042525	-0.091941	0.216742
H50	H	1.029097	-0.145615	0.427709
H51	H	1.175981	-0.178622	0.334748
H52	H	1.154929	-0.078166	0.401565
H53	H	0.992193	-0.139516	0.169205
H54	H	0.971278	-0.039099	0.236182
O55	O	1.632232	-0.066843	0.632829
C56	C	1.565816	-0.195368	0.600274
C57	C	1.605732	-0.117923	0.530882
H58	H	1.544355	-0.236682	0.517881
H59	H	1.645588	-0.225271	0.669686
H60	H	1.477863	-0.181459	0.664639
H61	H	1.693656	-0.131764	0.466447
H62	H	1.525887	-0.088043	0.461551
O63	O	1.485867	-0.279146	0.278580
C64	C	1.374641	-0.363684	0.433257
C65	C	1.375879	-0.318388	0.290855
H66	H	1.285712	-0.395409	0.443239
H67	H	1.461407	-0.408994	0.444864
H68	H	1.375853	-0.320131	0.517136
H69	H	1.374624	-0.361881	0.206890
H70	H	1.289121	-0.273067	0.279367
H71	H	1.480337	-0.495223	-0.285841
O72	O	1.131494	-0.074732	-0.105399
C73	C	1.091377	-0.144873	-0.305133
C74	C	1.034359	-0.102706	-0.180847
H75	H	1.012874	-0.167516	-0.366151
H76	H	1.141671	-0.101483	-0.374134
H77	H	1.161824	-0.196890	-0.267062
H78	H	0.963861	-0.050692	-0.218795
H79	H	0.984144	-0.146147	-0.111871
O80	O	1.314551	0.220752	0.615627
C81	C	1.096111	0.265718	0.654271
C82	C	1.190225	0.207299	0.582045
H83	H	0.995574	0.254872	0.627124
H84	H	1.110684	0.256584	0.770559
H85	H	1.112414	0.328992	0.618522
H86	H	1.173979	0.144001	0.617681
H87	H	1.175629	0.216502	0.465768
O88	O	1.490106	-0.116784	0.259408
C89	C	1.383845	-0.015495	0.391989
C90	C	1.382741	-0.060778	0.260285
H91	H	1.297064	0.029807	0.392728
H92	H	1.382610	-0.058992	0.486257
H93	H	1.472743	0.016261	0.394441
H94	H	1.293858	-0.092536	0.257699
H95	H	1.384043	-0.017243	0.166078
O96	O	1.486235	-0.279183	-0.212513
C97	C	1.592591	-0.380419	-0.345135
C98	C	1.593712	-0.335096	-0.213477
H99	H	1.679491	-0.425623	-0.345972
H100	H	1.503790	-0.412270	-0.347618
H101	H	1.593699	-0.336869	-0.439341
H102	H	1.592650	-0.378593	-0.119199
H103	H	1.682506	-0.303232	-0.211115
O104	O	1.643249	-0.070761	0.389718
C105	C	1.717799	-0.185856	0.269945
C106	C	1.745438	-0.103944	0.313049
H107	H	1.800388	-0.212701	0.207925
H108	H	1.704187	-0.226340	0.365794
H109	H	1.628301	-0.179141	0.204121
H110	H	1.834945	-0.110583	0.378841
H111	H	1.758971	-0.063490	0.217142
H112	H	1.490191	-0.123314	-0.211490
H113	H	0.921451	-0.072082	0.104149
H114	H	1.480326	-0.495233	0.166298
O115	O	1.476012	-0.650886	-0.287079
C116	C	1.366498	-0.667760	-0.498000
C117	C	1.367793	-0.622529	-0.366252
H118	H	1.278999	-0.644862	-0.562034
H119	H	1.454697	-0.658310	-0.560694
H120	H	1.364802	-0.733642	-0.468750
H121	H	1.369445	-0.556633	-0.395379
H122	H	1.279600	-0.632045	-0.303593
H123	H	1.476354	-0.644518	0.183966
H124	H	1.482894	-0.397881	0.148526
O125	O	1.082406	0.259812	-0.030701
C126	C	1.038628	0.401976	-0.047616
C127	C	0.983262	0.321788	-0.038165
H128	H	0.958497	0.452105	-0.053683
H129	H	1.099143	0.406641	0.047519
H130	H	1.099248	0.406542	-0.143790
H131	H	0.922585	0.317168	0.057950
H132	H	0.922819	0.317158	-0.133368
O133	O	1.776015	0.024492	0.372094
C134	C	1.979865	0.067632	0.414737
C135	C	1.857044	0.041692	0.478043
H136	H	2.045400	0.081562	0.500365
H137	H	2.028337	0.017863	0.354727
H138	H	1.956739	0.122735	0.342227
H139	H	1.880061	-0.013394	0.550613
H140	H	1.808607	0.091508	0.537969
H141	H	1.763790	0.015099	0.609164
H142	H	1.328148	0.212489	0.344332
O143	O	0.824271	0.255394	-0.030427
C144	C	0.658926	0.336281	-0.158462
C145	C	0.747626	0.258533	-0.149211
H146	H	0.596954	0.338852	-0.254507
H147	H	0.596755	0.338859	-0.063174
H148	H	0.717476	0.388722	-0.164595
H149	H	0.689175	0.206049	-0.143121
H150	H	0.809801	0.256025	-0.244499
