data_functionalizedCrystal
_audit_creation_method	'MofGen! by Chris Wilmer'
_symmetry_space_group_name_H-M	'P1'
_symmetry_Int_Tables_number	1
_symmetry_cell_setting	triclinic
loop_
_symmetry_equiv_pos_as_xyz
  x,y,z
_cell_length_a	17.639054
_cell_length_b	29.839131
_cell_length_c	17.640968
_cell_angle_alpha	78.759880
_cell_angle_beta	70.330395
_cell_angle_gamma	101.220821
loop_
_atom_site_label
_atom_site_type_symbol
_atom_site_fract_x
_atom_site_fract_y
_atom_site_fract_z
Zn1	Zn	1.354520	0.059492	-0.721395
Zn2	Zn	1.854520	0.559492	-0.221395
Zn3	Zn	1.326502	-0.034701	-0.583501
Zn4	Zn	1.826502	0.465299	-0.083501
Zn5	Zn	1.188777	0.021407	-0.555632
Zn6	Zn	1.688777	0.521407	-0.055632
Zn7	Zn	1.216583	-0.034662	-0.693374
Zn8	Zn	1.716583	0.465338	-0.193374
O9	O	1.271595	0.002884	-0.638475
O10	O	1.771595	0.502884	-0.138475
O11	O	1.466169	0.062919	-0.726493
O12	O	1.966169	0.562919	-0.226493
O13	O	1.284870	-0.043213	-0.464449
O14	O	1.784870	0.456787	0.035551
O15	O	1.210853	0.089343	-0.577684
O16	O	1.710853	0.589343	-0.077684
O17	O	1.445584	-0.006283	-0.625183
O18	O	1.945584	0.493717	-0.125183
O19	O	1.332623	0.117324	-0.699469
O20	O	1.832623	0.617324	-0.199469
O21	O	1.183684	-0.001991	-0.443974
O22	O	1.683684	0.498009	0.056026
O23	O	1.077100	-0.001954	-0.550513
O24	O	1.577100	0.498046	-0.050513
O25	O	1.258243	-0.006217	-0.812446
O26	O	1.758243	0.493783	-0.312446
O27	O	1.097529	-0.043147	-0.651712
O28	O	1.597529	0.456853	-0.151712
O29	O	1.359585	0.062957	-0.833033
O30	O	1.859585	0.562957	-0.333033
O31	O	1.311831	-0.097580	-0.598013
O32	O	1.811831	0.402420	-0.098013
O33	O	1.231074	-0.097552	-0.678736
O34	O	1.731074	0.402448	-0.178736
C35	C	1.057402	-0.026679	-0.595048
C36	C	1.557402	0.473321	-0.095048
C37	C	0.965773	-0.039334	-0.576489
C38	C	1.465773	0.460666	-0.076489
C39	C	0.825892	-0.093165	-0.497509
C40	C	1.325892	0.406835	0.002491
C41	C	0.911992	-0.081269	-0.514954
C42	C	1.411992	0.418731	-0.014954
C43	C	0.933468	-0.009279	-0.620608
C44	C	1.433468	0.490721	-0.120608
C45	C	0.847368	-0.021170	-0.603175
C46	C	1.347368	0.478830	-0.103175
C47	C	0.793586	-0.063113	-0.541624
C48	C	1.293586	0.436887	-0.041624
C49	C	0.815062	0.008881	-0.647290
C50	C	1.315062	0.508881	-0.147290
C51	C	0.728969	-0.003008	-0.629855
C52	C	1.228969	0.496992	-0.129855
C53	C	0.675182	-0.044948	-0.568305
C54	C	1.175182	0.455052	-0.068305
C55	C	0.707493	-0.075002	-0.524189
C56	C	1.207493	0.424998	-0.024189
C57	C	0.868844	0.050826	-0.708837
C58	C	1.368844	0.550826	-0.208837
C59	C	0.836538	0.080877	-0.752952
C60	C	1.336538	0.580877	-0.252952
C61	C	0.750445	0.068987	-0.735521
C62	C	1.250445	0.568987	-0.235521
C63	C	0.696657	0.027046	-0.673971
C64	C	1.196657	0.527046	-0.173971
C65	C	0.718133	0.099041	-0.779637
C66	C	1.218133	0.599041	-0.279637
C67	C	0.632040	0.087152	-0.762202
C68	C	1.132040	0.587152	-0.262202
C69	C	0.610564	0.015157	-0.656536
C70	C	1.110564	0.515157	-0.156536
C71	C	1.271456	-0.113866	-0.638380
C72	C	1.771456	0.386134	-0.138380
C73	C	1.271477	-0.163797	-0.638383
C74	C	1.771477	0.336203	-0.138383
C75	C	1.335005	-0.458803	-0.701962
C76	C	1.835005	0.041197	-0.201962
C77	C	1.335104	-0.646457	-0.702030
C78	C	1.835104	-0.146457	-0.202030
O79	O	1.388985	-0.658301	-0.756010
O80	O	1.888985	-0.158301	-0.256010
N81	N	1.271754	-0.684526	-0.638595
N82	N	1.771754	-0.184526	-0.138595
C83	C	1.208371	-0.675680	-0.575142
C84	C	1.708371	-0.175680	-0.075142
O85	O	1.154485	-0.712366	-0.521194
O86	O	1.654485	-0.212366	-0.021194
C87	C	1.208269	-0.488027	-0.575079
C88	C	1.708269	0.011973	-0.075079
C89	C	1.271628	-0.449959	-0.638513
C90	C	1.771628	0.050041	-0.138513
C91	C	1.398359	-0.420737	-0.765391
C92	C	1.898359	0.079263	-0.265391
C93	C	1.398336	-0.373826	-0.765371
C94	C	1.898336	0.126174	-0.265371
C95	C	1.334959	-0.364982	-0.701922
C96	C	1.834959	0.135018	-0.201922
C97	C	1.271605	-0.403049	-0.638493
C98	C	1.771605	0.096951	-0.138493
C99	C	1.144883	-0.479182	-0.511630
C100	C	1.644883	0.020818	-0.011630
C101	C	1.144862	-0.432264	-0.511621
C102	C	1.644862	0.067736	-0.011621
C103	C	1.208222	-0.394196	-0.575055
C104	C	1.708222	0.105804	-0.075055
C105	C	1.208206	-0.347294	-0.575023
C106	C	1.708206	0.152706	-0.075023
N107	N	1.271556	-0.309225	-0.638458
N108	N	1.771556	0.190775	-0.138458
C109	C	1.334933	-0.318069	-0.701907
C110	C	1.834933	0.181931	-0.201907
C111	C	1.208430	-0.774200	-0.575179
C112	C	1.708430	-0.274200	-0.075179
C113	C	1.208456	-0.821113	-0.575194
C114	C	1.708456	-0.321113	-0.075194
C115	C	1.335189	-0.791886	-0.702083
C116	C	1.835189	-0.291886	-0.202083
C117	C	1.335165	-0.744973	-0.702064
C118	C	1.835165	-0.244973	-0.202064
C119	C	1.271780	-0.736130	-0.638614
C120	C	1.771780	-0.236130	-0.138614
C121	C	1.334880	-0.219555	-0.701860
C122	C	1.834880	0.280445	-0.201860
C123	C	1.334853	-0.172641	-0.701832
C124	C	1.834853	0.327359	-0.201832
C125	C	1.208119	-0.201872	-0.574947
C126	C	1.708119	0.298128	-0.074947
C127	C	1.208147	-0.248781	-0.574971
C128	C	1.708147	0.251219	-0.074971
C129	C	1.271532	-0.257620	-0.638435
C130	C	1.771532	0.242380	-0.138435
O131	O	1.154348	-0.335415	-0.521076
O132	O	1.654348	0.164585	-0.021076
O133	O	1.388800	-0.281377	-0.755858
O134	O	1.888800	0.218623	-0.255858
C135	C	1.335028	-0.505714	-0.701982
C136	C	1.835028	-0.005714	-0.201982
C137	C	1.271674	-0.543780	-0.638553
C138	C	1.771674	-0.043780	-0.138553
C139	C	1.208298	-0.534936	-0.575104
C140	C	1.708298	-0.034936	-0.075104
C141	C	1.271700	-0.590693	-0.638568
C142	C	1.771700	-0.090693	-0.138568
C143	C	1.335077	-0.599537	-0.702017
C144	C	1.835077	-0.099537	-0.202017
C145	C	1.398428	-0.561468	-0.765451
C146	C	1.898428	-0.061468	-0.265451
C147	C	1.398405	-0.514558	-0.765431
C148	C	1.898405	-0.014558	-0.265431
C149	C	1.144947	-0.573005	-0.511669
C150	C	1.644947	-0.073005	-0.011669
C151	C	1.144976	-0.619915	-0.511694
C152	C	1.644976	-0.119915	-0.011694
C153	C	1.208352	-0.628759	-0.575143
C154	C	1.708352	-0.128759	-0.075143
C155	C	1.486625	0.032562	-0.682073
C156	C	1.986625	0.532562	-0.182073
C157	C	1.578258	0.045209	-0.700651
C158	C	2.078258	0.545209	-0.200651
C159	C	1.315141	0.032622	-0.853486
C160	C	1.815141	0.532622	-0.353486
C161	C	1.333697	0.045295	-0.945110
C162	C	1.833697	0.545295	-0.445110
C163	C	1.271762	0.120095	-0.638593
C164	C	1.771762	0.620095	-0.138593
C165	C	1.271833	0.170043	-0.638644
C166	C	1.771833	0.670043	-0.138644
C167	C	1.130941	-0.093102	-1.192866
C168	C	1.630941	0.406898	-0.692866
C169	C	1.148395	-0.081186	-1.278965
C170	C	1.648395	0.418814	-0.778965
C171	C	1.253914	-0.009161	-1.300390
C172	C	1.753914	0.490839	-0.800390
C173	C	1.236466	-0.021070	-1.214290
C174	C	1.736466	0.478930	-0.714290
C175	C	1.174979	-0.063041	-1.160535
C176	C	1.674979	0.436959	-0.660535
C177	C	1.280504	0.008991	-1.181959
C178	C	1.780504	0.508991	-0.681959
C179	C	1.263060	-0.002918	-1.095868
C180	C	1.763060	0.497082	-0.595868
C181	C	1.201578	-0.044888	-1.042108
C182	C	1.701578	0.455112	-0.542108
C183	C	1.157535	-0.074950	-1.074444
C184	C	1.657535	0.425050	-0.574444
C185	C	1.341994	0.050961	-1.235717
C186	C	1.841994	0.550961	-0.735717
C187	C	1.386032	0.081021	-1.203386
C188	C	1.886032	0.581021	-0.703386
C189	C	1.368585	0.069114	-1.117292
C190	C	1.868585	0.569114	-0.617292
C191	C	1.307103	0.027144	-1.063532
C192	C	1.807103	0.527144	-0.563532
C193	C	1.412627	0.099176	-1.084957
C194	C	1.912627	0.599176	-0.584957
C195	C	1.395183	0.087267	-0.998865
C196	C	1.895183	0.587267	-0.498865
C197	C	1.289659	0.015234	-0.977441
C198	C	1.789659	0.515234	-0.477441
C199	C	1.228267	-0.026700	-0.424311
C200	C	1.728267	0.473300	0.075689
C201	C	1.209870	-0.039224	-0.332720
C202	C	1.709870	0.460776	0.167280
H203	H	0.782101	-0.127322	-0.447395
H204	H	1.282101	0.372678	0.052605
H205	H	0.605736	0.111624	-0.798122
H206	H	1.105736	0.611624	-0.298122
Br207	Br	0.955835	-0.122063	-0.455087
Br208	Br	1.455835	0.377937	0.044913
Br209	Br	1.006463	0.047642	-0.704137
Br210	Br	1.506463	0.547642	-0.204137
Br211	Br	1.122476	-0.872771	-0.489091
Br212	Br	1.622476	-0.372771	0.010909
H213	H	1.080853	-0.127271	-1.149091
H214	H	1.580853	0.372729	-0.649091
H215	H	1.450034	-0.568676	-0.817112
H216	H	1.950034	-0.068676	-0.317112
H217	H	1.356196	0.060655	-1.305818
H218	H	1.856196	0.560655	-0.805818
Br219	Br	1.420850	-0.120979	-0.787924
Br220	Br	1.920850	0.379021	-0.287924
Br221	Br	0.909534	0.137798	-0.836481
Br222	Br	1.409534	0.637798	-0.336481
Br223	Br	1.421156	-0.693314	-0.788155
Br224	Br	1.921156	-0.193314	-0.288155
H225	H	1.449926	-0.342833	-0.817026
H226	H	1.949926	0.157167	-0.317026
H227	H	1.156520	-0.194664	-0.523285
H228	H	1.656520	0.305336	-0.023285
H229	H	1.156813	-0.767006	-0.523509
H230	H	1.656813	-0.267006	-0.023509
Br231	Br	1.421201	-0.803898	-0.788191
Br232	Br	1.921201	-0.303898	-0.288191
Br233	Br	1.058833	-0.420268	-0.425507
Br234	Br	1.558833	0.079732	0.074493
H235	H	1.449998	-0.483565	-0.817085
H236	H	1.949998	0.016435	-0.317085
Br237	Br	1.206202	-0.041724	-0.904478
Br238	Br	1.706202	0.458276	-0.404478
Br239	Br	1.058888	-0.530834	-0.425537
Br240	Br	1.558888	-0.030834	0.074463
Br241	Br	1.088621	-0.121987	-1.322840
Br242	Br	1.588621	0.378013	-0.822840
Br243	Br	1.058983	-0.671574	-0.425593
Br244	Br	1.558983	-0.171574	0.074407
H245	H	0.761934	0.133193	-0.829746
H246	H	1.261934	0.633193	-0.329746
H247	H	1.303978	0.025012	-1.344169
H248	H	1.803978	0.525012	-0.844169
H249	H	1.156560	-0.279778	-0.523313
H250	H	1.656560	0.220222	-0.023313
Br251	Br	1.469479	0.137979	-1.276347
Br252	Br	1.969479	0.637979	-0.776347
H253	H	1.093337	-0.565810	-0.460002
H254	H	1.593337	-0.065810	0.039998
H255	H	0.938945	0.060505	-0.723027
H256	H	1.438945	0.560505	-0.223027
H257	H	1.462695	0.133346	-1.128738
H258	H	1.962695	0.633346	-0.628738
Br259	Br	1.420904	-0.231543	-0.787988
Br260	Br	1.920904	0.268457	-0.287988
Br261	Br	1.454955	0.128061	-0.954983
Br262	Br	1.954955	0.628061	-0.454983
H263	H	1.449968	-0.427930	-0.817064
H264	H	1.949968	0.072070	-0.317064
Br265	Br	1.074079	-0.131908	-1.001480
Br266	Br	1.574079	0.368092	-0.501480
H267	H	1.187380	-0.054585	-0.972008
H268	H	1.687380	0.445415	-0.472008
H269	H	0.605077	-0.054622	-0.554098
H270	H	1.105077	0.445378	-0.054098
Br271	Br	0.537572	-0.041777	-0.573027
Br272	Br	1.037572	0.458223	-0.073027
H273	H	0.663702	-0.109159	-0.474075
H274	H	1.163702	0.390841	0.025925
