data_functionalizedCrystal
_audit_creation_method	'MofGen! by Chris Wilmer'
_symmetry_space_group_name_H-M	'P1'
_symmetry_Int_Tables_number	1
_symmetry_cell_setting	triclinic
loop_
_symmetry_equiv_pos_as_xyz
  x,y,z
_cell_length_a	10.723024
_cell_length_b	10.654550
_cell_length_c	9.798715
_cell_angle_alpha	90.002229
_cell_angle_beta	90.003403
_cell_angle_gamma	84.476386
loop_
_atom_site_label
_atom_site_type_symbol
_atom_site_fract_x
_atom_site_fract_y
_atom_site_fract_z
O1	O	1.657213	0.176147	0.113478
O2	O	1.294064	0.193008	0.113483
O3	O	1.483988	0.001837	0.113475
O4	O	1.467289	0.367318	0.113486
O5	O	1.483974	0.001836	-0.113507
O6	O	1.294049	0.193007	-0.113499
O7	O	1.657199	0.176146	-0.113504
Zn8	Zn	1.475622	0.184576	-0.149540
Zn9	Zn	1.475641	0.184578	0.149519
O10	O	1.467275	0.367317	-0.113496
C11	C	1.247557	0.191780	-0.000008
C12	C	1.109002	0.188109	-0.000006
C13	C	1.034035	0.295078	-0.000002
C14	C	0.890831	0.291287	-0.000001
C15	C	1.482755	-0.044961	-0.000014
C16	C	1.479086	-0.184404	-0.000009
C17	C	1.590911	-0.263907	-0.000015
C18	C	1.587456	-0.394927	-0.000005
C19	C	1.360343	-0.366929	0.000010
C20	C	1.363799	-0.235912	0.000010
C21	C	1.706198	-0.212399	-0.000034
C22	C	1.818032	-0.291903	-0.000041
C23	C	1.814578	-0.422923	-0.000031
C24	C	1.699289	-0.474440	-0.000015
C25	C	1.703706	0.177373	-0.000010
C26	C	1.842261	0.181045	-0.000003
C27	C	1.468508	0.414115	-0.000004
C28	C	1.472176	0.553558	0.000000
N29	N	1.475618	0.184574	-0.353640
C30	C	1.548394	0.257399	-0.421416
C31	C	1.548414	0.257398	-0.578579
N32	N	1.475654	0.184570	0.353619
H33	H	0.906672	0.089466	0.000002
H34	H	0.826412	0.382860	0.000008
O35	O	1.255093	-0.158801	0.000195
C36	C	1.062093	-0.094712	0.117849
C37	C	1.185141	-0.182135	0.117783
H38	H	1.005514	-0.113529	0.212923
H39	H	1.005314	-0.113577	0.022926
H40	H	1.084404	0.007764	0.117786
H41	H	1.162944	-0.284642	0.117894
H42	H	1.241885	-0.163162	0.212697
H43	H	1.266481	-0.408885	0.000021
O44	O	1.401127	0.110325	-0.576932
C45	C	1.190521	0.059937	-0.533072
C46	C	1.274776	0.144123	-0.611793
H47	H	1.088351	0.087214	-0.561249
H48	H	1.203634	0.073199	-0.418691
H49	H	1.217223	-0.043001	-0.561069
H50	H	1.248127	0.247092	-0.583911
H51	H	1.261652	0.130753	-0.726155
H52	H	1.610691	0.319743	-0.363090
O53	O	1.622927	0.331712	-0.647951
C54	C	1.833543	0.381995	-0.691954
C55	C	1.749297	0.297766	-0.613278
H56	H	1.935732	0.354563	-0.663971
H57	H	1.807012	0.484953	-0.663913
H58	H	1.820250	0.368766	-0.806310
H59	H	1.762547	0.310885	-0.498904
H60	H	1.775849	0.194840	-0.641432
H61	H	1.067166	0.093722	0.000026
H62	H	1.075871	0.389466	-0.000007
H63	H	1.709024	-0.105717	-0.000046
H64	H	1.911895	-0.249949	-0.000020
O65	O	1.923290	-0.500024	0.000151
C66	C	2.116327	-0.564078	0.117770
C67	C	1.993267	-0.476673	0.117725
H68	H	2.172927	-0.545248	0.212832
H69	H	2.173078	-0.545210	0.022836
H70	H	2.094032	-0.666560	0.117712
H71	H	2.015449	-0.374161	0.117831
H72	H	1.936552	-0.495650	0.212650
H73	H	1.413330	0.122221	-0.411966
H74	H	1.696486	-0.581126	0.000008
