data_functionalizedCrystal
_audit_creation_method	'MofGen! by Chris Wilmer'
_symmetry_space_group_name_H-M	'P1'
_symmetry_Int_Tables_number	1
_symmetry_cell_setting	triclinic
loop_
_symmetry_equiv_pos_as_xyz
  x,y,z
_cell_length_a	15.297475
_cell_length_b	12.759400
_cell_length_c	12.759393
_cell_angle_alpha	89.974659
_cell_angle_beta	80.312341
_cell_angle_gamma	80.307415
loop_
_atom_site_label
_atom_site_type_symbol
_atom_site_fract_x
_atom_site_fract_y
_atom_site_fract_z
Zn1	Zn	1.379459	-0.696614	-0.871692
Zn2	Zn	1.379399	-0.872320	-0.696019
Zn3	Zn	1.228577	-0.666216	-0.665661
Zn4	Zn	1.228598	-0.841803	-0.841306
O5	O	1.304008	-0.769238	-0.768669
O6	O	1.505707	-0.745414	-0.873810
O7	O	1.359358	-0.845030	-0.544964
O8	O	1.248608	-0.523231	-0.693003
O9	O	1.505663	-0.874505	-0.744744
O10	O	1.359461	-0.545564	-0.844373
O11	O	1.248550	-0.693606	-0.522660
O12	O	1.102324	-0.664015	-0.663539
O13	O	1.248644	-0.822494	-0.992365
O14	O	1.102340	-0.793019	-0.792585
O15	O	1.359481	-0.715823	-1.014689
O16	O	1.359379	-1.015290	-0.715280
O17	O	1.248586	-0.992869	-0.822022
C18	C	1.069595	-0.721908	-0.721471
C19	C	0.969312	-0.701685	-0.701305
C20	C	1.304002	-1.042205	-0.768676
C21	C	1.304082	-1.158997	-0.768731
C22	C	1.304072	-0.769145	-1.042716
C23	C	1.304098	-0.769105	-1.159498
C24	C	0.686763	-0.913782	-0.912806
C25	C	0.780984	-0.932790	-0.931751
C26	C	0.828071	-0.875015	-0.874141
C27	C	0.780927	-0.798229	-0.797583
C28	C	0.686697	-0.779225	-0.778631
C29	C	0.828005	-0.740458	-0.739966
C30	C	0.780861	-0.663672	-0.663408
C31	C	0.686640	-0.644671	-0.644459
C32	C	0.639554	-0.702446	-0.702069
C33	C	0.922235	-0.759463	-0.758918
C34	C	0.922169	-0.624906	-0.624743
C35	C	0.827948	-0.605898	-0.605798
C36	C	1.539337	-0.816754	-0.816053
C37	C	1.639620	-0.837003	-0.836244
C38	C	1.304039	-0.495211	-0.768691
C39	C	1.304052	-0.378437	-0.768700
C40	C	1.246348	-0.311948	-0.689895
C41	C	1.246361	-0.202227	-0.689912
C42	C	1.361789	-0.225494	-0.847543
C43	C	1.361771	-0.335213	-0.847529
C44	C	1.188629	-0.355173	-0.611066
C45	C	1.130921	-0.288683	-0.532254
C46	C	1.130934	-0.178961	-0.532271
C47	C	1.188654	-0.135730	-0.611100
C48	C	1.361819	-0.713557	-1.225987
C49	C	1.361841	-0.713524	-1.335716
C50	C	1.246418	-0.824595	-1.312455
C51	C	1.246393	-0.824621	-1.202728
C52	C	1.419525	-0.658041	-1.182757
C53	C	1.477251	-0.602490	-1.249248
C54	C	1.477273	-0.602456	-1.358976
C55	C	1.419568	-0.657974	-1.402214
C56	C	1.303997	-0.769266	-0.495700
C57	C	1.304145	-0.769045	-0.378953
H58	H	0.960610	-0.821982	-0.821253
C59	C	1.182953	-0.885670	-1.360015
C60	C	1.182983	-0.885647	-1.480712
C61	C	1.119520	-0.946727	-1.528271
C62	C	1.056026	-1.007831	-1.455134
C63	C	1.055993	-1.007857	-1.334431
C64	C	1.119457	-0.946776	-1.286871
H65	H	1.229987	-0.840412	-1.534858
H66	H	1.119544	-0.946708	-1.617624
H67	H	1.009046	-1.053046	-1.490340
H68	H	1.008989	-1.053091	-1.280284
H69	H	1.119432	-0.946796	-1.197518
H70	H	0.648259	-0.582158	-0.582110
C71	C	1.425286	-0.177944	-0.934242
C72	C	1.488762	-0.251080	-1.020927
C73	C	1.552264	-0.203532	-1.107624
C74	C	1.552289	-0.082847	-1.107636
C75	C	1.488811	-0.009703	-1.020947
C76	C	1.425309	-0.057251	-0.934250
H77	H	1.488745	-0.340425	-1.020921
H78	H	1.599255	-0.257678	-1.171796
H79	H	1.599297	-0.047649	-1.171814
H80	H	1.488828	0.079641	-1.020953
H81	H	1.378318	-0.003105	-0.870078
H82	H	0.904790	-0.890496	-0.889571
H83	H	1.199377	-0.869835	-1.148587
C84	C	0.776087	-0.521437	-0.521583
C85	C	0.788990	-0.532462	-0.404727
C86	C	0.737129	-0.447999	-0.320514
C87	C	0.672366	-0.352512	-0.353157
C88	C	0.659460	-0.341483	-0.470019
C89	C	0.711321	-0.425945	-0.554232
H90	H	0.836934	-0.603151	-0.380557
H91	H	0.746683	-0.456164	-0.234005
H92	H	0.633976	-0.289988	-0.290818
H93	H	0.611516	-0.270793	-0.494189
H94	H	0.701767	-0.417780	-0.640741
H95	H	1.524270	-0.557214	-1.413109
H96	H	1.083922	-0.323889	-0.468081
H97	H	0.562831	-0.686972	-0.686650
H98	H	0.648417	-0.960820	-0.959697
C99	C	1.425242	-0.408362	-0.934213
C100	C	1.496049	-0.498120	-0.902943
C101	C	1.559516	-0.571271	-0.989632
C102	C	1.552177	-0.554663	-1.107592
C103	C	1.481367	-0.464901	-1.138868
C104	C	1.417900	-0.391750	-1.052178
H105	H	1.501484	-0.510418	-0.815617
H106	H	1.611934	-0.637719	-0.966479
H107	H	1.599159	-0.608814	-1.171765
H108	H	1.475932	-0.452604	-1.226193
H109	H	1.365482	-0.325302	-1.075331
H110	H	1.083940	-0.124825	-0.468106
H111	H	1.188658	-0.046386	-0.611110
H112	H	0.819362	-0.995312	-0.994082
C113	C	0.973952	-0.561347	-0.561363
C114	C	0.960992	-0.439307	-0.567516
C115	C	1.012780	-0.375756	-0.504137
C116	C	1.077529	-0.434246	-0.434604
C117	C	1.090491	-0.556293	-0.428448
C118	C	1.038703	-0.619843	-0.491827
H119	H	0.913059	-0.396003	-0.618990
H120	H	1.003184	-0.285409	-0.508694
H121	H	1.115866	-0.387203	-0.387687
H122	H	1.138425	-0.599597	-0.376973
H123	H	1.048299	-0.710191	-0.487270
H124	H	1.188614	-0.444512	-0.611042
H125	H	1.419516	-0.658065	-1.093413
H126	H	1.524227	-0.557281	-1.214035
H127	H	1.419580	-0.657928	-1.491561
