data_functionalizedCrystal
_audit_creation_method	'MofGen! by Chris Wilmer'
_symmetry_space_group_name_H-M	'P1'
_symmetry_Int_Tables_number	1
_symmetry_cell_setting	triclinic
loop_
_symmetry_equiv_pos_as_xyz
  x,y,z
_cell_length_a	13.897448
_cell_length_b	12.759401
_cell_length_c	12.759393
_cell_angle_alpha	90.021157
_cell_angle_beta	89.967728
_cell_angle_gamma	89.986705
loop_
_atom_site_label
_atom_site_type_symbol
_atom_site_fract_x
_atom_site_fract_y
_atom_site_fract_z
Zn1	Zn	-0.384081	-1.606244	-0.594013
Zn2	Zn	-0.545408	-1.606126	-0.418328
Zn3	Zn	-0.384116	-1.430543	-0.418348
Zn4	Zn	-0.545324	-1.430526	-0.593964
O5	O	-0.464732	-1.518360	-0.506163
O6	O	-0.405502	-1.753250	-0.570720
O7	O	-0.524062	-1.582793	-0.271309
O8	O	-0.249130	-1.453907	-0.441679
O9	O	-0.524028	-1.753163	-0.441645
O10	O	-0.249104	-1.582994	-0.570740
O11	O	-0.405561	-1.453793	-0.271324
O12	O	-0.405480	-1.283520	-0.441632
O13	O	-0.523885	-1.453878	-0.740992
O14	O	-0.523919	-1.283507	-0.570656
O15	O	-0.405421	-1.582977	-0.741028
O16	O	-0.680378	-1.582776	-0.441598
O17	O	-0.680317	-1.453763	-0.570637
C18	C	-0.464695	-1.245393	-0.506141
C19	C	-0.464702	-1.128616	-0.506157
C20	C	-0.403110	-0.964063	-0.573474
C21	C	-0.403097	-1.073787	-0.573469
C22	C	-0.526330	-1.073716	-0.438852
C23	C	-0.526347	-0.963993	-0.438863
C24	C	-0.368746	-1.223797	-0.697426
C25	C	-0.307109	-1.278694	-0.764719
C26	C	-0.213013	-1.243097	-0.781033
C27	C	-0.180534	-1.152605	-0.730039
C28	C	-0.242166	-1.097714	-0.662739
C29	C	-0.336275	-1.133310	-0.646445
C30	C	-0.560688	-0.813981	-0.314904
C31	C	-0.622315	-0.759088	-0.247598
C32	C	-0.716413	-0.794683	-0.231273
C33	C	-0.748889	-0.885178	-0.282248
C34	C	-0.687261	-0.940071	-0.349554
C35	C	-0.593164	-0.904469	-0.365881
C36	C	-0.715347	-1.518283	-0.506133
C37	C	-0.822560	-1.518347	-0.506155
C38	C	-1.018856	-1.518457	-0.506221
C39	C	-0.909623	-1.518393	-0.506187
C40	C	-0.213139	-1.518466	-0.506217
C41	C	-0.105925	-1.518511	-0.506240
C42	C	-0.464640	-1.518439	-0.780197
C43	C	-0.464600	-1.518472	-0.896974
C44	C	-0.464757	-0.792393	-0.506180
C45	C	-0.464731	-0.909170	-0.506172
C46	C	-0.402906	-1.585699	-0.951856
C47	C	-0.402865	-1.585717	-1.061580
C48	C	-0.526219	-1.451278	-1.061530
C49	C	-0.526255	-1.451255	-0.951808
C50	C	-0.289062	-1.623336	-1.211562
C51	C	-0.227377	-1.690579	-1.266448
C52	C	-0.212595	-1.793093	-1.230858
C53	C	-0.259513	-1.828384	-1.140383
C54	C	-0.321206	-1.761146	-1.085502
C55	C	-0.335969	-1.658618	-1.121091
C56	C	-0.640059	-1.413648	-0.801824
C57	C	-0.701757	-1.346414	-0.746941
C58	C	-0.716549	-1.243899	-0.782530
C59	C	-0.669648	-1.208612	-0.873008
C60	C	-0.607949	-1.275845	-0.927890
C61	C	-0.593156	-1.378359	-0.892294
C62	C	-0.464755	-1.518342	-0.233196
C63	C	-0.464523	-1.518512	-0.116420
H64	H	-0.596002	-0.685143	-0.206453
C65	C	-0.243253	-1.941160	-1.101243
N66	N	-0.231001	-2.026104	-1.071758
H67	H	-0.739956	-1.375158	-0.673276
H68	H	-0.189176	-1.661836	-1.340113
C69	C	-0.472257	-1.262963	-0.679485
N70	N	-0.550221	-1.292472	-0.665966
H71	H	-0.352700	-1.640429	-0.907213
H72	H	-0.359409	-1.789881	-1.011843
C73	C	-0.305306	-1.510560	-1.250712
N74	N	-0.317542	-1.425616	-1.280206
H75	H	-0.484066	-0.784989	-0.328194
C76	C	-0.784425	-1.169944	-0.722155
N77	N	-0.835545	-1.114241	-0.676683
C78	C	-0.623793	-1.526423	-0.762669
N79	N	-0.611549	-1.611366	-0.733179
C80	C	-0.594092	-1.134032	-0.364804
N81	N	-0.645127	-1.179461	-0.309024
C82	C	-0.145214	-1.303490	-0.855054
N83	N	-0.094152	-1.348981	-0.910809
H84	H	-0.162368	-1.847843	-1.275554
H85	H	-0.215772	-1.023942	-0.621354
H86	H	-0.576419	-1.396554	-1.106189
H87	H	-0.569760	-1.247106	-1.001563
H88	H	-0.352938	-0.919429	-0.628281
C89	C	-0.077017	-1.113459	-0.747984
N90	N	0.000953	-1.083970	-0.761504
H91	H	-0.333563	-1.352372	-0.806238
C92	C	-0.722991	-1.039614	-0.405635
N93	N	-0.749902	-1.114588	-0.447876
H94	H	-0.825510	-0.914163	-0.268952
H95	H	-0.766587	-0.749983	-0.176459
H96	H	-0.681695	-1.125136	-0.901988
