data_functionalizedCrystal
_audit_creation_method	'MofGen! by Chris Wilmer'
_symmetry_space_group_name_H-M	'P1'
_symmetry_Int_Tables_number	1
_symmetry_cell_setting	triclinic
loop_
_symmetry_equiv_pos_as_xyz
  x,y,z
_cell_length_a	19.188930
_cell_length_b	14.519709
_cell_length_c	12.996460
_cell_angle_alpha	90.007090
_cell_angle_beta	89.980533
_cell_angle_gamma	96.587538
loop_
_atom_site_label
_atom_site_type_symbol
_atom_site_fract_x
_atom_site_fract_y
_atom_site_fract_z
O1	O	0.926556	-0.115137	-0.085900
O2	O	1.426556	0.384863	0.414100
O3	O	0.723300	-0.130636	-0.085830
O4	O	1.223300	0.369364	0.414170
O5	O	0.830317	0.011385	-0.085857
O6	O	1.330317	0.511385	0.414143
O7	O	0.819539	-0.257159	-0.085872
O8	O	1.319539	0.242841	0.414128
O9	O	0.830306	0.011393	0.085276
O10	O	1.330306	0.511393	0.585276
O11	O	0.723288	-0.130629	0.085304
O12	O	1.223288	0.369371	0.585304
O13	O	0.926545	-0.115129	0.085234
O14	O	1.426545	0.384871	0.585234
Cu15	Cu	0.824915	-0.122878	0.100895
Cu16	Cu	1.324915	0.377122	0.600895
Cu17	Cu	0.824929	-0.122887	-0.101491
Cu18	Cu	1.324929	0.377113	0.398509
O19	O	0.819527	-0.257151	0.085262
O20	O	1.319527	0.242849	0.585262
C21	C	0.697281	-0.130131	-0.000254
C22	C	1.197281	0.369869	0.499746
C23	C	0.619771	-0.128624	-0.000227
C24	C	1.119771	0.371376	0.499773
N25	N	0.824911	-0.122871	0.243242
N26	N	1.324911	0.377129	0.743242
C27	C	0.829809	0.045746	-0.000290
C28	C	1.329809	0.545746	0.499710
C29	C	0.828304	0.148118	-0.000289
C30	C	1.328304	0.648118	0.499711
C31	C	0.575144	-0.211957	-0.000247
C32	C	1.075144	0.288043	0.499753
C33	C	0.502315	-0.210542	-0.000259
C34	C	1.002315	0.289458	0.499741
C35	C	0.474117	-0.125788	-0.000270
C36	C	0.974117	0.374212	0.499730
C37	C	0.518754	-0.042444	-0.000243
C38	C	1.018754	0.457556	0.499757
C39	C	0.591581	-0.043861	-0.000222
C40	C	1.091581	0.456139	0.499778
N41	N	0.365910	-0.061007	-0.058552
N42	N	0.865910	0.438993	0.441448
N43	N	0.296727	-0.059666	-0.058575
N44	N	0.796727	0.440334	0.441425
C45	C	0.254693	-0.121511	-0.000332
C46	C	0.754693	0.378489	0.499668
N47	N	0.284455	-0.184762	0.057920
N48	N	0.784455	0.315238	0.557920
N49	N	0.353645	-0.186106	0.057938
N50	N	0.853645	0.313894	0.557938
C51	C	0.395149	-0.124241	-0.000292
C52	C	0.895149	0.375759	0.499708
C53	C	0.131096	-0.203315	-0.000364
C54	C	0.631096	0.296685	0.499636
C55	C	0.058266	-0.201896	-0.000369
C56	C	0.558266	0.298104	0.499631
C57	C	0.074706	-0.033796	-0.000364
C58	C	0.574706	0.466204	0.499636
C59	C	0.147535	-0.035217	-0.000348
C60	C	0.647535	0.464783	0.499652
C61	C	0.175725	-0.119980	-0.000353
C62	C	0.675725	0.380020	0.499647
C63	C	0.952563	-0.115635	-0.000344
C64	C	1.452563	0.384365	0.499656
C65	C	1.030073	-0.117142	-0.000378
C66	C	1.530073	0.382858	0.499622
C67	C	0.820035	-0.291511	-0.000308
C68	C	1.320035	0.208489	0.499692
C69	C	0.821541	-0.393883	-0.000316
C70	C	1.321541	0.106117	0.499684
C71	C	0.822762	0.522979	-0.000314
C72	C	1.322762	1.022979	0.499686
C73	C	0.824301	0.418681	-0.000307
C74	C	1.324301	0.918681	0.499693
C75	C	0.825533	0.335552	-0.000300
C76	C	1.325533	0.835552	0.499700
C77	C	0.827072	0.231247	-0.000295
C78	C	1.327072	0.731247	0.499705
N79	N	0.824938	-0.122887	-0.243838
N80	N	1.324938	0.377113	0.256162
C81	C	0.824928	-0.122888	0.663056
C82	C	1.324928	0.377112	1.163056
C83	C	0.824921	-0.122887	0.546251
C84	C	1.324921	0.377113	1.046251
C85	C	0.824920	-0.122880	0.453153
C86	C	1.324920	0.377120	0.953153
C87	C	0.824913	-0.122877	0.336340
C88	C	1.324913	0.377123	0.836340
H89	H	0.598091	-0.280978	-0.000253
H90	H	1.098091	0.219022	0.499747
H91	H	0.627917	0.024001	-0.000205
H92	H	1.127917	0.524001	0.499795
H93	H	0.183871	0.032642	-0.000337
H94	H	0.683871	0.532642	0.499663
H95	H	0.465973	-0.278404	-0.000273
H96	H	0.965973	0.221596	0.499727
O97	O	0.491332	0.039863	-0.000440
O98	O	0.991332	0.539863	0.499560
C99	C	0.449718	0.045699	-0.089073
C100	C	0.949718	0.545699	0.410927
H101	H	0.467026	-0.002425	-0.151016
H102	H	0.967026	0.497575	0.348984
H103	H	0.392308	0.024193	-0.069056
H104	H	0.892308	0.524193	0.430944
C105	C	0.437176	0.205239	-0.053177
C106	C	0.937176	0.705239	0.446823
C107	C	0.458437	0.146138	-0.129260
C108	C	0.958437	0.646138	0.370740
H109	H	0.442551	0.267194	-0.077965
H110	H	0.942551	0.767194	0.422035
H111	H	0.465209	0.201307	0.006539
H112	H	0.965209	0.701307	0.506539
H113	H	0.389335	0.187306	-0.036503
H114	H	0.889335	0.687306	0.463497
H115	H	0.506279	0.164064	-0.145924
H116	H	1.006279	0.664064	0.354076
H117	H	0.430412	0.150075	-0.188981
H118	H	0.930412	0.650075	0.311019
H119	H	0.021931	-0.269760	-0.000380
H120	H	0.521931	0.230240	0.499620
O121	O	0.158369	-0.285730	-0.000312
O122	O	0.658369	0.214270	0.499688
C123	C	0.103359	-0.358982	-0.000348
C124	C	0.603359	0.141018	0.499652
H125	H	0.053844	-0.333329	0.032041
H126	H	0.553844	0.166671	0.532041
H127	H	0.093112	-0.384679	-0.082452
H128	H	0.593112	0.115321	0.417548
C129	C	0.184810	-0.470443	0.026989
C130	C	0.684810	0.029557	0.526989
C131	C	0.123997	-0.438939	0.066778
C132	C	0.623997	0.061061	0.566778
H133	H	0.197541	-0.519767	0.068390
H134	H	0.697541	-0.019767	0.568390
H135	H	0.221873	-0.421093	0.027009
H136	H	0.721873	0.078907	0.527009
H137	H	0.176264	-0.491851	-0.041430
H138	H	0.676264	0.008149	0.458570
H139	H	0.132547	-0.417520	0.135190
H140	H	0.632547	0.082480	0.635190
H141	H	0.086936	-0.488287	0.066770
H142	H	0.586936	0.011713	0.566770
H143	H	0.051748	0.035213	-0.000437
H144	H	0.551748	0.535213	0.499563
