data_functionalizedCrystal
_audit_creation_method	'MofGen! by Chris Wilmer'
_symmetry_space_group_name_H-M	'P1'
_symmetry_Int_Tables_number	1
_symmetry_cell_setting	triclinic
loop_
_symmetry_equiv_pos_as_xyz
  x,y,z
_cell_length_a	12.594517
_cell_length_b	12.594516
_cell_length_c	12.759387
_cell_angle_alpha	89.971162
_cell_angle_beta	90.016188
_cell_angle_gamma	89.973312
loop_
_atom_site_label
_atom_site_type_symbol
_atom_site_fract_x
_atom_site_fract_y
_atom_site_fract_z
Zn1	Zn	1.627208	0.423687	0.593898
Zn2	Zn	2.127208	0.923687	1.093898
Zn3	Zn	1.627060	0.601705	0.418225
Zn4	Zn	2.127060	1.101705	0.918225
Zn5	Zn	1.449206	0.423740	0.418248
Zn6	Zn	1.949206	0.923740	0.918248
Zn7	Zn	1.449161	0.601624	0.593877
Zn8	Zn	1.949161	1.101624	1.093877
O9	O	1.538158	0.512689	0.506062
O10	O	2.038158	1.012689	1.006062
O11	O	1.776134	0.447313	0.570594
O12	O	2.276134	0.947313	1.070594
O13	O	1.603424	0.578153	0.271207
O14	O	2.103424	1.078153	0.771207
O15	O	1.472899	0.274788	0.441567
O16	O	1.972899	0.774788	0.941567
O17	O	1.776025	0.578102	0.441527
O18	O	2.276025	1.078102	0.941527
O19	O	1.603676	0.274749	0.570617
O20	O	2.103676	0.774749	1.070617
O21	O	1.472755	0.447404	0.271224
O22	O	1.972755	0.947404	0.771224
O23	O	1.300254	0.447326	0.441547
O24	O	1.800254	0.947326	0.941547
O25	O	1.472822	0.577964	0.740901
O26	O	1.972822	1.077964	1.240901
O27	O	1.300221	0.578016	0.570581
O28	O	1.800221	1.078016	1.070581
O29	O	1.603633	0.447235	0.740917
O30	O	2.103633	0.947235	1.240917
O31	O	1.603380	0.750640	0.441507
O32	O	2.103380	1.250640	0.941507
O33	O	1.472678	0.750581	0.570558
O34	O	1.972678	1.250581	1.070558
C35	C	1.261617	0.512669	0.506065
C36	C	1.761617	1.012669	1.006065
C37	C	1.143312	0.512685	0.506091
C38	C	1.643312	1.012685	1.006091
C39	C	1.003308	0.583897	0.576142
C40	C	1.503308	1.083897	1.076142
C41	C	1.074071	0.609808	0.480256
C42	C	1.574071	1.109808	0.980256
C43	C	1.074121	0.486821	0.601965
C44	C	1.574121	0.986821	1.101965
C45	C	1.003289	0.538682	0.410123
C46	C	1.503289	1.038682	0.910123
C47	C	1.003333	0.415650	0.531897
C48	C	1.503333	0.915650	1.031897
C49	C	1.074064	0.441524	0.435945
C50	C	1.574064	0.941524	0.935945
C51	C	1.538037	0.789230	0.506050
C52	C	2.038037	1.289230	1.006050
C53	C	1.538083	0.907536	0.506080
C54	C	2.038083	1.407536	1.006080
C55	C	1.466974	0.976795	0.576221
C56	C	1.966974	1.476795	1.076221
C57	C	1.441024	1.047664	0.480356
C58	C	1.941024	1.547664	0.980356
C59	C	1.564090	1.047465	0.601961
C60	C	2.064090	1.547465	1.101961
C61	C	1.512082	0.976847	0.410164
C62	C	2.012082	1.476847	0.910164
C63	C	1.635193	0.976641	0.531833
C64	C	2.135193	1.476641	1.031833
C65	C	1.609280	1.047479	0.435902
C66	C	2.109280	1.547479	0.935902
C67	C	1.815779	0.512711	0.506060
C68	C	2.315779	1.012711	1.006060
C69	C	1.934085	0.512720	0.506059
C70	C	2.434085	1.012720	1.006059
C71	C	1.538239	0.512585	0.780096
C72	C	2.038239	1.012585	1.280096
C73	C	1.538273	0.512540	0.896872
C74	C	2.038273	1.012540	1.396872
C75	C	1.538262	1.235068	0.506096
C76	C	2.038262	1.735068	1.006096
C77	C	1.538187	1.116763	0.506106
C78	C	2.038187	1.616763	1.006106
C79	C	1.538140	0.512716	0.233095
C80	C	2.038140	1.012716	0.733095
C81	C	1.538312	0.512461	0.116318
C82	C	2.038312	1.012461	0.616318
C83	C	1.674495	0.376421	0.896908
C84	C	2.174495	0.876421	1.396908
C85	C	1.742621	0.308345	0.951787
C86	C	2.242621	0.808345	1.451787
C87	C	1.742647	0.308306	1.061509
C88	C	2.242647	0.808306	1.561509
C89	C	1.674537	0.376348	1.116354
C90	C	2.174537	0.876348	1.616354
C91	C	1.606411	0.444424	1.061475
C92	C	2.106411	0.944424	1.561475
C93	C	1.606395	0.444458	0.951751
C94	C	2.106395	0.944458	1.451751
C95	C	1.470186	0.580537	1.061440
C96	C	1.970186	1.080537	1.561440
C97	C	1.470163	0.580582	0.951718
C98	C	1.970163	1.080582	1.451718
C99	C	1.402076	0.648579	1.116285
C100	C	1.902076	1.148579	1.616285
C101	C	1.333954	0.716661	1.061406
C102	C	1.833954	1.216661	1.561406
C103	C	1.333932	0.716698	0.951678
C104	C	1.833932	1.216698	1.451678
C105	C	1.402038	0.648658	0.896839
C106	C	1.902038	1.148658	1.396839
H107	H	0.972237	0.333598	0.553772
H108	H	1.472237	0.833598	1.053772
Cl109	Cl	0.955337	0.676917	0.667510
Cl110	Cl	1.455337	1.176917	1.167510
H111	H	1.402098	0.648538	1.205626
H112	H	1.902098	1.148538	1.705626
Cl113	Cl	1.402020	0.648703	0.758902
Cl114	Cl	1.902020	1.148703	1.258902
H115	H	1.105142	0.691884	0.458408
H116	H	1.605142	1.191884	0.958408
H117	H	1.278499	0.772050	1.106070
H118	H	1.778499	1.272050	1.606070
Cl119	Cl	1.122160	0.453022	0.727165
Cl120	Cl	1.622160	0.953022	1.227165
H121	H	1.278443	0.772122	0.907002
H122	H	1.778443	1.272122	1.407002
Cl123	Cl	1.121720	0.348560	0.344364
Cl124	Cl	1.621720	0.848560	0.844364
Cl125	Cl	0.955461	0.572629	0.284884
Cl126	Cl	1.455461	1.072629	0.784884
Cl127	Cl	1.674563	0.376288	1.254291
Cl128	Cl	2.174563	0.876288	1.754291
H129	H	1.406749	0.945758	0.635451
H130	H	1.906749	1.445758	1.135451
H131	H	1.358950	1.078884	0.458595
H132	H	1.858950	1.578884	0.958595
H133	H	1.586046	1.078486	0.683035
H134	H	2.086046	1.578486	1.183035
H135	H	1.798114	0.252867	1.106191
H136	H	2.298114	0.752867	1.606191
Cl137	Cl	1.674483	0.376479	0.758972
Cl138	Cl	2.174483	0.876479	1.258972
H139	H	1.798073	0.252945	0.907120
H140	H	2.298073	0.752945	1.407120
H141	H	1.669458	1.078319	0.376529
H142	H	2.169458	1.578319	0.876529
Cl143	Cl	1.478039	0.929158	0.284954
Cl144	Cl	1.978039	1.429158	0.784954
Cl145	Cl	1.761881	0.928439	0.565502
Cl146	Cl	2.261881	1.428439	1.065502
