data_functionalizedCrystal
_audit_creation_method	'MofGen! by Chris Wilmer'
_symmetry_space_group_name_H-M	'P1'
_symmetry_Int_Tables_number	1
_symmetry_cell_setting	triclinic
loop_
_symmetry_equiv_pos_as_xyz
  x,y,z
_cell_length_a	16.109301
_cell_length_b	16.053811
_cell_length_c	16.109301
_cell_angle_alpha	87.436393
_cell_angle_beta	96.538519
_cell_angle_gamma	87.421869
loop_
_atom_site_label
_atom_site_type_symbol
_atom_site_fract_x
_atom_site_fract_y
_atom_site_fract_z
O1	O	1.106638	-0.069379	-0.103368
O2	O	1.606638	0.430621	0.396632
O3	O	0.864577	-0.069392	-0.116667
O4	O	1.364577	0.430608	0.383333
O5	O	0.992257	-0.069377	0.011013
O6	O	1.492257	0.430623	0.511013
O7	O	0.978958	-0.069395	-0.231048
O8	O	1.478958	0.430605	0.268952
O9	O	0.985228	0.069481	0.004014
O10	O	1.485228	0.569481	0.504014
O11	O	0.857548	0.069466	-0.123666
O12	O	1.357548	0.569466	0.376334
O13	O	1.099609	0.069479	-0.110367
O14	O	1.599609	0.569479	0.389633
Zn15	Zn	0.977463	0.091519	-0.118128
Zn16	Zn	1.477463	0.591519	0.381872
Zn17	Zn	0.986724	-0.091432	-0.108906
Zn18	Zn	1.486724	0.408568	0.391094
O19	O	0.971930	0.069464	-0.238047
O20	O	1.471930	0.569464	0.261953
C21	C	0.830088	0.000035	-0.119628
C22	C	1.330088	0.500035	0.380372
C23	C	0.737793	0.000030	-0.118012
C24	C	1.237793	0.500030	0.381988
N25	N	0.971149	0.216379	-0.124422
N26	N	1.471149	0.716379	0.375578
C27	C	0.515520	0.000034	-0.190020
C28	C	1.015520	0.500034	0.309980
C29	C	0.428799	0.000040	-0.188496
C30	C	0.928799	0.500040	0.311504
C31	C	0.448673	0.000048	-0.037008
C32	C	0.948673	0.500048	0.462992
C33	C	0.535392	0.000048	-0.038533
C34	C	1.035392	0.500048	0.461467
C35	C	0.568813	0.000037	-0.115041
C36	C	1.068813	0.500037	0.384959
C37	C	0.395374	0.000042	-0.111992
C38	C	0.895374	0.500042	0.388008
C39	C	0.301347	0.000048	-0.110340
C40	C	0.801347	0.500048	0.389660
C41	C	0.662845	0.000033	-0.116694
C42	C	1.162845	0.500033	0.383306
C43	C	1.025496	0.260079	-0.070113
C44	C	1.525496	0.760079	0.429887
C45	C	1.021087	0.347485	-0.074523
C46	C	1.521087	0.847485	0.425477
C47	C	0.962334	0.391189	-0.133247
C48	C	1.462334	0.891189	0.366753
C49	C	0.907981	0.347483	-0.187557
C50	C	1.407981	0.847483	0.312443
C51	C	0.912386	0.260078	-0.183143
C52	C	1.412386	0.760078	0.316857
C53	C	0.943090	0.652597	-0.152507
C54	C	1.443090	1.152597	0.347493
C55	C	0.938690	0.740008	-0.156919
C56	C	1.438690	1.240008	0.343081
C57	C	1.051796	0.740004	-0.043883
C58	C	1.551796	1.240004	0.456117
C59	C	1.056200	0.652598	-0.039477
C60	C	1.556200	1.152598	0.460523
C61	C	1.001844	0.608899	-0.093785
C62	C	1.501844	1.108899	0.406215
N63	N	0.957827	0.480533	-0.137758
N64	N	1.457827	0.980533	0.362242
N65	N	1.006347	0.519557	-0.089269
N66	N	1.506347	1.019557	0.410731
C67	C	1.134099	0.000050	-0.107406
C68	C	1.634099	0.500050	0.392594
C69	C	1.226394	0.000049	-0.109021
C70	C	1.726394	0.500049	0.390979
C71	C	0.988204	0.000053	0.038488
C72	C	1.488204	0.500053	0.538488
C73	C	0.986588	0.000054	0.130784
C74	C	1.486588	0.500054	0.630784
N75	N	0.993037	0.783708	-0.102611
N76	N	1.493037	1.283708	0.397389
C77	C	0.975983	0.000032	-0.265522
C78	C	1.475983	0.500032	0.234478
C79	C	0.977598	0.000026	-0.357817
C80	C	1.477598	0.500026	0.142183
C81	C	1.058597	0.000045	0.353057
C82	C	1.558597	0.500045	0.853057
C83	C	1.057073	0.000038	0.439777
C84	C	1.557073	0.500038	0.939777
C85	C	0.905584	0.000032	0.419903
C86	C	1.405584	0.500032	0.919903
C87	C	0.907109	0.000033	0.333184
C88	C	1.407109	0.500033	0.833184
C89	C	0.983618	0.000044	0.299763
C90	C	1.483618	0.500044	0.799763
C91	C	0.980569	0.000036	0.473203
C92	C	1.480569	0.500036	0.973203
C93	C	0.978916	0.000028	0.567229
C94	C	1.478916	0.500028	1.067229
C95	C	0.985271	0.000050	0.205731
C96	C	1.485271	0.500050	0.705731
H97	H	0.542728	0.000032	-0.252318
H98	H	1.042728	0.500032	0.247682
H99	H	1.104041	0.617016	0.008340
H100	H	1.604041	1.117016	0.508340
C101	C	0.370180	0.000041	-0.270979
C102	C	0.870180	0.500041	0.229021
N103	N	0.326028	0.000044	-0.333110
N104	N	0.826028	0.500044	0.166890
C105	C	0.411902	0.000052	0.047147
C106	C	0.911902	0.500052	0.547147
N107	N	0.384207	0.000051	0.110535
N108	N	0.884207	0.500051	0.610535
H109	H	0.898832	0.617024	-0.196728
H110	H	1.398832	1.117024	0.303272
H111	H	0.843294	0.000026	0.447125
H112	H	1.343294	0.500026	0.947125
C113	C	0.852606	0.212008	-0.242893
C114	C	1.352606	0.712008	0.257107
N115	N	0.807578	0.175803	-0.287899
N116	N	1.307578	0.675803	0.212101
C117	C	0.594018	0.000051	0.043954
C118	C	1.094018	0.500051	0.543954
N119	N	0.638175	0.000056	0.106081
N120	N	1.138175	0.500056	0.606081
H121	H	0.860138	0.383072	-0.235368
H122	H	1.360138	0.883072	0.264632
H123	H	1.073343	0.224501	-0.022298
H124	H	1.573343	0.724501	0.477702
C125	C	1.080854	0.395552	-0.014759
C126	C	1.580854	0.895552	0.485241
N127	N	1.125866	0.431755	0.030266
N128	N	1.625866	0.931755	0.530266
C129	C	1.111577	0.788080	0.015858
C130	C	1.611577	1.288080	0.515858
N131	N	1.156603	0.824291	0.060860
N132	N	1.656603	1.324291	0.560860
C133	C	1.139556	0.000046	0.498396
C134	C	1.639556	0.500046	0.998396
N135	N	1.201685	0.000054	0.542548
N136	N	1.701685	0.500054	1.042548
C137	C	0.874052	0.788080	-0.221520
C138	C	1.374052	1.288080	0.278480
N139	N	0.825369	0.824289	-0.270174
N140	N	1.325369	1.324289	0.229826
H141	H	1.120895	0.000051	0.325848
H142	H	1.620895	0.500051	0.825848
C143	C	0.824622	0.000028	0.274558
C144	C	1.324622	0.500028	0.774558
N145	N	0.762496	0.000021	0.230401
N146	N	1.262496	0.500021	0.730401
