data_functionalizedCrystal
_audit_creation_method	'MofGen! by Chris Wilmer'
_symmetry_space_group_name_H-M	'P1'
_symmetry_Int_Tables_number	1
_symmetry_cell_setting	triclinic
loop_
_symmetry_equiv_pos_as_xyz
  x,y,z
_cell_length_a	27.731993
_cell_length_b	13.185407
_cell_length_c	11.804365
_cell_angle_alpha	97.750215
_cell_angle_beta	78.265632
_cell_angle_gamma	67.296938
loop_
_atom_site_label
_atom_site_type_symbol
_atom_site_fract_x
_atom_site_fract_y
_atom_site_fract_z
O1	O	0.637110	0.107600	-0.098706
O2	O	0.493807	0.127420	-0.098780
O3	O	0.590010	-0.041660	-0.098726
O4	O	0.540907	0.276679	-0.098760
O5	O	0.564689	0.002808	0.099315
O6	O	0.468486	0.171887	0.099262
O7	O	0.611789	0.152067	0.099335
Cu8	Cu	0.537825	0.166038	0.117381
Cu9	Cu	0.567770	0.113450	-0.116826
O10	O	0.515586	0.321147	0.099282
C11	C	0.463192	0.149244	0.000232
C12	C	0.409694	0.148012	0.000204
C13	C	0.041456	0.114899	-0.107690
C14	C	0.242525	0.119565	-0.107722
O15	O	0.280266	0.099510	-0.199534
N16	N	0.253869	0.144388	0.000228
C17	C	0.214943	0.168040	0.108194
O18	O	0.229208	0.189249	0.200011
C19	C	0.013877	0.163365	0.108225
C20	C	0.002534	0.138551	0.000268
C21	C	0.030112	0.090085	-0.215638
C22	C	-0.020153	0.088925	-0.215629
C23	C	-0.059075	0.112578	-0.107671
C24	C	-0.047732	0.137391	0.000277
C25	C	-0.025047	0.187009	0.216190
C26	C	-0.075315	0.185835	0.216188
C27	C	-0.086657	0.161021	0.108231
C28	C	-0.136919	0.159884	0.108244
N29	N	-0.148263	0.135060	0.000294
C30	C	-0.109341	0.111407	-0.107664
C31	C	0.320507	0.170494	0.108169
C32	C	0.370772	0.171665	0.108162
C33	C	0.398351	0.123188	-0.107755
C34	C	0.348083	0.122025	-0.107746
C35	C	0.309162	0.145671	0.000219
C36	C	-0.214904	0.108973	-0.107636
C37	C	-0.265176	0.107820	-0.107617
C38	C	-0.292749	0.156291	0.108299
C39	C	-0.242482	0.157451	0.108281
C40	C	-0.203559	0.133786	0.000304
O41	O	-0.174682	0.179915	0.200008
O42	O	-0.123612	0.090176	-0.199467
C43	C	0.091721	0.116059	-0.107699
C44	C	0.103065	0.140872	0.000249
C45	C	0.064143	0.164525	0.108207
C46	C	0.153331	0.142043	0.000242
C47	C	0.192253	0.118390	-0.107716
C48	C	0.180909	0.093566	-0.215666
C49	C	0.130643	0.092406	-0.215657
C50	C	0.075487	0.189348	0.216157
C51	C	0.125754	0.190508	0.216139
C52	C	0.164676	0.166855	0.108181
C53	C	0.582327	-0.060140	0.000296
C54	C	0.597155	-0.181456	0.000299
C55	C	0.642404	0.130242	0.000321
C56	C	0.695902	0.131473	0.000341
C57	C	0.455649	-0.468283	0.000215
C58	C	0.441718	-0.354303	0.000200
C59	C	0.480576	-0.311085	0.000225
C60	C	0.533368	-0.381860	0.000265
C61	C	0.547302	-0.495853	0.000270
C62	C	0.572229	-0.338656	0.000280
C63	C	0.625021	-0.409430	0.000319
C64	C	0.638953	-0.523412	0.000326
C65	C	0.600095	-0.566629	0.000301
C66	C	0.558295	-0.224662	0.000275
C67	C	0.649948	-0.252232	0.000330
C68	C	0.663879	-0.366213	0.000345
C69	C	0.523268	0.339627	0.000257
C70	C	0.508442	0.460941	0.000246
N71	N	0.516768	0.203025	0.282110
N72	N	0.588833	0.076454	-0.281555
C73	C	0.639403	-0.012386	0.656127
C74	C	0.655334	-0.040372	0.531474
C75	C	0.620693	0.020475	0.469127
C76	C	0.570120	0.109312	0.531445
C77	C	0.554190	0.137305	0.656110
C78	C	0.535480	0.170167	0.469110
C79	C	0.484907	0.259004	0.531428
C80	C	0.468980	0.286992	0.656081
C81	C	0.503620	0.226146	0.718428
C82	C	0.551410	0.142173	0.344445
C83	C	0.466197	0.291865	0.344428
C84	C	0.450267	0.319850	0.469081
H85	H	-0.274407	0.087616	-0.195533
O86	O	0.720818	-0.442558	0.000386
H87	H	0.745499	-0.393364	0.000413
H88	H	0.696510	-0.112700	0.480740
H89	H	0.398735	-0.296686	0.000165
H90	H	0.611433	-0.659437	0.000327
H91	H	0.592587	0.069842	0.293717
O92	O	0.413746	-0.514903	0.000180
H93	H	0.374695	-0.446545	0.000147
H94	H	0.134980	0.210725	0.304058
O95	O	0.414444	0.382852	0.723277
H96	H	0.381545	0.364186	0.699368
H97	H	0.681941	-0.581037	0.000346
O98	O	0.676760	-0.077999	0.723378
H99	H	0.715760	-0.070032	0.699460
H100	H	0.515310	-0.167048	0.000244
O101	O	0.637871	-0.009709	0.334680
H102	H	0.608161	-0.033992	0.301819
O103	O	-0.172928	0.083462	-0.224093
H104	H	-0.189271	0.066026	-0.299145
H105	H	0.490649	0.248928	0.819931
O106	O	0.691865	-0.205637	0.000362
H107	H	0.673305	-0.114482	0.000366
H108	H	-0.233251	0.177678	0.196188
H109	H	0.379999	0.191889	0.196072
O110	O	0.395724	0.415676	0.536297
H111	H	0.390472	0.424919	0.633452
H112	H	0.437990	0.341414	0.293666
O113	O	0.278529	0.196124	0.224661
H114	H	0.240981	0.271297	0.229773
O115	O	-0.334671	0.182018	0.224901
H116	H	-0.345517	0.268400	0.276424
O117	O	-0.032374	0.062100	-0.332068
H118	H	0.003147	0.045822	-0.407129
H119	H	0.469229	-0.218276	0.000215
H120	H	0.061800	0.070820	-0.303555
H121	H	0.338852	0.101820	-0.195654
O122	O	0.440339	0.097656	-0.224200
H123	H	0.477198	0.102628	-0.206057
O124	O	-0.012833	0.213801	0.332640
H125	H	-0.015088	0.150679	0.384415
O126	O	-0.117296	0.211349	0.332638
H127	H	-0.100961	0.228808	0.407697
H128	H	0.121414	0.072200	-0.303567
H129	H	0.212607	0.074313	-0.303569
H130	H	0.043801	0.208604	0.304071
