data_functionalizedCrystal
_audit_creation_method	'MofGen! by Chris Wilmer'
_symmetry_space_group_name_H-M	'P1'
_symmetry_Int_Tables_number	1
_symmetry_cell_setting	triclinic
loop_
_symmetry_equiv_pos_as_xyz
  x,y,z
_cell_length_a	16.974901
_cell_length_b	16.992695
_cell_length_c	15.455313
_cell_angle_alpha	87.152573
_cell_angle_beta	83.675219
_cell_angle_gamma	92.971814
loop_
_atom_site_label
_atom_site_type_symbol
_atom_site_fract_x
_atom_site_fract_y
_atom_site_fract_z
O1	O	-1.062054	0.093027	0.146605
O2	O	-0.562054	0.593027	0.646605
O3	O	-0.831927	0.106507	0.130470
O4	O	-0.331927	0.606507	0.630470
O5	O	-0.946068	-0.014371	0.138466
O6	O	-0.446068	0.485629	0.638466
O7	O	-0.947913	0.213906	0.138609
O8	O	-0.447913	0.713906	0.638609
O9	O	-0.939539	-0.007487	-0.006254
O10	O	-0.439539	0.492513	0.493746
O11	O	-0.825398	0.113391	-0.014250
O12	O	-0.325398	0.613391	0.485750
O13	O	-1.055525	0.099911	0.001886
O14	O	-0.555525	0.599911	0.501886
Cu15	Cu	-0.939865	0.107280	-0.019396
Cu16	Cu	-0.439865	0.607280	0.480604
Cu17	Cu	-0.947587	0.099139	0.151752
Cu18	Cu	-0.447587	0.599139	0.651752
O19	O	-0.941384	0.220790	-0.006110
O20	O	-0.441384	0.720790	0.493890
C21	C	-0.799081	0.109562	0.056036
C22	C	-0.299081	0.609562	0.556036
C23	C	-0.710935	0.108398	0.049856
C24	C	-0.210935	0.608398	0.549856
C25	C	-0.673075	0.104100	0.125832
C26	C	-0.173075	0.604100	0.625832
C27	C	-0.590251	0.103020	0.120012
C28	C	-0.090251	0.603020	0.620012
C29	C	-0.545289	0.106231	0.038215
C30	C	-0.045289	0.606231	0.538215
C31	C	-0.583154	0.110530	-0.037767
C32	C	-0.083154	0.610530	0.462233
C33	C	-0.665976	0.111617	-0.031947
C34	C	-0.165976	0.611617	0.468053
C35	C	-0.297206	0.103390	0.012347
C36	C	0.202794	0.603390	0.512347
C37	C	-0.214379	0.102301	0.006532
C38	C	0.285621	0.602301	0.506532
C39	C	-0.221481	0.094791	0.164312
C40	C	0.278519	0.594791	0.664312
C41	C	-0.304305	0.095873	0.170126
C42	C	0.195695	0.595873	0.670126
C43	C	-0.342163	0.100177	0.094144
C44	C	0.157837	0.600177	0.594144
N45	N	-0.460629	0.105124	0.032264
N46	N	0.039371	0.605124	0.532264
N47	N	-0.426820	0.101290	0.100095
N48	N	0.073180	0.601290	0.600095
C49	C	-0.940430	-0.040131	0.065940
C50	C	-0.440430	0.459869	0.565940
C51	C	-0.933348	-0.127145	0.065444
C52	C	-0.433348	0.372855	0.565444
C53	C	-1.001678	-0.177682	0.070234
C54	C	-0.501678	0.322318	0.570234
C55	C	-0.995020	-0.259440	0.069775
C56	C	-0.495020	0.240560	0.569775
C57	C	-0.920030	-0.290659	0.064520
C58	C	-0.420030	0.209341	0.564520
C59	C	-0.851694	-0.240116	0.059732
C60	C	-0.351694	0.259884	0.559732
C61	C	-0.858354	-0.158359	0.060197
C62	C	-0.358354	0.341641	0.560197
C63	C	-0.892429	-0.534137	0.062597
C64	C	-0.392429	-0.034137	0.562597
C65	C	-0.885774	-0.615900	0.062130
C66	C	-0.385774	-0.115900	0.562130
C67	C	-1.029100	-0.635219	0.072174
C68	C	-0.529100	-0.135219	0.572174
C69	C	-1.035753	-0.553460	0.072633
C70	C	-0.535753	-0.053460	0.572633
C71	C	-0.967418	-0.502924	0.067850
C72	C	-0.467418	-0.002924	0.567850
N73	N	-0.913222	-0.374229	0.064048
N74	N	-0.413222	0.125771	0.564048
N75	N	-0.974227	-0.419356	0.068328
N76	N	-0.474227	0.080644	0.568328
C77	C	-0.088372	0.096852	0.076322
C78	C	0.411628	0.596852	0.576322
C79	C	-0.176519	0.098003	0.082509
C80	C	0.323481	0.598003	0.582509
C81	C	-0.947022	0.246550	0.066418
C82	C	-0.447022	0.746550	0.566418
C83	C	-0.954105	0.333563	0.066920
C84	C	-0.454105	0.833563	0.566920
N85	N	-0.934441	0.113005	-0.139772
N86	N	-0.434441	0.613005	0.360228
C87	C	-0.982951	0.061671	-0.181767
C88	C	-0.482951	0.561671	0.318233
C89	C	-0.978856	0.066008	-0.272862
C90	C	-0.478856	0.566008	0.227138
C91	C	-0.926254	0.121684	-0.321959
C92	C	-0.426254	0.621684	0.178041
C93	C	-0.877739	0.173021	-0.279957
C94	C	-0.377739	0.673021	0.220043
C95	C	-0.881830	0.168679	-0.188865
C96	C	-0.381830	0.668679	0.311135
C97	C	-0.908593	0.140402	-0.594778
C98	C	-0.408593	0.640402	-0.094778
C99	C	-0.904507	0.144742	-0.685877
C100	C	-0.404507	0.644742	-0.185877
C101	C	-1.005623	0.037727	-0.678775
C102	C	-0.505623	0.537727	-0.178775
C103	C	-1.009714	0.033394	-0.587681
C104	C	-0.509714	0.533394	-0.087681
C105	C	-0.961195	0.084728	-0.545687
C106	C	-0.461195	0.584728	-0.045687
N107	N	-0.922069	0.126120	-0.415073
N108	N	-0.422069	0.626120	0.084927
N109	N	-0.965377	0.080287	-0.452576
N110	N	-0.465377	0.580287	0.047424
N111	N	-0.953017	0.093407	0.272127
N112	N	-0.453017	0.593407	0.772127
H113	H	-0.177770	0.104938	-0.060081
H114	H	0.322230	0.604938	0.439919
O115	O	-1.102803	-0.689724	0.077334
O116	O	-0.602803	-0.189724	0.577334
H117	H	-1.105866	-0.730233	0.136351
H118	H	-0.605866	-0.230233	0.636351
O119	O	-1.057950	-0.017643	-0.724064
O120	O	-0.557950	0.482357	-0.224064
H121	H	-1.020288	-0.053645	-0.768086
H122	H	-0.520288	0.446355	-0.268086
H123	H	-0.546539	0.113150	-0.104369
H124	H	-0.046539	0.613150	0.395631
H125	H	-0.696800	0.115119	-0.093815
H126	H	-0.196800	0.615119	0.406185
H127	H	-0.861671	0.190083	-0.725848
H128	H	-0.361671	0.690083	-0.225848
H129	H	-1.050662	-0.300584	0.073674
H130	H	-0.550662	0.199416	0.573674
O131	O	-1.039682	0.001617	-0.128814
O132	O	-0.539682	0.501617	0.371186
H133	H	-1.072719	-0.033356	-0.173324
H134	H	-0.572719	0.466644	0.326676
H135	H	-0.328020	0.106889	-0.049523
H136	H	0.171980	0.606889	0.450477
O137	O	-1.082565	-0.144019	0.075907
O138	O	-0.582565	0.355981	0.575907
H139	H	-1.086375	-0.104437	0.017372
H140	H	-0.586375	0.395563	0.517372
O141	O	-1.116636	-0.519788	0.078322
O142	O	-0.616636	-0.019788	0.578322
H143	H	-1.163034	-0.568667	0.081589
H144	H	-0.663034	-0.068667	0.581589
O145	O	-0.804889	-0.649577	0.056471
O146	O	-0.304889	-0.149577	0.556471
H147	H	-0.758489	-0.600703	0.053233
H148	H	-0.258489	-0.100703	0.553233
H149	H	-0.836785	-0.493000	0.058702
H150	H	-0.336785	0.007000	0.558702
O151	O	-0.180656	0.090153	0.246266
O152	O	0.319344	0.590153	0.746266
H153	H	-0.139419	0.142906	0.247144
H154	H	0.360581	0.642906	0.747144
O155	O	-1.066461	-0.026649	-0.534731
O156	O	-0.566461	0.473351	-0.034731
H157	H	-1.061166	-0.021034	-0.464333
H158	H	-0.561166	0.478966	0.035667
O159	O	-0.770808	-0.273781	0.054055
O160	O	-0.270808	0.226219	0.554055
H161	H	-0.777655	-0.339121	0.054524
H162	H	-0.277655	0.160879	0.554524
O163	O	-0.856273	0.195774	-0.549488
O164	O	-0.356273	0.695774	-0.049488
H165	H	-0.819019	0.235223	-0.598934
H166	H	-0.319019	0.735223	-0.098934
H167	H	-0.802711	-0.117212	0.056297
H168	H	-0.302711	0.382788	0.556297
O169	O	-1.031192	0.010655	-0.318160
O170	O	-0.531192	0.510655	0.181840
H171	H	-1.068468	-0.028778	-0.268715
H172	H	-0.568468	0.471222	0.231285
H173	H	-0.842327	0.210481	-0.154673
H174	H	-0.342327	0.710481	0.345327
O175	O	-0.721569	0.100640	0.214057
O176	O	-0.221569	0.600640	0.714057
H177	H	-0.681324	0.097478	0.265909
H178	H	-0.181324	0.597478	0.765909
O179	O	-0.549434	0.098349	0.201970
O180	O	-0.049434	0.598349	0.701970
H181	H	-0.563361	0.150164	0.240688
H182	H	-0.063361	0.650164	0.740688
O183	O	-0.352801	0.092414	0.258350
O184	O	0.147199	0.592414	0.758350
H185	H	-0.312559	0.089250	0.310205
H186	H	0.187441	0.589250	0.810205
O187	O	-0.821006	0.233077	-0.332905
O188	O	-0.321006	0.733077	0.167095
H189	H	-0.826317	0.227480	-0.403303
H190	H	-0.326317	0.727480	0.096697
