data_functionalizedCrystal
_audit_creation_method	'MofGen! by Chris Wilmer'
_symmetry_space_group_name_H-M	'P1'
_symmetry_Int_Tables_number	1
_symmetry_cell_setting	triclinic
loop_
_symmetry_equiv_pos_as_xyz
  x,y,z
_cell_length_a	15.944493
_cell_length_b	15.021413
_cell_length_c	14.519709
_cell_angle_alpha	89.996924
_cell_angle_beta	83.577594
_cell_angle_gamma	90.006749
loop_
_atom_site_label
_atom_site_type_symbol
_atom_site_fract_x
_atom_site_fract_y
_atom_site_fract_z
O1	O	1.114731	0.074022	0.118675
O2	O	1.614731	0.574022	0.618675
O3	O	0.870196	0.074027	0.133395
O4	O	1.370196	0.574027	0.633395
O5	O	0.998947	0.074016	-0.008217
O6	O	1.498947	0.574016	0.491783
O7	O	0.985980	0.074033	0.260286
O8	O	1.485980	0.574033	0.760286
O9	O	0.998927	-0.074048	-0.008196
O10	O	1.498927	0.425952	0.491804
O11	O	0.870176	-0.074037	0.133415
O12	O	1.370176	0.425963	0.633415
O13	O	1.114711	-0.074042	0.118695
O14	O	1.614711	0.425958	0.618695
Zn15	Zn	0.992440	-0.097548	0.126058
Zn16	Zn	1.492440	0.402452	0.626058
Zn17	Zn	0.992467	0.097533	0.126031
Zn18	Zn	1.492467	0.597533	0.626031
O19	O	0.985960	-0.074032	0.260306
O20	O	1.485960	0.425968	0.760306
C21	C	0.838891	-0.000005	0.132803
C22	C	1.338891	0.499995	0.632803
C23	C	0.745639	-0.000003	0.130999
C24	C	1.245639	0.499997	0.630999
N25	N	0.992428	-0.230686	0.126076
N26	N	1.492428	0.269314	0.626076
C27	C	0.510000	0.000002	0.214355
C28	C	1.010000	0.500002	0.714355
C29	C	0.459367	-0.073008	0.169415
C30	C	0.959367	0.426992	0.669415
C31	C	0.574913	-0.000005	0.127657
C32	C	1.074913	0.499995	0.627657
C33	C	0.459391	0.072972	0.169374
C34	C	0.959391	0.572972	0.669374
C35	C	0.409999	-0.000003	0.124435
C36	C	0.909999	0.499997	0.624435
C37	C	0.525508	-0.073075	0.082740
C38	C	1.025508	0.426925	0.582740
C39	C	0.525536	0.072970	0.082712
C40	C	1.025536	0.572970	0.582712
C41	C	0.474935	-0.000058	0.037708
C42	C	0.974935	0.499942	0.537708
C43	C	0.669916	-0.000007	0.129516
C44	C	1.169916	0.499993	0.629516
C45	C	0.314999	-0.000008	0.122570
C46	C	0.814999	0.499992	0.622570
C47	C	0.932884	-0.470364	0.191526
C48	C	1.432884	0.029636	0.691526
C49	C	1.008813	-0.529699	0.209413
C50	C	1.508813	-0.029699	0.709413
C51	C	0.992449	-0.412293	0.126053
C52	C	1.492449	0.087707	0.626053
C53	C	0.916542	-0.529700	0.108186
C54	C	1.416542	-0.029700	0.608186
C55	C	0.992463	-0.587717	0.126032
C56	C	1.492463	-0.087717	0.626032
C57	C	1.068416	-0.470321	0.143981
C58	C	1.568416	0.029679	0.643981
C59	C	0.976095	-0.470317	0.042718
C60	C	1.476095	0.029683	0.542718
C61	C	1.052078	-0.529624	0.060570
C62	C	1.552078	-0.029624	0.560570
C63	C	0.992440	-0.311235	0.126067
C64	C	1.492440	0.188765	0.626067
C65	C	0.992481	-0.688772	0.126018
C66	C	1.492481	-0.188772	0.626018
C67	C	1.146017	-0.000009	0.119286
C68	C	1.646017	0.499991	0.619286
C69	C	1.239268	-0.000004	0.121090
C70	C	1.739268	0.499996	0.621090
C71	C	0.998333	-0.000016	-0.042565
C72	C	1.498333	0.499984	0.457435
C73	C	0.996522	-0.000016	-0.144943
C74	C	1.496522	0.499984	0.355057
N75	N	0.992486	0.230670	0.126006
N76	N	1.492486	0.730670	0.626006
C77	C	0.989855	0.000007	-0.519825
C78	C	1.489855	0.500007	-0.019825
C79	C	0.991707	0.000000	-0.415521
C80	C	1.491707	0.500000	0.084479
C81	C	0.993188	-0.000006	-0.332387
C82	C	1.493188	0.499994	0.167613
C83	C	0.995040	-0.000011	-0.228077
C84	C	1.495040	0.499989	0.271923
C85	C	0.986575	0.000003	0.294655
C86	C	1.486575	0.500003	0.794655
C87	C	0.988385	0.000009	0.397032
C88	C	1.488385	0.500009	0.897032
H89	H	0.525732	-0.000061	0.289036
H90	H	1.025732	0.499939	0.789036
H91	H	0.962226	-0.444213	-0.027724
H92	H	1.462226	0.055787	0.472276
H93	H	1.132630	-0.444348	0.159168
H94	H	1.632630	0.055652	0.659168
H95	H	0.882563	-0.444345	0.246939
H96	H	1.382563	0.055655	0.746939
H97	H	0.554274	-0.134861	0.046157
H98	H	1.054274	0.365139	0.546157
H99	H	0.459361	-0.000105	-0.037029
H100	H	0.959361	0.499895	0.462971
C101	C	0.420388	0.156352	0.218846
C102	C	0.920388	0.656352	0.718846
N103	N	0.391014	0.219151	0.256115
N104	N	0.891014	0.719151	0.756115
H105	H	1.102511	-0.555481	0.005189
H106	H	1.602511	-0.055481	0.505189
C107	C	0.829810	-0.564932	0.087779
C108	C	1.329810	-0.064932	0.587779
N109	N	0.764482	-0.591466	0.072414
N110	N	1.264482	-0.091466	0.572414
C111	C	1.027512	-0.564946	0.304605
C112	C	1.527512	-0.064946	0.804605
N113	N	1.041589	-0.591495	0.376306
N114	N	1.541589	-0.091495	0.876306
H115	H	0.430474	-0.134726	0.206037
H116	H	0.930474	0.365274	0.706037
H117	H	0.554438	0.134692	0.046118
H118	H	1.054438	0.634692	0.546118
