data_functionalizedCrystal
_audit_creation_method	'MofGen! by Chris Wilmer'
_symmetry_space_group_name_H-M	'P1'
_symmetry_Int_Tables_number	1
_symmetry_cell_setting	triclinic
loop_
_symmetry_equiv_pos_as_xyz
  x,y,z
_cell_length_a	13.339070
_cell_length_b	16.992695
_cell_length_c	15.455301
_cell_angle_alpha	87.173129
_cell_angle_beta	87.856897
_cell_angle_gamma	103.148759
loop_
_atom_site_label
_atom_site_type_symbol
_atom_site_fract_x
_atom_site_fract_y
_atom_site_fract_z
O1	O	-1.378909	-0.404123	0.072168
O2	O	-1.080135	-0.351604	0.072162
O3	O	-1.228324	-0.263460	0.072158
O4	O	-1.230720	-0.492267	0.072172
O5	O	-1.219758	-0.255466	-0.072105
O6	O	-1.071570	-0.343610	-0.072101
O7	O	-1.370343	-0.396130	-0.072095
Cu8	Cu	-1.220175	-0.369140	-0.085271
Cu9	Cu	-1.230304	-0.378593	0.085337
O10	O	-1.222155	-0.484274	-0.072091
C11	C	-1.037446	-0.338735	0.000030
C12	C	-0.923006	-0.312291	0.000027
C13	C	-1.220960	-0.229580	0.000026
C14	C	-1.211765	-0.140536	0.000026
C15	C	-1.413033	-0.408998	0.000039
C16	C	-1.527473	-0.435443	0.000047
C17	C	-0.574838	-0.517907	0.000053
C18	C	-0.682360	-0.542755	0.000058
C19	C	-0.742526	-0.485141	0.000050
C20	C	-0.695161	-0.402675	0.000038
C21	C	-0.587629	-0.377825	0.000040
C22	C	-0.755318	-0.345059	0.000036
C23	C	-0.707953	-0.262593	0.000024
C24	C	-0.600431	-0.237747	0.000025
C25	C	-0.540264	-0.295361	0.000033
C26	C	-0.862850	-0.369909	0.000035
C27	C	-0.875641	-0.229827	0.000021
C28	C	-0.768119	-0.204979	0.000016
C29	C	-1.229519	-0.518153	0.000042
C30	C	-1.238714	-0.607198	0.000048
N31	N	-1.213057	-0.362492	-0.205267
C32	C	-1.300479	-0.109596	0.000027
C33	C	-1.291834	-0.025929	0.000035
C34	C	-1.194474	0.026797	0.000036
C35	C	-1.105754	-0.004148	0.000038
C36	C	-1.114400	-0.087814	0.000036
C37	C	-1.158640	0.278190	0.000048
C38	C	-1.150000	0.361862	0.000047
C39	C	-1.336081	0.340075	0.000046
C40	C	-1.344718	0.256409	0.000039
C41	C	-1.255998	0.225471	0.000045
N42	N	-1.185636	0.112319	0.000042
N43	N	-1.264839	0.139950	0.000046
C44	C	-1.276732	-0.422003	-0.250653
C45	C	-1.271363	-0.416973	-0.341462
C46	C	-1.202313	-0.352436	-0.386883
C47	C	-1.138637	-0.292920	-0.341490
C48	C	-1.144012	-0.297947	-0.250683
C49	C	-1.179127	-0.330748	-0.658467
C50	C	-1.173755	-0.325726	-0.749280
C51	C	-1.306483	-0.449779	-0.749246
C52	C	-1.311847	-0.454803	-0.658437
C53	C	-1.248174	-0.395285	-0.613053
N54	N	-1.196821	-0.347295	-0.479703
N55	N	-1.253672	-0.400424	-0.520233
N56	N	-1.237429	-0.385237	0.205334
H57	H	-0.830075	-0.505378	0.000056
H58	H	-1.368077	-0.507354	-0.621462
C59	C	-1.109072	-0.265285	-0.608556
C60	C	-1.116094	-0.176263	-0.621057
C61	C	-1.046031	-0.110798	-0.571144
C62	C	-0.968946	-0.134354	-0.508729
C63	C	-0.961921	-0.223380	-0.496225
C64	C	-1.031984	-0.288845	-0.546138
H65	H	-1.173160	-0.158822	-0.667263
H66	H	-1.051232	-0.044895	-0.580401
H67	H	-0.917081	-0.085893	-0.471781
H68	H	-0.904855	-0.240821	-0.450020
H69	H	-1.026783	-0.354748	-0.536882
C70	C	-0.734459	-0.633461	0.000068
C71	C	-0.668284	-0.696836	0.000073
C72	C	-0.720384	-0.787548	0.000082
C73	C	-0.838659	-0.814884	0.000085
C74	C	-0.904840	-0.751508	0.000079
C75	C	-0.852740	-0.660796	0.000071
H76	H	-0.580724	-0.676601	0.000071
H77	H	-0.671392	-0.834463	0.000086
H78	H	-0.877226	-0.882034	0.000091
H79	H	-0.992400	-0.771743	0.000081
H80	H	-0.901732	-0.613881	0.000067
H81	H	-1.358322	-0.498235	-0.786208
C82	C	-1.352689	-0.492995	-0.200695
C83	C	-1.422734	-0.558452	-0.250624
C84	C	-1.498697	-0.629444	-0.200668
C85	C	-1.504614	-0.634980	-0.100784
C86	C	-1.434566	-0.569521	-0.050850
C87	C	-1.358604	-0.498529	-0.100805
H88	H	-1.418356	-0.554355	-0.324569
H89	H	-1.550551	-0.677901	-0.237633
H90	H	-1.560846	-0.687533	-0.063804
H91	H	-1.438944	-0.573617	0.023095
H92	H	-1.306750	-0.450072	-0.063840
H93	H	-0.901404	-0.437053	0.000041
C94	C	-1.389424	0.008102	0.000034
C95	C	-1.462912	-0.008229	-0.074883
C96	C	-1.560509	0.025798	-0.074883
C97	C	-1.584616	0.076157	0.000034
C98	C	-1.511125	0.092491	0.074956
C99	C	-1.413529	0.058463	0.074956
H100	H	-1.445068	-0.045510	-0.130346
H101	H	-1.614911	0.013707	-0.130345
H102	H	-1.656862	0.101346	0.000034
H103	H	-1.528969	0.129771	0.130418
H104	H	-1.359127	0.070555	0.130418
C105	C	-1.341414	-0.482441	-0.391375
C106	C	-1.459425	-0.497143	-0.378850
C107	C	-1.529487	-0.562615	-0.428757
C108	C	-1.481537	-0.613384	-0.491189
C109	C	-1.363520	-0.598682	-0.503717
C110	C	-1.293458	-0.533211	-0.453810
H111	H	-1.494926	-0.459560	-0.332631
H112	H	-1.616852	-0.573497	-0.419482
H113	H	-1.533401	-0.661849	-0.528133
H114	H	-1.328019	-0.636266	-0.549936
H115	H	-1.206093	-0.522328	-0.463085
H116	H	-1.117521	-0.273171	-0.786259
H117	H	-0.561870	-0.170598	0.000025
C118	C	-1.073968	-0.232485	-0.200754
C119	C	-0.998014	-0.161496	-0.250711
C120	C	-0.927973	-0.096029	-0.200783
C121	C	-0.933887	-0.101552	-0.100899
C122	C	-1.009844	-0.172545	-0.050937
C123	C	-1.079885	-0.238012	-0.100865
H124	H	-0.993633	-0.157404	-0.324656
H125	H	-0.871744	-0.043475	-0.237769
H126	H	-0.882038	-0.053090	-0.063940
H127	H	-1.014225	-0.176636	0.023008
H128	H	-1.136114	-0.290565	-0.063879
H129	H	-1.042160	-0.113004	0.000036
H130	H	-0.525841	-0.564807	0.000067
H131	H	-0.452710	-0.275133	0.000029
H132	H	-0.729540	-0.137834	0.000013
H133	H	-0.924630	-0.182913	0.000018
H134	H	-1.086397	0.253011	0.000053
H135	H	-1.423999	0.213484	0.000038
H136	H	-1.379759	-0.152520	0.000021
H137	H	-1.408311	0.365275	0.000042
H138	H	-1.070714	0.404791	0.000034
H139	H	-1.026482	0.038788	0.000044
H140	H	-1.082420	-0.240370	-0.378478
