data_functionalizedCrystal
_audit_creation_method	'MofGen! by Chris Wilmer'
_symmetry_space_group_name_H-M	'P1'
_symmetry_Int_Tables_number	1
_symmetry_cell_setting	triclinic
loop_
_symmetry_equiv_pos_as_xyz
  x,y,z
_cell_length_a	11.169417
_cell_length_b	12.827892
_cell_length_c	11.169409
_cell_angle_alpha	89.966724
_cell_angle_beta	89.980176
_cell_angle_gamma	90.016270
loop_
_atom_site_label
_atom_site_type_symbol
_atom_site_fract_x
_atom_site_fract_y
_atom_site_fract_z
Zn1	Zn	1.834920	-0.415924	-0.678535
Zn2	Zn	1.834792	-0.590711	-0.477849
Zn3	Zn	1.634206	-0.415988	-0.477869
Zn4	Zn	1.634196	-0.590626	-0.678493
O5	O	1.734528	-0.503312	-0.578187
O6	O	2.002853	-0.439119	-0.651922
O7	O	1.808134	-0.567596	-0.309901
O8	O	1.660889	-0.269743	-0.504514
O9	O	2.002759	-0.567534	-0.504479
O10	O	1.808353	-0.269696	-0.651942
O11	O	1.660765	-0.439227	-0.309917
O12	O	1.466255	-0.439145	-0.504474
O13	O	1.660872	-0.567389	-0.846449
O14	O	1.466248	-0.567451	-0.651871
O15	O	1.808343	-0.439036	-0.846479
O16	O	1.808124	-0.736936	-0.504438
O17	O	1.660747	-0.736874	-0.651851
C18	C	1.422704	-0.503296	-0.578171
C19	C	1.289304	-0.503315	-0.578193
C20	C	1.734453	-0.774822	-0.578164
C21	C	1.734531	-0.890975	-0.578195
C22	C	1.807468	-0.942654	-0.651213
C23	C	1.807550	-1.062704	-0.651246
C24	C	2.047571	-0.503329	-0.578203
C25	C	2.180971	-0.503336	-0.578210
C26	C	1.734621	-0.503196	-0.891229
C27	C	1.734660	-0.503147	-1.024629
C28	C	1.734637	-0.230742	-0.578235
C29	C	1.734683	-0.114589	-0.578256
C30	C	1.734506	-0.503352	-0.266362
C31	C	1.734699	-0.503108	-0.132962
H32	H	1.869848	-0.898023	-0.713707
C33	C	1.891915	-1.122733	-0.735703
C34	C	1.986141	-1.197760	-0.683722
C35	C	2.070508	-1.257791	-0.768183
C36	C	2.060649	-1.242796	-0.904624
C37	C	1.966419	-1.167765	-0.956611
C38	C	1.882052	-1.107734	-0.872151
H39	H	1.993443	-1.208864	-0.582714
H40	H	2.140264	-1.313334	-0.729697
H41	H	2.123103	-1.287235	-0.967146
H42	H	1.959117	-1.156662	-1.057620
H43	H	1.812296	-1.052191	-0.910637
H44	H	1.672142	-0.935608	-0.515712
H45	H	1.672239	-1.070154	-0.515734
