data_functionalizedCrystal
_audit_creation_method	'MofGen! by Chris Wilmer'
_symmetry_space_group_name_H-M	'P1'
_symmetry_Int_Tables_number	1
_symmetry_cell_setting	triclinic
loop_
_symmetry_equiv_pos_as_xyz
  x,y,z
_cell_length_a	17.699083
_cell_length_b	17.699083
_cell_length_c	17.666332
_cell_angle_alpha	89.991333
_cell_angle_beta	89.999456
_cell_angle_gamma	83.283016
loop_
_atom_site_label
_atom_site_type_symbol
_atom_site_fract_x
_atom_site_fract_y
_atom_site_fract_z
O1	O	-1.004079	-0.095707	0.062854
O2	O	-0.504079	0.404293	0.562854
O3	O	-0.783700	-0.108160	0.062880
O4	O	-0.283700	0.391840	0.562880
O5	O	-0.900116	0.008255	0.062848
O6	O	-0.400116	0.508255	0.562848
O7	O	-0.887663	-0.212123	0.062886
O8	O	-0.387663	0.287877	0.562886
O9	O	-0.900100	0.008252	-0.063049
O10	O	-0.400100	0.508252	0.436951
O11	O	-0.783685	-0.108164	-0.063016
O12	O	-0.283685	0.391836	0.436984
O13	O	-1.004063	-0.095711	-0.063043
O14	O	-0.504063	0.404289	0.436957
Cu15	Cu	-0.893872	-0.101938	-0.074525
Cu16	Cu	-0.393872	0.398062	0.425475
Cu17	Cu	-0.893891	-0.101933	0.074363
Cu18	Cu	-0.393891	0.398067	0.574363
O19	O	-0.887648	-0.212127	-0.063010
O20	O	-0.387648	0.287873	0.436990
C21	C	-0.755495	-0.107716	-0.000065
C22	C	-0.255495	0.392284	0.499935
C23	C	-0.671477	-0.106377	-0.000056
C24	C	-0.171477	0.393623	0.499944
C25	C	-0.899662	0.036451	-0.000104
C26	C	-0.399662	0.536451	0.499896
C27	C	-0.898323	0.120469	-0.000113
C28	C	-0.398323	0.620469	0.499887
N29	N	-0.893865	-0.101941	-0.179244
N30	N	-0.393865	0.398059	0.320756
C31	C	-1.032268	-0.096156	-0.000096
C32	C	-0.532268	0.403844	0.499904
C33	C	-1.116286	-0.097494	-0.000100
C34	C	-0.616286	0.402506	0.499900
C35	C	-0.622856	-0.174711	-0.000044
C36	C	-0.122856	0.325289	0.499956
C37	C	-0.543913	-0.173448	-0.000054
C38	C	-0.043913	0.326552	0.499946
C39	C	-0.513592	-0.103852	-0.000070
C40	C	-0.013592	0.396148	0.499930
C41	C	-0.562219	-0.035513	-0.000084
C42	C	-0.062219	0.464487	0.499916
C43	C	-0.641161	-0.036776	-0.000080
C44	C	-0.141161	0.463224	0.499920
C45	C	-0.243856	-0.030418	-0.000104
C46	C	0.256144	0.469582	0.499896
C47	C	-0.164908	-0.029160	-0.000106
C48	C	0.335092	0.470840	0.499894
C49	C	-0.146608	-0.167090	-0.000078
C50	C	0.353392	0.332910	0.499922
C51	C	-0.225550	-0.168353	-0.000074
C52	C	0.274450	0.331647	0.499926
C53	C	-0.274170	-0.100015	-0.000092
C54	C	0.225830	0.399985	0.499908
C55	C	-0.359769	-0.101384	-0.000082
C56	C	0.140231	0.398616	0.499918
C57	C	-0.427995	-0.102481	-0.000074
C58	C	0.072005	0.397519	0.499926
C59	C	-0.966656	0.169090	-0.000127
C60	C	-0.466656	0.669090	0.499873
C61	C	-0.965394	0.248033	-0.000128
C62	C	-0.465394	0.748033	0.499872
C63	C	-0.895798	0.278354	-0.000121
C64	C	-0.395798	0.778354	0.499879
C65	C	-0.827459	0.229727	-0.000105
C66	C	-0.327459	0.729727	0.499895
C67	C	-0.828722	0.150785	-0.000098
C68	C	-0.328722	0.650785	0.499902
C69	C	-0.822364	0.548090	-0.000132
C70	C	-0.322364	1.048090	0.499868
C71	C	-0.821106	0.627038	-0.000142
C72	C	-0.321106	1.127038	0.499858
C73	C	-0.959036	0.645338	-0.000163
C74	C	-0.459036	1.145338	0.499837
C75	C	-0.960299	0.566396	-0.000156
C76	C	-0.460299	1.066396	0.499844
C77	C	-0.891961	0.517776	-0.000135
C78	C	-0.391961	1.017776	0.499865
C79	C	-0.893330	0.432177	-0.000132
C80	C	-0.393330	0.932177	0.499868
C81	C	-0.894427	0.363951	-0.000130
C82	C	-0.394427	0.863951	0.499870
C83	C	-0.888102	0.759678	-0.000084
C84	C	-0.388102	1.259678	0.499916
C85	C	-0.889440	0.675660	-0.000150
C86	C	-0.389440	1.175660	0.499850
C87	C	-0.939721	-0.147765	-0.781291
C88	C	-0.439721	0.352235	-0.281291
C89	C	-0.939713	-0.147772	-0.702043
C90	C	-0.439713	0.352228	-0.202043
C91	C	-0.893898	-0.101926	-0.662426
C92	C	-0.393898	0.398074	-0.162426
C93	C	-0.848072	-0.056083	-0.702062
C94	C	-0.348072	0.443917	-0.202062
C95	C	-0.848075	-0.056082	-0.781309
C96	C	-0.348075	0.443918	-0.281309
N97	N	-0.891985	-0.035624	-0.538012
N98	N	-0.391985	0.464376	-0.038012
N99	N	-0.891986	-0.035626	-0.462732
N100	N	-0.391986	0.464374	0.037268
C101	C	-0.893884	-0.101926	-0.423662
C102	C	-0.393884	0.398074	0.076338
N103	N	-0.895796	-0.168223	-0.462716
N104	N	-0.395796	0.331777	0.037284
N105	N	-0.895799	-0.168219	-0.538004
N106	N	-0.395799	0.331781	-0.038004
C107	C	-0.893889	-0.101921	-0.576497
C108	C	-0.393889	0.398079	-0.076497
C109	C	-0.939695	-0.147778	-0.298106
C110	C	-0.439695	0.352222	0.201894
C111	C	-0.939682	-0.147787	-0.218857
C112	C	-0.439682	0.352213	0.281143
C113	C	-0.848045	-0.056090	-0.218877
C114	C	-0.348045	0.443910	0.281123
C115	C	-0.848053	-0.056088	-0.298125
C116	C	-0.348053	0.443912	0.201875
C117	C	-0.893883	-0.101931	-0.337734
C118	C	-0.393883	0.398069	0.162266
N119	N	-0.893904	-0.101925	0.179082
N120	N	-0.393904	0.398075	0.679082
H121	H	-0.504328	-0.229092	-0.000044
H122	H	-0.004328	0.270908	0.499956
H123	H	-1.014680	0.684934	-0.000175
H124	H	-0.514680	1.184934	0.499825
O125	O	-0.984125	-0.192341	-0.819852
O126	O	-0.484125	0.307659	-0.319852
C127	C	-0.937884	-0.244060	-0.865671
C128	C	-0.437884	0.255940	-0.365671
H129	H	-0.881771	-0.220581	-0.877548
H130	H	-0.381771	0.279419	-0.377548
H131	H	-0.968294	-0.252449	-0.921395
H132	H	-0.468294	0.247551	-0.421395
H133	H	-0.926195	-0.300969	-0.835123
H134	H	-0.426195	0.199031	-0.335123
O135	O	-0.652342	-0.242299	0.000108
O136	O	-0.152342	0.257701	0.500108
C137	C	-0.697468	-0.247148	0.065306
C138	C	-0.197468	0.252852	0.565306
H139	H	-0.678871	-0.207628	0.110870
H140	H	-0.178871	0.292372	0.610870
H141	H	-0.690264	-0.308159	0.087204
H142	H	-0.190264	0.191841	0.587204
H143	H	-0.759757	-0.229581	0.050566
H144	H	-0.259757	0.270419	0.550566
H145	H	-0.250232	-0.225025	-0.000057
H146	H	0.249768	0.274975	0.499943
H147	H	-0.977008	-0.185109	-0.330357
H148	H	-0.477008	0.314891	0.169643
H149	H	-0.107012	-0.222734	-0.000068
H150	H	0.392988	0.277266	0.499932
O151	O	-0.984261	-0.192339	-0.180478
O152	O	-0.484261	0.307661	0.319522
C153	C	-1.024695	-0.232810	-0.232435
C154	C	-0.524695	0.267190	0.267565
H155	H	-1.029171	-0.201470	-0.288928
H156	H	-0.529171	0.298530	0.211072
H157	H	-1.084198	-0.237424	-0.209533
H158	H	-0.584198	0.262576	0.290467
H159	H	-0.993413	-0.292263	-0.240859
H160	H	-0.493413	0.207737	0.259141
O161	O	-0.135580	0.038516	-0.000160
O162	O	0.364420	0.538516	0.499840
C163	C	-0.195420	0.098564	-0.000158
C164	C	0.304580	0.598564	0.499842
H165	H	-0.249011	0.077447	-0.023986
H166	H	0.250989	0.577447	0.476014
H167	H	-0.179008	0.147157	-0.036723
H168	H	0.320992	0.647157	0.463277
H169	H	-0.206629	0.119643	0.060235
H170	H	0.293371	0.619643	0.560235
O171	O	-0.291153	0.035915	-0.000011
O172	O	0.208847	0.535915	0.499989
C173	C	-0.337348	0.039325	0.065203
C174	C	0.162652	0.539325	0.565203
H175	H	-0.341235	-0.020742	0.086949
H176	H	0.158765	0.479258	0.586949
H177	H	-0.396731	0.067635	0.050538
H178	H	0.103269	0.567635	0.550538
H179	H	-0.311433	0.073840	0.110855
H180	H	0.188567	0.573840	0.610855
H181	H	-1.023330	0.144409	-0.000137
H182	H	-0.523330	0.644409	0.499863
H183	H	-0.770792	0.254420	-0.000095
H184	H	-0.270792	0.754420	0.499905
H185	H	-0.810736	-0.018766	-0.186621
H186	H	-0.310736	0.481234	0.313379
O187	O	-0.762413	0.103444	-0.000053
O188	O	-0.262413	0.603444	0.499947
C189	C	-0.778450	0.027267	-0.000066
C190	C	-0.278450	0.527267	0.499934
H191	H	-0.837897	0.024351	0.023761
H192	H	-0.337897	0.524351	0.523761
H193	H	-0.734891	-0.008582	0.036496
H194	H	-0.234891	0.491418	0.536496
H195	H	-0.775531	0.004432	-0.060462
H196	H	-0.275531	0.504432	0.439538
H197	H	-0.810767	-0.018756	-0.669801
H198	H	-0.310767	0.481244	-0.169801
H199	H	-0.810748	-0.018757	-0.330389
H200	H	-0.310748	0.481243	0.169611
O201	O	-0.984294	-0.192321	-0.663656
O202	O	-0.484294	0.307679	-0.163656
C203	C	-1.024728	-0.232798	-0.715610
C204	C	-0.524728	0.267202	-0.215610
H205	H	-1.029202	-0.201463	-0.772106
H206	H	-0.529202	0.298537	-0.272106
H207	H	-1.084232	-0.237407	-0.692708
H208	H	-0.584232	0.262593	-0.192708
H209	H	-0.993446	-0.292251	-0.724027
H210	H	-0.493446	0.207749	-0.224027
O211	O	-0.532731	0.032074	0.000034
O212	O	-0.032731	0.532074	0.500034
C213	C	-0.487599	0.036925	0.065225
C214	C	0.012401	0.536925	0.565225
H215	H	-0.506196	-0.002589	0.110806
H216	H	-0.006196	0.497411	0.610806
H217	H	-0.494798	0.097938	0.087100
H218	H	0.005202	0.597938	0.587100
H219	H	-0.425312	0.019352	0.050485
H220	H	0.074688	0.519352	0.550485
H221	H	-0.680748	0.018868	-0.000089
H222	H	-0.180748	0.518868	0.499911
O223	O	-0.755913	0.500975	-0.000156
O224	O	-0.255913	1.000975	0.499844
C225	C	-0.694218	0.544668	-0.000139
C226	C	-0.194218	1.044668	0.499861
H227	H	-0.713540	0.603625	-0.023979
H228	H	-0.213540	1.103625	0.476021
H229	H	-0.646345	0.515464	-0.036686
H230	H	-0.146345	1.015464	0.463314
H231	H	-0.672881	0.550247	0.060261
H232	H	-0.172881	1.050247	0.560261
H233	H	-1.021038	0.287618	-0.000141
H234	H	-0.521038	0.787618	0.499859
O235	O	-0.753515	0.656528	-0.000262
O236	O	-0.253515	1.156528	0.499738
C237	C	-0.748652	0.701660	-0.065459
C238	C	-0.248652	1.201660	0.434541
H239	H	-0.788155	0.683061	-0.111041
H240	H	-0.288155	1.183061	0.388959
H241	H	-0.687635	0.694466	-0.087329
H242	H	-0.187635	1.194466	0.412671
H243	H	-0.766232	0.763947	-0.050729
H244	H	-0.266232	1.263947	0.449271
H245	H	-0.810764	-0.018753	-0.813572
H246	H	-0.310764	0.481247	-0.313572
H247	H	-1.016971	0.541714	-0.000165
H248	H	-0.516971	1.041714	0.499835
