data_functionalizedCrystal
_audit_creation_method	'MofGen! by Chris Wilmer'
_symmetry_space_group_name_H-M	'P1'
_symmetry_Int_Tables_number	1
_symmetry_cell_setting	triclinic
loop_
_symmetry_equiv_pos_as_xyz
  x,y,z
_cell_length_a	16.120484
_cell_length_b	16.120530
_cell_length_c	16.120297
_cell_angle_alpha	90.128140
_cell_angle_beta	84.385569
_cell_angle_gamma	89.832673
loop_
_atom_site_label
_atom_site_type_symbol
_atom_site_fract_x
_atom_site_fract_y
_atom_site_fract_z
Zn1	Zn	-0.422264	-1.224987	0.554813
Zn2	Zn	-0.172264	-0.974987	0.804813
Zn3	Zn	0.077736	-0.724987	1.054813
Zn4	Zn	0.327736	-0.474987	1.304813
Zn5	Zn	-0.554948	-1.224883	0.422118
Zn6	Zn	-0.304948	-0.974883	0.672118
Zn7	Zn	-0.054948	-0.724883	0.922118
Zn8	Zn	0.195052	-0.474883	1.172118
Zn9	Zn	-0.408180	-1.093726	0.408056
Zn10	Zn	-0.158180	-0.843726	0.658056
Zn11	Zn	0.091820	-0.593726	0.908056
Zn12	Zn	0.341820	-0.343726	1.158056
Zn13	Zn	-0.554181	-1.078880	0.554051
Zn14	Zn	-0.304181	-0.828880	0.804051
Zn15	Zn	-0.054181	-0.578880	1.054051
Zn16	Zn	0.195819	-0.328880	1.304051
O17	O	-0.484893	-1.155619	0.484760
O18	O	-0.234893	-0.905619	0.734760
O19	O	0.015107	-0.655619	0.984760
O20	O	0.265107	-0.405619	1.234760
O21	O	-0.446081	-1.341009	0.543415
O22	O	-0.196081	-1.091009	0.793415
O23	O	0.053919	-0.841009	1.043415
O24	O	0.303919	-0.591009	1.293415
O25	O	-0.529906	-1.213654	0.303620
O26	O	-0.279906	-0.963654	0.553620
O27	O	-0.029906	-0.713654	0.803620
O28	O	0.220094	-0.463654	1.053620
O29	O	-0.293418	-1.117395	0.421958
O30	O	-0.043418	-0.867395	0.671958
O31	O	0.206582	-0.617395	0.921958
O32	O	0.456582	-0.367395	1.171958
O33	O	-0.543563	-1.340932	0.445925
O34	O	-0.293563	-1.090932	0.695925
O35	O	-0.043563	-0.840932	0.945925
O36	O	0.206437	-0.590932	1.195925
O37	O	-0.303765	-1.213832	0.529780
O38	O	-0.053765	-0.963832	0.779780
O39	O	0.196235	-0.713832	1.029780
O40	O	0.446235	-0.463832	1.279780
O41	O	-0.422076	-1.117294	0.293289
O42	O	-0.172076	-0.867294	0.543289
O43	O	0.077924	-0.617294	0.793289
O44	O	0.327924	-0.367294	1.043289
O45	O	-0.421332	-0.975721	0.421218
O46	O	-0.171332	-0.725721	0.671218
O47	O	0.078668	-0.475721	0.921218
O48	O	0.328668	-0.225721	1.171218
O49	O	-0.542255	-1.092092	0.670785
O50	O	-0.292255	-0.842092	0.920785
O51	O	-0.042255	-0.592092	1.170785
O52	O	0.207745	-0.342092	1.420785
O53	O	-0.528598	-0.964814	0.528480
O54	O	-0.278598	-0.714814	0.778480
O55	O	-0.028598	-0.464814	1.028480
O56	O	0.221402	-0.214814	1.278480
O57	O	-0.445336	-1.199436	0.671345
O58	O	-0.195336	-0.949436	0.921345
O59	O	0.054664	-0.699436	1.171345
O60	O	0.304664	-0.449436	1.421345
O61	O	-0.671477	-1.199258	0.445185
O62	O	-0.421477	-0.949258	0.695185
O63	O	-0.171477	-0.699258	0.945185
O64	O	0.078523	-0.449258	1.195185
O65	O	-0.670913	-1.091990	0.542116
O66	O	-0.420913	-0.841990	0.792116
O67	O	-0.170913	-0.591990	1.042116
O68	O	0.079087	-0.341990	1.292116
C69	C	-0.701438	-1.144023	0.495113
C70	C	-0.451438	-0.894023	0.745113
C71	C	-0.201438	-0.644023	0.995113
C72	C	0.048562	-0.394023	1.245113
C73	C	-0.794083	-1.139137	0.499574
C74	C	-0.544083	-0.889137	0.749574
C75	C	-0.294083	-0.639137	0.999574
C76	C	-0.044083	-0.389137	1.249574
C77	C	-0.473354	-0.940181	0.473241
C78	C	-0.223354	-0.690181	0.723241
C79	C	0.026646	-0.440181	0.973241
C80	C	0.276646	-0.190181	1.223241
C81	C	-0.468438	-0.848013	0.468334
C82	C	-0.218438	-0.598013	0.718334
C83	C	0.031562	-0.348013	0.968334
C84	C	0.281562	-0.098013	1.218334
C85	C	-0.963706	-1.130220	0.507736
C86	C	-0.713706	-0.880220	0.757736
C87	C	-0.463706	-0.630220	1.007736
C88	C	-0.213706	-0.380220	1.257736
C89	C	-1.005249	-1.181166	0.461804
C90	C	-0.755249	-0.931166	0.711804
C91	C	-0.505249	-0.681166	0.961804
C92	C	-0.255249	-0.431166	1.211804
C93	C	-1.099633	-1.176204	0.466346
C94	C	-0.849633	-0.926204	0.716346
C95	C	-0.599633	-0.676204	0.966346
C96	C	-0.349633	-0.426204	1.216346
C97	C	-0.869313	-1.135180	0.503196
C98	C	-0.619313	-0.885180	0.753196
C99	C	-0.369313	-0.635180	1.003196
C100	C	-0.119313	-0.385180	1.253196
C101	C	-0.495281	-1.144119	0.702152
C102	C	-0.245281	-0.894119	0.952152
C103	C	0.004719	-0.644119	1.202152
C104	C	0.254719	-0.394119	1.452152
C105	C	-0.499708	-1.139219	0.794791
C106	C	-0.249708	-0.889219	1.044791
C107	C	0.000292	-0.639219	1.294791
C108	C	0.250292	-0.389219	1.544791
C109	C	-0.267505	-1.167282	0.474385
C110	C	-0.017505	-0.917282	0.724385
C111	C	0.232495	-0.667282	0.974385
C112	C	0.482495	-0.417282	1.224385
C113	C	-0.174867	-1.172251	0.469964
C114	C	0.075133	-0.922251	0.719964
C115	C	0.325133	-0.672251	0.969964
C116	C	0.575133	-0.422251	1.219964
C117	C	-0.496479	-1.371899	0.496324
C118	C	-0.246479	-1.121899	0.746324
C119	C	0.003521	-0.871899	0.996324
C120	C	0.253521	-0.621899	1.246324
C121	C	-0.501416	-1.464064	0.501252
C122	C	-0.251416	-1.214064	0.751252
C123	C	-0.001416	-0.964064	1.001252
C124	C	0.248584	-0.714064	1.251252
C125	C	-0.459445	-0.679262	0.459381
C126	C	-0.209445	-0.429262	0.709381
C127	C	0.040555	-0.179262	0.959381
C128	C	0.290555	0.070738	1.209381
C129	C	-0.510407	-0.632810	0.510202
C130	C	-0.260407	-0.382810	0.760202
C131	C	-0.010407	-0.132810	1.010202
C132	C	0.239593	0.117190	1.260202
C133	C	-0.505403	-0.538911	0.505220
C134	C	-0.255403	-0.288911	0.755220
C135	C	-0.005403	-0.038911	1.005220
C136	C	0.244597	0.211089	1.255220
C137	C	-0.464448	-0.773169	0.464361
C138	C	-0.214448	-0.523169	0.714361
C139	C	0.035552	-0.273169	0.964361
C140	C	0.285552	-0.023169	1.214361
C141	C	-0.474489	-1.167125	0.268213
C142	C	-0.224489	-0.917125	0.518213
C143	C	0.025511	-0.667125	0.768213
C144	C	0.275511	-0.417125	1.018213
C145	C	-0.469836	-1.172198	0.175571
C146	C	-0.219836	-0.922198	0.425571
C147	C	0.030164	-0.672198	0.675571
C148	C	0.280164	-0.422198	0.925571
C149	C	-0.507770	-1.130243	0.964403
C150	C	-0.257770	-0.880243	1.214403
C151	C	-0.007770	-0.630243	1.464403
C152	C	0.242230	-0.380243	1.714403
C153	C	-0.461776	-1.181172	1.005965
C154	C	-0.211776	-0.931172	1.255965
C155	C	0.038224	-0.681172	1.505965
C156	C	0.288224	-0.431172	1.755965
C157	C	-0.466262	-1.176177	1.100342
C158	C	-0.216262	-0.926177	1.350342
C159	C	0.033738	-0.676177	1.600342
C160	C	0.283738	-0.426177	1.850342
C161	C	-0.503285	-1.135236	0.870017
C162	C	-0.253285	-0.885236	1.120017
C163	C	-0.003285	-0.635236	1.370017
C164	C	0.246715	-0.385236	1.620017
H165	H	-0.999022	-1.082881	0.550467
H166	H	-0.749022	-0.832881	0.800467
H167	H	-0.499022	-0.582881	1.050467
H168	H	-0.249022	-0.332881	1.300467
H169	H	-0.550512	-1.082894	0.999698
H170	H	-0.300512	-0.832894	1.249698
H171	H	-0.050512	-0.582894	1.499698
H172	H	0.199488	-0.332894	1.749698
H173	H	-0.969931	-1.228508	0.419069
H174	H	-0.719931	-0.978508	0.669069
H175	H	-0.469931	-0.728508	0.919069
H176	H	-0.219931	-0.478508	1.169069
O177	O	-0.566921	-0.669624	0.566497
O178	O	-0.316921	-0.419624	0.816497
O179	O	-0.066921	-0.169624	1.066497
O180	O	0.183079	0.080376	1.316497
C181	C	-0.559392	-0.756542	0.559010
C182	C	-0.309392	-0.506542	0.809010
C183	C	-0.059392	-0.256542	1.059010
C184	C	0.190608	-0.006542	1.309010
H185	H	-0.529532	-0.773118	0.494034
H186	H	-0.279532	-0.523118	0.744034
H187	H	-0.029532	-0.273118	0.994034
H188	H	0.220468	-0.023118	1.244034
H189	H	-0.623820	-0.785900	0.569258
H190	H	-0.373820	-0.535900	0.819258
H191	H	-0.123820	-0.285900	1.069258
H192	H	0.126180	-0.035900	1.319258
H193	H	-0.518739	-0.780893	0.607683
H194	H	-0.268739	-0.530893	0.857683
H195	H	-0.018739	-0.280893	1.107683
H196	H	0.231261	-0.030893	1.357683
H197	H	-0.412060	-0.648511	0.412135
H198	H	-0.162060	-0.398511	0.662135
H199	H	0.087940	-0.148511	0.912135
H200	H	0.337940	0.101489	1.162135
H201	H	-0.419031	-1.228524	0.970668
H202	H	-0.169031	-0.978524	1.220668
H203	H	0.080969	-0.728524	1.470668
H204	H	0.330969	-0.478524	1.720668
