data_functionalizedCrystal
_audit_creation_method	'MofGen! by Chris Wilmer'
_symmetry_space_group_name_H-M	'P1'
_symmetry_Int_Tables_number	1
_symmetry_cell_setting	triclinic
loop_
_symmetry_equiv_pos_as_xyz
  x,y,z
_cell_length_a	10.686220
_cell_length_b	12.827892
_cell_length_c	10.685986
_cell_angle_alpha	94.408508
_cell_angle_beta	80.968697
_cell_angle_gamma	94.396976
loop_
_atom_site_label
_atom_site_type_symbol
_atom_site_fract_x
_atom_site_fract_y
_atom_site_fract_z
Zn1	Zn	1.885520	-0.259861	0.569031
Zn2	Zn	1.901650	-0.447107	0.356798
Zn3	Zn	1.689520	-0.284840	0.373062
Zn4	Zn	1.673248	-0.447032	0.585242
O5	O	1.787484	-0.359710	0.471033
O6	O	2.065274	-0.274276	0.527287
O7	O	1.887071	-0.436067	0.181337
O8	O	1.715579	-0.135285	0.399080
O9	O	2.077125	-0.411845	0.371360
O10	O	1.859579	-0.116933	0.543058
O11	O	1.731220	-0.316850	0.193286
O12	O	1.509747	-0.316778	0.414799
O13	O	1.687845	-0.411719	0.760710
O14	O	1.497792	-0.435940	0.570687
O15	O	1.843801	-0.274204	0.748800
O16	O	1.871293	-0.593338	0.387079
O17	O	1.703486	-0.593283	0.554916
C18	C	1.457716	-0.379062	0.496267
C19	C	1.316637	-0.387365	0.507093
C20	C	1.787407	-0.631226	0.471017
C21	C	1.787486	-0.747372	0.471043
C22	C	1.870607	-0.799139	0.388071
C23	C	1.870692	-0.919182	0.388097
C24	C	2.118541	-0.340283	0.445701
C25	C	2.259617	-0.332004	0.434907
C26	C	1.762209	-0.340167	0.802098
C27	C	1.751438	-0.331839	0.943177
C28	C	1.787595	-0.087130	0.471075
C29	C	1.787642	0.029027	0.471092
C30	C	1.812735	-0.379097	0.141251
C31	C	1.823751	-0.387117	0.000153
H32	H	1.318729	-0.278256	0.364822
O33	O	1.955644	-0.972126	0.303224
C34	C	2.129143	-0.960806	0.130032
C35	C	2.032982	-0.900718	0.226064
H36	H	2.191713	-0.903097	0.067641
H37	H	2.076039	-1.019278	0.068050
H38	H	2.190926	-1.004532	0.183383
H39	H	1.971173	-0.856931	0.172817
H40	H	2.086164	-0.842307	0.288043
H41	H	1.257519	-0.441123	0.577173
O42	O	1.667574	-0.267848	1.013613
C43	C	1.448604	-0.227452	1.070999
C44	C	1.543443	-0.299981	0.991144
H45	H	1.348222	-0.253419	1.052881
H46	H	1.472783	-0.143384	1.043301
H47	H	1.454598	-0.231902	1.176014
H48	H	1.537500	-0.295623	0.886108
H49	H	1.519234	-0.384018	1.018948
H50	H	1.941714	-0.754589	0.317020
O51	O	1.702909	-0.917812	0.555968
C52	C	1.672677	-0.785269	0.728412
C53	C	1.768772	-0.845423	0.632380
H54	H	1.725890	-0.726713	0.790198
H55	H	1.610176	-0.842885	0.790998
H56	H	1.610812	-0.741625	0.675062
H57	H	1.830722	-0.889069	0.685625
H58	H	1.831184	-0.787756	0.569796
O59	O	1.702488	-0.800412	0.555768
C60	C	1.481913	-0.843258	0.633649
C61	C	1.578036	-0.783124	0.537646
H62	H	1.381272	-0.829320	0.619013
H63	H	1.496156	-0.814449	0.734364
H64	H	1.497159	-0.930594	0.618584
H65	H	1.562848	-0.695778	0.552595
H66	H	1.563768	-0.812019	0.436966
O67	O	1.907338	-0.451159	0.929409
C68	C	1.994737	-0.518042	0.719560
C69	C	1.900001	-0.445492	0.799535
H70	H	1.988856	-0.513468	0.614541
H71	H	1.970457	-0.602131	0.747140
H72	H	2.095108	-0.492178	0.737801
H73	H	1.799597	-0.471261	0.781337
H74	H	1.924390	-0.361419	0.771941
