data_functionalizedCrystal
_audit_creation_method	'MofGen! by Chris Wilmer'
_symmetry_space_group_name_H-M	'P1'
_symmetry_Int_Tables_number	1
_symmetry_cell_setting	triclinic
loop_
_symmetry_equiv_pos_as_xyz
  x,y,z
_cell_length_a	19.188930
_cell_length_b	19.188930
_cell_length_c	10.268362
_cell_angle_alpha	89.989600
_cell_angle_beta	89.981535
_cell_angle_gamma	83.144779
loop_
_atom_site_label
_atom_site_type_symbol
_atom_site_fract_x
_atom_site_fract_y
_atom_site_fract_z
O1	O	0.926145	0.087168	-0.108733
O2	O	0.722834	0.098902	-0.108646
O3	O	0.830356	-0.008620	-0.108667
O4	O	0.818622	0.194691	-0.108713
O5	O	0.830347	-0.008625	0.107934
O6	O	0.722824	0.098898	0.107955
O7	O	0.926136	0.087164	0.107867
Cu8	Cu	0.824479	0.093031	0.127688
Cu9	Cu	0.824490	0.093036	-0.128467
O10	O	0.818613	0.194687	0.107888
C11	C	0.696818	0.098520	-0.000334
C12	C	0.619313	0.097380	-0.000300
C13	C	0.574389	0.160470	-0.000334
C14	C	0.501566	0.159399	-0.000349
C15	C	0.473669	0.095233	-0.000354
C16	C	0.518603	0.032133	-0.000312
C17	C	0.591425	0.033207	-0.000285
N18	N	0.365692	0.046187	-0.074114
N19	N	0.296513	0.045172	-0.074143
C20	C	0.254260	0.091994	-0.000433
N21	N	0.283798	0.139882	0.073290
N22	N	0.352983	0.140899	0.073313
C23	C	0.394707	0.094062	-0.000383
C24	C	0.130372	0.153928	-0.000481
C25	C	0.057547	0.152853	-0.000487
C26	C	0.074586	0.025586	-0.000464
C27	C	0.147409	0.026662	-0.000445
C28	C	0.175298	0.090835	-0.000460
C29	C	0.829972	-0.034634	-0.000363
C30	C	0.828831	-0.112138	-0.000351
C31	C	0.891922	-0.157062	-0.000372
C32	C	0.890850	-0.229886	-0.000392
C33	C	0.826684	-0.257782	-0.000366
C34	C	0.763585	-0.212849	-0.000352
C35	C	0.764658	-0.140026	-0.000345
N36	N	0.777634	-0.365789	0.073369
N37	N	0.776618	-0.434967	0.073365
C38	C	0.823446	-0.477191	-0.000391
N39	N	0.871338	-0.447624	-0.074125
N40	N	0.872356	-0.378439	-0.074115
C41	C	0.825513	-0.336745	-0.000374
C42	C	0.885379	-0.601079	-0.000435
C43	C	0.884305	-0.673904	-0.000464
C44	C	0.757038	-0.656865	-0.000411
C45	C	0.758114	-0.584042	-0.000395
C46	C	0.822286	-0.556154	-0.000401
C47	C	0.952151	0.087546	-0.000448
C48	C	1.029656	0.088687	-0.000490
C49	C	0.818997	0.220700	-0.000419
C50	C	0.820138	0.298204	-0.000439
N51	N	0.824476	0.093026	0.307854
N52	N	0.824498	0.093034	-0.308633
C53	C	0.824487	0.093034	0.573525
C54	C	0.824479	0.093032	0.425687
H55	H	0.628003	-0.018171	-0.000257
H56	H	0.937632	-0.578372	-0.000446
H57	H	0.464982	0.210776	-0.000373
C58	C	0.106218	0.279617	-0.000492
C59	C	0.161033	0.224464	-0.000477
H60	H	0.125147	0.323162	-0.000481
H61	H	0.078190	0.276555	-0.076028
H62	H	0.078150	0.276542	0.075040
H63	H	0.189098	0.227536	-0.076014
H64	H	0.189073	0.227527	0.075067
C65	C	0.414536	-0.026019	-0.000367
C66	C	0.487942	-0.038399	-0.000326
H67	H	0.395609	-0.069566	-0.000379
H68	H	0.399083	-0.000057	0.075152
H69	H	0.399132	-0.000047	-0.075916
H70	H	0.503346	-0.064367	0.075229
H71	H	0.503401	-0.064372	-0.075852
H72	H	0.020970	0.204232	-0.000508
H73	H	0.183988	-0.024713	-0.000424
H74	H	0.711340	-0.235567	-0.000333
C75	C	0.956942	-0.765657	-0.111857
C76	C	0.953662	-0.723286	-0.000497
H77	H	0.999763	-0.796140	-0.111880
H78	H	0.918579	-0.792691	-0.111844
H79	H	0.954719	-0.736874	-0.187373
H80	H	0.955879	-0.752069	0.075019
H81	H	0.992035	-0.696250	-0.000498
C82	C	-0.029475	-0.032568	-0.000510
C83	C	0.043931	-0.044948	-0.000477
H84	H	-0.048401	-0.076115	-0.000524
H85	H	-0.044926	-0.006608	0.075012
H86	H	-0.044882	-0.006594	-0.076055
H87	H	0.059338	-0.070917	0.075074
H88	H	0.059388	-0.070918	-0.076007
H89	H	0.704792	-0.679578	-0.000395
H90	H	0.706738	-0.547464	-0.000371
C91	C	1.016756	-0.239421	-0.000410
C92	C	0.960204	-0.279278	-0.000406
H93	H	1.059571	-0.269913	-0.000409
H94	H	1.014539	-0.210658	-0.075938
H95	H	1.014516	-0.210668	0.075130
H96	H	0.962441	-0.308027	-0.075951
H97	H	0.962423	-0.308053	0.075130
H98	H	0.713281	-0.103448	-0.000327
C99	C	0.550227	0.286159	-0.000356
C100	C	0.605043	0.231008	-0.000329
H101	H	0.569154	0.329705	-0.000342
H102	H	0.522203	0.283096	-0.075898
H103	H	0.522154	0.283084	0.075170
H104	H	0.633113	0.234080	-0.075860
H105	H	0.633079	0.234073	0.075220
H106	H	0.944176	-0.134360	-0.000381
