data_functionalizedCrystal
_audit_creation_method	'MofGen! by Chris Wilmer'
_symmetry_space_group_name_H-M	'P1'
_symmetry_Int_Tables_number	1
_symmetry_cell_setting	triclinic
loop_
_symmetry_equiv_pos_as_xyz
  x,y,z
_cell_length_a	23.532407
_cell_length_b	26.809956
_cell_length_c	23.532407
_cell_angle_alpha	89.990736
_cell_angle_beta	97.151322
_cell_angle_gamma	90.010714
loop_
_atom_site_label
_atom_site_type_symbol
_atom_site_fract_x
_atom_site_fract_y
_atom_site_fract_z
O1	O	0.755269	0.041422	-0.069133
O2	O	0.589406	0.041438	-0.079137
O3	O	0.677339	0.041420	0.008797
O4	O	0.667336	0.041440	-0.157067
O5	O	0.677312	-0.041539	0.008797
O6	O	0.589379	-0.041522	-0.079137
O7	O	0.755242	-0.041537	-0.069133
Zn8	Zn	0.672306	-0.054701	-0.074135
Zn9	Zn	0.672342	0.054602	-0.074135
O10	O	0.667309	-0.041520	-0.157067
C11	C	0.568176	-0.000040	-0.078882
C12	C	0.504959	-0.000035	-0.078116
N13	N	0.672286	-0.129297	-0.074135
C14	C	0.105856	-0.000052	-0.125350
C15	C	0.046456	-0.000055	-0.124638
O16	O	0.009711	-0.000068	-0.168424
N17	N	0.023830	-0.000060	-0.072362
C18	C	0.060607	-0.000067	-0.020794
O19	O	0.035908	-0.000072	0.023737
C20	C	0.120006	-0.000068	-0.021506
C21	C	0.142629	-0.000057	-0.073785
C22	C	0.128479	-0.000042	-0.177625
C23	C	0.187876	-0.000038	-0.178336
C24	C	0.224649	-0.000044	-0.126772
C25	C	0.202025	-0.000053	-0.074497
C26	C	0.156783	-0.000078	0.030062
C27	C	0.216185	-0.000079	0.029345
C28	C	0.238808	-0.000069	-0.022934
C29	C	0.298194	-0.000055	-0.023643
N30	N	0.320820	-0.000050	-0.075920
C31	C	0.284048	-0.000044	-0.127484
C32	C	-0.064135	-0.000067	-0.019302
C33	C	-0.123533	-0.000063	-0.018589
C34	C	-0.137680	-0.000052	-0.122434
C35	C	-0.078281	-0.000052	-0.123146
C36	C	-0.041509	-0.000062	-0.071578
C37	C	0.408784	-0.000035	-0.128974
C38	C	0.468186	-0.000029	-0.129680
C39	C	0.482329	-0.000043	-0.025836
C40	C	0.422932	-0.000047	-0.025129
C41	C	0.386160	-0.000044	-0.076702
O42	O	0.334974	-0.000044	0.020119
O43	O	0.308755	-0.000045	-0.172007
C44	C	0.706678	-0.473922	-0.108495
C45	C	0.706697	-0.682800	-0.108495
O46	O	0.735923	-0.709803	-0.137703
N47	N	0.672355	-0.708924	-0.074129
C48	C	0.638010	-0.682825	-0.039759
O49	O	0.608805	-0.709838	-0.010524
C50	C	0.637995	-0.473949	-0.039756
C51	C	0.672334	-0.447827	-0.074129
C52	C	0.741015	-0.447801	-0.142864
C53	C	0.741008	-0.395584	-0.142866
C54	C	0.706664	-0.369489	-0.108500
C55	C	0.672327	-0.395611	-0.074131
C56	C	0.603653	-0.447851	-0.005383
C57	C	0.603653	-0.395629	-0.005384
C58	C	0.637993	-0.369507	-0.039757
C59	C	0.637975	-0.317300	-0.039766
N60	N	0.672317	-0.291176	-0.074132
C61	C	0.706661	-0.317270	-0.108498
C62	C	0.638019	-0.792489	-0.039763
C63	C	0.638022	-0.844708	-0.039764
C64	C	0.706710	-0.844678	-0.108500
C65	C	0.706704	-0.792458	-0.108501
C66	C	0.672361	-0.766365	-0.074129
C67	C	0.706643	-0.207612	-0.108501
C68	C	0.706630	-0.155392	-0.108501
C69	C	0.637945	-0.155425	-0.039764
C70	C	0.637955	-0.207642	-0.039765
C71	C	0.672308	-0.233734	-0.074135
O72	O	0.608769	-0.290264	-0.010568
O73	O	0.735870	-0.290248	-0.137719
C74	C	0.706686	-0.526138	-0.108493
C75	C	0.672349	-0.552260	-0.074124
C76	C	0.638005	-0.526165	-0.039758
C77	C	0.672352	-0.604479	-0.074126
C78	C	0.706696	-0.630574	-0.108492
C79	C	0.741037	-0.604449	-0.142858
C80	C	0.741030	-0.552233	-0.142860
C81	C	0.603663	-0.552289	-0.005392
C82	C	0.603673	-0.604505	-0.005393
C83	C	0.638017	-0.630600	-0.039760
C84	C	0.776472	-0.000058	-0.069388
C85	C	0.839689	-0.000060	-0.070154
C86	C	0.677071	-0.000060	0.030013
C87	C	0.676305	-0.000064	0.093230
N88	N	0.672366	0.129198	-0.074131
C89	C	0.667577	-0.000038	-0.178283
C90	C	0.668343	-0.000031	-0.241500
C91	C	0.723539	-0.000041	0.492333
C92	C	0.722827	-0.000037	0.551733
O93	O	0.766613	-0.000023	0.588478
N94	N	0.670551	-0.000033	0.574359
C95	C	0.618983	-0.000027	0.537582
O96	O	0.574452	-0.000023	0.562281
C97	C	0.619695	-0.000027	0.478182
C98	C	0.671974	-0.000037	0.455560
C99	C	0.775814	-0.000050	0.469710
C100	C	0.776525	-0.000055	0.410313
C101	C	0.724961	-0.000051	0.373540
C102	C	0.672685	-0.000042	0.396164
C103	C	0.568127	-0.000018	0.441406
C104	C	0.568844	-0.000018	0.382004
C105	C	0.621123	-0.000028	0.359381
C106	C	0.621832	-0.000042	0.299995
N107	N	0.674109	-0.000047	0.277368
C108	C	0.725673	-0.000051	0.314141
C109	C	0.617491	-0.000026	0.662324
C110	C	0.616778	-0.000029	0.721722
C111	C	0.720623	-0.000038	0.735869
C112	C	0.721335	-0.000039	0.676470
C113	C	0.669767	-0.000030	0.639698
C114	C	0.727163	-0.000062	0.189405
C115	C	0.727869	-0.000068	0.130003
C116	C	0.624025	-0.000057	0.115860
C117	C	0.623318	-0.000052	0.175257
C118	C	0.674891	-0.000053	0.212029
O119	O	0.578070	-0.000055	0.263215
O120	O	0.770196	-0.000049	0.289433
H121	H	0.486602	-0.000020	-0.172255
H122	H	0.575687	-0.374386	0.022607
H123	H	0.526850	-0.000011	0.352066
Cl124	Cl	-0.151965	-0.000064	0.047136
H125	H	0.610053	-0.865971	-0.011782
Cl126	Cl	0.791999	-0.000063	0.235622
H127	H	0.768992	-0.530970	-0.170849
H128	H	0.734593	-0.134126	-0.136494
Cl129	Cl	0.528568	-0.000052	0.038984
Cl130	Cl	0.749829	-0.240406	-0.151710
H131	H	0.098544	-0.000039	-0.219617
Cl132	Cl	0.793597	-0.000079	0.101567
Cl133	Cl	0.840647	-0.000056	0.515929
H134	H	0.763906	-0.000046	0.658056
Cl135	Cl	0.128358	-0.000083	0.095789
Cl136	Cl	0.557594	-0.000050	0.203698
H137	H	0.762610	-0.000040	0.765821
H138	H	0.575697	-0.531048	0.022595
Cl139	Cl	0.594780	-0.240481	0.003441
H140	H	0.574207	-0.000030	0.740136
H141	H	0.575496	-0.000023	0.632386
H142	H	0.610052	-0.771248	-0.011771
H143	H	0.378851	-0.000035	-0.170970
H144	H	-0.059867	-0.000047	-0.165717
H145	H	0.609981	-0.134170	-0.011785
Cl146	Cl	0.784196	-0.480596	-0.186075
Cl147	Cl	0.560496	-0.637337	0.037819
Cl148	Cl	0.502400	-0.000003	0.469831
H149	H	0.768998	-0.625705	-0.170843
H150	H	0.206289	-0.000029	-0.220908
Cl151	Cl	0.749887	-0.877493	-0.151701
Cl152	Cl	0.842252	-0.000053	0.381883
H153	H	0.734665	-0.771194	-0.136491
H154	H	-0.167632	-0.000050	-0.164421
H155	H	-0.034198	-0.000071	0.022693
H156	H	0.246123	-0.000088	0.071339
H157	H	0.404512	-0.000048	0.017441
H158	H	0.768973	-0.374321	-0.170853
H159	H	0.575691	-0.469110	0.022607
H160	H	0.582043	-0.000055	0.085909
