data_functionalizedCrystal
_audit_creation_method	'MofGen! by Chris Wilmer'
_symmetry_space_group_name_H-M	'P1'
_symmetry_Int_Tables_number	1
_symmetry_cell_setting	triclinic
loop_
_symmetry_equiv_pos_as_xyz
  x,y,z
_cell_length_a	19.077269
_cell_length_b	12.594516
_cell_length_c	19.076919
_cell_angle_alpha	87.724265
_cell_angle_beta	85.330942
_cell_angle_gamma	87.714783
loop_
_atom_site_label
_atom_site_type_symbol
_atom_site_fract_x
_atom_site_fract_y
_atom_site_fract_z
Zn1	Zn	1.061729	-0.509834	0.355289
Zn2	Zn	1.561729	-0.009834	0.855289
Zn3	Zn	1.066408	-0.680951	0.237415
Zn4	Zn	1.566408	-0.180951	0.737415
Zn5	Zn	0.948584	-0.496119	0.242156
Zn6	Zn	1.448584	0.003881	0.742156
Zn7	Zn	0.943839	-0.680897	0.359998
Zn8	Zn	1.443839	-0.180897	0.859998
O9	O	1.005140	-0.591950	0.298714
O10	O	1.505140	-0.091950	0.798714
O11	O	1.160997	-0.538296	0.335698
O12	O	1.660997	-0.038296	0.835698
O13	O	1.054723	-0.650715	0.139396
O14	O	1.554723	-0.150715	0.639396
O15	O	0.963620	-0.348995	0.257177
O16	O	1.463620	0.151005	0.757177
O17	O	1.164435	-0.664014	0.249096
O18	O	1.664435	-0.164014	0.749096
O19	O	1.046747	-0.359072	0.340296
O20	O	1.546747	0.140928	0.840296
O21	O	0.968158	-0.514920	0.142879
O22	O	1.468158	-0.014920	0.642879
O23	O	0.849307	-0.514868	0.261743
O24	O	1.349307	-0.014868	0.761743
O25	O	0.955533	-0.663923	0.458021
O26	O	1.455533	-0.163923	0.958021
O27	O	0.845822	-0.650624	0.348320
O28	O	1.345822	-0.150624	0.848320
O29	O	1.042146	-0.538244	0.454562
O30	O	1.542146	-0.038244	0.954562
O31	O	1.050122	-0.829887	0.253662
O32	O	1.550122	-0.329887	0.753662
O33	O	0.960071	-0.829848	0.343723
O34	O	1.460071	-0.329848	0.843723
C35	C	0.821986	-0.581253	0.306058
C36	C	1.321986	-0.081253	0.806058
C37	C	0.743632	-0.576703	0.309216
C38	C	1.243632	-0.076703	0.809216
C39	C	0.708610	-0.639905	0.265543
C40	C	1.208610	-0.139905	0.765543
C41	C	0.634987	-0.635631	0.268520
C42	C	1.134987	-0.135631	0.768520
C43	C	0.596387	-0.568147	0.315166
C44	C	1.096387	-0.068147	0.815166
C45	C	0.631414	-0.504942	0.358843
C46	C	1.131414	-0.004942	0.858843
C47	C	0.705035	-0.509223	0.355869
C48	C	1.205035	-0.009223	0.855869
C49	C	0.376011	-0.548343	0.328905
C50	C	0.876011	-0.048343	0.828905
C51	C	0.302384	-0.544065	0.331874
C52	C	0.802384	-0.044065	0.831874
C53	C	0.305963	-0.674756	0.241552
C54	C	0.805963	-0.174756	0.741552
C55	C	0.379586	-0.679026	0.238579
C56	C	0.879586	-0.179026	0.738579
C57	C	0.414606	-0.615825	0.282259
C58	C	0.914606	-0.115825	0.782259
N59	N	0.521133	-0.563774	0.318208
N60	N	1.021133	-0.063774	0.818208
N61	N	0.489859	-0.620204	0.279220
N62	N	0.989859	-0.120204	0.779220
C63	C	1.005108	-0.868489	0.298703
C64	C	1.505108	-0.368489	0.798703
C65	C	1.005158	-0.986798	0.298720
C66	C	1.505158	-0.486798	0.798720
C67	C	1.054189	-1.056040	0.249784
C68	C	1.554189	-0.556040	0.749784
C69	C	1.068827	-1.131502	0.313434
C70	C	1.568827	-0.631502	0.813434
C71	C	0.990606	-1.122143	0.235106
C72	C	1.490606	-0.622143	0.735106
C73	C	1.019827	-1.060705	0.362403
C74	C	1.519827	-0.560705	0.862403
C75	C	0.941578	-1.051336	0.284033
C76	C	1.441578	-0.551336	0.784033
C77	C	0.956190	-1.126767	0.347729
C78	C	1.456190	-0.626767	0.847729
C79	C	1.189009	-0.602691	0.291343
C80	C	1.689009	-0.102691	0.791343
C81	C	1.267363	-0.607268	0.288202
C82	C	1.767363	-0.107268	0.788202
C83	C	0.997789	-0.602607	0.482585
C84	C	1.497789	-0.102607	0.982585
C85	C	0.994656	-0.607149	0.560939
C86	C	1.494656	-0.107149	1.060939
C87	C	1.005191	-0.314334	0.298740
C88	C	1.505191	0.185666	0.798740
C89	C	1.005213	-0.196031	0.298751
C90	C	1.505213	0.303969	0.798751
C91	C	1.012503	-0.581260	0.115558
C92	C	1.512503	-0.081260	0.615558
C93	C	1.015773	-0.576427	0.037198
C94	C	1.515773	-0.076427	0.537198
C95	C	1.038277	-0.543851	0.595950
C96	C	1.538277	-0.043851	1.095950
C97	C	1.035325	-0.548114	0.669573
C98	C	1.535325	-0.048114	1.169573
C99	C	0.988755	-0.615680	0.708183
C100	C	1.488755	-0.115680	1.208183
C101	C	0.945129	-0.678981	0.673167
C102	C	1.445129	-0.178981	1.173167
C103	C	0.948078	-0.674712	0.599546
C104	C	1.448078	-0.174712	1.099546
C105	C	0.975096	-0.635459	0.928561
C106	C	1.475096	-0.135459	1.428561
C107	C	0.972152	-0.639725	1.002187
C108	C	1.472152	-0.139725	1.502187
C109	C	1.062347	-0.508856	0.998588
C110	C	1.562347	-0.008856	1.498588
C111	C	1.065294	-0.504598	0.924965
C112	C	1.565294	-0.004598	1.424965
C113	C	1.021666	-0.567894	0.889956
C114	C	1.521666	-0.067894	1.389956
N115	N	0.985738	-0.620041	0.783438
N116	N	1.485738	-0.120041	1.283438
N117	N	1.024680	-0.563527	0.814703
N118	N	1.524680	-0.063527	1.314703
H119	H	0.404515	-0.496882	0.364473
H120	H	0.904515	0.003118	0.864473
H121	H	0.939581	-0.687015	0.900064
H122	H	1.439581	-0.187015	1.400064
H123	H	0.914748	-1.157628	0.389172
H124	H	1.414748	-0.657628	0.889172
C125	C	0.973942	-1.158806	0.162416
C126	C	1.473942	-0.658806	0.662416
H127	H	1.008805	-1.134582	0.127695
H128	H	1.508805	-0.634582	0.627695
H129	H	0.973655	-1.234245	0.163067
H130	H	1.473655	-0.734245	0.663067
H131	H	0.929091	-1.130186	0.151637
H132	H	1.429091	-0.630186	0.651637
C133	C	0.868933	-1.003937	0.267206
C134	C	1.368933	-0.503937	0.767206
H135	H	0.849349	-0.963568	0.305532
H136	H	1.349349	-0.463568	0.805532
H137	H	0.873957	-0.959201	0.225968
H138	H	1.373957	-0.459201	0.725968
H139	H	0.838670	-1.059810	0.259745
H140	H	1.338670	-0.559810	0.759745
C141	C	0.751067	-0.714135	0.214233
C142	C	1.251067	-0.214135	0.714233
H143	H	0.799930	-0.707627	0.218711
H144	H	1.299930	-0.207627	0.718711
H145	H	0.738590	-0.785565	0.224956
H146	H	1.238590	-0.285565	0.724956
H147	H	0.740881	-0.694992	0.167372
H148	H	1.240881	-0.194992	0.667372
H149	H	0.411009	-0.733977	0.200594
H150	H	0.911009	-0.233977	0.700594
H151	H	1.095658	-1.024990	0.208436
H152	H	1.595658	-0.524990	0.708436
H153	H	0.907209	-0.733991	0.704609
H154	H	1.407209	-0.233991	1.204609
H155	H	1.076201	-0.488834	0.564519
H156	H	1.576201	0.011166	1.064519
C157	C	1.141490	-1.178872	0.330241
C158	C	1.641490	-0.678872	0.830241
H159	H	1.176258	-1.154658	0.295417
H160	H	1.676258	-0.654658	0.795417
H161	H	1.152184	-1.156912	0.375105
H162	H	1.652184	-0.656912	0.875105
H163	H	1.140859	-1.254275	0.330552
H164	H	1.640859	-0.754275	0.830552
H165	H	0.606476	-0.687097	0.232957
H166	H	1.106476	-0.187097	0.732957
H167	H	0.277442	-0.726212	0.205991
H168	H	0.777442	-0.226212	0.705991
C169	C	0.920921	-0.714049	1.044657
C170	C	1.420921	-0.214049	1.544657
H171	H	0.895356	-0.751128	1.013263
H172	H	1.395356	-0.251128	1.513263
H173	H	0.946728	-0.763666	1.072291
H174	H	1.446728	-0.263666	1.572291
H175	H	0.889065	-0.673194	1.074611
H176	H	1.389065	-0.173194	1.574611
H177	H	1.070847	-0.496572	0.698076
H178	H	1.570847	0.003428	1.198076
H179	H	1.103218	-0.449581	0.893534
H180	H	1.603218	0.050419	1.393534
H181	H	1.032102	-1.033692	0.416262
H182	H	1.532102	-0.533692	0.916262
H183	H	0.912551	-0.726245	0.571041
H184	H	1.412551	-0.226245	1.071041
H185	H	0.270958	-0.489103	0.369857
H186	H	0.770958	0.010897	0.869857
H187	H	0.599980	-0.450001	0.396826
H188	H	1.099980	0.049999	0.896826
H189	H	0.733549	-0.457756	0.391432
H190	H	1.233549	0.042244	0.891432
C191	C	1.110327	-0.439228	1.037100
C192	C	1.610327	0.060772	1.537100
H193	H	1.101899	-0.451439	1.086476
H194	H	1.601899	0.048561	1.586476
H195	H	1.158172	-0.456869	1.023138
H196	H	1.658172	0.043131	1.523138
H197	H	1.100500	-0.366410	1.025454
H198	H	1.600500	0.133590	1.525454
