data_functionalizedCrystal
_audit_creation_method	'MofGen! by Chris Wilmer'
_symmetry_space_group_name_H-M	'P1'
_symmetry_Int_Tables_number	1
_symmetry_cell_setting	triclinic
loop_
_symmetry_equiv_pos_as_xyz
  x,y,z
_cell_length_a	16.992694
_cell_length_b	10.723024
_cell_length_c	15.455313
_cell_angle_alpha	92.691723
_cell_angle_beta	87.142206
_cell_angle_gamma	87.568046
loop_
_atom_site_label
_atom_site_type_symbol
_atom_site_fract_x
_atom_site_fract_y
_atom_site_fract_z
O1	O	1.045219	0.259622	-0.072018
O2	O	0.816920	0.256716	-0.072044
O3	O	0.936335	0.077046	-0.072027
O4	O	0.925803	0.439291	-0.072035
O5	O	0.929506	0.087275	0.072234
O6	O	0.810091	0.266945	0.072217
O7	O	1.038390	0.269851	0.072243
Cu8	Cu	0.923617	0.269332	0.085402
Cu9	Cu	0.931693	0.257235	-0.085203
O10	O	0.918974	0.449520	0.072226
C11	C	0.784273	0.258094	0.000083
C12	C	0.697169	0.246945	0.000074
C13	C	0.647507	0.354505	0.000072
C14	C	0.565663	0.344024	0.000084
C15	C	0.533484	0.225982	0.000092
C16	C	0.583152	0.118414	0.000096
C17	C	0.664993	0.128896	0.000090
C18	C	0.289651	0.182535	0.000116
C19	C	0.207803	0.172061	0.000119
C20	C	0.190320	0.397673	0.000109
C21	C	0.272165	0.408144	0.000098
C22	C	0.321825	0.300577	0.000107
N23	N	0.449827	0.215266	0.000102
N24	N	0.405480	0.311295	0.000103
C25	C	0.932154	0.035595	0.000102
C26	C	0.929861	-0.103157	0.000099
C27	C	0.996680	-0.172386	0.000105
C28	C	0.994312	-0.315793	0.000102
C29	C	1.071037	0.268473	0.000114
C30	C	1.158141	0.279621	0.000118
C31	C	0.923155	0.490971	0.000095
C32	C	0.925449	0.629723	0.000093
N33	N	0.917942	0.277840	0.205397
N34	N	0.937374	0.248717	-0.205198
C35	C	0.968692	0.201542	0.250798
C36	C	0.964408	0.207989	0.341605
C37	C	0.909377	0.290741	0.387010
C38	C	0.858622	0.367042	0.341602
C39	C	0.862903	0.360588	0.250797
C40	C	0.890899	0.318564	0.658589
C41	C	0.886624	0.325015	0.749401
C42	C	0.992409	0.165960	0.749398
C43	C	0.996689	0.159518	0.658590
C44	C	0.945931	0.235815	0.613191
N45	N	0.904999	0.297335	0.479830
N46	N	0.950306	0.229213	0.520373
H47	H	0.330075	0.094946	0.000124
H48	H	1.005732	0.145860	0.378571
N49	N	1.070084	-0.394614	0.000109
H50	H	1.104219	-0.379170	-0.053365
H51	H	1.099091	-0.371556	0.053626
N52	N	0.836157	0.400873	0.609641
H53	H	0.868204	0.456495	0.571955
H54	H	0.802947	0.346915	0.572028
N55	N	0.827257	0.414260	0.798373
H56	H	0.832251	0.406771	0.862787
H57	H	0.837532	0.502617	0.782491
H58	H	0.525232	0.431612	0.000082
H59	H	0.181606	0.075931	0.000125
H60	H	0.870902	-0.150057	0.000087
H61	H	0.556944	0.022302	0.000115
H62	H	0.813811	0.434416	0.378576
H63	H	1.033733	0.103841	0.786370
N64	N	1.056044	0.070266	0.609620
H65	H	1.087545	0.022907	0.652161
H66	H	1.027492	0.009372	0.571953
H67	H	0.868243	-0.310778	0.000093
H68	H	0.705428	0.041309	0.000091
N69	N	1.074784	-0.110278	0.000124
H70	H	1.065404	-0.016636	0.000130
H71	H	1.103060	-0.132609	0.053612
N72	N	1.028052	0.112295	0.201829
H73	H	1.059550	0.064938	0.244373
H74	H	0.999501	0.051399	0.164162
N75	N	0.808160	0.442879	0.201830
H76	H	0.816921	0.533524	0.217619
H77	H	0.819246	0.426128	0.137431
N78	N	0.682206	0.481828	0.000056
H79	H	0.661617	0.533113	0.053534
H80	H	0.741584	0.472050	0.000017
N81	N	0.306872	0.535461	0.000074
H82	H	0.262992	0.602011	0.000070
H83	H	0.337930	0.548532	0.053545
H84	H	0.149878	0.485248	0.000104
