data_functionalizedCrystal
_audit_creation_method	'MofGen! by Chris Wilmer'
_symmetry_space_group_name_H-M	'P1'
_symmetry_Int_Tables_number	1
_symmetry_cell_setting	triclinic
loop_
_symmetry_equiv_pos_as_xyz
  x,y,z
_cell_length_a	19.188933
_cell_length_b	11.026607
_cell_length_c	10.065875
_cell_angle_alpha	79.268236
_cell_angle_beta	81.284263
_cell_angle_gamma	84.134207
loop_
_atom_site_label
_atom_site_type_symbol
_atom_site_fract_x
_atom_site_fract_y
_atom_site_fract_z
O1	O	0.953405	-0.133540	-0.113443
O2	O	0.752692	-0.153917	-0.113455
O3	O	0.836413	0.032836	-0.113445
O4	O	0.869684	-0.320293	-0.113453
O5	O	0.820467	-0.002918	0.113541
O6	O	0.736745	-0.189671	0.113531
O7	O	0.937459	-0.169294	0.113544
Zn8	Zn	0.834570	-0.185159	0.149577
Zn9	Zn	0.855581	-0.138052	-0.149488
O10	O	0.853737	-0.356047	0.113534
C11	C	0.718624	-0.171133	0.000036
C12	C	0.640867	-0.169150	0.000032
C13	C	0.094500	-0.135516	-0.123684
C14	C	0.167561	-0.137370	-0.123689
C15	C	0.195405	-0.157793	0.000041
C16	C	0.150179	-0.176331	0.123786
C17	C	0.077119	-0.174464	0.123787
N18	N	0.307123	-0.244239	0.092137
N19	N	0.376527	-0.246014	0.092127
C20	C	0.415530	-0.163417	0.000043
N21	N	0.382508	-0.078990	-0.092051
N22	N	0.313097	-0.077220	-0.092045
C23	C	0.274625	-0.159819	0.000053
C24	C	0.539967	-0.146882	-0.123699
C25	C	0.613029	-0.148730	-0.123700
C26	C	0.595645	-0.187703	0.123779
C27	C	0.522585	-0.185843	0.123775
C28	C	0.494751	-0.165437	0.000032
C29	C	0.822303	0.060138	0.000046
C30	C	0.804006	0.194756	0.000040
C31	C	0.971527	-0.152077	0.000049
C32	C	1.049285	-0.154059	0.000044
C33	C	0.867848	-0.383348	0.000039
C34	C	0.886145	-0.517965	0.000036
N35	N	0.820236	-0.217307	0.353680
C36	C	0.854527	0.268829	0.000041
C37	C	0.835618	0.407964	0.000035
N38	N	0.869919	-0.105894	-0.353592
C39	C	0.850588	-0.149230	0.421463
C40	C	0.839563	-0.173981	0.578629
H41	H	0.040304	-0.189569	0.224545
C42	C	0.509346	-0.124421	-0.259818
N43	N	0.486285	-0.107500	-0.362343
C44	C	0.896706	-0.045713	0.342677
N45	N	0.931440	0.032265	0.283337
C46	C	0.662766	-0.128315	-0.259818
N47	N	0.700229	-0.112937	-0.362345
C48	C	0.726660	0.248232	0.000037
N49	N	0.668401	0.288507	0.000039
C50	C	0.793424	-0.277479	0.657409
N51	N	0.758674	-0.355432	0.716749
H52	H	0.618314	-0.204327	0.224522
C53	C	0.931872	0.215351	0.000056
N54	N	0.990129	0.175073	0.000072
H55	H	0.485769	-0.200947	0.224528
C56	C	0.758268	0.461434	0.000032
N57	N	0.700009	0.501709	0.000034
C58	C	0.180810	-0.198830	0.259889
N59	N	0.203881	-0.215785	0.362406
C60	C	0.063886	-0.113045	-0.259805
N61	N	0.040826	-0.096111	-0.362333
C62	C	0.916058	-0.002397	0.567630
N63	N	0.950812	0.075553	0.508294
H64	H	0.786085	-0.293912	0.412002
C65	C	0.217308	-0.116985	-0.259805
N66	N	0.254776	-0.101636	-0.362328
C67	C	0.963495	0.428567	0.000042
N68	N	1.021754	0.388294	0.000049
