data_functionalizedCrystal
_audit_creation_method	'MofGen! by Chris Wilmer'
_symmetry_space_group_name_H-M	'P1'
_symmetry_Int_Tables_number	1
_symmetry_cell_setting	triclinic
loop_
_symmetry_equiv_pos_as_xyz
  x,y,z
_cell_length_a	19.288867
_cell_length_b	19.288865
_cell_length_c	17.766277
_cell_angle_alpha	89.988397
_cell_angle_beta	89.992126
_cell_angle_gamma	83.136658
loop_
_atom_site_label
_atom_site_type_symbol
_atom_site_fract_x
_atom_site_fract_y
_atom_site_fract_z
O1	O	0.921352	0.086655	-0.062576
O2	O	1.421352	0.586655	0.437424
O3	O	0.719092	0.098343	-0.062585
O4	O	1.219092	0.598343	0.437415
O5	O	0.826066	-0.008631	-0.062566
O6	O	1.326066	0.491369	0.437434
O7	O	0.814378	0.193629	-0.062596
O8	O	1.314378	0.693629	0.437404
O9	O	0.826048	-0.008637	0.062623
O10	O	1.326048	0.491363	0.562623
O11	O	0.719073	0.098337	0.062604
O12	O	1.219073	0.598337	0.562604
O13	O	0.921333	0.086650	0.062612
O14	O	1.421333	0.586650	0.562612
Cu15	Cu	0.820201	0.092493	0.074039
Cu16	Cu	1.320201	0.592493	0.574039
Cu17	Cu	0.820224	0.092500	-0.074011
Cu18	Cu	1.320224	0.592500	0.425989
O19	O	0.814359	0.193624	0.062593
O20	O	1.314359	0.693624	0.562593
C21	C	0.693206	0.097964	0.000009
C22	C	1.193206	0.597964	0.500009
C23	C	0.616102	0.096834	0.000006
C24	C	1.116102	0.596834	0.500006
C25	C	0.825681	-0.034510	0.000031
C26	C	1.325681	0.465490	0.500031
C27	C	0.824552	-0.111614	0.000038
C28	C	1.324552	0.388386	0.500038
C29	C	0.060547	0.088701	-0.068224
C30	C	0.560547	0.588701	0.431776
C31	C	0.132995	0.089758	-0.068227
C32	C	0.632995	0.589758	0.431773
C33	C	0.169213	0.090287	0.000013
C34	C	0.669213	0.590287	0.500013
C35	C	0.132980	0.089741	0.068261
C36	C	0.632980	0.589741	0.568261
C37	C	0.060535	0.088676	0.068262
C38	C	0.560535	0.588676	0.568262
C39	C	0.278533	0.132652	0.052287
C40	C	0.778533	0.632652	0.552287
C41	C	0.350976	0.133721	0.052283
C42	C	0.850976	0.633721	0.552283
C43	C	0.392659	0.093566	0.000012
C44	C	0.892659	0.593566	0.500012
C45	C	0.361888	0.052352	-0.052267
C46	C	0.861888	0.552352	0.447733
C47	C	0.289443	0.051288	-0.052266
C48	C	0.789443	0.551288	0.447734
C49	C	0.247768	0.091440	0.000019
C50	C	0.747768	0.591440	0.500019
C51	C	0.507439	0.095254	-0.068235
C52	C	1.007439	0.595254	0.431765
C53	C	0.579889	0.096306	-0.068235
C54	C	1.079889	0.596306	0.431765
C55	C	0.579872	0.096296	0.068255
C56	C	1.079872	0.596296	0.568255
C57	C	0.507425	0.095236	0.068253
C58	C	1.007425	0.595236	0.568253
C59	C	0.471213	0.094718	0.000006
C60	C	0.971213	0.594718	0.500006
C61	C	0.887320	-0.156310	0.000044
C62	C	1.387320	0.343690	0.500044
C63	C	0.886259	-0.228757	0.000032
C64	C	1.386259	0.271243	0.500032
C65	C	0.822427	-0.256505	0.000029
C66	C	1.322427	0.243495	0.500029
C67	C	0.759651	-0.211799	0.000018
C68	C	1.259651	0.288201	0.500018
C69	C	0.760713	-0.139354	0.000023
C70	C	1.260713	0.360646	0.500023
C71	C	0.772241	-0.364795	0.043877
C72	C	1.272241	0.135205	0.543877
C73	C	0.771181	-0.437239	0.043878
C74	C	1.271181	0.062761	0.543878
C75	C	0.819147	-0.479951	0.000012
C76	C	1.319147	0.020049	0.500012
C77	C	0.868185	-0.450210	-0.043845
C78	C	1.368185	0.049790	0.456155
C79	C	0.869248	-0.377765	-0.043840
C80	C	1.369248	0.122235	0.456160
C81	C	0.821268	-0.335059	0.000024
C82	C	1.321268	0.164941	0.500024
C83	C	0.880769	-0.603202	0.000004
C84	C	1.380769	-0.103202	0.500004
C85	C	0.879706	-0.675650	-0.000013
C86	C	1.379706	-0.175650	0.499987
C87	C	0.753096	-0.658691	-0.000019
C88	C	1.253096	-0.158691	0.499981
C89	C	0.754161	-0.586245	-0.000010
C90	C	1.254161	-0.086245	0.499990
C91	C	0.818000	-0.558505	0.000005
C92	C	1.318000	-0.058505	0.500005
C93	C	0.947219	0.087029	0.000017
C94	C	1.447219	0.587029	0.500017
C95	C	1.024323	0.088159	0.000015
C96	C	1.524323	0.588159	0.500015
C97	C	0.814744	0.219503	-0.000005
C98	C	1.314744	0.719503	0.499995
C99	C	0.815873	0.296607	-0.000017
C100	C	1.315873	0.796607	0.499983
N101	N	0.820191	0.092488	0.178169
N102	N	1.320191	0.592488	0.678169
N103	N	0.820240	0.092499	-0.178142
N104	N	1.320240	0.592499	0.321858
C105	C	0.867575	0.045143	0.217564
C106	C	1.367575	0.545143	0.717564
C107	C	0.867579	0.045140	0.296366
C108	C	1.367579	0.545140	0.796366
C109	C	0.820206	0.092494	0.335769
C110	C	1.320206	0.592494	0.835769
C111	C	0.772813	0.139842	0.296364
C112	C	1.272813	0.639842	0.796364
C113	C	0.772806	0.139839	0.217564
C114	C	1.272806	0.639839	0.717564
C115	C	0.810907	0.155781	0.460598
C116	C	1.310907	0.655781	0.960598
C117	C	0.810919	0.155785	0.539397
C118	C	1.310919	0.655785	1.039397
C119	C	0.820224	0.092502	0.578816
C120	C	1.320224	0.592502	1.078816
C121	C	0.829532	0.029213	0.539426
C122	C	1.329532	0.529213	1.039426
C123	C	0.829525	0.029210	0.460626
C124	C	1.329525	0.529210	0.960626
C125	C	0.820208	0.092502	0.421215
C126	C	1.320208	0.592502	0.921215
C127	C	0.867615	0.045150	0.703657
C128	C	1.367615	0.545150	1.203657
C129	C	0.867614	0.045146	0.782460
C130	C	1.367614	0.545146	1.282460
C131	C	0.772852	0.139854	0.782457
C132	C	1.272852	0.639854	1.282457
C133	C	0.772849	0.139852	0.703655
C134	C	1.272849	0.639852	1.203655
C135	C	0.820234	0.092501	0.664260
C136	C	1.320234	0.592501	1.164260
H137	H	0.031068	0.088276	-0.123797
H138	H	0.531068	0.588276	0.376203
H139	H	0.703049	-0.549852	-0.000011
H140	H	1.203049	-0.049852	0.499989
H141	H	0.376021	0.167297	0.094837
H142	H	0.876021	0.667297	0.594837
Br143	Br	0.798295	0.241676	0.592846
Br144	Br	1.298295	0.741676	1.092846
H145	H	0.244600	0.165348	0.094861
H146	H	0.744600	0.665348	0.594861
H147	H	0.906197	0.006591	0.671580
H148	H	1.406197	0.506591	1.171580
Br149	Br	0.935792	-0.337403	-0.103360
Br150	Br	1.435792	0.162597	0.396640
H151	H	0.733179	-0.330024	0.079602
H152	H	1.233179	0.169976	0.579602
H153	H	0.707678	-0.234396	0.000014
H154	H	1.207678	0.265604	0.500014
Br155	Br	0.458290	0.094547	-0.160853
Br156	Br	0.958290	0.594547	0.339147
H157	H	0.803317	0.207317	0.428509
H158	H	1.303317	0.707317	0.928509
H159	H	0.709598	-0.102962	0.000018
H160	H	1.209598	0.397038	0.500018
H161	H	0.162494	0.090203	-0.123798
H162	H	0.662494	0.590203	0.376202
H163	H	0.609382	0.096743	-0.123805
H164	H	1.109382	0.596743	0.376195
H165	H	0.734277	0.178407	0.814539
H166	H	1.234277	0.678407	1.314539
Br167	Br	0.247684	-0.004645	-0.123211
Br168	Br	0.747684	0.495355	0.376789
H169	H	0.731248	-0.461447	0.079584
H170	H	1.231248	0.038553	0.579584
H171	H	0.162474	0.090170	0.123822
H172	H	0.662474	0.590170	0.623822
Br173	Br	0.708515	0.204104	0.349837
Br174	Br	1.208515	0.704104	0.849837
Br175	Br	0.931879	-0.019119	0.164099
Br176	Br	1.431879	0.480881	0.664099
H177	H	0.609361	0.096724	0.123818
H178	H	1.109361	0.596724	0.623818
H179	H	0.477930	0.094797	0.123821
H180	H	0.977930	0.594797	0.623821
H181	H	0.734220	0.178394	0.185488
H182	H	1.234220	0.678394	0.685488
H183	H	0.837109	-0.022318	0.571520
H184	H	1.337109	0.477682	1.071520
Br185	Br	0.418448	-0.002143	-0.123217
Br186	Br	0.918448	0.497857	0.376783
H187	H	0.907244	-0.484985	-0.079565
H188	H	1.407244	0.015015	0.420435
Br189	Br	0.011369	0.087942	0.160879
Br190	Br	0.511369	0.587942	0.660879
H191	H	0.906165	0.006585	0.328448
H192	H	1.406165	0.506585	0.828448
H193	H	0.939302	-0.133729	0.000053
H194	H	1.439302	0.366271	0.500053
H195	H	0.937374	-0.265155	0.000034
H196	H	1.437374	0.234845	0.500034
Br197	Br	0.967405	-0.565551	0.000032
Br198	Br	1.467405	-0.065551	0.500032
H199	H	0.930821	-0.712042	-0.000012
H200	H	1.430821	-0.212042	0.499988
Br201	Br	0.666465	-0.696341	-0.000031
Br202	Br	1.166465	-0.196341	0.499969
Br203	Br	0.842149	-0.056678	0.407171
Br204	Br	1.342149	0.443322	0.907171
H205	H	0.906197	0.006588	0.814537
H206	H	1.406197	0.506588	1.314537
H207	H	0.734268	0.178407	0.671578
H208	H	1.234268	0.678407	1.171578
