data_functionalizedCrystal
_audit_creation_method	'MofGen! by Chris Wilmer'
_symmetry_space_group_name_H-M	'P1'
_symmetry_Int_Tables_number	1
_symmetry_cell_setting	triclinic
loop_
_symmetry_equiv_pos_as_xyz
  x,y,z
_cell_length_a	10.723024
_cell_length_b	26.210047
_cell_length_c	10.723023
_cell_angle_alpha	89.994436
_cell_angle_beta	84.467709
_cell_angle_gamma	90.008813
loop_
_atom_site_label
_atom_site_type_symbol
_atom_site_fract_x
_atom_site_fract_y
_atom_site_fract_z
O1	O	1.657198	0.042424	0.175010
O2	O	1.294046	0.042426	0.191763
O3	O	1.483999	0.042423	0.001810
O4	O	1.467245	0.042427	0.364962
O5	O	1.483962	-0.042435	0.001839
O6	O	1.294009	-0.042432	0.191792
O7	O	1.657161	-0.042434	0.175039
Cu8	Cu	1.475582	-0.050181	0.183418
Cu9	Cu	1.475625	0.050174	0.183383
O10	O	1.467208	-0.042431	0.364992
C11	C	1.247528	-0.000003	0.190558
C12	C	1.108973	-0.000002	0.186911
N13	N	1.475560	-0.120765	0.183442
C14	C	1.033991	-0.000001	0.293198
C15	C	0.890787	0.000000	0.289431
C16	C	1.559728	-0.473280	0.099291
C17	C	1.559755	-0.686939	0.099274
O18	O	1.631270	-0.714562	0.027731
N19	N	1.475632	-0.713659	0.183356
C20	C	1.391489	-0.686961	0.267443
O21	O	1.319929	-0.714590	0.338950
C22	C	1.391457	-0.473303	0.267453
C23	C	1.475595	-0.446586	0.183374
C24	C	1.643858	-0.446563	0.015219
C25	C	1.643855	-0.393152	0.015228
C26	C	1.559722	-0.366457	0.099311
C27	C	1.475592	-0.393175	0.183384
C28	C	1.307310	-0.446606	0.351532
C29	C	1.307307	-0.393188	0.351525
C30	C	1.391445	-0.366471	0.267446
C31	C	1.391456	-0.313069	0.267476
N32	N	1.475579	-0.286349	0.183394
C33	C	1.559713	-0.313043	0.099312
C34	C	1.391514	-0.799134	0.267433
C35	C	1.391523	-0.852548	0.267432
C36	C	1.559788	-0.852523	0.099262
C37	C	1.559784	-0.799107	0.099270
C38	C	1.475638	-0.772414	0.183351
C39	C	1.559701	-0.200875	0.099339
C40	C	1.559693	-0.147459	0.099360
C41	C	1.391425	-0.147489	0.267525
C42	C	1.391436	-0.200901	0.267509
C43	C	1.475578	-0.227593	0.183406
O44	O	1.319969	-0.285413	0.338972
O45	O	1.631244	-0.285404	0.027796
C46	C	1.559731	-0.526692	0.099282
C47	C	1.475601	-0.553409	0.183355
C48	C	1.391468	-0.526715	0.267437
C49	C	1.475610	-0.606823	0.183354
C50	C	1.559744	-0.633517	0.099271
C51	C	1.643867	-0.606797	0.015189
C52	C	1.643864	-0.553386	0.015199
C53	C	1.307344	-0.553435	0.351519
C54	C	1.307355	-0.606846	0.351503
C55	C	1.391488	-0.633540	0.267421
C56	C	1.703679	-0.000004	0.176243
C57	C	1.842234	-0.000001	0.179891
C58	C	1.482762	-0.000005	-0.044675
C59	C	1.479114	-0.000004	-0.183229
N60	N	1.475657	0.120757	0.183350
C61	C	1.473700	-0.043959	-0.388188
C62	C	1.477469	-0.043962	-0.244985
C63	C	1.468445	-0.000001	0.411477
C64	C	1.472093	0.000001	0.550031
H65	H	1.075812	-0.000002	0.386984
H66	H	1.238797	-0.468352	0.419996
O67	O	1.734619	-0.635592	-0.075502
H68	H	1.681569	-0.659924	-0.136640
H69	H	1.472278	-0.081592	-0.441311
O70	O	1.053585	-0.000007	0.062675
H71	H	1.130295	-0.000013	-0.014610
H72	H	1.323024	-0.874298	0.335910
H73	H	0.826354	0.000004	0.380421
O74	O	1.216555	-0.364397	0.442222
H75	H	1.158065	-0.391952	0.500686
H76	H	1.322990	-0.777404	0.335905
H77	H	1.628295	-0.777357	0.030805
O78	O	1.300694	-0.229723	0.358193
H79	H	1.242187	-0.202184	0.416658
H80	H	1.322928	-0.125747	0.335988
O81	O	0.927565	-0.000008	0.059350
H82	H	0.987564	0.034576	0.055541
H83	H	1.478858	-0.081597	-0.191855
H84	H	1.477739	0.037634	-0.236352
H85	H	1.473498	0.037634	-0.396843
O86	O	1.650436	-0.118641	0.008664
H87	H	1.708926	-0.146181	-0.049814
O88	O	1.734601	-0.524572	-0.075498
H89	H	1.793087	-0.552115	-0.133968
O90	O	1.650542	-0.881318	0.008574
H91	H	1.633816	-0.871063	-0.088855
O92	O	1.216635	-0.635661	0.442228
H93	H	1.158141	-0.608120	0.500696
H94	H	1.628215	-0.222602	0.030853
H95	H	1.238831	-0.531704	0.419988
H96	H	1.712364	-0.371401	-0.053239
H97	H	1.712369	-0.468293	-0.053257
