data_functionalizedCrystal
_audit_creation_method	'MofGen! by Chris Wilmer'
_symmetry_space_group_name_H-M	'P1'
_symmetry_Int_Tables_number	1
_symmetry_cell_setting	triclinic
loop_
_symmetry_equiv_pos_as_xyz
  x,y,z
_cell_length_a	31.640172
_cell_length_b	18.760492
_cell_length_c	31.640172
_cell_angle_alpha	60.011709
_cell_angle_beta	90.002706
_cell_angle_gamma	59.994595
loop_
_atom_site_label
_atom_site_type_symbol
_atom_site_fract_x
_atom_site_fract_y
_atom_site_fract_z
Zr1	Zr	0.407188	0.780117	-0.055466
O2	O	0.339698	0.928810	-0.122940
O3	O	0.427875	0.631417	-0.034783
O4	O	0.427874	0.780091	-0.122945
O5	O	0.339702	0.780159	0.034768
O6	O	0.497430	0.780079	-0.122948
O7	O	0.339700	0.780136	-0.034777
O8	O	0.497432	0.514128	0.034759
O9	O	0.339700	1.046110	-0.122939
O10	O	0.488609	0.692573	-0.025962
O11	O	0.436702	0.692599	0.025941
O12	O	0.436701	0.867644	-0.077859
O13	O	0.384794	0.867670	-0.025956
Zr14	Zr	0.518126	0.780135	0.055447
Zr15	Zr	0.518122	0.780098	-0.055470
Zr16	Zr	0.407192	0.780154	0.055451
Zr17	Zr	0.407191	0.967197	-0.055464
Zr18	Zr	0.518123	0.593055	0.055445
O19	O	0.497439	0.928835	0.034764
O20	O	0.497433	0.928782	-0.122947
O21	O	0.339705	0.928863	0.034770
O22	O	0.585615	0.631442	0.122921
O23	O	0.585609	0.631389	-0.034789
O24	O	0.427881	0.631470	0.122928
O25	O	0.585611	0.780093	-0.034787
O26	O	0.497440	0.780161	0.122927
O27	O	0.427884	0.780173	0.122929
O28	O	0.585614	0.780116	0.034758
O29	O	0.427878	1.046094	-0.122942
O30	O	0.497436	0.514158	0.122923
O31	O	0.585613	0.514142	0.122920
O32	O	0.585610	0.514113	0.034755
O33	O	0.339704	1.046139	-0.034774
O34	O	0.427882	1.046124	-0.034778
O35	O	0.488613	0.692608	0.077840
O36	O	0.540520	0.692581	0.025937
O37	O	0.488612	0.867652	-0.025960
O38	O	0.436705	0.867679	0.025943
C39	C	0.462653	0.546117	-0.000012
C40	C	0.462652	0.466697	-0.000013
C41	C	0.435555	0.429400	0.027079
C42	C	0.489751	0.429362	-0.027103
C43	C	0.489753	0.354739	-0.027103
C44	C	0.462656	0.317442	-0.000011
C45	C	0.435557	0.354768	0.027082
C46	C	0.516856	0.317400	-0.054191
C47	C	0.516859	0.242772	-0.054191
C48	C	0.489759	0.205478	-0.027101
C49	C	0.462658	0.242810	-0.000008
C50	C	0.435561	0.205513	0.027084
C51	C	0.408457	0.242848	0.054175
C52	C	0.408456	0.317475	0.054172
C53	C	0.489759	0.130852	-0.027098
C54	C	0.435563	0.130881	0.027087
C55	C	0.323895	0.780150	-0.000004
C56	C	0.276801	0.780158	-0.000002
C57	C	-0.015206	0.780095	-0.038322
C58	C	-0.192193	0.780082	-0.038326
O59	O	-0.215067	0.780027	-0.070897
N60	N	-0.214322	0.780097	-0.000013
C61	C	-0.192200	0.780109	0.038306
O62	O	-0.215080	0.780111	0.070896
C63	C	-0.015212	0.780114	0.038311
C64	C	0.006912	0.780109	-0.000007
C65	C	0.006918	0.780089	-0.076637
C66	C	0.051160	0.780098	-0.076637
C67	C	0.073278	0.780112	-0.038322
C68	C	0.051154	0.780118	-0.000007
C69	C	0.006911	0.780118	0.076631
C70	C	0.051162	0.780117	0.076630
C71	C	0.073286	0.780112	0.038312
C72	C	0.117515	0.780141	0.038307
N73	N	0.139644	0.780126	-0.000006
C74	C	0.117526	0.780112	-0.038321
C75	C	-0.285122	0.780108	0.038299
C76	C	-0.329369	0.780108	0.038298
C77	C	-0.329358	0.780080	-0.038333
C78	C	-0.285112	0.780087	-0.038333
C79	C	-0.262992	0.780093	-0.000013
C80	C	0.210438	0.780131	-0.038319
C81	C	0.254683	0.780144	-0.038317
C82	C	0.254670	0.780167	0.038316
C83	C	0.210427	0.780159	0.038312
C84	C	0.188313	0.780138	-0.000007
O85	O	0.140419	0.780185	0.070865
O86	O	0.140420	0.780087	-0.070899
C87	C	-0.059449	0.780086	-0.038321
C88	C	-0.081573	0.780092	-0.000007
C89	C	-0.059455	0.780107	0.038308
C90	C	-0.125820	0.780092	-0.000008
C91	C	-0.147938	0.780078	-0.038323
C92	C	-0.125809	0.780063	-0.076636
C93	C	-0.081567	0.780072	-0.076636
C94	C	-0.081584	0.780121	0.076621
C95	C	-0.125827	0.780114	0.076618
C96	C	-0.147945	0.780099	0.038303
C97	C	0.601419	0.780102	-0.000015
C98	C	0.648513	0.780094	-0.000017
C99	C	0.462651	0.780079	-0.138750
C100	C	0.462650	0.780063	-0.185838
C101	C	0.462661	1.014134	-0.000007
C102	C	0.462662	1.093555	-0.000006
C103	C	0.489764	0.688733	-0.495053
C104	C	0.489756	0.688702	-0.318054
O105	O	0.512815	0.610980	-0.272131
N106	N	0.462659	0.780085	-0.323010
C107	C	0.435565	0.871482	-0.372221
O108	O	0.412521	0.949208	-0.372375
C109	C	0.435576	0.871512	-0.549219
C110	C	0.462670	0.780123	-0.544259
C111	C	0.516857	0.597351	-0.490096
C112	C	0.516856	0.597360	-0.534343
C113	C	0.489763	0.688750	-0.583548
C114	C	0.462670	0.780131	-0.588506
C115	C	0.408485	0.962908	-0.598428
C116	C	0.408491	0.962907	-0.642678
C117	C	0.435586	0.871518	-0.637718
C118	C	0.435576	0.871530	-0.681959
N119	N	0.462673	0.780147	-0.677003
C120	C	0.489766	0.688757	-0.627798
C121	C	0.435560	0.871461	-0.279292
C122	C	0.435556	0.871453	-0.235043
C123	C	0.489748	0.688673	-0.180879
C124	C	0.489749	0.688681	-0.225130
C125	C	0.462657	0.780078	-0.274336
C126	C	0.489762	0.688782	-0.720722
C127	C	0.489758	0.688798	-0.764976
C128	C	0.435568	0.871578	-0.819136
C129	C	0.435570	0.871562	-0.774886
C130	C	0.462671	0.780156	-0.725678
O131	O	0.412533	0.949211	-0.727897
O132	O	0.512816	0.611042	-0.627655
C133	C	0.489764	0.688724	-0.450806
C134	C	0.462672	0.780106	-0.455764
C135	C	0.435578	0.871496	-0.504969
C136	C	0.462668	0.780099	-0.411515
C137	C	0.489761	0.688709	-0.362309
C138	C	0.516858	0.597326	-0.357353
C139	C	0.516858	0.597334	-0.401601
C140	C	0.408481	0.962879	-0.509925
C141	C	0.408483	0.962863	-0.465675
C142	C	0.435577	0.871473	-0.416470
C143	C	0.462662	0.780173	0.138731
C144	C	0.462664	0.780188	0.185819
C145	C	0.601415	0.546093	-0.000018
C146	C	0.648508	0.466665	-0.000021
C147	C	0.462659	0.546164	0.138729
C148	C	0.462659	0.466759	0.185815
C149	C	0.601420	0.546140	0.138723
C150	C	0.648515	0.466727	0.185807
C151	C	0.323894	1.014112	-0.138742
C152	C	0.276798	1.093525	-0.185826
C153	C	0.323899	1.014159	-0.000001
C154	C	0.276806	1.093587	0.000002
C155	C	0.462655	1.014088	-0.138748
C156	C	0.462655	1.093492	-0.185834
C157	C	0.643526	0.429360	-0.027117
C158	C	0.687771	0.354739	-0.027130
C159	C	0.736997	0.317419	-0.000043
C160	C	0.741978	0.354731	0.027054
C161	C	0.697733	0.429356	0.027064
C162	C	0.489756	0.429475	0.235023
C163	C	0.489755	0.354876	0.279270
C164	C	0.462659	0.317559	0.274308
C165	C	0.435558	0.354851	0.225095
C166	C	0.435557	0.429453	0.180849
C167	C	0.697731	0.429420	0.180826
C168	C	0.741986	0.354814	0.225063
C169	C	0.737024	0.317511	0.274280
C170	C	0.687803	0.354825	0.279261
C171	C	0.643549	0.429435	0.235025
C172	C	0.227583	1.130840	-0.180845
C173	C	0.183328	1.205470	-0.225082
C174	C	0.188290	1.242777	-0.274299
C175	C	0.237511	1.205458	-0.279280
C176	C	0.281765	1.130835	-0.235044
C177	C	0.281787	1.130900	0.027094
C178	C	0.237543	1.205542	0.027095
C179	C	0.188317	1.242864	0.000006
C180	C	0.183336	1.205548	-0.027090
C181	C	0.227580	1.130913	-0.027093
C182	C	0.489756	1.130786	-0.180855
C183	C	0.489766	1.205385	-0.225094
C184	C	0.462670	1.242694	-0.274310
C185	C	0.435568	1.205393	-0.279288
C186	C	0.435562	1.130790	-0.235050
H187	H	0.386396	0.212468	0.076236
H188	H	0.538922	0.522926	-0.450033
C189	C	0.519568	1.089755	-0.126721
N190	N	0.542027	1.058850	-0.085948
C191	C	0.546642	0.358463	-0.084010
N192	N	0.569069	0.389410	-0.106479
C193	C	0.519578	1.246408	-0.219607
N194	N	0.542033	1.277304	-0.215473
C195	C	0.242960	1.246498	-0.333424
N196	N	0.247063	1.277404	-0.374208
H197	H	0.321837	1.100453	-0.239106
C198	C	0.378649	0.358541	0.083973
N199	N	0.356201	0.389471	0.106422
H200	H	0.773063	0.256759	0.310296
C201	C	0.519575	0.313859	0.333399
N202	N	0.542037	0.282964	0.374168
H203	H	0.462680	1.303441	-0.310328
C204	C	0.405787	1.246408	-0.333431
N205	N	0.383362	1.277293	-0.374213
C206	C	0.243033	1.246567	0.056908
N207	N	0.247170	1.277463	0.079364
H208	H	0.511811	0.614264	-0.221086
C209	C	0.682353	0.313773	0.333405
N210	N	0.678250	0.282843	0.374189
H211	H	0.701781	0.459782	0.140754
H212	H	0.272684	0.780183	0.069510
H213	H	0.192409	0.780177	0.069510
H214	H	0.782063	0.324334	0.049107
H215	H	0.413486	0.945871	-0.239088
H216	H	0.413497	0.945891	-0.319356
H217	H	0.413499	0.945978	-0.778926
C218	C	0.335932	1.089864	0.056893
N219	N	0.376712	1.058965	0.079336
C220	C	0.139651	1.324961	0.000018
N221	N	0.102998	1.386794	0.000030
C222	C	0.462671	0.235484	0.322985
N223	N	0.462685	0.173660	0.359650
H224	H	0.701797	0.459720	0.049132
C225	C	0.186117	0.780112	-0.080473
N226	N	0.167797	0.780105	-0.112226
C227	C	0.075496	0.780076	-0.118786
N228	N	0.093824	0.780054	-0.150533
H229	H	0.782060	0.324440	0.220998
C230	C	0.129189	1.246505	-0.219591
N231	N	0.088414	1.277411	-0.215455
H232	H	0.386419	1.037301	-0.549987
C233	C	-0.017412	0.780113	0.118788
N234	N	-0.035730	0.780104	0.150545
C235	C	0.589413	0.470462	0.240513
N236	N	0.548637	0.501362	0.244651
C237	C	0.222112	1.089823	-0.126709
N238	N	0.217987	1.058939	-0.085935
C239	C	0.139604	1.324857	-0.322956
N240	N	0.102931	1.386675	-0.359602
C241	C	0.129183	1.246600	-0.056877
N242	N	0.088393	1.277515	-0.079307
H243	H	0.773019	0.256653	-0.000055
H244	H	0.413508	0.945985	-0.859206
H245	H	0.413485	0.459805	0.049134
C246	C	0.405752	0.470447	0.126721
N247	N	0.383303	0.501319	0.085953
H248	H	0.538928	0.212379	-0.076250
H249	H	0.223517	1.100535	-0.049153
H250	H	0.538921	0.522942	-0.530298
C251	C	0.279018	0.780133	-0.080470
N252	N	0.297347	0.780121	-0.112218
H253	H	0.511816	0.459726	-0.049159
C254	C	0.405757	0.313785	0.219645
N255	N	0.383314	0.282847	0.215542
C256	C	0.589382	0.470403	-0.056921
N257	N	0.548601	0.501318	-0.079373
H258	H	0.538921	0.522916	-0.397556
H259	H	0.511830	0.100452	-0.049152
C260	C	0.405739	1.089789	-0.240535
N261	N	0.383272	1.058913	-0.244670
C262	C	0.378676	1.063405	-0.471141
N263	N	0.356230	1.139132	-0.475258
C264	C	0.682281	0.313700	-0.056936
N265	N	0.678144	0.282790	-0.079384
C266	C	-0.017403	0.780065	-0.118787
N267	N	-0.035719	0.780052	-0.150539
H268	H	0.511821	0.459850	0.239073
C269	C	0.519572	0.588230	-0.666599
N270	N	0.542021	0.512494	-0.625833
C271	C	-0.150157	0.780118	0.118774
N272	N	-0.168479	0.780111	0.150529
C273	C	-0.260777	0.780072	-0.080483
N274	N	-0.242449	0.780056	-0.112231
H275	H	0.413494	0.100523	0.049147
C276	C	0.378684	1.063453	-0.696805
N277	N	0.356231	1.139184	-0.737573
C278	C	-0.353703	0.780124	0.080448
N279	N	-0.372028	0.780129	0.112199
C280	C	-0.353694	0.780056	-0.080477
N281	N	-0.372023	0.780029	-0.112216
H282	H	-0.267115	0.780114	0.069505
C283	C	0.378683	1.063445	-0.603897
N284	N	0.356237	1.139175	-0.608018
H285	H	-0.063557	0.780068	-0.107838
C286	C	0.075491	0.780125	0.118786
N287	N	0.093813	0.780134	0.150536
H288	H	-0.143826	0.780056	-0.107835
H289	H	-0.063578	0.780131	0.107822
H290	H	0.511821	0.614375	-0.760932
C291	C	0.546700	0.496796	-0.303219
N292	N	0.569192	0.421082	-0.262444
H293	H	0.511807	0.614260	-0.140808
