data_functionalizedCrystal
_audit_creation_method	'MofGen! by Chris Wilmer'
_symmetry_space_group_name_H-M	'P1'
_symmetry_Int_Tables_number	1
_symmetry_cell_setting	triclinic
loop_
_symmetry_equiv_pos_as_xyz
  x,y,z
_cell_length_a	27.440280
_cell_length_b	31.640172
_cell_length_c	27.440280
_cell_angle_alpha	90.007773
_cell_angle_beta	59.998298
_cell_angle_gamma	60.004358
loop_
_atom_site_label
_atom_site_type_symbol
_atom_site_fract_x
_atom_site_fract_y
_atom_site_fract_z
Zr1	Zr	0.533335	0.407236	-0.063887
O2	O	0.635012	0.339751	-0.141713
O3	O	0.431669	0.427916	-0.040030
O4	O	0.533337	0.427918	-0.141701
O5	O	0.533338	0.339755	0.040159
O6	O	0.533327	0.497476	-0.141690
O7	O	0.533343	0.339748	-0.040042
O8	O	0.351461	0.497471	0.040181
O9	O	0.715204	0.339760	-0.141712
O10	O	0.473474	0.488655	-0.029846
O11	O	0.473477	0.436750	0.029999
O12	O	0.593179	0.436753	-0.089705
O13	O	0.593183	0.384849	-0.029860
Zr14	Zr	0.533310	0.518183	0.064041
Zr15	Zr	0.533319	0.518171	-0.063870
Zr16	Zr	0.533326	0.407247	0.064024
Zr17	Zr	0.661233	0.407250	-0.063885
Zr18	Zr	0.405412	0.518168	0.064040
O19	O	0.634976	0.497503	0.040184
O20	O	0.634989	0.497487	-0.141689
O21	O	0.634999	0.339767	0.040160
O22	O	0.431633	0.585668	0.141868
O23	O	0.431646	0.585652	-0.040005
O24	O	0.431656	0.427932	0.141844
O25	O	0.533307	0.585663	-0.040004
O26	O	0.533307	0.497500	0.141855
O27	O	0.533318	0.427943	0.141845
O28	O	0.533302	0.585670	0.040197
O29	O	0.715192	0.427939	-0.141699
O30	O	0.351453	0.497480	0.141853
O31	O	0.351441	0.585659	0.141867
O32	O	0.351448	0.585650	0.040195
O33	O	0.715197	0.339769	-0.040040
O34	O	0.715184	0.427948	-0.040026
O35	O	0.473466	0.488665	0.089860
O36	O	0.473462	0.540570	0.030015
O37	O	0.593168	0.488668	-0.029844
O38	O	0.593171	0.436764	0.030001
C39	C	0.373342	0.462691	0.000075
C40	C	0.319046	0.462685	0.000075
C41	C	-0.017698	0.489817	-0.031156
C42	C	-0.068722	0.489822	-0.031154
O43	O	-0.095129	0.512880	-0.057703
N44	N	-0.094236	0.462728	0.000083
C45	C	-0.068729	0.435632	0.031326
O46	O	-0.095116	0.412587	0.057896
C47	C	-0.017709	0.435630	0.031327
C48	C	0.007807	0.462722	0.000083
C49	C	0.007819	0.516907	-0.062397
C50	C	0.058840	0.516901	-0.062399
C51	C	0.084345	0.489806	-0.031161
C52	C	0.058829	0.462716	0.000080
C53	C	0.007793	0.408538	0.062573
C54	C	0.058816	0.408539	0.062572
C55	C	0.084333	0.435630	0.031328
C56	C	0.135355	0.435615	0.031317
N57	N	0.160869	0.462709	0.000080
C58	C	0.135364	0.489805	-0.031159
C59	C	-0.175874	0.435637	0.031321
C60	C	-0.226889	0.435636	0.031316
C61	C	-0.226879	0.489827	-0.031163
C62	C	-0.175860	0.489825	-0.031161
C63	C	-0.150360	0.462731	0.000084
C64	C	0.242513	0.489791	-0.031162
C65	C	0.293541	0.489781	-0.031164
C66	C	0.293524	0.435592	0.031318
C67	C	0.242503	0.435599	0.031317
C68	C	0.216997	0.462702	0.000076
O69	O	0.161793	0.412571	0.057854
O70	O	0.161752	0.512851	-0.057719
C71	C	0.533343	0.323946	0.000056
C72	C	0.533349	0.276851	0.000049
C73	C	0.470831	0.011937	0.031336
C74	C	0.470819	-0.165048	0.031347
O75	O	0.417678	-0.164893	0.057943
N76	N	0.533304	-0.214270	0.000100
C77	C	0.595795	-0.219244	-0.031148
O78	O	0.648942	-0.265172	-0.057721
C79	C	0.595807	-0.042260	-0.031156
C80	C	0.533318	0.006961	0.000088
C81	C	0.408348	0.061156	0.062578
C82	C	0.408351	0.105399	0.062572
C83	C	0.470838	0.100424	0.031324
C84	C	0.533322	0.051205	0.000082
C85	C	0.658298	-0.047235	-0.062401
C86	C	0.658295	-0.002984	-0.062399
C87	C	0.595807	0.046237	-0.031155
C88	C	0.595812	0.090472	-0.031172
N89	N	0.533328	0.139694	0.000075
C90	C	0.470841	0.144670	0.031323
C91	C	0.595785	-0.312162	-0.031143
C92	C	0.595782	-0.356408	-0.031142
C93	C	0.470806	-0.302208	0.031355
C94	C	0.470809	-0.257962	0.031350
C95	C	0.533301	-0.262940	0.000104
C96	C	0.470853	0.237582	0.031307
C97	C	0.470862	0.281827	0.031297
C98	C	0.595839	0.227623	-0.031197
C99	C	0.595830	0.183382	-0.031189
C100	C	0.533332	0.188365	0.000067
O101	O	0.648926	0.090357	-0.057748
O102	O	0.417702	0.190601	0.057902
C103	C	0.470828	-0.032306	0.031341
C104	C	0.533311	-0.081525	0.000099
C105	C	0.595798	-0.086501	-0.031148
C106	C	0.533308	-0.125771	0.000100
C107	C	0.470821	-0.120796	0.031348
C108	C	0.408337	-0.071574	0.062595
C109	C	0.408340	-0.027331	0.062589
C110	C	0.658282	-0.135723	-0.062395
C111	C	0.658274	-0.179964	-0.062387
C112	C	0.595787	-0.174988	-0.031139
C113	C	0.693303	0.462727	0.000079
C114	C	0.747599	0.462733	0.000080
C115	C	0.533334	0.462695	-0.159920
C116	C	0.533337	0.462691	-0.214222
C117	C	0.533302	0.601473	0.000099
C118	C	0.533295	0.648568	0.000106
C119	C	0.533318	0.424387	-0.448915
C120	C	0.533320	0.424385	-0.397895
O121	O	0.533302	0.391805	-0.371500
N122	N	0.533320	0.462702	-0.372376
C123	C	0.533311	0.501028	-0.397876
O124	O	0.533310	0.533620	-0.371485
C125	C	0.533304	0.501032	-0.448892
C126	C	0.533312	0.462709	-0.474412
C127	C	0.533325	0.386067	-0.474434
C128	C	0.533325	0.386069	-0.525451
C129	C	0.533318	0.424391	-0.550948
C130	C	0.533311	0.462711	-0.525429
C131	C	0.533290	0.539359	-0.474389
C132	C	0.533283	0.539360	-0.525408
C133	C	0.533291	0.501037	-0.550928
C134	C	0.533304	0.501035	-0.601943
N135	N	0.533305	0.462717	-0.627462
C136	C	0.533312	0.424395	-0.601965
C137	C	0.533323	0.501017	-0.290738
C138	C	0.533334	0.501011	-0.239725
C139	C	0.533342	0.424368	-0.239747
C140	C	0.533336	0.424372	-0.290763
C141	C	0.533323	0.462699	-0.316257
C142	C	0.533312	0.424402	-0.709104
C143	C	0.533314	0.424406	-0.760126
C144	C	0.533303	0.501050	-0.760098
C145	C	0.533304	0.501045	-0.709082
C146	C	0.533306	0.462718	-0.683585
O147	O	0.533320	0.533599	-0.628369
O148	O	0.533303	0.391813	-0.628357
C149	C	0.533311	0.462723	0.160075
C150	C	0.533307	0.462728	0.214376
C151	C	0.373322	0.601455	0.000097
C152	C	0.319019	0.648544	0.000103
C153	C	0.373331	0.462705	0.160073
C154	C	0.319031	0.462704	0.214374
C155	C	0.373311	0.601469	0.160094
C156	C	0.319004	0.648562	0.214402
C157	C	0.693334	0.323950	-0.159939
C158	C	0.747641	0.276856	-0.214248
C159	C	0.693323	0.323964	0.000058
C160	C	0.747626	0.276875	0.000051
C161	C	0.693314	0.462713	-0.159918
C162	C	0.747614	0.462715	-0.214219
C163	C	0.293524	0.643558	-0.031146
C164	C	0.242508	0.687799	-0.031151
C165	C	0.216984	0.737025	0.000096
C166	C	0.242484	0.742009	0.031346
C167	C	0.293503	0.697769	0.031348
C168	C	0.293525	0.489802	0.271126
C169	C	0.242512	0.489799	0.322153
C170	C	0.217002	0.462700	0.316425
C171	C	0.242513	0.435599	0.259667
C172	C	0.293529	0.435599	0.208642
C173	C	0.293499	0.697776	0.208668
C174	C	0.242480	0.742030	0.259691
C175	C	0.216962	0.737069	0.316449
C176	C	0.242472	0.687850	0.322182
C177	C	0.293494	0.643597	0.271159
C178	C	0.773152	0.227642	-0.208513
C179	C	0.824187	0.183389	-0.259536
C180	C	0.849708	0.188350	-0.316294
C181	C	0.824195	0.237569	-0.322028
C182	C	0.773163	0.281822	-0.271005
C183	C	0.773126	0.281861	0.031295
C184	C	0.824157	0.237620	0.031287
C185	C	0.849682	0.188394	0.000038
C186	C	0.824179	0.183409	-0.031210
C187	C	0.773154	0.227650	-0.031205
C188	C	0.773108	0.489819	-0.208473
C189	C	0.824121	0.489830	-0.259489
C190	C	0.849644	0.462734	-0.316252
C191	C	0.824145	0.435629	-0.321997
C192	C	0.773129	0.435621	-0.270981
H193	H	-0.247656	0.511890	-0.056598
Cl194	Cl	0.325582	0.523875	0.278342
Cl195	Cl	0.325547	0.581730	0.278379
H196	H	0.175441	0.773044	0.000090
Cl197	Cl	0.533339	0.549185	-0.207656
Cl198	Cl	0.329783	-0.065328	0.101876
Cl199	Cl	0.856248	0.121520	-0.252315
H200	H	0.314316	0.511842	-0.056609
H201	H	0.221695	0.782095	0.056786
H202	H	0.221752	0.683730	-0.056599
H203	H	0.221688	0.683818	0.368401
Cl204	Cl	0.329779	0.034543	0.101871
H205	H	0.314268	0.701826	0.162457
Cl206	Cl	0.913861	0.132712	-0.380432
H207	H	0.314254	0.701836	0.056798
H208	H	0.221747	0.511870	0.368363
Cl209	Cl	0.152866	0.462706	0.380578
H210	H	0.079611	0.538963	-0.087839
H211	H	0.533328	0.354865	-0.546225
Cl212	Cl	0.329790	0.167273	0.101857
H213	H	-0.155110	0.413569	0.056761
H214	H	0.752377	0.413547	-0.275668
H215	H	0.221735	0.413535	0.255012
Cl216	Cl	0.741094	0.343689	-0.278225
H217	H	0.314289	0.413534	0.162433
H218	H	0.752335	0.511884	-0.162258
Cl219	Cl	0.210418	0.803899	0.252469
Cl220	Cl	0.856282	0.243797	-0.393385
Cl221	Cl	0.736839	-0.241840	-0.101671
H222	H	0.752347	0.321939	0.056746
Cl223	Cl	0.533278	0.587540	-0.442315
Cl224	Cl	0.210456	0.523864	-0.070437
Cl225	Cl	0.152818	0.792706	0.380587
H226	H	0.419927	-0.298164	0.056795
Cl227	Cl	-0.143789	0.523886	-0.070439
Cl228	Cl	-0.024232	0.550971	-0.101678
Cl229	Cl	0.856203	0.243898	0.070576
Cl230	Cl	-0.258951	0.401568	0.070587
H231	H	0.752376	0.223593	-0.162303
Cl232	Cl	0.856273	0.121521	-0.070489
Cl233	Cl	0.913828	0.132782	0.000039
Cl234	Cl	0.533316	0.376219	-0.677059
Cl235	Cl	0.741098	0.221373	-0.070482
H236	H	0.844877	0.511901	-0.254800
H237	H	0.646676	-0.316224	-0.056591
Cl238	Cl	0.533315	0.549200	-0.322786
Cl239	Cl	0.913781	0.462747	-0.380381
H240	H	0.844933	0.413568	-0.368220
H241	H	0.079577	0.386474	0.088015
Cl242	Cl	-0.024275	0.374479	0.101857
H243	H	0.314302	0.413530	0.056749
Cl244	Cl	0.392300	0.343705	0.070577
Cl245	Cl	0.210433	0.401534	0.070587
H246	H	0.419961	0.241647	0.056760
Cl247	Cl	0.392250	-0.196087	0.070631
Cl248	Cl	0.674343	-0.418282	-0.070431
Cl249	Cl	0.329782	0.067424	0.101867
Cl250	Cl	0.736861	-0.009247	-0.101682
Cl251	Cl	0.736860	-0.109105	-0.101676
H252	H	0.646713	0.143303	-0.056639
H253	H	0.646714	0.223581	-0.056641
H254	H	0.709168	-0.139782	-0.087843
H255	H	0.533322	0.393197	-0.780904
H256	H	0.533341	0.393167	-0.311539
Cl257	Cl	0.533334	0.337885	-0.442389
H258	H	0.533347	0.393165	-0.218977
H259	H	0.533271	0.570572	-0.546161
H260	H	0.533307	0.532247	-0.688308
H261	H	0.533300	0.532250	-0.780867
H262	H	0.314305	0.603480	-0.056598
