data_functionalizedCrystal
_audit_creation_method	'MofGen! by Chris Wilmer'
_symmetry_space_group_name_H-M	'P1'
_symmetry_Int_Tables_number	1
_symmetry_cell_setting	triclinic
loop_
_symmetry_equiv_pos_as_xyz
  x,y,z
_cell_length_a	14.971487
_cell_length_b	14.519709
_cell_length_c	14.048226
_cell_angle_alpha	89.992623
_cell_angle_beta	90.000286
_cell_angle_gamma	96.352726
loop_
_atom_site_label
_atom_site_type_symbol
_atom_site_fract_x
_atom_site_fract_y
_atom_site_fract_z
O1	O	-1.187014	0.120187	-0.079026
O2	O	-0.926622	0.134578	-0.079058
O3	O	-1.063722	-0.006860	-0.079033
O4	O	-1.049914	0.261625	-0.079052
O5	O	-1.063706	-0.006868	0.079288
O6	O	-0.926606	0.134570	0.079263
O7	O	-1.186998	0.120178	0.079295
Zn8	Zn	-1.056799	0.127373	0.104416
Zn9	Zn	-1.056821	0.127384	-0.104179
O10	O	-1.049898	0.261617	0.079270
C11	C	-0.893289	0.133930	0.000098
C12	C	-0.793991	0.132001	0.000086
C13	C	-0.736812	0.215093	0.000081
C14	C	-0.643512	0.213274	0.000093
C15	C	-0.607392	0.128364	0.000104
C16	C	-0.664578	0.045267	0.000112
C17	C	-0.757876	0.047086	0.000107
C18	C	-0.470113	0.041481	0.000121
C19	C	-0.376808	0.039662	0.000125
C20	C	-0.355749	0.207670	0.000107
C21	C	-0.449047	0.209489	0.000102
C22	C	-0.506227	0.126391	0.000109
C23	C	-1.063070	-0.041224	0.000128
C24	C	-1.061142	-0.143604	0.000128
C25	C	-1.054043	-0.518495	0.000102
C26	C	-1.056014	-0.414189	0.000110
C27	C	-1.057592	-0.331053	0.000116
C28	C	-1.059564	-0.226740	0.000122
C29	C	-0.220331	0.120826	0.000131
C30	C	-0.319629	0.122753	0.000119
C31	C	-1.050550	0.295980	0.000107
C32	C	-1.052478	0.398360	0.000100
N33	N	-1.056791	0.127365	0.246777
N34	N	-1.056836	0.127385	-0.246540
C35	C	-1.117518	0.064762	0.296606
C36	C	-1.117524	0.064761	0.396264
C37	C	-1.056806	0.127369	0.446090
C38	C	-0.996073	0.189975	0.396254
C39	C	-0.996063	0.189970	0.296598
C40	C	-0.996099	0.189982	0.603968
C41	C	-0.996109	0.189988	0.703631
C42	C	-1.117559	0.064773	0.703634
C43	C	-1.117550	0.064768	0.603978
C44	C	-1.056817	0.127375	0.554148
H45	H	-0.478453	0.278630	0.000084
O46	O	-1.182991	-0.002788	0.242873
H47	H	-1.172783	0.007722	0.165204
O48	O	-0.337852	-0.051921	0.000149
H49	H	-0.295846	-0.056753	0.064680
O50	O	-0.294084	0.297302	0.000111
H51	H	-0.223139	0.281775	0.000130
H52	H	-0.635161	-0.023869	0.000135
H53	H	-0.516667	-0.026186	0.000128
H54	H	-0.804431	-0.020576	0.000111
H55	H	-1.166994	0.013793	0.563409
H56	H	-1.166972	0.013785	0.436834
H57	H	-1.167009	0.013796	0.744211
H58	H	-0.946641	0.240960	0.563400
O59	O	-0.930605	0.257493	0.757379
H60	H	-0.888358	0.301013	0.705989
O61	O	-0.930589	0.257512	0.449988
H62	H	-0.887065	0.218625	0.495415
O63	O	-0.930570	0.257496	0.242846
H64	H	-0.888357	0.301039	0.294233
H65	H	-0.766213	0.284236	0.000071
H66	H	-0.596960	0.280936	0.000087
