data_functionalizedCrystal
_audit_creation_method	'MofGen! by Chris Wilmer'
_symmetry_space_group_name_H-M	'P1'
_symmetry_Int_Tables_number	1
_symmetry_cell_setting	triclinic
loop_
_symmetry_equiv_pos_as_xyz
  x,y,z
_cell_length_a	10.654545
_cell_length_b	19.188924
_cell_length_c	9.730223
_cell_angle_alpha	89.993539
_cell_angle_beta	89.997167
_cell_angle_gamma	83.812522
loop_
_atom_site_label
_atom_site_type_symbol
_atom_site_fract_x
_atom_site_fract_y
_atom_site_fract_z
O1	O	1.665763	0.098047	-0.114283
O2	O	2.165763	0.598047	0.385717
O3	O	1.300086	0.107393	-0.114290
O4	O	1.800086	0.607393	0.385710
O5	O	1.493482	0.001133	-0.114270
O6	O	1.993482	0.501133	0.385730
O7	O	1.472367	0.204307	-0.114303
O8	O	1.972367	0.704307	0.385697
O9	O	1.493469	0.001130	0.114310
O10	O	1.993469	0.501130	0.614310
O11	O	1.300074	0.107390	0.114290
O12	O	1.800074	0.607390	0.614290
O13	O	1.665751	0.098044	0.114297
O14	O	2.165751	0.598044	0.614297
Zn15	Zn	1.482910	0.102717	0.150586
Zn16	Zn	1.982910	0.602717	0.650586
Zn17	Zn	1.482927	0.102721	-0.150578
Zn18	Zn	1.982927	0.602721	0.349422
O19	O	1.472355	0.204304	0.114277
O20	O	1.972355	0.704304	0.614277
C21	C	1.253296	0.106706	-0.000000
C22	C	1.753296	0.606706	0.500000
C23	C	1.113896	0.104655	-0.000002
C24	C	1.613896	0.604655	0.499998
C25	C	1.048405	0.103688	0.124598
C26	C	1.548405	0.603688	0.624598
C27	C	0.917427	0.101749	0.124598
C28	C	1.417427	0.601749	0.624598
C29	C	0.917441	0.101747	-0.124612
C30	C	1.417441	0.601747	0.375388
C31	C	1.048418	0.103681	-0.124611
C32	C	1.548418	0.603681	0.375389
C33	C	1.492793	-0.024884	0.000021
C34	C	1.992793	0.475116	0.500021
C35	C	1.490745	-0.102402	0.000025
C36	C	1.990745	0.397598	0.500025
C37	C	1.489796	-0.138806	-0.124574
C38	C	1.989796	0.361194	0.375426
C39	C	1.487854	-0.211641	-0.124585
C40	C	1.987854	0.288359	0.375415
C41	C	1.486886	-0.248072	0.000011
C42	C	1.986886	0.251928	0.500011
C43	C	1.487828	-0.211659	0.124627
C44	C	1.987828	0.288341	0.624627
C45	C	1.489758	-0.138824	0.124634
C46	C	1.989758	0.361176	0.624634
N47	N	1.555314	-0.367289	0.092746
N48	N	2.055314	0.132711	0.592746
N49	N	1.553483	-0.436480	0.092731
N50	N	2.053483	0.063520	0.592731
C51	C	1.481069	-0.467519	-0.000002
C52	C	1.981069	0.032481	0.499998
N53	N	1.410570	-0.426755	-0.092741
N54	N	1.910570	0.073245	0.407259
N55	N	1.412406	-0.357559	-0.092730
N56	N	1.912406	0.142441	0.407270
C57	C	1.484792	-0.327049	0.000017
C58	C	1.984792	0.172951	0.500017
C59	C	1.478012	-0.582899	-0.124622
C60	C	1.978012	-0.082899	0.375378
C61	C	1.476062	-0.655735	-0.124627
C62	C	1.976062	-0.155735	0.375373
C63	C	1.476049	-0.655752	0.124588
C64	C	1.976049	-0.155752	0.624588
C65	C	1.477986	-0.582917	0.124590
C66	C	1.977986	-0.082917	0.624590
C67	C	1.478974	-0.546495	-0.000019
C68	C	1.978974	-0.046495	0.499981
C69	C	1.712541	0.098731	0.000004
C70	C	2.212541	0.598731	0.500004
C71	C	1.851941	0.100782	-0.000003
C72	C	2.351941	0.600782	0.499997
C73	C	1.473044	0.230321	-0.000017
C74	C	1.973044	0.730321	0.499983
C75	C	1.475092	0.307839	-0.000030
C76	C	1.975092	0.807839	0.499970
N77	N	1.482908	0.102714	0.356122
N78	N	1.982908	0.602714	0.856122
N79	N	1.482938	0.102718	-0.356115
N80	N	1.982938	0.602718	0.143885
C81	C	1.568573	0.055682	0.428057
C82	C	2.068573	0.555682	0.928057
C83	C	1.568585	0.055682	0.571939
C84	C	2.068585	0.555682	1.071939
C85	C	1.397265	0.149752	0.571941
C86	C	1.897265	0.649752	1.071941
C87	C	1.397247	0.149748	0.428060
C88	C	1.897247	0.649748	0.928060
H89	H	1.101743	0.104467	-0.226082
H90	H	1.601743	0.604467	0.273918
H91	H	1.490525	-0.109184	0.226100
H92	H	1.990525	0.390816	0.726100
O93	O	1.660928	0.004933	0.350470
O94	O	2.160928	0.504933	0.850470
H95	H	1.646526	0.012828	0.238335
H96	H	2.146526	0.512828	0.738335
O97	O	1.119031	0.104733	0.258992
O98	O	1.619031	0.604733	0.758992
H99	H	1.167228	0.153120	0.264946
H100	H	1.667228	0.653120	0.764946
H101	H	1.478809	-0.553242	-0.226085
H102	H	1.978809	-0.053242	0.273915
O103	O	1.660980	0.004956	0.649532
O104	O	2.160980	0.504956	1.149532
H105	H	1.721838	0.034667	0.715073
H106	H	2.221838	0.534667	1.215073
O107	O	1.304889	0.200489	0.649529
O108	O	1.804889	0.700489	1.149529
H109	H	1.319302	0.192598	0.761664
H110	H	1.819302	0.692598	1.261664
H111	H	0.864110	0.100962	0.226060
H112	H	1.364110	0.600962	0.726060
O113	O	1.486826	-0.250915	-0.258982
O114	O	1.986826	0.249085	0.241018
H115	H	1.571516	-0.289912	-0.264929
H116	H	2.071516	0.210088	0.235071
H117	H	1.327483	0.188047	0.369487
H118	H	1.827483	0.688047	0.869487
O119	O	0.846825	0.100702	-0.259013
O120	O	1.346825	0.600702	0.240987
H121	H	0.775699	0.147327	-0.264997
H122	H	1.275699	0.647327	0.235003
O123	O	1.490829	-0.099518	-0.258967
O124	O	1.990829	0.400482	0.241033
H125	H	1.489826	-0.137072	-0.345611
H126	H	1.989826	0.362928	0.154389
H127	H	1.475282	-0.685373	-0.226095
H128	H	1.975282	-0.185373	0.273905
O129	O	1.486807	-0.250947	0.259017
O130	O	1.986807	0.249053	0.759017
H131	H	1.485326	-0.307712	0.238081
H132	H	1.985326	0.192288	0.738081
O133	O	1.475014	-0.695034	0.258981
O134	O	1.975014	-0.195034	0.758981
H135	H	1.473522	-0.751798	0.238046
H136	H	1.973522	-0.251798	0.738046
O137	O	1.479042	-0.543648	0.258979
O138	O	1.979042	-0.043648	0.758979
H139	H	1.478058	-0.581215	0.345620
H140	H	1.978058	-0.081215	0.845620
