data_functionalizedCrystal
_audit_creation_method	'MofGen! by Chris Wilmer'
_symmetry_space_group_name_H-M	'P1'
_symmetry_Int_Tables_number	1
_symmetry_cell_setting	triclinic
loop_
_symmetry_equiv_pos_as_xyz
  x,y,z
_cell_length_a	17.699097
_cell_length_b	10.723023
_cell_length_c	16.776229
_cell_angle_alpha	89.994384
_cell_angle_beta	89.989262
_cell_angle_gamma	83.877989
loop_
_atom_site_label
_atom_site_type_symbol
_atom_site_fract_x
_atom_site_fract_y
_atom_site_fract_z
O1	O	1.005068	0.157876	-0.066353
O2	O	1.505068	0.657876	0.433647
O3	O	0.784820	0.178388	-0.066340
O4	O	1.284820	0.678388	0.433660
O5	O	0.900025	-0.013531	-0.066343
O6	O	1.400025	0.486469	0.433657
O7	O	0.889863	0.349795	-0.066349
O8	O	1.389863	0.849795	0.433651
O9	O	0.900009	-0.013542	0.066233
O10	O	1.400009	0.486458	0.566233
O11	O	0.784805	0.178377	0.066237
O12	O	1.284805	0.678377	0.566237
O13	O	1.005052	0.157864	0.066224
O14	O	1.505052	0.657864	0.566224
Zn15	Zn	0.894926	0.168119	0.087280
Zn16	Zn	1.394926	0.668119	0.587280
Zn17	Zn	0.894946	0.168134	-0.087396
Zn18	Zn	1.394946	0.668134	0.412604
O19	O	0.889848	0.349783	0.066227
O20	O	1.389848	0.849783	0.566227
C21	C	0.756611	0.177645	-0.000050
C22	C	1.256611	0.677645	0.499950
C23	C	0.672579	0.175431	-0.000045
C24	C	1.172579	0.675431	0.499955
C25	C	0.156784	0.161870	-0.072344
C26	C	0.656784	0.661870	0.427656
C27	C	0.235741	0.163942	-0.072340
C28	C	0.735741	0.663942	0.427660
C29	C	0.275205	0.164973	-0.000069
C30	C	0.775205	0.664973	0.499931
C31	C	0.235709	0.163920	0.072202
C32	C	0.735709	0.663920	0.572202
C33	C	0.156754	0.161840	0.072197
C34	C	0.656754	0.661840	0.572197
C35	C	0.554126	0.172307	0.072223
C36	C	1.054126	0.672307	0.572223
C37	C	0.633086	0.174391	0.072222
C38	C	1.133086	0.674391	0.572222
C39	C	0.633113	0.174409	-0.072315
C40	C	1.133113	0.674409	0.427685
C41	C	0.554158	0.172329	-0.072319
C42	C	1.054158	0.672329	0.427681
C43	C	0.514669	0.171270	-0.000048
C44	C	1.014669	0.671270	0.499952
C45	C	0.429055	0.169021	-0.000053
C46	C	0.929055	0.669021	0.499947
C47	C	0.360817	0.167230	-0.000063
C48	C	0.860817	0.667230	0.499937
C49	C	0.899277	-0.060024	-0.000056
C50	C	1.399277	0.439976	0.499944
C51	C	0.897065	-0.198540	-0.000058
C52	C	1.397065	0.301460	0.499942
C53	C	0.896087	-0.260283	-0.068738
C54	C	1.396087	0.239717	0.431262
C55	C	0.893801	-0.403447	-0.068742
C56	C	1.393801	0.096553	0.431258
C57	C	1.033261	0.158608	-0.000068
C58	C	1.533261	0.658608	0.499932
C59	C	1.117293	0.160821	-0.000078
C60	C	1.617293	0.660821	0.499922
C61	C	0.890595	0.396276	-0.000062
C62	C	1.390595	0.896276	0.499938
C63	C	0.892807	0.534793	-0.000065
C64	C	1.392807	1.034793	0.499935
N65	N	0.894918	0.168107	0.206491
N66	N	1.394918	0.668107	0.706491
N67	N	0.894961	0.168136	-0.206607
N68	N	1.394961	0.668136	0.293393
C69	C	0.945946	0.083160	0.248206
C70	C	1.445946	0.583160	0.748206
C71	C	0.945950	0.083159	0.331659
C72	C	1.445950	0.583159	0.831659
C73	C	0.894929	0.168112	0.373394
C74	C	1.394929	0.668112	0.873394
C75	C	0.843895	0.253063	0.331672
C76	C	1.343895	0.753063	0.831672
C77	C	0.843888	0.253057	0.248222
C78	C	1.343888	0.753057	0.748222
C79	C	0.843923	0.253088	0.668220
C80	C	1.343923	0.753088	1.168220
C81	C	0.843935	0.253090	0.751676
C82	C	1.343935	0.753090	1.251676
C83	C	0.945985	0.083190	0.751656
C84	C	1.445985	0.583190	1.251656
C85	C	0.945978	0.083184	0.668206
C86	C	1.445978	0.583184	1.168206
C87	C	0.894941	0.168130	0.626492
C88	C	1.394941	0.668130	1.126492
C89	C	0.894937	0.168128	0.536003
C90	C	1.394937	0.668128	1.036003
C91	C	0.894937	0.168121	0.463881
C92	C	1.394937	0.668121	0.963881
H93	H	0.124657	0.161040	-0.131195
H94	H	0.624657	0.661040	0.368805
H95	H	0.987526	0.014011	0.634228
H96	H	1.487526	0.514011	1.134228
C97	C	0.961544	-0.086679	0.845508
C98	C	1.461544	0.413321	1.345508
C99	C	1.002078	-0.010201	0.797512
C100	C	1.502078	0.489799	1.297512
H101	H	0.996175	-0.144334	0.873811
H102	H	1.496175	0.355666	1.373811
H103	H	0.931166	-0.036086	0.882303
H104	H	1.431166	0.463914	1.382303
H105	H	0.929811	-0.131498	0.812955
H106	H	1.429811	0.368502	1.312955
H107	H	1.033807	0.034625	0.830065
H108	H	1.533807	0.534625	1.330065
H109	H	1.032469	-0.060800	0.760713
H110	H	1.532469	0.439200	1.260713
H111	H	0.802334	0.322228	0.214258
H112	H	1.302334	0.822228	0.714258
H113	H	0.893652	-0.412119	0.058738
H114	H	1.393652	0.087881	0.558738
H115	H	0.267892	0.164788	-0.131186
H116	H	0.767892	0.664788	0.368814
C117	C	0.828211	-0.429516	-0.191896
C118	C	1.328211	0.070484	0.308104
C119	C	0.892656	-0.475118	-0.148122
C120	C	1.392656	0.024882	0.351878
H121	H	0.827505	-0.473762	-0.240904
H122	H	1.327505	0.026238	0.259096
H123	H	0.783822	-0.441147	-0.162174
H124	H	1.283822	0.058853	0.337826
H125	H	0.829609	-0.342711	-0.202306
H126	H	1.329609	0.157289	0.297694
H127	H	0.891255	-0.561922	-0.137707
H128	H	1.391255	-0.061922	0.362293
H129	H	0.937056	-0.463497	-0.177850
H130	H	1.437056	0.036503	0.322150
C131	C	0.562119	0.172539	-0.215193
C132	C	1.062119	0.672539	0.284807
C133	C	0.510781	0.171189	-0.151761
C134	C	1.010781	0.671189	0.348239
H135	H	0.535339	0.171824	-0.264237
H136	H	1.035339	0.671824	0.235763
H137	H	0.587516	0.246084	-0.212190
H138	H	1.087516	0.746084	0.287810
H139	H	0.598310	0.100611	-0.212176
H140	H	1.098310	0.600611	0.287824
H141	H	0.474592	0.243123	-0.154775
H142	H	0.974592	0.743123	0.345225
H143	H	0.485371	0.097636	-0.154766
H144	H	0.985371	0.597636	0.345234
C145	C	0.741091	0.280359	0.845564
C146	C	1.241091	0.780359	1.345564
C147	C	0.787845	0.346467	0.797557
C148	C	1.287845	0.846467	1.297557
H149	H	0.706470	0.338005	0.873892
H150	H	1.206470	0.838005	1.373892
H151	H	0.713600	0.228478	0.813023
H152	H	1.213600	0.728478	1.313023
H153	H	0.771498	0.229774	0.882345
H154	H	1.271498	0.729774	1.382345
H155	H	0.757438	0.397045	0.760771
H156	H	1.257438	0.897045	1.260771
H157	H	0.815338	0.398369	0.830101
H158	H	1.315338	0.898369	1.330101
H159	H	0.665275	0.175266	-0.131161
H160	H	1.165275	0.675266	0.368839
H161	H	0.267847	0.164752	0.131046
H162	H	0.767847	0.664752	0.631046
H163	H	0.665216	0.175231	0.131077
H164	H	1.165216	0.675231	0.631077
H165	H	0.124600	0.160999	0.131044
H166	H	0.624600	0.660999	0.631044
H167	H	0.896205	-0.251667	0.058738
H168	H	1.396205	0.248333	0.558738
H169	H	0.987496	0.013987	0.214231
H170	H	1.487496	0.513987	0.714231
C171	C	0.798597	0.328524	0.459604
C172	C	1.298597	0.828524	0.959604
C173	C	0.787813	0.346449	0.377546
C174	C	1.287813	0.846449	0.877546
H175	H	0.763977	0.386187	0.487921
H176	H	1.263977	0.886187	0.987921
H177	H	0.789947	0.245273	0.473288
H178	H	1.289947	0.745273	0.973288
H179	H	0.849181	0.341978	0.473253
H180	H	1.349181	0.841978	0.973253
H181	H	0.737231	0.332986	0.363896
H182	H	1.237231	0.832986	0.863896
H183	H	0.796457	0.429720	0.363856
H184	H	1.296457	0.929720	0.863856
H185	H	0.896939	-0.207154	-0.127534
H186	H	1.396939	0.292846	0.372466
H187	H	0.987501	0.013988	0.365623
H188	H	1.487501	0.513988	0.865623
H189	H	0.802369	0.322256	0.634263
H190	H	1.302369	0.822256	1.134263
H191	H	0.521985	0.171426	0.131070
H192	H	1.021985	0.671426	0.631070
