data_functionalizedCrystal
_audit_creation_method	'MofGen! by Chris Wilmer'
_symmetry_space_group_name_H-M	'P1'
_symmetry_Int_Tables_number	1
_symmetry_cell_setting	triclinic
loop_
_symmetry_equiv_pos_as_xyz
  x,y,z
_cell_length_a	17.699083
_cell_length_b	14.519709
_cell_length_c	16.176319
_cell_angle_alpha	89.992256
_cell_angle_beta	89.998611
_cell_angle_gamma	83.481580
loop_
_atom_site_label
_atom_site_type_symbol
_atom_site_fract_x
_atom_site_fract_y
_atom_site_fract_z
O1	O	1.004413	0.116624	-0.068632
O2	O	0.784078	0.131798	-0.068660
O3	O	0.900087	-0.010052	-0.068638
O4	O	0.888403	0.258474	-0.068654
O5	O	0.900071	-0.010061	0.068855
O6	O	0.784062	0.131789	0.068833
O7	O	1.004397	0.116615	0.068861
Cu8	Cu	0.894228	0.124201	0.081401
Cu9	Cu	0.894247	0.124212	-0.081200
O10	O	0.888387	0.258465	0.068839
C11	C	0.755871	0.131249	0.000083
C12	C	0.671848	0.129618	0.000073
C13	C	0.623466	0.212881	0.000068
C14	C	0.544518	0.211343	0.000079
C15	C	0.513954	0.126541	0.000089
C16	C	0.562343	0.043272	0.000096
C17	C	0.641289	0.044811	0.000091
C18	C	0.243962	0.037064	0.000117
C19	C	0.165010	0.035531	0.000119
C20	C	0.147191	0.203596	0.000105
C21	C	0.226137	0.205135	0.000100
C22	C	0.274519	0.121866	0.000112
C23	C	0.360123	0.123535	0.000102
C24	C	0.428352	0.124872	0.000093
C25	C	0.899534	-0.044414	0.000109
C26	C	0.897903	-0.146789	0.000109
C27	C	0.891896	-0.521659	0.000087
C28	C	0.893564	-0.417358	0.000093
C29	C	0.894899	-0.334227	0.000099
C30	C	0.896568	-0.229920	0.000104
C31	C	1.032603	0.117164	0.000116
C32	C	1.116626	0.118795	0.000121
C33	C	0.888940	0.292827	0.000090
C34	C	0.890572	0.395202	0.000085
N35	N	0.894220	0.124193	0.195767
N36	N	0.894260	0.124213	-0.195565
C37	C	0.945604	0.061408	0.239040
C38	C	0.945608	0.061407	0.325588
C39	C	0.894231	0.124196	0.368859
C40	C	0.842841	0.186985	0.325579
C41	C	0.842834	0.186981	0.239034
C42	C	0.842867	0.187002	0.674608
C43	C	0.842879	0.187003	0.761159
C44	C	0.945641	0.061428	0.761161
C45	C	0.945634	0.061424	0.674616
C46	C	0.894242	0.124209	0.631343
C47	C	0.894237	0.124208	0.537499
C48	C	0.894238	0.124202	0.462702
H49	H	0.283346	-0.030739	0.000127
H50	H	0.800990	0.238106	0.203801
O51	O	0.497628	0.292310	0.000037
C52	C	0.488284	0.459176	0.000068
C53	C	0.541474	0.367546	0.000094
H54	H	0.523712	0.520027	0.000133
H55	H	0.450887	0.462723	-0.057481
H56	H	0.450867	0.462606	0.057600
H57	H	0.578938	0.364054	-0.057398
H58	H	0.578819	0.364036	0.057682
O59	O	0.995500	0.000297	0.367528
C60	C	1.039639	-0.160124	0.394055
C61	C	0.983100	-0.091018	0.346495
H62	H	1.029622	-0.233968	0.377081
H63	H	1.100282	-0.148260	0.377006
H64	H	1.030836	-0.149297	0.463341
H65	H	0.991834	-0.101804	0.277199
H66	H	0.922478	-0.102900	0.363613
H67	H	0.537452	-0.025775	0.000116
O68	O	0.688183	-0.036156	0.000055
C69	C	0.697531	-0.203022	0.000116
C70	C	0.644339	-0.111394	0.000134
H71	H	0.662105	-0.263875	0.000198
H72	H	0.734921	-0.206563	-0.057440
H73	H	0.734954	-0.206455	0.057642
H74	H	0.606868	-0.107899	-0.057352
H75	H	0.607000	-0.107890	0.057728
O76	O	0.135284	-0.046828	-0.000012
C77	C	0.056453	-0.146077	-0.071202
C78	C	0.090082	-0.052791	-0.071163
H79	H	0.019888	-0.150921	-0.128712
H80	H	0.104563	-0.205366	-0.071245
H81	H	0.019969	-0.150980	-0.013634
H82	H	0.126559	-0.047798	-0.128721
H83	H	0.041936	0.006452	-0.071077
H84	H	0.251017	0.274189	0.000088
O85	O	0.792922	0.248082	0.632708
C86	C	0.690965	0.372606	0.641847
C87	C	0.747501	0.303493	0.689405
H88	H	0.654217	0.417410	0.687666
H89	H	0.723655	0.418691	0.601338
H90	H	0.653133	0.332828	0.601320
H91	H	0.785347	0.343195	0.729977
H92	H	0.714764	0.257408	0.729862
O93	O	0.793005	0.247944	0.367739
C94	C	0.747443	0.303574	0.501063
C95	C	0.803933	0.234499	0.453423
H96	H	0.756248	0.292715	0.570347
H97	H	0.757399	0.377446	0.484092
H98	H	0.686816	0.291658	0.484008
H99	H	0.864582	0.246331	0.470452
H100	H	0.793910	0.160652	0.470398
H101	H	0.987485	0.010302	0.796403
H102	H	0.987445	0.010281	0.203814
H103	H	0.987473	0.010298	0.639387
H104	H	0.107789	0.271397	0.000100
O105	O	0.653187	0.295237	-0.000090
C106	C	0.732003	0.394500	-0.071311
C107	C	0.698385	0.301207	-0.071247
H108	H	0.768565	0.399350	-0.128827
H109	H	0.683887	0.453782	-0.071365
H110	H	0.768489	0.399409	-0.013748
H111	H	0.661907	0.296208	-0.128800
H112	H	0.746536	0.241971	-0.071150
H113	H	0.801038	0.238136	0.796389
