data_functionalizedCrystal
_audit_creation_method	'MofGen! by Chris Wilmer'
_symmetry_space_group_name_H-M	'P1'
_symmetry_Int_Tables_number	1
_symmetry_cell_setting	triclinic
loop_
_symmetry_equiv_pos_as_xyz
  x,y,z
_cell_length_a	10.654550
_cell_length_b	16.776229
_cell_length_c	10.654550
_cell_angle_alpha	89.993527
_cell_angle_beta	95.515069
_cell_angle_gamma	90.003878
loop_
_atom_site_label
_atom_site_type_symbol
_atom_site_fract_x
_atom_site_fract_y
_atom_site_fract_z
O1	O	1.667846	0.066228	-0.176402
O2	O	2.167846	0.566228	0.323598
O3	O	1.302367	0.066243	-0.193208
O4	O	1.802367	0.566243	0.306792
O5	O	1.493509	0.066230	-0.002066
O6	O	1.993509	0.566230	0.497934
O7	O	1.476703	0.066241	-0.367544
O8	O	1.976703	0.566241	0.132456
O9	O	1.493484	-0.066346	-0.002054
O10	O	1.993484	0.433654	0.497946
O11	O	1.302342	-0.066333	-0.193196
O12	O	1.802342	0.433667	0.306804
O13	O	1.667820	-0.066348	-0.176390
O14	O	2.167820	0.433652	0.323610
Zn15	Zn	1.485077	-0.087390	-0.184791
Zn16	Zn	1.985077	0.412610	0.315209
Zn17	Zn	1.485111	0.087285	-0.184807
Zn18	Zn	1.985111	0.587285	0.315193
O19	O	1.476678	-0.066335	-0.367532
O20	O	1.976678	0.433665	0.132468
C21	C	1.255556	-0.000043	-0.191968
C22	C	1.755556	0.499957	0.308032
C23	C	1.116113	-0.000038	-0.188276
C24	C	1.616113	0.499962	0.311724
N25	N	1.485063	-0.206601	-0.184779
N26	N	1.985063	0.293399	0.315221
C27	C	1.036628	-0.000037	-0.300818
C28	C	1.536628	0.499963	0.199182
C29	C	0.905607	-0.000051	-0.297341
C30	C	1.405607	0.499949	0.202659
C31	C	0.933570	-0.000063	-0.068772
C32	C	1.433570	0.499937	0.431228
C33	C	1.064588	-0.000055	-0.072250
C34	C	1.564588	0.499945	0.427750
C35	C	1.569727	-0.248324	-0.100177
C36	C	2.069727	0.251676	0.399823
C37	C	1.569734	-0.331776	-0.100176
C38	C	2.069734	0.168224	0.399824
C39	C	1.485082	-0.373504	-0.184785
C40	C	1.985082	0.126496	0.315215
C41	C	1.400409	-0.331776	-0.269391
C42	C	1.900409	0.168224	0.230609
C43	C	1.400396	-0.248325	-0.269385
C44	C	1.900396	0.251675	0.230615
C45	C	1.400454	-0.668323	-0.269416
C46	C	1.900454	-0.168323	0.230584
C47	C	1.400475	-0.751779	-0.269418
C48	C	1.900475	-0.251779	0.230582
C49	C	1.569792	-0.751774	-0.100207
C50	C	2.069792	-0.251774	0.399793
C51	C	1.569779	-0.668323	-0.100201
C52	C	2.069779	-0.168323	0.399799
C53	C	1.485102	-0.626602	-0.184803
C54	C	1.985102	-0.126602	0.315197
C55	C	1.485094	-0.536114	-0.184801
C56	C	1.985094	-0.036114	0.315199
C57	C	1.485095	-0.463991	-0.184793
C58	C	1.985095	0.036009	0.315207
C59	C	1.714631	-0.000060	-0.177630
C60	C	2.214631	0.499940	0.322370
C61	C	1.854074	-0.000060	-0.181322
C62	C	2.354074	0.499940	0.318678
C63	C	1.492263	-0.000057	0.044738
C64	C	1.992263	0.499943	0.544738
C65	C	1.488571	-0.000056	0.184181
C66	C	1.988571	0.499944	0.684181
N67	N	1.485134	0.206496	-0.184809
N68	N	1.985134	0.706496	0.315191
C69	C	1.477925	-0.000046	-0.414336
C70	C	1.977925	0.499954	0.085664
C71	C	1.481616	-0.000042	-0.553779
C72	C	1.981616	0.499958	-0.053779
C73	C	1.601112	-0.000060	0.263667
C74	C	2.101112	0.499940	0.763667
C75	C	1.597636	-0.000050	0.394688
C76	C	2.097636	0.499950	0.894688
C77	C	1.369066	-0.000035	0.366725
C78	C	1.869066	0.499965	0.866725
C79	C	1.372544	-0.000040	0.235706
C80	C	1.872544	0.499960	0.735706
H81	H	1.078574	-0.000029	-0.395294
H82	H	1.578574	0.499971	0.104706
C83	C	0.876879	-0.000075	0.058851
C84	C	1.376879	0.499925	0.558851
N85	N	0.834182	-0.000081	0.154979
N86	N	1.334182	0.499919	0.654979
C87	C	1.662900	-0.622427	-0.007123
C88	C	2.162900	-0.122427	0.492877
N89	N	1.733036	-0.587859	0.062991
N90	N	2.233036	-0.087859	0.562991
H91	H	0.840894	-0.000052	-0.388984
H92	H	1.340894	0.499948	0.111016
C93	C	1.241444	-0.000033	0.423415
C94	C	1.741444	0.499967	0.923415
N95	N	1.145315	-0.000037	0.466113
N96	N	1.645315	0.499963	0.966113
H97	H	1.638737	-0.785752	-0.031316
H98	H	2.138737	-0.285752	0.468684
H99	H	1.129309	-0.000058	0.019401
H100	H	1.629309	0.499942	0.519401
C101	C	1.662852	-0.202431	-0.007099
C102	C	2.162852	0.297569	0.492901
N103	N	1.732993	-0.167866	0.063015
N104	N	2.232993	0.332134	0.563015
C105	C	1.662841	-0.377667	-0.007076
C106	C	2.162841	0.122333	0.492924
N107	N	1.732962	-0.412232	0.063063
N108	N	2.232962	0.087768	0.563063
H109	H	1.331537	-0.785753	-0.338319
H110	H	1.831537	-0.285753	0.161681
H111	H	1.331510	-0.634360	-0.338304
H112	H	1.831510	-0.134360	0.161696
C113	C	1.307278	-0.377680	-0.362450
C114	C	1.807278	0.122320	0.137550
N115	N	1.237130	-0.412254	-0.432543
N116	N	1.737130	0.087746	0.067457
H117	H	1.331453	-0.214355	-0.338275
H118	H	1.831453	0.285645	0.161725
H119	H	1.695588	-0.000072	0.221720
H120	H	2.195588	0.499928	0.721720
H121	H	1.689279	-0.000052	0.459401
H122	H	2.189279	0.499948	0.959401
H123	H	1.280893	-0.000034	0.170985
H124	H	1.780893	0.499966	0.670985
