data_functionalizedCrystal
_audit_creation_method	'MofGen! by Chris Wilmer'
_symmetry_space_group_name_H-M	'P1'
_symmetry_Int_Tables_number	1
_symmetry_cell_setting	triclinic
loop_
_symmetry_equiv_pos_as_xyz
  x,y,z
_cell_length_a	16.956995
_cell_length_b	16.992695
_cell_length_c	16.776229
_cell_angle_alpha	89.993412
_cell_angle_beta	89.989150
_cell_angle_gamma	83.361347
loop_
_atom_site_label
_atom_site_type_symbol
_atom_site_fract_x
_atom_site_fract_y
_atom_site_fract_z
O1	O	1.060103	0.032365	-0.066343
O2	O	1.393436	0.365698	0.266990
O3	O	1.726769	0.699032	0.600323
O4	O	0.829692	0.059778	-0.066333
O5	O	1.163026	0.393112	0.267000
O6	O	1.496359	0.726445	0.600333
O7	O	0.943974	-0.068011	-0.066332
O8	O	1.277307	0.265322	0.267001
O9	O	1.610641	0.598656	0.600335
O10	O	0.945821	0.160154	-0.066345
O11	O	1.279155	0.493488	0.266989
O12	O	1.612488	0.826821	0.600322
O13	O	0.943956	-0.068017	0.066245
O14	O	1.277290	0.265316	0.399578
O15	O	1.610623	0.598650	0.732911
O16	O	0.829675	0.059773	0.066243
O17	O	1.163008	0.393106	0.399577
O18	O	1.496342	0.726439	0.732910
O19	O	1.060085	0.032359	0.066233
O20	O	1.393418	0.365692	0.399566
O21	O	1.726752	0.699026	0.732900
Zn22	Zn	0.944877	0.046065	0.087288
Zn23	Zn	1.278211	0.379398	0.420621
Zn24	Zn	1.611544	0.712732	0.753954
Zn25	Zn	0.944900	0.046073	-0.087388
Zn26	Zn	1.278234	0.379406	0.245946
Zn27	Zn	1.611567	0.712739	0.579279
O28	O	0.945804	0.160149	0.066232
O29	O	1.279137	0.493482	0.399565
O30	O	1.612470	0.826815	0.732898
C31	C	0.800065	0.061179	-0.000044
C32	C	1.133398	0.394512	0.333290
C33	C	1.466732	0.727846	0.666623
C34	C	0.711811	0.065352	-0.000040
C35	C	1.045144	0.398685	0.333294
C36	C	1.378477	0.732019	0.666627
C37	C	0.941589	-0.097073	-0.000044
C38	C	1.274922	0.236261	0.333290
C39	C	1.608255	0.569594	0.666623
C40	C	0.934498	-0.183657	-0.000044
C41	C	1.267831	0.149676	0.333290
C42	C	1.601165	0.483009	0.666623
C43	C	0.214500	0.096570	-0.000071
C44	C	0.547833	0.429904	0.333262
C45	C	0.881166	0.763237	0.666596
C46	C	0.297425	0.092643	-0.000070
C47	C	0.630758	0.425977	0.333263
C48	C	0.964091	0.759310	0.666596
C49	C	0.343815	0.018931	-0.000060
C50	C	0.677149	0.352264	0.333273
C51	C	1.010482	0.685597	0.666607
C52	C	0.307278	-0.050860	-0.000059
C53	C	0.640611	0.282474	0.333274
C54	C	0.973944	0.615807	0.666608
C55	C	0.224354	-0.046932	-0.000065
C56	C	0.557687	0.286401	0.333268
C57	C	0.891021	0.619735	0.666601
C58	C	0.592349	-0.000510	-0.000045
C59	C	0.925682	0.332823	0.333288
C60	C	1.259016	0.666156	0.666622
C61	C	0.675278	-0.004433	-0.000036
C62	C	1.008611	0.328900	0.333297
C63	C	1.341945	0.662234	0.666631
C64	C	0.665419	0.139071	-0.000049
C65	C	0.998753	0.472404	0.333284
C66	C	1.332086	0.805737	0.666618
C67	C	0.582495	0.142992	-0.000051
C68	C	0.915828	0.476325	0.333283
C69	C	1.249161	0.809659	0.666616
C70	C	0.545964	0.073202	-0.000054
C71	C	0.879297	0.406535	0.333280
C72	C	1.212631	0.739869	0.666613
N73	N	0.428578	0.014915	-0.000057
N74	N	0.761912	0.348248	0.333277
N75	N	1.095245	0.681581	0.666610
N76	N	0.461203	0.077218	-0.000063
N77	N	0.794536	0.410552	0.333271
N78	N	1.127869	0.743885	0.666604
C79	C	1.002913	-0.238332	-0.000046
C80	C	1.336246	0.095002	0.333288
C81	C	1.669580	0.428335	0.666621
C82	C	0.996246	-0.319686	-0.000053
C83	C	1.329579	0.013647	0.333280
C84	C	1.662912	0.346980	0.666614
C85	C	0.921163	-0.346365	-0.000052
C86	C	1.254496	-0.013031	0.333281
C87	C	1.587830	0.320302	0.666614
C88	C	0.852743	-0.291683	-0.000053
C89	C	1.186076	0.041650	0.333281
C90	C	1.519410	0.374983	0.666614
C91	C	0.859411	-0.210331	-0.000051
C92	C	1.192744	0.123003	0.333282
C93	C	1.526078	0.456336	0.666616
C94	C	0.893527	-0.588171	-0.000062
C95	C	1.226861	-0.254838	0.333271
C96	C	1.560194	0.078495	0.666604
C97	C	0.886865	-0.669531	-0.000061
C98	C	1.220198	-0.336198	0.333272
C99	C	1.553531	-0.002864	0.666605
C100	C	1.030368	-0.697528	-0.000063
C101	C	1.363701	-0.364195	0.333270
C102	C	1.697035	-0.030861	0.666603
C103	C	1.037029	-0.616172	-0.000057
C104	C	1.370363	-0.282839	0.333276
C105	C	1.703696	0.050494	0.666610
C106	C	0.968609	-0.561498	-0.000061
C107	C	1.301943	-0.228165	0.333272
C108	C	1.635276	0.105168	0.666605
N109	N	0.914346	-0.429522	-0.000057
N110	N	1.247680	-0.096188	0.333276
N111	N	1.581013	0.237145	0.666609
N112	N	0.975427	-0.478343	-0.000062
N113	N	1.308760	-0.145010	0.333271
N114	N	1.642093	0.188324	0.666605
C115	C	1.089713	0.030958	-0.000058
C116	C	1.423046	0.364292	0.333275
C117	C	1.756379	0.697625	0.666608
C118	C	1.177967	0.026785	-0.000067
C119	C	1.511300	0.360119	0.333266
C120	C	1.844634	0.693452	0.666599
C121	C	0.948189	0.189210	-0.000058
C122	C	1.281522	0.522543	0.333275
C123	C	1.614856	0.855877	0.666608
C124	C	0.955280	0.275795	-0.000064
C125	C	1.288613	0.609128	0.333270
C126	C	1.621946	0.942461	0.666603
N127	N	0.944867	0.046059	0.206499
N128	N	1.278200	0.379392	0.539832
N129	N	1.611534	0.712725	0.873165
C130	C	0.995488	-0.010506	0.248216
C131	C	1.328822	0.322828	0.581550
C132	C	1.662155	0.656161	0.914883
C133	C	0.995492	-0.010506	0.331669
C134	C	1.328826	0.322827	0.665002
C135	C	1.662159	0.656160	0.998335
C136	C	0.944878	0.046062	0.373402
C137	C	1.278211	0.379395	0.706735
C138	C	1.611545	0.712728	1.040068
C139	C	0.894251	0.102629	0.331678
C140	C	1.227584	0.435962	0.665012
C141	C	1.560918	0.769295	0.998345
C142	C	0.894244	0.102625	0.248227
C143	C	1.227577	0.435959	0.581561
C144	C	1.560911	0.769292	0.914894
C145	C	0.894278	0.102644	0.668225
C146	C	1.227612	0.435977	1.001559
C147	C	1.560945	0.769310	1.334892
C148	C	0.894291	0.102644	0.751682
C149	C	1.227624	0.435977	1.085015
C150	C	1.560958	0.769311	1.418349
C151	C	0.995527	-0.010488	0.751667
C152	C	1.328860	0.322845	1.085000
C153	C	1.662193	0.656179	1.418333
C154	C	0.995519	-0.010492	0.668216
C155	C	1.328853	0.322842	1.001549
C156	C	1.662186	0.656175	1.334883
C157	C	0.944890	0.046073	0.626500
C158	C	1.278223	0.379406	0.959833
C159	C	1.611557	0.712739	1.293166
C160	C	0.944885	0.046072	0.536011
C161	C	1.278219	0.379405	0.869345
C162	C	1.611552	0.712738	1.202678
C163	C	0.944886	0.046067	0.463888
C164	C	1.278219	0.379400	0.797222
C165	C	1.611553	0.712733	1.130555
N166	N	0.944909	0.046076	0.793401
N167	N	1.278242	0.379409	1.126734
N168	N	1.611576	0.712742	1.460068
H169	H	0.176733	0.156595	-0.000073
H170	H	0.510067	0.489929	0.333260
H171	H	0.843400	0.823262	0.666593
Br172	Br	0.715001	0.233780	-0.000050
Br173	Br	1.048334	0.567114	0.333284
Br174	Br	1.381668	0.900447	0.666617
H175	H	1.036708	-0.056567	0.214243
H176	H	1.370041	0.276767	0.547576
H177	H	1.703374	0.610100	0.880910
Br178	Br	1.089099	-0.393885	-0.000056
Br179	Br	1.422432	-0.060552	0.333277
Br180	Br	1.755766	0.272781	0.666610
Br181	Br	0.370236	-0.150900	-0.000050
Br182	Br	0.703569	0.182433	0.333284
Br183	Br	1.036902	0.515767	0.666617
H184	H	0.713048	-0.064462	-0.000032
H185	H	1.046381	0.268871	0.333302
H186	H	1.379715	0.602205	0.666635
H187	H	0.194611	-0.103758	-0.000064
H188	H	0.527944	0.229575	0.333269
H189	H	0.861277	0.562908	0.666603
Br190	Br	1.064239	-0.087257	0.808285
Br191	Br	1.397572	0.246076	1.141618
Br192	Br	1.730906	0.579410	1.474952
Br193	Br	0.825535	0.179390	0.191610
Br194	Br	1.158868	0.512723	0.524944
Br195	Br	1.492201	0.846057	0.858277
H196	H	0.853072	0.148710	0.785660
H197	H	1.186405	0.482043	1.118993
H198	H	1.519739	0.815377	1.452326
Br199	Br	0.825571	0.179408	0.611615
Br200	Br	1.158904	0.512741	0.944948
Br201	Br	1.492237	0.846075	1.278282
H202	H	0.791609	-0.313411	-0.000057
H203	H	1.124942	0.019922	0.333276
H204	H	1.458276	0.353255	0.666609
Br205	Br	1.064191	-0.087276	0.388288
Br206	Br	1.397524	0.246058	0.721622
Br207	Br	1.730857	0.579391	1.054955
Br208	Br	0.766559	-0.136128	-0.000055
Br209	Br	1.099892	0.197206	0.333279
Br210	Br	1.433225	0.530539	0.666612
H211	H	0.327165	0.149470	-0.000081
H212	H	0.660499	0.482803	0.333253
H213	H	0.993832	0.816136	0.666586
Br214	Br	0.542782	-0.095226	-0.000073
Br215	Br	0.876115	0.238107	0.333261
Br216	Br	1.209449	0.571441	0.666594
Br217	Br	1.104816	-0.202134	-0.000035
Br218	Br	1.438149	0.131199	0.333298
Br219	Br	1.771482	0.464533	0.666632
Br220	Br	1.123218	-0.771731	-0.000057
Br221	Br	1.456552	-0.438398	0.333276
Br222	Br	1.789885	-0.105065	0.666609
H223	H	1.036737	-0.056552	0.634239
H224	H	1.370070	0.276781	0.967573
H225	H	1.703404	0.610115	1.300906
Br226	Br	0.825552	0.179396	0.388313
Br227	Br	1.158886	0.512730	0.721646
Br228	Br	1.492219	0.846063	1.054979
Br229	Br	0.800671	-0.513981	-0.000073
Br230	Br	1.134004	-0.180648	0.333260
Br231	Br	1.467338	0.152686	0.666593
Br232	Br	0.519541	0.243034	-0.000068
Br233	Br	0.852874	0.576368	0.333265
Br234	Br	1.186207	0.909701	0.666598
H235	H	0.825720	-0.691248	-0.000048
H236	H	1.159054	-0.357915	0.333285
H237	H	1.492387	-0.024581	0.666619
Br238	Br	1.138931	-0.579972	-0.000083
Br239	Br	1.472264	-0.246639	0.333250
Br240	Br	1.805598	0.086695	0.666583
