data_functionalizedCrystal
_audit_creation_method	'MofGen! by Chris Wilmer'
_symmetry_space_group_name_H-M	'P1'
_symmetry_Int_Tables_number	1
_symmetry_cell_setting	triclinic
loop_
_symmetry_equiv_pos_as_xyz
  x,y,z
_cell_length_a	29.839134
_cell_length_b	29.839131
_cell_length_c	29.839125
_cell_angle_alpha	90.017709
_cell_angle_beta	90.021980
_cell_angle_gamma	90.036281
loop_
_atom_site_label
_atom_site_type_symbol
_atom_site_fract_x
_atom_site_fract_y
_atom_site_fract_z
Zn1	Zn	0.686720	-0.178978	0.254125
Zn2	Zn	1.186720	0.321022	0.754125
Zn3	Zn	0.686652	-0.254090	0.178995
Zn4	Zn	1.186652	0.245910	0.678995
Zn5	Zn	0.611602	-0.178968	0.178995
Zn6	Zn	1.111602	0.321032	0.678995
Zn7	Zn	0.611550	-0.254075	0.254083
Zn8	Zn	1.111550	0.245925	0.754083
O9	O	0.649131	-0.216528	0.216549
O10	O	1.149131	0.283472	0.716549
O11	O	0.749578	-0.188952	0.244176
O12	O	1.249578	0.311048	0.744176
O13	O	0.676690	-0.244127	0.116128
O14	O	1.176690	0.255873	0.616128
O15	O	0.621617	-0.116102	0.188978
O16	O	1.121617	0.383898	0.688978
O17	O	0.749528	-0.244137	0.188979
O18	O	1.249528	0.255863	0.688979
O19	O	0.676805	-0.116109	0.244176
O20	O	1.176805	0.383891	0.744176
O21	O	0.621551	-0.188935	0.116127
O22	O	1.121551	0.311065	0.616127
O23	O	0.548728	-0.188921	0.188938
O24	O	1.048728	0.311079	0.688938
O25	O	0.621528	-0.244111	0.316956
O26	O	1.121528	0.255889	0.816956
O27	O	0.548690	-0.244101	0.244105
O28	O	1.048690	0.255899	0.744105
O29	O	0.676755	-0.188937	0.316987
O30	O	1.176755	0.311063	0.816987
O31	O	0.676639	-0.316955	0.188938
O32	O	1.176639	0.183045	0.688938
O33	O	0.621462	-0.316944	0.244105
O34	O	1.121462	0.183056	0.744105
C35	C	0.532408	-0.216509	0.216517
C36	C	1.032408	0.283491	0.716517
C37	C	0.482474	-0.216511	0.216514
C38	C	0.982474	0.283489	0.716514
C39	C	0.649050	-0.333250	0.216527
C40	C	1.149050	0.166750	0.716527
C41	C	0.649056	-0.383185	0.216533
C42	C	1.149056	0.116815	0.716533
C43	C	0.172820	-0.245303	0.245240
C44	C	0.672820	0.254697	0.745240
C45	C	-0.014853	-0.245315	0.245260
C46	C	0.485147	0.254685	0.745260
O47	O	-0.039127	-0.269774	0.269665
O48	O	0.460873	0.230226	0.769665
N49	N	-0.038311	-0.216544	0.216583
N50	N	0.461689	0.283456	0.716583
C51	C	-0.014848	-0.187766	0.187902
C52	C	0.485152	0.312234	0.687902
O53	O	-0.039107	-0.163291	0.163514
O54	O	0.460893	0.336709	0.663514
C55	C	0.172824	-0.187751	0.187884
C56	C	0.672824	0.312249	0.687884
C57	C	0.196280	-0.216527	0.216560
C58	C	0.696280	0.283473	0.716560
C59	C	0.196276	-0.274076	0.273913
C60	C	0.696276	0.225924	0.773913
C61	C	0.243191	-0.274075	0.273906
C62	C	0.743191	0.225925	0.773906
C63	C	0.266651	-0.245299	0.245226
C64	C	0.766651	0.254701	0.745226
C65	C	0.243195	-0.216526	0.216553
C66	C	0.743195	0.283474	0.716553
C67	C	0.196286	-0.158971	0.159205
C68	C	0.696286	0.341029	0.659205
C69	C	0.243207	-0.158969	0.159204
C70	C	0.743207	0.341031	0.659204
C71	C	0.266663	-0.187745	0.187880
C72	C	0.766663	0.312255	0.687880
C73	C	0.313570	-0.187749	0.187865
C74	C	0.813570	0.312251	0.687865
N75	N	0.337029	-0.216520	0.216542
N76	N	0.837029	0.283480	0.716542
C77	C	0.313569	-0.245295	0.245222
C78	C	0.813569	0.254705	0.745222
C79	C	-0.113379	-0.187776	0.187912
C80	C	0.386621	0.312224	0.687912
C81	C	-0.160297	-0.187780	0.187916
C82	C	0.339703	0.312220	0.687916
C83	C	-0.160298	-0.245329	0.245275
C84	C	0.339702	0.254671	0.745275
C85	C	-0.113380	-0.245327	0.245269
C86	C	0.386620	0.254673	0.745269
C87	C	-0.089921	-0.216547	0.216589
C88	C	0.410079	0.283453	0.716589
C89	C	0.412095	-0.245290	0.245205
C90	C	0.912095	0.254710	0.745205
C91	C	0.459014	-0.245287	0.245194
C92	C	0.959014	0.254713	0.745194
C93	C	0.459012	-0.187736	0.187837
C94	C	0.959012	0.312264	0.687837
C95	C	0.412096	-0.187740	0.187846
C96	C	0.912096	0.312260	0.687846
C97	C	0.388639	-0.216519	0.216534
C98	C	0.888639	0.283481	0.716534
O99	O	0.337873	-0.163299	0.163477
O100	O	0.837873	0.336701	0.663477
O101	O	0.337836	-0.269759	0.269613
O102	O	0.837836	0.230241	0.769613
C103	C	0.125905	-0.245304	0.245247
C104	C	0.625905	0.254696	0.745247
C105	C	0.102449	-0.216531	0.216574
C106	C	0.602449	0.283469	0.716574
C107	C	0.125909	-0.187755	0.187893
C108	C	0.625909	0.312245	0.687893
C109	C	0.055531	-0.216535	0.216577
C110	C	0.555531	0.283465	0.716577
C111	C	0.032071	-0.245310	0.245258
C112	C	0.532071	0.254690	0.745258
C113	C	0.055529	-0.274082	0.273934
C114	C	0.555529	0.225918	0.773934
C115	C	0.102445	-0.274080	0.273927
C116	C	0.602445	0.225920	0.773927
C117	C	0.102451	-0.158984	0.159217
C118	C	0.602451	0.341016	0.659217
C119	C	0.055535	-0.158989	0.159226
C120	C	0.555535	0.341011	0.659226
C121	C	0.032075	-0.187764	0.187906
C122	C	0.532075	0.312236	0.687906
C123	C	0.677914	-0.692821	0.187866
C124	C	1.177914	-0.192821	0.687866
C125	C	0.677969	-0.880494	0.187883
C126	C	1.177969	-0.380494	0.687883
O127	O	0.702441	-0.904753	0.163493
O128	O	1.202441	-0.404753	0.663493
N129	N	0.649224	-0.903970	0.216583
N130	N	1.149224	-0.403970	0.716583
C131	C	0.620465	-0.880524	0.245283
C132	C	1.120465	-0.380524	0.745283
O133	O	0.596020	-0.904798	0.269698
O134	O	1.096020	-0.404798	0.769698
C135	C	0.620412	-0.692852	0.245268
C136	C	1.120412	-0.192852	0.745268
C137	C	0.649156	-0.669379	0.216563
C138	C	1.149156	-0.169379	0.716563
C139	C	0.706656	-0.669348	0.159164
C140	C	1.206656	-0.169348	0.659164
C141	C	0.706640	-0.622433	0.159158
C142	C	1.206640	-0.122433	0.659158
C143	C	0.677882	-0.598990	0.187854
C144	C	1.177882	-0.098990	0.687854
C145	C	0.649140	-0.622463	0.216557
C146	C	1.149140	-0.122463	0.716557
C147	C	0.591656	-0.669407	0.273969
C148	C	1.091656	-0.169407	0.773969
C149	C	0.591646	-0.622486	0.273964
C150	C	1.091646	-0.122486	0.773964
C151	C	0.620390	-0.599013	0.245259
C152	C	1.120390	-0.099013	0.745259
C153	C	0.620367	-0.552106	0.245248
C154	C	1.120367	-0.052106	0.745248
N155	N	0.649112	-0.528630	0.216548
N156	N	1.149112	-0.028630	0.716548
C157	C	0.677869	-0.552072	0.187851
C158	C	1.177869	-0.052072	0.687851
C159	C	0.620494	-0.979055	0.245289
C160	C	1.120494	-0.479055	0.745289
C161	C	0.620507	-1.025973	0.245292
C162	C	1.120507	-0.525973	0.745292
C163	C	0.678012	-1.025939	0.187893
C164	C	1.178012	-0.525939	0.687893
C165	C	0.677996	-0.979021	0.187887
C166	C	1.177996	-0.479021	0.687887
C167	C	0.649239	-0.955579	0.216589
C168	C	1.149239	-0.455579	0.716589
C169	C	0.677834	-0.453547	0.187841
C170	C	1.177834	0.046453	0.687841
C171	C	0.677814	-0.406627	0.187836
C172	C	1.177814	0.093373	0.687836
C173	C	0.620311	-0.406664	0.245237
C174	C	1.120311	0.093336	0.745237
C175	C	0.620329	-0.453580	0.245240
C176	C	1.120329	0.046420	0.745240
C177	C	0.649094	-0.477020	0.216540
C178	C	1.149094	0.022980	0.716540
O179	O	0.595912	-0.527818	0.269629
O180	O	1.095912	-0.027818	0.769629
O181	O	0.702318	-0.527791	0.163447
O182	O	1.202318	-0.027791	0.663447
C183	C	0.677930	-0.739737	0.187872
C184	C	1.177930	-0.239737	0.687872
C185	C	0.649188	-0.763210	0.216574
C186	C	1.149188	-0.263210	0.716574
C187	C	0.620430	-0.739767	0.245271
C188	C	1.120430	-0.239767	0.745271
C189	C	0.649200	-0.810128	0.216578
C190	C	1.149200	-0.310128	0.716578
C191	C	0.677958	-0.833570	0.187881
C192	C	1.177958	-0.333570	0.687881
C193	C	0.706703	-0.810094	0.159181
C194	C	1.206703	-0.310094	0.659181
C195	C	0.706687	-0.763179	0.159175
C196	C	1.206687	-0.263179	0.659175
C197	C	0.591685	-0.763243	0.273971
C198	C	1.091685	-0.263243	0.773971
C199	C	0.591703	-0.810158	0.273974
C200	C	1.091703	-0.310158	0.773974
C201	C	0.620461	-0.833601	0.245277
C202	C	1.120461	-0.333601	0.745277
C203	C	0.766309	-0.216547	0.216582
C204	C	1.266309	0.283453	0.716582
C205	C	0.816244	-0.216555	0.216596
C206	C	1.316244	0.283445	0.716596
C207	C	0.649143	-0.216524	0.333728
C208	C	1.149143	0.283476	0.833728
C209	C	0.649148	-0.216522	0.383662
C210	C	1.149148	0.283478	0.883662
C211	C	0.649225	-0.099349	0.216582
C212	C	1.149225	0.400651	0.716582
C213	C	0.649265	-0.049415	0.216595
C214	C	1.149265	0.450585	0.716595
C215	C	0.649145	-0.216499	0.099827
C216	C	1.149145	0.283501	0.599827
C217	C	0.649227	-0.216374	0.049893
C218	C	1.149227	0.283626	0.549893
C219	C	0.677935	-0.187718	0.693325
C220	C	1.177935	0.312282	1.193325
C221	C	0.677957	-0.187680	0.880998
C222	C	1.177957	0.312320	1.380998
O223	O	0.702399	-0.163232	0.905279
O224	O	1.202399	0.336768	1.405279
N225	N	0.649208	-0.216402	0.904448
N226	N	1.149208	0.283598	1.404448
C227	C	0.620449	-0.245133	0.880976
C228	C	1.120449	0.254867	1.380976
O229	O	0.595993	-0.269559	0.905228
O230	O	1.095993	0.230441	1.405228
C231	C	0.620424	-0.245169	0.693304
C232	C	1.120424	0.254831	1.193304
C233	C	0.649179	-0.216448	0.669857
C234	C	1.149179	0.283552	1.169857
C235	C	0.706687	-0.158999	0.669877
C236	C	1.206687	0.341001	1.169877
C237	C	0.706683	-0.159011	0.622962
C238	C	1.206683	0.340989	1.122962
C239	C	0.677927	-0.187741	0.599494
C240	C	1.177927	0.312259	1.099494
C241	C	0.649175	-0.216460	0.622941
C242	C	1.149175	0.283540	1.122941
C243	C	0.591663	-0.273898	0.669833
C244	C	1.091663	0.226102	1.169833
C245	C	0.591659	-0.273903	0.622912
C246	C	1.091659	0.226097	1.122912
C247	C	0.620414	-0.245183	0.599465
C248	C	1.120414	0.254817	1.099465
C249	C	0.620415	-0.245202	0.552558
C250	C	1.120415	0.254798	1.052558
N251	N	0.649164	-0.216480	0.529108
N252	N	1.149164	0.283520	1.029108
C253	C	0.677920	-0.187749	0.552576
C254	C	1.177920	0.312251	1.052576
C255	C	0.620464	-0.245113	0.979507
C256	C	1.120464	0.254887	1.479507
C257	C	0.620471	-0.245105	1.026425
C258	C	1.120471	0.254895	1.526425
C259	C	0.677979	-0.187650	1.026443
C260	C	1.177979	0.312350	1.526443
C261	C	0.677974	-0.187661	0.979524
C262	C	1.177974	0.312339	1.479524
C263	C	0.649214	-0.216391	0.956057
C264	C	1.149214	0.283609	1.456057
C265	C	0.677910	-0.187776	0.454050
C266	C	1.177910	0.312224	0.954050
C267	C	0.677904	-0.187792	0.407130
C268	C	1.177904	0.312208	0.907130
C269	C	0.620395	-0.245244	0.407116
C270	C	1.120395	0.254756	0.907116
C271	C	0.620401	-0.245230	0.454032
C272	C	1.120401	0.254770	0.954032
C273	C	0.649161	-0.216493	0.477497
C274	C	1.149161	0.283507	0.977497
O275	O	0.595982	-0.269633	0.528248
O276	O	1.095982	0.230367	1.028248
O277	O	0.702366	-0.163320	0.528316
O278	O	1.202366	0.336680	1.028316
C279	C	0.677939	-0.187706	0.740240
C280	C	1.177939	0.312294	1.240240
C281	C	0.649187	-0.216425	0.763688
C282	C	1.149187	0.283575	1.263688
C283	C	0.620431	-0.245155	0.740219
C284	C	1.120431	0.254845	1.240219
C285	C	0.649194	-0.216417	0.810605
C286	C	1.149194	0.283583	1.310605
C287	C	0.677950	-0.187686	0.834074
C288	C	1.177950	0.312314	1.334074
C289	C	0.706699	-0.158964	0.810624
C290	C	1.206699	0.341036	1.310624
C291	C	0.706695	-0.158976	0.763708
C292	C	1.206695	0.341024	1.263708
C293	C	0.591682	-0.273877	0.763669
C294	C	1.091682	0.226123	1.263669
C295	C	0.591689	-0.273864	0.810585
C296	C	1.091689	0.226136	1.310585
C297	C	0.620445	-0.245133	0.834053
C298	C	1.120445	0.254867	1.334053
H299	H	0.478110	-0.268721	0.268545
H300	H	0.978110	0.231279	0.768545
H301	H	0.568229	-0.603402	0.297337
H302	H	1.068229	-0.103402	0.797337
O303	O	0.589474	-0.953771	0.276243
O304	O	1.089474	-0.453771	0.776243
H305	H	0.566629	-0.932422	0.256107
H306	H	1.066629	-0.432422	0.756107
O307	O	0.737708	-0.127995	0.738424
O308	O	1.237708	0.372005	1.238424
H309	H	0.760552	-0.148109	0.717056
H310	H	1.260552	0.351891	1.217056
H311	H	0.597097	-1.045080	0.268662
H312	H	1.097097	-0.545080	0.768662
O313	O	0.560655	-0.694715	0.304935
O314	O	1.060655	-0.194715	0.804935
H315	H	0.537811	-0.716118	0.284811
H316	H	1.037811	-0.216118	0.784811
O317	O	0.030241	-0.305135	0.304869
O318	O	0.530241	0.194865	0.804869
H319	H	0.008888	-0.285077	0.327777
H320	H	0.508888	0.214923	0.827777
O321	O	0.030238	-0.127948	0.128297
O322	O	0.530238	0.372052	0.628297
H323	H	0.054438	-0.107937	0.108358
H324	H	0.554438	0.392063	0.608358
O325	O	0.589294	-0.381373	0.276185
O326	O	1.089294	0.118627	0.776185
H327	H	0.569305	-0.405574	0.296144
H328	H	1.069305	0.094426	0.796144
O329	O	0.709005	-0.953702	0.156935
O330	O	1.209005	-0.453702	0.656935
H331	H	0.701332	-0.962728	0.121667
H332	H	1.201332	-0.462728	0.621667
H333	H	0.478121	-0.164309	0.164485
H334	H	0.978121	0.335691	0.664485
H335	H	0.597044	-0.268511	0.960404
H336	H	1.097044	0.231489	1.460404
O337	O	0.560657	-0.737961	0.304914
O338	O	1.060657	-0.237961	0.804914
H339	H	0.540669	-0.762171	0.324864
H340	H	1.040669	-0.262171	0.824864
H341	H	0.701220	-0.387517	0.164459
H342	H	1.201220	0.112483	0.664459
H343	H	0.701388	-0.164274	0.960437
H344	H	1.201388	0.335726	1.460437
H345	H	-0.179407	-0.268759	0.268628
H346	H	0.320593	0.231241	0.768628
H347	H	0.393001	-0.268723	0.268566
H348	H	0.893001	0.231277	0.768566
H349	H	0.177197	-0.135539	0.135854
H350	H	0.677197	0.364461	0.635854
O351	O	-0.185594	-0.156746	0.156986
O352	O	0.314406	0.343254	0.656986
H353	H	-0.161394	-0.136734	0.137047
H354	H	0.338606	0.363266	0.637047
H355	H	0.568248	-0.297285	0.688916
H356	H	1.068248	0.202715	1.188916
O357	O	0.268510	-0.127932	0.128265
O358	O	0.768510	0.372068	0.628265
H359	H	0.244315	-0.107930	0.108325
H360	H	0.744315	0.392070	0.608325
H361	H	0.568265	-0.297274	0.744566
H362	H	1.068265	0.202726	1.244566
O363	O	0.708995	-0.156659	1.051758
O364	O	1.208995	0.343341	1.551758
H365	H	0.701313	-0.121402	1.042751
H366	H	1.201313	0.378598	1.542751
O367	O	0.268488	-0.305105	0.304841
O368	O	0.768488	0.194895	0.804841
H369	H	0.244286	-0.325108	0.324787
H370	H	0.744286	0.174892	0.824787
O371	O	0.560671	-0.304844	0.835869
O372	O	1.060671	0.195156	1.335869
H373	H	0.565502	-0.300015	0.872438
H374	H	1.065502	0.199985	1.372438
O375	O	0.708854	-0.478826	0.156884
O376	O	1.208854	0.021174	0.656884
H377	H	0.728831	-0.454615	0.136923
H378	H	1.228831	0.045385	0.636923
H379	H	-0.094283	-0.164339	0.164556
H380	H	0.405717	0.335661	0.664556
O381	O	0.386793	-0.156705	0.156918
O382	O	0.886793	0.343295	0.656918
H383	H	0.410990	-0.136695	0.136975
H384	H	0.910990	0.363305	0.636975
H385	H	-0.094285	-0.268759	0.268619
H386	H	0.405715	0.231241	0.768619
O387	O	0.589376	-0.276225	0.381798
O388	O	1.089376	0.223775	0.881798
H389	H	0.597048	-0.311487	0.390793
H390	H	1.097048	0.188513	0.890793
O391	O	0.589327	-0.478902	0.276198
O392	O	1.089327	0.021098	0.776198
H393	H	0.569329	-0.454716	0.296153
H394	H	1.069329	0.045284	0.796153
O395	O	0.737645	-0.597118	0.128200
O396	O	1.237645	-0.097118	0.628200
H397	H	0.760480	-0.575712	0.148331
H398	H	1.260480	-0.075712	0.648331
H399	H	0.730093	-0.744071	0.135801
H400	H	1.230093	-0.244071	0.635801
H401	H	0.730076	-0.688430	0.135795
H402	H	1.230076	-0.188430	0.635795
O403	O	0.709038	-1.051227	0.156948
O404	O	1.209038	-0.551227	0.656948
H405	H	0.704220	-1.087795	0.161781
H406	H	1.204220	-0.587795	0.661781
H407	H	0.177180	-0.297509	0.297271
H408	H	0.677180	0.202491	0.797271
H409	H	0.597061	-0.268497	1.045512
H410	H	1.097061	0.231503	1.545512
H411	H	0.568233	-0.297294	0.603808
H412	H	1.068233	0.202706	1.103808
O413	O	0.737731	-0.835382	0.128237
O414	O	1.237731	-0.335382	0.628237
H415	H	0.732914	-0.871950	0.133073
H416	H	1.232914	-0.371950	0.633073
O417	O	0.589388	-0.276205	0.479326
O418	O	1.089388	0.223795	0.979326
H419	H	0.597059	-0.311470	0.470323
H420	H	1.097059	0.188530	0.970323
O421	O	0.127741	-0.305113	0.304860
O422	O	0.627741	0.194887	0.804860
H423	H	0.103540	-0.325116	0.324805
H424	H	0.603540	0.174884	0.824805
O425	O	0.560699	-0.835474	0.304937
O426	O	1.060699	-0.335474	0.804937
H427	H	0.540705	-0.811286	0.324892
H428	H	1.040705	-0.311286	0.824892
H429	H	0.701321	-0.164403	0.388042
H430	H	1.201321	0.335597	0.888042
H431	H	0.701327	-0.164374	0.473150
H432	H	1.201327	0.335626	0.973150
H433	H	0.730097	-0.135623	0.603875
H434	H	1.230097	0.364377	1.103875
O435	O	0.737708	-0.128012	0.695186
O436	O	1.237708	0.371988	1.195186
H437	H	0.757699	-0.108050	0.670992
H438	H	1.257699	0.391950	1.170992
O439	O	0.127751	-0.127956	0.128272
O440	O	0.627751	0.372044	0.628272
H441	H	0.103553	-0.107958	0.108330
H442	H	0.603553	0.392042	0.608330
O443	O	0.737707	-0.127966	0.835940
O444	O	1.237707	0.372034	1.335940
H445	H	0.732870	-0.132782	0.872503
H446	H	1.232870	0.367218	1.372503
