data_functionalizedCrystal
_audit_creation_method	'MofGen! by Chris Wilmer'
_symmetry_space_group_name_H-M	'P1'
_symmetry_Int_Tables_number	1
_symmetry_cell_setting	triclinic
loop_
_symmetry_equiv_pos_as_xyz
  x,y,z
_cell_length_a	27.780882
_cell_length_b	27.780884
_cell_length_c	27.780936
_cell_angle_alpha	90.002203
_cell_angle_beta	120.002161
_cell_angle_gamma	60.000211
loop_
_atom_site_label
_atom_site_type_symbol
_atom_site_fract_x
_atom_site_fract_y
_atom_site_fract_z
O1	O	-0.424593	-0.330212	-0.014321
O2	O	-0.326023	-0.260214	0.014251
O3	O	-0.424589	-0.260213	-0.084318
O4	O	-0.326027	-0.330212	0.084247
O5	O	-0.344530	-0.340273	-0.084318
O6	O	-0.245963	-0.340273	0.014251
O7	O	-0.344533	-0.410272	-0.014321
Cu8	Cu	-0.287938	-0.382583	-0.000035
Cu9	Cu	-0.382618	-0.287903	-0.000035
O10	O	-0.245967	-0.410272	0.084248
C11	C	-0.177734	-0.120429	0.029862
C12	C	-0.211527	-0.056934	0.025772
C13	C	-0.119397	-0.149664	0.030267
C14	C	-0.177731	-0.207597	0.029867
C15	C	-0.211520	-0.237302	0.025783
C16	C	-0.119394	-0.236699	0.030273
C17	C	-0.090568	-0.207595	0.029862
C18	C	-0.031163	-0.237298	0.025772
C19	C	-0.206428	-0.149666	0.030273
C20	C	0.016830	-0.261295	0.022466
C21	C	-0.238829	-0.005636	0.022467
C22	C	-0.238819	-0.261301	0.022482
C23	C	0.077040	-0.291400	0.018321
C24	C	-0.273080	0.058720	0.018322
C25	C	-0.273066	-0.291408	0.018343
C26	C	-0.492839	-0.462880	-0.029960
C27	C	-0.459046	-0.433177	-0.025869
C28	C	-0.551179	-0.433776	-0.030369
C29	C	-0.492843	-0.550045	-0.029964
C30	C	-0.459052	-0.613539	-0.025878
C31	C	-0.551182	-0.520809	-0.030373
C32	C	-0.580009	-0.462878	-0.029964
C33	C	-0.639417	-0.433174	-0.025878
C34	C	-0.464145	-0.520810	-0.030368
C35	C	-0.687412	-0.409177	-0.022576
C36	C	-0.431743	-0.409181	-0.022562
C37	C	-0.431752	-0.664836	-0.022575
C38	C	-0.747625	-0.379070	-0.018434
C39	C	-0.397491	-0.379076	-0.018415
C40	C	-0.397504	-0.729191	-0.018432
C41	C	-0.492829	-0.207602	-0.372394
C42	C	-0.459038	-0.237306	-0.402098
C43	C	-0.551167	-0.149672	-0.401496
C44	C	-0.492829	-0.207602	-0.285228
C45	C	-0.459037	-0.237306	-0.221733
C46	C	-0.551167	-0.149672	-0.314463
C47	C	-0.579994	-0.120437	-0.372393
C48	C	-0.639401	-0.056942	-0.402096
C49	C	-0.464133	-0.236705	-0.314463
C50	C	-0.687395	-0.005645	-0.426092
C51	C	-0.431737	-0.261302	-0.426095
C52	C	-0.431737	-0.261303	-0.170435
C53	C	-0.747606	0.058710	-0.456197
C54	C	-0.397488	-0.291408	-0.456201
C55	C	-0.397487	-0.291408	-0.106080
O56	O	0.234706	-0.410266	-0.014340
O57	O	0.094710	-0.340265	0.014229
O58	O	0.094703	-0.340270	-0.084338
O59	O	0.234713	-0.410261	0.084228
O60	O	0.094701	-0.260209	-0.084343
O61	O	0.094707	-0.260204	0.014225
O62	O	0.234704	-0.330205	-0.014344
Cu63	Cu	0.164705	-0.287894	-0.000060
Cu64	Cu	0.164708	-0.382576	-0.000055
O65	O	0.234710	-0.330200	0.084223
O66	O	-0.344549	0.249048	-0.014343
O67	O	-0.245980	0.080483	0.014226
O68	O	-0.344550	0.179043	-0.084341
O69	O	-0.245978	0.150489	0.084225
O70	O	-0.424607	0.179040	-0.084336
O71	O	-0.326036	0.080481	0.014231
O72	O	-0.424605	0.249046	-0.014337
Cu73	Cu	-0.382630	0.164763	-0.000053
Cu74	Cu	-0.287954	0.164766	-0.000059
O75	O	-0.326034	0.150486	0.084230
O76	O	-0.905273	0.249035	-0.494995
O77	O	-0.765274	0.080471	-0.425001
O78	O	-0.765270	0.179034	-0.424994
O79	O	-0.905277	0.150472	-0.495002
O80	O	-0.765272	0.179036	-0.505055
O81	O	-0.765276	0.080473	-0.505062
O82	O	-0.905275	0.249037	-0.575056
Cu83	Cu	-0.835276	0.164755	-0.547369
Cu84	Cu	-0.835273	0.164753	-0.452688
O85	O	-0.905279	0.150475	-0.575063
O86	O	-0.326022	-0.330217	-0.575063
O87	O	-0.424589	-0.260214	-0.505065
O88	O	-0.326021	-0.260216	-0.505059
O89	O	-0.424590	-0.330215	-0.575069
O90	O	-0.245962	-0.340274	-0.425000
O91	O	-0.344531	-0.340272	-0.425006
O92	O	-0.245963	-0.410275	-0.495003
Cu93	Cu	-0.287937	-0.382584	-0.452694
Cu94	Cu	-0.382615	-0.287905	-0.547374
O95	O	-0.344532	-0.410273	-0.495009
C96	C	-0.090560	-0.550051	0.372323
C97	C	-0.031153	-0.613545	0.402025
C98	C	-0.119387	-0.520816	0.401426
C99	C	-0.177726	-0.462884	0.285158
C100	C	-0.211518	-0.433180	0.221663
C101	C	-0.206421	-0.433782	0.314394
C102	C	-0.177725	-0.462885	0.372324
C103	C	-0.211516	-0.433182	0.402029
C104	C	-0.119388	-0.520815	0.314392
C105	C	-0.238816	-0.409186	0.426026
C106	C	0.016840	-0.664843	0.426021
C107	C	-0.238819	-0.409183	0.170365
C108	C	-0.273065	-0.379081	0.456133
C109	C	0.077051	-0.729197	0.456125
C110	C	-0.273069	-0.379077	0.106010
C111	C	-0.177761	-0.120444	-0.372420
C112	C	-0.211555	-0.056950	-0.402125
C113	C	-0.206457	-0.149681	-0.401521
C114	C	-0.090590	-0.207607	-0.285252
C115	C	-0.031180	-0.237308	-0.221756
C116	C	-0.119419	-0.236712	-0.314485
C117	C	-0.177759	-0.207612	-0.372416
C118	C	-0.211551	-0.237317	-0.402117
C119	C	-0.119420	-0.149677	-0.314489
C120	C	-0.238852	-0.261316	-0.426113
C121	C	-0.238857	-0.005653	-0.426124
C122	C	0.016817	-0.261303	-0.170458
C123	C	-0.273102	-0.291423	-0.456216
C124	C	-0.273109	0.058701	-0.456232
C125	C	0.077031	-0.291405	-0.106103
C126	C	0.507174	-0.462861	0.372301
C127	C	0.540966	-0.433156	0.402003
C128	C	0.535871	-0.520791	0.401406
C129	C	0.420004	-0.462864	0.285137
C130	C	0.360593	-0.433163	0.221641
C131	C	0.448833	-0.520794	0.314373
C132	C	0.507174	-0.550027	0.372304
C133	C	0.540967	-0.613522	0.402009
C134	C	0.448833	-0.433760	0.314370
C135	C	0.568270	-0.664819	0.426008
C136	C	0.568267	-0.409158	0.425999
C137	C	0.312597	-0.409168	0.170343
C138	C	0.602521	-0.729173	0.456115
C139	C	0.602518	-0.379050	0.456103
C140	C	0.252382	-0.379065	0.105988
C141	C	-0.580005	0.194620	-0.372405
C142	C	-0.639410	0.190526	-0.402104
C143	C	-0.551178	0.195024	-0.401510
C144	C	-0.492844	0.194636	-0.285244
C145	C	-0.459054	0.190559	-0.221751
C146	C	-0.464149	0.195039	-0.314481
C147	C	-0.492843	0.194622	-0.372410
C148	C	-0.459052	0.190530	-0.402115
C149	C	-0.551179	0.195037	-0.314476
C150	C	-0.431752	0.187223	-0.426113
C151	C	-0.687401	0.187217	-0.426097
C152	C	-0.431754	0.187264	-0.170455
C153	C	-0.397503	0.183075	-0.456220
C154	C	-0.747610	0.183067	-0.456199
C155	C	-0.397506	0.183131	-0.106101
O156	O	-0.424649	0.249028	-0.575092
O157	O	-0.326070	0.080462	-0.505095
O158	O	-0.424629	0.179018	-0.505082
O159	O	-0.326090	0.150471	-0.575105
O160	O	-0.344563	0.179021	-0.425026
O161	O	-0.246004	0.080465	-0.425039
O162	O	-0.344583	0.249030	-0.495036
Cu163	Cu	-0.287983	0.164748	-0.452728
Cu164	Cu	-0.382670	0.164745	-0.547403
O165	O	-0.246024	0.150474	-0.495049
C166	C	-0.177741	0.134906	0.372299
C167	C	-0.211532	0.138998	0.402004
C168	C	-0.119406	0.134505	0.401398
C169	C	-0.177741	0.134893	0.285133
C170	C	-0.211531	0.138970	0.221639
C171	C	-0.119406	0.134492	0.314364
C172	C	-0.090579	0.134909	0.372293
C173	C	-0.031176	0.139004	0.401992
C174	C	-0.206435	0.134489	0.314370
C175	C	0.016816	0.142313	0.425985
C176	C	-0.238832	0.142304	0.426002
C177	C	-0.238831	0.142265	0.170343
C178	C	0.077024	0.146464	0.456086
C179	C	-0.273080	0.146452	0.456109
C180	C	-0.273079	0.146398	0.105989
H181	H	-0.095271	-0.126190	0.030925
H182	H	-0.575311	0.195677	-0.449109
O183	O	-0.090655	-0.293518	-0.286574
C184	C	-0.071138	-0.329356	-0.318109
H185	H	-0.102502	-0.301109	-0.365949
H186	H	-0.014802	-0.351153	-0.297468
C187	C	-0.045028	-0.411912	-0.257059
C188	C	-0.083554	-0.377219	-0.315818
H189	H	-0.052684	-0.441438	-0.255644
H190	H	-0.058175	-0.387768	-0.235811
H191	H	0.001915	-0.430070	-0.239865
H192	H	-0.130496	-0.359056	-0.333009
H193	H	-0.070416	-0.401361	-0.337068
O194	O	-0.090571	-0.548734	0.458247
C195	C	-0.071102	-0.517155	0.494049
H196	H	-0.063954	-0.489285	0.471747
H197	H	-0.112379	-0.487207	0.500713
C198	C	-0.012507	-0.594991	0.581675
C199	C	-0.003723	-0.560764	0.554285
H200	H	0.029053	-0.621890	0.618833
H201	H	-0.025626	-0.616266	0.557555
H202	H	-0.046908	-0.570028	0.587223
H203	H	0.030670	-0.585726	0.548731
H204	H	0.009403	-0.539495	0.578406
O205	O	-0.090541	0.133634	0.458211
C206	C	-0.023156	0.082600	0.494057
H207	H	-0.017544	0.047561	0.471779
H208	H	0.013458	0.093937	0.500747
C209	C	-0.013482	0.101903	0.581634
C210	C	-0.006590	0.058866	0.554273
H211	H	-0.003261	0.087264	0.618779
H212	H	-0.058879	0.136287	0.557484
H213	H	0.017031	0.111347	0.587203
H214	H	-0.037108	0.049428	0.548697
H215	H	0.038803	0.024480	0.578423
O216	O	-0.579942	0.195895	-0.286431
C217	C	-0.599466	0.246955	-0.270122
H218	H	-0.568107	0.263433	-0.267014
H219	H	-0.655802	0.282644	-0.304663
C220	C	-0.625571	0.212024	-0.213663
C221	C	-0.587050	0.232259	-0.209841
H222	H	-0.617915	0.202960	-0.176481
H223	H	-0.612419	0.177625	-0.224652
H224	H	-0.672514	0.241768	-0.242450
H225	H	-0.540107	0.202513	-0.181060
H226	H	-0.600193	0.266653	-0.198846
H227	H	-0.095269	-0.284298	0.030928
H228	H	-0.095283	0.133836	0.290888
O229	O	-0.262485	-0.121588	-0.458294
C230	C	-0.281748	-0.064081	-0.477831
H231	H	-0.261123	-0.049676	-0.438188
H232	H	-0.260056	-0.063575	-0.503315
C233	C	-0.385286	-0.039097	-0.566992
C234	C	-0.359959	-0.021403	-0.518301
H235	H	-0.433530	-0.012771	-0.591957
H236	H	-0.372307	-0.077841	-0.553830
H237	H	-0.367203	-0.038675	-0.588221
H238	H	-0.378035	-0.021832	-0.497068
H239	H	-0.372942	0.017343	-0.531459
H240	H	-0.417198	-0.544281	-0.031019
H241	H	-0.253386	0.133843	0.290899
H242	H	-0.253368	-0.126193	0.030932
O243	O	-0.580049	-0.121691	-0.458318
C244	C	-0.647426	-0.105365	-0.494137
H245	H	-0.653011	-0.134793	-0.471830
H246	H	-0.684049	-0.057413	-0.500836
C247	C	-0.657151	-0.076407	-0.581747
C248	C	-0.664009	-0.112555	-0.554351
H249	H	-0.667382	-0.080840	-0.618891
H250	H	-0.611758	-0.087405	-0.557616
H251	H	-0.687670	-0.036451	-0.587324
H252	H	-0.633484	-0.152511	-0.548768
H253	H	-0.709397	-0.101565	-0.578483
O254	O	-0.090706	-0.121598	-0.286581
C255	C	-0.128701	-0.064082	-0.324818
H256	H	-0.158233	-0.062276	-0.372446
H257	H	-0.165860	-0.031655	-0.315080
C258	C	-0.043843	-0.049714	-0.256906
C259	C	-0.080110	-0.047498	-0.315404
H260	H	-0.013871	-0.039483	-0.251098
H261	H	-0.018246	-0.088463	-0.231143
H262	H	-0.074816	-0.022692	-0.248798
H263	H	-0.049138	-0.074525	-0.323508
H264	H	-0.105701	-0.008753	-0.341168
H265	H	-0.575305	-0.544284	-0.031026
H266	H	-0.575301	-0.386179	-0.031020
H267	H	0.424703	-0.544265	0.290901
H268	H	-0.575285	-0.126200	-0.290985
H269	H	-0.417178	-0.284297	-0.290989
H270	H	0.424738	-0.386177	0.290884
O271	O	-0.262405	-0.376990	0.286319
C272	C	-0.281685	-0.357463	0.228803
H273	H	-0.235866	-0.385189	0.226995
H274	H	-0.323855	-0.362191	0.196372
C275	C	-0.363951	-0.258242	0.214447
C276	C	-0.307674	-0.292292	0.212228
H277	H	-0.379986	-0.218041	0.204221
H278	H	-0.350964	-0.271398	0.253196
H279	H	-0.399086	-0.262189	0.187422
H280	H	-0.272538	-0.288351	0.239258
H281	H	-0.320656	-0.279134	0.173483
O282	O	-0.090505	-0.548890	0.286483
C283	C	-0.032742	-0.606406	0.324718
H284	H	-0.012840	-0.608215	0.372347
H285	H	-0.047211	-0.638834	0.314976
C286	C	-0.001430	-0.620764	0.256809
C287	C	0.023018	-0.622984	0.315307
H288	H	0.032965	-0.630992	0.251002
H289	H	-0.040347	-0.582015	0.231048
H290	H	-0.013488	-0.647787	0.248697
H291	H	0.035067	-0.595956	0.323415
H292	H	0.061938	-0.661729	0.341070
O293	O	-0.408170	0.195858	-0.286411
C294	C	-0.388893	0.196116	-0.228897
H295	H	-0.434712	0.214206	-0.227088
H296	H	-0.346718	0.149225	-0.196461
C297	C	-0.306641	0.213088	-0.214552
C298	C	-0.362917	0.235310	-0.212332
H299	H	-0.290614	0.237262	-0.204331
H300	H	-0.319626	0.212911	-0.253299
H301	H	-0.271501	0.174012	-0.187521
H302	H	-0.398058	0.274382	-0.239366
H303	H	-0.349937	0.235494	-0.173588
H304	H	0.582816	-0.544258	0.449005
