data_functionalizedCrystal
_audit_creation_method	'MofGen! by Chris Wilmer'
_symmetry_space_group_name_H-M	'P1'
_symmetry_Int_Tables_number	1
_symmetry_cell_setting	triclinic
loop_
_symmetry_equiv_pos_as_xyz
  x,y,z
_cell_length_a	16.625547
_cell_length_b	18.050590
_cell_length_c	16.625539
_cell_angle_alpha	89.971908
_cell_angle_beta	89.978691
_cell_angle_gamma	90.018489
loop_
_atom_site_label
_atom_site_type_symbol
_atom_site_fract_x
_atom_site_fract_y
_atom_site_fract_z
Zn1	Zn	1.232674	-0.295673	-0.455992
Zn2	Zn	1.482674	-0.045673	-0.205992
Zn3	Zn	1.732674	0.204327	0.044008
Zn4	Zn	1.982674	0.454327	0.294008
Zn5	Zn	1.232595	-0.419867	-0.321155
Zn6	Zn	1.482595	-0.169867	-0.071155
Zn7	Zn	1.732595	0.080133	0.178845
Zn8	Zn	1.982595	0.330133	0.428845
Zn9	Zn	1.097845	-0.295695	-0.321162
Zn10	Zn	1.347845	-0.045695	-0.071162
Zn11	Zn	1.597845	0.204305	0.178838
Zn12	Zn	1.847845	0.454305	0.428838
Zn13	Zn	1.097816	-0.419826	-0.455935
Zn14	Zn	1.347816	-0.169826	-0.205935
Zn15	Zn	1.597816	0.080174	0.044065
Zn16	Zn	1.847816	0.330174	0.294065
O17	O	1.165233	-0.357765	-0.388561
O18	O	1.415233	-0.107765	-0.138561
O19	O	1.665233	0.142235	0.111439
O20	O	1.915233	0.392235	0.361439
O21	O	1.345496	-0.312156	-0.438126
O22	O	1.595496	-0.062156	-0.188126
O23	O	1.845496	0.187844	0.061874
O24	O	2.095496	0.437844	0.311874
O25	O	1.214699	-0.403421	-0.208323
O26	O	1.464699	-0.153421	0.041677
O27	O	1.714699	0.096579	0.291677
O28	O	1.964699	0.346579	0.541677
O29	O	1.115775	-0.191767	-0.339074
O30	O	1.365775	0.058233	-0.089074
O31	O	1.615775	0.308233	0.160926
O32	O	1.865775	0.558233	0.410926
O33	O	1.345438	-0.403400	-0.339062
O34	O	1.595438	-0.153400	-0.089062
O35	O	1.845438	0.096600	0.160938
O36	O	2.095438	0.346600	0.410938
O37	O	1.214834	-0.191751	-0.438133
O38	O	1.464834	0.058249	-0.188133
O39	O	1.714834	0.308249	0.061867
O40	O	1.964834	0.558249	0.311867
O41	O	1.115698	-0.312193	-0.208329
O42	O	1.365698	-0.062193	0.041671
O43	O	1.615698	0.187807	0.291671
O44	O	1.865698	0.437807	0.541671
O45	O	0.985008	-0.312153	-0.339019
O46	O	1.235008	-0.062153	-0.089019
O47	O	1.485008	0.187847	0.160981
O48	O	1.735008	0.437847	0.410981
O49	O	1.115726	-0.403330	-0.568775
O50	O	1.365726	-0.153330	-0.318775
O51	O	1.615726	0.096670	-0.068775
O52	O	1.865726	0.346670	0.181225
O53	O	0.984987	-0.403351	-0.438036
O54	O	1.234987	-0.153351	-0.188036
O55	O	1.484987	0.096649	0.061964
O56	O	1.734987	0.346649	0.311964
O57	O	1.214806	-0.312116	-0.568817
O58	O	1.464806	-0.062116	-0.318817
O59	O	1.714806	0.187884	-0.068817
O60	O	1.964806	0.437884	0.181183
O61	O	1.214671	-0.523786	-0.339007
O62	O	1.464671	-0.273786	-0.089007
O63	O	1.714671	-0.023786	0.160993
O64	O	1.964671	0.226214	0.410993
O65	O	1.115650	-0.523756	-0.438029
O66	O	1.365650	-0.273756	-0.188029
O67	O	1.615650	-0.023756	0.061971
O68	O	1.865650	0.226244	0.311971
C69	C	0.955742	-0.357751	-0.388523
C70	C	1.205742	-0.107751	-0.138523
C71	C	1.455742	0.142249	0.111477
C72	C	1.705742	0.392249	0.361477
C73	C	0.866121	-0.357762	-0.388526
C74	C	1.116121	-0.107762	-0.138526
C75	C	1.366121	0.142238	0.111474
C76	C	1.616121	0.392238	0.361474
C77	C	1.165171	-0.550717	-0.388529
C78	C	1.415171	-0.300717	-0.138529
C79	C	1.665171	-0.050717	0.111471
C80	C	1.915171	0.199283	0.361471
C81	C	1.165218	-0.633263	-0.388542
C82	C	1.415218	-0.383263	-0.138542
C83	C	1.665218	-0.133263	0.111458
C84	C	1.915218	0.116737	0.361458
C85	C	0.793338	-0.357764	-0.388536
C86	C	1.043338	-0.107764	-0.138536
C87	C	1.293338	0.142236	0.111464
C88	C	1.543338	0.392236	0.361464
C89	C	0.702030	-0.357768	-0.388556
C90	C	0.952030	-0.107768	-0.138556
C91	C	1.202030	0.142232	0.111444
C92	C	1.452030	0.392232	0.361444
C93	C	0.629253	-0.357774	-0.388576
C94	C	0.879253	-0.107774	-0.138576
C95	C	1.129253	0.142226	0.111424
C96	C	1.379253	0.392226	0.361424
C97	C	0.537939	-0.357780	-0.388596
C98	C	0.787939	-0.107780	-0.138596
C99	C	1.037939	0.142220	0.111404
C100	C	1.287939	0.392220	0.361404
C101	C	1.219178	-0.832703	-0.334769
C102	C	1.469178	-0.582703	-0.084769
C103	C	1.719178	-0.332703	0.165231
C104	C	1.969178	-0.082703	0.415231
C105	C	1.238871	-0.882036	-0.408360
C106	C	1.488871	-0.632036	-0.158360
C107	C	1.738871	-0.382036	0.091640
C108	C	1.988871	-0.132036	0.341640
C109	C	1.165264	-0.784393	-0.388574
C110	C	1.415264	-0.534393	-0.138574
C111	C	1.665264	-0.284393	0.111426
C112	C	1.915264	-0.034393	0.361426
C113	C	1.145653	-0.882142	-0.315016
C114	C	1.395653	-0.632142	-0.065016
C115	C	1.645653	-0.382142	0.184984
C116	C	1.895653	-0.132142	0.434984
C117	C	1.165309	-0.930378	-0.388599
C118	C	1.415309	-0.680378	-0.138599
C119	C	1.665309	-0.430378	0.111401
C120	C	1.915309	-0.180378	0.361401
C121	C	1.184994	-0.832639	-0.462204
C122	C	1.434994	-0.582639	-0.212204
C123	C	1.684994	-0.332639	0.037796
C124	C	1.934994	-0.082639	0.287796
C125	C	1.091742	-0.832741	-0.368810
C126	C	1.341742	-0.582741	-0.118810
C127	C	1.591742	-0.332741	0.131190
C128	C	1.841742	-0.082741	0.381190
C129	C	1.111407	-0.882051	-0.442452
C130	C	1.361407	-0.632051	-0.192452
C131	C	1.611407	-0.382051	0.057548
C132	C	1.861407	-0.132051	0.307548
C133	C	1.165239	-0.700295	-0.388559
C134	C	1.415239	-0.450295	-0.138559
C135	C	1.665239	-0.200295	0.111441
C136	C	1.915239	0.049705	0.361441
C137	C	1.165333	-1.014475	-0.388622
C138	C	1.415333	-0.764475	-0.138622
C139	C	1.665333	-0.514475	0.111378
C140	C	1.915333	-0.264475	0.361378
C141	C	1.375541	-0.357780	-0.388600
C142	C	1.625541	-0.107780	-0.138600
C143	C	1.875541	0.142220	0.111400
C144	C	2.125541	0.392220	0.361400
C145	C	1.465163	-0.357786	-0.388616
C146	C	1.715163	-0.107786	-0.138616
C147	C	1.965163	0.142214	0.111384
C148	C	2.215163	0.392214	0.361384
C149	C	1.165272	-0.357716	-0.598870
C150	C	1.415272	-0.107716	-0.348870
C151	C	1.665272	0.142284	-0.098870
C152	C	1.915272	0.392284	0.151130
C153	C	1.165289	-0.357695	-0.688491
C154	C	1.415289	-0.107695	-0.438491
C155	C	1.665289	0.142305	-0.188491
C156	C	1.915289	0.392305	0.061509
C157	C	1.165317	-0.164059	-0.388611
C158	C	1.415317	0.085941	-0.138611
C159	C	1.665317	0.335941	0.111389
C160	C	1.915317	0.585941	0.361389
C161	C	1.165353	-0.081514	-0.388632
C162	C	1.415353	0.168486	-0.138632
C163	C	1.665353	0.418486	0.111368
C164	C	1.915353	0.668486	0.361368
C165	C	1.165302	-0.357679	-0.761274
C166	C	1.415302	-0.107679	-0.511274
C167	C	1.665302	0.142321	-0.261274
C168	C	1.915302	0.392321	-0.011274
C169	C	1.165321	-0.357651	-0.852582
C170	C	1.415321	-0.107651	-0.602582
C171	C	1.665321	0.142349	-0.352582
C172	C	1.915321	0.392349	-0.102582
C173	C	1.165340	-0.357625	-0.925359
C174	C	1.415340	-0.107625	-0.675359
C175	C	1.665340	0.142375	-0.425359
C176	C	1.915340	0.392375	-0.175359
C177	C	1.165360	-0.357598	-1.016673
C178	C	1.415360	-0.107598	-0.766673
C179	C	1.665360	0.142402	-0.516673
C180	C	1.915360	0.392402	-0.266673
C181	C	1.165240	-0.357760	-0.179070
C182	C	1.415240	-0.107760	0.070930
C183	C	1.665240	0.142240	0.320930
C184	C	1.915240	0.392240	0.570930
C185	C	1.165379	-0.357572	-0.089449
C186	C	1.415379	-0.107572	0.160551
C187	C	1.665379	0.142428	0.410551
C188	C	1.915379	0.392428	0.660551
H189	H	1.264787	-0.811034	-0.289314
H190	H	1.514787	-0.561034	-0.039314
H191	H	1.764787	-0.311034	0.210686
H192	H	2.014787	-0.061034	0.460686
H193	H	1.029565	-0.811069	-0.352056
H194	H	1.279565	-0.561069	-0.102056
H195	H	1.529565	-0.311069	0.147944
H196	H	1.779565	-0.061069	0.397944
H197	H	1.129047	-0.903886	-0.252798
H198	H	1.379047	-0.653886	-0.002798
H199	H	1.629047	-0.403886	0.247202
H200	H	1.879047	-0.153886	0.497202
Br201	Br	1.342536	-0.918109	-0.436267
Br202	Br	1.592536	-0.668109	-0.186267
Br203	Br	1.842536	-0.418109	0.063733
Br204	Br	2.092536	-0.168109	0.313733
Br205	Br	1.212803	-0.796557	-0.565933
Br206	Br	1.462803	-0.546557	-0.315933
Br207	Br	1.712803	-0.296557	-0.065933
Br208	Br	1.962803	-0.046557	0.184067
Br209	Br	1.035445	-0.917942	-0.518391
Br210	Br	1.285445	-0.667942	-0.268391
Br211	Br	1.535445	-0.417942	-0.018391
Br212	Br	1.785445	-0.167942	0.231609
