data_functionalizedCrystal
_audit_creation_method	'MofGen! by Chris Wilmer'
_symmetry_space_group_name_H-M	'P1'
_symmetry_Int_Tables_number	1
_symmetry_cell_setting	triclinic
loop_
_symmetry_equiv_pos_as_xyz
  x,y,z
_cell_length_a	11.792254
_cell_length_b	11.792241
_cell_length_c	9.730223
_cell_angle_alpha	90.000916
_cell_angle_beta	89.999967
_cell_angle_gamma	95.803994
loop_
_atom_site_label
_atom_site_type_symbol
_atom_site_fract_x
_atom_site_fract_y
_atom_site_fract_z
O1	O	-0.155567	1.506914	-0.114142
O2	O	-0.171599	1.176574	-0.114172
O3	O	0.001587	1.349753	-0.114163
O4	O	-0.328753	1.333735	-0.114152
O5	O	0.001591	1.349741	0.114417
O6	O	-0.171595	1.176562	0.114408
O7	O	-0.155562	1.506903	0.114438
Zn8	Zn	-0.163577	1.341731	0.150715
Zn9	Zn	-0.163584	1.341745	-0.150449
O10	O	-0.328748	1.333724	0.114428
C11	C	-0.170590	1.134277	0.000113
C12	C	-0.167576	1.008263	0.000101
C13	C	-0.162033	0.777551	0.000140
C14	C	-0.165112	0.905936	0.000119
C15	C	-0.371041	1.334738	0.000140
C16	C	-0.497054	1.337758	0.000145
C17	C	-0.599390	1.340212	0.000137
C18	C	-0.727777	1.343281	0.000122
C19	C	0.043880	1.348738	0.000123
C20	C	0.169893	1.345718	0.000109
C21	C	-0.156571	1.549199	0.000149
C22	C	-0.159586	1.675213	0.000152
N23	N	-0.163573	1.341729	0.356251
N24	N	-0.163580	1.341756	-0.355986
C25	C	-0.086918	1.418439	0.428181
C26	C	-0.086919	1.418450	0.572064
C27	C	-0.240238	1.265038	0.572074
C28	C	-0.240231	1.265022	0.428194
H29	H	-0.024497	1.480897	0.369609
H30	H	-0.302653	1.202587	0.630664
H31	H	-0.024499	1.480913	0.630626
H32	H	-0.302652	1.202550	0.369624
