data_functionalizedCrystal
_audit_creation_method	'MofGen! by Chris Wilmer'
_symmetry_space_group_name_H-M	'P1'
_symmetry_Int_Tables_number	1
_symmetry_cell_setting	triclinic
loop_
_symmetry_equiv_pos_as_xyz
  x,y,z
_cell_length_a	14.908520
_cell_length_b	14.908618
_cell_length_c	19.076919
_cell_angle_alpha	89.118213
_cell_angle_beta	84.570994
_cell_angle_gamma	89.795563
loop_
_atom_site_label
_atom_site_type_symbol
_atom_site_fract_x
_atom_site_fract_y
_atom_site_fract_z
Zn1	Zn	-0.460603	-1.327960	0.478378
Zn2	Zn	0.039397	-0.827960	0.978378
Zn3	Zn	-0.605580	-1.325226	0.367085
Zn4	Zn	-0.105580	-0.825226	0.867085
Zn5	Zn	-0.445899	-1.184379	0.353580
Zn6	Zn	0.054101	-0.684379	0.853580
Zn7	Zn	-0.602183	-1.168933	0.477561
Zn8	Zn	-0.102183	-0.668933	0.977561
O9	O	-0.528566	-1.251624	0.419151
O10	O	-0.028566	-0.751624	0.919151
O11	O	-0.487410	-1.453096	0.469608
O12	O	0.012590	-0.953096	0.969608
O13	O	-0.579666	-1.311863	0.266831
O14	O	-0.079666	-0.811863	0.766831
O15	O	-0.321771	-1.211033	0.364825
O16	O	0.178229	-0.711033	0.864825
O17	O	-0.593923	-1.451088	0.387842
O18	O	-0.093923	-0.951088	0.887842
O19	O	-0.332574	-1.316522	0.456513
O20	O	0.167426	-0.816522	0.956513
O21	O	-0.462349	-1.208382	0.256909
O22	O	0.037651	-0.708382	0.756909
O23	O	-0.459055	-1.056831	0.364033
O24	O	0.040945	-0.556831	0.864033
O25	O	-0.588134	-1.184708	0.576132
O26	O	-0.088134	-0.684708	1.076132
O27	O	-0.573876	-1.045483	0.455121
O28	O	-0.073876	-0.545483	0.955121
O29	O	-0.484116	-1.301545	0.576732
O30	O	0.015884	-0.801545	1.076732
O31	O	-0.731208	-1.296885	0.387050
O32	O	-0.231208	-0.796885	0.887050
O33	O	-0.728712	-1.182057	0.468216
O34	O	-0.228712	-0.682057	0.968216
C35	C	-0.514502	-1.018616	0.408023
C36	C	-0.014502	-0.518616	0.908023
C37	C	-0.508508	-0.918932	0.403281
C38	C	-0.008508	-0.418932	0.903281
C39	C	-0.762653	-1.237522	0.429027
C40	C	-0.262653	-0.737522	0.929027
C41	C	-0.862802	-1.231569	0.433279
C42	C	-0.362802	-0.731569	0.933279
C43	C	-0.616981	-0.719843	0.489105
C44	C	-0.116981	-0.219843	0.989105
C45	C	-0.611352	-0.626180	0.484651
C46	C	-0.111352	-0.126180	0.984651
C47	C	-0.491617	-0.637943	0.389923
C48	C	0.008383	-0.137943	0.889923
C49	C	-0.497246	-0.731606	0.394377
C50	C	0.002754	-0.231606	0.894377
C51	C	-0.559931	-0.772552	0.443969
C52	C	-0.059931	-0.272552	0.943969
C53	C	-0.565564	-0.866216	0.448419
C54	C	-0.065564	-0.366216	0.948419
C55	C	-0.445826	-0.877977	0.353694
C56	C	0.054174	-0.377977	0.853694
C57	C	-0.440197	-0.784315	0.349241
C58	C	0.059803	-0.284315	0.849241
C59	C	-1.053542	-1.340069	0.356829
C60	C	-0.553542	-0.840069	0.856829
C61	C	-1.147641	-1.334479	0.360822
C62	C	-0.647641	-0.834479	0.860822
C63	C	-1.145103	-1.214806	0.445262
C64	C	-0.645103	-0.714806	0.945262
C65	C	-1.051003	-1.220395	0.441268
C66	C	-0.551003	-0.720395	0.941268
C67	C	-1.005226	-1.283028	0.397050
C68	C	-0.505226	-0.783028	0.897050
C69	C	-0.911125	-1.288613	0.393053
C70	C	-0.411125	-0.788613	0.893053
C71	C	-0.908588	-1.168944	0.477496
C72	C	-0.408588	-0.668944	0.977496
C73	C	-1.002688	-1.163354	0.481489
C74	C	-0.502688	-0.663354	0.981489
C75	C	-0.293567	-1.265806	0.409254
C76	C	0.206433	-0.765806	0.909254
C77	C	-0.193425	-1.271849	0.405036
C78	C	0.306575	-0.771849	0.905036
C79	C	-0.537386	-1.241708	0.602676
C80	C	-0.037386	-0.741708	1.102676
C81	C	-0.541145	-1.237483	0.680884
C82	C	-0.041145	-0.737483	1.180884
C83	C	-0.542678	-0.485543	0.430317
C84	C	-0.042678	0.014457	0.930317
C85	C	-0.548673	-0.585227	0.435061
C86	C	-0.048673	-0.085227	0.935061
C87	C	-0.519718	-1.261557	0.236339
C88	C	-0.019718	-0.761557	0.736339
C89	C	-0.515717	-1.265972	0.158130
C90	C	-0.015717	-0.765972	0.658130
C91	C	-0.488756	-1.296325	0.717940
C92	C	0.011244	-0.796325	1.217940
C93	C	-0.492284	-1.292344	0.791423
C94	C	0.007716	-0.792344	1.291423
C95	C	-0.548205	-1.229524	0.827850
C96	C	-0.048205	-0.729524	1.327850
C97	C	-0.600596	-1.170675	0.790789
C98	C	-0.100596	-0.670675	1.290789
C99	C	-0.597063	-1.174653	0.717307
C100	C	-0.097063	-0.674653	1.217307
C101	C	-0.564574	-1.211101	1.047586
C102	C	-0.064574	-0.711101	1.547586
C103	C	-0.568105	-1.207130	1.121074
C104	C	-0.068105	-0.707130	1.621074
C105	C	-0.459791	-1.328798	1.121703
C106	C	0.040209	-0.828798	1.621703
C107	C	-0.456268	-1.332773	1.048219
C108	C	0.043732	-0.832773	1.548219
C109	C	-0.508654	-1.273922	1.011164
C110	C	-0.008654	-0.773922	1.511164
N111	N	-0.551814	-1.225455	0.902963
N112	N	-0.051814	-0.725455	1.402963
N113	N	-0.505040	-1.277987	0.936053
N114	N	-0.005040	-0.777987	1.436053
H115	H	-0.616607	-0.899553	0.488798
H116	H	-0.116607	-0.399553	0.988798
H117	H	-0.668026	-0.753181	0.529481
H118	H	-0.168026	-0.253181	1.029481
O119	O	-0.666864	-0.575110	0.528529
O120	O	-0.166864	-0.075110	1.028529
C121	C	-0.723376	-0.631340	0.573266
C122	C	-0.223376	-0.131340	1.073266
H123	H	-0.729070	-0.699469	0.547745
H124	H	-0.229070	-0.199469	1.047745
H125	H	-0.793108	-0.599612	0.582398
H126	H	-0.293108	-0.099612	1.082398
H127	H	-0.693650	-0.640408	0.625830
H128	H	-0.193650	-0.140408	1.125830
O129	O	-0.430778	-0.598015	0.341797
O130	O	0.069222	-0.098015	0.841797
C131	C	-0.438013	-0.504045	0.347575
C132	C	0.061987	-0.004045	0.847575
H133	H	-0.507937	-0.485832	0.372831
H134	H	-0.007937	0.014168	0.872831
H135	H	-0.427076	-0.471631	0.292933
H136	H	0.072924	0.028369	0.792933
H137	H	-0.384877	-0.478684	0.381631
H138	H	0.115123	0.021316	0.881631
H139	H	-1.016269	-1.391061	0.320819
H140	H	-0.516269	-0.891061	0.820819
H141	H	-1.186977	-1.380930	0.328071
H142	H	-0.686977	-0.880930	0.828071
H143	H	-0.389158	-0.750964	0.308866
H144	H	0.110842	-0.250964	0.808866
H145	H	-0.399373	-0.920904	0.316940
H146	H	0.100627	-0.420904	0.816940
H147	H	-0.639713	-1.126729	0.687136
H148	H	-0.139713	-0.626729	1.187136
H149	H	-0.417140	-1.376710	1.151881
H150	H	0.082860	-0.876710	1.651881
O151	O	-0.866745	-1.349407	0.350006
O152	O	-0.366745	-0.849407	0.850006
C153	C	-0.885225	-1.332295	0.279909
C154	C	-0.385225	-0.832295	0.779909
H155	H	-0.951429	-1.293842	0.279681
H156	H	-0.451429	-0.793842	0.779681
H157	H	-0.890791	-1.398570	0.251632
H158	H	-0.390791	-0.898570	0.751632
H159	H	-0.828398	-1.290639	0.251730
H160	H	-0.328398	-0.790639	0.751730
O161	O	-0.622299	-1.146052	1.156526
O162	O	-0.122299	-0.646052	1.656526
C163	C	-0.569538	-1.088919	1.194088
C164	C	-0.069538	-0.588919	1.694088
H165	H	-0.503705	-1.124085	1.203735
H166	H	-0.003705	-0.624085	1.703735
H167	H	-0.607992	-1.071881	1.246731
H168	H	-0.107992	-0.571881	1.746731
H169	H	-0.554253	-1.024592	1.162172
H170	H	-0.054253	-0.524592	1.662172
H171	H	-1.182391	-1.163819	0.481267
H172	H	-0.682391	-0.663819	0.981267
O173	O	-0.401983	-1.393734	1.012726
O174	O	0.098017	-0.893734	1.512726
C175	C	-0.410063	-1.384594	0.939919
C176	C	0.089937	-0.884594	1.439919
H177	H	-0.477358	-1.351615	0.931401
H178	H	0.022642	-0.851615	1.431401
H179	H	-0.406605	-1.453639	0.914928
H180	H	0.093395	-0.953639	1.414928
H181	H	-0.352762	-1.341141	0.914555
H182	H	0.147238	-0.841141	1.414555
O183	O	-1.047268	-1.102632	0.524484
O184	O	-0.547268	-0.602632	1.024484
C185	C	-1.106876	-1.147953	0.574721
C186	C	-0.606876	-0.647953	1.074721
H187	H	-1.123831	-1.216451	0.553799
H188	H	-0.623831	-0.716451	1.053799
H189	H	-1.171325	-1.106973	0.585188
H190	H	-0.671325	-0.606973	1.085188
H191	H	-1.073675	-1.157081	0.625799
H192	H	-0.573675	-0.657081	1.125799
O193	O	-0.615538	-1.153885	1.011707
O194	O	-0.115538	-0.653885	1.511707
C195	C	-0.665627	-1.097569	1.059617
C196	C	-0.165627	-0.597569	1.559617
H197	H	-0.673502	-1.131291	1.113881
H198	H	-0.173502	-0.631291	1.613881
H199	H	-0.735008	-1.084839	1.040911
H200	H	-0.235008	-0.584839	1.540911
H201	H	-0.628879	-1.031038	1.062800
H202	H	-0.128879	-0.531038	1.562800
O203	O	-0.861626	-1.113655	0.516650
O204	O	-0.361626	-0.613655	1.016650
C205	C	-0.812367	-1.165438	0.562242
C206	C	-0.312367	-0.665438	1.062242
H207	H	-0.845124	-1.234151	0.571213
H208	H	-0.345124	-0.734151	1.071213
H209	H	-0.811948	-1.130077	0.614771
H210	H	-0.311948	-0.630077	1.114771
H211	H	-0.740200	-1.173958	0.537611
H212	H	-0.240200	-0.673958	1.037611
O213	O	-0.654898	-1.109730	0.826284
O214	O	-0.154898	-0.609730	1.326284
C215	C	-0.646768	-1.118821	0.899087
C216	C	-0.146768	-0.618821	1.399087
H217	H	-0.621924	-1.189270	0.911191
H218	H	-0.121924	-0.689270	1.411191
H219	H	-0.715230	-1.107152	0.929564
H220	H	-0.215230	-0.607152	1.429564
H221	H	-0.596579	-1.067395	0.915377
H222	H	-0.096579	-0.567395	1.415377
O223	O	-0.434356	-1.357377	0.682664
O224	O	0.065644	-0.857377	1.182664
C225	C	-0.388889	-1.408472	0.731133
C226	C	0.111111	-0.908472	1.231133
H227	H	-0.386072	-1.369090	0.781626
H228	H	0.113928	-0.869090	1.281626
H229	H	-0.317459	-1.423471	0.707371
H230	H	0.182541	-0.923471	1.207371
H231	H	-0.426369	-1.474170	0.743595
H232	H	0.073631	-0.974170	1.243595
O233	O	-0.441283	-1.349378	0.827434
O234	O	0.058717	-0.849378	1.327434
C235	C	-0.382061	-1.299526	0.865053
C236	C	0.117939	-0.799526	1.365053
H237	H	-0.371180	-1.230425	0.839297
H238	H	0.128820	-0.730425	1.339297
H239	H	-0.314719	-1.336095	0.864507
H240	H	0.185281	-0.836095	1.364507
H241	H	-0.412395	-1.291745	0.921773
H242	H	0.087605	-0.791745	1.421773
