data_functionalizedCrystal
_audit_creation_method	'MofGen! by Chris Wilmer'
_symmetry_space_group_name_H-M	'P1'
_symmetry_Int_Tables_number	1
_symmetry_cell_setting	triclinic
loop_
_symmetry_equiv_pos_as_xyz
  x,y,z
_cell_length_a	10.654550
_cell_length_b	14.853567
_cell_length_c	9.730223
_cell_angle_alpha	89.999394
_cell_angle_beta	89.999957
_cell_angle_gamma	84.059930
loop_
_atom_site_label
_atom_site_type_symbol
_atom_site_fract_x
_atom_site_fract_y
_atom_site_fract_z
O1	O	1.666524	0.126626	-0.114175
O2	O	1.300920	0.138690	-0.114199
O3	O	1.493487	0.001480	-0.114190
O4	O	1.473956	0.263835	-0.114183
O5	O	1.493475	0.001477	0.114390
O6	O	1.300907	0.138686	0.114381
O7	O	1.666511	0.126622	0.114405
Zn8	Zn	1.483707	0.132654	0.150685
Zn9	Zn	1.483724	0.132659	-0.150479
O10	O	1.473943	0.263832	0.114397
C11	C	1.254125	0.137802	0.000088
C12	C	1.114709	0.135152	0.000078
C13	C	1.492596	-0.032115	0.000096
C14	C	1.489944	-0.132213	0.000084
C15	C	1.034384	0.215939	0.000084
C16	C	0.903389	0.213443	0.000108
C17	C	0.933057	0.049367	0.000114
C18	C	1.064049	0.051864	0.000100
C19	C	1.364344	-0.545419	0.000102
C20	C	1.593119	-0.565475	0.000116
C21	C	1.595613	-0.471428	0.000109
C22	C	1.482470	-0.414372	0.000099
C23	C	1.366834	-0.451363	0.000098
C24	C	1.711247	-0.434430	0.000124
C25	C	1.713745	-0.340378	0.000118
C26	C	1.600601	-0.283320	0.000098
C27	C	1.484961	-0.320316	0.000095
C28	C	1.371818	-0.263260	0.000086
C29	C	1.256176	-0.300254	0.000073
C30	C	1.253691	-0.394305	0.000079
C31	C	1.603087	-0.189269	0.000093
C32	C	1.374308	-0.169204	0.000082
C33	C	1.713306	0.127510	0.000116
C34	C	1.852722	0.130160	0.000116
C35	C	1.474835	0.297427	0.000108
C36	C	1.477487	0.397525	0.000111
N37	N	1.483705	0.132650	0.356222
N38	N	1.483735	0.132655	-0.356015
C39	C	1.569003	0.071919	0.428151
C40	C	1.569016	0.071919	0.572034
C41	C	1.398429	0.193389	0.572045
C42	C	1.398411	0.193383	0.428165
H43	H	1.075626	0.283758	0.000077
C44	C	0.975540	-0.112564	0.000118
C45	C	0.877369	-0.042181	0.000122
H46	H	0.941160	-0.169082	0.000127
H47	H	1.026008	-0.108176	-0.079590
H48	H	1.026021	-0.108172	0.079832
H49	H	0.826893	-0.046569	-0.079598
H50	H	0.826880	-0.046571	0.079839
H51	H	0.837993	0.279228	0.000116
H52	H	1.328985	0.242838	0.630636
C53	C	1.229796	0.313463	0.442616
C54	C	1.304647	0.260146	0.349089
H55	H	1.171918	0.354679	0.393795
H56	H	1.184571	0.275637	0.498744
H57	H	1.282140	0.346245	0.498725
H58	H	1.252304	0.227359	0.292986
H59	H	1.349876	0.297978	0.292938
H60	H	1.638471	0.022466	0.630596
H61	H	1.129454	-0.013927	0.000099
H62	H	1.282172	-0.122754	0.000069
C63	C	1.808996	-0.587508	0.000133
C64	C	1.835606	-0.497145	0.000142
H65	H	1.885776	-0.626227	0.000136
H66	H	1.761586	-0.598793	0.079831
H67	H	1.761597	-0.598789	-0.079591
H68	H	1.882998	-0.485863	0.079871
H69	H	1.883037	-0.485856	-0.079565
H70	H	1.638453	0.022465	0.369579
H71	H	1.164056	-0.253787	0.000075
C72	C	1.148298	-0.529571	0.000106
C73	C	1.126586	-0.434972	0.000085
H74	H	1.069828	-0.554677	0.000123
H75	H	1.194879	-0.549103	-0.079598
H76	H	1.194894	-0.549089	0.079824
H77	H	1.079997	-0.415453	-0.079639
H78	H	1.079985	-0.415432	0.079798
C79	C	1.939634	-0.369660	0.000123
C80	C	1.840854	-0.299717	0.000116
H81	H	2.018105	-0.344555	0.000110
H82	H	1.933903	-0.405918	0.079835
H83	H	1.933895	-0.405932	-0.079588
H84	H	1.846588	-0.263449	0.079832
H85	H	1.846588	-0.263444	-0.079605
H86	H	1.685234	-0.611935	0.000135
H87	H	1.270191	-0.575544	0.000086
H88	H	1.697240	-0.159152	0.000112
