data_functionalizedCrystal
_audit_creation_method	'MofGen! by Chris Wilmer'
_symmetry_space_group_name_H-M	'P1'
_symmetry_Int_Tables_number	1
_symmetry_cell_setting	triclinic
loop_
_symmetry_equiv_pos_as_xyz
  x,y,z
_cell_length_a	15.995350
_cell_length_b	16.098524
_cell_length_c	15.995350
_cell_angle_alpha	86.937675
_cell_angle_beta	96.507625
_cell_angle_gamma	93.060977
loop_
_atom_site_label
_atom_site_type_symbol
_atom_site_fract_x
_atom_site_fract_y
_atom_site_fract_z
O1	O	1.114324	0.069182	-0.111265
O2	O	1.614324	0.569182	0.388735
O3	O	0.870550	0.069198	-0.124593
O4	O	1.370550	0.569198	0.375407
O5	O	0.999101	0.069189	0.003959
O6	O	1.499101	0.569189	0.503959
O7	O	0.985773	0.069191	-0.239817
O8	O	1.485773	0.569191	0.260183
O9	O	0.992405	-0.069324	0.010646
O10	O	1.492405	0.430676	0.510646
O11	O	0.863854	-0.069315	-0.117905
O12	O	1.363854	0.430685	0.382095
O13	O	1.107629	-0.069331	-0.104577
O14	O	1.607629	0.430669	0.395423
Zn15	Zn	0.984678	-0.091315	-0.110180
Zn16	Zn	1.484678	0.408685	0.389820
Zn17	Zn	0.993500	0.091182	-0.118991
Zn18	Zn	1.493500	0.591182	0.381009
O19	O	0.979078	-0.069322	-0.233129
O20	O	1.479078	0.430678	0.266871
C21	C	0.836007	-0.000056	-0.120698
C22	C	1.336007	0.499944	0.379302
C23	C	0.743057	-0.000049	-0.119047
C24	C	1.243057	0.499951	0.380953
N25	N	0.978664	-0.215864	-0.104166
N26	N	1.478664	0.284136	0.395834
C27	C	0.405309	-0.000067	-0.113114
C28	C	0.905309	0.499933	0.386886
C29	C	0.452728	-0.000377	-0.021547
C30	C	0.952728	0.499623	0.478453
C31	C	0.549434	-0.000059	-0.023215
C32	C	1.049434	0.499941	0.476785
C33	C	0.572870	-0.000059	-0.116057
C34	C	1.072870	0.499941	0.383943
C35	C	0.535606	0.079036	-0.165032
C36	C	1.035606	0.579036	0.334968
C37	C	0.438973	0.079097	-0.162735
C38	C	0.938973	0.579097	0.337265
C39	C	0.431020	-0.078419	-0.157022
C40	C	0.931020	0.421581	0.342978
C41	C	0.527915	-0.079458	-0.156950
C42	C	1.027915	0.420542	0.343050
C43	C	0.667568	-0.000051	-0.117725
C44	C	1.167568	0.499949	0.382275
C45	C	0.310611	-0.000069	-0.111449
C46	C	0.810611	0.499931	0.388551
C47	C	1.027339	-0.259449	-0.152876
C48	C	1.527339	0.240551	0.347124
C49	C	1.023143	-0.346638	-0.148663
C50	C	1.523143	0.153362	0.351337
C51	C	0.970266	-0.390241	-0.095744
C52	C	1.470266	0.109759	0.404256
C53	C	0.921589	-0.346650	-0.047028
C54	C	1.421589	0.153350	0.452972
C55	C	0.925790	-0.259462	-0.051237
C56	C	1.425790	0.240538	0.448763
C57	C	0.955045	-0.653491	-0.080491
C58	C	1.455045	-0.153491	0.419509
C59	C	0.950846	-0.740684	-0.076288
C60	C	1.450846	-0.240684	0.423712
C61	C	1.052401	-0.740666	-0.177922
C62	C	1.552401	-0.240666	0.322078
C63	C	1.056594	-0.653477	-0.182130
C64	C	1.556594	-0.153477	0.317870
C65	C	1.007920	-0.609894	-0.133411
C66	C	1.507920	-0.109894	0.366589
C67	C	0.965974	-0.479362	-0.091439
C68	C	1.465974	0.020638	0.408561
C69	C	1.012218	-0.520774	-0.137712
C70	C	1.512218	-0.020774	0.362288
C71	C	1.142171	-0.000075	-0.108472
C72	C	1.642171	0.499925	0.391528
C73	C	1.235121	-0.000076	-0.110124
C74	C	1.735121	0.499924	0.389876
C75	C	0.995202	-0.000066	0.038497
C76	C	1.495202	0.499934	0.538497
C77	C	0.993550	-0.000061	0.131447
C78	C	1.493550	0.499939	0.631447
N79	N	0.999521	0.215731	-0.124998
N80	N	1.499521	0.715731	0.375002
C81	C	0.982976	-0.000065	-0.267668
C82	C	1.482976	0.499935	0.232332
C83	C	0.984628	-0.000064	-0.360618
C84	C	1.484628	0.499936	0.139382
C85	C	0.987618	-0.000064	0.469195
C86	C	1.487618	0.499936	0.969195
C87	C	0.896081	0.000253	0.421746
C88	C	1.396081	0.500253	0.921746
C89	C	0.897719	-0.000059	0.325071
C90	C	1.397719	0.499941	0.825071
C91	C	0.990561	-0.000062	0.301634
C92	C	1.490561	0.499938	0.801634
C93	C	1.031894	-0.079161	0.346531
C94	C	1.531894	0.420839	0.846531
C95	C	1.029591	-0.079227	0.443170
C96	C	1.529591	0.420773	0.943170
C97	C	1.039096	0.078288	0.435923
C98	C	1.539096	0.578288	0.935923
C99	C	1.039125	0.079333	0.338927
C100	C	1.539125	0.579333	0.838927
C101	C	0.992228	-0.000064	0.206937
C102	C	1.492228	0.499936	0.706937
C103	C	0.985953	-0.000067	0.563893
C104	C	1.485953	0.499933	1.063893
H105	H	0.575122	-0.056757	0.015018
H106	H	1.075122	0.443243	0.515018
H107	H	0.997685	-0.138022	0.320991
H108	H	1.497685	0.361978	0.820991
H109	H	0.431464	-0.057099	0.017787
H110	H	0.931464	0.442901	0.517787
H111	H	0.399233	-0.078954	-0.224496
H112	H	0.899233	0.421046	0.275504
H113	H	0.435861	0.056032	0.012157
H114	H	0.935861	0.556032	0.512157
C115	C	0.872242	-0.211520	0.002347
C116	C	1.372242	0.288480	0.502347
N117	N	0.831908	-0.175411	0.042709
N118	N	1.331908	0.324589	0.542709
H119	H	1.096633	-0.082818	0.475591
H120	H	1.596633	0.417182	0.975591
C121	C	0.548374	-0.085923	-0.248098
C122	C	1.048374	0.414077	0.251902
N123	N	0.563788	-0.090790	-0.316753
N124	N	1.063788	0.409210	0.183247
H125	H	1.106622	0.078817	0.467658
H126	H	1.606622	0.578817	0.967658
H127	H	0.580037	0.056738	0.009779
H128	H	1.080037	0.556738	0.509779
C129	C	0.892683	-0.788646	-0.018062
C130	C	1.392683	-0.288646	0.481938
N131	N	0.848878	-0.824770	0.025792
N132	N	1.348878	-0.324770	0.525792
H133	H	0.423523	0.138222	-0.132660
H134	H	0.923523	0.638222	0.367340
C135	C	0.850343	0.076879	0.443090
C136	C	1.350343	0.576879	0.943090
N137	N	0.815891	0.134594	0.459175
N138	N	1.315891	0.634594	0.959175
C139	C	0.998386	0.158388	0.298250
C140	C	1.498386	0.658388	0.798250
N141	N	0.967694	0.217931	0.267615
N142	N	1.467694	0.717931	0.767615
H143	H	0.406898	0.082686	-0.230124
H144	H	0.906898	0.582686	0.269876
H145	H	0.552403	-0.137972	-0.121161
H146	H	1.052403	0.362028	0.378839
H147	H	0.549873	0.081977	-0.233383
H148	H	1.049873	0.581977	0.266617
H149	H	0.566826	0.137900	-0.136510
H150	H	1.066826	0.637900	0.363490
H151	H	1.070392	-0.223954	-0.195974
H152	H	1.570392	0.276046	0.304026
C153	C	0.981235	-0.159098	0.471751
C154	C	1.481235	0.340902	0.971751
N155	N	0.944810	-0.219258	0.493274
N156	N	1.444810	0.280742	0.993274
H157	H	0.922921	-0.514873	-0.048352
H158	H	1.422921	-0.014873	0.451648
H159	H	1.062781	-0.382120	-0.188327
H160	H	1.562781	0.117880	0.311673
H161	H	0.856925	-0.056150	0.444063
H162	H	1.356925	0.443850	0.944063
C163	C	1.114768	-0.605520	-0.240339
C164	C	1.614768	-0.105520	0.259661
N165	N	1.158585	-0.569399	-0.284184
N166	N	1.658585	-0.069399	0.215816
H167	H	1.092029	-0.776161	-0.217586
H168	H	1.592029	-0.276161	0.282414
H169	H	1.055272	-0.485269	-0.180795
H170	H	1.555272	0.014731	0.319205
C171	C	1.002570	0.159281	0.459756
C172	C	1.502570	0.659281	0.959756
N173	N	0.975049	0.220281	0.477706
N174	N	1.475049	0.720281	0.977706
H175	H	0.864963	0.056643	0.293911
H176	H	1.364963	0.556643	0.793911
C177	C	1.130906	0.085780	0.317870
C178	C	1.630906	0.585780	0.817870
N179	N	1.200040	0.090628	0.302013
N180	N	1.700040	0.590628	0.802013
H181	H	0.915412	-0.618016	-0.040819
H182	H	1.415412	-0.118016	0.459181
C183	C	0.863423	-0.394616	0.011182
C184	C	1.363423	0.105384	0.511182
N185	N	0.819607	-0.430744	0.055023
N186	N	1.319607	0.069256	0.555023
C187	C	0.845736	-0.076787	0.291128
C188	C	1.345736	0.423213	0.791128
N189	N	0.806582	-0.134583	0.265563
N190	N	1.306582	0.365417	0.765563
H191	H	1.099960	-0.082105	0.332547
H192	H	1.599960	0.417895	0.832547
H193	H	0.407587	-0.138371	-0.124197
H194	H	0.907587	0.361629	0.375803
