data_functionalizedCrystal
_audit_creation_method	'MofGen! by Chris Wilmer'
_symmetry_space_group_name_H-M	'P1'
_symmetry_Int_Tables_number	1
_symmetry_cell_setting	triclinic
loop_
_symmetry_equiv_pos_as_xyz
  x,y,z
_cell_length_a	19.805407
_cell_length_b	12.759400
_cell_length_c	19.805399
_cell_angle_alpha	89.976763
_cell_angle_beta	89.980427
_cell_angle_gamma	90.014685
loop_
_atom_site_label
_atom_site_type_symbol
_atom_site_fract_x
_atom_site_fract_y
_atom_site_fract_z
Zn1	Zn	1.034791	-0.418291	-0.382740
Zn2	Zn	1.034729	-0.593984	-0.269560
Zn3	Zn	0.921605	-0.418320	-0.269565
Zn4	Zn	0.921592	-0.593928	-0.382707
O5	O	0.978179	-0.506131	-0.326143
O6	O	1.129499	-0.441608	-0.367739
O7	O	1.019702	-0.570717	-0.174844
O8	O	0.936651	-0.271295	-0.284593
O9	O	1.129454	-0.570689	-0.284586
O10	O	1.019808	-0.271273	-0.367743
O11	O	0.936591	-0.441657	-0.174848
O12	O	0.826887	-0.441603	-0.284561
O13	O	0.936629	-0.570594	-0.477428
O14	O	0.826877	-0.570622	-0.367687
O15	O	1.019795	-0.441554	-0.477452
O16	O	1.019689	-0.740998	-0.284554
O17	O	0.936568	-0.740957	-0.367682
C18	C	0.802323	-0.506110	-0.326121
C19	C	0.727091	-0.506127	-0.326128
C20	C	0.691760	-0.573408	-0.369341
C21	C	0.621071	-0.573410	-0.369351
C22	C	0.585716	-0.506135	-0.326143
C23	C	0.621052	-0.438847	-0.282928
C24	C	0.691739	-0.438840	-0.282922
C25	C	0.335979	-0.438870	-0.282950
C26	C	0.265287	-0.438884	-0.282958
C27	C	0.265311	-0.573440	-0.369379
C28	C	0.335998	-0.573433	-0.369373
C29	C	0.371328	-0.506141	-0.326161
C30	C	0.447977	-0.506139	-0.326152
C31	C	0.509069	-0.506142	-0.326148
C32	C	0.978139	-0.779098	-0.326129
C33	C	0.978184	-0.895875	-0.326146
C34	C	1.021513	-0.950723	-0.282908
C35	C	1.021555	-1.060447	-0.282929
C36	C	0.934932	-1.060464	-0.369426
C37	C	0.934894	-0.950742	-0.369408
C38	C	1.064802	-0.895855	-0.239646
C39	C	1.108135	-0.950704	-0.196404
C40	C	1.108176	-1.060428	-0.196425
C41	C	1.064886	-1.115303	-0.239687
C42	C	1.154722	-0.506152	-0.326165
C43	C	1.229954	-0.506160	-0.326175
C44	C	0.978217	-0.506064	-0.502686
C45	C	0.978233	-0.506036	-0.577918
C46	C	0.978238	-0.232097	-0.326172
C47	C	0.978263	-0.115321	-0.326184
C48	C	1.021539	-0.438842	-0.613276
C49	C	1.021546	-0.438811	-0.683964
C50	C	0.978250	-0.505981	-0.719294
C51	C	0.934940	-0.573179	-0.683931
C52	C	0.934930	-0.573203	-0.613244
C53	C	0.934978	-0.573081	-0.969004
C54	C	0.934992	-0.573054	-1.039696
C55	C	1.021594	-0.438689	-1.039725
C56	C	1.021584	-0.438713	-0.969038
C57	C	0.978272	-0.505906	-0.933681
C58	C	0.978264	-0.505937	-0.857033
C59	C	0.978261	-0.505957	-0.795941
C60	C	0.978180	-0.506121	-0.150287
C61	C	0.978295	-0.505853	-0.075055
H62	H	0.720505	-0.384048	-0.247737
C63	C	1.065077	-1.234433	-0.239718
C64	C	1.129525	-1.270633	-0.257036
C65	C	1.129727	-1.380367	-0.257061
H66	H	1.033140	-1.259392	-0.271670
H67	H	1.053444	-1.259357	-0.196027
H68	H	1.141149	-1.245720	-0.300722
H69	H	1.161473	-1.245704	-0.225091
H70	H	1.118094	-1.405291	-0.213370
H71	H	1.097787	-1.405315	-0.289013
H72	H	1.173455	-1.404942	-0.268805
H73	H	0.364781	-0.628219	-0.404555
C74	C	0.582589	-0.646348	-0.416242
C75	C	0.513117	-0.631934	-0.407016
C76	C	0.477647	-0.699097	-0.450209
H77	H	0.594078	-0.716959	-0.406297
H78	H	0.594159	-0.631057	-0.461749
H79	H	0.501553	-0.647233	-0.361519
H80	H	0.501609	-0.561336	-0.416966
H81	H	0.489217	-0.683806	-0.495717
H82	H	0.489141	-0.769705	-0.440261
H83	H	0.430507	-0.689320	-0.443960
C84	C	0.226829	-0.646379	-0.416277
C85	C	0.157356	-0.631969	-0.407053
C86	C	0.121888	-0.699133	-0.450247
H87	H	0.238318	-0.716991	-0.406333
H88	H	0.238399	-0.631087	-0.461785
H89	H	0.145792	-0.647269	-0.361556
H90	H	0.145847	-0.561372	-0.417002
H91	H	0.133458	-0.683840	-0.495755
H92	H	0.133383	-0.769740	-0.440299
H93	H	0.074748	-0.689358	-0.443999
H94	H	0.899613	-0.906084	-0.404617
H95	H	1.143464	-1.105083	-0.161221
H96	H	1.064772	-0.806512	-0.239622
H97	H	0.899686	-1.105153	-0.404648
H98	H	0.236502	-0.384094	-0.247773
C99	C	1.068573	-0.365797	-0.575043
C100	C	1.106486	-0.306924	-0.621142
C101	C	1.149814	-0.239610	-0.585950
H102	H	1.098113	-0.405880	-0.547467
H103	H	1.042702	-0.319970	-0.547483
H104	H	1.132356	-0.352745	-0.648690
H105	H	1.076964	-0.266819	-0.648720
H106	H	1.123943	-0.193783	-0.558389
H107	H	1.179349	-0.279702	-0.558374
H108	H	1.175539	-0.199650	-0.617222
H109	H	0.364736	-0.384085	-0.247759
C110	C	1.155095	-0.891263	-0.149328
C111	C	1.140415	-0.918067	-0.082352
C112	C	1.183668	-0.863344	-0.038966
H113	H	1.148908	-0.818045	-0.155414
H114	H	1.200585	-0.909197	-0.159237
H115	H	1.094936	-0.900127	-0.072446
H116	H	1.146607	-0.991276	-0.076245
H117	H	1.229158	-0.881278	-0.048876
H118	H	1.177477	-0.790129	-0.045059
H119	H	1.173718	-0.881530	0.006481
H120	H	0.899685	-0.627866	-0.712702
H121	H	1.056812	-0.384097	-0.712749
H122	H	1.056843	-0.384020	-0.940276
C123	C	1.068577	-0.365553	-1.078027
C124	C	1.053872	-0.261610	-1.060823
C125	C	1.097144	-0.194214	-1.096084
H126	H	1.062426	-0.375008	-1.125196
H127	H	1.114060	-0.380880	-1.066435
H128	H	1.008400	-0.246288	-1.072420
H129	H	1.060027	-0.252122	-1.013660
H130	H	1.142627	-0.209541	-1.084492
H131	H	1.090990	-0.203678	-1.143251
H132	H	1.087177	-0.123682	-1.084412
C133	C	0.887905	-0.646020	-1.077934
C134	C	0.849957	-0.704849	-1.031841
C135	C	0.806570	-0.772063	-1.067041
H136	H	0.913714	-0.691886	-1.105510
H137	H	0.858395	-0.605833	-1.105494
H138	H	0.879463	-0.745033	-1.004292
H139	H	0.824134	-0.659011	-1.004263
H140	H	0.777060	-0.731876	-1.094601
H141	H	0.832384	-0.817922	-1.094616
H142	H	0.780812	-0.811980	-1.035773
C143	C	0.888062	-0.646100	-0.930545
C144	C	0.926354	-0.713452	-0.889947
C145	C	0.883154	-0.780727	-0.854502
H146	H	0.862269	-0.686195	-0.961640
H147	H	0.858581	-0.605949	-0.902933
H148	H	0.955823	-0.753599	-0.917557
H149	H	0.952145	-0.673387	-0.858839
H150	H	0.853673	-0.740575	-0.826890
H151	H	0.857363	-0.820814	-0.885603
H152	H	0.909128	-0.826426	-0.826948
C153	C	0.887896	-0.646289	-0.574974
C154	C	0.849998	-0.705136	-0.621042
C155	C	0.806670	-0.772487	-0.585814
H156	H	0.858347	-0.606234	-0.547392
H157	H	0.913767	-0.692130	-0.547417
H158	H	0.824129	-0.659300	-0.648587
H159	H	0.879529	-0.745212	-0.648626
H160	H	0.832541	-0.818329	-0.558257
H161	H	0.777125	-0.732423	-0.558232
H162	H	0.780955	-0.812429	-0.617065
H163	H	0.720541	-0.628195	-0.404524
C164	C	0.582546	-0.365912	-0.236045
C165	C	0.513079	-0.380335	-0.245285
C166	C	0.477588	-0.313175	-0.202102
H167	H	0.594063	-0.295299	-0.245989
H168	H	0.594070	-0.381199	-0.190534
H169	H	0.501560	-0.365041	-0.290786
H170	H	0.501542	-0.450934	-0.235337
H171	H	0.489112	-0.328462	-0.156591
H172	H	0.489110	-0.242566	-0.212049
H173	H	0.430451	-0.322959	-0.208361
