data_functionalizedCrystal
_audit_creation_method	'MofGen! by Chris Wilmer'
_symmetry_space_group_name_H-M	'P1'
_symmetry_Int_Tables_number	1
_symmetry_cell_setting	triclinic
loop_
_symmetry_equiv_pos_as_xyz
  x,y,z
_cell_length_a	10.723024
_cell_length_b	14.519709
_cell_length_c	13.596369
_cell_angle_alpha	90.006934
_cell_angle_beta	90.005008
_cell_angle_gamma	84.074007
loop_
_atom_site_label
_atom_site_type_symbol
_atom_site_fract_x
_atom_site_fract_y
_atom_site_fract_z
O1	O	1.655980	0.129351	0.081787
O2	O	1.989313	0.462684	0.415121
O3	O	2.322647	0.796018	0.748454
O4	O	1.292712	0.141732	0.081791
O5	O	1.626045	0.475065	0.415124
O6	O	1.959379	0.808399	0.748458
O7	O	1.483978	0.001352	0.081780
O8	O	1.817311	0.334686	0.415114
O9	O	2.150644	0.668019	0.748447
O10	O	1.464715	0.269731	0.081798
O11	O	1.798048	0.603064	0.415131
O12	O	2.131381	0.936397	0.748465
O13	O	1.483959	0.001345	-0.081803
O14	O	1.817292	0.334678	0.251531
O15	O	2.150625	0.668011	0.584864
O16	O	1.292693	0.141724	-0.081792
O17	O	1.626026	0.475058	0.251541
O18	O	1.959360	0.808391	0.584875
O19	O	1.655961	0.129343	-0.081796
O20	O	1.989294	0.462677	0.251538
O21	O	2.322628	0.796010	0.584871
Zn22	Zn	1.474324	0.135533	-0.107766
Zn23	Zn	1.807657	0.468866	0.225567
Zn24	Zn	2.140991	0.802199	0.558901
Zn25	Zn	1.474349	0.135543	0.107761
Zn26	Zn	1.807682	0.468876	0.441095
Zn27	Zn	2.141016	0.802209	0.774428
O28	O	1.464695	0.269723	-0.081785
O29	O	1.798029	0.603057	0.251549
O30	O	2.131362	0.936390	0.584882
C31	C	1.246211	0.140827	-0.000000
C32	C	1.579545	0.474161	0.333333
C33	C	1.912878	0.807494	0.666667
C34	C	1.107682	0.138132	0.000001
C35	C	1.441016	0.471465	0.333334
C36	C	1.774349	0.804798	0.666668
C37	C	1.031965	0.216681	0.000007
C38	C	1.365298	0.550014	0.333340
C39	C	1.698632	0.883347	0.666674
C40	C	0.888788	0.213896	0.000008
C41	C	1.222121	0.547230	0.333341
C42	C	1.555454	0.880563	0.666675
C43	C	1.483070	-0.033016	-0.000011
C44	C	1.816404	0.300317	0.333322
C45	C	2.149737	0.633651	0.666655
C46	C	1.480380	-0.135411	-0.000012
C47	C	1.813713	0.197922	0.333321
C48	C	2.147047	0.531256	0.666655
C49	C	1.470476	-0.510357	0.000014
C50	C	1.803810	-0.177024	0.333347
C51	C	2.137143	0.156309	0.666680
C52	C	1.473227	-0.406035	0.000006
C53	C	1.806560	-0.072702	0.333340
C54	C	2.139893	0.260631	0.666673
C55	C	1.475428	-0.322887	-0.000000
C56	C	1.808761	0.010446	0.333333
C57	C	2.142095	0.343779	0.666667
C58	C	1.478179	-0.218559	-0.000006
C59	C	1.811512	0.114775	0.333328
C60	C	2.144845	0.448108	0.666661
C61	C	1.702462	0.130248	-0.000002
C62	C	2.035795	0.463582	0.333331
C63	C	2.369128	0.796915	0.666664
C64	C	1.840991	0.132944	0.000003
C65	C	2.174324	0.466277	0.333336
C66	C	2.507657	0.799611	0.666670
C67	C	1.465603	0.304091	0.000009
C68	C	1.798936	0.637425	0.333342
C69	C	2.132269	0.970758	0.666676
C70	C	1.468293	0.406486	0.000016
C71	C	1.801626	0.739820	0.333349
C72	C	2.134960	1.073153	0.666683
N73	N	1.474316	0.135525	-0.254858
N74	N	1.807649	0.468859	0.078475
N75	N	2.140983	0.802192	0.411809
C76	C	1.474347	0.135544	-0.656149
C77	C	1.807681	0.468877	-0.322815
C78	C	2.141014	0.802210	0.010518
C79	C	1.474335	0.135542	-0.544497
C80	C	1.807668	0.468875	-0.211164
C81	C	2.141002	0.802208	0.122169
C82	C	1.474332	0.135535	-0.455507
C83	C	1.807666	0.468869	-0.122174
C84	C	2.140999	0.802202	0.211160
C85	C	1.474319	0.135532	-0.343848
C86	C	1.807652	0.468865	-0.010515
C87	C	2.140985	0.802198	0.322818
N88	N	1.474367	0.135543	0.254853
N89	N	1.807700	0.468876	0.588187
N90	N	2.141034	0.802210	0.921520
H91	H	1.073139	0.285991	0.000006
H92	H	1.406472	0.619324	0.333339
H93	H	1.739806	0.952657	0.666673
H94	H	0.906045	0.065696	0.000004
H95	H	1.239378	0.399029	0.333338
H96	H	1.572712	0.732363	0.666671
Br97	Br	0.780355	0.325982	0.000028
Br98	Br	1.113689	0.659315	0.333361
Br99	Br	1.447022	0.992649	0.666695
Br100	Br	1.039071	0.022603	-0.000018
Br101	Br	1.372404	0.355936	0.333316
Br102	Br	1.705737	0.689270	0.666649
