data_functionalizedCrystal
_audit_creation_method	'MofGen! by Chris Wilmer'
_symmetry_space_group_name_H-M	'P1'
_symmetry_Int_Tables_number	1
_symmetry_cell_setting	triclinic
loop_
_symmetry_equiv_pos_as_xyz
  x,y,z
_cell_length_a	12.503552
_cell_length_b	14.853567
_cell_length_c	14.853567
_cell_angle_alpha	96.365070
_cell_angle_beta	86.471599
_cell_angle_gamma	86.474799
loop_
_atom_site_label
_atom_site_type_symbol
_atom_site_fract_x
_atom_site_fract_y
_atom_site_fract_z
O1	O	0.089238	-1.201558	0.112504
O2	O	0.422571	-0.868225	0.445837
O3	O	0.755904	-0.534891	0.779171
O4	O	0.089255	-0.939100	0.126524
O5	O	0.422588	-0.605766	0.459858
O6	O	0.755922	-0.272433	0.793191
O7	O	0.089249	-1.077340	-0.011716
O8	O	0.422582	-0.744006	0.321618
O9	O	0.755916	-0.410673	0.654951
O10	O	0.089243	-1.063318	0.250744
O11	O	0.422577	-0.729985	0.584078
O12	O	0.755910	-0.396651	0.917411
O13	O	-0.089393	-1.066931	-0.001310
O14	O	0.243940	-0.733598	0.332023
O15	O	0.577274	-0.400265	0.665357
O16	O	-0.089387	-0.928691	0.136930
O17	O	0.243946	-0.595358	0.470263
O18	O	0.577280	-0.262025	0.803597
O19	O	-0.089404	-1.191150	0.122910
O20	O	0.243929	-0.857816	0.456243
O21	O	0.577262	-0.524483	0.789576
Cu22	Cu	-0.105707	-1.058970	0.130870
Cu23	Cu	0.227626	-0.725637	0.464203
Cu24	Cu	0.560959	-0.392303	0.797537
Cu25	Cu	0.105558	-1.071279	0.118564
Cu26	Cu	0.438891	-0.737946	0.451898
Cu27	Cu	0.772224	-0.404613	0.785231
O28	O	-0.089399	-1.052910	0.261150
O29	O	0.243935	-0.719576	0.594483
O30	O	0.577268	-0.386243	0.927816
C31	C	-0.000064	-0.900307	0.131092
C32	C	0.333270	-0.566974	0.464425
C33	C	0.666603	-0.233640	0.797759
C34	C	-0.000057	-0.800224	0.129188
C35	C	0.333277	-0.466890	0.462521
C36	C	0.666610	-0.133557	0.795854
N37	N	-0.254300	-1.050319	0.139525
N38	N	0.079034	-0.716986	0.472858
N39	N	0.412367	-0.383652	0.806191
C40	C	-0.526735	-1.092659	0.097168
C41	C	-0.193401	-0.759326	0.430501
C42	C	0.139932	-0.425992	0.763835
C43	C	-0.473408	-1.037601	0.152256
C44	C	-0.140075	-0.704267	0.485589
C45	C	0.193259	-0.370934	0.818923
C46	C	-0.351485	-1.044679	0.145170
C47	C	-0.018151	-0.711346	0.478504
C48	C	0.315182	-0.378012	0.811837
C49	C	-0.648669	-1.085582	0.104252
C50	C	-0.315336	-0.752248	0.437586
C51	C	0.017998	-0.418915	0.770919
C52	C	-0.000069	-1.071500	-0.040102
C53	C	0.333265	-0.738167	0.293232
C54	C	0.666598	-0.404834	0.626565
C55	C	-0.000059	-1.069597	-0.140186
C56	C	0.333274	-0.736264	0.193147
C57	C	0.666607	-0.402930	0.526481
N58	N	0.254150	-1.079937	0.109902
N59	N	0.587483	-0.746604	0.443236
N60	N	0.920817	-0.413271	0.776569
C61	C	-0.000083	-1.229943	0.118342
C62	C	0.333250	-0.896609	0.451676
C63	C	0.666583	-0.563276	0.785009
C64	C	-0.000083	-1.330026	0.120246
C65	C	0.333250	-0.996693	0.453579
C66	C	0.666583	-0.663360	0.786913
C67	C	-0.000079	-0.387688	0.039023
C68	C	0.333255	-0.054355	0.372357
C69	C	0.666588	0.278978	0.705690
C70	C	-0.000081	-0.366407	0.203256
C71	C	0.333252	-0.033074	0.536590
C72	C	0.666585	0.300259	0.869923
C73	C	-0.000078	-0.460441	0.205046
C74	C	0.333255	-0.127108	0.538379
C75	C	0.666589	0.206225	0.871713
C76	C	-0.000073	-0.518103	0.123823
C77	C	0.333260	-0.184770	0.457157
C78	C	0.666593	0.148563	0.790490
C79	C	-0.000072	-0.481732	0.040810
C80	C	0.333261	-0.148398	0.374144
C81	C	0.666594	0.184935	0.707477
C82	C	-0.000068	-0.496821	0.288057
C83	C	0.333265	-0.163488	0.621390
C84	C	0.666599	0.169846	0.954723
C85	C	-0.000064	-0.590860	0.289850
C86	C	0.333270	-0.257527	0.623183
C87	C	0.666603	0.075806	0.956517
C88	C	-0.000067	-0.648524	0.208626
C89	C	0.333267	-0.315190	0.541960
C90	C	0.666600	0.018143	0.875293
C91	C	-0.000067	-0.612147	0.125610
C92	C	0.333267	-0.278813	0.458944
C93	C	0.666600	0.054520	0.792277
C94	C	-0.000062	-0.669809	0.044388
C95	C	0.333271	-0.336475	0.377721
C96	C	0.666604	-0.003142	0.711054
C97	C	-0.000070	-0.633433	-0.038629
C98	C	0.333263	-0.300099	0.294704
C99	C	0.666597	0.033234	0.628038
C100	C	-0.000075	-0.539395	-0.040413
C101	C	0.333258	-0.206062	0.292920
C102	C	0.666591	0.127272	0.626254
C103	C	-0.000061	-0.742561	0.210410
C104	C	0.333272	-0.409228	0.543744
C105	C	0.666605	-0.075895	0.877077
C106	C	-0.000056	-0.763852	0.046175
C107	C	0.333278	-0.430518	0.379508
C108	C	0.666611	-0.097185	0.712842
C109	C	-0.000074	-0.979431	-0.552719
C110	C	0.333259	-0.646097	-0.219386
C111	C	0.666593	-0.312764	0.113948
C112	C	-0.000085	-1.143663	-0.573999
C113	C	0.333249	-0.810329	-0.240666
C114	C	0.666582	-0.476996	0.092667
C115	C	-0.000078	-1.145453	-0.479966
C116	C	0.333255	-0.812120	-0.146633
C117	C	0.666588	-0.478787	0.186701
C118	C	-0.000072	-1.064231	-0.422304
C119	C	0.333262	-0.730898	-0.088971
C120	C	0.666595	-0.397564	0.244362
C121	C	-0.000071	-0.981218	-0.458676
C122	C	0.333262	-0.647885	-0.125343
C123	C	0.666596	-0.314552	0.207990
C124	C	-0.000090	-1.228464	-0.443586
C125	C	0.333243	-0.895130	-0.110253
C126	C	0.666577	-0.561797	0.223080
C127	C	-0.000085	-1.230258	-0.349547
C128	C	0.333248	-0.896924	-0.016214
C129	C	0.666582	-0.563591	0.317119
C130	C	-0.000070	-1.149035	-0.291885
C131	C	0.333263	-0.815701	0.041449
C132	C	0.666596	-0.482368	0.374782
C133	C	-0.000069	-1.066019	-0.328262
C134	C	0.333265	-0.732686	0.005071
C135	C	0.666598	-0.399352	0.338405
C136	C	-0.000062	-0.984797	-0.270600
C137	C	0.333272	-0.651463	0.062733
C138	C	0.666605	-0.318130	0.396066
C139	C	-0.000052	-0.901780	-0.306976
C140	C	0.333281	-0.568447	0.026357
C141	C	0.666615	-0.235114	0.359690
C142	C	-0.000056	-0.899996	-0.401014
C143	C	0.333277	-0.566662	-0.067680
C144	C	0.666610	-0.233329	0.265653
C145	C	-0.000066	-1.150819	-0.197847
C146	C	0.333267	-0.817486	0.135486
C147	C	0.666600	-0.484153	0.468819
C148	C	-0.000059	-0.986584	-0.176558
C149	C	0.333275	-0.653251	0.156776
C150	C	0.666608	-0.319918	0.490109
C151	C	-0.000078	-1.058749	0.289536
C152	C	0.333255	-0.725416	0.622869
C153	C	0.666588	-0.392082	0.956202
C154	C	-0.000081	-1.060653	0.389620
C155	C	0.333253	-0.727319	0.722953
C156	C	0.666586	-0.393986	1.056286
H157	H	-0.519322	-0.985148	0.204740
H158	H	-0.185988	-0.651815	0.538074
H159	H	0.147345	-0.318482	0.871407
H160	H	-0.000099	-1.209790	-0.620952
H161	H	0.333235	-0.876456	-0.287619
H162	H	0.666568	-0.543123	0.045715
H163	H	-0.000059	-0.680394	-0.104761
H164	H	0.333274	-0.347061	0.228573
H165	H	0.666608	-0.013727	0.561906
H166	H	-0.000091	-1.297854	-0.319939
H167	H	0.333242	-0.964521	0.013395
H168	H	0.666575	-0.631188	0.346728
H169	H	-0.480826	-1.145109	0.044688
H170	H	-0.147493	-0.811775	0.378022
H171	H	0.185840	-0.478442	0.711355
H172	H	-0.000056	-0.810795	-0.019968
H173	H	0.333277	-0.477462	0.313366
H174	H	0.666611	-0.144128	0.646699
H175	H	-0.000054	-0.835649	-0.260016
H176	H	0.333279	-0.502316	0.073318
H177	H	0.666613	-0.168982	0.406651
H178	H	-0.000081	-1.218410	-0.168234
H179	H	0.333252	-0.885076	0.165100
H180	H	0.666586	-0.551743	0.498433
H181	H	-0.000107	-0.509767	-0.107999
H182	H	0.333226	-0.176434	0.225334
H183	H	0.666559	0.156899	0.558667
H184	H	-0.000089	-0.358067	-0.028567
H185	H	0.333244	-0.024733	0.304767
H186	H	0.666577	0.308600	0.638100
H187	H	-0.000076	-0.319454	0.269383
H188	H	0.333257	0.013879	0.602717
H189	H	0.666591	0.347212	0.936050
H190	H	-0.000061	-0.449867	0.354183
H191	H	0.333273	-0.116533	0.687516
H192	H	0.666606	0.216800	1.020850
H193	H	-0.000057	-0.620469	0.357447
H194	H	0.333276	-0.287136	0.690780
H195	H	0.666610	0.046198	1.024113
H196	H	-0.000057	-0.772175	0.278001
H197	H	0.333277	-0.438841	0.611335
H198	H	0.666610	-0.105508	0.944668
H199	H	-0.000048	-0.920443	-0.129615
H200	H	0.333285	-0.587109	0.203718
H201	H	0.666618	-0.253776	0.537051
H202	H	-0.000050	-0.832408	-0.430640
H203	H	0.333284	-0.499075	-0.097306
H204	H	0.666617	-0.165741	0.236027
H205	H	-0.000062	-0.911841	-0.582341
H206	H	0.333271	-0.578507	-0.249008
H207	H	0.666605	-0.245174	0.084326
H208	H	-0.000106	-1.294590	-0.490540
H209	H	0.333228	-0.961256	-0.157207
H210	H	0.666561	-0.627923	0.176127
