data_functionalizedCrystal
_audit_creation_method	'MofGen! by Chris Wilmer'
_symmetry_space_group_name_H-M	'P1'
_symmetry_Int_Tables_number	1
_symmetry_cell_setting	triclinic
loop_
_symmetry_equiv_pos_as_xyz
  x,y,z
_cell_length_a	15.995350
_cell_length_b	14.971486
_cell_length_c	13.448316
_cell_angle_alpha	89.993189
_cell_angle_beta	89.996887
_cell_angle_gamma	83.553252
loop_
_atom_site_label
_atom_site_type_symbol
_atom_site_fract_x
_atom_site_fract_y
_atom_site_fract_z
O1	O	1.111103	0.115296	-0.082608
O2	O	0.867342	0.129533	-0.082629
O3	O	0.995756	-0.007793	-0.082611
O4	O	0.982690	0.252622	-0.082626
O5	O	0.995740	-0.007802	0.082773
O6	O	0.867326	0.129524	0.082755
O7	O	1.111087	0.115287	0.082776
Cu8	Cu	0.989205	0.122405	0.097866
Cu9	Cu	0.989224	0.122415	-0.097719
O10	O	0.982673	0.252613	0.082758
C11	C	0.836139	0.128940	0.000061
C12	C	0.743187	0.127175	0.000053
C13	C	0.995164	-0.041122	0.000081
C14	C	0.993413	-0.140417	0.000080
C15	C	1.068852	-0.197728	0.000087
C16	C	1.067202	-0.291026	0.000077
C17	C	0.990111	-0.327010	0.000067
C18	C	0.914666	-0.269691	0.000057
C19	C	0.916317	-0.176395	0.000060
C20	C	0.911229	-0.464150	0.000053
C21	C	0.909577	-0.557452	0.000052
C22	C	1.062114	-0.578780	0.000070
C23	C	1.063766	-0.485484	0.000073
C24	C	0.988320	-0.428172	0.000065
C25	C	0.405433	0.120838	0.000074
C26	C	0.452769	0.023037	0.000449
C27	C	0.549461	0.024802	0.000069
C28	C	0.572997	0.123982	0.000064
C29	C	0.531967	0.172225	-0.094377
C30	C	0.435329	0.169768	-0.094449
C31	C	0.434974	0.171780	0.093623
C32	C	0.531919	0.171756	0.094865
C33	C	0.667696	0.125763	0.000055
C34	C	0.310733	0.119060	0.000076
C35	C	1.142291	0.115880	0.000084
C36	C	1.235243	0.117645	0.000085
C37	C	0.983266	0.285942	0.000064
C38	C	0.985017	0.385237	0.000059
N39	N	0.989198	0.122397	0.235431
N40	N	0.989238	0.122415	-0.235284
C41	C	1.046077	0.061614	0.287479
C42	C	1.046083	0.061614	0.391582
C43	C	0.989212	0.122401	0.443635
C44	C	0.932326	0.183187	0.391580
C45	C	0.932318	0.183183	0.287478
C46	C	0.932350	0.183193	0.608560
C47	C	0.932359	0.183199	0.712668
C48	C	1.046114	0.061624	0.712664
C49	C	1.046106	0.061620	0.608562
C50	C	0.989221	0.122407	0.556514
H51	H	1.128633	-0.337686	0.000085
O52	O	0.834947	-0.114581	0.000056
H53	H	0.849045	-0.043661	0.000050
H54	H	0.886017	0.232678	0.433967
H55	H	0.403153	0.241573	-0.098738
H56	H	0.559193	0.136539	0.164732
H57	H	0.886000	0.232677	0.245101
H58	H	1.123545	-0.625449	0.000073
H59	H	0.577845	-0.013120	0.067769
H60	H	1.092392	0.012118	0.245104
O61	O	1.107439	-0.003947	0.552415
H62	H	1.172723	0.007482	0.572380
O63	O	1.107474	-0.003945	0.768785
H64	H	1.072199	-0.047454	0.816220
O65	O	1.152001	-0.158917	0.000088
H66	H	1.204181	-0.214448	0.000079
H67	H	0.851897	-0.298997	0.000042
O68	O	1.107446	-0.003928	0.447724
H69	H	1.147002	-0.046185	0.394039
O70	O	0.552366	0.267559	0.102432
H71	H	0.592297	0.282689	0.038452
O72	O	0.829855	-0.402333	0.000046
H73	H	0.826961	-0.359323	0.067453
H74	H	0.416992	0.134594	-0.165042
O75	O	0.871005	0.248741	0.768818
H76	H	0.831435	0.290996	0.715139
O77	O	0.426772	-0.028513	-0.088757
H78	H	0.398037	-0.088653	-0.063303
O79	O	1.146911	-0.446666	0.000072
H80	H	1.199096	-0.502191	0.000062
O81	O	0.871001	0.248759	0.552416
H82	H	0.831464	0.291037	0.606098
H83	H	0.846803	-0.586747	0.000059
H84	H	0.434201	-0.016060	0.068177
H85	H	0.577287	-0.013369	-0.067744
O86	O	0.550762	0.268747	-0.099043
H87	H	0.585581	0.279636	-0.168596
O88	O	0.569500	0.127849	-0.187481
H89	H	0.617364	0.071443	-0.166729
H90	H	0.414399	0.139802	0.165207
H91	H	0.403284	0.243888	0.094259
