data_functionalizedCrystal
_audit_creation_method	'MofGen! by Chris Wilmer'
_symmetry_space_group_name_H-M	'P1'
_symmetry_Int_Tables_number	1
_symmetry_cell_setting	triclinic
loop_
_symmetry_equiv_pos_as_xyz
  x,y,z
_cell_length_a	12.645330
_cell_length_b	12.759395
_cell_length_c	12.759387
_cell_angle_alpha	89.979326
_cell_angle_beta	90.029414
_cell_angle_gamma	89.984831
loop_
_atom_site_label
_atom_site_type_symbol
_atom_site_fract_x
_atom_site_fract_y
_atom_site_fract_z
Zn1	Zn	-0.422055	-1.606247	0.594020
Zn2	Zn	-0.599357	-1.606128	0.418344
Zn3	Zn	-0.422100	-1.430545	0.418356
Zn4	Zn	-0.599269	-1.430528	0.593983
O5	O	-0.510695	-1.518362	0.506176
O6	O	-0.445592	-1.753252	0.570727
O7	O	-0.575899	-1.582794	0.271325
O8	O	-0.273747	-1.453909	0.441679
O9	O	-0.575855	-1.753165	0.441659
O10	O	-0.273714	-1.582996	0.570738
O11	O	-0.445669	-1.453794	0.271333
O12	O	-0.445584	-1.283522	0.441643
O13	O	-0.575705	-1.453880	0.741009
O14	O	-0.575749	-1.283509	0.570675
O15	O	-0.445507	-1.582980	0.741036
O16	O	-0.747692	-1.582778	0.441623
O17	O	-0.747628	-1.453765	0.570664
C18	C	-0.510663	-1.245395	0.506157
C19	C	-0.510674	-1.128618	0.506174
C20	C	-0.375251	-1.128689	0.640789
C21	C	-0.307549	-1.073864	0.708104
C22	C	-0.307564	-0.964143	0.708115
C23	C	-0.375284	-0.909244	0.640801
C24	C	-0.442986	-0.964069	0.573486
C25	C	-0.442966	-1.073793	0.573485
C26	C	-0.578402	-0.963997	0.438867
C27	C	-0.578395	-1.073719	0.438860
C28	C	-0.646123	-0.909098	0.371553
C29	C	-0.713831	-0.963923	0.304242
C30	C	-0.713815	-1.073652	0.304235
C31	C	-0.646096	-1.128544	0.371545
C32	C	-0.786125	-1.518285	0.506161
C33	C	-0.903955	-1.518349	0.506190
C34	C	-1.071522	-1.437522	0.587620
C35	C	-0.948963	-1.437108	0.587358
C36	C	-0.948557	-1.488373	0.395468
C37	C	-1.071155	-1.487880	0.395962
C38	C	-1.071047	-1.629646	0.534584
C39	C	-0.948440	-1.628964	0.537005
C40	C	-0.234190	-1.518468	0.506214
C41	C	-0.116360	-1.518513	0.506230
C42	C	-0.510591	-1.518441	0.780209
C43	C	-0.510547	-1.518475	0.896986
C44	C	-0.510718	-0.792395	0.506190
C45	C	-0.510701	-0.909172	0.506182
C46	C	-0.510722	-1.518343	0.233208
C47	C	-0.510468	-1.518513	0.116432
C48	C	-0.374980	-1.652916	0.897034
C49	C	-0.307181	-1.720151	0.951919
C50	C	-0.307142	-1.720176	1.061641
C51	C	-0.374908	-1.652958	1.116480
C52	C	-0.442707	-1.585723	1.061595
C53	C	-0.442741	-1.585707	0.951871
C54	C	-0.578267	-1.451278	1.061547
C55	C	-0.578313	-1.451256	0.951826
C56	C	-0.646033	-1.384059	1.116387
C57	C	-0.713839	-1.316828	1.061502
C58	C	-0.713876	-1.316806	0.951774
C59	C	-0.646112	-1.384021	0.896941
H60	H	-0.252411	-1.118575	0.762908
C61	C	-0.374859	-1.652981	1.237171
H62	H	-0.324777	-1.702652	1.262003
H63	H	-0.356507	-1.585195	1.261983
H64	H	-0.443267	-1.671131	1.261984
H65	H	-0.252429	-0.919504	0.762923
C66	C	-0.646144	-0.788408	0.371561
H67	H	-0.696165	-0.763567	0.321828
H68	H	-0.664569	-0.763614	0.439327
H69	H	-0.577711	-0.763584	0.353511
H70	H	-0.646071	-1.217885	0.371541
C71	C	-0.232649	-1.794090	0.891595
H72	H	-0.242386	-1.784456	0.818387
H73	H	-0.161411	-1.778758	0.909585
H74	H	-0.248185	-1.864679	0.909587
C75	C	-0.788475	-1.242865	0.891409
H76	H	-0.828834	-1.202851	0.939787
H77	H	-0.747948	-1.197094	0.848592
H78	H	-0.834690	-1.283046	0.848619
H79	H	-0.769002	-1.262098	1.106161
H80	H	-0.768959	-0.919216	0.249436
C81	C	-1.111376	-1.462522	0.698871
H82	H	-1.155709	-1.522584	0.696686
H83	H	-1.052751	-1.475888	0.743501
H84	H	-1.150321	-1.404490	0.725049
C85	C	-1.113249	-1.326913	0.562567
H86	H	-1.157874	-1.329877	0.502719
H87	H	-1.152241	-1.301115	0.620714
H88	H	-1.055367	-1.281513	0.548789
H89	H	-0.917944	-1.407980	0.371013
C90	C	-0.645993	-1.384088	1.237077
H91	H	-0.595918	-1.433764	1.261913
H92	H	-0.627639	-1.316305	1.261896
H93	H	-0.714405	-1.402234	1.261882
H94	H	-0.768942	-1.118284	0.249415
C95	C	-0.646151	-1.383995	0.776250
H96	H	-0.696237	-1.334330	0.751414
H97	H	-0.577743	-1.365859	0.751442
H98	H	-0.664514	-1.451783	0.751437
H99	H	-0.919406	-1.545493	0.333169
C100	C	-0.909458	-1.325814	0.561967
H101	H	-0.968338	-1.280680	0.551763
H102	H	-0.867727	-1.300570	0.618499
H103	H	-0.867951	-1.327527	0.499953
C104	C	-0.908214	-1.462407	0.698273
H105	H	-0.966587	-1.473028	0.743898
H106	H	-0.866269	-1.524142	0.696131
H107	H	-0.866662	-1.405629	0.723230
C108	C	-0.375293	-0.788553	0.640808
H109	H	-0.325276	-0.763764	0.690540
H110	H	-0.356882	-0.763706	0.573043
H111	H	-0.443733	-0.763730	0.658866
H112	H	-1.101886	-1.656990	0.613950
C113	C	-0.909040	-1.659517	0.647075
H114	H	-0.865656	-1.605098	0.674144
H115	H	-0.967915	-1.669782	0.692132
H116	H	-0.869216	-1.722516	0.642848
H117	H	-0.917797	-1.692484	0.482041
H118	H	-0.375228	-1.218030	0.640783
H119	H	-1.099845	-1.406640	0.371942
H120	H	-0.251928	-1.774918	1.106328
H121	H	-1.100820	-1.544310	0.333252
C122	C	-1.110111	-1.711139	0.454434
H123	H	-1.153836	-1.677659	0.403943
H124	H	-1.051093	-1.742092	0.420350
H125	H	-1.149496	-1.763924	0.489543
C126	C	-0.375024	-1.652895	0.776344
H127	H	-0.324954	-1.702551	0.751544
H128	H	-0.443447	-1.671021	0.751513
H129	H	-0.356675	-1.585098	0.751515
