data_functionalizedCrystal
_audit_creation_method	'MofGen! by Chris Wilmer'
_symmetry_space_group_name_H-M	'P1'
_symmetry_Int_Tables_number	1
_symmetry_cell_setting	triclinic
loop_
_symmetry_equiv_pos_as_xyz
  x,y,z
_cell_length_a	19.188930
_cell_length_b	10.540539
_cell_length_c	9.616153
_cell_angle_alpha	90.000094
_cell_angle_beta	90.020735
_cell_angle_gamma	83.835136
loop_
_atom_site_label
_atom_site_type_symbol
_atom_site_fract_x
_atom_site_fract_y
_atom_site_fract_z
O1	O	-0.927204	-0.158464	-0.116087
O2	O	-0.724035	-0.179797	-0.115991
O3	O	-0.830255	0.015678	-0.116039
O4	O	-0.820984	-0.353939	-0.116038
O5	O	-0.830240	0.015674	0.115252
O6	O	-0.724020	-0.179801	0.115301
O7	O	-0.927189	-0.158469	0.115205
Zn8	Zn	-0.825602	-0.169136	0.151975
Zn9	Zn	-0.825622	-0.169130	-0.152761
O10	O	-0.820969	-0.353944	0.115253
C11	C	-0.829552	0.062963	-0.000396
C12	C	-0.827472	0.203866	-0.000402
C13	C	-0.698012	-0.179108	-0.000333
C14	C	-0.620493	-0.177035	-0.000296
C15	C	-0.953212	-0.159157	-0.000456
C16	C	-1.030731	-0.161231	-0.000502
C17	C	-0.576334	-0.291733	-0.000318
C18	C	-0.503497	-0.289785	-0.000333
C19	C	-0.474823	-0.173132	-0.000355
C20	C	-0.518992	-0.058418	-0.000325
C21	C	-0.591827	-0.060370	-0.000296
N22	N	-0.366254	-0.083963	-0.079130
N23	N	-0.297063	-0.082117	-0.079160
C24	C	-0.255375	-0.167245	-0.000440
N25	N	-0.285491	-0.254307	0.078295
N26	N	-0.354688	-0.256157	0.078320
C27	C	-0.395846	-0.171003	-0.000386
C28	C	-0.132237	-0.279839	-0.000476
C29	C	-0.059400	-0.277885	-0.000483
C30	C	-0.074896	-0.046516	-0.000489
C31	C	-0.147732	-0.048472	-0.000468
C32	C	-0.176398	-0.165137	-0.000468
C33	C	-0.821672	-0.401229	-0.000393
C34	C	-0.823752	-0.542131	-0.000396
N35	N	-0.825594	-0.169139	0.359950
C36	C	-0.747771	0.385536	-0.000884
C37	C	-0.749879	0.238965	-0.000364
C38	C	-0.864805	0.266344	0.131659
C39	C	-0.862157	0.412830	0.131771
C40	C	-0.863751	0.413388	-0.131251
C41	C	-0.864466	0.266422	-0.132998
N42	N	-0.825635	-0.169117	-0.360736
C43	C	-0.768600	-0.273362	0.580346
C44	C	-0.768726	-0.273745	0.419178
C45	C	-0.898589	-0.197664	0.418364
C46	C	-0.898279	-0.198400	0.579582
C47	C	-0.810320	-0.036037	0.579870
C48	C	-0.808645	-0.036939	0.418644
H49	H	-0.599669	-0.386731	-0.000321
O50	O	-0.781467	-0.403461	0.633962
H51	H	-0.828308	-0.394199	0.702388
O52	O	-0.195364	0.075245	-0.000456
H53	H	-0.250827	0.054291	-0.000420
O54	O	-0.043982	0.079309	-0.000513
H55	H	0.014085	0.061399	-0.000544
H56	H	-0.023445	-0.371291	-0.000492
H57	H	-0.754946	-0.015281	0.380469
H58	H	-0.847433	0.044237	0.378331
H59	H	-0.495641	0.036562	-0.000362
H60	H	-0.851905	0.041534	0.617967
H61	H	-0.837150	0.224963	-0.230693
H62	H	-0.720503	0.195716	-0.095029
O63	O	-0.710685	0.182769	0.125278
H64	H	-0.746757	0.133280	0.191283
H65	H	-0.911673	-0.295442	0.617163
O66	O	-0.956232	-0.101639	0.631220
H67	H	-0.984359	-0.054536	0.541037
O68	O	-0.707163	0.422543	-0.126302
H69	H	-0.740697	0.492890	-0.189631
O70	O	-0.825587	0.449391	0.262556
H71	H	-0.809953	0.362484	0.325124
O72	O	-0.639464	0.063344	-0.000280
H73	H	-0.607292	0.144792	-0.000301
O74	O	-0.781763	-0.404572	0.368052
H75	H	-0.830213	-0.396821	0.304144
O76	O	-0.939405	0.236007	-0.143609
H77	H	-0.951509	0.175566	-0.054137
O78	O	-0.956189	-0.099757	0.367545
H79	H	-0.933346	-0.029563	0.299946
O80	O	-0.936068	0.478017	0.139717
H81	H	-0.966390	0.450119	0.048430
H82	H	-0.919796	0.461849	-0.132166
O83	O	-0.916727	-0.324751	0.364879
H84	H	-0.919016	-0.322382	0.249560
H85	H	-0.717239	0.415069	0.093316
O86	O	-0.455854	-0.413498	-0.000371
H87	H	-0.488024	-0.494949	-0.000376
H88	H	-0.758217	-0.008505	0.620632
O89	O	-0.940281	0.238385	0.138152
H90	H	-0.968440	0.277443	0.044061
H91	H	-0.155578	-0.374834	-0.000456
H92	H	-0.838859	0.223171	0.229960
H93	H	-0.838645	0.444389	-0.231346
O94	O	-0.696881	-0.251339	0.366852
H95	H	-0.661733	-0.240135	0.456699
H96	H	-0.714194	-0.256708	0.619183
