data_functionalizedCrystal
_audit_creation_method	'MofGen! by Chris Wilmer'
_symmetry_space_group_name_H-M	'P1'
_symmetry_Int_Tables_number	1
_symmetry_cell_setting	triclinic
loop_
_symmetry_equiv_pos_as_xyz
  x,y,z
_cell_length_a	17.038272
_cell_length_b	17.038272
_cell_length_c	7.540329
_cell_angle_alpha	90.003596
_cell_angle_beta	89.996000
_cell_angle_gamma	91.111556
loop_
_atom_site_label
_atom_site_type_symbol
_atom_site_fract_x
_atom_site_fract_y
_atom_site_fract_z
O1	O	-1.048751	-0.170535	-0.147262
O2	O	-0.820940	-0.167827	-0.147314
O3	O	-0.933492	-0.055275	-0.147274
O4	O	-0.936200	-0.283087	-0.147302
O5	O	-0.933487	-0.055274	0.147691
O6	O	-0.820936	-0.167826	0.147651
O7	O	-1.048747	-0.170534	0.147703
Cu8	Cu	-0.934841	-0.169180	0.174610
Cu9	Cu	-0.934846	-0.169181	-0.174221
O10	O	-0.936195	-0.283086	0.147663
C11	C	-0.791645	-0.165364	0.000162
C12	C	-0.704361	-0.158016	0.000142
C13	C	-0.931027	-0.025982	0.000207
C14	C	-0.923679	0.061301	0.000205
C15	C	-1.078042	-0.172997	0.000223
C16	C	-1.165326	-0.180346	0.000231
C17	C	-0.658752	-0.225479	0.000135
C18	C	-0.576740	-0.218570	0.000161
C19	C	-0.540339	-0.144197	0.000180
C20	C	-0.585954	-0.076728	0.000192
C21	C	-0.667965	-0.083638	0.000180
C22	C	-0.292951	-0.119787	0.000230
C23	C	-0.210935	-0.112882	0.000238
C24	C	-0.201726	-0.254725	0.000210
C25	C	-0.283739	-0.261628	0.000186
C26	C	-0.329347	-0.194159	0.000208
C27	C	-0.456510	-0.137133	0.000200
C28	C	-0.413174	-0.201224	0.000200
C29	C	-0.938660	-0.312379	0.000177
C30	C	-0.946008	-0.399663	0.000168
N31	N	-0.934843	-0.169179	0.419958
C32	C	-0.991142	0.106911	0.000222
C33	C	-0.984233	0.188923	0.000204
C34	C	-0.909860	0.225324	0.000181
C35	C	-0.842391	0.179708	0.000158
C36	C	-0.849301	0.097698	0.000164
C37	C	-0.885449	0.472712	0.000151
C38	C	-0.878545	0.554728	0.000151
C39	C	-1.020387	0.563937	0.000193
C40	C	-1.027291	0.481924	0.000209
C41	C	-0.959822	0.436316	0.000177
C42	C	-0.902796	0.309153	0.000168
C43	C	-0.966886	0.352488	0.000178
N44	N	-0.934850	-0.169177	-0.419569
H45	H	-0.688384	-0.286042	0.000118
H46	H	-0.556310	-0.016172	0.000233
H47	H	-1.027441	0.322847	0.000158
H48	H	-0.539608	-0.273507	0.000153
H49	H	-0.781835	0.209353	0.000129
O50	O	-0.783687	0.053507	0.000226
C51	C	-0.642270	0.053024	0.000064
C52	C	-0.716515	0.103162	0.000049
H53	H	-0.587943	0.093148	-0.000117
H54	H	-0.641897	0.014418	0.123532
H55	H	-0.642009	0.014378	-0.123353
H56	H	-0.716824	0.141854	0.123382
H57	H	-0.716858	0.141716	-0.123501
H58	H	-0.181300	-0.052315	0.000252
H59	H	-0.442816	-0.261778	0.000194
H60	H	-0.313370	-0.322190	0.000150
H61	H	-0.164583	-0.309653	0.000196
H62	H	-0.330076	-0.064848	0.000249
O63	O	-0.421110	-0.064907	-0.000109
C64	C	-0.333803	0.025179	-0.152846
C65	C	-0.373860	-0.056633	-0.152742
H66	H	-0.295579	0.031888	-0.276217
H67	H	-0.380450	0.072252	-0.152967
H68	H	-0.295680	0.031942	-0.029338
H69	H	-0.411979	-0.063473	-0.276229
H70	H	-0.327174	-0.103666	-0.152528
H71	H	-0.705099	-0.028702	0.000184
O72	O	-1.063449	0.071680	0.000162
C73	C	-1.203407	0.089479	0.000283
C74	C	-1.121566	0.129475	0.000321
H75	H	-1.250417	0.136188	0.000450
H76	H	-1.210240	0.051336	-0.123187
H77	H	-1.210149	0.051294	0.123698
H78	H	-1.114768	0.167700	-0.123010
H79	H	-1.114771	0.167571	0.123873
H80	H	-0.817978	0.584363	0.000161
O81	O	-0.830595	0.344606	-0.000075
C82	C	-0.740469	0.431820	-0.152959
C83	C	-0.822265	0.391731	-0.152880
H84	H	-0.733702	0.469916	-0.276507
H85	H	-0.733680	0.470044	-0.029605
H86	H	-0.693444	0.385126	-0.152872
H87	H	-0.869339	0.438371	-0.153028
H88	H	-0.828987	0.353490	-0.276223
O89	O	-1.049747	0.233258	-0.000094
C90	C	-1.124255	0.331213	-0.152853
C91	C	-1.050033	0.281040	-0.152749
H92	H	-1.124503	0.369869	-0.276242
H93	H	-1.178623	0.291142	-0.152941
H94	H	-1.124559	0.369811	-0.029363
H95	H	-1.049653	0.242435	-0.276218
H96	H	-0.995699	0.321155	-0.152568
O97	O	-1.099597	0.446693	0.000159
C98	C	-1.239556	0.464484	0.000336
C99	C	-1.157718	0.504485	0.000333
H100	H	-1.286568	0.511190	0.000514
H101	H	-1.246397	0.426336	-0.123125
H102	H	-1.246286	0.426303	0.123760
H103	H	-1.150932	0.542705	-0.123008
H104	H	-1.150914	0.542585	0.123875
H105	H	-0.830511	0.435587	0.000126
H106	H	-1.075316	0.601079	0.000216
