data_functionalizedCrystal
_audit_creation_method	'MofGen! by Chris Wilmer'
_symmetry_space_group_name_H-M	'P1'
_symmetry_Int_Tables_number	1
_symmetry_cell_setting	triclinic
loop_
_symmetry_equiv_pos_as_xyz
  x,y,z
_cell_length_a	8.597339
_cell_length_b	8.559649
_cell_length_c	12.996460
_cell_angle_alpha	89.995945
_cell_angle_beta	97.699272
_cell_angle_gamma	77.626154
loop_
_atom_site_label
_atom_site_type_symbol
_atom_site_fract_x
_atom_site_fract_y
_atom_site_fract_z
O1	O	-2.053702	-0.238075	-0.096471
O2	O	-1.553702	0.261925	0.403529
O3	O	-1.594575	-0.256329	-0.055774
O4	O	-1.094575	0.243671	0.444226
O5	O	-1.864588	-0.015232	-0.079709
O6	O	-1.364588	0.484768	0.420291
O7	O	-1.783689	-0.479171	-0.072536
O8	O	-1.283689	0.020829	0.427464
O9	O	-1.864586	-0.015216	-0.250843
O10	O	-1.364586	0.484784	0.249157
O11	O	-1.594573	-0.256313	-0.226908
O12	O	-1.094573	0.243687	0.273092
O13	O	-2.053700	-0.238059	-0.267605
O14	O	-1.553700	0.261941	0.232395
Cu15	Cu	-1.824136	-0.247184	-0.262882
Cu16	Cu	-1.324136	0.252816	0.237118
Cu17	Cu	-1.824139	-0.247203	-0.060497
Cu18	Cu	-1.324139	0.252797	0.439503
O19	O	-1.783687	-0.479155	-0.243670
O20	O	-1.283687	0.020845	0.256330
C21	C	-1.536340	-0.254359	-0.136179
C22	C	-1.036340	0.245641	0.363821
C23	C	-1.362823	-0.248494	-0.120798
C24	C	-0.862823	0.251506	0.379202
C25	C	-1.870718	0.044210	-0.165817
C26	C	-1.370718	0.544210	0.334183
C27	C	-1.888967	0.221304	-0.167429
C28	C	-1.388967	0.721304	0.332571
C29	C	-1.111937	-0.240021	-0.187203
C30	C	-0.611937	0.259979	0.312797
C31	C	-1.285459	-0.245866	-0.202592
C32	C	-0.785459	0.254134	0.297408
C33	C	-1.777557	-0.538597	-0.157559
C34	C	-1.277557	-0.038597	0.342441
C35	C	-1.759308	-0.715692	-0.155941
C36	C	-1.259308	-0.215692	0.344059
N37	N	-1.824146	-0.247170	-0.405230
N38	N	-1.324146	0.252830	0.094770
N39	N	-1.824143	-0.247205	0.081850
N40	N	-1.324143	0.252795	0.581850
C41	C	-1.824137	-0.247190	0.501665
C42	C	-1.324137	0.252810	1.001665
C43	C	-1.824133	-0.247199	0.384860
C44	C	-1.324133	0.252801	0.884860
C45	C	-1.824139	-0.247197	0.291761
C46	C	-1.324139	0.252803	0.791761
C47	C	-1.824137	-0.247207	0.174949
C48	C	-1.324137	0.252793	0.674949
H49	H	-1.351978	-0.248104	-0.284397
H50	H	-0.851978	0.251896	0.215603
C51	C	-1.590478	0.174148	-0.140970
C52	C	-1.090478	0.674148	0.359030
N53	N	-1.463313	0.091166	-0.129691
N54	N	-0.963313	0.591166	0.370309
H55	H	-1.296314	-0.246244	-0.038999
H56	H	-0.796314	0.253756	0.461001
C57	C	-2.057805	0.331471	-0.182401
C58	C	-1.557805	0.831471	0.317599
N59	N	-2.184972	0.414450	-0.193676
N60	N	-1.684972	0.914450	0.306324
