data_functionalizedCrystal
_audit_creation_method	'MofGen! by Chris Wilmer'
_symmetry_space_group_name_H-M	'P1'
_symmetry_Int_Tables_number	1
_symmetry_cell_setting	triclinic
loop_
_symmetry_equiv_pos_as_xyz
  x,y,z
_cell_length_a	15.298073
_cell_length_b	12.759400
_cell_length_c	12.759386
_cell_angle_alpha	90.061758
_cell_angle_beta	80.270534
_cell_angle_gamma	80.326808
loop_
_atom_site_label
_atom_site_type_symbol
_atom_site_fract_x
_atom_site_fract_y
_atom_site_fract_z
Zn1	Zn	-1.379692	-0.140042	0.872688
Zn2	Zn	-0.879692	0.359958	1.372688
Zn3	Zn	-1.379542	-0.315886	0.696980
Zn4	Zn	-0.879542	0.184114	1.196980
Zn5	Zn	-1.228739	-0.170590	0.666534
Zn6	Zn	-0.728739	0.329410	1.166534
Zn7	Zn	-1.228789	-0.346068	0.842169
Zn8	Zn	-0.728789	0.153932	1.342169
O9	O	-1.304191	-0.243146	0.769593
O10	O	-0.804191	0.256854	1.269593
O11	O	-1.505937	-0.137952	0.874894
O12	O	-1.005937	0.362048	1.374894
O13	O	-1.359454	-0.296765	0.545903
O14	O	-0.859454	0.203235	1.045903
O15	O	-1.248805	-0.019508	0.693912
O16	O	-0.748805	0.480492	1.193912
O17	O	-1.505827	-0.267143	0.745802
O18	O	-1.005827	0.232857	1.245802
O19	O	-1.359710	0.002935	0.845372
O20	O	-0.859710	0.502935	1.345372
O21	O	-1.248660	-0.190017	0.523535
O22	O	-0.748660	0.309983	1.023535
O23	O	-1.102480	-0.219283	0.664319
O24	O	-0.602480	0.280717	1.164319
O25	O	-1.248890	-0.318585	0.993255
O26	O	-0.748890	0.181415	1.493255
O27	O	-1.102517	-0.348207	0.793357
O28	O	-0.602517	0.151793	1.293357
O29	O	-1.359758	-0.167219	1.015678
O30	O	-0.859758	0.332781	1.515678
O31	O	-1.359502	-0.466919	0.716208
O32	O	-0.859502	0.033081	1.216208
O33	O	-1.248745	-0.489094	0.822878
O34	O	-0.748745	0.010906	1.322878
C35	C	-1.069760	-0.290336	0.722223
C36	C	-0.569760	0.209664	1.222223
C37	C	-0.969469	-0.310549	0.701983
C38	C	-0.469469	0.189451	1.201983
C39	C	-0.687000	-0.098894	0.914202
C40	C	-0.187000	0.401106	1.414202
C41	C	-0.781227	-0.079906	0.933225
C42	C	-0.281227	0.420094	1.433225
C43	C	-0.828293	-0.137565	0.875416
C44	C	-0.328293	0.362435	1.375416
C45	C	-0.781120	-0.214216	0.798581
C46	C	-0.281120	0.285784	1.298581
C47	C	-0.686883	-0.233212	0.779563
C48	C	-0.186883	0.266788	1.279563
C49	C	-0.828176	-0.271882	0.740776
C50	C	-0.328176	0.228118	1.240776
C51	C	-0.781004	-0.348533	0.663942
C52	C	-0.281004	0.151467	1.163942
C53	C	-0.686776	-0.367525	0.644926
C54	C	-0.186776	0.132475	1.144926
C55	C	-0.639711	-0.309867	0.702735
C56	C	-0.139711	0.190133	1.202735
C57	C	-0.922413	-0.252886	0.759795
C58	C	-0.422413	0.247114	1.259795
C59	C	-0.922297	-0.387204	0.625155
C60	C	-0.422297	0.112796	1.125155
C61	C	-0.828069	-0.406192	0.606133
C62	C	-0.328069	0.093808	1.106133
C63	C	-1.304137	-0.516124	0.769563
C64	C	-0.804137	-0.016124	1.269563
C65	C	-1.304197	-0.632889	0.769602
C66	C	-0.804197	-0.132889	1.269602
C67	C	-0.539537	-0.195764	0.817138
C68	C	-0.039537	0.304236	1.317138
C69	C	-0.639827	-0.175549	0.837375
C70	C	-0.139827	0.324451	1.337375
C71	C	-1.361920	-0.675980	0.848520
C72	C	-0.861920	-0.175980	1.348520
C73	C	-1.361970	-0.785694	0.848559
C74	C	-0.861970	-0.285694	1.348559
C75	C	-1.246573	-0.809217	0.690753
C76	C	-0.746573	-0.309217	1.190753
C77	C	-1.246518	-0.699506	0.690720
C78	C	-0.746518	-0.199506	1.190720
C79	C	-1.304269	0.030903	0.769650
C80	C	-0.804269	0.530903	1.269650
C81	C	-1.304302	0.147686	0.769675
C82	C	-0.804302	0.647686	1.269675
C83	C	-1.304087	-0.243344	0.496604
C84	C	-0.804087	0.256656	0.996604
C85	C	-1.304195	-0.243134	0.379850
C86	C	-0.804195	0.256866	0.879850
C87	C	-1.246146	-0.188035	0.313318
C88	C	-0.746146	0.311965	0.813318
C89	C	-1.246257	-0.187834	0.203616
C90	C	-0.746257	0.312166	0.703616
C91	C	-1.362469	-0.297841	0.226989
C92	C	-0.862469	0.202159	0.726989
C93	C	-1.362362	-0.298034	0.336689
C94	C	-0.862362	0.201966	0.836689
C95	C	-1.304347	-0.242861	1.043658
C96	C	-0.804347	0.257139	1.543658
C97	C	-1.304413	-0.242740	1.160448
C98	C	-0.804413	0.257260	1.660448
H99	H	-0.960812	-0.190475	0.822353
H100	H	-0.460812	0.309525	1.322353
H101	H	-1.199509	-0.664421	0.626454
H102	H	-0.699509	-0.164421	1.126454
C103	C	-1.183191	-0.882492	0.603927
C104	C	-0.683191	-0.382492	1.103927
N105	N	-1.135474	-0.937678	0.538506
N106	N	-0.635474	-0.437678	1.038506
C107	C	-1.182169	-0.127633	0.360792
C108	C	-0.682169	0.372367	0.860792
N109	N	-1.133983	-0.082131	0.396546
N110	N	-0.633983	0.417869	0.896546
C111	C	-0.931946	-0.116665	0.896334
C112	C	-0.431946	0.383335	1.396334
N113	N	-1.010022	-0.100914	0.912088
N114	N	-0.510022	0.399086	1.412088
C115	C	-1.426223	-0.358653	0.409879
C116	C	-0.926223	0.141347	0.909879
N117	N	-1.474322	-0.404307	0.465006
N118	N	-0.974322	0.095693	0.965006
H119	H	-0.648671	-0.051963	0.961268
H120	H	-0.148671	0.448037	1.461268
C121	C	-0.833110	0.004416	1.017732
C122	C	-0.333110	0.504416	1.517732
N123	N	-0.872188	0.067936	1.081384
N124	N	-0.372188	0.567936	1.581384
H125	H	-0.562983	-0.325330	0.687258
H126	H	-0.062983	0.174670	1.187258
H127	H	-1.408884	-0.621743	0.912752
H128	H	-0.908884	-0.121743	1.412752
C129	C	-0.634889	-0.451844	0.560405
C130	C	-0.134889	0.048156	1.060405
N131	N	-0.595810	-0.515350	0.496741
N132	N	-0.095810	-0.015350	0.996741
C133	C	-0.974065	-0.450631	0.561558
C134	C	-0.474065	0.049369	1.061558
N135	N	-1.013062	-0.498400	0.513662
N136	N	-0.513062	0.001600	1.013662
C137	C	-0.776167	-0.490512	0.521621
C138	C	-0.276167	0.009488	1.021621
N139	N	-0.737074	-0.554022	0.457968
N140	N	-0.237074	-0.054022	0.957968
H141	H	-1.198988	-0.142965	0.149450
H142	H	-0.698988	0.357035	0.649450
C143	C	-1.426442	-0.358237	0.179500
C144	C	-0.926442	0.141763	0.679500
N145	N	-1.474625	-0.403733	0.143732
N146	N	-0.974625	0.096267	0.643732
H147	H	-1.408972	-0.820772	0.912823
H148	H	-0.908972	-0.320772	1.412823
