data_functionalizedCrystal
_audit_creation_method	'MofGen! by Chris Wilmer'
_symmetry_space_group_name_H-M	'P1'
_symmetry_Int_Tables_number	1
_symmetry_cell_setting	triclinic
loop_
_symmetry_equiv_pos_as_xyz
  x,y,z
_cell_length_a	18.215405
_cell_length_b	12.827893
_cell_length_c	18.215399
_cell_angle_alpha	89.982296
_cell_angle_beta	89.972459
_cell_angle_gamma	90.022702
loop_
_atom_site_label
_atom_site_type_symbol
_atom_site_fract_x
_atom_site_fract_y
_atom_site_fract_z
Zn1	Zn	-0.292992	1.597600	-0.416076
Zn2	Zn	-0.042992	1.847600	-0.166076
Zn3	Zn	0.207008	2.097600	0.083924
Zn4	Zn	0.457008	2.347600	0.333924
Zn5	Zn	-0.416064	1.597477	-0.293011
Zn6	Zn	-0.166064	1.847477	-0.043011
Zn7	Zn	0.083936	2.097477	0.206989
Zn8	Zn	0.333936	2.347477	0.456989
Zn9	Zn	-0.293015	1.422846	-0.293028
Zn10	Zn	-0.043015	1.672846	-0.043028
Zn11	Zn	0.206985	1.922846	0.206972
Zn12	Zn	0.456985	2.172846	0.456972
Zn13	Zn	-0.416022	1.422804	-0.416040
Zn14	Zn	-0.166022	1.672804	-0.166040
Zn15	Zn	0.083978	1.922804	0.083960
Zn16	Zn	0.333978	2.172804	0.333960
O17	O	-0.354523	1.510182	-0.354539
O18	O	-0.104523	1.760182	-0.104539
O19	O	0.145477	2.010182	0.145461
O20	O	0.395477	2.260182	0.395461
O21	O	-0.309326	1.743820	-0.399759
O22	O	-0.059326	1.993820	-0.149759
O23	O	0.190674	2.243820	0.100241
O24	O	0.440674	2.493820	0.350241
O25	O	-0.399768	1.574277	-0.190029
O26	O	-0.149768	1.824277	0.059971
O27	O	0.100232	2.074277	0.309971
O28	O	0.350232	2.324277	0.559971
O29	O	-0.190028	1.446097	-0.309373
O30	O	0.059972	1.696097	-0.059373
O31	O	0.309972	1.946097	0.190627
O32	O	0.559972	2.196097	0.440627
O33	O	-0.399746	1.743729	-0.309343
O34	O	-0.149746	1.993729	-0.059343
O35	O	0.100254	2.243729	0.190657
O36	O	0.350254	2.493729	0.440657
O37	O	-0.190011	1.574488	-0.399776
O38	O	0.059989	1.824488	-0.149776
O39	O	0.309989	2.074488	0.100224
O40	O	0.559989	2.324488	0.350224
O41	O	-0.309365	1.445977	-0.190041
O42	O	-0.059365	1.695977	0.059959
O43	O	0.190635	1.945977	0.309959
O44	O	0.440635	2.195977	0.559959
O45	O	-0.309325	1.276605	-0.309338
O46	O	-0.059325	1.526605	-0.059338
O47	O	0.190675	1.776605	0.190662
O48	O	0.440675	2.026605	0.440662
O49	O	-0.399674	1.446026	-0.519029
O50	O	-0.149674	1.696026	-0.269029
O51	O	0.100326	1.946026	-0.019029
O52	O	0.350326	2.196026	0.230971
O53	O	-0.399697	1.276574	-0.399715
O54	O	-0.149697	1.526574	-0.149715
O55	O	0.100303	1.776574	0.100285
O56	O	0.350303	2.026574	0.350285
O57	O	-0.309285	1.574447	-0.519056
O58	O	-0.059285	1.824447	-0.269056
O59	O	0.190715	2.074447	-0.019056
O60	O	0.440715	2.324447	0.230944
O61	O	-0.519042	1.574237	-0.309309
O62	O	-0.269042	1.824237	-0.059309
O63	O	-0.019042	2.074237	0.190691
O64	O	0.230958	2.324237	0.440691
O65	O	-0.519012	1.445906	-0.399698
O66	O	-0.269012	1.695906	-0.149698
O67	O	-0.019012	1.945906	0.100302
O68	O	0.230988	2.195906	0.350302
C69	C	-0.354509	1.238672	-0.354525
C70	C	-0.104509	1.488672	-0.104525
C71	C	0.145491	1.738672	0.145475
C72	C	0.395491	1.988672	0.395475
C73	C	-0.354521	1.122519	-0.354536
C74	C	-0.104521	1.372519	-0.104536
C75	C	0.145479	1.622519	0.145464
C76	C	0.395479	1.872519	0.395464
C77	C	-0.399310	1.070746	-0.399188
C78	C	-0.149310	1.320746	-0.149188
C79	C	0.100690	1.570746	0.100812
C80	C	0.350690	1.820746	0.350812
C81	C	-0.399323	0.950696	-0.399201
C82	C	-0.149323	1.200696	-0.149201
C83	C	0.100677	1.450696	0.100799
C84	C	0.350677	1.700696	0.350799
C85	C	-0.545730	1.510082	-0.354513
C86	C	-0.295730	1.760082	-0.104513
C87	C	-0.045730	2.010082	0.145487
C88	C	0.204270	2.260082	0.395487
C89	C	-0.627528	1.510134	-0.354527
C90	C	-0.377528	1.760134	-0.104527
C91	C	-0.127528	2.010134	0.145473
C92	C	0.122472	2.260134	0.395473
C93	C	-0.815653	1.577019	-0.401664
C94	C	-0.565653	1.827019	-0.151664
C95	C	-0.315653	2.077019	0.098336
C96	C	-0.065653	2.327019	0.348336
C97	C	-0.892511	1.577057	-0.401678
C98	C	-0.642511	1.827057	-0.151678
C99	C	-0.392511	2.077057	0.098322
C100	C	-0.142511	2.327057	0.348322
C101	C	-0.892642	1.443474	-0.307460
C102	C	-0.642642	1.693474	-0.057460
C103	C	-0.392642	1.943474	0.192540
C104	C	-0.142642	2.193474	0.442540
C105	C	-0.815785	1.443431	-0.307450
C106	C	-0.565785	1.693431	-0.057450
C107	C	-0.315785	1.943431	0.192550
C108	C	-0.065785	2.193431	0.442550
C109	C	-0.777292	1.510210	-0.354551
C110	C	-0.527292	1.760210	-0.104551
C111	C	-0.277292	2.010210	0.145449
C112	C	-0.027292	2.260210	0.395449
C113	C	-0.931008	1.510290	-0.354574
C114	C	-0.681008	1.760290	-0.104574
C115	C	-0.431008	2.010290	0.145426
C116	C	-0.181008	2.260290	0.395426
C117	C	-1.014342	1.510331	-0.354589
C118	C	-0.764342	1.760331	-0.104589
C119	C	-0.514342	2.010331	0.145411
C120	C	-0.264342	2.260331	0.395411
C121	C	-0.693953	1.510168	-0.354538
C122	C	-0.443953	1.760168	-0.104538
C123	C	-0.193953	2.010168	0.145462
C124	C	0.056047	2.260168	0.395462
C125	C	-0.162570	1.510311	-0.354580
C126	C	0.087430	1.760311	-0.104580
C127	C	0.337430	2.010311	0.145420
C128	C	0.587430	2.260311	0.395420
C129	C	-0.080771	1.510366	-0.354598
C130	C	0.169229	1.760366	-0.104598
C131	C	0.419229	2.010366	0.145402
C132	C	0.669229	2.260366	0.395402
C133	C	-0.354473	1.510246	-0.546492
C134	C	-0.104473	1.760246	-0.296492
C135	C	0.145527	2.010246	-0.046492
C136	C	0.395527	2.260246	0.203508
C137	C	-0.354451	1.510273	-0.628291
C138	C	-0.104451	1.760273	-0.378291
C139	C	0.145549	2.010273	-0.128291
C140	C	0.395549	2.260273	0.121709
C141	C	-0.354538	1.782752	-0.354553
C142	C	-0.104538	2.032752	-0.104553
C143	C	0.145462	2.282752	0.145447
C144	C	0.395462	2.532752	0.395447
C145	C	-0.354544	1.898905	-0.354559
C146	C	-0.104544	2.148905	-0.104559
C147	C	0.145456	2.398905	0.145441
C148	C	0.395456	2.648905	0.395441
C149	C	-0.307341	1.577166	-0.816500
C150	C	-0.057341	1.827166	-0.566500
C151	C	0.192659	2.077166	-0.316500
C152	C	0.442659	2.327166	-0.066500
C153	C	-0.307320	1.577178	-0.893358
C154	C	-0.057320	1.827178	-0.643358
C155	C	0.192680	2.077178	-0.393358
C156	C	0.442680	2.327178	-0.143358
C157	C	-0.401447	1.443453	-0.893320
C158	C	-0.151447	1.693453	-0.643320
C159	C	0.098553	1.943453	-0.393320
C160	C	0.348553	2.193453	-0.143320
C161	C	-0.401464	1.443436	-0.816462
C162	C	-0.151464	1.693436	-0.566462
C163	C	0.098536	1.943436	-0.316462
C164	C	0.348536	2.193436	-0.066462
C165	C	-0.354412	1.510299	-0.778054
C166	C	-0.104412	1.760299	-0.528054
C167	C	0.145588	2.010299	-0.278054
C168	C	0.395588	2.260299	-0.028054
C169	C	-0.354374	1.510328	-0.931771
C170	C	-0.104374	1.760328	-0.681771
C171	C	0.145626	2.010328	-0.431771
C172	C	0.395626	2.260328	-0.181771
C173	C	-0.354351	1.510341	-1.015104
C174	C	-0.104351	1.760341	-0.765104
C175	C	0.145649	2.010341	-0.515104
C176	C	0.395649	2.260341	-0.265104
C177	C	-0.354434	1.510284	-0.694715
C178	C	-0.104434	1.760284	-0.444715
C179	C	0.145566	2.010284	-0.194715
C180	C	0.395566	2.260284	0.055285
C181	C	-0.354521	1.510179	-0.163333
C182	C	-0.104521	1.760179	0.086667
C183	C	0.145479	2.010179	0.336667
C184	C	0.395479	2.260179	0.586667
C185	C	-0.354335	1.510354	-0.081534
C186	C	-0.104335	1.760354	0.168466
C187	C	0.145665	2.010354	0.418466
C188	C	0.395665	2.260354	0.668466
H189	H	-0.316182	1.077966	-0.316320
H190	H	-0.066182	1.327966	-0.066320
H191	H	0.183818	1.577966	0.183680
H192	H	0.433818	1.827966	0.433680
H193	H	-0.923741	1.631458	-0.440043
H194	H	-0.673741	1.881458	-0.190043
H195	H	-0.423741	2.131458	0.059957
H196	H	-0.173741	2.381458	0.309957
Br197	Br	-0.944887	1.352846	-0.243542
Br198	Br	-0.694887	1.602846	0.006458
Br199	Br	-0.444887	1.852846	0.256458
Br200	Br	-0.194887	2.102846	0.506458
Br201	Br	-0.763414	1.667645	-0.465587
Br202	Br	-0.513414	1.917645	-0.215587
Br203	Br	-0.263414	2.167645	0.034413
Br204	Br	-0.013414	2.417645	0.284413
Br205	Br	-0.463211	1.144992	-0.462891
Br206	Br	-0.213211	1.394992	-0.212891
Br207	Br	0.036789	1.644992	0.037109
Br208	Br	0.286789	1.894992	0.287109
H209	H	-0.316200	0.943421	-0.316327
H210	H	-0.066200	1.193421	-0.066327
H211	H	0.183800	1.443421	0.183673
H212	H	0.433800	1.693421	0.433673
Br213	Br	-0.763719	1.352743	-0.243515
Br214	Br	-0.513719	1.602743	0.006485
Br215	Br	-0.263719	1.852743	0.256485
Br216	Br	-0.013719	2.102743	0.506485
H217	H	-0.268989	1.631627	-0.924657
H218	H	-0.018989	1.881627	-0.674657
H219	H	0.231011	2.131627	-0.424657
H220	H	0.481011	2.381627	-0.174657
Br221	Br	-0.465302	1.352720	-0.945449
Br222	Br	-0.215302	1.602720	-0.695449
Br223	Br	0.034698	1.852720	-0.445449
Br224	Br	0.284698	2.102720	-0.195449
H225	H	-0.269027	1.631606	-0.785230
H226	H	-0.019027	1.881606	-0.535230
H227	H	0.230973	2.131606	-0.285230
H228	H	0.480973	2.381606	-0.035230
H229	H	-0.439794	1.388978	-0.785159
H230	H	-0.189794	1.638978	-0.535159
H231	H	0.060206	1.888978	-0.285159
H232	H	0.310206	2.138978	-0.035159
H233	H	-0.437670	0.906173	-0.437428
H234	H	-0.187670	1.156173	-0.187428
H235	H	0.062330	1.406173	0.062572
H236	H	0.312330	1.656173	0.312572
