data_functionalizedCrystal
_audit_creation_method	'MofGen! by Chris Wilmer'
_symmetry_space_group_name_H-M	'P1'
_symmetry_Int_Tables_number	1
_symmetry_cell_setting	triclinic
loop_
_symmetry_equiv_pos_as_xyz
  x,y,z
_cell_length_a	17.638686
_cell_length_b	17.640280
_cell_length_c	12.759393
_cell_angle_alpha	78.768122
_cell_angle_beta	78.783988
_cell_angle_gamma	65.687361
loop_
_atom_site_label
_atom_site_type_symbol
_atom_site_fract_x
_atom_site_fract_y
_atom_site_fract_z
Zn1	Zn	1.326461	-0.583188	-0.793319
Zn2	Zn	1.354252	-0.721012	-0.588094
Zn3	Zn	1.188633	-0.555324	-0.588158
Zn4	Zn	1.216476	-0.693056	-0.734274
O5	O	1.271455	-0.638145	-0.675961
O6	O	1.445488	-0.624832	-0.790779
O7	O	1.332260	-0.699071	-0.441065
O8	O	1.183633	-0.443699	-0.640110
O9	O	1.465906	-0.726091	-0.640001
O10	O	1.284894	-0.464171	-0.790841
O11	O	1.210580	-0.577341	-0.441112
O12	O	1.076985	-0.550233	-0.582857
O13	O	1.231088	-0.678443	-0.889143
O14	O	1.097441	-0.651424	-0.690207
O15	O	1.311893	-0.597724	-0.932523
O16	O	1.359258	-0.832625	-0.582747
O17	O	1.258035	-0.812085	-0.690145
C18	C	1.057307	-0.594772	-0.630132
C19	C	0.965697	-0.576236	-0.610547
C20	C	0.717855	-0.779136	-0.824972
C21	C	0.631772	-0.761712	-0.806544
C22	C	0.610404	-0.656178	-0.695003
C23	C	0.696487	-0.673596	-0.713417
C24	C	0.750206	-0.735075	-0.778404
C25	C	0.728839	-0.629535	-0.666849
C26	C	0.814914	-0.646949	-0.685267
C27	C	0.868638	-0.708423	-0.750253
C28	C	0.836281	-0.752489	-0.796821
C29	C	0.675118	-0.568052	-0.601869
C30	C	0.707469	-0.523991	-0.555301
C31	C	0.793547	-0.541409	-0.573712
C32	C	0.847270	-0.602883	-0.638698
C33	C	0.825903	-0.497343	-0.527143
C34	C	0.911978	-0.514757	-0.545561
C35	C	0.933345	-0.620297	-0.657116
C36	C	1.314706	-0.852261	-0.630060
C37	C	1.333285	-0.943876	-0.610475
C38	C	1.130655	-1.191810	-0.825203
C39	C	1.148114	-1.277896	-0.806767
C40	C	1.253583	-1.299232	-0.695083
C41	C	1.236136	-1.213146	-0.713515
C42	C	1.174670	-1.159441	-0.778575
C43	C	1.280151	-1.180777	-0.666886
C44	C	1.262702	-1.094698	-0.685312
C45	C	1.201238	-1.040988	-0.750366
C46	C	1.157221	-1.073362	-0.797000
C47	C	1.341612	-1.234482	-0.601820
C48	C	1.385628	-1.202114	-0.555192
C49	C	1.368183	-1.116034	-0.573623
C50	C	1.306718	-1.062324	-0.638678
C51	C	1.412199	-1.083660	-0.526989
C52	C	1.394750	-0.997581	-0.545415
C53	C	1.289269	-0.976245	-0.657103
C54	C	1.486440	-0.681688	-0.721969
C55	C	1.578054	-0.700244	-0.741575
C56	C	1.271496	-0.638073	-0.950025
C57	C	1.271513	-0.638043	-1.066814
C58	C	1.228058	-0.423197	-0.722069
C59	C	1.209564	-0.331600	-0.741717
C60	C	1.313595	-0.596009	-1.144269
C61	C	1.313609	-0.595983	-1.254003
C62	C	1.229458	-0.680032	-1.208818
C63	C	1.229440	-0.680052	-1.099085
C64	C	1.355668	-0.554000	-1.111998
C65	C	1.397754	-0.511963	-1.189454
C66	C	1.397768	-0.511937	-1.299189
C67	C	1.355696	-0.553948	-1.331467
C68	C	1.271450	-0.638166	-0.402986
C69	C	1.271545	-0.637997	-0.286281
H70	H	0.566655	-0.606119	-0.642094
H71	H	0.605436	-0.797593	-0.844475
Br72	Br	0.558299	-0.544413	-0.576881
Br73	Br	1.047247	-1.118918	-0.913516
Br74	Br	1.205861	-0.903354	-0.745416
Br75	Br	1.454884	-0.454890	-1.404305
Br76	Br	1.454474	-0.953644	-0.482117
H77	H	1.355664	-0.554018	-1.022649
Br78	Br	0.909196	-0.835937	-0.885002
H79	H	1.432002	-0.477753	-1.163165
Br80	Br	0.634558	-0.440553	-0.467116
H81	H	1.107176	-1.029634	-0.849988
H82	H	0.761597	-0.829203	-0.877884
Br83	Br	1.355698	-0.553895	-1.480395
H84	H	1.355819	-1.304573	-0.586824
Br85	Br	1.006260	-0.703745	-0.745296
H86	H	1.435670	-1.245851	-0.502216
H87	H	1.195205	-0.714235	-1.235108
H88	H	1.112277	-1.304248	-0.844757
Br89	Br	0.955889	-0.454958	-0.482364
Br90	Br	1.336998	-1.372123	-0.606792
Br91	Br	1.495606	-1.156552	-0.438686
Br92	Br	1.172324	-0.737095	-0.993961
H93	H	0.782152	-0.447282	-0.474240
H94	H	0.938724	-0.722596	-0.765253
H95	H	1.187026	-0.970896	-0.765358
