data_functionalizedCrystal
_audit_creation_method	'MofGen! by Chris Wilmer'
_symmetry_space_group_name_H-M	'P1'
_symmetry_Int_Tables_number	1
_symmetry_cell_setting	triclinic
loop_
_symmetry_equiv_pos_as_xyz
  x,y,z
_cell_length_a	12.837932
_cell_length_b	12.811415
_cell_length_c	14.586319
_cell_angle_alpha	84.565349
_cell_angle_beta	89.996731
_cell_angle_gamma	89.412215
loop_
_atom_site_label
_atom_site_type_symbol
_atom_site_fract_x
_atom_site_fract_y
_atom_site_fract_z
O1	O	1.376631	0.272985	-0.098935
O2	O	1.876631	0.772985	0.401065
O3	O	1.074767	0.259499	-0.097816
O4	O	1.574767	0.759499	0.402184
O5	O	1.233294	0.114209	-0.085731
O6	O	1.733294	0.614209	0.414269
O7	O	1.218105	0.418275	-0.111020
O8	O	1.718105	0.918275	0.388980
O9	O	1.233282	0.114206	0.066750
O10	O	1.733282	0.614206	0.566750
O11	O	1.074756	0.259495	0.054665
O12	O	1.574756	0.759495	0.554665
O13	O	1.376620	0.272982	0.053546
O14	O	1.876620	0.772982	0.553546
Cu15	Cu	1.225687	0.266238	0.068028
Cu16	Cu	1.725687	0.766238	0.568028
Cu17	Cu	1.225700	0.266242	-0.112298
Cu18	Cu	1.725700	0.766242	0.387702
O19	O	1.218094	0.418271	0.041461
O20	O	1.718094	0.918271	0.541461
C21	C	1.036122	0.254941	-0.021197
C22	C	1.536122	0.754941	0.478803
C23	C	0.920986	0.241354	-0.020067
C24	C	1.420986	0.741354	0.479933
C25	C	0.770653	0.127793	-0.010621
C26	C	1.270653	0.627793	0.489379
C27	C	0.878834	0.140553	-0.011683
C28	C	1.378834	0.640553	0.488317
C29	C	0.854948	0.329403	-0.027389
C30	C	1.354948	0.829403	0.472611
C31	C	0.746767	0.316644	-0.026327
C32	C	1.246767	0.816644	0.473673
C33	C	0.704623	0.215836	-0.017944
C34	C	1.204623	0.715836	0.482056
C35	C	0.596440	0.203077	-0.016890
C36	C	1.096440	0.703077	0.483110
C37	C	0.572556	0.391927	-0.032589
C38	C	1.072556	0.891927	0.467411
C39	C	0.680737	0.404686	-0.033650
C40	C	1.180737	0.904686	0.466350
C41	C	1.232437	0.075018	-0.006233
C42	C	1.732437	0.575018	0.493767
C43	C	1.229888	-0.041755	0.003473
C44	C	1.729888	0.458245	0.503473
C45	C	1.225092	-0.261171	-0.144543
C46	C	1.725092	0.238829	0.355457
C47	C	1.222697	-0.370890	-0.135428
C48	C	1.722697	0.129110	0.364572
C49	C	1.222696	-0.370913	0.030817
C50	C	1.722696	0.129087	0.530817
C51	C	1.225090	-0.261194	0.021702
C52	C	1.725090	0.238806	0.521702
C53	C	1.226290	-0.206327	-0.065981
C54	C	1.726290	0.293673	0.434019
C55	C	1.228692	-0.096607	-0.075095
C56	C	1.728692	0.403393	0.424905
C57	C	1.228684	-0.096632	0.091149
C58	C	1.728684	0.403368	0.591149
C59	C	1.226289	-0.206351	0.100264
C60	C	1.726289	0.293649	0.600264
C61	C	1.415266	0.277539	-0.023075
C62	C	1.915266	0.777539	0.476925
C63	C	1.530402	0.291126	-0.024211
C64	C	2.030402	0.791126	0.475789
C65	C	1.218951	0.457462	-0.038039
C66	C	1.718951	0.957462	0.461961
C67	C	1.221500	0.574235	-0.047751
C68	C	1.721500	1.074235	0.452249
N69	N	1.225686	0.266235	0.194860
N70	N	1.725686	0.766235	0.694860
N71	N	1.225710	0.266237	-0.239130
N72	N	1.725710	0.766237	0.260870
C73	C	1.295905	0.201927	0.435215
C74	C	1.795905	0.701927	0.935215
C75	C	1.295908	0.201925	0.531197
C76	C	1.795908	0.701925	1.031197
C77	C	1.155484	0.330548	0.520508
C78	C	1.655484	0.830548	1.020508
C79	C	1.155477	0.330544	0.424529
C80	C	1.655477	0.830544	0.924529
C81	C	1.225693	0.266235	0.381885
C82	C	1.725693	0.766235	0.881885
C83	C	1.225703	0.266237	0.573846
C84	C	1.725703	0.766237	1.073846
C85	C	1.225706	0.266235	0.677913
C86	C	1.725706	0.766235	1.177913
C87	C	1.225689	0.266236	0.277811
C88	C	1.725689	0.766236	0.777811
H89	H	0.736340	0.045711	-0.003805
H90	H	1.236340	0.545711	0.496195
O91	O	1.229984	-0.037424	-0.169663
O92	O	1.729984	0.462576	0.330337
H93	H	1.160479	0.014862	-0.177972
H94	H	1.660479	0.514862	0.322028
H95	H	1.221710	-0.415605	0.102204
H96	H	1.721710	0.084395	0.602204
H97	H	1.229664	-0.051967	0.155120
H98	H	1.729664	0.448033	0.655120
H99	H	1.353079	0.149558	0.574617
H100	H	1.853079	0.649558	1.074617
O101	O	1.079745	0.399902	0.366992
O102	O	1.579745	0.899902	0.866992
H103	H	1.093312	0.483095	0.378474
H104	H	1.593312	0.983095	0.878474
O105	O	0.950057	0.045595	-0.003786
O106	O	1.450057	0.545595	0.496214
H107	H	0.902573	-0.026642	0.002215
H108	H	1.402573	0.473358	0.502215
H109	H	1.353077	0.149562	0.400497
H110	H	1.853077	0.649562	0.900497
O111	O	0.900409	0.438126	-0.036420
O112	O	1.400409	0.938126	0.463580
H113	H	0.986728	0.432201	-0.035928
H114	H	1.486728	0.932201	0.464072
O115	O	0.726192	0.513412	-0.042694
O116	O	1.226192	1.013412	0.457306
H117	H	0.812511	0.507495	-0.042207
H118	H	1.312511	1.007495	0.457793
O119	O	1.079764	0.399921	0.566500
O120	O	1.579764	0.899921	1.066500
H121	H	1.091572	0.389132	0.642200
H122	H	1.591572	0.889132	1.142200
H123	H	0.562129	0.120994	-0.010068
H124	H	1.062129	0.620994	0.489932
H125	H	1.226077	-0.216497	-0.215938
H126	H	1.726077	0.283503	0.284062
O127	O	0.501340	0.486898	-0.040483
O128	O	1.001340	0.986898	0.459517
H129	H	0.419033	0.461094	-0.038332
H130	H	0.919033	0.961094	0.461668
H131	H	1.221717	-0.415539	-0.199401
H132	H	1.721717	0.084461	0.300599
O133	O	1.225018	-0.265530	0.194834
O134	O	1.725018	0.234470	0.694834
H135	H	1.223165	-0.351039	0.187976
H136	H	1.723165	0.148961	0.687976
