data_functionalizedCrystal
_audit_creation_method	'MofGen! by Chris Wilmer'
_symmetry_space_group_name_H-M	'P1'
_symmetry_Int_Tables_number	1
_symmetry_cell_setting	triclinic
loop_
_symmetry_equiv_pos_as_xyz
  x,y,z
_cell_length_a	14.519709
_cell_length_b	10.489741
_cell_length_c	13.596369
_cell_angle_alpha	89.994306
_cell_angle_beta	90.000291
_cell_angle_gamma	84.109659
loop_
_atom_site_label
_atom_site_type_symbol
_atom_site_fract_x
_atom_site_fract_y
_atom_site_fract_z
O1	O	1.224779	0.167203	-0.081663
O2	O	0.956410	0.186894	-0.081693
O3	O	1.096701	-0.008613	-0.081671
O4	O	1.084488	0.362710	-0.081684
O5	O	1.096687	-0.008623	0.081912
O6	O	0.956396	0.186883	0.081890
O7	O	1.224765	0.167193	0.081920
Zn8	Zn	1.090578	0.177037	0.107878
Zn9	Zn	1.090597	0.177050	-0.107650
O10	O	1.084474	0.362700	0.081899
C11	C	0.922038	0.185971	0.000095
C12	C	0.819642	0.183221	0.000084
C13	C	0.444691	0.173098	0.000129
C14	C	0.549014	0.175909	0.000116
C15	C	0.632163	0.178159	0.000105
C16	C	0.736493	0.180971	0.000094
C17	C	1.095772	-0.056140	0.000120
C18	C	1.093012	-0.197741	0.000118
C19	C	1.003749	-0.264951	0.000100
C20	C	1.045909	-0.357518	0.080760
C21	C	1.045944	-0.357482	-0.080520
C22	C	1.135209	-0.288443	0.080844
C23	C	1.135232	-0.288398	-0.080509
C24	C	1.177457	-0.380938	0.000171
C25	C	1.259137	0.168116	0.000130
C26	C	1.361533	0.170866	0.000135
C27	C	1.085403	0.410227	0.000106
C28	C	1.088163	0.551828	0.000101
N29	N	1.090572	0.177026	0.254969
N30	N	1.090610	0.177050	-0.254742
C31	C	1.090596	0.177052	0.656260
C32	C	1.090586	0.177049	0.544609
C33	C	1.090584	0.177040	0.455618
C34	C	1.090574	0.177035	0.343960
H35	H	0.930357	-0.214534	0.000173
O36	O	1.000759	-0.394198	0.161998
C37	C	0.872330	-0.497571	0.225204
C38	C	0.923392	-0.456139	0.133125
H39	H	0.809757	-0.547635	0.201893
H40	H	0.921136	-0.566194	0.270789
H41	H	0.848260	-0.409464	0.271105
H42	H	0.947466	-0.544169	0.087148
H43	H	0.874552	-0.387472	0.087615
O44	O	1.180137	-0.251637	-0.161878
C45	C	1.171044	-0.123607	-0.309387
C46	C	1.120098	-0.165113	-0.217254
H47	H	1.122518	-0.053666	-0.354195
H48	H	1.234334	-0.075027	-0.286200
H49	H	1.193983	-0.211485	-0.356011
H50	H	1.097097	-0.077301	-0.170589
H51	H	1.056850	-0.213738	-0.240510
H52	H	1.172940	-0.258009	0.149112
H53	H	1.250914	-0.431128	0.000224
O54	O	1.000758	-0.393792	-0.161846
C55	C	0.858083	-0.375527	-0.253705
C56	C	0.909160	-0.334287	-0.161582
H57	H	0.784012	-0.327457	-0.253512
H58	H	0.895360	-0.345692	-0.322468
H59	H	0.857053	-0.484049	-0.253301
H60	H	0.910205	-0.225771	-0.161890
H61	H	0.871867	-0.364216	-0.092859
