data_functionalizedCrystal
_audit_creation_method	'MofGen! by Chris Wilmer'
_symmetry_space_group_name_H-M	'P1'
_symmetry_Int_Tables_number	1
_symmetry_cell_setting	triclinic
loop_
_symmetry_equiv_pos_as_xyz
  x,y,z
_cell_length_a	11.792254
_cell_length_b	10.654550
_cell_length_c	9.130313
_cell_angle_alpha	89.999890
_cell_angle_beta	90.001450
_cell_angle_gamma	95.658250
loop_
_atom_site_label
_atom_site_type_symbol
_atom_site_fract_x
_atom_site_fract_y
_atom_site_fract_z
O1	O	-1.507292	0.172206	-0.121837
O2	O	-1.176993	0.189929	-0.121830
O3	O	-1.349737	-0.001693	-0.121828
O4	O	-1.334548	0.363828	-0.121839
O5	O	-1.349735	-0.001688	0.121771
O6	O	-1.176991	0.189934	0.121769
O7	O	-1.507289	0.172211	0.121762
Cu8	Cu	-1.342140	0.181073	0.144008
Cu9	Cu	-1.342143	0.181067	-0.144076
O10	O	-1.334546	0.363833	0.121760
C11	C	-1.134699	0.188815	-0.000030
C12	C	-1.008678	0.185474	-0.000027
C13	C	-1.348620	-0.048485	-0.000030
C14	C	-1.345284	-0.187919	-0.000036
C15	C	-0.906335	0.182758	-0.000031
C16	C	-0.777941	0.179363	-0.000028
C17	C	-1.446992	-0.267687	-0.000033
C18	C	-1.443850	-0.398700	-0.000043
C19	C	-1.237283	-0.370162	-0.000052
C20	C	-1.240426	-0.239153	-0.000052
C21	C	-1.551850	-0.216454	-0.000016
C22	C	-1.653567	-0.296224	-0.000012
C23	C	-1.650425	-0.427236	-0.000022
C24	C	-1.545567	-0.478478	-0.000036
C25	C	-0.549584	0.173325	-0.000034
C26	C	-0.675604	0.176666	-0.000025
C27	C	-1.335662	0.410625	-0.000041
C28	C	-1.338999	0.550059	-0.000045
N29	N	-1.342147	0.181077	0.346631
N30	N	-1.342145	0.181054	-0.346699
C31	C	-1.418657	0.096255	0.423283
C32	C	-1.418654	0.096240	0.576620
C33	C	-1.265626	0.265879	0.576638
C34	C	-1.265625	0.265887	0.423304
C35	C	-1.495179	0.011445	0.346610
C36	C	-1.571697	-0.073382	0.423263
C37	C	-1.571694	-0.073397	0.576600
C38	C	-1.495173	0.011415	0.653284
H39	H	-1.554420	-0.109779	-0.000003
C40	C	-1.495187	0.011451	0.177937
N41	N	-1.495192	0.011457	0.050892
H42	H	-1.633989	-0.142475	0.639009
C43	C	-1.768906	-0.239854	0.000002
N44	N	-1.855781	-0.197397	0.000015
H45	H	-1.495169	0.011387	0.778141
C46	C	-1.181461	0.359167	0.660996
N47	N	-1.118068	0.429435	0.724535
C48	C	-1.121946	-0.426535	-0.000045
N49	N	-1.035072	-0.468995	-0.000029
C50	C	-1.542117	-0.622597	-0.000056
N51	N	-1.539520	-0.731146	-0.000064
C52	C	-1.181434	0.359167	0.338981
N53	N	-1.118008	0.429415	0.275469
H54	H	-1.157606	-0.174203	-0.000052
H55	H	-1.633991	-0.142441	0.360819
H56	H	-1.733248	-0.492181	-0.000034
