data_functionalizedCrystal
_audit_creation_method	'MofGen! by Chris Wilmer'
_symmetry_space_group_name_H-M	'P1'
_symmetry_Int_Tables_number	1
_symmetry_cell_setting	triclinic
loop_
_symmetry_equiv_pos_as_xyz
  x,y,z
_cell_length_a	14.971482
_cell_length_b	9.065215
_cell_length_c	13.448316
_cell_angle_alpha	89.994392
_cell_angle_beta	89.993798
_cell_angle_gamma	84.313653
loop_
_atom_site_label
_atom_site_type_symbol
_atom_site_fract_x
_atom_site_fract_y
_atom_site_fract_z
O1	O	1.188381	0.192236	-0.082677
O2	O	1.688381	0.692236	0.417323
O3	O	0.928152	0.215265	-0.082681
O4	O	1.428152	0.715265	0.417319
O5	O	1.063647	-0.011002	-0.082675
O6	O	1.563647	0.488998	0.417325
O7	O	1.052886	0.418502	-0.082684
O8	O	1.552886	0.918502	0.417316
O9	O	1.063629	-0.011016	0.082709
O10	O	1.563629	0.488984	0.582709
O11	O	0.928134	0.215251	0.082702
O12	O	1.428134	0.715251	0.582702
O13	O	1.188364	0.192222	0.082707
O14	O	1.688364	0.692222	0.582707
Cu15	Cu	1.058247	0.203735	0.097805
Cu16	Cu	1.558247	0.703735	0.597805
Cu17	Cu	1.058268	0.203752	-0.097780
Cu18	Cu	1.558268	0.703752	0.402220
O19	O	1.052869	0.418488	0.082700
O20	O	1.552869	0.918488	0.582700
C21	C	0.894811	0.214229	0.000010
C22	C	1.394811	0.714229	0.500010
C23	C	0.795491	0.211146	0.000008
C24	C	1.295491	0.711146	0.500008
C25	C	0.748826	0.209686	0.090160
C26	C	1.248826	0.709686	0.590160
C27	C	0.655505	0.206765	0.090161
C28	C	1.155505	0.706765	0.590161
C29	C	0.608851	0.205315	0.000009
C30	C	1.108851	0.705315	0.500009
C31	C	0.655523	0.206770	-0.090149
C32	C	1.155523	0.706770	0.409851
C33	C	0.748842	0.209680	-0.090150
C34	C	1.248842	0.709680	0.409850
C35	C	0.461016	0.200708	-0.090143
C36	C	0.961016	0.700708	0.409857
C37	C	0.367690	0.197801	-0.090143
C38	C	0.867690	0.697801	0.409857
C39	C	0.367679	0.197793	0.090168
C40	C	0.867679	0.697793	0.590168
C41	C	0.460998	0.200703	0.090168
C42	C	0.960998	0.700703	0.590168
C43	C	0.507663	0.202161	0.000008
C44	C	1.007663	0.702161	0.500008
C45	C	1.062604	-0.065974	0.000016
C46	C	1.562604	0.434026	0.500016
C47	C	1.059514	-0.229755	0.000013
C48	C	1.559514	0.270245	0.500013
C49	C	1.221705	0.193257	0.000013
C50	C	1.721705	0.693257	0.500013
C51	C	1.321025	0.196341	0.000009
C52	C	1.821025	0.696341	0.500009
C53	C	1.053911	0.473461	0.000007
C54	C	1.553911	0.973461	0.500007
C55	C	1.057001	0.637241	0.000004
C56	C	1.557001	1.137241	0.500004
N57	N	1.058240	0.203723	0.235370
N58	N	1.558240	0.703723	0.735370
N59	N	1.058283	0.203752	-0.235344
N60	N	1.558283	0.703752	0.264656
C61	C	1.118256	0.103573	0.287413
C62	C	1.618256	0.603573	0.787413
C63	C	1.118261	0.103572	0.391516
C64	C	1.618261	0.603572	0.891516
C65	C	1.058254	0.203728	0.443574
C66	C	1.558254	0.703728	0.943574
C67	C	0.998232	0.303883	0.391524
C68	C	1.498232	0.803883	0.891524
C69	C	0.998222	0.303876	0.287422
C70	C	1.498222	0.803876	0.787422
C71	C	0.998257	0.303893	0.608504
C72	C	1.498257	0.803893	1.108504
C73	C	0.998267	0.303902	0.712612
C74	C	1.498267	0.803902	1.212612
C75	C	1.118296	0.103589	0.712598
C76	C	1.618296	0.603589	1.212598
C77	C	1.118286	0.103582	0.608496
C78	C	1.618286	0.603582	1.108496
C79	C	1.058264	0.203738	0.556453
C80	C	1.558264	0.703738	1.056453
H81	H	0.498981	0.201893	0.163577
H82	H	0.998981	0.701893	0.663577
H83	H	1.167124	0.022020	0.245034
H84	H	1.667124	0.522020	0.745034
C85	C	0.800177	0.211289	-0.189314
C86	C	1.300177	0.711289	0.310686
H87	H	0.862437	0.213215	-0.176403
H88	H	1.362437	0.713215	0.323597
H89	H	0.778761	0.296779	-0.226362
H90	H	1.278761	0.796779	0.273638
H91	H	0.791015	0.124836	-0.226350
H92	H	1.291015	0.624836	0.273650
H93	H	1.167130	0.022022	0.433890
H94	H	1.667130	0.522022	0.933890
C95	C	0.316369	0.196239	-0.189307
C96	C	0.816369	0.696239	0.310693
H97	H	0.357525	0.197517	-0.243003
H98	H	0.857525	0.697517	0.256997
H99	H	0.273846	0.281085	-0.193042
H100	H	0.773846	0.781085	0.306958
H101	H	0.286084	0.109141	-0.193061
H102	H	0.786084	0.609141	0.306939
H103	H	0.499008	0.201896	-0.163560
H104	H	0.999008	0.701896	0.336440
H105	H	0.617530	0.205579	-0.163553
H106	H	1.117530	0.705579	0.336447
H107	H	0.329680	0.196606	0.163579
H108	H	0.829680	0.696606	0.663579
H109	H	1.167153	0.022034	0.566111
H110	H	1.667153	0.522034	1.066111
H111	H	0.949402	0.385458	0.754993
H112	H	1.449402	0.885458	1.254993
C113	C	1.184311	-0.006593	0.769841
C114	C	1.684311	0.493407	1.269841
H115	H	1.175716	0.007739	0.839295
H116	H	1.675716	0.507739	1.339295
H117	H	1.244133	0.009589	0.752768
H118	H	1.744133	0.509589	1.252768
H119	H	1.173796	-0.105087	0.752787
H120	H	1.673796	0.394913	1.252787
H121	H	0.949377	0.385446	0.566134
H122	H	1.449377	0.885446	1.066134
C123	C	0.932208	0.414046	0.230175
C124	C	1.432208	0.914046	0.730175
H125	H	0.896477	0.473707	0.276086
H126	H	1.396477	0.973707	0.776086
H127	H	0.894545	0.360872	0.189578
H128	H	1.394545	0.860872	0.689578
H129	H	0.964881	0.475550	0.189552
H130	H	1.464881	0.975550	0.689552
C131	C	0.800139	0.211254	0.189328
C132	C	1.300139	0.711254	0.689328
H133	H	0.758980	0.209945	0.243019
H134	H	1.258980	0.709945	0.743019
H135	H	0.830421	0.298346	0.193089
H136	H	1.330421	0.798346	0.693089
H137	H	0.842665	0.126403	0.193065
H138	H	1.342665	0.626403	0.693065
C139	C	0.604177	0.205171	0.189328
C140	C	1.104177	0.705171	0.689328
H141	H	0.645326	0.206472	0.243018
H142	H	1.145326	0.706472	0.743018
H143	H	0.573901	0.118070	0.193086
H144	H	1.073901	0.618070	0.693086
H145	H	0.561644	0.290013	0.193068
H146	H	1.061644	0.790013	0.693068
C147	C	0.932196	0.414012	0.448780
C148	C	1.432196	0.914012	0.948780
H149	H	0.896438	0.473634	0.402872
H150	H	1.396438	0.973634	0.902872
H151	H	0.964842	0.475536	0.489392
H152	H	1.464842	0.975536	0.989392
H153	H	0.894548	0.360788	0.489388
H154	H	1.394548	0.860788	0.989388
