data_functionalizedCrystal
_audit_creation_method	'MofGen! by Chris Wilmer'
_symmetry_space_group_name_H-M	'P1'
_symmetry_Int_Tables_number	1
_symmetry_cell_setting	triclinic
loop_
_symmetry_equiv_pos_as_xyz
  x,y,z
_cell_length_a	23.532407
_cell_length_b	10.540539
_cell_length_c	9.616153
_cell_angle_alpha	90.000094
_cell_angle_beta	89.990695
_cell_angle_gamma	96.312916
loop_
_atom_site_label
_atom_site_type_symbol
_atom_site_fract_x
_atom_site_fract_y
_atom_site_fract_z
O1	O	0.756279	-0.154076	-0.115718
O2	O	0.590563	-0.176370	-0.115703
O3	O	0.677202	0.019607	-0.115709
O4	O	0.669641	-0.350054	-0.115712
O5	O	0.677190	0.019603	0.115583
O6	O	0.590551	-0.176375	0.115589
O7	O	0.756268	-0.154081	0.115574
Zn8	Zn	0.673408	-0.165228	0.152304
Zn9	Zn	0.673423	-0.165223	-0.152433
O10	O	0.669629	-0.350058	0.115580
C11	C	0.569338	-0.175805	-0.000055
C12	C	0.506109	-0.174098	-0.000049
C13	C	0.676629	0.066889	-0.000066
C14	C	0.674933	0.207782	-0.000073
C15	C	0.777493	-0.154646	-0.000077
C16	C	0.840722	-0.156353	-0.000092
C17	C	1.239129	-0.051083	-0.000043
C18	C	1.298540	-0.052669	-0.000037
O19	O	1.334640	0.044917	0.000014
N20	N	1.321936	-0.169178	-0.000042
C21	C	1.285917	-0.284108	-0.000039
O22	O	1.311273	-0.383354	-0.000041
C23	C	1.226508	-0.282521	-0.000035
C24	C	1.203116	-0.166005	-0.000044
C25	C	1.215737	0.065423	-0.000050
C26	C	1.156330	0.067009	-0.000059
C27	C	1.120316	-0.047913	-0.000060
C28	C	1.143709	-0.164420	-0.000053
C29	C	1.190491	-0.397450	-0.000022
C30	C	1.131077	-0.395853	-0.000017
C31	C	1.107685	-0.279337	-0.000026
C32	C	1.048288	-0.277757	-0.000063
N33	N	1.024893	-0.161248	-0.000058
C34	C	1.060907	-0.046326	-0.000057
C35	C	1.410682	-0.287432	-0.000044
C36	C	1.470090	-0.289020	-0.000058
C37	C	1.482709	-0.057581	-0.000053
C38	C	1.423299	-0.055994	-0.000049
C39	C	1.387286	-0.170923	-0.000039
C40	C	0.936148	-0.043006	-0.000076
C41	C	0.876735	-0.041431	-0.000091
C42	C	0.864122	-0.272870	-0.000088
C43	C	0.923529	-0.274446	-0.000081
C44	C	0.959541	-0.159503	-0.000070
O45	O	1.012154	-0.375291	-0.000107
O46	O	1.035543	0.052903	-0.000036
C47	C	0.670202	-0.397340	-0.000066
C48	C	0.671898	-0.538233	-0.000068
N49	N	0.673401	-0.165231	0.360278
C50	C	0.609924	0.389075	-0.000586
C51	C	0.611644	0.242514	-0.000066
C52	C	0.705383	0.270437	0.132003
C53	C	0.703223	0.416910	0.132115
C54	C	0.704524	0.417476	-0.130907
C55	C	0.705107	0.270513	-0.132653
N56	N	0.673434	-0.165209	-0.360407
C57	C	0.626913	-0.269724	0.580652
C58	C	0.627016	-0.270107	0.419484
C59	C	0.732940	-0.193411	0.418722
C60	C	0.732687	-0.194148	0.579940
C61	C	0.660943	-0.032202	0.580192
C62	C	0.659576	-0.033111	0.418966
H63	H	0.857693	0.053454	-0.000102
H64	H	0.750237	0.466202	-0.131800
H65	H	0.744109	-0.289282	0.378329
H66	H	0.751861	0.249608	0.136910
H67	H	0.684221	0.227141	0.230294
H68	H	0.582777	-0.253428	0.379973
H69	H	0.751250	0.247806	-0.140633
H70	H	0.634839	-0.367888	0.621148
H71	H	0.635045	-0.368828	0.380903
H72	H	0.743612	-0.291127	0.617526
H73	H	0.768403	-0.119284	0.380367
H74	H	0.684046	0.448358	-0.231012
H75	H	1.245054	0.159012	-0.000045
H76	H	0.582536	-0.253328	0.619467
H77	H	1.137290	0.161888	-0.000061
H78	H	0.680709	0.444369	0.230848
H79	H	0.768414	-0.120986	0.618926
H80	H	1.101758	-0.489446	-0.000002
H81	H	0.682827	0.228925	-0.230360
H82	H	0.618444	-0.004917	0.620933
H83	H	0.615776	-0.011708	0.380770
H84	H	0.834789	-0.366436	-0.000096
H85	H	0.942576	-0.369323	-0.000075
H86	H	0.691214	0.048248	0.378668
H87	H	0.587505	0.199964	0.094774
H88	H	0.584928	0.416857	-0.095299
H89	H	0.585020	0.418464	0.093602
H90	H	0.694862	0.045566	0.618306
H91	H	1.404258	0.038884	-0.000056
H92	H	0.587683	0.199126	-0.094743
H93	H	0.965462	0.050591	-0.000068
H94	H	1.512042	0.035995	-0.000052
H95	H	1.489131	-0.383899	-0.000070
H96	H	1.381362	-0.381028	-0.000046
H97	H	1.209526	-0.492330	-0.000021
H98	H	0.748740	0.466372	0.138102
