data_functionalizedCrystal
_audit_creation_method	'MofGen! by Chris Wilmer'
_symmetry_space_group_name_H-M	'P1'
_symmetry_Int_Tables_number	1
_symmetry_cell_setting	triclinic
loop_
_symmetry_equiv_pos_as_xyz
  x,y,z
_cell_length_a	17.077404
_cell_length_b	17.077402
_cell_length_c	17.077395
_cell_angle_alpha	89.972222
_cell_angle_beta	89.984359
_cell_angle_gamma	90.025453
loop_
_atom_site_label
_atom_site_type_symbol
_atom_site_fract_x
_atom_site_fract_y
_atom_site_fract_z
Zn1	Zn	1.200012	-0.312513	-0.443840
Zn2	Zn	1.199923	-0.443785	-0.312572
Zn3	Zn	1.068753	-0.312538	-0.312588
Zn4	Zn	1.068706	-0.443741	-0.443796
O5	O	1.134348	-0.378144	-0.378199
O6	O	1.309847	-0.329935	-0.426439
O7	O	1.182504	-0.426404	-0.202727
O8	O	1.086221	-0.202688	-0.330023
O9	O	1.309781	-0.426380	-0.329997
O10	O	1.182657	-0.202670	-0.426453
O11	O	1.086134	-0.329977	-0.202739
O12	O	0.958900	-0.329934	-0.329981
O13	O	1.086142	-0.426305	-0.553649
O14	O	0.958866	-0.426329	-0.426379
O15	O	1.182612	-0.329892	-0.553681
O16	O	1.182460	-0.553626	-0.329955
O17	O	1.086056	-0.553594	-0.426364
C18	C	0.930401	-0.378130	-0.378177
C19	C	0.843151	-0.378143	-0.378187
C20	C	1.134264	-0.582092	-0.378170
C21	C	1.134300	-0.669342	-0.378184
C22	C	1.184649	-1.045083	-0.428502
C23	C	1.184613	-0.963103	-0.428483
C24	C	1.134424	-0.922191	-0.378231
C25	C	1.084273	-0.963264	-0.327988
C26	C	1.084313	-1.045243	-0.328003
C27	C	1.084192	-0.792394	-0.327961
C28	C	1.084151	-0.710409	-0.327947
C29	C	1.184493	-0.710254	-0.428441
C30	C	1.184532	-0.792233	-0.428457
C31	C	1.134380	-0.833300	-0.378215
C32	C	0.802163	-0.428411	-0.428301
C33	C	0.720183	-0.428413	-0.428313
C34	C	0.679191	-0.378150	-0.378207
C35	C	0.720184	-0.327876	-0.328091
C36	C	0.802163	-0.327871	-0.328083
C37	C	0.549314	-0.327891	-0.328110
C38	C	0.467330	-0.327897	-0.328117
C39	C	0.467334	-0.428434	-0.428340
C40	C	0.549313	-0.428429	-0.428332
C41	C	0.590300	-0.378155	-0.378215
C42	C	1.339093	-0.378159	-0.378221
C43	C	1.426342	-0.378166	-0.378231
C44	C	1.134382	-0.378091	-0.582943
C45	C	1.134396	-0.378068	-0.670193
C46	C	1.134454	-0.173400	-0.378245
C47	C	1.134499	-0.086150	-0.378264
C48	C	1.184715	-0.327760	-1.046026
C49	C	1.184699	-0.327787	-0.964045
C50	C	1.134461	-0.377994	-0.923042
C51	C	1.084241	-0.428182	-0.964024
C52	C	1.084262	-0.428158	-1.046003
C53	C	1.084201	-0.428228	-0.793154
C54	C	1.084179	-0.428251	-0.711169
C55	C	1.184638	-0.327857	-0.711196
C56	C	1.184659	-0.327833	-0.793175
C57	C	1.134438	-0.378020	-0.834151
C58	C	1.134360	-0.378141	-0.174251
C59	C	1.134498	-0.377942	-0.087002
H60	H	1.225511	-1.078388	-0.469431
Cl61	Cl	1.247833	-0.264698	-0.912536
Cl62	Cl	1.247618	-0.843664	-0.491642
Cl63	Cl	1.021068	-0.658978	-0.264759
H64	H	1.043476	-1.078678	-0.287094
H65	H	0.433956	-0.286959	-0.287325
Cl66	Cl	1.247547	-0.658628	-0.491598
H67	H	1.225620	-0.286870	-1.079405
Cl68	Cl	1.021130	-0.491250	-1.097516
H69	H	1.043253	-0.469116	-0.677787
Cl70	Cl	1.021064	-0.491321	-0.844665
H71	H	0.433958	-0.469366	-0.469150
Cl72	Cl	0.600840	-0.264690	-0.265104
Cl73	Cl	1.021144	-0.844019	-0.264796
H74	H	0.835533	-0.469344	-0.469100
Cl75	Cl	0.600844	-0.491623	-0.491318
H76	H	0.686802	-0.286947	-0.287297
H77	H	0.835534	-0.286933	-0.287279
Cl78	Cl	1.247829	-0.264728	-0.844721
H79	H	1.043340	-0.469065	-0.930633
Cl80	Cl	1.247796	-0.264786	-0.659684
H81	H	1.043411	-0.929948	-0.287067
Cl82	Cl	1.247660	-0.911479	-0.491643
H83	H	0.686815	-0.469348	-0.469120
