data_functionalizedCrystal
_audit_creation_method	'MofGen! by Chris Wilmer'
_symmetry_space_group_name_H-M	'P1'
_symmetry_Int_Tables_number	1
_symmetry_cell_setting	triclinic
loop_
_symmetry_equiv_pos_as_xyz
  x,y,z
_cell_length_a	11.792241
_cell_length_b	10.489741
_cell_length_c	10.268362
_cell_angle_alpha	89.995004
_cell_angle_beta	89.999626
_cell_angle_gamma	84.366295
loop_
_atom_site_label
_atom_site_type_symbol
_atom_site_fract_x
_atom_site_fract_y
_atom_site_fract_z
O1	O	1.507380	0.174833	-0.108173
O2	O	1.177088	0.192851	-0.108203
O3	O	1.349750	-0.001782	-0.108180
O4	O	1.334719	0.369465	-0.108197
O5	O	1.349735	-0.001790	0.108421
O6	O	1.177073	0.192843	0.108397
O7	O	1.507365	0.174825	0.108428
Cu8	Cu	1.342218	0.183833	0.128190
Cu9	Cu	1.342236	0.183843	-0.127965
O10	O	1.334703	0.369457	0.108404
C11	C	1.134786	0.191715	0.000093
C12	C	1.008764	0.188327	0.000082
C13	C	1.348607	-0.049314	0.000120
C14	C	1.345210	-0.190931	0.000117
C15	C	0.778035	0.182098	0.000120
C16	C	0.906429	0.185559	0.000099
C17	C	1.235351	-0.258697	0.000098
C18	C	1.287240	-0.351001	0.106898
C19	C	1.287281	-0.350967	-0.106654
C20	C	1.397145	-0.281370	0.107005
C21	C	1.397171	-0.281327	-0.106642
C22	C	1.449140	-0.373603	0.000184
C23	C	1.549667	0.175960	0.000128
C24	C	1.675690	0.179348	0.000131
C25	C	1.335846	0.416989	0.000102
C26	C	1.339243	0.558607	0.000096
N27	N	1.342213	0.183825	0.308356
N28	N	1.342249	0.183840	-0.308131
C29	C	1.342230	0.183840	0.574026
C30	C	1.342217	0.183836	0.426188
H31	H	1.145025	-0.208738	0.000197
O32	O	1.231856	-0.388048	0.214562
C33	C	1.167408	-0.564034	0.335652
C34	C	1.230188	-0.522264	0.213693
H35	H	1.166018	-0.672547	0.334976
H36	H	1.213361	-0.534151	0.426717
H37	H	1.076288	-0.516302	0.335507
H38	H	1.321311	-0.569976	0.213711
H39	H	1.184147	-0.552125	0.122683
O40	O	1.557070	-0.432724	0.000330
C41	C	1.757870	-0.406881	0.001496
C42	C	1.635700	-0.339772	0.001348
H43	H	1.821476	-0.331760	0.002292
H44	H	1.771052	-0.469900	0.091746
H45	H	1.771524	-0.468679	-0.089542
H46	H	1.621962	-0.277908	0.092325
H47	H	1.622577	-0.276830	-0.088962
O48	O	1.231667	-0.387560	-0.214336
C49	C	1.056072	-0.370184	-0.335962
C50	C	1.118935	-0.328625	-0.213983
H51	H	0.964909	-0.322576	-0.335703
H52	H	1.101948	-0.340119	-0.427013
H53	H	1.054804	-0.478714	-0.335427
H54	H	1.120221	-0.220103	-0.214392
H55	H	1.073038	-0.358786	-0.122986
H56	H	1.443622	-0.250437	-0.196930
O57	O	1.452469	-0.244567	0.214807
C58	C	1.517801	-0.068977	0.335717
C59	C	1.455106	-0.110480	0.213594
H60	H	1.519974	0.039431	0.334762
H61	H	1.471276	-0.098168	0.426658
H62	H	1.608647	-0.117497	0.336095
H63	H	1.364258	-0.061982	0.213089
H64	H	1.501719	-0.081313	0.122708
