data_functionalizedCrystal
_audit_creation_method	'MofGen! by Chris Wilmer'
_symmetry_space_group_name_H-M	'P1'
_symmetry_Int_Tables_number	1
_symmetry_cell_setting	triclinic
loop_
_symmetry_equiv_pos_as_xyz
  x,y,z
_cell_length_a	19.188930
_cell_length_b	14.971486
_cell_length_c	13.448316
_cell_angle_alpha	89.998144
_cell_angle_beta	90.018952
_cell_angle_gamma	83.379456
loop_
_atom_site_label
_atom_site_type_symbol
_atom_site_fract_x
_atom_site_fract_y
_atom_site_fract_z
O1	O	0.926505	0.111667	0.083000
O2	O	0.723242	0.126700	0.082930
O3	O	0.830321	-0.011046	0.082974
O4	O	0.819426	0.249412	0.082956
O5	O	0.830311	-0.011047	-0.082410
O6	O	0.723231	0.126698	-0.082454
O7	O	0.926494	0.111666	-0.082384
Cu8	Cu	0.824862	0.119182	-0.097520
Cu9	Cu	0.824874	0.119183	0.098066
O10	O	0.819415	0.249411	-0.082428
C11	C	0.697224	0.126212	0.000229
C12	C	0.619715	0.124751	0.000203
C13	C	0.829829	-0.044368	0.000286
C14	C	0.828369	-0.143658	0.000297
C15	C	0.575051	0.205575	0.000213
C16	C	0.502223	0.204202	0.000224
C17	C	0.474062	0.122000	0.000245
C18	C	0.518735	0.041165	0.000230
C19	C	0.591562	0.042541	0.000209
N20	N	0.365883	0.059168	0.056577
N21	N	0.296700	0.057867	0.056599
C22	C	0.254640	0.117852	0.000306
N23	N	0.284374	0.179201	-0.055997
N24	N	0.353563	0.180504	-0.056014
C25	C	0.395094	0.120500	0.000267
C26	C	0.131007	0.197193	0.000327
C27	C	0.058178	0.195817	0.000332
C28	C	0.074692	0.032778	0.000347
C29	C	0.147519	0.034157	0.000332
C30	C	0.175672	0.116367	0.000327
C31	C	0.952512	0.112153	0.000319
C32	C	1.030021	0.113615	0.000351
N33	N	0.824858	0.119180	-0.235084
C34	C	0.819907	0.282734	0.000262
C35	C	0.821368	0.382023	0.000257
C36	C	0.758461	0.439581	0.000237
C37	C	0.759838	0.532873	0.000250
C38	C	0.824121	0.568606	0.000278
C39	C	0.887032	0.511041	0.000301
C40	C	0.885655	0.417750	0.000295
C41	C	0.889898	0.705488	0.000313
C42	C	0.891275	0.798785	0.000318
C43	C	0.764080	0.820611	0.000269
C44	C	0.762703	0.727320	0.000262
C45	C	0.825615	0.669762	0.000284
C46	C	0.867245	0.173298	-0.287109
C47	C	0.867254	0.173294	-0.391212
C48	C	0.824871	0.119177	-0.443289
C49	C	0.782482	0.065053	-0.391257
C50	C	0.782478	0.065053	-0.287155
C51	C	0.782493	0.065059	-0.608237
C52	C	0.782497	0.065061	-0.712345
C53	C	0.867269	0.173300	-0.712294
C54	C	0.867265	0.173300	-0.608192
C55	C	0.824875	0.119177	-0.556167
N56	N	0.824884	0.119178	0.235630
H57	H	0.597968	0.272517	0.000211
H58	H	0.710358	0.698230	0.000235
H59	H	0.747977	0.020986	-0.433666
H60	H	0.901771	0.217360	-0.433566
H61	H	0.465851	0.270021	0.000229
H62	H	0.183886	-0.031659	0.000330
O63	O	0.158441	0.276993	0.000173
C64	C	0.200028	0.282671	-0.085505
H65	H	0.218099	0.212099	-0.114050
H66	H	0.247751	0.318143	-0.066260
H67	H	0.167865	0.322361	-0.145483
O68	O	0.047313	-0.047052	0.000545
C69	C	0.005698	-0.052716	0.086198
H70	H	0.022980	-0.006041	0.146054
H71	H	0.012185	-0.124828	0.114957
H72	H	-0.051721	-0.031861	0.066845
H73	H	0.495802	-0.025764	0.000261
H74	H	0.021812	0.261637	0.000334
H75	H	0.941127	0.658625	0.000339
H76	H	0.747984	0.020995	-0.754743
O77	O	0.908456	0.225741	-0.236416
C78	C	0.956060	0.171050	-0.176189
H79	H	0.934281	0.104751	-0.160602
H80	H	0.963863	0.206985	-0.102983
H81	H	1.008531	0.157191	-0.216280
H82	H	0.939373	0.540141	0.000322
H83	H	0.747976	0.020986	-0.565881
H84	H	0.712855	0.867480	0.000247
O85	O	0.695955	0.405023	0.000255
C86	C	0.640728	0.475835	0.000218
H87	H	0.660358	0.539132	0.031538
H88	H	0.595856	0.456512	0.048219
H89	H	0.621313	0.489120	-0.079130
H90	H	0.747962	0.020986	-0.244798
O91	O	0.698778	0.588877	0.000097
C92	C	0.695759	0.643491	-0.085563
H93	H	0.751181	0.647991	-0.114096
H94	H	0.669814	0.713711	-0.066300
H95	H	0.663841	0.612934	-0.145559
H96	H	0.936880	0.370887	0.000316
H97	H	0.627928	-0.023278	0.000201
O98	O	0.908499	0.225893	-0.557757
C99	C	0.945902	0.273678	-0.625995
H100	H	0.949954	0.236641	-0.700202
H101	H	1.000804	0.279052	-0.595881
H102	H	0.917197	0.343980	-0.637082
O103	O	0.953703	0.833535	0.000178
C104	C	0.958302	0.886869	-0.085457
H105	H	0.921801	0.864954	-0.145347
H106	H	1.014567	0.878274	-0.114175
H107	H	0.942260	0.960503	-0.066097
H108	H	0.901782	0.217372	-0.754657
