data_functionalizedCrystal
_audit_creation_method	'MofGen! by Chris Wilmer'
_symmetry_space_group_name_H-M	'P1'
_symmetry_Int_Tables_number	1
_symmetry_cell_setting	triclinic
loop_
_symmetry_equiv_pos_as_xyz
  x,y,z
_cell_length_a	10.654545
_cell_length_b	9.065215
_cell_length_c	9.730223
_cell_angle_alpha	89.996553
_cell_angle_beta	89.997167
_cell_angle_gamma	84.748888
loop_
_atom_site_label
_atom_site_type_symbol
_atom_site_fract_x
_atom_site_fract_y
_atom_site_fract_z
O1	O	1.668661	0.207203	-0.114273
O2	O	2.168661	0.707203	0.385727
O3	O	1.303260	0.226954	-0.114279
O4	O	1.803260	0.726954	0.385721
O5	O	1.493515	0.002394	-0.114270
O6	O	1.993515	0.502394	0.385730
O7	O	1.478406	0.431763	-0.114282
O8	O	1.978406	0.931763	0.385718
O9	O	1.493503	0.002388	0.114310
O10	O	1.993503	0.502388	0.614310
O11	O	1.303248	0.226948	0.114301
O12	O	1.803248	0.726948	0.614301
O13	O	1.668649	0.207197	0.114307
O14	O	2.168649	0.707197	0.614307
Zn15	Zn	1.485946	0.217071	0.150596
Zn16	Zn	1.985946	0.717071	0.650596
Zn17	Zn	1.485963	0.217080	-0.150568
Zn18	Zn	1.985963	0.717080	0.349432
O19	O	1.478394	0.431757	0.114298
O20	O	1.978394	0.931757	0.614298
C21	C	1.256450	0.225502	0.000011
C22	C	1.756450	0.725502	0.500011
C23	C	1.116989	0.221167	0.000009
C24	C	1.616989	0.721167	0.500009
C25	C	1.051470	0.219124	0.124608
C26	C	1.551470	0.719124	0.624608
C27	C	0.920434	0.215026	0.124609
C28	C	1.420434	0.715026	0.624609
C29	C	0.920448	0.215023	-0.124602
C30	C	1.420448	0.715023	0.375398
C31	C	1.051483	0.219110	-0.124601
C32	C	1.551483	0.719110	0.375399
C33	C	1.492058	-0.052587	0.000019
C34	C	1.992058	0.447413	0.500019
C35	C	1.487718	-0.216407	0.000014
C36	C	1.987718	0.283593	0.500014
C37	C	1.715459	0.208649	0.000014
C38	C	2.215459	0.708649	0.500014
C39	C	1.854919	0.212984	0.000007
C40	C	2.354919	0.712984	0.500007
C41	C	1.479851	0.486738	0.000006
C42	C	1.979851	0.986738	0.500006
C43	C	1.484190	0.650558	0.000002
C44	C	1.984190	1.150558	0.500002
N45	N	1.485944	0.217065	0.356132
N46	N	1.985944	0.717065	0.856132
N47	N	1.485974	0.217074	-0.356104
N48	N	1.985974	0.717074	0.143896
C49	C	1.570219	0.117672	0.428062
C50	C	2.070219	0.617672	0.928062
C51	C	1.570231	0.117673	0.571945
C52	C	2.070231	0.617673	1.071945
C53	C	1.401691	0.316472	0.571956
C54	C	1.901691	0.816472	1.071956
C55	C	1.401673	0.316463	0.428076
C56	C	1.901673	0.816463	0.928076
H57	H	0.867097	0.213349	-0.226054
H58	H	1.367097	0.713349	0.273946
H59	H	1.638835	0.036734	0.369489
H60	H	2.138835	0.536734	0.869489
O61	O	1.661142	0.010490	0.649532
O62	O	2.161142	0.510490	1.149532
H63	H	1.719743	-0.058611	0.575328
H64	H	2.219743	0.441389	1.075328
O65	O	1.122152	0.221311	-0.259005
O66	O	1.622152	0.721311	0.240995
H67	H	1.191898	0.122775	-0.264958
H68	H	1.691898	0.622775	0.235042
O69	O	1.310824	0.423694	0.649561
O70	O	1.810824	0.923694	1.149561
H71	H	1.252215	0.492802	0.575366
H72	H	1.752215	0.992802	1.075366
O73	O	0.849761	0.212836	0.258997
O74	O	1.349761	0.712836	0.758997
H75	H	0.917329	0.214966	0.345639
H76	H	1.417329	0.714966	0.845639
O77	O	1.310778	0.423674	0.350478
O78	O	1.810778	0.923674	0.850478
H79	H	1.252196	0.492810	0.424673
H80	H	1.752196	0.992810	0.924673
H81	H	1.104802	0.220799	0.226073
H82	H	1.604802	0.720799	0.726073
