data_functionalizedCrystal
_audit_creation_method	'MofGen! by Chris Wilmer'
_symmetry_space_group_name_H-M	'P1'
_symmetry_Int_Tables_number	1
_symmetry_cell_setting	triclinic
loop_
_symmetry_equiv_pos_as_xyz
  x,y,z
_cell_length_a	14.446369
_cell_length_b	14.446369
_cell_length_c	18.426585
_cell_angle_alpha	90.000907
_cell_angle_beta	60.000814
_cell_angle_gamma	60.000221
loop_
_atom_site_label
_atom_site_type_symbol
_atom_site_fract_x
_atom_site_fract_y
_atom_site_fract_z
Zr1	Zr	1.013155	0.891806	-0.095214
O2	O	1.206270	0.744005	-0.211095
O3	O	0.820041	0.937110	-0.059689
O4	O	1.013146	0.937120	-0.211089
O5	O	1.013171	0.743994	0.059730
O6	O	1.013138	1.089457	-0.211084
O7	O	1.013165	0.743996	-0.059696
O8	O	0.667709	1.089440	0.059742
O9	O	1.358600	0.744010	-0.211096
O10	O	0.899465	1.070125	-0.044536
O11	O	0.899476	0.956436	0.044587
O12	O	1.126832	0.956447	-0.133666
O13	O	1.126843	0.842758	-0.044543
Zr14	Zr	1.013152	1.134763	0.095264
Zr15	Zr	1.013141	1.134766	-0.095207
Zr16	Zr	1.013165	0.891802	0.095257
Zr17	Zr	1.256105	0.891814	-0.095215
Zr18	Zr	0.770202	1.134755	0.095265
O19	O	1.206265	1.089458	0.059740
O20	O	1.206251	1.089463	-0.211085
O21	O	1.206284	0.744000	0.059730
O22	O	0.820037	1.282563	0.211145
O23	O	0.820022	1.282569	-0.059679
O24	O	0.820056	0.937105	0.211135
O25	O	1.013135	1.282575	-0.059680
O26	O	1.013160	1.089449	0.211139
O27	O	1.013169	0.937112	0.211135
O28	O	1.013142	1.282573	0.059746
O29	O	1.358590	0.937131	-0.211090
O30	O	0.667717	1.089437	0.211140
O31	O	0.667706	1.282558	0.211146
O32	O	0.667698	1.282561	0.059747
O33	O	1.358608	0.744007	-0.059697
O34	O	1.358598	0.937128	-0.059691
O35	O	0.899475	1.070122	0.133717
O36	O	0.899464	1.183811	0.044594
O37	O	1.126830	1.070133	-0.044537
O38	O	1.126842	0.956444	0.044586
C39	C	0.709260	1.013274	0.000026
C40	C	0.606121	1.013271	0.000027
C41	C	1.013170	0.709378	0.000016
C42	C	1.013176	0.606235	0.000013
C43	C	0.566839	0.941562	0.056244
C44	C	0.459204	0.941891	0.056542
C45	C	0.371399	1.136858	0.040734
C46	C	0.478645	1.136449	0.041161
C47	C	0.653839	0.962420	-0.096933
C48	C	0.547666	0.959940	-0.096789
C49	C	1.156561	0.387872	-0.055918
C50	C	1.156658	0.495104	-0.056232
C51	C	0.941944	0.602910	-0.040988
C52	C	0.942854	0.495141	-0.041398
C53	C	0.939909	0.496502	0.097018
C54	C	0.942611	0.602471	0.096865
C55	C	1.317047	1.013294	0.000024
C56	C	1.420185	1.013298	0.000024
C57	C	1.013140	1.013289	-0.238224
C58	C	1.013136	1.013290	-0.319084
C59	C	1.013137	1.317190	0.000034
C60	C	1.013131	1.420333	0.000037
C61	C	1.013131	1.013291	-0.384751
C62	C	1.013137	1.013291	-0.467137
C63	C	1.013151	1.013286	-0.532805
C64	C	1.013156	1.013283	-0.615197
C65	C	1.013166	1.013280	0.238275
C66	C	1.013170	1.013278	0.319134
C67	C	0.709243	1.317180	0.000035
C68	C	0.606099	1.420320	0.000039
C69	C	0.709273	1.013270	0.238276
C70	C	0.606138	1.013265	0.319136
C71	C	0.709256	1.317176	0.238285
C72	C	0.606116	1.420314	0.319148
C73	C	1.317051	0.709393	-0.238234
C74	C	1.420190	0.606255	-0.319097
C75	C	1.317063	0.709388	0.000015
C76	C	1.420208	0.606249	0.000012
C77	C	1.317034	1.013299	-0.238226
C78	C	1.420168	1.013304	-0.319086
C79	C	0.557705	1.072605	0.403641
C80	C	0.460813	1.072596	0.479625
C81	C	0.412349	1.013253	0.471102
C82	C	0.460793	0.953905	0.386588
C83	C	0.557690	0.953908	0.310606
C84	C	0.557675	1.528103	0.310601
C85	C	0.460777	1.625022	0.386573
C86	C	0.412316	1.614148	0.471091
C87	C	0.460767	1.506347	0.479637
C88	C	0.557670	1.409431	0.403665
C89	C	1.468644	0.498465	-0.310550
C90	C	1.565571	0.401547	-0.386523
C91	C	1.614037	0.412420	-0.471041
C92	C	1.565580	0.520221	-0.479586
C93	C	1.468661	0.617137	-0.403615
C94	C	1.468601	1.072659	-0.310534
C95	C	1.565493	1.072686	-0.386503
C96	C	1.613959	1.013350	-0.471024
C97	C	1.565516	0.953993	-0.479574
C98	C	1.468619	0.953974	-0.403605
C99	C	0.459781	1.638683	0.055964
C100	C	0.566706	1.531454	0.056282
C101	C	0.479246	1.423643	0.041039
C102	C	0.371867	1.531409	0.041445
C103	C	0.546833	1.530044	-0.096971
C104	C	0.655307	1.424078	-0.096814
H105	H	0.495748	0.850917	0.029262
H106	H	0.687433	1.344921	-0.142011
H107	H	0.278961	1.177836	0.111382
H108	H	0.597153	1.120930	0.410598
N109	N	0.607124	0.893321	0.224287
N110	N	0.596267	0.944989	0.171524
H111	H	0.631174	0.902198	0.110562
H112	H	0.597098	1.321668	0.410637
N113	N	1.419134	0.727248	-0.412337
N114	N	1.332590	0.813781	-0.344508
H115	H	1.297613	0.891548	-0.350673
N116	N	0.811289	0.701769	0.153552
N117	N	0.731074	0.725063	0.135494
H118	H	0.638322	0.795196	0.175525
N119	N	0.678783	1.533494	0.021788
N120	N	0.678393	1.614309	-0.002689
H121	H	0.757542	1.615760	-0.027047
H122	H	0.421382	1.120928	0.548433
H123	H	1.429155	1.120977	-0.241720
H124	H	0.421296	1.497511	0.548462
H125	H	1.605009	0.313780	-0.379547
N126	N	1.419159	0.487321	-0.224230
N127	N	1.462453	0.391062	-0.216627
H128	H	1.427515	0.383181	-0.155665
H129	H	0.370117	1.693665	0.127071
H130	H	0.333450	1.013260	0.532979
H131	H	0.745791	1.424603	-0.127443
H132	H	1.605054	0.529061	-0.548410
H133	H	0.522043	1.502595	-0.138857
N134	N	1.004028	0.605552	-0.129676
N135	N	1.052400	0.525697	-0.193110
H136	H	1.096259	0.527553	-0.255748
H137	H	0.500891	1.192812	0.002840
H138	H	1.604992	0.905684	-0.548401
H139	H	1.692859	1.013375	-0.532875
H140	H	1.212576	0.332891	-0.127026
H141	H	1.692955	0.333496	-0.532895
H142	H	0.421319	0.905589	0.379661
H143	H	0.530973	0.976526	0.127344
N144	N	1.614947	1.133327	-0.377741
N145	N	1.571667	1.186286	-0.302268
H146	H	1.606591	1.229115	-0.296077
N147	N	0.313334	1.713163	0.548681
N148	N	0.270098	1.809395	0.541027
H149	H	0.200189	1.879329	0.595821
H150	H	1.429196	0.905635	-0.410581
H151	H	0.497017	1.692641	0.028601
H152	H	0.597117	1.536978	0.241788
H153	H	0.836446	0.681174	-0.002196
N154	N	0.519699	1.534540	0.146032
N155	N	0.407721	1.615984	0.208630
H156	H	0.374515	1.618164	0.272021
N157	N	0.771247	0.849967	-0.139650
N158	N	0.873206	0.827645	-0.209650
H159	H	0.956124	0.748224	-0.239813
N160	N	0.430838	1.420990	0.129725
N161	N	0.329836	1.423020	0.174047
H162	H	0.295644	1.421152	0.236684
H163	H	0.501494	1.345377	0.002248
H164	H	1.212829	0.493346	-0.028943
N165	N	1.227223	0.492017	-0.145982
N166	N	1.276544	0.410569	-0.208582
H167	H	1.326386	0.408383	-0.271973
H168	H	0.281115	1.581752	0.112809
H169	H	0.421338	1.712789	0.379599
H170	H	0.586399	1.580063	-0.131222
N171	N	0.678135	0.827133	0.022200
N172	N	0.787708	0.797092	-0.043891
H173	H	0.866321	0.716273	-0.067937
N174	N	0.347631	0.986173	0.146270
N175	N	0.349104	1.016940	0.208867
H176	H	0.270303	1.048217	0.272242
H177	H	0.341913	1.504755	0.003321
H178	H	0.342888	1.192637	0.001734
N179	N	0.427433	1.187490	0.130657
N180	N	0.312888	1.223162	0.192368
H181	H	0.276712	1.259210	0.255578
N182	N	0.597158	0.845737	-0.134934
N183	N	0.538829	0.803727	-0.091039
H184	H	0.573779	0.723069	-0.117974
H185	H	0.526478	1.006846	-0.142134
H186	H	0.837622	0.521791	-0.003279
N187	N	0.686764	1.027635	-0.149710
N188	N	0.675206	1.111204	-0.116176
H189	H	0.698456	1.157268	-0.153442
H190	H	0.985803	0.446479	0.131270
H191	H	1.212855	0.333918	-0.028554
H192	H	0.993470	0.444800	-0.112763
H193	H	0.994548	0.601954	0.127495
N194	N	0.807396	0.530836	0.149578
N195	N	0.766905	0.499426	0.115875
H196	H	0.673336	0.523632	0.152997
