data_functionalizedCrystal
_audit_creation_method	'MofGen! by Chris Wilmer'
_symmetry_space_group_name_H-M	'P1'
_symmetry_Int_Tables_number	1
_symmetry_cell_setting	triclinic
loop_
_symmetry_equiv_pos_as_xyz
  x,y,z
_cell_length_a	11.169417
_cell_length_b	19.121063
_cell_length_c	11.169409
_cell_angle_alpha	87.599247
_cell_angle_beta	90.019824
_cell_angle_gamma	92.469728
loop_
_atom_site_label
_atom_site_type_symbol
_atom_site_fract_x
_atom_site_fract_y
_atom_site_fract_z
Zn1	Zn	1.814442	-0.279539	0.698851
Zn2	Zn	1.805707	-0.397012	0.506702
Zn3	Zn	1.613724	-0.279582	0.498188
Zn4	Zn	1.605116	-0.396955	0.707343
O5	O	1.709747	-0.338272	0.602771
O6	O	1.981232	-0.295128	0.673371
O7	O	1.780188	-0.381477	0.337626
O8	O	1.647608	-0.181292	0.517690
O9	O	1.974815	-0.381435	0.532200
O10	O	1.795074	-0.181261	0.665116
O11	O	1.639139	-0.295201	0.331371
O12	O	1.444633	-0.295146	0.525924
O13	O	1.632936	-0.381338	0.874163
O14	O	1.438308	-0.381379	0.679589
O15	O	1.786727	-0.295073	0.867924
O16	O	1.771840	-0.495289	0.540435
O17	O	1.624466	-0.495247	0.687844
C18	C	1.397923	-0.338261	0.602755
C19	C	1.264522	-0.338274	0.602778
C20	C	1.696304	-0.520752	0.616011
C21	C	1.690663	-0.598817	0.621715
C22	C	1.764802	-0.635491	0.547710
C23	C	1.759503	-0.708842	0.553082
C24	C	1.680059	-0.745518	0.632454
C25	C	1.605917	-0.708838	0.706467
C26	C	1.611222	-0.635489	0.701100
C27	C	1.660204	-0.966986	0.652499
C28	C	1.654902	-1.040340	0.657858
C29	C	1.808490	-1.040339	0.504474
C30	C	1.813784	-0.966988	0.499110
C31	C	1.739646	-0.930315	0.573127
C32	C	1.674638	-0.820494	0.637944
C33	C	1.745073	-0.855340	0.567642
C34	C	2.022789	-0.338283	0.602788
C35	C	2.156188	-0.338288	0.602795
C36	C	1.709845	-0.338194	0.915808
C37	C	1.709887	-0.338161	1.049206
C38	C	1.723276	-0.155080	0.589506
C39	C	1.729041	-0.077014	0.583853
C40	C	1.709722	-0.338299	0.290948
C41	C	1.709928	-0.338134	0.157537
H42	H	1.819874	-0.738699	0.492818
H43	H	1.878474	-0.937128	0.434479
C44	C	1.832460	-0.815000	0.480333
C45	C	1.968171	-0.825008	0.490965
C46	C	2.055554	-0.784661	0.403652
C47	C	2.007225	-0.734307	0.305706
C48	C	1.871507	-0.724297	0.295070
C49	C	1.784124	-0.764644	0.382384
H50	H	2.003953	-0.862285	0.563474
H51	H	2.156021	-0.792071	0.411526
H52	H	2.071911	-0.704439	0.241072
H53	H	1.835725	-0.687019	0.222562
H54	H	1.683656	-0.757233	0.374510
H55	H	1.868851	-1.070206	0.444215
C56	C	1.567509	-1.080686	0.745175
C57	C	1.485960	-1.040349	0.826593
C58	C	1.398570	-1.080695	0.913901
C59	C	1.392730	-1.161376	0.919790
C60	C	1.474282	-1.201717	0.838370
C61	C	1.561672	-1.161372	0.751062
H62	H	1.490281	-0.980620	0.822235
H63	H	1.338200	-1.050831	0.974173
H64	H	1.328038	-1.191242	0.984421
H65	H	1.469960	-1.261446	0.842727
H66	H	1.622042	-1.191235	0.690789
H67	H	1.599836	-0.937133	0.712765
C68	C	1.518530	-0.749181	0.793780
C69	C	1.420676	-0.799678	0.745389
C70	C	1.333286	-0.840020	0.832702
C71	C	1.343751	-0.829864	0.968406
C72	C	1.441609	-0.779365	1.016803
C73	C	1.528999	-0.739024	0.929490
H74	H	1.412926	-0.807198	0.644927
H75	H	1.260845	-0.877402	0.796874
H76	H	1.279060	-0.859728	1.033040
H77	H	1.449360	-0.771846	1.117266
H78	H	1.601440	-0.701641	0.965318
C79	C	1.852193	-0.595151	0.460399
C80	C	1.841741	-0.605312	0.324696
C81	C	1.929138	-0.564973	0.237387
C82	C	2.026988	-0.514474	0.285780
C83	C	2.037444	-0.504311	0.421490
C84	C	1.950047	-0.544649	0.508800
H85	H	1.769303	-0.642696	0.288866
H86	H	1.921397	-0.572497	0.136925
H87	H	2.091684	-0.484613	0.221148
H88	H	2.109882	-0.466927	0.457320
H89	H	1.957788	-0.537126	0.609262
C90	C	1.529664	-0.595144	0.782502
C91	C	1.392496	-0.605296	0.773333
C92	C	1.310940	-0.564952	0.854741
C93	C	1.366552	-0.514454	0.945318
C94	C	1.503728	-0.504300	0.954491
C95	C	1.585284	-0.544644	0.873083
H96	H	1.351323	-0.642680	0.706278
H97	H	1.209394	-0.572469	0.847949
H98	H	1.306180	-0.484589	1.005581
H99	H	1.544901	-0.466916	1.021546
H100	H	1.686830	-0.537127	0.879874
C101	C	1.587249	-0.860842	0.725247
C102	C	1.489410	-0.911346	0.676848
C103	C	1.402027	-0.951698	0.764154
C104	C	1.412483	-0.941546	0.899860
C105	C	1.510326	-0.891040	0.948266
C106	C	1.597709	-0.850688	0.860959
H107	H	1.481667	-0.918863	0.576384
H108	H	1.329597	-0.989086	0.728320
H109	H	1.347796	-0.971417	0.964489
H110	H	1.518069	-0.883523	1.048729
H111	H	1.670139	-0.813300	0.896793
