data_functionalizedCrystal
_audit_creation_method	'MofGen! by Chris Wilmer'
_symmetry_space_group_name_H-M	'P1'
_symmetry_Int_Tables_number	1
_symmetry_cell_setting	triclinic
loop_
_symmetry_equiv_pos_as_xyz
  x,y,z
_cell_length_a	15.298068
_cell_length_b	29.839131
_cell_length_c	15.296720
_cell_angle_alpha	80.368922
_cell_angle_beta	91.645182
_cell_angle_gamma	99.692747
loop_
_atom_site_label
_atom_site_type_symbol
_atom_site_fract_x
_atom_site_fract_y
_atom_site_fract_z
Zn1	Zn	1.253329	-0.133644	0.727299
Zn2	Zn	1.278569	-0.193979	0.580800
Zn3	Zn	1.132211	-0.129279	0.555468
Zn4	Zn	1.106789	-0.219165	0.701811
O5	O	1.192725	-0.169017	0.641345
O6	O	1.379256	-0.132934	0.729134
O7	O	1.280356	-0.173030	0.454884
O8	O	1.148354	-0.066990	0.578326
O9	O	1.397800	-0.177263	0.621502
O10	O	1.237339	-0.070197	0.704570
O11	O	1.172828	-0.125494	0.436273
O12	O	1.006260	-0.149915	0.553612
O13	O	1.105026	-0.220187	0.827748
O14	O	0.987582	-0.215954	0.661130
O15	O	1.212688	-0.157355	0.846473
O16	O	1.255706	-0.260188	0.596788
O17	O	1.129500	-0.278692	0.685694
C18	C	0.965137	-0.185194	0.601857
C19	C	0.867771	-0.192128	0.584985
C20	C	0.554634	-0.119572	0.761934
C21	C	0.646113	-0.113059	0.777791
C22	C	0.701532	-0.132826	0.729591
C23	C	0.665463	-0.159107	0.665531
C24	C	0.573973	-0.165623	0.649677
C25	C	0.720872	-0.178877	0.617334
C26	C	0.684802	-0.205158	0.553274
C27	C	0.593321	-0.211673	0.537422
C28	C	0.537902	-0.191906	0.585623
C29	C	0.812361	-0.172360	0.633188
C30	C	0.831700	-0.218411	0.520931
C31	C	0.740221	-0.224924	0.505074
C32	C	1.192604	-0.285741	0.641248
C33	C	1.192627	-0.335674	0.641249
C34	C	1.239033	-0.646961	0.707157
C35	C	1.239119	-0.834633	0.707226
O36	O	1.278454	-0.860299	0.763186
N37	N	1.192857	-0.856458	0.641468
C38	C	1.146564	-0.831363	0.575690
O39	O	1.107210	-0.854234	0.519765
C40	C	1.146474	-0.643693	0.575625
C41	C	1.192747	-0.621869	0.641383
C42	C	1.285302	-0.625137	0.772911
C43	C	1.285284	-0.578221	0.772890
C44	C	1.238997	-0.553130	0.707116
C45	C	1.192729	-0.574954	0.641363
C46	C	1.100177	-0.618600	0.509852
C47	C	1.100157	-0.571680	0.509843
C48	C	1.146430	-0.549856	0.575601
C49	C	1.146424	-0.502946	0.575568
N50	N	1.192687	-0.481121	0.641327
C51	C	1.238973	-0.506213	0.707101
C52	C	1.146617	-0.929892	0.575728
C53	C	1.146640	-0.976809	0.575743
C54	C	1.239194	-0.980076	0.707280
C55	C	1.239175	-0.933157	0.707261
C56	C	1.192879	-0.908067	0.641487
C57	C	1.238933	-0.407686	0.707052
C58	C	1.238914	-0.360766	0.707023
C59	C	1.146357	-0.357504	0.575489
C60	C	1.146379	-0.404420	0.575514
C61	C	1.192669	-0.429510	0.641303
O62	O	1.107102	-0.477253	0.519643
O63	O	1.278306	-0.483336	0.763029
C64	C	1.239051	-0.693877	0.707178
C65	C	1.192783	-0.715701	0.641425
C66	C	1.146496	-0.690609	0.575651
C67	C	1.192807	-0.762618	0.641440
C68	C	1.239093	-0.787709	0.707214
C69	C	1.285356	-0.765884	0.772973
C70	C	1.285338	-0.718968	0.772952
C71	C	1.100234	-0.712434	0.509892
C72	C	1.100256	-0.759350	0.509918
C73	C	1.146543	-0.784442	0.575691
C74	C	1.421200	-0.152776	0.680987
C75	C	1.518563	-0.145855	0.697880
C76	C	1.153206	-0.192067	0.869777
C77	C	1.136366	-0.201890	0.967121
C78	C	1.192866	-0.051836	0.641465
C79	C	1.192927	-0.001901	0.641517
C80	C	1.232140	-0.146020	0.413810
C81	C	1.249150	-0.136058	0.316496
C82	C	1.313119	-0.098730	1.280516
C83	C	1.328947	-0.089501	1.189058
C84	C	1.280803	-0.117598	1.133569
C85	C	1.216828	-0.154925	1.169548
C86	C	1.201004	-0.164156	1.261016
C87	C	1.168687	-0.183024	1.114069
C88	C	1.104713	-0.220351	1.150048
C89	C	1.088891	-0.229581	1.241507
C90	C	1.137035	-0.201484	1.296996
C91	C	1.184512	-0.173792	1.022600
C92	C	1.072397	-0.239218	1.003100
C93	C	1.056569	-0.248447	1.094559
H94	H	0.463410	-0.197211	0.572721
O95	O	1.025762	-0.266517	0.949132
C96	C	1.084751	-0.286657	0.904863
H97	H	1.153523	-0.264711	0.902700
H98	H	1.060193	-0.288721	0.834348
H99	H	1.088236	-0.322824	0.941744
H100	H	0.563955	-0.233077	0.485267
O101	O	1.391162	-0.053291	1.154070
C102	C	1.456852	-0.069495	1.110916
H103	H	1.457487	-0.107272	1.139387
H104	H	1.524455	-0.048336	1.121567
H105	H	1.441736	-0.065981	1.036902
H106	H	1.352316	-0.075860	1.325703
H107	H	0.710840	-0.246323	0.452916
H108	H	1.276598	-0.342998	0.760572
O109	O	0.847277	-0.146873	0.695513
C110	C	0.809853	-0.167165	0.778892
H111	H	0.743114	-0.189346	0.769125
H112	H	0.799941	-0.138970	0.817753
H113	H	0.856240	-0.189586	0.817221
O114	O	0.994313	-0.284664	1.129454
C115	C	0.910890	-0.278803	1.091953
H116	H	0.910860	-0.240690	1.066077
H117	H	0.857205	-0.291817	1.144593
H118	H	0.897145	-0.299161	1.034867
O119	O	0.885655	-0.237565	0.474155
C120	C	0.974133	-0.226187	0.501898
H121	H	0.981678	-0.193555	0.532884
H122	H	1.020238	-0.220086	0.442309
H123	H	0.992030	-0.255719	0.552932
O124	O	1.026812	-0.265893	1.276365
C125	C	1.049783	-0.307051	1.257300
H126	H	1.094947	-0.298883	1.196735
H127	H	0.987084	-0.331373	1.243173
H128	H	1.085893	-0.324179	1.316573
H129	H	0.776019	-0.127520	0.742503
H130	H	0.675474	-0.091663	0.829952
O131	O	1.121666	-0.210531	1.385843
C132	C	1.138845	-0.255068	1.420268
H133	H	1.132966	-0.276692	1.364940
H134	H	1.088740	-0.272035	1.474597
H135	H	1.208718	-0.252490	1.449105
O136	O	1.296019	-0.108659	1.044699
C137	C	1.217383	-0.099995	0.999566
H138	H	1.157791	-0.116560	1.043512
H139	H	1.212376	-0.115208	0.935673
H140	H	1.218395	-0.061212	0.983017
O141	O	1.283972	-0.431983	0.771003
C142	C	1.324779	-0.402655	0.829042
H143	H	1.334031	-0.365384	0.793679
H144	H	1.392166	-0.412215	0.850429
H145	H	1.281138	-0.406649	0.889948
H146	H	1.323047	-0.786322	0.826526
H147	H	1.108916	-0.909467	0.522164
H148	H	0.509503	-0.103484	0.801177
H149	H	1.322960	-0.560456	0.826438
O150	O	1.330348	-0.649434	0.836849
C151	C	1.371154	-0.620104	0.894885
H152	H	1.380390	-0.582833	0.859525
H153	H	1.438550	-0.629658	0.916260
H154	H	1.327522	-0.624105	0.955800
O155	O	1.055076	-0.639789	0.446049
C156	C	0.964463	-0.636474	0.449970
H157	H	0.947893	-0.630941	0.519158
H158	H	0.922501	-0.669657	0.434890
H159	H	0.949721	-0.606143	0.399035
O160	O	1.284129	-0.912036	0.771230
C161	C	1.325005	-0.944247	0.829268
H162	H	1.288620	-0.980560	0.826046
H163	H	1.322344	-0.936977	0.899889
H164	H	1.397100	-0.941249	0.808802
O165	O	1.101621	-0.997939	0.511817
C166	C	1.060783	-0.965723	0.453754
H167	H	1.051505	-0.936109	0.489087
H168	H	0.993405	-0.983269	0.432385
H169	H	1.104414	-0.951742	0.392839
O170	O	1.284012	-1.004494	0.771249
C171	C	1.224318	-1.040899	0.819092
H172	H	1.154395	-1.032232	0.812461
H173	H	1.244268	-1.045960	0.892008
H174	H	1.226021	-1.073945	0.791496
H175	H	1.062454	-0.551254	0.456282
O176	O	1.101358	-0.425555	0.511593
C177	C	1.060524	-0.393341	0.453520
H178	H	1.051252	-0.363722	0.488842
H179	H	0.993143	-0.410887	0.432157
H180	H	1.104155	-0.379367	0.392602
O181	O	1.101278	-0.333123	0.511711
C182	C	1.036056	-0.315041	0.551714
H183	H	1.018670	-0.336516	0.619740
H184	H	0.974153	-0.316133	0.508300
H185	H	1.062602	-0.277853	0.559447
H186	H	1.323017	-0.701203	0.826498
O187	O	1.246744	-0.137586	0.987629
C188	C	1.312433	-0.153797	0.944488
H189	H	1.313039	-0.191578	0.972948
H190	H	1.380042	-0.132650	0.955163
H191	H	1.297337	-0.150273	0.870469
H192	H	1.062578	-0.777114	0.456361
O193	O	1.055260	-0.688126	0.445905
C194	C	1.014419	-0.717458	0.387889
H195	H	1.050835	-0.748034	0.391141
H196	H	1.017071	-0.697629	0.317257
H197	H	0.942327	-0.730431	0.408354
