data_functionalizedCrystal
_audit_creation_method	'MofGen! by Chris Wilmer'
_symmetry_space_group_name_H-M	'P1'
_symmetry_Int_Tables_number	1
_symmetry_cell_setting	triclinic
loop_
_symmetry_equiv_pos_as_xyz
  x,y,z
_cell_length_a	12.759401
_cell_length_b	12.759393
_cell_length_c	12.759400
_cell_angle_alpha	89.969553
_cell_angle_beta	90.012280
_cell_angle_gamma	89.980316
loop_
_atom_site_label
_atom_site_type_symbol
_atom_site_fract_x
_atom_site_fract_y
_atom_site_fract_z
Zn1	Zn	1.606267	-0.594023	-0.418229
Zn2	Zn	1.606166	-0.418346	-0.593948
Zn3	Zn	1.430569	-0.418359	-0.418281
Zn4	Zn	1.430562	-0.593984	-0.593864
O5	O	1.518391	-0.506178	-0.506080
O6	O	1.753274	-0.570730	-0.441552
O7	O	1.582833	-0.271327	-0.570702
O8	O	1.453920	-0.441682	-0.271253
O9	O	1.753200	-0.441661	-0.570652
O10	O	1.583005	-0.570742	-0.271215
O11	O	1.453822	-0.271336	-0.441640
O12	O	1.283547	-0.441645	-0.441559
O13	O	1.453909	-0.741010	-0.570509
O14	O	1.283542	-0.570676	-0.570559
O15	O	1.582998	-0.741039	-0.441471
O16	O	1.582826	-0.441624	-0.740958
O17	O	1.453811	-0.570664	-0.740896
C18	C	1.245423	-0.506158	-0.506056
C19	C	1.128647	-0.506174	-0.506071
C20	C	1.073756	-0.439111	-0.438812
C21	C	0.964032	-0.439125	-0.438837
C22	C	0.964099	-0.573273	-0.573383
C23	C	1.073821	-0.573254	-0.573362
C24	C	1.128582	-0.372032	-0.371521
C25	C	1.073692	-0.304964	-0.304256
C26	C	0.963968	-0.304978	-0.304281
C27	C	0.909134	-0.372059	-0.371571
C28	C	1.518464	-0.780211	-0.505974
C29	C	1.518496	-0.896988	-0.505929
C30	C	1.585722	-0.951867	-0.438733
C31	C	1.585747	-1.061591	-0.438695
C32	C	1.451316	-1.061548	-0.573059
C33	C	1.451287	-0.951826	-0.573091
C34	C	1.652930	-0.897029	-0.371571
C35	C	1.720163	-0.951907	-0.304370
C36	C	1.720188	-1.061631	-0.304332
C37	C	1.652980	-1.116477	-0.371495
C38	C	1.792424	-0.506199	-0.506106
C39	C	1.909201	-0.506207	-0.506116
C40	C	1.518336	-0.506161	-0.779048
C41	C	1.518408	-0.506189	-0.895824
C42	C	1.518378	-0.233211	-0.506110
C43	C	1.518550	-0.116434	-0.505859
C44	C	1.585589	-0.573446	-0.950587
C45	C	1.585638	-0.573471	-1.060311
C46	C	1.451322	-0.438975	-1.060500
C47	C	1.451269	-0.438956	-0.950778
C48	C	1.663138	-0.651093	-0.950479
C49	C	1.663187	-0.651119	-1.060203
C50	C	1.518475	-0.506218	-0.232047
C51	C	1.518510	-0.506235	-0.115271
H52	H	0.919279	-0.250361	-0.249517
H53	H	1.396659	-0.384237	-1.105257
O54	O	1.133027	-0.645619	-0.645875
H55	H	1.218534	-0.634336	-0.634552
H56	H	1.744584	-0.629406	-1.089940
H57	H	1.652994	-1.205822	-0.371447
O58	O	1.652915	-0.778684	-0.371606
H59	H	1.674121	-0.749746	-0.450862
H60	H	1.396529	-0.907143	-0.627792
H61	H	1.774924	-1.106311	-0.249606
H62	H	1.396599	-1.106212	-0.627740
O63	O	1.246927	-0.372005	-0.371498
H64	H	1.275900	-0.451279	-0.350353
H65	H	1.641291	-0.732440	-0.920660
H66	H	1.118345	-0.250343	-0.249477
H67	H	1.396556	-0.384200	-0.906192
H68	H	0.819789	-0.372059	-0.371591
O69	O	0.904964	-0.645634	-0.645946
H70	H	0.819446	-0.634389	-0.634651
O71	O	1.624552	-0.753479	-1.105244
H72	H	1.687108	-0.789007	-1.154133
H73	H	1.774874	-0.907245	-0.249682
O74	O	1.765517	-0.612576	-0.905338
H75	H	1.819840	-0.592176	-0.970140
