data_functionalizedCrystal
_audit_creation_method	'MofGen! by Chris Wilmer'
_symmetry_space_group_name_H-M	'P1'
_symmetry_Int_Tables_number	1
_symmetry_cell_setting	triclinic
loop_
_symmetry_equiv_pos_as_xyz
  x,y,z
_cell_length_a	10.654549
_cell_length_b	10.489741
_cell_length_c	9.730217
_cell_angle_alpha	89.997012
_cell_angle_beta	89.997559
_cell_angle_gamma	84.513046
loop_
_atom_site_label
_atom_site_type_symbol
_atom_site_fract_x
_atom_site_fract_y
_atom_site_fract_z
O1	O	1.667917	0.179190	-0.114323
O2	O	1.302447	0.196253	-0.114318
O3	O	1.493498	0.002119	-0.114312
O4	O	1.476866	0.373323	-0.114328
O5	O	1.493492	0.002118	0.114268
O6	O	1.302441	0.196251	0.114262
O7	O	1.667911	0.179188	0.114257
Zn8	Zn	1.485175	0.187719	0.150552
Zn9	Zn	1.485183	0.187721	-0.150612
O10	O	1.476860	0.373321	0.114252
C11	C	1.255646	0.194998	-0.000027
C12	C	1.116201	0.191245	-0.000025
C13	C	0.826322	0.416340	-0.000074
C14	C	0.877914	0.534176	-0.000073
C15	C	1.008934	0.537706	-0.000055
C16	C	1.088366	0.423387	-0.000042
C17	C	1.036773	0.305551	-0.000043
C18	C	0.905749	0.302034	-0.000057
C19	C	1.064609	0.073409	-0.000026
C20	C	0.933589	0.069877	-0.000034
C21	C	1.144041	-0.040909	-0.000013
C22	C	1.092449	-0.158748	-0.000003
C23	C	0.961421	-0.162273	-0.000020
C24	C	0.881997	-0.047959	-0.000035
C25	C	1.492239	-0.045413	-0.000023
C26	C	1.488481	-0.187040	-0.000025
C27	C	1.366921	-0.255124	-0.000034
C28	C	1.424342	-0.347274	0.112667
C29	C	1.424376	-0.347247	-0.112695
C30	C	1.545952	-0.277325	0.112769
C31	C	1.545970	-0.277288	-0.112695
C32	C	1.603479	-0.369411	0.000034
C33	C	1.714713	0.180443	-0.000036
C34	C	1.854157	0.184195	-0.000047
C35	C	1.478119	0.420853	-0.000041
C36	C	1.481878	0.562481	-0.000047
N37	N	1.485179	0.187717	0.356088
N38	N	1.485189	0.187714	-0.356149
C39	C	1.654425	0.015862	0.356084
C40	C	1.739056	-0.070061	0.428022
C41	C	1.739069	-0.070062	0.571901
C42	C	1.654439	0.015868	0.643847
C43	C	1.569807	0.101791	0.571909
C44	C	1.569806	0.101785	0.428026
C45	C	1.400558	0.273637	0.571913
C46	C	1.400549	0.273646	0.428034
C47	C	1.315928	0.359567	0.643859
C48	C	1.231301	0.445498	0.571921
C49	C	1.231292	0.445496	0.428032
C50	C	1.315918	0.359570	0.356096
H51	H	0.719637	0.413477	-0.000065
H52	H	1.372904	-0.378262	0.207949
Cl53	Cl	1.308752	-0.036472	0.000000
H54	H	1.807978	-0.140033	0.630473
H55	H	1.157132	-0.251817	-0.000002
H56	H	1.315937	0.359557	0.761013
Cl57	Cl	1.073796	0.685843	-0.000064
Cl58	Cl	1.124913	0.553505	0.662370
Cl59	Cl	1.253077	0.427829	-0.000046
H60	H	1.597339	-0.246518	0.208155
H61	H	1.162371	0.515461	0.369468
Cl62	Cl	1.757923	-0.445796	0.000123
Cl63	Cl	0.896574	-0.310419	-0.000029
Cl64	Cl	0.778052	0.677883	-0.000101
Cl65	Cl	1.315920	0.359564	0.175217
H66	H	0.775312	-0.050819	-0.000036
Cl67	Cl	1.212614	-0.178394	0.000134
Cl68	Cl	1.625319	-0.229388	-0.259811
Cl69	Cl	1.344936	-0.395047	-0.259792
Cl70	Cl	1.654434	0.015870	0.175205
Cl71	Cl	1.845439	-0.178087	0.337574
H72	H	1.654444	0.015851	0.761001
