data_functionalizedCrystal
_audit_creation_method	'MofGen! by Chris Wilmer'
_symmetry_space_group_name_H-M	'P1'
_symmetry_Int_Tables_number	1
_symmetry_cell_setting	triclinic
loop_
_symmetry_equiv_pos_as_xyz
  x,y,z
_cell_length_a	15.297475
_cell_length_b	16.120444
_cell_length_c	16.120256
_cell_angle_alpha	95.616860
_cell_angle_beta	83.675350
_cell_angle_gamma	83.688625
loop_
_atom_site_label
_atom_site_type_symbol
_atom_site_fract_x
_atom_site_fract_y
_atom_site_fract_z
Zn1	Zn	1.308562	-0.577536	-0.709556
Zn2	Zn	1.808562	-0.077536	-0.209556
Zn3	Zn	1.308448	-0.710203	-0.576848
Zn4	Zn	1.808448	-0.210203	-0.076848
Zn5	Zn	1.168346	-0.546812	-0.546217
Zn6	Zn	1.668346	-0.046812	-0.046217
Zn7	Zn	1.152483	-0.690935	-0.690339
Zn8	Zn	1.652483	-0.190935	-0.190339
O9	O	1.234460	-0.631372	-0.630740
O10	O	1.734460	-0.131372	-0.130740
O11	O	1.432500	-0.616057	-0.712813
O12	O	1.932500	-0.116057	-0.212813
O13	O	1.296454	-0.683734	-0.456931
O14	O	1.796454	-0.183734	0.043069
O15	O	1.193632	-0.435049	-0.563107
O16	O	1.693632	0.064951	-0.063107
O17	O	1.432416	-0.713527	-0.615313
O18	O	1.932416	-0.213527	-0.115313
O19	O	1.296648	-0.457623	-0.683112
O20	O	1.796648	0.042377	-0.183112
O21	O	1.193521	-0.563691	-0.434426
O22	O	1.693521	-0.063691	0.065574
O23	O	1.042288	-0.545008	-0.544474
O24	O	1.542288	-0.045008	-0.044474
O25	O	1.166596	-0.680688	-0.808742
O26	O	1.666596	-0.180688	-0.308742
O27	O	1.030634	-0.650895	-0.650359
O28	O	1.530634	-0.150895	-0.150359
O29	O	1.281267	-0.597374	-0.822860
O30	O	1.781267	-0.097374	-0.322860
O31	O	1.281073	-0.823485	-0.596679
O32	O	1.781073	-0.323485	-0.096679
O33	O	1.166486	-0.809329	-0.680061
O34	O	1.666486	-0.309329	-0.180061
C35	C	1.004321	-0.592527	-0.592008
C36	C	1.504321	-0.092527	-0.092008
C37	C	0.905865	-0.575930	-0.575458
C38	C	1.405865	-0.075930	-0.075458
C39	C	0.604160	-0.750000	-0.749023
C40	C	1.104160	-0.250000	-0.249023
C41	C	0.696664	-0.765600	-0.764569
C42	C	1.196664	-0.265600	-0.264569
C43	C	0.748969	-0.718183	-0.717293
C44	C	1.248969	-0.218183	-0.217293
C45	C	0.708760	-0.655165	-0.654467
C46	C	1.208760	-0.155165	-0.154467
C47	C	0.616246	-0.639568	-0.638914
C48	C	1.116246	-0.139568	-0.138914
C49	C	0.761056	-0.607752	-0.607185
C50	C	1.261056	-0.107752	-0.107185
C51	C	0.720847	-0.544733	-0.544359
C52	C	1.220847	-0.044733	-0.044359
C53	C	0.628342	-0.529139	-0.528809
C54	C	1.128342	-0.029139	-0.028809
C55	C	0.576038	-0.576555	-0.576085
C56	C	1.076038	-0.076555	-0.076085
C57	C	0.853569	-0.623349	-0.622738
C58	C	1.353569	-0.123349	-0.122738
C59	C	0.865656	-0.512917	-0.512629
C60	C	1.365656	-0.012917	-0.012629
C61	C	0.773152	-0.497317	-0.497083
C62	C	1.273152	0.002683	0.002917
C63	C	1.222068	-0.846448	-0.639631
C64	C	1.722068	-0.346448	-0.139631
C65	C	1.216847	-0.938473	-0.643476
C66	C	1.716847	-0.438473	-0.143476
C67	C	1.261753	-1.154958	-0.611009
C68	C	1.761753	-0.654958	-0.111009
C69	C	1.207329	-1.106962	-0.650507
C70	C	1.707329	-0.606962	-0.150507
C71	C	1.212627	-1.013206	-0.646593
C72	C	1.712627	-0.513206	-0.146593
C73	C	1.256458	-1.248723	-0.614921
C74	C	1.756458	-0.748723	-0.114921
C75	C	1.465497	-0.670369	-0.669624
C76	C	1.965497	-0.170369	-0.169624
C77	C	1.563951	-0.686987	-0.686194
C78	C	2.063951	-0.186987	-0.186194
C79	C	1.222175	-0.640309	-0.846681
C80	C	1.722175	-0.140309	-0.346681
C81	C	1.216940	-0.644117	-0.938702
C82	C	1.716940	-0.144117	-0.438702
C83	C	1.246922	-0.415461	-0.621836
C84	C	1.746922	0.084539	-0.121836
C85	C	1.252233	-0.323452	-0.618042
C86	C	1.752233	0.176548	-0.118042
C87	C	1.261760	-0.611490	-1.155166
C88	C	1.761760	-0.111490	-0.655166
C89	C	1.207354	-0.651031	-1.107175
C90	C	1.707354	-0.151031	-0.607175
C91	C	1.212689	-0.647183	-1.013428
C92	C	1.712689	-0.147183	-0.513428
C93	C	1.256426	-0.615337	-1.248921
C94	C	1.756426	-0.115337	-0.748921
C95	C	1.246751	-0.622418	-0.415645
C96	C	1.746751	-0.122418	0.084355
C97	C	1.252171	-0.618406	-0.323644
C98	C	1.752171	-0.118406	0.176356
H99	H	0.824290	-0.730888	-0.729956
H100	H	1.324290	-0.230888	-0.229956
H101	H	0.886298	-0.674659	-0.673892
H102	H	1.386298	-0.174659	-0.173892
H103	H	1.312341	-0.574752	-1.125848
H104	H	1.812341	-0.074752	-0.625848
C105	C	1.330060	-1.115349	-0.561352
C106	C	1.830060	-0.615349	-0.061352
H107	H	1.324693	-1.056615	-0.565198
H108	H	1.824693	-0.556615	-0.065198
H109	H	1.388099	-1.139952	-0.584094
H110	H	1.888099	-0.639952	-0.084094
H111	H	1.319513	-1.125025	-0.504118
H112	H	1.819513	-0.625025	-0.004118
C113	C	1.139004	-1.146564	-0.700154
C114	C	1.639004	-0.646564	-0.200154
H115	H	1.105556	-1.104120	-0.724425
H116	H	1.605556	-0.604120	-0.224425
H117	H	1.100373	-1.172534	-0.663344
H118	H	1.600373	-0.672534	-0.163344
H119	H	1.168938	-1.187466	-0.743335
H120	H	1.668938	-0.687466	-0.243335
C121	C	0.740888	-0.834908	-0.833677
C122	C	1.240888	-0.334908	-0.333677
H123	H	0.696490	-0.860908	-0.859611
H124	H	1.196490	-0.360908	-0.359611
H125	H	0.776704	-0.875698	-0.809505
H126	H	1.276704	-0.375698	-0.309505
H127	H	0.776744	-0.810872	-0.874564
H128	H	1.276744	-0.310872	-0.374564
C129	C	0.546629	-0.802098	-0.801073
C130	C	1.046629	-0.302098	-0.301073
H131	H	0.583822	-0.841848	-0.840733
H132	H	1.083822	-0.341848	-0.340733
H133	H	0.510345	-0.765852	-0.829807
H134	H	1.010345	-0.265852	-0.329807
H135	H	0.510237	-0.830737	-0.764806
H136	H	1.010237	-0.330737	-0.264806
C137	C	0.474281	-0.559410	-0.558972
C138	C	0.974281	-0.059410	-0.058972
H139	H	0.448894	-0.596680	-0.596123
H140	H	0.948894	-0.096680	-0.096123
H141	H	0.455595	-0.503081	-0.567643
H142	H	0.955595	-0.003081	-0.067643
H143	H	0.455577	-0.567912	-0.502588
H144	H	0.955577	-0.067912	-0.002588
C145	C	0.584114	-0.459824	-0.459699
C146	C	1.084114	0.040176	0.040301
H147	H	0.628511	-0.433813	-0.433775
H148	H	1.128511	0.066187	0.066225
H149	H	0.548255	-0.483852	-0.418813
H150	H	1.048255	0.016148	0.081187
H151	H	0.548302	-0.419034	-0.483882
H152	H	1.048302	0.080966	0.016118
C153	C	1.139031	-0.700681	-1.146780
C154	C	1.639031	-0.200681	-0.646780
H155	H	1.144372	-0.696798	-1.205509
H156	H	1.644372	-0.196798	-0.705509
H157	H	1.080998	-0.677967	-1.122136
H158	H	1.580998	-0.177967	-0.622136
H159	H	1.149592	-0.757922	-1.137144
H160	H	1.649592	-0.257922	-0.637144
H161	H	0.740400	-0.446007	-0.445929
H162	H	1.240400	0.053993	0.054071
H163	H	0.908243	-0.474308	-0.474132
H164	H	1.408243	0.025692	0.025868
