data_functionalizedCrystal
_audit_creation_method	'MofGen! by Chris Wilmer'
_symmetry_space_group_name_H-M	'P1'
_symmetry_Int_Tables_number	1
_symmetry_cell_setting	triclinic
loop_
_symmetry_equiv_pos_as_xyz
  x,y,z
_cell_length_a	14.560438
_cell_length_b	21.606444
_cell_length_c	21.606444
_cell_angle_alpha	59.991153
_cell_angle_beta	90.003018
_cell_angle_gamma	60.003196
loop_
_atom_site_label
_atom_site_type_symbol
_atom_site_fract_x
_atom_site_fract_y
_atom_site_fract_z
Zr1	Zr	0.884768	0.677502	-0.081317
O2	O	0.738113	0.806638	-0.180168
O3	O	0.929725	0.548370	-0.050998
O4	O	0.929716	0.677506	-0.180142
O5	O	0.738129	0.677498	0.050830
O6	O	1.080857	0.677504	-0.180139
O7	O	0.738121	0.677503	-0.051024
O8	O	1.080873	0.446504	0.050876
O9	O	0.738114	0.908499	-0.180185
O10	O	1.061694	0.601481	-0.038083
O11	O	0.948905	0.601479	0.037927
O12	O	0.948895	0.753520	-0.114124
O13	O	0.836106	0.753518	-0.038114
Zr14	Zr	1.125833	0.677492	0.081134
Zr15	Zr	1.125820	0.677499	-0.081311
Zr16	Zr	0.884780	0.677495	0.081129
Zr17	Zr	0.884769	0.839957	-0.081344
Zr18	Zr	1.125831	0.515037	0.081161
O19	O	1.080876	0.806624	0.050816
O20	O	1.080858	0.806634	-0.180161
O21	O	0.738130	0.806628	0.050808
O22	O	1.272488	0.548356	0.179986
O23	O	1.272470	0.548366	-0.050991
O24	O	0.929742	0.548360	0.179978
O25	O	1.272471	0.677496	-0.051012
O26	O	1.080884	0.677488	0.179960
O27	O	0.929743	0.677490	0.179957
O28	O	1.272479	0.677491	0.050842
O29	O	0.929718	0.908496	-0.180181
O30	O	1.080882	0.446498	0.179999
O31	O	1.272487	0.446496	0.180003
O32	O	1.272477	0.446501	0.050880
O33	O	0.738123	0.908493	-0.051063
O34	O	0.929728	0.908491	-0.051058
O35	O	1.061706	0.601474	0.113942
O36	O	1.174495	0.601476	0.037932
O37	O	1.061695	0.753515	-0.038109
O38	O	0.948906	0.753513	0.037901
C39	C	1.005299	0.474290	-0.000057
C40	C	1.005298	0.405324	-0.000046
C41	C	0.922026	0.429062	-0.056176
C42	C	0.922029	0.364273	-0.056191
C43	C	1.005300	0.275746	-0.000073
C44	C	1.088581	0.252008	0.056060
C45	C	1.088581	0.316797	0.056072
C46	C	1.088580	-0.009279	0.056012
C47	C	1.088571	-0.074068	0.055997
C48	C	0.922027	0.038198	-0.056251
C49	C	0.922028	0.102986	-0.056239
C50	C	1.005312	0.079243	-0.000109
C51	C	1.005309	0.149496	-0.000093
C52	C	1.005299	0.205494	-0.000085
C53	C	0.703780	0.677501	-0.000098
C54	C	0.601447	0.677502	-0.000100
C55	C	0.553360	0.677506	-0.056211
C56	C	0.457214	0.677498	-0.056201
C57	C	0.457249	0.677485	0.056034
C58	C	0.553398	0.677487	0.056027
C59	C	0.601409	0.677521	-0.112338
C60	C	0.553321	0.677525	-0.168454
C61	C	0.457175	0.677517	-0.168444
C62	C	0.409118	0.677504	-0.112317
C63	C	1.306820	0.677493	-0.000084
C64	C	1.409153	0.677492	-0.000082
C65	C	1.005285	0.677506	-0.203286
C66	C	1.005280	0.677509	-0.272248
C67	C	1.005302	0.880704	-0.000125
C68	C	1.005302	0.949670	-0.000137
C69	C	0.946399	0.756871	-0.344339
C70	C	0.946409	0.756868	-0.409134
C71	C	1.005293	0.677503	-0.401836
C72	C	1.064181	0.598135	-0.329738
C73	C	1.064177	0.598138	-0.264944
C74	C	1.064199	0.598120	-0.591041
C75	C	1.064195	0.598122	-0.655841
C76	C	0.946430	0.756850	-0.735230
C77	C	0.946427	0.756853	-0.670437
C78	C	1.005319	0.677486	-0.598344
C79	C	1.005309	0.677489	-0.528087
C80	C	1.005297	0.677498	-0.472092
C81	C	1.005316	0.677488	0.203103
C82	C	1.005321	0.677485	0.272066
C83	C	1.306818	0.474287	-0.000050
C84	C	1.409151	0.405319	-0.000037
C85	C	1.005314	0.474282	0.203137
C86	C	1.005318	0.405312	0.272111
C87	C	1.306834	0.474278	0.203144
C88	C	1.409171	0.405307	0.272120
C89	C	0.703767	0.880716	-0.203326
C90	C	0.601429	0.949687	-0.272303
C91	C	0.703782	0.880708	-0.000132
C92	C	0.601450	0.949675	-0.000146
C93	C	1.005287	0.880712	-0.203320
C94	C	1.005282	0.949682	-0.272294
C95	C	1.398327	0.372933	-0.039716
C96	C	1.494470	0.308140	-0.039718
C97	C	1.601436	0.275728	-0.000036
C98	C	1.612258	0.308120	0.039644
C99	C	1.516116	0.372917	0.039642
C100	C	1.064201	0.372921	0.344188
C101	C	1.064201	0.308126	0.409003
C102	C	1.005325	0.275719	0.401739
C103	C	0.946434	0.308116	0.329654
C104	C	0.946428	0.372915	0.264842
C105	C	1.516115	0.372919	0.264836
C106	C	1.612281	0.308122	0.329640
C107	C	1.601502	0.275711	0.401728
C108	C	1.494547	0.308106	0.409011
C109	C	1.398383	0.372906	0.344208
C110	C	0.494485	0.982083	-0.265018
C111	C	0.398319	1.046900	-0.329822
C112	C	0.409099	1.079314	-0.401910
C113	C	0.516054	1.046915	-0.409193
C114	C	0.612218	0.982105	-0.344390
C115	C	0.612274	0.982068	0.039527
C116	C	0.516131	1.046879	0.039511
C117	C	0.409165	1.079293	-0.000173
C118	C	0.398343	1.046898	-0.039851
C119	C	0.494485	0.982092	-0.039839
C120	C	1.064170	0.982068	-0.265005
C121	C	1.064188	1.046864	-0.329808
C122	C	1.005310	1.079276	-0.401897
C123	C	0.946420	1.046883	-0.409184
C124	C	0.946409	0.982085	-0.344383
H125	H	1.156385	-0.146154	0.101698
F126	F	0.703733	0.677534	-0.112355
F127	F	1.284494	0.407418	-0.081956
F128	F	0.726107	0.947584	0.081766
H129	H	1.112153	0.533493	-0.532348
H130	H	0.699294	0.955728	-0.350330
F131	F	1.703859	0.206744	0.470692
F132	F	1.483091	0.273603	0.485739
H133	H	0.330889	1.132062	-0.000176
H134	H	1.112142	1.073231	-0.323860
F135	F	1.284568	0.407365	0.351972
H136	H	1.112161	0.281755	0.467691
F137	F	0.883738	0.841337	-0.485858
H138	H	0.592552	0.677483	0.101718
F139	F	1.126875	0.407397	0.351936
H140	H	1.112150	0.533489	-0.649891
F141	F	1.005342	0.206753	0.470726
H142	H	0.524964	1.073244	0.071824
H143	H	0.311238	1.073299	-0.072160
H144	H	0.898483	0.399279	0.206156
H145	H	0.485687	0.955695	-0.206326
F146	F	0.284501	1.081367	-0.322055
H147	H	0.898498	0.281721	0.323751
F148	F	0.482947	0.947620	-0.082062
H149	H	0.330787	1.132087	-0.454671
F150	F	1.703750	0.206764	-0.000039
F151	F	0.833391	0.523278	-0.115902
F152	F	0.527509	1.081421	-0.485921
F153	F	1.177211	-0.034557	0.115756
F154	F	1.126841	0.947584	-0.188288
F155	F	1.527613	0.407405	0.188120
H156	H	1.112132	0.533514	-0.323800
F157	F	1.005329	1.148243	-0.470859
H158	H	0.898483	1.073283	-0.467888
F159	F	0.406005	0.677512	-0.228161
H160	H	1.112124	0.533513	-0.206245
H161	H	0.898441	0.821500	-0.350290
F162	F	1.726100	0.273654	0.321873
H163	H	1.699363	0.281722	0.071952
F164	F	0.883740	0.841325	-0.678210
H165	H	1.524945	0.399277	0.071958
H166	H	0.854220	0.383609	-0.101898
F167	F	0.833395	0.197203	-0.115964
F168	F	0.604475	0.677529	-0.228179
H169	H	0.854218	0.057524	-0.101958
F170	F	1.177214	0.291529	0.115811
F171	F	1.177208	0.157789	0.115783
F172	F	0.306798	0.677485	-0.112306
F173	F	0.406099	0.677474	0.115762
F174	F	0.883719	0.947629	-0.352151
H175	H	1.485636	0.281774	-0.072031
F176	F	0.883754	0.841321	-0.811963
