data_functionalizedCrystal
_audit_creation_method	'MofGen! by Chris Wilmer'
_symmetry_space_group_name_H-M	'P1'
_symmetry_Int_Tables_number	1
_symmetry_cell_setting	triclinic
loop_
_symmetry_equiv_pos_as_xyz
  x,y,z
_cell_length_a	11.792241
_cell_length_b	15.944551
_cell_length_c	10.868271
_cell_angle_alpha	89.993912
_cell_angle_beta	89.999893
_cell_angle_gamma	83.846077
loop_
_atom_site_label
_atom_site_type_symbol
_atom_site_fract_x
_atom_site_fract_y
_atom_site_fract_z
O1	O	1.505960	0.115128	-0.102206
O2	O	2.005960	0.615128	0.397794
O3	O	1.175521	0.126993	-0.102235
O4	O	1.675521	0.626993	0.397765
O5	O	1.349764	-0.001173	-0.102208
O6	O	1.849764	0.498827	0.397792
O7	O	1.331717	0.243295	-0.102232
O8	O	1.831717	0.743295	0.397768
O9	O	1.349750	-0.001178	0.102436
O10	O	1.849750	0.498822	0.602436
O11	O	1.175507	0.126988	0.102410
O12	O	1.675507	0.626988	0.602410
O13	O	1.505946	0.115123	0.102439
O14	O	2.005946	0.615123	0.602439
Zn15	Zn	1.340724	0.121055	0.134916
Zn16	Zn	1.840724	0.621055	0.634916
Zn17	Zn	1.340743	0.121062	-0.134712
Zn18	Zn	1.840743	0.621062	0.365288
O19	O	1.331703	0.243290	0.102413
O20	O	1.831703	0.743290	0.602413
C21	C	1.133229	0.126245	0.000084
C22	C	1.633229	0.626245	0.500084
C23	C	1.007234	0.124015	0.000073
C24	C	1.507234	0.624015	0.500073
C25	C	1.349008	-0.032473	0.000114
C26	C	1.849008	0.467527	0.500114
C27	C	1.346761	-0.125729	0.000115
C28	C	1.846761	0.374271	0.500115
C29	C	0.776555	0.119913	0.000109
C30	C	1.276555	0.619913	0.500109
C31	C	0.904922	0.122192	0.000090
C32	C	1.404922	0.622192	0.500090
C33	C	1.233389	-0.341098	0.000088
C34	C	1.733389	0.158902	0.500088
C35	C	1.286028	-0.401880	0.100995
C36	C	1.786028	0.098120	0.600995
C37	C	1.342698	-0.296474	0.000105
C38	C	1.842698	0.203526	0.500105
C39	C	1.286068	-0.401858	-0.100769
C40	C	1.786068	0.098142	0.399231
C41	C	1.338765	-0.461404	0.000090
C42	C	1.838765	0.038596	0.500090
C43	C	1.395368	-0.356028	0.101095
C44	C	1.895368	0.143972	0.601095
C45	C	1.395392	-0.356000	-0.100759
C46	C	1.895392	0.144000	0.399241
C47	C	1.448111	-0.416764	0.000172
C48	C	1.948111	0.083236	0.500172
C49	C	1.344961	-0.201461	0.000114
C50	C	1.844961	0.298539	0.500114
C51	C	1.336511	-0.556415	0.000089
C52	C	1.836511	-0.056415	0.500089
C53	C	1.548237	0.115871	0.000118
C54	C	2.048237	0.615871	0.500118
C55	C	1.674233	0.118102	0.000120
C56	C	2.174233	0.618102	0.500120
C57	C	1.332459	0.274590	0.000087
C58	C	1.832459	0.774590	0.500087
C59	C	1.334705	0.367846	0.000079
C60	C	1.834705	0.867846	0.500079
N61	N	1.340719	0.121050	0.318930
N62	N	1.840719	0.621050	0.818930
N63	N	1.340756	0.121060	-0.318726
N64	N	1.840756	0.621060	0.181274
C65	C	1.340737	0.121060	0.569936
C66	C	1.840737	0.621060	1.069936
C67	C	1.340723	0.121057	0.430259
C68	C	1.840723	0.621057	0.930259
H69	H	1.142657	-0.308200	0.000181
H70	H	1.642657	0.191800	0.500181
F71	F	1.225620	-0.428389	-0.212265
F72	F	1.725620	0.071611	0.287735
H73	H	1.441556	-0.335831	0.186497
H74	H	1.941556	0.164169	0.686497
F75	F	1.566806	-0.459571	0.000253
F76	F	2.066806	0.040429	0.500253
F77	F	1.455780	-0.329411	-0.212259
F78	F	1.955780	0.170589	0.287741
H79	H	1.239789	-0.422199	0.186295
H80	H	1.739789	0.077801	0.686295
