data_functionalizedCrystal
_audit_creation_method	'MofGen! by Chris Wilmer'
_symmetry_space_group_name_H-M	'P1'
_symmetry_Int_Tables_number	1
_symmetry_cell_setting	triclinic
loop_
_symmetry_equiv_pos_as_xyz
  x,y,z
_cell_length_a	12.837943
_cell_length_b	17.666332
_cell_length_c	12.837942
_cell_angle_alpha	90.005376
_cell_angle_beta	94.828940
_cell_angle_gamma	90.008016
loop_
_atom_site_label
_atom_site_type_symbol
_atom_site_fract_x
_atom_site_fract_y
_atom_site_fract_z
O1	O	1.402343	0.062934	0.272143
O2	O	1.099210	0.062939	0.258700
O3	O	1.244055	0.062932	0.113854
O4	O	1.257498	0.062941	0.416988
O5	O	1.244026	-0.062965	0.113843
O6	O	1.099181	-0.062958	0.258688
O7	O	1.402314	-0.062963	0.272132
Cu8	Cu	1.250745	-0.074456	0.265409
Cu9	Cu	1.250779	0.074432	0.265422
O10	O	1.257469	-0.062956	0.416977
C11	C	1.060126	-0.000009	0.254153
C12	C	0.943711	-0.000008	0.240608
N13	N	1.250728	-0.179175	0.265399
C14	C	0.718837	-0.000014	0.403437
C15	C	0.609454	-0.000013	0.390716
C16	C	0.615562	-0.000010	0.202445
C17	C	0.724944	-0.000011	0.215166
C18	C	0.776578	-0.000012	0.315666
C19	C	0.885962	-0.000007	0.328386
C20	C	0.892067	-0.000010	0.140116
C21	C	0.782685	-0.000009	0.127395
C22	C	1.314892	-0.218788	0.201299
C23	C	1.314898	-0.298036	0.201295
C24	C	1.250751	-0.337667	0.265410
C25	C	1.186574	-0.298045	0.329514
C26	C	1.186563	-0.218799	0.329509
N27	N	1.246575	-0.462083	0.356722
N28	N	1.246592	-0.537364	0.356724
C29	C	1.250780	-0.576431	0.265427
N30	N	1.254971	-0.537375	0.174127
N31	N	1.254959	-0.462087	0.174126
C32	C	1.250756	-0.423596	0.265422
C33	C	1.314953	-0.701973	0.201316
C34	C	1.314952	-0.781222	0.201310
C35	C	1.186634	-0.781230	0.329539
C36	C	1.186630	-0.701983	0.329536
C37	C	1.250795	-0.662359	0.265426
C38	C	1.441398	-0.000013	0.276679
C39	C	1.557813	-0.000010	0.290223
C40	C	1.239499	-0.000016	0.074780
C41	C	1.225954	-0.000015	-0.041635
N42	N	1.250803	0.179151	0.265424
C43	C	1.388784	-0.000001	-0.266510
C44	C	1.376062	0.000000	-0.375892
C45	C	1.187791	-0.000005	-0.369785
C46	C	1.200513	-0.000006	-0.260402
C47	C	1.301012	-0.000006	-0.208769
C48	C	1.313732	-0.000013	-0.099384
C49	C	1.125462	-0.000012	-0.093279
C50	C	1.112741	-0.000011	-0.202661
C51	C	1.262025	-0.000006	0.456051
C52	C	1.275569	-0.000003	0.572467
H53	H	0.928000	-0.000009	0.410218
H54	H	1.367136	-0.186529	0.149095
N55	N	1.035797	-0.000002	-0.034298
N56	N	0.971356	0.053066	-0.044457
H57	H	0.908031	0.053071	-0.002802
H58	H	0.562446	-0.000016	0.462189
H59	H	1.134343	-0.330317	0.381716
H60	H	1.030917	-0.000008	-0.244717
N61	N	1.380445	-0.338499	0.135805
N62	N	1.437724	-0.303111	0.078568
H63	H	1.484018	-0.331685	0.032315
N64	N	1.121112	-0.821692	0.395047
N65	N	1.063833	-0.786309	0.452286
H66	H	1.017554	-0.814886	0.498553
H67	H	0.573502	-0.000072	0.120623
H68	H	0.760878	-0.000013	0.485268
N69	N	0.729938	-0.000022	0.024743
N70	N	0.669575	-0.053093	-0.003371
H71	H	0.632324	-0.053101	-0.075872
N72	N	0.951033	-0.000016	0.050441
N73	N	0.904914	-0.000015	-0.039280
H74	H	0.946558	-0.000017	-0.102613
N75	N	1.121008	-0.178343	0.394992
N76	N	1.063730	-0.213733	0.452228
H77	H	1.017432	-0.185161	0.498478
N78	N	1.380355	-0.661505	0.135684
N79	N	1.437539	-0.696887	0.078350
H80	H	1.483676	-0.668309	0.031942
H81	H	1.367198	-0.813476	0.149106
H82	H	1.134386	-0.669728	0.381737
H83	H	1.470614	-0.000008	-0.224469
H84	H	1.105969	0.000003	-0.411844
H85	H	1.395564	-0.000015	-0.057346
H86	H	1.447536	0.000006	-0.422901
