data_functionalizedCrystal
_audit_creation_method	'MofGen! by Chris Wilmer'
_symmetry_space_group_name_H-M	'P1'
_symmetry_Int_Tables_number	1
_symmetry_cell_setting	triclinic
loop_
_symmetry_equiv_pos_as_xyz
  x,y,z
_cell_length_a	12.759395
_cell_length_b	19.805405
_cell_length_c	19.805399
_cell_angle_alpha	89.970699
_cell_angle_beta	90.016240
_cell_angle_gamma	89.972053
loop_
_atom_site_label
_atom_site_type_symbol
_atom_site_fract_x
_atom_site_fract_y
_atom_site_fract_z
Zn1	Zn	1.606139	0.269451	0.382651
Zn2	Zn	1.606007	0.382640	0.269460
Zn3	Zn	1.430450	0.269473	0.269483
Zn4	Zn	1.430394	0.382607	0.382613
O5	O	1.518247	0.326043	0.326052
O6	O	1.753142	0.284471	0.367643
O7	O	1.582687	0.367651	0.174746
O8	O	1.453835	0.174753	0.284520
O9	O	1.753045	0.367630	0.284481
O10	O	1.582912	0.174737	0.367665
O11	O	1.453707	0.284508	0.174763
O12	O	1.283422	0.284476	0.284483
O13	O	1.453738	0.367573	0.477335
O14	O	1.283380	0.367594	0.367600
O15	O	1.582858	0.284439	0.477363
O16	O	1.582632	0.477352	0.284444
O17	O	1.453610	0.477328	0.367577
C18	C	1.245280	0.326034	0.326040
C19	C	1.128503	0.326047	0.326051
C20	C	1.518306	0.326000	0.502594
C21	C	1.518331	0.325982	0.577826
C22	C	1.518129	0.501899	0.326019
C23	C	1.518175	0.577131	0.326028
C24	C	1.128498	0.412739	0.412460
C25	C	1.073635	0.456090	0.455667
C26	C	0.963914	0.456098	0.455675
C27	C	0.909053	0.412749	0.412474
C28	C	0.963916	0.369398	0.369267
C29	C	1.073640	0.369396	0.369262
C30	C	0.963921	0.282704	0.282862
C31	C	1.073642	0.282698	0.282850
C32	C	0.909060	0.239355	0.239661
C33	C	0.963923	0.196006	0.196450
C34	C	1.073651	0.196000	0.196443
C35	C	1.128505	0.239347	0.239643
C36	C	1.792281	0.326051	0.326064
C37	C	1.909057	0.326055	0.326069
C38	C	1.518395	0.149500	0.326099
C39	C	1.518457	0.074268	0.326120
C40	C	1.585422	0.612465	0.282785
C41	C	1.585466	0.683153	0.282800
C42	C	1.518258	0.718506	0.326055
C43	C	1.451008	0.683167	0.369302
C44	C	1.450969	0.612480	0.369289
C45	C	1.451163	0.968240	0.369352
C46	C	1.451204	1.038932	0.369359
C47	C	1.585660	1.038914	0.282863
C48	C	1.585621	0.968226	0.282851
C49	C	1.518376	0.932893	0.326100
C50	C	1.518330	0.856245	0.326084
C51	C	1.518298	0.795153	0.326067
C52	C	1.518249	0.326036	0.150196
C53	C	1.518428	0.325864	0.074964
C54	C	1.585565	0.282691	0.613186
C55	C	1.585576	0.282672	0.683875
C56	C	1.518357	0.325946	0.719202
C57	C	1.451116	0.369239	0.683837
C58	C	1.451101	0.369254	0.613150
C59	C	1.451175	0.369176	0.968911
C60	C	1.451198	0.369158	1.039603
C61	C	1.585651	0.282593	1.039636
C62	C	1.585635	0.282609	0.968948
C63	C	1.518391	0.325898	0.933590
C64	C	1.518378	0.325918	0.856941
C65	C	1.518374	0.325930	0.795849
H66	H	1.217839	0.412741	0.412453
H67	H	1.640225	0.711919	0.247588
C68	C	1.378385	0.416228	1.077994
C69	C	1.437848	0.459618	1.118551
C70	C	1.370816	0.502993	1.153919
H71	H	1.332620	0.390407	1.105631
H72	H	1.338352	0.442051	1.046832
H73	H	1.477862	0.433798	1.149709
H74	H	1.483609	0.485454	1.090931
H75	H	1.330783	0.528816	1.122757
H76	H	1.325055	0.477166	1.181552
H77	H	1.411152	0.532442	1.181436
C78	C	0.789933	0.239237	0.239738
C79	C	0.753673	0.174830	0.257149
C80	C	0.643940	0.174701	0.257233
H81	H	0.764950	0.250838	0.196061
H82	H	0.765074	0.271234	0.271676
H83	H	0.778521	0.142844	0.225213
H84	H	0.778627	0.163217	0.300827
H85	H	0.619081	0.206697	0.289171
H86	H	0.618967	0.186304	0.213554
H87	H	0.619323	0.131003	0.269052
H88	H	1.640401	0.247342	1.068433
H89	H	1.396341	0.404499	0.584361
H90	H	0.819712	0.412754	0.412490
C91	C	1.377999	0.721426	0.416340
C92	C	1.319119	0.675349	0.454221
C93	C	1.251860	0.710566	0.497566
H94	H	1.332166	0.749045	0.390503
H95	H	1.418155	0.748945	0.445894
H96	H	1.278966	0.647842	0.424671
H97	H	1.364925	0.647728	0.480071
H98	H	1.292016	0.738085	0.527120
H99	H	1.206034	0.738185	0.471724
H100	H	1.211910	0.679309	0.523278
C101	C	0.904306	0.149059	0.149466
C102	C	0.841278	0.187327	0.106008
C103	C	0.786351	0.144103	0.062709
H104	H	0.861456	0.119591	0.175339
H105	H	0.952659	0.123254	0.123689
H106	H	0.792930	0.213121	0.131781
H107	H	0.884101	0.216793	0.080119
H108	H	0.834704	0.118298	0.036932
H109	H	0.743507	0.114638	0.088588
H110	H	0.743587	0.170062	0.033213
H111	H	1.217847	0.239348	0.239640
H112	H	1.640345	0.939444	0.247627
C113	C	1.378195	0.416333	0.722105
C114	C	1.400993	0.483305	0.704878
C115	C	1.333832	0.526709	0.740109
H116	H	1.387769	0.410218	0.769278
H117	H	1.307592	0.406468	0.710504
H118	H	1.471579	0.493167	0.716484
H119	H	1.391414	0.489442	0.657711
H120	H	1.263229	0.516843	0.728508
H121	H	1.343411	0.520587	0.787281
H122	H	1.349285	0.572154	0.728421
H123	H	1.396436	0.404435	0.940130
C124	C	1.658506	0.574207	0.235795
C125	C	1.717426	0.620285	0.197941
C126	C	1.784775	0.585069	0.154653
H127	H	1.618445	0.546672	0.206216
H128	H	1.704301	0.546603	0.261692
H129	H	1.671637	0.647877	0.172046
H130	H	1.757508	0.647821	0.227503
H131	H	1.830570	0.557465	0.180550
H132	H	1.744706	0.557535	0.125078
H133	H	1.824767	0.616327	0.128969
C134	C	1.378133	0.574076	0.416321
C135	C	1.437566	0.533449	0.459741
C136	C	1.370509	0.498069	0.503085
H137	H	1.332344	0.546486	0.390479
H138	H	1.338127	0.605231	0.442124
H139	H	1.477554	0.502298	0.433940
H140	H	1.483352	0.561022	0.485598
H141	H	1.330503	0.529223	0.528888
H142	H	1.324725	0.470483	0.477237
H143	H	1.410825	0.470504	0.532554
H144	H	1.640306	0.247454	0.584428
H145	H	1.396407	0.939477	0.404565
C146	C	1.378197	1.077195	0.416402
C147	C	1.319319	1.031123	0.454290
C148	C	1.252069	1.066346	0.497636
H149	H	1.332363	1.104814	0.390566
H150	H	1.418360	1.104715	0.445952
H151	H	1.279160	1.003615	0.424744
H152	H	1.365125	1.003502	0.480140
H153	H	1.292231	1.093866	0.527186
H154	H	1.206242	1.093964	0.471795
H155	H	1.212119	1.035092	0.523353
H156	H	1.640419	1.067690	0.247650
H157	H	1.640327	0.247422	0.712662
C158	C	1.133145	0.503069	0.502682
C159	C	1.106526	0.488416	0.569681
C160	C	1.161333	0.531671	0.613012
H161	H	1.115175	0.548558	0.492780
H162	H	1.206359	0.496852	0.496535
H163	H	1.033329	0.494638	0.575825
H164	H	1.124499	0.442935	0.579605
H165	H	1.234547	0.525453	0.606865
H166	H	1.143358	0.577157	0.603104
H167	H	1.143287	0.521730	0.658476
C168	C	0.904282	0.503049	0.502668
C169	C	0.841359	0.464784	0.546135
C170	C	0.786421	0.508010	0.589439
H171	H	0.861360	0.532518	0.476800
H172	H	0.952629	0.528853	0.528439
H173	H	0.793019	0.438991	0.520367
H174	H	0.884256	0.435317	0.572018
H175	H	0.834768	0.533814	0.615210
H176	H	0.743505	0.537476	0.563565
H177	H	0.743729	0.482053	0.618940
H178	H	1.118314	0.160694	0.161264
H179	H	1.640375	0.247372	0.940188
