data_functionalizedCrystal
_audit_creation_method	'MofGen! by Chris Wilmer'
_symmetry_space_group_name_H-M	'P1'
_symmetry_Int_Tables_number	1
_symmetry_cell_setting	triclinic
loop_
_symmetry_equiv_pos_as_xyz
  x,y,z
_cell_length_a	17.917603
_cell_length_b	14.560438
_cell_length_c	14.560438
_cell_angle_alpha	89.999908
_cell_angle_beta	63.034974
_cell_angle_gamma	57.011745
loop_
_atom_site_label
_atom_site_type_symbol
_atom_site_fract_x
_atom_site_fract_y
_atom_site_fract_z
Zr1	Zr	0.818641	-0.166383	0.930595
O2	O	0.974663	-0.321767	0.792688
O3	O	0.662615	-0.112690	0.966813
O4	O	0.818639	-0.313030	0.975551
O5	O	0.818641	0.029711	0.783947
O6	O	0.818642	-0.313032	1.126690
O7	O	0.818639	-0.121427	0.783949
O8	O	0.539543	0.045339	1.111057
O9	O	1.097740	-0.328660	0.799580
O10	O	0.726793	-0.097113	1.102372
O11	O	0.726793	0.015681	0.989578
O12	O	0.910492	-0.220194	0.999867
O13	O	0.910491	-0.107400	0.887073
Zr14	Zr	0.818648	0.074662	1.171641
Zr15	Zr	0.818644	-0.166386	1.171643
Zr16	Zr	0.818644	0.074664	0.930593
Zr17	Zr	1.014934	-0.177377	0.941587
Zr18	Zr	0.622355	0.085656	1.160649
O19	O	0.974673	0.020969	1.135424
O20	O	0.974668	-0.321770	1.135427
O21	O	0.974668	0.020972	0.792685
O22	O	0.662625	0.230045	1.309549
O23	O	0.662620	-0.112694	1.309552
O24	O	0.662620	0.230049	0.966810
O25	O	0.818647	-0.121433	1.318289
O26	O	0.818649	0.221308	1.126685
O27	O	0.818647	0.221310	0.975547
O28	O	0.818649	0.029705	1.318288
O29	O	1.097743	-0.328662	0.991181
O30	O	0.539545	0.236940	1.111056
O31	O	0.539548	0.236938	1.302657
O32	O	0.539546	0.045337	1.302658
O33	O	1.097742	-0.137059	0.799578
O34	O	1.097745	-0.137061	0.991179
O35	O	0.726797	0.128472	1.102370
O36	O	0.726797	0.015678	1.215163
O37	O	0.910495	-0.107402	1.112659
O38	O	0.910495	0.005392	0.999865
C39	C	0.573111	-0.032109	1.037369
C40	C	0.489780	-0.027442	1.032702
C41	C	0.818640	-0.045858	0.749604
C42	C	0.818638	-0.045856	0.647273
C43	C	0.818648	0.255653	1.051116
C44	C	0.818650	0.357984	1.051115
C45	C	0.337210	-0.018919	1.024177
C46	C	0.300073	-0.072800	1.078057
C47	C	0.215178	-0.068058	1.073313
C48	C	0.422113	-0.023660	1.028919
C49	C	1.064177	-0.059613	1.064868
C50	C	1.147508	-0.064280	1.069534
C51	C	0.818640	-0.347375	1.051121
C52	C	0.818639	-0.449706	1.051122
C53	C	0.914536	0.341816	0.997614
C54	C	0.914531	0.437972	0.997613
C55	C	0.722744	0.566460	1.104624
C56	C	0.722751	0.470306	1.104617
C57	C	1.010436	0.229495	0.944111
C58	C	1.106330	0.213322	0.890607
C59	C	1.106325	0.309477	0.890607
C60	C	1.010426	0.421805	0.944111
C61	C	0.818637	0.037410	0.599200
C62	C	0.818647	0.037403	0.503043
C63	C	0.818654	-0.129140	0.503041
C64	C	0.818652	-0.129137	0.599192
C65	C	0.818624	0.120691	0.647281
C66	C	0.818622	0.203964	0.599209
C67	C	0.818632	0.203958	0.503051
C68	C	0.818644	0.120678	0.454966
C69	C	0.818649	-0.045864	1.352633
C70	C	0.818650	-0.045865	1.454964
C71	C	0.573116	-0.032112	1.338883
C72	C	0.489786	-0.027446	1.436548
C73	C	0.573116	0.269405	1.037366
C74	C	0.489785	0.376403	1.032699
C75	C	0.573120	0.269402	1.338881
C76	C	0.489792	0.376399	1.436545
C77	C	1.064168	-0.361123	0.763356
C78	C	1.147497	-0.468121	0.665692
C79	C	1.064172	-0.059609	0.763353
C80	C	1.147502	-0.064275	0.665688
C81	C	1.064173	-0.361127	1.064870
C82	C	1.147503	-0.468125	1.069537
C83	C	0.450652	-0.084141	1.423536
C84	C	0.372365	-0.079780	1.515294
C85	C	0.333209	-0.018716	1.620062
C86	C	0.372351	0.037980	1.633072
C87	C	0.450642	0.033611	1.541316
C88	C	0.450654	0.485537	1.089383
C89	C	0.372368	0.586082	1.084994
C90	C	0.333208	0.577491	1.023927
C91	C	0.372347	0.468346	0.967235
C92	C	0.450638	0.367803	0.971619
C93	C	0.450660	0.367769	1.541296
C94	C	0.372375	0.468294	1.633071
C95	C	0.333217	0.577449	1.620093
C96	C	0.372357	0.586077	1.515331
C97	C	0.450646	0.485552	1.423558
C98	C	1.186638	-0.459491	0.560941
C99	C	1.264947	-0.560018	0.469167
C100	C	1.304109	-0.669173	0.482146
C101	C	1.264964	-0.677800	0.586908
C102	C	1.186661	-0.577275	0.678680
C103	C	1.186645	-0.007591	0.678701
C104	C	1.264953	-0.011980	0.586944
C105	C	1.304112	-0.073047	0.482176
C106	C	1.264966	-0.129738	0.469166
C107	C	1.186665	-0.125356	0.560922
C108	C	1.186637	-0.459497	1.130615
C109	C	1.264925	-0.560023	1.135022
C110	C	1.304081	-0.669177	1.078344
C111	C	1.264939	-0.677803	1.017264
C112	C	1.186648	-0.577277	1.012864
H113	H	0.332039	-0.122492	1.127747
Cl114	Cl	1.402509	-0.795543	1.083883
H115	H	1.367867	-0.751018	0.407410
H116	H	0.482532	-0.133880	1.338237
H117	H	0.818613	0.120706	0.725578
Cl118	Cl	1.314185	-0.815036	0.946006
Cl119	Cl	0.287858	0.057801	0.947466
Cl120	Cl	1.010449	0.108610	0.944111
H121	H	0.482495	0.079786	1.551925
H122	H	0.482529	0.492554	1.139111
H123	H	1.184408	0.121860	0.847037
Cl124	Cl	1.226876	0.289145	0.823325
Cl125	Cl	1.137427	-0.322287	1.201880
H126	H	1.367870	-0.076606	0.407471
Cl127	Cl	0.818669	0.120667	0.334073
H128	H	1.296859	-0.766686	0.597462
H129	H	0.340452	0.461368	0.917515
H130	H	0.482497	0.492595	1.338268
H131	H	1.010429	0.500096	0.944095
Cl132	Cl	0.499815	0.230611	0.900357
Cl133	Cl	0.602194	0.707668	1.171886
H134	H	0.644671	0.483475	1.148179
Cl135	Cl	0.818621	0.308644	0.659649
Cl136	Cl	0.818642	0.308633	0.442613
Cl137	Cl	0.234783	0.703901	1.018429
H138	H	0.818662	-0.196942	0.463884
H139	H	1.154793	-0.584319	0.963123
Cl140	Cl	0.818657	-0.233822	0.659625
Cl141	Cl	0.323170	-0.151056	1.498914
H142	H	0.269459	-0.015167	1.694767
Cl143	Cl	1.137457	-0.588144	0.810363
Cl144	Cl	0.323110	0.114747	1.764789
H145	H	1.154768	0.042144	0.764000
Cl146	Cl	0.323178	0.723278	1.156274
H147	H	1.296861	-0.179458	0.383851
H148	H	0.482530	0.278899	1.551884
H149	H	0.340515	0.461249	1.718365
H150	H	1.154797	-0.171512	0.550311
H151	H	1.296786	-0.552978	1.184758
Cl152	Cl	0.234793	0.703814	1.735477
H153	H	0.340464	0.674964	1.504779
Cl154	Cl	1.314138	-0.549145	0.337479
Cl155	Cl	1.137423	-0.322280	0.544596
Cl156	Cl	1.314144	0.059302	0.603324
