data_functionalizedCrystal
_audit_creation_method	'MofGen! by Chris Wilmer'
_symmetry_space_group_name_H-M	'P1'
_symmetry_Int_Tables_number	1
_symmetry_cell_setting	triclinic
loop_
_symmetry_equiv_pos_as_xyz
  x,y,z
_cell_length_a	14.446369
_cell_length_b	18.426585
_cell_length_c	14.446369
_cell_angle_alpha	120.002844
_cell_angle_beta	90.001603
_cell_angle_gamma	59.997627
loop_
_atom_site_label
_atom_site_type_symbol
_atom_site_fract_x
_atom_site_fract_y
_atom_site_fract_z
Zr1	Zr	0.891764	0.794322	0.121413
O2	O	0.743951	0.945740	0.269224
O3	O	0.937077	0.642917	0.076105
O4	O	0.937073	0.794332	0.269224
O5	O	0.743957	0.794312	-0.076236
O6	O	1.089410	0.794326	0.269219
O7	O	0.743955	0.794324	0.076105
O8	O	1.089417	0.523471	-0.076236
O9	O	0.743950	1.065166	0.269218
O10	O	1.070089	0.705182	0.056772
O11	O	0.956403	0.705177	-0.056914
O12	O	0.956399	0.883450	0.170458
O13	O	0.842713	0.883445	0.056772
Zr14	Zr	1.134728	0.794291	-0.121563
Zr15	Zr	1.134724	0.794311	0.121404
Zr16	Zr	0.891768	0.794301	-0.121554
Zr17	Zr	0.891762	0.984793	0.121404
Zr18	Zr	1.134729	0.603819	-0.121554
O19	O	1.089415	0.945696	-0.076256
O20	O	1.089409	0.945725	0.269211
O21	O	0.743957	0.945711	-0.076243
O22	O	1.282540	0.642873	-0.269374
O23	O	1.282535	0.642902	0.076093
O24	O	0.937082	0.642888	-0.269362
O25	O	1.282534	0.794301	0.076086
O26	O	1.089419	0.794280	-0.269374
O27	O	0.937082	0.794287	-0.269369
O28	O	1.282536	0.794288	-0.076256
O29	O	0.937071	1.065158	0.269211
O30	O	1.089420	0.523455	-0.269361
O31	O	1.282541	0.523446	-0.269369
O32	O	1.282538	0.523463	-0.076243
O33	O	0.743953	1.065150	0.076092
O34	O	0.937074	1.065142	0.076085
O35	O	1.070093	0.705163	-0.170609
O36	O	1.183778	0.705168	-0.056922
O37	O	1.070088	0.883435	0.056764
O38	O	0.956402	0.883431	-0.056922
C39	C	1.013247	0.556056	-0.000064
C40	C	1.013248	0.475195	-0.000060
C41	C	0.709340	0.794319	-0.000064
C42	C	0.606197	0.794324	-0.000060
C43	C	1.013241	0.179086	-0.000093
C44	C	1.013240	0.261473	-0.000086
C45	C	1.013244	0.327139	-0.000076
C46	C	1.013244	0.409530	-0.000070
C47	C	0.387826	0.906745	0.071280
C48	C	0.495058	0.906821	0.071681
C49	C	0.602873	0.738485	0.052245
C50	C	0.495104	0.739198	0.052768
C51	C	0.496470	0.736868	-0.123797
C52	C	0.602439	0.738987	-0.123602
C53	C	1.317152	0.794293	-0.000086
C54	C	1.420295	0.794289	-0.000090
C55	C	1.013241	0.794332	0.303839
C56	C	1.013239	0.794341	0.406985
C57	C	1.013244	1.032557	-0.000086
C58	C	1.013244	1.113417	-0.000090
C59	C	0.941523	0.906787	0.517981
C60	C	0.941135	0.906834	0.625291
C61	C	0.961311	0.738160	0.518118
C62	C	0.960773	0.738902	0.411278
C63	C	1.136915	0.737244	0.410120
C64	C	1.136723	0.739339	0.518777
C65	C	1.013245	0.794294	0.696020
C66	C	1.013231	0.794326	0.592900
C67	C	1.317153	0.556043	-0.000075
C68	C	1.420297	0.475178	-0.000075
C69	C	1.013252	0.556030	-0.303978
C70	C	1.013254	0.475161	-0.407120
C71	C	1.317158	0.556017	-0.303989
C72	C	1.420303	0.475144	-0.407135
C73	C	0.709333	1.032596	0.303839
C74	C	0.606188	1.113469	0.406984
C75	C	0.709338	1.032570	-0.000075
C76	C	0.606195	1.113435	-0.000075
C77	C	1.013239	1.032583	0.303828
C78	C	1.013237	1.113451	0.406969
C79	C	1.409389	0.437211	0.059283
C80	C	1.506294	0.361240	0.059306
C81	C	1.614106	0.323234	-0.000037
C82	C	1.625011	0.361208	-0.059396
C83	C	1.528107	0.437182	-0.059412
C84	C	1.072600	0.437177	-0.514914
C85	C	1.072598	0.361203	-0.611836
C86	C	1.013256	0.323209	-0.600961
C87	C	0.953903	0.361201	-0.493156
C88	C	0.953899	0.437179	-0.396236
C89	C	1.528094	0.437167	-0.396230
C90	C	1.625019	0.361189	-0.493137
C91	C	1.614151	0.323183	-0.600947
C92	C	1.506349	0.361167	-0.611850
C93	C	1.409426	0.437149	-0.514944
C94	C	0.498397	1.151455	0.396080
C95	C	0.401472	1.227457	0.492986
C96	C	0.412340	1.265466	0.600797
C97	C	0.520143	1.227478	0.611700
C98	C	0.617065	1.151482	0.514794
C99	C	0.617102	1.151410	-0.059423
C100	C	0.520197	1.227401	-0.059419
C101	C	0.412386	1.265411	-0.000073
C102	C	0.401481	1.227432	0.059282
C103	C	0.498385	1.151448	0.059284
C104	C	1.072591	1.151421	0.396058
C105	C	1.072611	1.227396	0.492962
C106	C	1.013270	1.265405	0.600775
C107	C	0.953915	1.227428	0.611684
C108	C	0.953902	1.151449	0.514781
H109	H	0.493298	0.950856	0.036869
C110	C	0.486426	1.109658	0.277498
H111	H	0.559581	1.058950	0.221335
H112	H	0.446165	1.164203	0.268996
H113	H	0.446151	1.080022	0.269003
H114	H	0.333870	0.950875	0.036373
C115	C	0.709367	0.628107	-0.201484
H116	H	0.757914	0.614045	-0.159486
H117	H	0.747987	0.620100	-0.262701
H118	H	0.688163	0.581761	-0.230296
C119	C	1.743587	0.319410	-0.481124
H120	H	1.736169	0.352918	-0.403035
H121	H	1.783871	0.331862	-0.516447
H122	H	1.783860	0.247672	-0.516463
H123	H	0.905588	0.330255	-0.484318
H124	H	0.905601	1.258386	0.699478
C125	C	0.888593	1.109703	0.526797
H126	H	0.853248	1.143235	0.604888
H127	H	0.939796	1.037968	0.491466
H128	H	0.832422	1.122175	0.491472
C129	C	1.540066	0.478967	-0.277648
H130	H	1.466911	0.529654	-0.221485
H131	H	1.580327	0.508609	-0.269152
H132	H	1.580339	0.424418	-0.269147
H133	H	0.976134	0.951167	0.520491
H134	H	0.905577	0.468096	-0.308469
H135	H	0.332839	0.950672	0.161984
C136	C	1.028503	0.626397	0.481283
H137	H	1.088959	0.612966	0.511260
H138	H	1.058339	0.581117	0.400874
H139	H	0.979661	0.616165	0.509013
C140	C	1.137889	1.269168	0.480942
H141	H	1.173207	1.235660	0.402852
H142	H	1.194061	1.256714	0.516262
H143	H	1.086657	1.340907	0.516281
H144	H	1.321613	0.468155	0.107620
C145	C	0.819003	0.965811	0.519214
H146	H	0.811366	0.922223	0.452379
H147	H	0.801908	1.024031	0.522209
H148	H	0.768147	0.987576	0.583809
C149	C	1.494279	0.319471	0.124589
H150	H	1.416190	0.352978	0.159908
H151	H	1.529598	0.331930	0.180762
H152	H	1.529620	0.247731	0.073360
H153	H	1.537004	0.468086	-0.107754
H154	H	0.444758	0.778892	0.143800
C155	C	0.531103	0.627744	-0.012907
H156	H	0.611466	0.582232	-0.039781
H157	H	0.504008	0.612936	-0.075365
H158	H	0.500058	0.619304	0.035926
C159	C	1.137864	0.478969	-0.526898
H160	H	1.173189	0.445468	-0.604984
H161	H	1.194029	0.466522	-0.491569
H162	H	1.086621	0.550708	-0.491555
H163	H	1.120913	1.120486	0.308280
C164	C	1.013283	1.348987	0.707357
H165	H	1.057124	1.366159	0.685408
H166	H	1.045054	1.324099	0.751210
H167	H	0.937670	1.408282	0.751197
H168	H	1.120934	0.330279	-0.699606
C169	C	0.708608	0.626747	-0.014585
H170	H	0.755836	0.613127	-0.075121
H171	H	0.685977	0.581451	-0.044288
H172	H	0.749258	0.616736	0.034428
C173	C	0.305802	1.348989	-0.000088
H174	H	0.327749	1.366150	-0.043944
H175	H	0.261952	1.408282	0.075516
H176	H	0.261960	1.324084	-0.031873
H177	H	1.013268	0.261343	-0.679888
C178	C	0.605743	0.790894	0.174056
H179	H	0.608960	0.846796	0.193220
H180	H	0.670713	0.742780	0.178944
H181	H	0.539301	0.815462	0.225160
H182	H	1.693081	0.261313	-0.679845
H183	H	0.492610	0.950912	0.162936
C184	C	1.720690	0.239655	-0.000022
H185	H	1.698743	0.222483	0.043821
H186	H	1.764542	0.264545	0.031747
H187	H	1.764529	0.180359	-0.075635
C188	C	0.282902	1.269229	0.480980
H189	H	0.226727	1.319942	0.554128
H190	H	0.274408	1.214679	0.440720
H191	H	0.274418	1.298853	0.440695
C192	C	0.428906	0.785481	-0.182818
H193	H	0.353600	0.841257	-0.132559
H194	H	0.427334	0.735544	-0.248997
H195	H	0.464093	0.809660	-0.203281
H196	H	1.190591	0.654407	0.331888
H197	H	1.712804	0.330252	-0.107710
H198	H	0.528978	1.258435	0.699491
C199	C	1.494408	0.319345	-0.730444
H200	H	1.567575	0.268645	-0.786587
H201	H	1.454143	0.373873	-0.738972
H202	H	1.454156	0.289689	-0.738947
H203	H	1.321661	0.468060	-0.523839
H204	H	0.333410	1.327346	0.679695
H205	H	0.601921	0.779701	-0.162677
C206	C	0.839557	0.790221	0.587619
H207	H	0.820183	0.846176	0.662192
H208	H	0.834910	0.741961	0.591109
H209	H	0.788458	0.814666	0.552439
H210	H	0.704831	1.120555	0.523686
H211	H	0.313688	1.258391	0.107599
C212	C	0.533545	0.624958	-0.195975
H213	H	0.502776	0.613243	-0.151000
H214	H	0.613936	0.579816	-0.222833
H215	H	0.506765	0.612785	-0.258610
C216	C	0.988118	0.966349	0.698841
H217	H	1.007610	0.990720	0.663257
H218	H	1.053617	0.922185	0.707331
H219	H	0.932090	1.022884	0.771312
H220	H	0.869777	0.778347	0.411407
C221	C	0.735682	1.109612	-0.124709
H222	H	0.728283	1.143128	-0.160040
H223	H	0.775955	1.037878	-0.180872
H224	H	0.775955	1.122069	-0.073481
C225	C	0.532213	1.269154	-0.124724
H226	H	0.610302	1.235617	-0.160082
H227	H	0.496891	1.340887	-0.073515
H228	H	0.496874	1.256694	-0.180886
C229	C	0.486372	1.109670	0.124554
H230	H	0.408283	1.143187	0.159883
H231	H	0.521704	1.122114	0.180717
H232	H	0.521700	1.037933	0.073318
H233	H	0.849900	0.950686	0.678934
C234	C	1.214941	0.628475	0.484248
H235	H	1.288928	0.597150	0.439577
H236	H	1.186002	0.590672	0.441500
H237	H	1.218159	0.629207	0.550369
H238	H	1.180333	0.773480	0.406163
C239	C	1.026833	0.627437	0.305072
H240	H	1.026966	0.627135	0.239117
H241	H	0.991643	0.596160	0.307212
H242	H	1.102661	0.590255	0.303361
C243	C	1.189137	0.794657	0.588462
H244	H	1.135994	0.851026	0.662423
H245	H	1.208139	0.818885	0.552346
H246	H	1.255608	0.748187	0.593629
