data_functionalizedCrystal
_audit_creation_method	'MofGen! by Chris Wilmer'
_symmetry_space_group_name_H-M	'P1'
_symmetry_Int_Tables_number	1
_symmetry_cell_setting	triclinic
loop_
_symmetry_equiv_pos_as_xyz
  x,y,z
_cell_length_a	14.853567
_cell_length_b	14.853567
_cell_length_c	13.330367
_cell_angle_alpha	90.000844
_cell_angle_beta	90.004582
_cell_angle_gamma	83.634930
loop_
_atom_site_label
_atom_site_type_symbol
_atom_site_fract_x
_atom_site_fract_y
_atom_site_fract_z
O1	O	-1.196369	-0.117704	-0.083346
O2	O	-0.696369	0.382296	0.416654
O3	O	-0.933909	-0.131725	-0.083362
O4	O	-0.433909	0.368275	0.416638
O5	O	-1.072150	0.006515	-0.083356
O6	O	-0.572150	0.506515	0.416644
O7	O	-1.058128	-0.255944	-0.083351
O8	O	-0.558128	0.244056	0.416649
O9	O	-1.072130	0.006519	0.083491
O10	O	-0.572130	0.506519	0.583491
O11	O	-0.933889	-0.131722	0.083485
O12	O	-0.433889	0.368278	0.583485
O13	O	-1.196349	-0.117700	0.083501
O14	O	-0.696349	0.382300	0.583501
Cu15	Cu	-1.065117	-0.124711	0.098728
Cu16	Cu	-0.565117	0.375289	0.598728
Cu17	Cu	-1.065141	-0.124715	-0.098588
Cu18	Cu	-0.565141	0.375285	0.401412
O19	O	-1.058108	-0.255941	0.083496
O20	O	-0.558108	0.244059	0.583496
C21	C	-1.071504	0.040106	0.000064
C22	C	-0.571504	0.540106	0.500064
C23	C	-1.069601	0.140189	0.000055
C24	C	-0.569601	0.640189	0.500055
C25	C	-0.900311	-0.131088	0.000060
C26	C	-0.400311	0.368912	0.500060
C27	C	-0.800227	-0.129184	0.000053
C28	C	-0.300227	0.370816	0.500053
C29	C	-1.229947	-0.118337	0.000078
C30	C	-0.729947	0.381663	0.500078
C31	C	-1.330031	-0.120241	0.000078
C32	C	-0.830031	0.379759	0.500078
C33	C	-0.387693	-0.039019	0.000074
C34	C	0.112307	0.460981	0.500074
C35	C	-0.366412	-0.203251	0.000076
C36	C	0.133588	0.296749	0.500076
C37	C	-0.460446	-0.205042	0.000073
C38	C	0.039554	0.294958	0.500073
C39	C	-0.518108	-0.123819	0.000069
C40	C	-0.018108	0.376181	0.500069
C41	C	-0.481736	-0.040806	0.000067
C42	C	0.018264	0.459194	0.500067
C43	C	-0.496825	-0.288053	0.000064
C44	C	0.003175	0.211947	0.500064
C45	C	-0.590864	-0.289846	0.000059
C46	C	-0.090864	0.210154	0.500059
C47	C	-0.648528	-0.208623	0.000062
C48	C	-0.148528	0.291377	0.500062
C49	C	-0.612150	-0.125607	0.000062
C50	C	-0.112150	0.374393	0.500062
C51	C	-0.669812	-0.044384	0.000058
C52	C	-0.169812	0.455616	0.500058
C53	C	-0.633437	0.038633	0.000065
C54	C	-0.133437	0.538633	0.500065
C55	C	-0.539399	0.040417	0.000070
C56	C	-0.039399	0.540417	0.500070
C57	C	-0.742565	-0.210407	0.000057
C58	C	-0.242565	0.289593	0.500057
C59	C	-0.763855	-0.046172	0.000052
C60	C	-0.263855	0.453828	0.500052
C61	C	-1.058754	-0.289531	0.000073
C62	C	-0.558754	0.210469	0.500073
C63	C	-1.060657	-0.389615	0.000075
C64	C	-0.560657	0.110385	0.500075
N65	N	-1.065107	-0.124708	0.237509
N66	N	-0.565107	0.375292	0.737509
C67	C	-0.979435	0.552723	0.000069
C68	C	-0.479435	1.052723	0.500069
C69	C	-1.143668	0.574004	0.000079
C70	C	-0.643668	1.074004	0.500079
C71	C	-1.145458	0.479971	0.000073
C72	C	-0.645458	0.979971	0.500073
C73	C	-1.064235	0.422309	0.000067
C74	C	-0.564235	0.922309	0.500067
C75	C	-0.981223	0.458680	0.000066
C76	C	-0.481223	0.958680	0.500066
C77	C	-1.228469	0.443591	0.000084
C78	C	-0.728469	0.943591	0.500084
C79	C	-1.230262	0.349552	0.000079
C80	C	-0.730262	0.849552	0.500079
C81	C	-1.149039	0.291889	0.000066
C82	C	-0.649039	0.791889	0.500066
C83	C	-1.066023	0.328266	0.000064
C84	C	-0.566023	0.828266	0.500064
C85	C	-0.984800	0.270604	0.000058
C86	C	-0.484800	0.770604	0.500058
C87	C	-0.901783	0.306979	0.000049
C88	C	-0.401783	0.806979	0.500049
C89	C	-0.899999	0.401017	0.000053
C90	C	-0.399999	0.901017	0.500053
C91	C	-1.150823	0.197851	0.000062
C92	C	-0.650823	0.697851	0.500062
C93	C	-0.986588	0.176561	0.000055
C94	C	-0.486588	0.676561	0.500055
N95	N	-1.065158	-0.124711	-0.237370
N96	N	-0.565158	0.375289	0.262630
C97	C	-1.003925	-0.185903	0.710130
C98	C	-0.503925	0.314097	1.210130
C99	C	-1.126381	-0.063519	0.710103
C100	C	-0.626381	0.436481	1.210103
C101	C	-1.126371	-0.063516	0.605084
C102	C	-0.626371	0.436484	1.105084
C103	C	-1.065138	-0.124709	0.552584
C104	C	-0.565138	0.375291	1.052584
C105	C	-1.003915	-0.185904	0.605102
C106	C	-0.503915	0.314096	1.105102
C107	C	-1.187598	-0.002328	0.552559
C108	C	-0.687598	0.497672	1.052559
C109	C	-1.187591	-0.002323	0.447534
C110	C	-0.687591	0.497677	0.947534
C111	C	-1.126353	-0.063512	0.395031
C112	C	-0.626353	0.436488	0.895031
C113	C	-1.065127	-0.124710	0.447556
C114	C	-0.565127	0.375290	0.947556
C115	C	-1.003895	-0.185902	0.395055
C116	C	-0.503895	0.314098	0.895055
C117	C	-0.942664	-0.247096	0.447578
C118	C	-0.442664	0.252904	0.947578
C119	C	-0.942677	-0.247093	0.552599
C120	C	-0.442677	0.252907	1.052599
C121	C	-1.126340	-0.063515	0.290010
C122	C	-0.626340	0.436485	0.790010
C123	C	-1.003884	-0.185903	0.290027
C124	C	-0.503884	0.314097	0.790027
H125	H	-0.810798	0.019971	0.000052
H126	H	-0.310798	0.519971	0.500052
C127	C	-1.254949	0.064976	0.610308
C128	C	-0.754949	0.564976	1.110308
H129	H	-1.246177	0.056218	0.680377
H130	H	-0.746177	0.556218	1.180377
H131	H	-1.315125	0.055074	0.593090
H132	H	-0.815125	0.555074	1.093090
H133	H	-1.245082	0.125167	0.593099
H134	H	-0.745082	0.625167	1.093099
H135	H	-0.358072	0.028572	0.000083
H136	H	0.141928	0.528572	0.500083
C137	C	-1.317807	0.507014	0.000090
C138	C	-0.817807	1.007014	0.500090
H139	H	-1.367503	0.471884	0.000104
H140	H	-0.867503	0.971884	0.500104
H141	H	-1.320529	0.544139	-0.058094
H142	H	-0.820529	1.044139	0.441906
H143	H	-1.320513	0.544140	0.058280
H144	H	-0.820513	1.044140	0.558280
H145	H	-0.892826	-0.296916	0.595370
H146	H	-0.392826	0.203084	1.095370
H147	H	-1.209795	0.620958	0.000092
H148	H	-0.709795	1.120958	0.500092
C149	C	-1.321575	0.309547	0.000076
C150	C	-0.821575	0.809547	0.500076
H151	H	-1.369691	0.357357	0.000072
H152	H	-0.869691	0.857357	0.500072
H153	H	-1.325685	0.273298	0.058253
H154	H	-0.825685	0.773298	0.558253
H155	H	-1.325689	0.273313	-0.058121
H156	H	-0.825689	0.773313	0.441879
H157	H	-0.954070	-0.235724	0.752896
H158	H	-0.454070	0.264276	1.252896
C159	C	-1.242129	0.157841	0.000074
C160	C	-0.742129	0.657841	0.500074
H161	H	-1.290246	0.205650	0.000077
H162	H	-0.790246	0.705650	0.500077
H163	H	-1.246229	0.121594	0.058255
H164	H	-0.746229	0.621594	0.558255
H165	H	-1.246251	0.121604	-0.058119
H166	H	-0.746251	0.621604	0.441881
H167	H	-0.920445	0.129618	0.000045
H168	H	-0.420445	0.629618	0.500045
H169	H	-0.772178	-0.277998	0.000053
H170	H	-0.272178	0.222002	0.500053
H171	H	-0.835652	0.260019	0.000051
H172	H	-0.335652	0.760019	0.500051
H173	H	-0.680397	0.104764	0.000055
H174	H	-0.180397	0.604764	0.500055
C175	C	-0.808691	0.441032	0.000057
C176	C	-0.308691	0.941032	0.500057
H177	H	-0.819262	0.505295	0.000073
H178	H	-0.319262	1.005295	0.500073
H179	H	-0.775244	0.421256	-0.058126
H180	H	-0.275244	0.921256	0.441874
H181	H	-0.775243	0.421244	0.058248
H182	H	-0.275243	0.921244	0.558248
C183	C	-1.254933	0.064993	0.389768
C184	C	-0.754933	0.564993	0.889768
H185	H	-1.291397	0.101441	0.436078
H186	H	-0.791397	0.601441	0.936078
H187	H	-1.292494	0.032500	0.348784
H188	H	-0.792494	0.532500	0.848784
H189	H	-1.222444	0.102586	0.348814
H190	H	-0.722444	0.602586	0.848814
C191	C	-1.193731	0.003787	0.767850
C192	C	-0.693731	0.503787	1.267850
H193	H	-1.184966	-0.004974	0.837919
H194	H	-0.684966	0.495026	1.337919
H195	H	-1.253907	-0.006110	0.750624
H196	H	-0.753907	0.493890	1.250624
H197	H	-1.183858	0.063978	0.750645
H198	H	-0.683858	0.563978	1.250645
C199	C	-0.936529	-0.253219	0.232285
C200	C	-0.436529	0.246781	0.732285
H201	H	-0.900072	-0.289664	0.278608
H202	H	-0.400072	0.210336	0.778608
H203	H	-0.898961	-0.220722	0.191318
H204	H	-0.398961	0.279278	0.691318
H205	H	-0.969006	-0.290814	0.191314
H206	H	-0.469006	0.209186	0.691314
H207	H	-1.176197	-0.013696	0.247251
H208	H	-0.676197	0.486304	0.747251
H209	H	-0.911844	0.582344	0.000058
H210	H	-0.411844	1.082344	0.500058
H211	H	-0.509774	0.108005	0.000100
H212	H	-0.009774	0.608005	0.500100
C213	C	-0.302988	-0.292588	0.000083
C214	C	0.197012	0.207412	0.500083
H215	H	-0.241773	-0.279634	0.000092
H216	H	0.258227	0.220366	0.500092
H217	H	-0.314027	-0.326628	-0.058097
H218	H	0.185973	0.173372	0.441903
H219	H	-0.314024	-0.326615	0.058277
H220	H	0.185976	0.173385	0.558277
H221	H	-0.449870	-0.354180	0.000057
H222	H	0.050130	0.145820	0.500057
H223	H	-0.892811	-0.296924	0.404820
H224	H	-0.392811	0.203076	0.904820
H225	H	-0.620472	-0.357443	0.000053
H226	H	-0.120472	0.142557	0.500053
