data_functionalizedCrystal
_audit_creation_method	'MofGen! by Chris Wilmer'
_symmetry_space_group_name_H-M	'P1'
_symmetry_Int_Tables_number	1
_symmetry_cell_setting	triclinic
loop_
_symmetry_equiv_pos_as_xyz
  x,y,z
_cell_length_a	19.288859
_cell_length_b	14.044220
_cell_length_c	13.101039
_cell_angle_alpha	93.673600
_cell_angle_beta	86.652663
_cell_angle_gamma	88.161302
loop_
_atom_site_label
_atom_site_type_symbol
_atom_site_fract_x
_atom_site_fract_y
_atom_site_fract_z
O1	O	0.925436	0.123426	0.085238
O2	O	1.425436	0.623426	0.585238
O3	O	0.724200	0.139379	0.085236
O4	O	1.224200	0.639379	0.585236
O5	O	0.821798	-0.006569	0.085227
O6	O	1.321798	0.493431	0.585227
O7	O	0.827838	0.269375	0.085248
O8	O	1.327838	0.769375	0.585248
O9	O	0.828803	-0.017054	-0.085203
O10	O	1.328803	0.482946	0.414797
O11	O	0.731205	0.128895	-0.085194
O12	O	1.231205	0.628895	0.414806
O13	O	0.932441	0.112942	-0.085192
O14	O	1.432441	0.612942	0.414808
Zn15	Zn	0.832936	0.119254	-0.112253
Zn16	Zn	1.332936	0.619254	0.387747
Zn17	Zn	0.823706	0.133067	0.112297
Zn18	Zn	1.323706	0.633067	0.612297
O19	O	0.834843	0.258891	-0.085183
O20	O	1.334843	0.758891	0.414817
C21	C	0.701793	0.133625	0.000021
C22	C	1.201793	0.633625	0.500021
C23	C	0.624591	0.132087	0.000020
C24	C	1.124591	0.632087	0.500020
C25	C	0.065384	0.207319	0.000027
C26	C	0.565384	0.707319	0.500027
C27	C	0.137923	0.208772	0.000032
C28	C	0.637923	0.708772	0.500032
C29	C	0.177128	0.123136	0.000024
C30	C	0.677128	0.623136	0.500024
C31	C	0.143786	0.036041	0.000037
C32	C	0.643786	0.536041	0.500037
C33	C	0.071248	0.034591	0.000041
C34	C	0.571248	0.534591	0.500041
C35	C	0.296749	0.055596	-0.059694
C36	C	0.796749	0.555596	0.440306
C37	C	0.369287	0.057050	-0.059705
C38	C	0.869287	0.557050	0.440295
C39	C	0.400862	0.127607	0.000014
C40	C	0.900862	0.627607	0.500014
C41	C	0.359890	0.196726	0.059731
C42	C	0.859890	0.696726	0.559731
C43	C	0.287351	0.195275	0.059735
C44	C	0.787351	0.695275	0.559735
C45	C	0.255784	0.124700	0.000019
C46	C	0.755784	0.624700	0.500019
C47	C	0.512850	0.216273	0.000014
C48	C	1.012850	0.716273	0.500014
C49	C	0.585391	0.217724	0.000026
C50	C	1.085391	0.717724	0.500026
C51	C	0.591253	0.044990	0.000020
C52	C	1.091253	0.544990	0.500020
C53	C	0.518713	0.043542	0.000019
C54	C	1.018713	0.543542	0.500019
C55	C	0.479516	0.129186	0.000011
C56	C	0.979516	0.629186	0.500011
C57	C	0.822656	-0.047115	0.000012
C58	C	1.322656	0.452885	0.500012
C59	C	0.814769	-0.152307	0.000010
C60	C	1.314769	0.347693	0.500010
C61	C	0.800347	-0.344905	0.000025
C62	C	1.300347	0.155095	0.500025
C63	C	0.856291	-0.402779	0.000028
C64	C	1.356291	0.097221	0.500028
C65	C	0.848267	-0.509947	0.000037
C66	C	1.348267	-0.009947	0.500037
C67	C	0.808370	-0.237727	0.000017
C68	C	1.308370	0.262273	0.500017
C69	C	0.954848	0.118697	0.000026
C70	C	1.454848	0.618697	0.500026
C71	C	1.032051	0.120235	0.000034
C72	C	1.532051	0.620235	0.500034
C73	C	0.833985	0.299436	0.000035
C74	C	1.333985	0.799436	0.500035
C75	C	0.841873	0.404628	0.000043
C76	C	1.341873	0.904628	0.500043
N77	N	0.817407	0.142488	0.265546
N78	N	1.317407	0.642488	0.765546
N79	N	0.839239	0.109826	-0.265502
N80	N	1.339239	0.609826	0.234498
C81	C	0.808831	0.155305	0.474589
C82	C	1.308831	0.655305	0.974589
C83	C	0.847814	0.097012	0.525461
C84	C	1.347814	0.597012	1.025461
C85	C	0.843042	0.104143	0.641780
C86	C	1.343042	0.604143	1.141780
C87	C	0.813602	0.148175	0.358260
C88	C	1.313602	0.648175	0.858260
H89	H	0.033473	0.277058	0.000025
H90	H	0.533473	0.777058	0.500025
H91	H	0.884771	0.041748	0.481656
H92	H	1.384771	0.541748	0.981656
H93	H	0.385596	0.254183	0.108357
H94	H	0.885596	0.754183	0.608357
H95	H	0.253995	0.251553	0.108360
H96	H	0.753995	0.751553	0.608360
H97	H	0.771875	0.210564	0.518390
H98	H	1.271875	0.710564	1.018390
H99	H	0.746431	-0.375842	0.000027
H100	H	1.246431	0.124158	0.500027
H101	H	0.165069	0.279688	0.000017
H102	H	0.665069	0.779688	0.500017
H103	H	0.910209	-0.371835	0.000098
H104	H	1.410209	0.128165	0.500098
H105	H	0.480934	0.286010	0.000010
H106	H	0.980934	0.786010	0.500010
H107	H	0.623173	-0.024737	0.000022
H108	H	1.123173	0.475263	0.500022
H109	H	0.491574	-0.027371	0.000018
H110	H	0.991574	0.472629	0.500018
H111	H	0.612529	0.288641	0.000029
H112	H	1.112529	0.788641	0.500029
H113	H	0.402641	0.000773	-0.108335
H114	H	0.902641	0.500773	0.391665
H115	H	0.271048	-0.001865	-0.108326
H116	H	0.771048	0.498135	0.391674
H117	H	0.175712	-0.033684	0.000033
H118	H	0.675712	0.466316	0.500033
H119	H	0.044109	-0.036325	0.000047
H120	H	0.544109	0.463675	0.500047
