data_functionalizedCrystal
_audit_creation_method	'MofGen! by Chris Wilmer'
_symmetry_space_group_name_H-M	'P1'
_symmetry_Int_Tables_number	1
_symmetry_cell_setting	triclinic
loop_
_symmetry_equiv_pos_as_xyz
  x,y,z
_cell_length_a	12.645330
_cell_length_b	12.645331
_cell_length_c	12.645323
_cell_angle_alpha	89.977324
_cell_angle_beta	90.024870
_cell_angle_gamma	89.983329
loop_
_atom_site_label
_atom_site_type_symbol
_atom_site_fract_x
_atom_site_fract_y
_atom_site_fract_z
Zn1	Zn	-0.422060	-1.620731	0.599446
Zn2	Zn	-0.599348	-1.620613	0.422186
Zn3	Zn	-0.422096	-1.443446	0.422191
Zn4	Zn	-0.599279	-1.443428	0.599402
O5	O	-0.510695	-1.532054	0.510806
O6	O	-0.445591	-1.769063	0.575949
O7	O	-0.575879	-1.597069	0.273840
O8	O	-0.273744	-1.467020	0.445724
O9	O	-0.575844	-1.768976	0.445717
O10	O	-0.273717	-1.597271	0.575953
O11	O	-0.445653	-1.466906	0.273843
O12	O	-0.445585	-1.295096	0.445681
O13	O	-0.575726	-1.466989	0.747755
O14	O	-0.575761	-1.295083	0.575877
O15	O	-0.445524	-1.597253	0.747788
O16	O	-0.747686	-1.597052	0.445674
O17	O	-0.747635	-1.466874	0.575873
C18	C	-0.786125	-1.531977	0.510791
C19	C	-0.903955	-1.532041	0.510821
C20	C	-0.510670	-1.256625	0.510776
C21	C	-0.510685	-1.138795	0.510788
C22	C	-1.071531	-1.450484	0.592982
C23	C	-0.948972	-1.450067	0.592717
C24	C	-0.948549	-1.501796	0.399099
C25	C	-1.071147	-1.501298	0.399597
C26	C	-1.071047	-1.644342	0.539475
C27	C	-0.948440	-1.643654	0.541918
C28	C	-0.510614	-1.532132	0.787312
C29	C	-0.510579	-1.532166	0.905142
C30	C	-0.234190	-1.532161	0.510844
C31	C	-0.116360	-1.532206	0.510861
C32	C	-0.510722	-1.808560	0.510838
C33	C	-0.510733	-1.926390	0.510851
C34	C	-0.428415	-0.971204	0.429333
C35	C	-0.428628	-1.093763	0.428974
C36	C	-0.622359	-1.094274	0.480273
C37	C	-0.621910	-0.971676	0.479717
C38	C	-0.482344	-0.971645	0.623072
C39	C	-0.479849	-1.094251	0.622448
C40	C	-0.510701	-1.532038	0.235377
C41	C	-0.510437	-1.532210	0.117547
C42	C	-0.592103	-1.449964	1.072685
C43	C	-0.592506	-1.450179	0.950125
C44	C	-0.540899	-1.643865	0.949662
C45	C	-0.541410	-1.643414	1.072260
C46	C	-0.398278	-1.503724	1.072340
C47	C	-0.398951	-1.501232	0.949733
H48	H	-1.100944	-1.469234	0.676094
N49	N	-0.911128	-1.473787	0.696639
N50	N	-0.854484	-1.408584	0.744689
H51	H	-0.827758	-1.425335	0.818088
N52	N	-1.110304	-1.346852	0.569501
N53	N	-1.170808	-1.332921	0.492549
H54	H	-1.198195	-1.259732	0.475963
H55	H	-0.535432	-1.124909	0.686433
H56	H	-0.345355	-0.941740	0.448254
N57	N	-0.451656	-0.932494	0.325620
N58	N	-0.384617	-0.878775	0.276751
H59	H	-0.401031	-0.851431	0.203505
N60	N	-1.107392	-1.720726	0.464438
N61	N	-1.085416	-1.710234	0.368642
H62	H	-1.111087	-1.764173	0.315642
H63	H	-0.919290	-1.666463	0.624140
H64	H	-0.645984	-0.943030	0.397678
H65	H	-0.370640	-1.423691	1.103244
N66	N	-0.695773	-1.473315	1.111314
N67	N	-0.772372	-1.416771	1.084631
H68	H	-0.845591	-1.433267	1.111908
H69	H	-0.919736	-1.366935	0.573760
N70	N	-1.107130	-1.398465	0.369180
N71	N	-1.041697	-1.327563	0.347733
H72	H	-1.067104	-1.254933	0.326250
N73	N	-0.452167	-1.130485	0.324647
N74	N	-0.468498	-1.065568	0.251876
H75	H	-0.485127	-1.091501	0.178191
N76	N	-0.370276	-1.398110	0.913227
N77	N	-0.431764	-1.347527	0.854584
H78	H	-0.411516	-1.274696	0.828796
N79	N	-1.108344	-1.572705	0.320199
N80	N	-1.043757	-1.622744	0.264591
H81	H	-1.070022	-1.673162	0.208505
H82	H	-0.685319	-0.942031	0.536502
H83	H	-0.917790	-1.707747	0.486462
N84	N	-0.324732	-1.131515	0.452936
N85	N	-0.251556	-1.067318	0.470041
H86	H	-0.178171	-1.093974	0.486950
N87	N	-0.644263	-1.673682	1.108179
N88	N	-0.663239	-1.678816	1.205047
H89	H	-0.735881	-1.700190	1.230412
N90	N	-0.381977	-0.932897	0.657913
N91	N	-0.375551	-0.880231	0.741297
H92	H	-0.304663	-0.852865	0.765896
H93	H	-1.101891	-1.671932	0.619558
N94	N	-0.696767	-1.473937	0.913323
N95	N	-0.715173	-1.478281	0.816294
H96	H	-0.788801	-1.495107	0.790301
H97	H	-0.484511	-1.706772	1.101938
N98	N	-0.318591	-1.570894	0.911312
N99	N	-0.342390	-1.644808	0.850171
H100	H	-0.285638	-1.694015	0.823035
N101	N	-0.568726	-1.346270	0.912350
N102	N	-0.633900	-1.298117	0.855677
H103	H	-0.617110	-1.224726	0.829001
H104	H	-0.919391	-1.559431	0.336240
H105	H	-0.483299	-1.706788	0.920526
H106	H	-0.685331	-1.123444	0.537783
N107	N	-0.642675	-1.674669	0.911154
N108	N	-0.693053	-1.614550	0.850936
H109	H	-0.764934	-1.636300	0.823740
H110	H	-0.646847	-1.124930	0.399115
H111	H	-0.397670	-1.123355	0.645458
H112	H	-0.573311	-1.366889	1.102159
H113	H	-0.542301	-0.942666	0.683810
H114	H	-0.337434	-1.563628	1.101353
H115	H	-0.917936	-1.420678	0.374420
