data_functionalizedCrystal
_audit_creation_method	'MofGen! by Chris Wilmer'
_symmetry_space_group_name_H-M	'P1'
_symmetry_Int_Tables_number	1
_symmetry_cell_setting	triclinic
loop_
_symmetry_equiv_pos_as_xyz
  x,y,z
_cell_length_a	17.637015
_cell_length_b	17.640112
_cell_length_c	17.640968
_cell_angle_alpha	92.139080
_cell_angle_beta	70.335265
_cell_angle_gamma	114.336372
loop_
_atom_site_label
_atom_site_type_symbol
_atom_site_fract_x
_atom_site_fract_y
_atom_site_fract_z
Zn1	Zn	-0.024658	1.242020	-0.191251
Zn2	Zn	-0.201720	1.174905	-0.036778
Zn3	Zn	-0.080484	1.076316	-0.081230
Zn4	Zn	-0.190423	1.076283	-0.191114
O5	O	-0.124321	1.142381	-0.125093
O6	O	-0.029510	1.343738	-0.152214
O7	O	-0.213729	1.133752	0.067960
O8	O	0.047031	1.126399	-0.114485
O9	O	-0.159596	1.294428	-0.038723
O10	O	0.088046	1.248141	-0.195318
O11	O	-0.124658	1.061320	0.035302
O12	O	-0.113703	0.965691	-0.114352
O13	O	-0.140343	1.126343	-0.301766
O14	O	-0.194475	0.965667	-0.195083
O15	O	-0.018556	1.248109	-0.301868
O16	O	-0.320331	1.133720	-0.038590
O17	O	-0.312031	1.061264	-0.151980
C18	C	-0.347317	1.090231	-0.090460
C19	C	-0.442696	1.068001	-0.075658
C20	C	-0.158922	0.936996	-0.159526
C21	C	-0.173740	0.849131	-0.174273
C22	C	-0.598558	0.973303	-0.012653
C23	C	-0.508932	0.994199	-0.026567
C24	C	-0.466067	1.120937	-0.110850
C25	C	-0.555691	1.100053	-0.096940
C26	C	-0.621931	1.026235	-0.047842
C27	C	-0.579063	1.152985	-0.132128
C28	C	-0.668680	1.132100	-0.118222
C29	C	-0.734924	1.058284	-0.069128
C30	C	-0.711547	1.005350	-0.033936
C31	C	-0.512822	1.226800	-0.181231
C32	C	-0.536194	1.279732	-0.216419
C33	C	-0.625813	1.258850	-0.202509
C34	C	-0.692057	1.185034	-0.153415
C35	C	-0.649189	1.311784	-0.237702
C36	C	-0.738806	1.290900	-0.223796
C37	C	-0.781673	1.164150	-0.139509
C38	C	-0.011733	0.560299	-0.013076
C39	C	-0.025672	0.477736	-0.026941
C40	C	-0.109974	0.477685	-0.110808
C41	C	-0.096039	0.560252	-0.096954
C42	C	-0.046919	0.601552	-0.048087
C43	C	-0.131225	0.601505	-0.131965
C44	C	-0.117294	0.684063	-0.118108
C45	C	-0.068179	0.725368	-0.069241
C46	C	-0.032989	0.684110	-0.034230
C47	C	-0.180350	0.560201	-0.180827
C48	C	-0.215536	0.601454	-0.215838
C49	C	-0.201600	0.684016	-0.201986
C50	C	-0.152484	0.725321	-0.153119
C51	C	-0.236790	0.725273	-0.236997
C52	C	-0.222860	0.807831	-0.223140
C53	C	-0.138554	0.807878	-0.139262
C54	C	0.099553	1.194760	-0.159875
C55	C	0.194955	1.217081	-0.174698
C56	C	-0.071962	1.194709	-0.331306
C57	C	-0.049650	1.217008	-0.419181
C58	C	-0.089586	1.348568	-0.090526
C59	C	-0.074784	1.436433	-0.075795
C60	C	-0.293308	0.973390	-0.707922
C61	C	-0.272328	0.994363	-0.790494
C62	C	-0.145523	1.121147	-0.790589
C63	C	-0.166489	1.100183	-0.708017
C64	C	-0.240383	1.026304	-0.666690
C65	C	-0.113565	1.153097	-0.666784
C66	C	-0.134533	1.132136	-0.584218
C67	C	-0.208425	1.058262	-0.542885
C68	C	-0.261351	1.005343	-0.584124
C69	C	-0.039675	1.226978	-0.708111
C70	C	0.013249	1.279892	-0.666879
C71	C	-0.007714	1.258929	-0.584313
C72	C	-0.081606	1.185055	-0.542979
C73	C	0.045212	1.311848	-0.543074
C74	C	0.024244	1.290887	-0.460508
C75	C	-0.102574	1.164094	-0.460414
C76	C	-0.176407	1.090317	0.080315
C77	C	-0.198452	1.068227	0.168178
H78	H	-0.807894	1.041277	-0.057814
O79	O	-0.425723	1.247197	-0.194851
C80	C	-0.372272	1.323707	-0.245719
H81	H	-0.410295	1.334432	-0.282063
H82	H	-0.308738	1.321407	-0.289003
H83	H	-0.354560	1.377150	-0.207226
H84	H	-0.085360	1.181301	-0.824248
O85	O	0.075650	1.342162	-0.420384
C86	C	0.111390	1.298008	-0.388798
H87	H	0.067890	1.227880	-0.381782
H88	H	0.113560	1.318153	-0.327119
H89	H	0.181619	1.312286	-0.431948
O90	O	-0.471869	1.351370	-0.264234
C91	C	-0.476683	1.348936	-0.342522
H92	H	-0.511025	1.281026	-0.353219
H93	H	-0.406662	1.379365	-0.389600
H94	H	-0.516252	1.384448	-0.348053
H95	H	-0.595246	1.371883	-0.277684
O96	O	-0.761363	1.342419	-0.258021
C97	C	-0.683681	1.412037	-0.304360
H98	H	-0.627569	1.421484	-0.281419
H99	H	-0.696868	1.470444	-0.298413
H100	H	-0.663792	1.400479	-0.370717
O101	O	-0.090967	0.847922	-0.091669
C102	C	-0.133001	0.803365	-0.013345
H103	H	-0.206425	0.763600	-0.002414
H104	H	-0.126308	0.849485	0.033654
H105	H	-0.100260	0.760982	-0.007941
H106	H	0.007026	0.717745	0.005549
H107	H	0.028281	0.593934	0.026703
H108	H	-0.765485	0.945243	0.006050
H109	H	-0.276791	0.691632	-0.276778
O110	O	-0.054593	0.805553	-0.055667
C111	C	-0.003674	0.833164	-0.005047
H112	H	-0.011334	0.776684	0.031259
H113	H	-0.027828	0.874727	0.038277
H114	H	0.069312	0.870409	-0.043743
H115	H	-0.022607	1.244043	-0.775341
H116	H	-0.191690	0.492977	-0.192107
O117	O	-0.662797	0.901547	0.035037
C118	C	-0.622957	0.859315	0.063138
H119	H	-0.551307	0.879654	0.020384
H120	H	-0.661568	0.788836	0.065210
H121	H	-0.623782	0.875303	0.126542
H122	H	-0.353462	0.913216	-0.674278
O123	O	-0.263106	0.561345	-0.263417
C124	C	-0.209400	0.537959	-0.330127
H125	H	-0.136350	0.579899	-0.341429
H126	H	-0.225254	0.545185	-0.386246
H127	H	-0.223167	0.469883	-0.316652
H128	H	-0.489911	0.951089	0.002091
H129	H	-0.251510	0.841421	-0.251650
O130	O	-0.174462	1.092401	-0.420251
C131	C	-0.251965	1.094789	-0.424255
H132	H	-0.239879	1.162689	-0.435711
H133	H	-0.309300	1.064301	-0.364502
H134	H	-0.269390	1.059306	-0.475789
O135	O	0.008608	0.437798	0.007103
C136	C	0.054927	0.491949	0.053222
H137	H	0.076000	0.559708	0.030260
H138	H	0.116420	0.481784	0.047046
H139	H	0.009817	0.478145	0.119651
O140	O	-0.401610	1.192629	-0.158491
C141	C	-0.317498	1.199702	-0.163238
H142	H	-0.325162	1.161208	-0.108431
H143	H	-0.272028	1.268234	-0.164011
H144	H	-0.287289	1.175386	-0.221110
H145	H	-0.149971	0.444046	-0.150593
O146	O	-0.228944	1.037789	-0.462672
C147	C	-0.305497	0.961226	-0.435046
H148	H	-0.345424	0.950506	-0.476694
H149	H	-0.348078	0.963433	-0.370747
H150	H	-0.284894	0.907829	-0.435355
H151	H	-0.321506	0.945170	-0.550480
H152	H	-0.315431	0.951268	-0.824062
O153	O	0.085018	1.351605	-0.707157
C154	C	0.092163	1.358773	-0.788869
H155	H	0.056637	1.294056	-0.806012
H156	H	0.165326	1.387140	-0.829338
H157	H	0.060307	1.400918	-0.797331
O158	O	-0.846065	1.092527	-0.091700
C159	C	-0.903256	1.112557	-0.025095
H160	H	-0.866922	1.179904	-0.014028
H161	H	-0.924596	1.068323	0.031156
H162	H	-0.964497	1.105640	-0.038554
O163	O	0.117067	1.383530	-0.583291
C164	C	0.177039	1.363625	-0.647231
H165	H	0.165540	1.296291	-0.633620
H166	H	0.248147	1.407909	-0.653638
H167	H	0.165926	1.370578	-0.706136
