data_functionalizedCrystal
_audit_creation_method	'MofGen! by Chris Wilmer'
_symmetry_space_group_name_H-M	'P1'
_symmetry_Int_Tables_number	1
_symmetry_cell_setting	triclinic
loop_
_symmetry_equiv_pos_as_xyz
  x,y,z
_cell_length_a	14.044220
_cell_length_b	14.044209
_cell_length_c	12.503552
_cell_angle_alpha	93.839236
_cell_angle_beta	93.839943
_cell_angle_gamma	86.811585
loop_
_atom_site_label
_atom_site_type_symbol
_atom_site_fract_x
_atom_site_fract_y
_atom_site_fract_z
O1	O	0.225112	-1.282206	-0.089195
O2	O	0.475112	-1.032206	0.160805
O3	O	0.725112	-0.782206	0.410805
O4	O	0.975112	-0.532206	0.660805
O5	O	0.216806	-1.005537	-0.089225
O6	O	0.466806	-0.755537	0.160775
O7	O	0.716806	-0.505537	0.410775
O8	O	0.966806	-0.255537	0.660775
O9	O	0.082624	-1.139718	-0.089200
O10	O	0.332624	-0.889718	0.160800
O11	O	0.582624	-0.639718	0.410800
O12	O	0.832624	-0.389718	0.660800
O13	O	0.359294	-1.148025	-0.089220
O14	O	0.609294	-0.898025	0.160780
O15	O	0.859294	-0.648025	0.410780
O16	O	1.109294	-0.398025	0.660780
O17	O	0.092724	-1.129615	0.089441
O18	O	0.342724	-0.879615	0.339441
O19	O	0.592724	-0.629615	0.589441
O20	O	0.842724	-0.379615	0.839441
O21	O	0.226906	-0.995433	0.089416
O22	O	0.476906	-0.745433	0.339416
O23	O	0.726906	-0.495433	0.589416
O24	O	0.976906	-0.245433	0.839416
O25	O	0.235211	-1.272103	0.089446
O26	O	0.485211	-1.022103	0.339446
O27	O	0.735211	-0.772103	0.589446
O28	O	0.985211	-0.522103	0.839446
Cu29	Cu	0.231981	-1.132846	0.105742
Cu30	Cu	0.481981	-0.882846	0.355742
Cu31	Cu	0.731981	-0.632846	0.605742
Cu32	Cu	0.981981	-0.382846	0.855742
Cu33	Cu	0.220037	-1.144794	-0.105521
Cu34	Cu	0.470037	-0.894794	0.144479
Cu35	Cu	0.720037	-0.644794	0.394479
Cu36	Cu	0.970037	-0.394794	0.644479
O37	O	0.369394	-1.137922	0.089421
O38	O	0.619394	-0.887922	0.339421
O39	O	0.869394	-0.637922	0.589421
O40	O	1.119394	-0.387922	0.839421
C41	C	0.052052	-1.131031	0.000121
C42	C	0.302052	-0.881031	0.250121
C43	C	0.552052	-0.631031	0.500121
C44	C	0.802052	-0.381031	0.750121
C45	C	-0.054091	-1.120186	0.000121
C46	C	0.195909	-0.870186	0.250121
C47	C	0.445909	-0.620186	0.500121
C48	C	0.695909	-0.370186	0.750121
C49	C	0.218221	-0.964863	0.000092
C50	C	0.468221	-0.714863	0.250092
C51	C	0.718221	-0.464863	0.500092
C52	C	0.968221	-0.214863	0.750092
C53	C	0.207376	-0.858721	0.000080
C54	C	0.457376	-0.608721	0.250080
C55	C	0.707376	-0.358721	0.500080
C56	C	0.957376	-0.108721	0.750080
N57	N	0.240382	-1.124449	0.254333
N58	N	0.490382	-0.874449	0.504333
N59	N	0.740382	-0.624449	0.754333
N60	N	0.990382	-0.374449	1.004333
C61	C	-0.248429	-1.100361	0.000103
C62	C	0.001571	-0.850361	0.250103
C63	C	0.251571	-0.600361	0.500103
C64	C	0.501571	-0.350361	0.750103
C65	C	-0.299559	-1.177275	0.000108
C66	C	-0.049559	-0.927275	0.250108
C67	C	0.200441	-0.677275	0.500108
C68	C	0.450441	-0.427275	0.750108
C69	C	-0.407696	-1.166244	0.000099
C70	C	-0.157696	-0.916244	0.250099
C71	C	0.092304	-0.666244	0.500099
C72	C	0.342304	-0.416244	0.750099
C73	C	-0.140283	-1.111391	0.000113
C74	C	0.109717	-0.861391	0.250113
C75	C	0.359717	-0.611391	0.500113
C76	C	0.609717	-0.361391	0.750113
C77	C	0.399966	-1.146609	0.000098
C78	C	0.649966	-0.896609	0.250098
C79	C	0.899966	-0.646609	0.500098
C80	C	1.149966	-0.396609	0.750098
C81	C	0.506108	-1.157454	0.000091
C82	C	0.756108	-0.907454	0.250091
C83	C	1.006108	-0.657454	0.500091
C84	C	1.256108	-0.407454	0.750091
C85	C	0.187553	-0.664382	0.000101
C86	C	0.437553	-0.414382	0.250101
C87	C	0.687553	-0.164382	0.500101
C88	C	0.937553	0.085618	0.750101
C89	C	0.264468	-0.613252	0.000099
C90	C	0.514468	-0.363252	0.250099
C91	C	0.764468	-0.113252	0.500099
C92	C	1.014468	0.136748	0.750099
C93	C	0.253437	-0.505116	0.000110
C94	C	0.503437	-0.255116	0.250110
C95	C	0.753437	-0.005116	0.500110
C96	C	1.003437	0.244884	0.750110
C97	C	0.198581	-0.772529	0.000089
C98	C	0.448581	-0.522529	0.250089
C99	C	0.698581	-0.272529	0.500089
C100	C	0.948581	-0.022529	0.750089
C101	C	0.233799	-0.312777	0.000124
C102	C	0.483799	-0.062777	0.250124
C103	C	0.733799	0.187223	0.500124
C104	C	0.983799	0.437223	0.750124
C105	C	0.244648	-0.418919	0.000119
C106	C	0.494648	-0.168919	0.250119
C107	C	0.744648	0.081081	0.500119
C108	C	0.994648	0.331081	0.750119
N109	N	0.211629	-1.153198	-0.254112
N110	N	0.461629	-0.903198	-0.004112
N111	N	0.711629	-0.653198	0.245888
N112	N	0.961629	-0.403198	0.495888
C113	C	0.199267	-1.165544	0.526774
C114	C	0.449267	-0.915544	0.776774
C115	C	0.699267	-0.665544	1.026774
C116	C	0.949267	-0.415544	1.276774
C117	C	0.252741	-1.112105	0.473440
C118	C	0.502741	-0.862105	0.723440
C119	C	0.752741	-0.612105	0.973440
C120	C	1.002741	-0.362105	1.223440
C121	C	0.245863	-1.118975	0.351518
C122	C	0.495863	-0.868975	0.601518
C123	C	0.745863	-0.618975	0.851518
C124	C	0.995863	-0.368975	1.101518
C125	C	0.206144	-1.158676	0.648708
C126	C	0.456144	-0.908676	0.898708
C127	C	0.706144	-0.658676	1.148708
C128	C	0.956144	-0.408676	1.398708
H129	H	-0.285866	-1.026234	0.000093
H130	H	-0.035866	-0.776234	0.250093
H131	H	0.214134	-0.526234	0.500093
H132	H	0.464134	-0.276234	0.750093
H133	H	0.338600	-0.650692	0.000089
H134	H	0.588600	-0.400692	0.250089
H135	H	0.838600	-0.150692	0.500089
H136	H	1.088600	0.099308	0.750089
H137	H	0.113426	-0.626945	0.000111
H138	H	0.363426	-0.376945	0.250111
H139	H	0.613426	-0.126945	0.500111
H140	H	0.863426	0.123055	0.750111
N141	N	0.131769	-1.232961	0.465979
N142	N	0.381769	-0.982961	0.715979
N143	N	0.631769	-0.732961	0.965979
N144	N	0.881769	-0.482961	1.215979
H145	H	0.136357	-1.228366	0.386238
H146	H	0.386357	-0.978366	0.636238
H147	H	0.636357	-0.728366	0.886238
H148	H	0.886357	-0.478366	1.136238
H149	H	0.149596	-1.300548	0.485552
H150	H	0.399596	-1.050548	0.735552
H151	H	0.649596	-0.800548	0.985552
H152	H	0.899596	-0.550548	1.235552
N153	N	0.320227	-1.044667	0.534236
N154	N	0.570227	-0.794667	0.784236
N155	N	0.820227	-0.544667	1.034236
N156	N	1.070227	-0.294667	1.284236
H157	H	0.315641	-1.049255	0.613978
H158	H	0.565641	-0.799255	0.863978
H159	H	0.815641	-0.549255	1.113978
H160	H	1.065641	-0.299255	1.363978
H161	H	0.387796	-1.062555	0.514642
H162	H	0.637796	-0.812555	0.764642
H163	H	0.887796	-0.562555	1.014642
H164	H	1.137796	-0.312555	1.264642
N165	N	-0.249966	-1.275470	0.000139
N166	N	0.000034	-1.025470	0.250139
N167	N	0.250034	-0.775470	0.500139
N168	N	0.500034	-0.525470	0.750139
H169	H	-0.265291	-1.307578	0.066368
H170	H	-0.015291	-1.057578	0.316368
H171	H	0.234709	-0.807578	0.566368
H172	H	0.484709	-0.557578	0.816368
H173	H	-0.272775	-1.315013	-0.066120
H174	H	-0.022775	-1.065013	0.183880
H175	H	0.227225	-0.815013	0.433880
H176	H	0.477225	-0.565013	0.683880
