data_functionalizedCrystal
_audit_creation_method	'MofGen! by Chris Wilmer'
_symmetry_space_group_name_H-M	'P1'
_symmetry_Int_Tables_number	1
_symmetry_cell_setting	triclinic
loop_
_symmetry_equiv_pos_as_xyz
  x,y,z
_cell_length_a	12.594516
_cell_length_b	11.169417
_cell_length_c	11.169409
_cell_angle_alpha	90.021683
_cell_angle_beta	89.968646
_cell_angle_gamma	89.985009
loop_
_atom_site_label
_atom_site_type_symbol
_atom_site_fract_x
_atom_site_fract_y
_atom_site_fract_z
Zn1	Zn	-0.423686	-1.834915	-0.678610
Zn2	Zn	0.076314	-1.334915	-0.178610
Zn3	Zn	-0.601712	-1.834784	-0.477931
Zn4	Zn	-0.101712	-1.334784	0.022069
Zn5	Zn	-0.423745	-1.634201	-0.477938
Zn6	Zn	0.076255	-1.134201	0.022062
Zn7	Zn	-0.601620	-1.634188	-0.678569
Zn8	Zn	-0.101620	-1.134188	-0.178569
O9	O	-0.512691	-1.734522	-0.578262
O10	O	-0.012691	-1.234522	-0.078262
O11	O	-0.447316	-2.002847	-0.652004
O12	O	0.052684	-1.502847	-0.152004
O13	O	-0.578168	-1.808127	-0.309982
O14	O	-0.078168	-1.308127	0.190018
O15	O	-0.274791	-1.660886	-0.504578
O16	O	0.225209	-1.160886	-0.004578
O17	O	-0.578111	-2.002751	-0.504566
O18	O	-0.078111	-1.502751	-0.004566
O19	O	-0.274748	-1.808349	-0.652011
O20	O	0.225252	-1.308349	-0.152011
O21	O	-0.447416	-1.660759	-0.309987
O22	O	0.052584	-1.160759	0.190013
O23	O	-0.447326	-1.466249	-0.504538
O24	O	0.052674	-0.966249	-0.004538
O25	O	-0.577953	-1.660864	-0.846524
O26	O	-0.077953	-1.160864	-0.346524
O27	O	-0.578010	-1.466240	-0.651941
O28	O	-0.078010	-0.966240	-0.151941
O29	O	-0.447226	-1.808337	-0.846555
O30	O	0.052774	-1.308337	-0.346555
O31	O	-0.750646	-1.808115	-0.504525
O32	O	-0.250646	-1.308115	-0.004525
O33	O	-0.750578	-1.660738	-0.651934
O34	O	-0.250578	-1.160738	-0.151934
C35	C	-0.512665	-1.422697	-0.578237
C36	C	-0.012665	-0.922697	-0.078237
C37	C	-0.512680	-1.289297	-0.578254
C38	C	-0.012680	-0.789297	-0.078254
C39	C	-0.789232	-1.734443	-0.578250
C40	C	-0.289232	-1.234443	-0.078250
C41	C	-0.907537	-1.734519	-0.578286
C42	C	-0.407537	-1.234519	-0.078286
C43	C	-0.976792	-1.654353	-0.658404
C44	C	-0.476792	-1.154353	-0.158404
C45	C	-1.047666	-1.625107	-0.548890
C46	C	-0.547666	-1.125107	-0.048890
C47	C	-1.047462	-1.763875	-0.687818
C48	C	-0.547462	-1.263875	-0.187818
C49	C	-0.976853	-1.705215	-0.468713
C50	C	-0.476853	-1.205215	0.031287
C51	C	-0.976643	-1.844034	-0.607715
C52	C	-0.476643	-1.344034	-0.107715
C53	C	-1.047485	-1.814829	-0.498126
C54	C	-0.547485	-1.314829	0.001874
C55	C	-0.235070	-1.734634	-0.578300
C56	C	0.264930	-1.234634	-0.078300
C57	C	-0.116764	-1.734681	-0.578316
C58	C	0.383236	-1.234681	-0.078316
C59	C	-0.512573	-1.734614	-0.891305
C60	C	-0.012573	-1.234614	-0.391305
C61	C	-0.512522	-1.734653	-1.024705
C62	C	-0.012522	-1.234653	-0.524705
C63	C	-0.512708	-1.047564	-0.578279
C64	C	-0.012708	-0.547564	-0.078279
C65	C	-0.512693	-1.180964	-0.578262
C66	C	-0.012693	-0.680964	-0.078262
C67	C	-0.512732	-1.734499	-0.266437
C68	C	-0.012732	-1.234499	0.233563
C69	C	-0.512482	-1.734692	-0.133038
C70	C	-0.012482	-1.234692	0.366962
H71	H	-0.945751	-1.586438	-0.726060
H72	H	-0.445751	-1.086438	-0.226060
H73	H	-1.078479	-1.788639	-0.780437
H74	H	-0.578479	-1.288639	-0.280437
H75	H	-0.945427	-1.936553	-0.632634
H76	H	-0.445427	-1.436553	-0.132634
H77	H	-1.078885	-1.532568	-0.524024
H78	H	-0.578885	-1.032568	-0.024024
C79	C	-0.935134	-1.671604	-0.343563
C80	C	-0.435134	-1.171604	0.156437
H81	H	-0.859704	-1.671707	-0.344327
H82	H	-0.359704	-1.171707	0.155673
H83	H	-0.959902	-1.728246	-0.286613
H84	H	-0.459902	-1.228246	0.213387
H85	H	-0.960044	-1.594101	-0.322552
H86	H	-0.460044	-1.094101	0.177448
C87	C	-1.089167	-1.906506	-0.406520
C88	C	-0.589167	-1.406506	0.093480
H89	H	-1.130615	-1.965195	-0.446573
H90	H	-0.630615	-1.465195	0.053427
H91	H	-1.131707	-1.866710	-0.348604
H92	H	-0.631707	-1.366710	0.151396
H93	H	-1.030886	-1.944187	-0.367880
H94	H	-0.530886	-1.444187	0.132120
