data_functionalizedCrystal
_audit_creation_method	'MofGen! by Chris Wilmer'
_symmetry_space_group_name_H-M	'P1'
_symmetry_Int_Tables_number	1
_symmetry_cell_setting	triclinic
loop_
_symmetry_equiv_pos_as_xyz
  x,y,z
_cell_length_a	12.759395
_cell_length_b	10.686285
_cell_length_c	10.685880
_cell_angle_alpha	90.361115
_cell_angle_beta	85.605753
_cell_angle_gamma	94.366707
loop_
_atom_site_label
_atom_site_type_symbol
_atom_site_fract_x
_atom_site_fract_y
_atom_site_fract_z
Zn1	Zn	1.684538	0.553646	-0.671026
Zn2	Zn	1.682405	0.747384	-0.445198
Zn3	Zn	1.494419	0.537643	-0.461276
Zn4	Zn	1.521218	0.763363	-0.654921
O5	O	1.595645	0.650509	-0.558105
O6	O	1.831277	0.579355	-0.641081
O7	O	1.645360	0.706176	-0.271780
O8	O	1.509316	0.364222	-0.502568
O9	O	1.829710	0.721693	-0.475166
O10	O	1.648996	0.375979	-0.656671
O11	O	1.507248	0.552081	-0.283592
O12	O	1.350952	0.567576	-0.486952
O13	O	1.554991	0.748928	-0.832609
O14	O	1.370641	0.733411	-0.629222
O15	O	1.674981	0.594850	-0.844441
O16	O	1.671346	0.925048	-0.459550
O17	O	1.552923	0.936788	-0.613633
C18	C	1.614841	0.976436	-0.533126
C19	C	1.623152	1.115873	-0.522482
C20	C	1.322675	0.650492	-0.558085
C21	C	1.205901	0.650517	-0.558104
C22	C	1.618214	0.675457	-0.885316
C23	C	1.627831	0.686088	-1.024754
C24	C	1.226440	0.823441	-0.705971
C25	C	1.181849	0.909913	-0.779907
C26	C	1.072129	0.909930	-0.779921
C27	C	1.006997	0.823462	-0.705994
C28	C	1.051588	0.736990	-0.632058
C29	C	1.161311	0.736986	-0.632048
C30	C	1.031050	0.564063	-0.484199
C31	C	1.140769	0.564050	-0.484176
C32	C	0.965917	0.477595	-0.410272
C33	C	1.010508	0.391127	-0.336327
C34	C	1.120235	0.391115	-0.336315
C35	C	1.185360	0.477578	-0.410240
C36	C	1.869681	0.650527	-0.558126
C37	C	1.986459	0.650535	-0.558136
C38	C	1.576405	0.323311	-0.583209
C39	C	1.568205	0.183879	-0.593907
C40	C	1.573220	0.625568	-0.232175
C41	C	1.563785	0.614583	-0.092765
H42	H	1.234892	0.980311	-0.840099
C43	C	1.556451	1.049206	-0.773780
C44	C	1.496123	1.118484	-0.687467
H45	H	1.511949	1.008836	-0.831544
H46	H	1.589798	0.987867	-0.730395
H47	H	1.608509	1.103940	-0.817953
H48	H	1.444070	1.063748	-0.643287
H49	H	1.462759	1.179830	-0.730856
C50	C	1.744399	1.090825	-0.364986
C51	C	1.695239	1.181272	-0.428919
H52	H	1.788895	1.131202	-0.307220
H53	H	1.785309	1.043836	-0.423550
H54	H	1.692327	1.036110	-0.320811
H55	H	1.747311	1.235982	-0.473101
H56	H	1.654327	1.228283	-0.370346
H57	H	1.690029	0.755446	-1.073206
H58	H	0.917658	0.823473	-0.706024
C59	C	1.394796	0.917595	-0.786432
C60	C	1.347045	0.823440	-0.705940
H61	H	1.469254	0.917591	-0.786414
H62	H	1.373224	0.996832	-0.758395
H63	H	1.374307	0.902203	-0.869080
H64	H	1.367528	0.838837	-0.623289
H65	H	1.368627	0.744185	-0.733971
C66	C	1.103440	1.080861	-0.926089
C67	C	1.023109	1.004973	-0.861199
H68	H	1.073174	1.139538	-0.976262
H69	H	1.146341	1.029945	-0.978342
H70	H	1.145275	1.124584	-0.867665
H71	H	0.981278	0.961244	-0.919623
H72	H	0.980190	1.055896	-0.808941
H73	H	1.501587	0.545235	-1.044318
C74	C	0.797563	0.383452	-0.329791
C75	C	0.845311	0.477606	-0.410286
H76	H	0.723106	0.383456	-0.329804
H77	H	0.818057	0.398837	-0.247155
H78	H	0.819134	0.304205	-0.357837
H79	H	0.823747	0.556855	-0.382234
H80	H	0.824808	0.462229	-0.492939
C81	C	1.001221	0.220187	-0.190170
C82	C	0.938917	0.296087	-0.255077
H83	H	0.957018	0.161509	-0.140014
H84	H	1.043899	0.271095	-0.137898
H85	H	1.044986	0.176466	-0.248583
H86	H	0.895156	0.339816	-0.196663
H87	H	0.896220	0.245173	-0.307352
C88	C	1.230921	0.360527	-0.168940
C89	C	1.169250	0.296063	-0.255042
H90	H	1.261182	0.301843	-0.118771
H91	H	1.188006	0.411428	-0.116686
H92	H	1.285410	0.412014	-0.212976
H93	H	1.114756	0.244583	-0.211006
H94	H	1.212167	0.245141	-0.307302
H95	H	1.274701	0.477580	-0.410233
