data_functionalizedCrystal
_audit_creation_method	'MofGen! by Chris Wilmer'
_symmetry_space_group_name_H-M	'P1'
_symmetry_Int_Tables_number	1
_symmetry_cell_setting	triclinic
loop_
_symmetry_equiv_pos_as_xyz
  x,y,z
_cell_length_a	10.723024
_cell_length_b	10.654550
_cell_length_c	9.130313
_cell_angle_alpha	90.004369
_cell_angle_beta	90.003216
_cell_angle_gamma	84.476400
loop_
_atom_site_label
_atom_site_type_symbol
_atom_site_fract_x
_atom_site_fract_y
_atom_site_fract_z
O1	O	-1.657213	-0.176149	-0.121789
O2	O	-1.157213	0.323851	0.378211
O3	O	-1.294063	-0.193010	-0.121794
O4	O	-0.794063	0.306990	0.378206
O5	O	-1.483988	-0.001839	-0.121783
O6	O	-0.983988	0.498161	0.378217
O7	O	-1.467289	-0.367320	-0.121801
O8	O	-0.967289	0.132680	0.378199
O9	O	-1.483974	-0.001834	0.121816
O10	O	-0.983974	0.498166	0.621816
O11	O	-1.294050	-0.193004	0.121804
O12	O	-0.794050	0.306996	0.621804
O13	O	-1.657200	-0.176144	0.121809
O14	O	-1.157200	0.323856	0.621809
Cu15	Cu	-1.475624	-0.184574	0.144049
Cu16	Cu	-0.975624	0.315426	0.644049
Cu17	Cu	-1.475639	-0.184580	-0.144034
Cu18	Cu	-0.975639	0.315420	0.355966
O19	O	-1.467275	-0.367315	0.121798
O20	O	-0.967275	0.132685	0.621798
C21	C	-1.247557	-0.191780	0.000004
C22	C	-0.747557	0.308220	0.500004
C23	C	-1.109002	-0.188109	0.000003
C24	C	-0.609002	0.311891	0.500003
C25	C	-1.482755	0.044961	0.000016
C26	C	-0.982755	0.544961	0.500016
C27	C	-1.479086	0.184404	0.000014
C28	C	-0.979086	0.684404	0.500014
C29	C	-1.703706	-0.177373	0.000007
C30	C	-1.203706	0.322627	0.500007
C31	C	-1.842261	-0.181045	-0.000001
C32	C	-1.342261	0.318955	0.499999
C33	C	-1.034035	-0.295078	-0.000004
C34	C	-0.534035	0.204922	0.499996
C35	C	-0.890831	-0.291287	-0.000005
C36	C	-0.390831	0.208713	0.499995
N37	N	-1.475622	-0.184568	0.346672
N38	N	-0.975622	0.315432	0.846672
C39	C	-1.468508	-0.414115	-0.000004
C40	C	-0.968508	0.085885	0.499996
C41	C	-1.472176	-0.553558	-0.000012
C42	C	-0.972176	-0.053558	0.499988
C43	C	-1.590911	0.263907	0.000015
C44	C	-1.090911	0.763907	0.500015
C45	C	-1.587457	0.394927	-0.000003
C46	C	-1.087457	0.894927	0.499997
C47	C	-1.360343	0.366929	-0.000017
C48	C	-0.860343	0.866929	0.499983
C49	C	-1.363799	0.235912	-0.000010
C50	C	-0.863799	0.735912	0.499990
N51	N	-1.475651	-0.184576	-0.346657
N52	N	-0.975651	0.315424	0.153343
C53	C	-1.559749	-0.099954	0.423329
C54	C	-1.059749	0.400046	0.923329
C55	C	-1.559761	-0.099954	0.576666
C56	C	-1.059761	0.400046	1.076666
C57	C	-1.391515	-0.269194	0.576675
C58	C	-0.891515	0.230806	1.076675
C59	C	-1.391498	-0.269187	0.423341
C60	C	-0.891498	0.230813	0.923341
H61	H	-1.075871	-0.389466	-0.000000
H62	H	-0.575871	0.110534	0.500000
H63	H	-1.628246	-0.031050	0.360909
H64	H	-1.128246	0.468950	0.860909
H65	H	-0.826412	-0.382860	-0.000017
H66	H	-0.326412	0.117140	0.499983
H67	H	-1.628263	-0.031052	0.639076
H68	H	-1.128263	0.468948	1.139076
H69	H	-1.323024	-0.338091	0.639114
H70	H	-0.823024	0.161909	1.139114
Cl71	Cl	-1.728043	0.494868	-0.000005
Cl72	Cl	-1.228043	0.994868	0.499995
H73	H	-0.906673	-0.089466	-0.000004
H74	H	-0.406673	0.410534	0.499996
Cl75	Cl	-1.285724	-0.375562	0.326963
Cl76	Cl	-0.785724	0.124438	0.826963
H77	H	-1.272732	0.171177	-0.000015
H78	H	-0.772732	0.671177	0.499985
H79	H	-1.684785	0.221974	0.000030
H80	H	-1.184785	0.721974	0.500030
H81	H	-1.067166	-0.093722	-0.000030
H82	H	-0.567166	0.406278	0.499970
Cl83	Cl	-1.215419	0.431692	-0.000046
Cl84	Cl	-0.715419	0.931692	0.499954
