data_functionalizedCrystal
_audit_creation_method	'MofGen! by Chris Wilmer'
_symmetry_space_group_name_H-M	'P1'
_symmetry_Int_Tables_number	1
_symmetry_cell_setting	triclinic
loop_
_symmetry_equiv_pos_as_xyz
  x,y,z
_cell_length_a	18.101395
_cell_length_b	13.032831
_cell_length_c	13.032268
_cell_angle_alpha	90.886977
_cell_angle_beta	82.853748
_cell_angle_gamma	97.164309
loop_
_atom_site_label
_atom_site_type_symbol
_atom_site_fract_x
_atom_site_fract_y
_atom_site_fract_z
Zn1	Zn	-0.500117	-1.498320	0.780796
Zn2	Zn	-0.000117	-0.998320	1.280796
Zn3	Zn	-0.610451	-1.520028	0.608808
Zn4	Zn	-0.110451	-1.020028	1.108808
Zn5	Zn	-0.469181	-1.348189	0.587040
Zn6	Zn	0.030819	-0.848189	1.087040
Zn7	Zn	-0.606447	-1.326277	0.758934
Zn8	Zn	-0.106447	-0.826277	1.258934
O9	O	-0.546549	-1.423203	0.683894
O10	O	-0.046549	-0.923203	1.183894
O11	O	-0.529375	-1.645116	0.776242
O12	O	-0.029375	-1.145116	1.276242
O13	O	-0.580440	-1.515487	0.462005
O14	O	-0.080440	-1.015487	0.962005
O15	O	-0.369663	-1.368189	0.612782
O16	O	0.130337	-0.868189	1.112782
O17	O	-0.610437	-1.661064	0.649882
O18	O	-0.110437	-1.161064	1.149882
O19	O	-0.392391	-1.478491	0.755134
O20	O	0.107609	-0.978491	1.255134
O21	O	-0.476650	-1.389238	0.446012
O22	O	0.023350	-0.889238	0.946012
O23	O	-0.472767	-1.201366	0.591582
O24	O	0.027233	-0.701366	1.091582
O25	O	-0.603613	-1.330844	0.905750
O26	O	-0.103613	-0.830844	1.405750
O27	O	-0.573616	-1.185268	0.717872
O28	O	-0.073616	-0.685268	1.217872
O29	O	-0.525493	-1.457244	0.921812
O30	O	-0.025493	-0.957244	1.421812
O31	O	-0.713541	-1.494241	0.628683
O32	O	-0.213541	-0.994241	1.128683
O33	O	-0.710600	-1.351893	0.738979
O34	O	-0.210600	-0.851893	1.238979
C35	C	-0.519401	-1.156001	0.649993
C36	C	-0.019401	-0.656001	1.149993
C37	C	-0.507806	-1.041687	0.635514
C38	C	-0.007806	-0.541687	1.135514
C39	C	-0.738943	-1.423070	0.683847
C40	C	-0.238943	-0.923070	1.183847
C41	C	-0.821262	-1.423102	0.683873
C42	C	-0.321262	-0.923102	1.183873
C43	C	-0.567557	-1.389178	0.952140
C44	C	-0.067557	-0.889178	1.452140
C45	C	-0.576509	-1.374679	1.066450
C46	C	-0.076509	-0.874679	1.566450
C47	C	-1.120381	-1.423321	0.683957
C48	C	-0.620381	-0.923321	1.183957
C49	C	-1.087270	-1.333919	0.753573
C50	C	-0.587270	-0.833919	1.253573
C51	C	-1.001594	-1.333573	0.753276
C52	C	-0.501594	-0.833573	1.253276
C53	C	-0.971985	-1.423212	0.683916
C54	C	-0.471985	-0.923212	1.183916
C55	C	-0.991648	-1.407642	0.571811
C56	C	-0.491648	-0.907642	1.071811
C57	C	-1.077279	-1.407070	0.572223
C58	C	-0.577279	-0.907070	1.072223
C59	C	-1.101951	-1.528588	0.725513
C60	C	-0.601951	-1.028588	1.225513
C61	C	-1.016421	-1.527646	0.727809
C62	C	-0.516421	-1.027646	1.227809
C63	C	-0.888117	-1.423153	0.683886
C64	C	-0.388117	-0.923153	1.183886
C65	C	-1.204247	-1.423378	0.683979
C66	C	-0.704247	-0.923378	1.183979
C67	C	-0.353408	-1.423363	0.683968
C68	C	0.146592	-0.923363	1.183968
C69	C	-0.271103	-1.423431	0.684000
C70	C	0.228897	-0.923431	1.184000
C71	C	-0.573804	-1.691449	0.717929
C72	C	-0.073804	-1.191449	1.217929
C73	C	-0.585418	-1.805759	0.732432
C74	C	-0.085418	-1.305759	1.232432
C75	C	-0.552600	-0.982797	0.691451
C76	C	-0.052600	-0.482797	1.191451
C77	C	-0.540618	-0.864648	0.676488
C78	C	-0.040618	-0.364648	1.176488
C79	C	-0.525575	-1.457155	0.416700
C80	C	-0.025575	-0.957155	0.916700
C81	C	-0.516434	-1.471854	0.302416
C82	C	-0.016434	-0.971854	0.802416
C83	C	-0.541848	-1.430755	1.125361
C84	C	-0.041848	-0.930755	1.625361
C85	C	-0.551100	-1.415770	1.243507
C86	C	-0.051100	-0.915770	1.743507
H87	H	-0.988702	-1.341720	0.835969
H88	H	-0.488702	-0.841720	1.335969
Br89	Br	-0.611974	-1.317246	1.305211
Br90	Br	-0.111974	-0.817246	1.805211
Br91	Br	-0.455563	-1.570384	1.240715
Br92	Br	0.044437	-1.070384	1.740715
Br93	Br	-0.461902	-0.802909	0.578205
Br94	Br	0.038098	-0.302909	1.078205
H95	H	-0.613028	-1.315571	1.103481
H96	H	-0.113028	-0.815571	1.603481
Br97	Br	-0.631309	-1.044540	0.789735
Br98	Br	-0.131309	-0.544540	1.289735
H99	H	-1.115992	-1.341850	0.836504
H100	H	-0.615992	-0.841850	1.336504
Br101	Br	-0.664116	-0.867492	0.830745
Br102	Br	-0.164116	-0.367492	1.330745
Br103	Br	-0.951493	-1.203057	0.705592
Br104	Br	-0.451493	-0.703057	1.205592
Br105	Br	-0.429094	-0.979944	0.537236
Br106	Br	0.070906	-0.479944	1.037236
H107	H	-1.099292	-1.256075	0.725253
H108	H	-0.599292	-0.756075	1.225253
Br109	Br	-1.094154	-1.279499	0.516218
Br110	Br	-0.594154	-0.779499	1.016218
Br111	Br	-0.939562	-1.281561	0.515278
Br112	Br	-0.439562	-0.781561	1.015278
H113	H	-0.505321	-1.489853	1.088329
H114	H	-0.005321	-0.989853	1.588329
H115	H	-1.098787	-1.470108	0.517844
H116	H	-0.598787	-0.970108	1.017844
H117	H	-0.972170	-1.471316	0.517925
H118	H	-0.472170	-0.971316	1.017925
H119	H	-1.132313	-1.545469	0.806592
H120	H	-0.632313	-1.045469	1.306592
H121	H	-1.004566	-1.539638	0.810379
H122	H	-0.504566	-1.039638	1.310379
Br123	Br	-0.984215	-1.642704	0.651297
Br124	Br	-0.484215	-1.142704	1.151297
H125	H	-1.123643	-1.595027	0.674977
H126	H	-0.623643	-1.095027	1.174977
