data_functionalizedCrystal
_audit_creation_method	'MofGen! by Chris Wilmer'
_symmetry_space_group_name_H-M	'P1'
_symmetry_Int_Tables_number	1
_symmetry_cell_setting	triclinic
loop_
_symmetry_equiv_pos_as_xyz
  x,y,z
_cell_length_a	16.109301
_cell_length_b	16.109304
_cell_length_c	9.730223
_cell_angle_alpha	89.998411
_cell_angle_beta	89.999429
_cell_angle_gamma	83.462059
loop_
_atom_site_label
_atom_site_type_symbol
_atom_site_fract_x
_atom_site_fract_y
_atom_site_fract_z
O1	O	1.103132	0.106867	-0.114194
O2	O	0.861070	0.120166	-0.114215
O3	O	0.988749	-0.007514	-0.114205
O4	O	0.975452	0.234547	-0.114204
O5	O	0.988741	-0.007518	0.114375
O6	O	0.861062	0.120163	0.114365
O7	O	1.103123	0.106863	0.114386
Zn8	Zn	0.982091	0.113512	0.150667
Zn9	Zn	0.982102	0.113517	-0.150497
O10	O	0.975444	0.234544	0.114375
C11	C	0.830091	0.119626	0.000072
C12	C	0.737795	0.118010	0.000064
C13	C	0.515524	0.190018	0.000080
C14	C	0.428803	0.188494	0.000089
C15	C	0.448676	0.037005	0.000083
C16	C	0.535395	0.038530	0.000084
C17	C	0.568816	0.115039	0.000075
C18	C	0.395377	0.111990	0.000083
C19	C	0.301351	0.110337	0.000093
C20	C	0.662848	0.116693	0.000068
C21	C	0.988206	-0.038491	0.000082
C22	C	0.986590	-0.130786	0.000072
C23	C	0.982861	-0.343122	-0.124522
C24	C	0.981335	-0.429842	-0.124521
C25	C	0.981330	-0.429843	0.124690
C26	C	0.982850	-0.343123	0.124687
C27	C	0.983620	-0.299766	0.000077
C28	C	0.980573	-0.473205	0.000081
C29	C	0.978919	-0.567231	0.000083
C30	C	0.985273	-0.205734	0.000075
C31	C	1.134102	0.107404	0.000095
C32	C	1.226398	0.109019	0.000095
C33	C	0.975987	0.265520	0.000086
C34	C	0.977603	0.357816	0.000086
N35	N	0.982090	0.113509	0.356204
N36	N	0.982110	0.113514	-0.356033
C37	C	1.038645	0.056996	0.428134
C38	C	1.038654	0.056996	0.572017
C39	C	0.925548	0.170030	0.572026
C40	C	0.925537	0.170025	0.428146
H41	H	0.578788	-0.022530	0.000084
H42	H	0.385416	0.249550	0.000095
H43	H	0.542732	0.252316	0.000083
H44	H	0.983485	-0.307822	-0.225987
H45	H	0.879478	0.216045	0.369576
H46	H	1.084705	0.010977	0.630579
Br47	Br	0.848802	0.246729	0.669667
H48	H	0.980715	-0.465138	-0.225982
Br49	Br	0.403313	-0.066823	0.000089
H50	H	0.980705	-0.465155	0.226143
Br51	Br	1.115394	-0.019706	0.330503
H52	H	0.983463	-0.307821	0.226157
