data_functionalizedCrystal
_audit_creation_method	'MofGen! by Chris Wilmer'
_symmetry_space_group_name_H-M	'P1'
_symmetry_Int_Tables_number	1
_symmetry_cell_setting	triclinic
loop_
_symmetry_equiv_pos_as_xyz
  x,y,z
_cell_length_a	14.044220
_cell_length_b	14.044190
_cell_length_c	10.868271
_cell_angle_alpha	89.990065
_cell_angle_beta	90.000690
_cell_angle_gamma	93.190328
loop_
_atom_site_label
_atom_site_type_symbol
_atom_site_fract_x
_atom_site_fract_y
_atom_site_fract_z
O1	O	1.277174	0.230169	-0.102216
O2	O	1.610507	0.563502	0.231117
O3	O	1.943840	0.896836	0.564450
O4	O	1.000502	0.221863	-0.102247
O5	O	1.333835	0.555197	0.231087
O6	O	1.667169	0.888530	0.564420
O7	O	1.134681	0.087680	-0.102208
O8	O	1.468015	0.421013	0.231126
O9	O	1.801348	0.754346	0.564459
O10	O	1.142994	0.364352	-0.102255
O11	O	1.476327	0.697686	0.231078
O12	O	1.809661	1.031019	0.564411
O13	O	1.134669	0.087673	0.102437
O14	O	1.468002	0.421006	0.435770
O15	O	1.801336	0.754340	0.769104
O16	O	1.000489	0.221856	0.102398
O17	O	1.333823	0.555190	0.435731
O18	O	1.667156	0.888523	0.769065
O19	O	1.277161	0.230162	0.102428
O20	O	1.610494	0.563496	0.435762
O21	O	1.943828	0.896829	0.769095
Zn22	Zn	1.138823	0.226008	0.134905
Zn23	Zn	1.472157	0.559342	0.468238
Zn24	Zn	1.805490	0.892675	0.801572
Zn25	Zn	1.138840	0.226017	-0.134723
Zn26	Zn	1.472173	0.559350	0.198610
Zn27	Zn	1.805506	0.892684	0.531943
O28	O	1.142982	0.364346	0.102389
O29	O	1.476315	0.697679	0.435723
O30	O	1.809648	1.031012	0.769056
C31	C	0.964874	0.218224	0.000072
C32	C	1.298207	0.551557	0.333406
C33	C	1.631540	0.884891	0.666739
C34	C	0.858731	0.207380	0.000062
C35	C	1.192064	0.540713	0.333395
C36	C	1.525397	0.874046	0.666728
C37	C	0.664392	0.187553	0.000089
C38	C	0.997726	0.520887	0.333423
C39	C	1.331059	0.854220	0.666756
C40	C	0.613264	0.264468	0.000081
C41	C	0.946598	0.597801	0.333415
C42	C	1.279931	0.931135	0.666748
C43	C	0.505128	0.253436	0.000097
C44	C	0.838461	0.586770	0.333430
C45	C	1.171795	0.920103	0.666764
C46	C	0.772539	0.198583	0.000074
C47	C	1.105872	0.531917	0.333407
C48	C	1.439205	0.865250	0.666741
C49	C	1.131039	0.052054	0.000118
C50	C	1.464372	0.385388	0.333451
C51	C	1.797705	0.718721	0.666784
C52	C	1.120191	-0.054089	0.000127
C53	C	1.453525	0.279245	0.333461
C54	C	1.786858	0.612578	0.666794
C55	C	1.177292	-0.299547	0.000085
C56	C	1.510625	0.033786	0.333419
C57	C	1.843958	0.367120	0.666752
C58	C	1.100375	-0.248422	0.000086
C59	C	1.433709	0.084912	0.333419
C60	C	1.767042	0.418245	0.666752
C61	C	1.111404	-0.140285	0.000109
C62	C	1.444737	0.193049	0.333442
C63	C	1.778070	0.526382	0.666775
C64	C	1.166265	-0.407694	0.000062
C65	C	1.499598	-0.074360	0.333395
C66	C	1.832932	0.258973	0.666729
C67	C	1.312789	0.233801	0.000107
C68	C	1.646123	0.567135	0.333440
C69	C	1.979456	0.900468	0.666773
C70	C	1.418932	0.244646	0.000109
C71	C	1.752266	0.577979	0.333443
C72	C	2.085599	0.911312	0.666776
C73	C	1.146624	0.399971	0.000061
C74	C	1.479958	0.733304	0.333395
C75	C	1.813291	1.066638	0.666728
C76	C	1.157472	0.506114	0.000044
C77	C	1.490805	0.839447	0.333377
C78	C	1.824138	1.172781	0.666710
N79	N	1.138819	0.226002	0.318919
N80	N	1.472152	0.559336	0.652252
N81	N	1.805486	0.892669	0.985586
N82	N	1.138851	0.226016	-0.318737
N83	N	1.472184	0.559350	0.014596
N84	N	1.805518	0.892683	0.347929
C85	C	1.138835	0.226015	0.569925
C86	C	1.472168	0.559348	0.903258
C87	C	1.805501	0.892681	1.236592
C88	C	1.138823	0.226010	0.430248
C89	C	1.472156	0.559344	0.763581
C90	C	1.805490	0.892677	1.096914
H91	H	0.650706	0.338602	0.000063
H92	H	0.984039	0.671935	0.333396
H93	H	1.317372	1.005268	0.666729
C94	C	1.277435	-0.248965	0.000127
C95	C	1.610769	0.084369	0.333461
C96	C	1.944102	0.417702	0.666794
N97	N	1.352863	-0.210855	0.000168
N98	N	1.686196	0.122478	0.333501
N99	N	2.019529	0.455812	0.666835
H100	H	0.626954	0.113425	0.000109
H101	H	0.960287	0.446759	0.333442
H102	H	1.293620	0.780092	0.666776
H103	H	1.026243	-0.285865	0.000070
H104	H	1.359576	0.047468	0.333404
H105	H	1.692910	0.380802	0.666737
