data_functionalizedCrystal
_audit_creation_method	'MofGen! by Chris Wilmer'
_symmetry_space_group_name_H-M	'P1'
_symmetry_Int_Tables_number	1
_symmetry_cell_setting	triclinic
loop_
_symmetry_equiv_pos_as_xyz
  x,y,z
_cell_length_a	10.654556
_cell_length_b	10.268362
_cell_length_c	10.654550
_cell_angle_alpha	89.999831
_cell_angle_beta	95.513844
_cell_angle_gamma	90.005049
loop_
_atom_site_label
_atom_site_type_symbol
_atom_site_fract_x
_atom_site_fract_y
_atom_site_fract_z
O1	O	1.667838	0.108310	-0.176429
O2	O	1.302360	0.108309	-0.193227
O3	O	1.493502	0.108305	-0.002089
O4	O	1.476696	0.108314	-0.367567
O5	O	1.493483	-0.108296	-0.002095
O6	O	1.302342	-0.108291	-0.193234
O7	O	1.667819	-0.108291	-0.176435
Cu8	Cu	1.485079	-0.128068	-0.184835
Cu9	Cu	1.485101	0.128087	-0.184827
O10	O	1.476677	-0.108286	-0.367574
C11	C	1.255553	0.000009	-0.191995
C12	C	1.116110	0.000009	-0.188300
N13	N	1.485073	-0.308234	-0.184840
C14	C	0.919590	0.118088	-0.183097
C15	C	1.050612	0.118083	-0.186562
C16	C	1.050580	-0.118067	-0.186562
C17	C	0.919562	-0.118060	-0.183088
C18	C	0.919609	0.254428	-0.183103
C19	C	1.050631	0.254422	-0.186567
C20	C	1.485082	-0.426077	-0.184840
C21	C	1.485097	-0.573915	-0.184829
C22	C	1.714626	0.000012	-0.177667
C23	C	1.854069	0.000021	-0.181362
C24	C	1.492259	0.000006	0.044706
C25	C	1.488567	0.000011	0.184149
N26	N	1.485117	0.308253	-0.184813
C27	C	1.477921	0.000015	-0.414368
C28	C	1.481612	0.000019	-0.553812
C29	C	1.601108	0.000007	0.263632
C30	C	1.597631	0.000016	0.394653
C31	C	1.369063	0.000027	0.366695
C32	C	1.372540	0.000027	0.235676
C33	C	1.733071	-0.000005	0.279775
C34	C	1.729594	0.000004	0.410796
H35	H	0.866223	-0.214202	-0.181650
H36	H	1.103921	-0.214205	-0.187966
Br37	Br	0.878227	0.341682	-0.035311
Br38	Br	0.833423	0.324938	-0.332176
Br39	Br	1.136831	0.324925	-0.037487
Br40	Br	1.796071	0.155875	0.486887
H41	H	1.075469	0.306759	-0.275249
Br42	Br	1.812449	-0.151070	0.480405
H43	H	1.280898	0.000048	0.170965
Br44	Br	1.211606	0.000057	0.436633
H45	H	1.784694	0.090635	0.250419
H46	H	1.775084	-0.093529	0.244144
