data_functionalizedCrystal
_audit_creation_method	'MofGen! by Chris Wilmer'
_symmetry_space_group_name_H-M	'P1'
_symmetry_Int_Tables_number	1
_symmetry_cell_setting	triclinic
loop_
_symmetry_equiv_pos_as_xyz
  x,y,z
_cell_length_a	12.759401
_cell_length_b	25.639240
_cell_length_c	25.639233
_cell_angle_alpha	89.974071
_cell_angle_beta	89.988407
_cell_angle_gamma	90.034283
loop_
_atom_site_label
_atom_site_type_symbol
_atom_site_fract_x
_atom_site_fract_y
_atom_site_fract_z
Zn1	Zn	1.606038	-0.208193	-0.295569
Zn2	Zn	1.605902	-0.295612	-0.208122
Zn3	Zn	1.430365	-0.208195	-0.208149
Zn4	Zn	1.430273	-0.295602	-0.295528
O5	O	1.518144	-0.251900	-0.251842
O6	O	1.753041	-0.219793	-0.283974
O7	O	1.582598	-0.284021	-0.134960
O8	O	1.453764	-0.135029	-0.219774
O9	O	1.752941	-0.284019	-0.219728
O10	O	1.582830	-0.135028	-0.284000
O11	O	1.453632	-0.219796	-0.134980
O12	O	1.283332	-0.219786	-0.219734
O13	O	1.453607	-0.284002	-0.368699
O14	O	1.283264	-0.284003	-0.283931
O15	O	1.582740	-0.219783	-0.368729
O16	O	1.582509	-0.368776	-0.219688
O17	O	1.453475	-0.368768	-0.283905
C18	C	1.245177	-0.251894	-0.251832
C19	C	1.128400	-0.251904	-0.251840
C20	C	1.073531	-0.285393	-0.285214
C21	C	0.963807	-0.285395	-0.285225
C22	C	0.963832	-0.218417	-0.218481
C23	C	1.073554	-0.218413	-0.218474
C24	C	0.813878	-0.304174	-0.346860
C25	C	0.759005	-0.337671	-0.380230
C26	C	0.794568	-0.388698	-0.388155
C27	C	0.885002	-0.406238	-0.362703
C28	C	0.939870	-0.372744	-0.329328
C29	C	0.904309	-0.321710	-0.321413
C30	C	1.223484	-0.199639	-0.156838
C31	C	1.278353	-0.166147	-0.123461
C32	C	1.242793	-0.115119	-0.115530
C33	C	1.152355	-0.097581	-0.140974
C34	C	1.097485	-0.131073	-0.174351
C35	C	1.133053	-0.182100	-0.182282
C36	C	1.517996	-0.387743	-0.251801
C37	C	1.518028	-0.445857	-0.251801
C38	C	1.585382	-0.806181	-0.285345
C39	C	1.585413	-0.860785	-0.285356
O40	O	1.642503	-0.888989	-0.313834
N41	N	1.518290	-0.888139	-0.251892
C42	C	1.451124	-0.860886	-0.218420
O43	O	1.394033	-0.889167	-0.189958
C44	C	1.451089	-0.806283	-0.218412
C45	C	1.518224	-0.778932	-0.251874
C46	C	1.652511	-0.778830	-0.318805
C47	C	1.652481	-0.724229	-0.318793
C48	C	1.585323	-0.696980	-0.285322
C49	C	1.518194	-0.724331	-0.251863
C50	C	1.383918	-0.779031	-0.184943
C51	C	1.383888	-0.724424	-0.184939
C52	C	1.451023	-0.697073	-0.218400
C53	C	1.451005	-0.642482	-0.218380
N54	N	1.518128	-0.615127	-0.251844
C55	C	1.585287	-0.642377	-0.285315
C56	C	1.451202	-0.975557	-0.218439
C57	C	1.451242	-1.030159	-0.218444
C58	C	1.585531	-1.030054	-0.285380
C59	C	1.585495	-0.975451	-0.285373
C60	C	1.518326	-0.948203	-0.251903
C61	C	1.585220	-0.527712	-0.285288
C62	C	1.585187	-0.473106	-0.285272
C63	C	1.450896	-0.473216	-0.218337
C64	C	1.450932	-0.527816	-0.218351
C65	C	1.518097	-0.555063	-0.251831
O66	O	1.393941	-0.614243	-0.189918
O67	O	1.642359	-0.614089	-0.313777
C68	C	1.792178	-0.251907	-0.251853
C69	C	1.908954	-0.251910	-0.251857
C70	C	1.518178	-0.251891	-0.388215
C71	C	1.518193	-0.251887	-0.446329
C72	C	1.518322	-0.115527	-0.251895
C73	C	1.518398	-0.057413	-0.251917
C74	C	1.585518	-0.218349	-0.806713
C75	C	1.585531	-0.218335	-0.861318
O76	O	1.642688	-0.189881	-0.889573
N77	N	1.518308	-0.251765	-0.888612
C78	C	1.451061	-0.285207	-0.861299
O79	O	1.393884	-0.313641	-0.889528
C80	C	1.451044	-0.285219	-0.806695
C81	C	1.518278	-0.251791	-0.779404
C82	C	1.652746	-0.184923	-0.779422
C83	C	1.652734	-0.184939	-0.724822
C84	C	1.585494	-0.218380	-0.697512
C85	C	1.518266	-0.251806	-0.724804
C86	C	1.383792	-0.318659	-0.779383
C87	C	1.383780	-0.318667	-0.724776
C88	C	1.451014	-0.285239	-0.697485
C89	C	1.451015	-0.285262	-0.642894
N90	N	1.518237	-0.251833	-0.615600
C91	C	1.585477	-0.218391	-0.642909
C92	C	1.451102	-0.285180	-0.975969
C93	C	1.451124	-0.285172	-1.030572
C94	C	1.585592	-0.218298	-1.030587
C95	C	1.585575	-0.218310	-0.975984
C96	C	1.518324	-0.251750	-0.948675
C97	C	1.585447	-0.218426	-0.528244
C98	C	1.585432	-0.218446	-0.473638
C99	C	1.450961	-0.285317	-0.473628
C100	C	1.450979	-0.285300	-0.528228
C101	C	1.518226	-0.251850	-0.555535
O102	O	1.393883	-0.313700	-0.614604
O103	O	1.642634	-0.189958	-0.614673
C104	C	1.518171	-0.251872	-0.115999
C105	C	1.518360	-0.251728	-0.057886
H106	H	0.913944	-0.447792	-0.369154
H107	H	1.640202	-0.191186	-0.550471
H108	H	1.329004	-0.345893	-0.702544
H109	H	1.640186	-0.191224	-0.451420
H110	H	1.639860	-0.450838	-0.312520
H111	H	1.013500	-0.387025	-0.308605
H112	H	1.396219	-0.451021	-0.191084
H113	H	1.396508	-0.953374	-0.191179
H114	H	1.396337	-0.312414	-0.953738
H115	H	1.023851	-0.116787	-0.195072
H116	H	1.287473	-0.087852	-0.088347
H117	H	1.329250	-0.801291	-0.157695
H118	H	1.351993	-0.180432	-0.102743
H119	H	1.396273	-0.550087	-0.191100
H120	H	1.396241	-0.312525	-0.550450
H121	H	1.707481	-0.157717	-0.702606
H122	H	1.396219	-0.312546	-0.451383
H123	H	0.749882	-0.415972	-0.415327
H124	H	1.707501	-0.157688	-0.801652
H125	H	1.640321	-0.191089	-0.953767
H126	H	1.707200	-0.801010	-0.346064
H127	H	0.685374	-0.323385	-0.400954
H128	H	1.640340	-0.191067	-1.052832
H129	H	1.640162	-0.953185	-0.312621
H130	H	1.396386	-0.312398	-1.052787
H131	H	1.329042	-0.345880	-0.801594
H132	H	1.707145	-0.701963	-0.346042
H133	H	1.329187	-0.702241	-0.157684
H134	H	0.919162	-0.191151	-0.191315
H135	H	0.784922	-0.262622	-0.340416
H136	H	1.118184	-0.312662	-0.312384
H137	H	1.123388	-0.056033	-0.134508
H138	H	1.639905	-0.549889	-0.312554
H139	H	1.252453	-0.241189	-0.163297
H140	H	1.640213	-1.052251	-0.312635
H141	H	1.396586	-1.052424	-0.191190
