data_functionalizedCrystal
_audit_creation_method	'MofGen! by Chris Wilmer'
_symmetry_space_group_name_H-M	'P1'
_symmetry_Int_Tables_number	1
_symmetry_cell_setting	triclinic
loop_
_symmetry_equiv_pos_as_xyz
  x,y,z
_cell_length_a	15.944551
_cell_length_b	15.944493
_cell_length_c	12.503572
_cell_angle_alpha	93.528588
_cell_angle_beta	86.485927
_cell_angle_gamma	83.486891
loop_
_atom_site_label
_atom_site_type_symbol
_atom_site_fract_x
_atom_site_fract_y
_atom_site_fract_z
O1	O	1.119339	0.103483	-0.089195
O2	O	1.619339	0.603483	0.410805
O3	O	0.874788	0.116838	-0.089220
O4	O	1.374788	0.616838	0.410780
O5	O	1.003768	-0.012118	-0.089215
O6	O	1.503768	0.487882	0.410785
O7	O	0.990360	0.232439	-0.089199
O8	O	1.490360	0.732439	0.410801
O9	O	0.994068	-0.002404	0.089426
O10	O	1.494068	0.497596	0.589426
O11	O	0.865088	0.126552	0.089422
O12	O	1.365088	0.626552	0.589422
O13	O	1.109639	0.113197	0.089447
O14	O	1.609639	0.613197	0.589447
Cu15	Cu	0.986478	0.120762	0.105746
Cu16	Cu	1.486478	0.620762	0.605746
Cu17	Cu	0.997949	0.109273	-0.105518
Cu18	Cu	1.497949	0.609273	0.394482
O19	O	0.980660	0.242153	0.089443
O20	O	1.480660	0.742153	0.589443
C21	C	0.838644	0.121140	0.000098
C22	C	1.338644	0.621140	0.500098
C23	C	0.745399	0.119478	0.000088
C24	C	1.245399	0.619478	0.500088
C25	C	0.530559	0.035572	0.000103
C26	C	1.030559	0.535572	0.500103
C27	C	0.474314	0.069746	-0.087974
C28	C	0.974314	0.569746	0.412026
C29	C	0.574673	0.116471	0.000100
C30	C	1.074673	0.616471	0.500100
C31	C	0.464772	0.079342	0.088152
C32	C	0.964772	0.579342	0.588152
C33	C	0.409760	0.113561	0.000117
C34	C	0.909760	0.613561	0.500117
C35	C	0.519660	0.150663	-0.088050
C36	C	1.019660	0.650663	0.411950
C37	C	0.510121	0.160253	0.088156
C38	C	1.010121	0.660253	0.588156
C39	C	0.453894	0.194484	0.000057
C40	C	0.953894	0.694484	0.500057
C41	C	0.669676	0.118145	0.000090
C42	C	1.169676	0.618145	0.500090
C43	C	0.314759	0.111893	0.000120
C44	C	0.814759	0.611893	0.500120
C45	C	0.998370	-0.038556	0.000101
C46	C	1.498370	0.461444	0.500101
C47	C	0.996728	-0.131806	0.000087
C48	C	1.496728	0.368194	0.500087
C49	C	1.072647	-0.367564	0.000115
C50	C	1.572647	0.132436	0.500115
C51	C	1.036489	-0.422922	-0.087968
C52	C	1.536489	0.077078	0.412032
C53	C	0.993683	-0.302526	0.000100
C54	C	1.493683	0.197474	0.500100
C55	C	1.026907	-0.413320	0.088159
C56	C	1.526907	0.086680	0.588159
C57	C	0.990748	-0.467435	0.000117
C58	C	1.490748	0.032565	0.500117
C59	C	0.957550	-0.356659	-0.088056
C60	C	1.457550	0.143341	0.411944
C61	C	0.947975	-0.347050	0.088150
C62	C	1.447975	0.152950	0.588150
C63	C	0.911760	-0.402377	0.000045
C64	C	1.411760	0.097623	0.500045
C65	C	0.995376	-0.207527	0.000089
C66	C	1.495376	0.292473	0.500089
C67	C	0.989048	-0.562431	0.000120
C68	C	1.489048	-0.062431	0.500120
C69	C	1.145783	0.108894	0.000127
C70	C	1.645783	0.608894	0.500127
C71	C	1.239028	0.110557	0.000131
C72	C	1.739028	0.610557	0.500131
C73	C	0.986058	0.268591	0.000124
C74	C	1.486058	0.768591	0.500124
C75	C	0.987700	0.361840	0.000131
C76	C	1.487700	0.861840	0.500131
N77	N	0.978416	0.128841	0.254338
N78	N	1.478416	0.628841	0.754338
N79	N	1.006018	0.101187	-0.254110
N80	N	1.506018	0.601187	0.245890
C81	C	0.966556	0.140734	0.473453
C82	C	1.466556	0.640734	0.973453
C83	C	1.017875	0.089297	0.526782
C84	C	1.517875	0.589297	1.026782
C85	C	1.011276	0.095914	0.648705
C86	C	1.511276	0.595914	1.148705
C87	C	0.973154	0.134118	0.351519
C88	C	1.473154	0.634118	0.851519
H89	H	0.458254	0.031479	-0.162442
H90	H	0.958254	0.531479	0.337558
F91	F	1.082033	0.025493	0.466777
F92	F	1.582033	0.525493	0.966777
H93	H	0.526201	0.198491	0.162627
H94	H	1.026201	0.698491	0.662627
H95	H	0.543688	0.180801	-0.162593
H96	H	1.043688	0.680801	0.337407
H97	H	0.928269	-0.331894	-0.162603
H98	H	1.428269	0.168106	0.337397
F99	F	0.902655	0.204787	0.533456
F100	F	1.402655	0.704787	1.033456
H101	H	0.563912	-0.031574	-0.000011
H102	H	1.063912	0.468426	0.499989
H103	H	0.910613	-0.314040	0.162614
H104	H	1.410613	0.185960	0.662614
F105	F	0.410535	0.282327	0.000002
F106	F	0.910535	0.782327	0.500002
H107	H	1.056228	-0.438202	0.162621
H108	H	1.556228	0.061798	0.662621
F109	F	0.822792	-0.422598	-0.000024
F110	F	1.322792	0.077402	0.499976
H111	H	1.140669	-0.351940	0.000034
H112	H	1.640669	0.148060	0.500034
F113	F	0.433244	0.039893	0.185478
F114	F	0.933244	0.539893	0.685478
F115	F	1.085360	-0.466051	-0.185294
F116	F	1.585360	0.033949	0.314706
