data_functionalizedCrystal
_audit_creation_method	'MofGen! by Chris Wilmer'
_symmetry_space_group_name_H-M	'P1'
_symmetry_Int_Tables_number	1
_symmetry_cell_setting	triclinic
loop_
_symmetry_equiv_pos_as_xyz
  x,y,z
_cell_length_a	16.109301
_cell_length_b	8.634740
_cell_length_c	15.186229
_cell_angle_alpha	89.998446
_cell_angle_beta	89.999362
_cell_angle_gamma	92.015894
loop_
_atom_site_label
_atom_site_type_symbol
_atom_site_fract_x
_atom_site_fract_y
_atom_site_fract_z
O1	O	1.119037	0.198199	-0.073169
O2	O	0.878954	0.222865	-0.073182
O3	O	0.987631	-0.013938	-0.073174
O4	O	1.010360	0.435002	-0.073177
O5	O	0.987622	-0.013942	0.073283
O6	O	0.878945	0.222861	0.073275
O7	O	1.119028	0.198196	0.073289
Zn8	Zn	0.998985	0.210528	0.096535
Zn9	Zn	0.998997	0.210533	-0.096429
O10	O	1.010351	0.434999	0.073280
C11	C	0.847895	0.221864	0.000045
C12	C	0.755359	0.218869	0.000039
C13	C	0.543804	0.352418	0.000049
C14	C	0.456857	0.349591	0.000054
C15	C	0.454184	0.068632	0.000053
C16	C	0.541129	0.071461	0.000053
C17	C	0.585937	0.213358	0.000047
C18	C	0.412045	0.207703	0.000052
C19	C	0.317772	0.204637	0.000058
C20	C	0.680216	0.216424	0.000042
C21	C	0.982477	-0.071387	0.000053
C22	C	0.967125	-0.242563	0.000048
C23	C	1.150087	0.199197	0.000060
C24	C	1.242623	0.202192	0.000059
C25	C	1.015505	0.492448	0.000051
C26	C	1.030857	0.663624	0.000050
N27	N	0.998983	0.210524	0.228228
N28	N	0.999004	0.210524	-0.228121
C29	C	1.047127	0.105703	0.453954
C30	C	1.047130	0.105699	0.546144
C31	C	0.950855	0.315350	0.546146
C32	C	0.950848	0.315345	0.453958
C33	C	0.998989	0.210524	0.407864
C34	C	0.998998	0.210525	0.592242
C35	C	0.999000	0.210522	0.692198
C36	C	0.998986	0.210524	0.307902
H37	H	0.422556	0.462828	0.000058
C38	C	0.460275	-0.208798	0.000051
C39	C	0.404929	-0.087337	0.000049
H40	H	0.429866	-0.305087	0.000051
H41	H	0.494243	-0.201844	-0.051017
H42	H	0.494241	-0.201848	0.051129
H43	H	0.370966	-0.094281	-0.051033
H44	H	0.370946	-0.094295	0.051122
H45	H	0.900811	-0.293207	0.000039
C46	C	1.161895	-0.317944	-0.075235
C47	C	1.120375	-0.268027	0.000053
H48	H	1.217159	-0.275732	-0.075234
H49	H	1.162976	-0.427855	-0.075228
H50	H	1.133714	-0.284074	-0.126302
H51	H	1.148553	-0.301907	0.051121
H52	H	1.119299	-0.158093	0.000054
C53	C	1.142282	-0.101540	0.463216
C54	C	1.100034	-0.009530	0.403288
H55	H	1.174939	-0.172689	0.431936
H56	H	1.177332	-0.037339	0.499164
H57	H	1.103224	-0.157012	0.499180
H58	H	1.139093	0.045952	0.367328
H59	H	1.064981	-0.073739	0.367324
H60	H	0.580285	0.467959	0.000050
H61	H	0.911660	0.400696	0.583684
C62	C	1.048373	-0.104153	0.649812
C63	C	1.100046	-0.009522	0.596805
H64	H	1.081043	-0.175296	0.681082
H65	H	1.019715	-0.041729	0.690456
H66	H	1.009325	-0.159633	0.613841
H67	H	1.139090	0.045966	0.632776
H68	H	1.128717	-0.071954	0.556156
H69	H	0.911645	0.400704	0.416429
C70	C	0.637366	-0.088342	-0.075236
C71	C	0.587451	-0.081404	0.000049
H72	H	0.665966	-0.182706	-0.075232
H73	H	0.603504	-0.083613	-0.126300
H74	H	0.676490	-0.003421	-0.075225
H75	H	0.548322	-0.166319	0.000034
H76	H	0.621316	-0.086148	0.051126
