data_functionalizedCrystal
_audit_creation_method	'MofGen! by Chris Wilmer'
_symmetry_space_group_name_H-M	'P1'
_symmetry_Int_Tables_number	1
_symmetry_cell_setting	triclinic
loop_
_symmetry_equiv_pos_as_xyz
  x,y,z
_cell_length_a	12.759387
_cell_length_b	21.295420
_cell_length_c	12.759394
_cell_angle_alpha	89.987748
_cell_angle_beta	89.968668
_cell_angle_gamma	90.022490
loop_
_atom_site_label
_atom_site_type_symbol
_atom_site_fract_x
_atom_site_fract_y
_atom_site_fract_z
Zn1	Zn	-0.594095	-0.962405	-0.418287
Zn2	Zn	-0.418412	-0.962342	-0.594003
Zn3	Zn	-0.418421	-0.857134	-0.418331
Zn4	Zn	-0.594041	-0.857126	-0.593917
O5	O	-0.506242	-0.909752	-0.506134
O6	O	-0.570809	-1.050486	-0.441614
O7	O	-0.271392	-0.948362	-0.570754
O8	O	-0.441750	-0.871128	-0.271304
O9	O	-0.441736	-1.050439	-0.570712
O10	O	-0.570817	-0.948470	-0.271272
O11	O	-0.271399	-0.871066	-0.441688
O12	O	-0.441699	-0.769043	-0.441605
O13	O	-0.741069	-0.871115	-0.570565
O14	O	-0.570726	-0.769038	-0.570607
O15	O	-0.741109	-0.948463	-0.441530
O16	O	-0.441684	-0.948355	-0.741013
O17	O	-0.570717	-0.871054	-0.740949
C18	C	-0.506208	-0.746200	-0.506102
C19	C	-0.506218	-0.676232	-0.506113
C20	C	-0.573343	-0.176788	-0.573412
C21	C	-0.573333	-0.242530	-0.573414
C22	C	-0.506259	-0.275392	-0.506143
C23	C	-0.439170	-0.242507	-0.438884
C24	C	-0.439174	-0.176766	-0.438891
N25	N	-0.498352	-0.378618	-0.414156
N26	N	-0.498354	-0.441070	-0.414152
C27	C	-0.506242	-0.473467	-0.506118
N28	N	-0.514147	-0.441054	-0.598090
N29	N	-0.514150	-0.378597	-0.598092
C30	C	-0.506247	-0.346678	-0.506128
C31	C	-0.573311	-0.577630	-0.573380
C32	C	-0.573294	-0.643374	-0.573384
C33	C	-0.439136	-0.643350	-0.438844
C34	C	-0.439148	-0.577607	-0.438850
C35	C	-0.506241	-0.544751	-0.506116
C36	C	-0.780276	-0.909795	-0.506033
C37	C	-0.897053	-0.909813	-0.505990
C38	C	-1.116537	-0.990396	-0.371552
C39	C	-1.061696	-1.030659	-0.304390
C40	C	-0.951974	-1.030641	-0.304425
C41	C	-0.897091	-0.990357	-0.371631
C42	C	-0.951933	-0.950094	-0.438793
C43	C	-1.061657	-0.950115	-0.438749
C44	C	-0.951894	-0.869551	-0.573151
C45	C	-1.061616	-0.869564	-0.573113
C46	C	-0.897012	-0.829267	-0.640357
C47	C	-0.951853	-0.789000	-0.707515
C48	C	-1.061581	-0.789019	-0.707477
C49	C	-1.116457	-0.829301	-0.640274
C50	C	-0.233275	-0.909745	-0.506159
C51	C	-0.116499	-0.909848	-0.505907
C52	C	-0.506217	-0.909714	-0.779102
C53	C	-0.506241	-0.909755	-0.895878
C54	C	-0.506271	-0.073942	-0.506161
C55	C	-0.506267	-0.143910	-0.506157
C56	C	-0.371979	-0.990310	-0.895891
C57	C	-0.304860	-1.030603	-0.950758
C58	C	-0.304889	-1.030640	-1.060480
C59	C	-0.372046	-0.990380	-1.115337
C60	C	-0.439164	-0.950087	-1.060470
C61	C	-0.439126	-0.950053	-0.950746
C62	C	-0.573430	-0.869537	-1.060457
C63	C	-0.573398	-0.869496	-0.950735
C64	C	-0.640587	-0.829277	-1.115314
C65	C	-0.707702	-0.788979	-1.060447
C66	C	-0.707669	-0.788944	-0.950719
C67	C	-0.640516	-0.829202	-0.895868
C68	C	-0.506291	-0.909807	-0.232101
C69	C	-0.506311	-0.909830	-0.115324
H70	H	-0.384552	-0.149997	-0.384122
H71	H	-0.640610	-0.829313	-1.204655
N72	N	-0.645686	-0.278002	-0.645950
H73	H	-0.602908	-0.305262	-0.694588
H74	H	-0.688172	-0.247172	-0.688494
H75	H	-0.762330	-0.756134	-0.906051
H76	H	-0.762380	-0.756206	-1.105120
H77	H	-0.807750	-0.990352	-0.371663
H78	H	-0.384531	-0.550838	-0.384081
H79	H	-0.250184	-1.063383	-0.906084
N80	N	-0.645663	-0.542194	-0.645944
H81	H	-0.602886	-0.514901	-0.694582
H82	H	-0.694417	-0.514973	-0.603235
N83	N	-0.371933	-0.990266	-0.777549
H84	H	-0.444010	-1.001809	-0.751035
H85	H	-0.352508	-0.947069	-0.751285
H86	H	-0.807670	-0.829258	-0.640386
N87	N	-0.232486	-1.074091	-1.119662
H88	H	-0.242695	-1.068001	-1.197493
H89	H	-0.248887	-1.119041	-1.100422
N90	N	-0.892670	-0.745554	-0.779999
H91	H	-0.847146	-0.771118	-0.828713
H92	H	-0.847205	-0.716394	-0.737239
H93	H	-0.640477	-0.829173	-0.806527
H94	H	-0.384556	-0.269268	-0.384113
N95	N	-0.645687	-0.141350	-0.645977
H96	H	-0.688172	-0.172158	-0.688589
H97	H	-0.602826	-0.114065	-0.694549
H98	H	-0.627913	-0.670142	-0.628157
N99	N	-1.234879	-0.990411	-0.371495
H100	H	-1.261319	-1.033593	-0.390803
H101	H	-1.261212	-0.958764	-0.424228
N102	N	-0.366781	-0.678784	-0.366294
H103	H	-0.376953	-0.725421	-0.376496
H104	H	-0.383258	-0.667305	-0.291278
N105	N	-1.120883	-1.074107	-0.231903
H106	H	-1.166405	-1.103277	-0.274589
H107	H	-1.166349	-1.048499	-0.183205
H108	H	-0.907322	-1.063428	-0.249739
H109	H	-1.106227	-0.756234	-0.762172
H110	H	-1.205799	-0.829317	-0.640230
N111	N	-0.372091	-0.990425	-1.233678
H112	H	-0.319386	-1.022062	-1.260112
H113	H	-0.352757	-0.947236	-1.260101
