data_functionalizedCrystal
_audit_creation_method	'MofGen! by Chris Wilmer'
_symmetry_space_group_name_H-M	'P1'
_symmetry_Int_Tables_number	1
_symmetry_cell_setting	triclinic
loop_
_symmetry_equiv_pos_as_xyz
  x,y,z
_cell_length_a	17.699077
_cell_length_b	10.723024
_cell_length_c	16.176319
_cell_angle_alpha	89.994397
_cell_angle_beta	89.993140
_cell_angle_gamma	83.874223
loop_
_atom_site_label
_atom_site_type_symbol
_atom_site_fract_x
_atom_site_fract_y
_atom_site_fract_z
O1	O	1.005077	0.157762	-0.068733
O2	O	1.505077	0.657762	0.431267
O3	O	0.784827	0.178299	-0.068737
O4	O	1.284827	0.678299	0.431263
O5	O	0.900032	-0.013633	-0.068732
O6	O	1.400032	0.486367	0.431268
O7	O	0.889872	0.349694	-0.068739
O8	O	1.389872	0.849694	0.431261
O9	O	0.900016	-0.013645	0.068761
O10	O	1.400016	0.486355	0.568761
O11	O	0.784811	0.178287	0.068756
O12	O	1.284811	0.678287	0.568756
O13	O	1.005061	0.157750	0.068760
O14	O	1.505061	0.657750	0.568760
Cu15	Cu	0.894934	0.168017	0.081312
Cu16	Cu	1.394934	0.668017	0.581312
Cu17	Cu	0.894953	0.168032	-0.081290
Cu18	Cu	1.394953	0.668032	0.418710
O19	O	0.889856	0.349682	0.068755
O20	O	1.389856	0.849682	0.568755
C21	C	0.756618	0.177559	0.000009
C22	C	1.256618	0.677559	0.500009
C23	C	0.672585	0.175355	0.000007
C24	C	1.172585	0.675355	0.500007
C25	C	0.633103	0.174310	0.074956
C26	C	1.133103	0.674310	0.574956
C27	C	0.554147	0.172219	0.074957
C28	C	1.054147	0.672219	0.574957
C29	C	0.514675	0.171182	0.000008
C30	C	1.014675	0.671182	0.500008
C31	C	0.554163	0.172224	-0.074946
C32	C	1.054163	0.672224	0.425054
C33	C	0.633118	0.174305	-0.074946
C34	C	1.133118	0.674305	0.425054
C35	C	0.235747	0.163827	-0.074947
C36	C	0.735747	0.663827	0.425053
C37	C	0.156786	0.161748	-0.074942
C38	C	0.656786	0.661748	0.425058
C39	C	0.156776	0.161740	0.074955
C40	C	0.656776	0.661740	0.574955
C41	C	0.235731	0.163822	0.074955
C42	C	0.735731	0.663822	0.574955
C43	C	0.275213	0.164856	0.000002
C44	C	0.775213	0.664856	0.500002
C45	C	0.360826	0.167121	0.000002
C46	C	0.860826	0.667121	0.500002
C47	C	0.429062	0.168927	0.000008
C48	C	0.929062	0.668927	0.500008
C49	C	0.899285	-0.060126	0.000013
C50	C	1.399285	0.439874	0.500013
C51	C	0.897073	-0.198642	0.000010
C52	C	1.397073	0.301358	0.500010
C53	C	0.961535	-0.274732	0.000010
C54	C	1.461535	0.225268	0.500010
C55	C	0.959250	-0.417896	0.000007
C56	C	1.459250	0.082104	0.500007
C57	C	1.033270	0.158490	0.000012
C58	C	1.533270	0.658490	0.500012
C59	C	1.117303	0.160694	0.000008
C60	C	1.617303	0.660694	0.500008
C61	C	0.890603	0.396175	0.000007
C62	C	1.390603	0.896175	0.500007
C63	C	0.892815	0.534691	0.000005
C64	C	1.392815	1.034691	0.500005
N65	N	0.894927	0.168006	0.195677
N66	N	1.394927	0.668006	0.695677
N67	N	0.894967	0.168033	-0.195655
N68	N	1.394967	0.668033	0.304345
C69	C	0.945955	0.083053	0.238944
C70	C	1.445955	0.583053	0.738944
C71	C	0.945959	0.083052	0.325491
C72	C	1.445959	0.583052	0.825491
C73	C	0.894937	0.168011	0.368770
C74	C	1.394937	0.668011	0.868770
C75	C	0.843903	0.252968	0.325497
C76	C	1.343903	0.752968	0.825497
C77	C	0.843896	0.252962	0.238952
C78	C	1.343896	0.752962	0.738952
C79	C	0.843929	0.252991	0.674526
C80	C	1.343929	0.752991	1.174526
C81	C	0.843942	0.252993	0.761077
C82	C	1.343942	0.752993	1.261077
C83	C	0.945992	0.083081	0.761065
C84	C	1.445992	0.583081	1.261065
C85	C	0.945985	0.083075	0.674519
C86	C	1.445985	0.583075	1.174519
C87	C	0.894949	0.168027	0.631254
C88	C	1.394949	0.668027	1.131254
C89	C	0.894944	0.168026	0.537410
C90	C	1.394944	0.668026	1.037410
C91	C	0.894945	0.168019	0.462612
C92	C	1.394945	0.668019	0.962612
H93	H	0.267884	0.164665	-0.135979
H94	H	0.767884	0.664665	0.364021
H95	H	0.840192	-0.239487	0.000004
H96	H	1.340192	0.260513	0.500004
H97	H	0.837627	-0.399936	0.000010
H98	H	1.337627	0.100064	0.500010
H99	H	0.522005	0.171347	0.135987
H100	H	1.022005	0.671347	0.635987
H101	H	0.987506	0.013876	0.203712
H102	H	1.487506	0.513876	0.703712
H103	H	1.018416	-0.233887	0.000016
H104	H	1.518416	0.266113	0.500016
H105	H	0.987510	0.013876	0.360718
H106	H	1.487510	0.513876	0.860718
H107	H	1.014435	-0.483277	0.000011
H108	H	1.514435	0.016723	0.500011
H109	H	0.987534	0.013899	0.639284
H110	H	1.487534	0.513899	1.139284
H111	H	0.987546	0.013904	0.796300
H112	H	1.487546	0.513904	1.296300
H113	H	0.665234	0.175164	0.135988
H114	H	1.165234	0.675164	0.635988
H115	H	0.802357	0.322138	0.360740
H116	H	1.302357	0.822138	0.860740
H117	H	0.802391	0.322178	0.796314
H118	H	1.302391	0.822178	1.296314
H119	H	0.802375	0.322164	0.639306
H120	H	1.302375	0.822164	1.139306
H121	H	0.522019	0.171371	-0.135970
H122	H	1.022019	0.671371	0.364030
H123	H	0.802343	0.322138	0.203725
H124	H	1.302343	0.822138	0.703725
H125	H	0.267865	0.164672	0.135986
H126	H	0.767865	0.664672	0.635986
H127	H	0.124650	0.160903	-0.135977
H128	H	0.624650	0.660903	0.364023
H129	H	0.124620	0.160892	0.135986
H130	H	0.624620	0.660892	0.635986
H131	H	0.665264	0.175159	-0.135977
H132	H	1.165264	0.675159	0.364023
