data_functionalizedCrystal
_audit_creation_method	'MofGen! by Chris Wilmer'
_symmetry_space_group_name_H-M	'P1'
_symmetry_Int_Tables_number	1
_symmetry_cell_setting	triclinic
loop_
_symmetry_equiv_pos_as_xyz
  x,y,z
_cell_length_a	15.995343
_cell_length_b	10.654550
_cell_length_c	9.130313
_cell_angle_alpha	89.995631
_cell_angle_beta	90.000797
_cell_angle_gamma	83.987057
loop_
_atom_site_label
_atom_site_type_symbol
_atom_site_fract_x
_atom_site_fract_y
_atom_site_fract_z
O1	O	1.111928	0.161826	-0.121652
O2	O	0.868268	0.181825	-0.121687
O3	O	0.995700	-0.010987	-0.121659
O4	O	0.984496	0.354638	-0.121679
O5	O	0.995692	-0.010992	0.121939
O6	O	0.868259	0.181820	0.121912
O7	O	1.111919	0.161821	0.121947
Cu8	Cu	0.990089	0.171820	0.144172
Cu9	Cu	0.990099	0.171826	-0.143912
O10	O	0.984487	0.354633	0.121919
C11	C	0.837064	0.180998	0.000108
C12	C	0.744099	0.178524	0.000095
C13	C	0.994873	-0.057777	0.000139
C14	C	0.992412	-0.197188	0.000137
C15	C	1.067442	-0.277657	0.000147
C16	C	1.065124	-0.408647	0.000129
C17	C	0.912740	-0.378687	0.000096
C18	C	0.915058	-0.247699	0.000104
C19	C	0.573886	0.174034	0.000115
C20	C	0.549733	0.034853	0.000122
C21	C	0.453040	0.032235	0.000683
C22	C	0.406301	0.169612	0.000133
C23	C	0.435794	0.239591	0.138959
C24	C	0.532596	0.241242	0.139067
C25	C	0.532528	0.243286	-0.137960
C26	C	0.436004	0.238148	-0.139776
C27	C	0.311588	0.167120	0.000148
C28	C	0.668599	0.176530	0.000109
C29	C	1.143123	0.162648	0.000149
C30	C	1.236089	0.165122	0.000152
C31	C	0.985314	0.401423	0.000118
C32	C	0.987776	0.540834	0.000111
N33	N	0.990087	0.171814	0.346795
N34	N	0.990107	0.171822	-0.346535
C35	C	1.046534	0.086473	0.423459
C36	C	1.046542	0.086473	0.576795
C37	C	0.933654	0.257167	0.576791
C38	C	0.933643	0.257160	0.423457
H39	H	1.126221	-0.474161	0.000134
C40	C	0.506676	0.138207	-0.363571
C41	C	0.570342	0.184008	-0.280064
H42	H	0.530022	0.101608	-0.451296
H43	H	0.481534	0.076188	-0.309008
H44	H	0.465299	0.205772	-0.387063
H45	H	0.611715	0.116440	-0.256562
H46	H	0.595496	0.246031	-0.334638
H47	H	0.849761	-0.419830	0.000072
C48	C	0.640944	-0.142494	-0.087691
C49	C	0.587120	-0.037992	-0.134243
H50	H	0.664024	-0.187471	-0.170646
H51	H	0.685058	-0.114635	-0.030542
H52	H	0.610248	-0.196259	-0.030332
H53	H	0.617818	0.015778	-0.191594
H54	H	0.542999	-0.065851	-0.191416
C55	C	0.386871	-0.145428	-0.087039
C56	C	0.426926	-0.041717	-0.133623
H57	H	0.370748	-0.191081	-0.169957
H58	H	0.424330	-0.198854	-0.027992
H59	H	0.338361	-0.116680	-0.031594
H60	H	0.475439	-0.070466	-0.189060
H61	H	0.389465	0.011718	-0.192695
C62	C	0.337648	0.397933	-0.032911
C63	C	0.392327	0.373486	-0.151661
H64	H	0.310690	0.481493	-0.040237
H65	H	0.296529	0.339764	-0.033860
H66	H	0.368647	0.389141	0.055900
H67	H	0.361327	0.382269	-0.240472
H68	H	0.433451	0.431672	-0.150725
H69	H	1.130428	-0.236535	0.000170
C70	C	0.519112	0.434850	0.275688
C71	C	0.553084	0.379017	0.147067
H72	H	0.531765	0.519901	0.280636
H73	H	0.459880	0.432907	0.275552
H74	H	0.542664	0.389615	0.358109
H75	H	0.529527	0.424247	0.064645
H76	H	0.612327	0.380968	0.147190
C77	C	0.785889	-0.181821	-0.125139
C78	C	0.832577	-0.159239	0.000094
H79	H	0.734969	-0.127214	-0.125142
H80	H	0.817579	-0.166497	-0.210064
H81	H	0.773442	-0.267064	-0.125128
H82	H	0.845029	-0.073998	0.000077
H83	H	0.800880	-0.174553	0.085040
H84	H	1.092493	0.016977	0.361044
H85	H	1.092504	0.016979	0.639211
H86	H	0.417154	0.187186	-0.242482
C87	C	0.789137	0.330775	0.624036
C88	C	0.871617	0.350977	0.661069
H89	H	0.750839	0.388686	0.676073
H90	H	0.781055	0.342992	0.521757
H91	H	0.779578	0.246947	0.649186
H92	H	0.881177	0.434802	0.635909
H93	H	0.879702	0.338770	0.763371
C94	C	0.885725	0.474531	0.376205
C95	C	0.871595	0.350979	0.339175
H96	H	0.847422	0.532444	0.324165
H97	H	0.877650	0.486745	0.478483
H98	H	0.941683	0.488200	0.351055
H99	H	0.815639	0.337307	0.364336
H100	H	0.879663	0.338760	0.236874
H101	H	0.578405	-0.018218	0.099533
C102	C	0.596367	0.404441	-0.267886
C103	C	0.552252	0.381581	-0.139810
H104	H	0.608541	0.489817	-0.269025
H105	H	0.647384	0.350162	-0.270705
H106	H	0.563085	0.388865	-0.350789
H107	H	0.585536	0.397148	-0.056906
H108	H	0.501227	0.435877	-0.136977
C109	C	0.655871	0.177215	0.281605
C110	C	0.568384	0.176570	0.279690
H111	H	0.677960	0.137292	0.368426
H112	H	0.679484	0.132944	0.198606
H113	H	0.669501	0.261850	0.279106
H114	H	0.554754	0.091934	0.282178
H115	H	0.544762	0.220839	0.362712
C116	C	0.499676	-0.083255	0.216611
C117	C	0.427709	-0.041359	0.135830
H118	H	0.484036	-0.128680	0.300055
H119	H	0.536875	-0.136796	0.157249
H120	H	0.526918	-0.012695	0.247335
H121	H	0.400470	-0.111920	0.105097
H122	H	0.390496	0.012185	0.195203
C123	C	0.355639	0.260950	0.361574
C124	C	0.408300	0.174724	0.278946
H125	H	0.338665	0.220881	0.447979
H126	H	0.385088	0.330639	0.387411
H127	H	0.307442	0.289790	0.305371
H128	H	0.456500	0.145892	0.335144
H129	H	0.378851	0.105012	0.253111
H130	H	0.404535	0.340696	0.143726
