data_functionalizedCrystal
_audit_creation_method	'MofGen! by Chris Wilmer'
_symmetry_space_group_name_H-M	'P1'
_symmetry_Int_Tables_number	1
_symmetry_cell_setting	triclinic
loop_
_symmetry_equiv_pos_as_xyz
  x,y,z
_cell_length_a	16.992694
_cell_length_b	16.053802
_cell_length_c	16.992701
_cell_angle_alpha	87.254122
_cell_angle_beta	90.667696
_cell_angle_gamma	92.750953
loop_
_atom_site_label
_atom_site_type_symbol
_atom_site_fract_x
_atom_site_fract_y
_atom_site_fract_z
O1	O	1.053957	0.069310	0.163816
O2	O	1.553957	0.569310	0.663816
O3	O	0.825558	0.069335	0.161983
O4	O	1.325558	0.569335	0.661983
O5	O	0.938843	0.069326	0.048699
O6	O	1.438843	0.569326	0.548699
O7	O	0.940672	0.069319	0.277100
O8	O	1.440672	0.569319	0.777100
O9	O	0.932606	-0.069532	0.054907
O10	O	1.432606	0.430468	0.554907
O11	O	0.819321	-0.069523	0.168191
O12	O	1.319321	0.430477	0.668191
O13	O	1.047720	-0.069548	0.170024
O14	O	1.547720	0.430452	0.670024
Zn15	Zn	0.932530	-0.091582	0.170093
Zn16	Zn	1.432530	0.408418	0.670093
Zn17	Zn	0.940748	0.091370	0.161914
Zn18	Zn	1.440748	0.591370	0.661914
O19	O	0.934435	-0.069539	0.283308
O20	O	1.434435	0.430461	0.783308
C21	C	0.793079	-0.000091	0.162731
C22	C	1.293079	0.499909	0.662731
C23	C	0.705595	-0.000081	0.155702
C24	C	1.205595	0.499919	0.655702
N25	N	0.926927	-0.216442	0.175675
N26	N	1.426927	0.283558	0.675675
C27	C	0.659604	-0.000084	0.223520
C28	C	1.159604	0.499916	0.723520
C29	C	0.577403	-0.000095	0.216912
C30	C	1.077403	0.499905	0.716912
C31	C	0.541195	-0.000098	0.142484
C32	C	1.041195	0.499902	0.642484
C33	C	0.587192	-0.000097	0.074661
C34	C	1.087192	0.499903	0.574661
C35	C	0.669392	-0.000092	0.081271
C36	C	1.169392	0.499908	0.581271
C37	C	0.295880	-0.000119	0.115091
C38	C	0.795880	0.499881	0.615091
C39	C	0.213674	-0.000122	0.108486
C40	C	0.713674	0.499878	0.608486
C41	C	0.203890	-0.000121	0.250738
C42	C	0.703890	0.499879	0.750738
C43	C	0.286092	-0.000111	0.257340
C44	C	0.786092	0.499889	0.757340
C45	C	0.332082	-0.000115	0.189517
C46	C	0.832082	0.499885	0.689517
N47	N	0.457172	-0.000107	0.135728
N48	N	0.957172	0.499893	0.635728
N49	N	0.416103	-0.000112	0.196275
N50	N	0.916103	0.499888	0.696275
C51	C	0.975150	-0.260140	0.127492
C52	C	1.475150	0.239860	0.627492
C53	C	0.971239	-0.347546	0.131405
C54	C	1.471239	0.152454	0.631405
C55	C	0.919108	-0.391254	0.183505
C56	C	1.419108	0.108746	0.683505
C57	C	0.870880	-0.347550	0.231690
C58	C	1.370880	0.152450	0.731690
C59	C	0.874788	-0.260145	0.227773
C60	C	1.374788	0.239855	0.727773
C61	C	0.902036	-0.652662	0.200594
C62	C	1.402036	-0.152662	0.700594
C63	C	0.898134	-0.740073	0.204509
C64	C	1.398134	-0.240073	0.704509
C65	C	0.998492	-0.740063	0.104222
C66	C	1.498492	-0.240063	0.604222
C67	C	1.002399	-0.652657	0.100313
C68	C	1.502399	-0.152657	0.600313
C69	C	0.954168	-0.608961	0.148495
C70	C	1.454168	-0.108961	0.648495
N71	N	0.915110	-0.480597	0.187508
N72	N	1.415110	0.019403	0.687508
N73	N	0.958162	-0.519619	0.144488
N74	N	1.458162	-0.019619	0.644488
C75	C	1.080198	-0.000120	0.169275
C76	C	1.580198	0.499880	0.669275
C77	C	1.167683	-0.000125	0.176304
C78	C	1.667683	0.499875	0.676304
C79	C	0.933369	-0.000100	0.022443
C80	C	1.433369	0.499900	0.522443
C81	C	0.926342	-0.000091	-0.065042
C82	C	1.426342	0.499909	0.434958
N83	N	0.946356	0.216229	0.156326
N84	N	1.446356	0.716229	0.656326
C85	C	0.939909	-0.000111	0.309564
C86	C	1.439909	0.499889	0.809564
C87	C	0.946937	-0.000115	0.397049
C88	C	1.446937	0.499885	0.897049
C89	C	0.994159	-0.000097	0.888966
C90	C	1.494159	0.499903	1.388966
C91	C	0.987549	-0.000096	0.806766
C92	C	1.487549	0.499904	1.306766
C93	C	0.913122	-0.000094	0.770559
C94	C	1.413122	0.499906	1.270559
C95	C	0.845299	-0.000085	0.816556
C96	C	1.345299	0.499915	1.316556
C97	C	0.851910	-0.000080	0.898755
C98	C	1.351910	0.499920	1.398755
C99	C	0.885725	-0.000101	0.525245
C100	C	1.385725	0.499899	1.025245
C101	C	0.879119	-0.000108	0.443040
C102	C	1.379119	0.499892	0.943040
C103	C	1.021370	-0.000118	0.433255
C104	C	1.521370	0.499882	0.933255
C105	C	1.027974	-0.000118	0.515456
C106	C	1.527974	0.499882	1.015456
C107	C	0.960152	-0.000105	0.561447
C108	C	1.460152	0.499895	1.061447
N109	N	0.906364	-0.000095	0.686537
N110	N	1.406364	0.499905	1.186537
N111	N	0.966911	-0.000098	0.645467
N112	N	1.466911	0.499902	1.145467
H113	H	0.539959	-0.000096	0.272137
H114	H	1.039959	0.499904	0.772137
H115	H	0.315566	-0.000099	0.317947
H116	H	0.815566	0.499901	0.817947
O117	O	1.074438	-0.000100	0.928011
O118	O	1.574438	0.499900	1.428011
H119	H	1.067644	-0.000104	0.992897
H120	H	1.567644	0.499896	1.492897
H121	H	0.166436	-0.000120	0.305955
H122	H	0.666436	0.499880	0.805955
O123	O	0.841896	-0.787209	0.260704
O124	O	1.341896	-0.287209	0.760704
H125	H	0.875647	-0.827013	0.302853
H126	H	1.375647	-0.327013	0.802853
H127	H	1.017604	-0.224559	0.085070
H128	H	1.517604	0.275441	0.585070
H129	H	1.010505	-0.383125	0.092170
H130	H	1.510505	0.116875	0.592170
O131	O	0.698655	-0.000089	0.303796
O132	O	1.198655	0.499911	0.803796
H133	H	0.652861	-0.000104	0.349844
H134	H	1.152861	0.499896	0.849844
H135	H	0.818508	-0.000120	0.413564
H136	H	1.318508	0.499880	0.913564
H137	H	0.828430	-0.383141	0.274108
H138	H	1.328430	0.116859	0.774108
H139	H	0.830499	-0.000091	0.562681
H140	H	1.330499	0.499909	1.062681
H141	H	0.557705	-0.000111	0.014061
H142	H	1.057705	0.499889	0.514061
H143	H	0.184197	-0.000123	0.047876
H144	H	0.684197	0.499877	0.547876
O145	O	1.058632	-0.605510	0.044130
O146	O	1.558632	-0.105510	0.544130
H147	H	1.024888	-0.565683	0.001995
H148	H	1.524888	-0.065683	0.501995
O149	O	0.345480	-0.000123	0.041943
O150	O	0.845480	0.499877	0.541943
H151	H	0.306490	-0.000118	-0.010919
H152	H	0.806490	0.499882	0.489081
O153	O	1.060699	-0.000101	0.757163
O154	O	1.560699	0.499899	1.257163
H155	H	1.043602	-0.000092	0.693922
H156	H	1.543602	0.499908	1.193922
O157	O	0.719004	-0.000086	0.008125
O158	O	1.219004	0.499914	0.508125
H159	H	0.680019	-0.000081	-0.044740
H160	H	1.180019	0.499919	0.455260
O161	O	0.822761	-0.213014	0.279731
O162	O	1.322761	0.286986	0.779731
H163	H	0.834225	-0.144894	0.268244
H164	H	1.334225	0.355106	0.768244
O165	O	1.108250	-0.000100	0.554508
O166	O	1.608250	0.499900	1.054508
H167	H	1.154300	-0.000092	0.508716
H168	H	1.654300	0.499908	1.008716
O169	O	1.050504	-0.787190	0.052249
O170	O	1.550504	-0.287190	0.552249
H171	H	1.039027	-0.855311	0.063718
H172	H	1.539027	-0.355311	0.563718
O173	O	0.850026	-0.605537	0.252566
O174	O	1.350026	-0.105537	0.752566
H175	H	0.813129	-0.650616	0.289459
H176	H	1.313129	-0.150616	0.789459
H177	H	1.076587	-0.000127	0.395801
H178	H	1.576587	0.499873	0.895801
O179	O	0.765020	-0.000092	0.777511
O180	O	1.265020	0.499908	1.277511
H181	H	0.771815	-0.000108	0.712626
H182	H	1.271815	0.499892	1.212626
O183	O	0.778761	-0.000082	0.948361
O184	O	1.278761	0.499918	1.448361
H185	H	0.780903	0.056520	0.983505
H186	H	1.280903	0.556520	1.483505
