data_functionalizedCrystal
_audit_creation_method	'MofGen! by Chris Wilmer'
_symmetry_space_group_name_H-M	'P1'
_symmetry_Int_Tables_number	1
_symmetry_cell_setting	triclinic
loop_
_symmetry_equiv_pos_as_xyz
  x,y,z
_cell_length_a	23.532361
_cell_length_b	14.519709
_cell_length_c	22.010155
_cell_angle_alpha	89.999101
_cell_angle_beta	89.989902
_cell_angle_gamma	96.745093
loop_
_atom_site_label
_atom_site_type_symbol
_atom_site_fract_x
_atom_site_fract_y
_atom_site_fract_z
O1	O	0.755790	-0.111734	-0.050466
O2	O	1.255790	0.388266	0.449534
O3	O	0.589996	-0.127977	-0.050480
O4	O	1.089996	0.372023	0.449520
O5	O	0.677289	0.014436	-0.050467
O6	O	1.177289	0.514436	0.449533
O7	O	0.668497	-0.254147	-0.050479
O8	O	1.168497	0.245853	0.449521
O9	O	0.677263	0.014419	0.050583
O10	O	1.177263	0.514419	0.550583
O11	O	0.589971	-0.127994	0.050570
O12	O	1.089971	0.372006	0.550570
O13	O	0.755764	-0.111751	0.050585
O14	O	1.255764	0.388249	0.550585
Cu15	Cu	0.672865	-0.119874	0.059804
Cu16	Cu	1.172865	0.380126	0.559804
Cu17	Cu	0.672895	-0.119854	-0.059700
Cu18	Cu	1.172895	0.380146	0.440300
O19	O	0.668472	-0.254164	0.050572
O20	O	1.168472	0.245836	0.550572
C21	C	0.568765	-0.127579	0.000043
C22	C	1.068765	0.372421	0.500043
C23	C	0.505541	-0.126356	0.000038
C24	C	1.005541	0.373644	0.500038
C25	C	0.232287	-0.120997	-0.055041
C26	C	0.732287	0.379003	0.444959
C27	C	0.291692	-0.122155	-0.055043
C28	C	0.791692	0.377845	0.444957
O29	O	0.322432	-0.122714	-0.101887
O30	O	0.822432	0.377286	0.398113
N31	N	0.321386	-0.122749	0.000040
N32	N	0.821386	0.377251	0.500040
C33	C	0.291673	-0.122176	0.055128
C34	C	0.791673	0.377824	0.555128
O35	O	0.322386	-0.122786	0.101980
O36	O	0.822386	0.377214	0.601980
C37	C	0.232270	-0.121011	0.055129
C38	C	0.732270	0.378989	0.555129
C39	C	0.202578	-0.120427	0.000043
C40	C	0.702578	0.379573	0.500043
C41	C	0.202595	-0.120412	-0.110123
C42	C	0.702595	0.379588	0.389877
C43	C	0.143194	-0.119256	-0.110121
C44	C	0.643194	0.380744	0.389879
C45	C	0.113485	-0.118686	-0.055038
C46	C	0.613485	0.381314	0.444962
C47	C	0.143177	-0.119271	0.000044
C48	C	0.643177	0.380729	0.500044
C49	C	0.202559	-0.120432	0.110216
C50	C	0.702559	0.379568	0.610216
C51	C	0.143152	-0.119267	0.110212
C52	C	0.643152	0.380733	0.610212
C53	C	0.113459	-0.118682	0.055126
C54	C	0.613459	0.381318	0.555126
C55	C	0.054067	-0.117545	0.055130
C56	C	0.554067	0.382455	0.555130
N57	N	0.024373	-0.116951	0.000047
N58	N	0.524373	0.383049	0.500047
C59	C	0.054081	-0.117521	-0.055037
C60	C	0.554081	0.382479	0.444963
C61	C	0.416425	-0.124619	0.055122
C62	C	0.916425	0.375381	0.555122
C63	C	0.475826	-0.125790	0.055122
C64	C	0.975826	0.374210	0.555122
C65	C	0.475841	-0.125768	-0.055049
C66	C	0.975841	0.374232	0.444951
C67	C	0.416437	-0.124603	-0.055048
C68	C	0.916437	0.375397	0.444952
C69	C	0.386730	-0.124025	0.000039
C70	C	0.886730	0.375975	0.500039
C71	C	-0.070665	-0.115095	-0.055029
C72	C	0.429335	0.384905	0.444971
C73	C	-0.130072	-0.113943	-0.055022
C74	C	0.369928	0.386057	0.444978
C75	C	-0.130080	-0.113960	0.055148
C76	C	0.369920	0.386040	0.555148
C77	C	-0.070679	-0.115117	0.055142
C78	C	0.429321	0.384883	0.555142
C79	C	-0.040973	-0.115681	0.000049
C80	C	0.459027	0.384319	0.500049
O81	O	0.023289	-0.116981	0.101950
O82	O	0.523289	0.383019	0.601950
O83	O	0.023363	-0.116898	-0.101881
O84	O	0.523363	0.383102	0.398119
C85	C	0.676866	0.048782	0.000058
C86	C	1.176866	0.548782	0.500058
C87	C	0.675638	0.151149	0.000058
C88	C	1.175638	0.651149	0.500058
C89	C	0.776995	-0.112149	0.000060
C90	C	1.276995	0.387851	0.500060
C91	C	0.840219	-0.113372	0.000062
C92	C	1.340219	0.386628	0.500062
C93	C	0.668894	-0.288510	0.000045
C94	C	1.168894	0.211490	0.500045
C95	C	0.670122	-0.390877	0.000041
C96	C	1.170122	0.109123	0.500041
N97	N	0.672848	-0.119887	0.143857
N98	N	1.172848	0.380113	0.643857
C99	C	0.671118	0.525990	0.000042
C100	C	1.171118	1.025990	0.500042
C101	C	0.672374	0.421697	0.000047
C102	C	1.172374	0.921697	0.500047
C103	C	0.673378	0.338573	0.000051
C104	C	1.173378	0.838573	0.500051
C105	C	0.674634	0.234273	0.000054
C106	C	1.174634	0.734273	0.500054
N107	N	0.672917	-0.119833	-0.143752
N108	N	1.172917	0.380167	0.356248
C109	C	0.638287	-0.064207	0.436461
C110	C	1.138287	0.435793	0.936461
C111	C	0.638282	-0.064211	0.372853
C112	C	1.138282	0.435789	0.872853
O113	O	0.608875	-0.016871	0.339955
O114	O	1.108875	0.483129	0.839955
N115	N	0.672871	-0.119858	0.341041
N116	N	1.172871	0.380142	0.841041
C117	C	0.707471	-0.175498	0.372839
C118	C	1.207471	0.324502	0.872839
O119	O	0.736891	-0.222831	0.339940
O120	O	1.236891	0.277169	0.839940
C121	C	0.707479	-0.175489	0.436446
C122	C	1.207479	0.324511	0.936446
C123	C	0.672883	-0.119844	0.468255
C124	C	1.172883	0.380156	0.968255
C125	C	0.603695	-0.008566	0.468270
C126	C	1.103695	0.491434	0.968270
C127	C	0.603699	-0.008564	0.531873
C128	C	1.103699	0.491436	1.031873
C129	C	0.638296	-0.064201	0.563667
C130	C	1.138296	0.435799	1.063667
C131	C	0.672888	-0.119842	0.531858
C132	C	1.172888	0.380158	1.031858
C133	C	0.742082	-0.231123	0.468243
C134	C	1.242082	0.268877	0.968243
C135	C	0.742087	-0.231108	0.531854
C136	C	1.242087	0.268892	1.031854
C137	C	0.707491	-0.175464	0.563663
C138	C	1.207491	0.324536	1.063663
C139	C	0.707488	-0.175477	0.627255
C140	C	1.207488	0.324523	1.127255
N141	N	0.672900	-0.119829	0.659068
N142	N	1.172900	0.380171	1.159068
C143	C	0.638303	-0.064191	0.627274
C144	C	1.138303	0.435809	1.127274
C145	C	0.707453	-0.175514	0.239261
C146	C	1.207453	0.324486	0.739261
C147	C	0.707443	-0.175529	0.175656
C148	C	1.207443	0.324471	0.675656
C149	C	0.638254	-0.064240	0.175675
C150	C	1.138254	0.435760	0.675675
C151	C	0.638262	-0.064230	0.239281
C152	C	1.138262	0.435770	0.739281
C153	C	0.672864	-0.119866	0.271074
C154	C	1.172864	0.380134	0.771074
C155	C	0.638315	-0.064191	0.760845
C156	C	1.138315	0.435809	1.260845
C157	C	0.638320	-0.064196	0.824454
C158	C	1.138320	0.435804	1.324454
C159	C	0.707511	-0.175481	0.824430
C160	C	1.207511	0.324519	1.324430
C161	C	0.707503	-0.175480	0.760827
C162	C	1.207503	0.324520	1.260827
C163	C	0.672903	-0.119827	0.729036
C164	C	1.172903	0.380173	1.229036
O165	O	0.736882	-0.222789	0.660194
O166	O	1.236882	0.277211	1.160194
O167	O	0.608893	-0.016858	0.660181
O168	O	1.108893	0.483142	1.160181
H169	H	-0.154245	-0.113469	-0.099882
H170	H	0.345755	0.386531	0.400118
H171	H	-0.154280	-0.113500	0.099996
H172	H	0.345720	0.386500	0.599996
H173	H	0.575522	0.036745	0.442390
H174	H	1.075522	0.536745	0.942390
H175	H	-0.046485	-0.115555	-0.099891
H176	H	0.453515	0.384445	0.400109
H177	H	0.770266	-0.276413	0.557736
H178	H	1.270266	0.223587	1.057736
H179	H	0.392266	-0.124127	-0.099905
H180	H	0.892266	0.375873	0.400095
H181	H	0.500041	-0.126231	-0.099901
H182	H	1.000041	0.373769	0.400099
H183	H	0.735665	-0.220803	0.734926
H184	H	1.235665	0.279197	1.234926
H185	H	0.226724	-0.120905	0.155073
H186	H	0.726724	0.379095	0.655073
H187	H	0.499996	-0.126281	0.099978
H188	H	0.999996	0.373719	0.599978
H189	H	0.735677	-0.220782	0.850328
H190	H	1.235677	0.279218	1.350328
H191	H	0.770254	-0.276433	0.442355
H192	H	1.270254	0.223567	0.942355
H193	H	0.610146	-0.018884	0.850350
H194	H	1.110146	0.481116	1.350350
H195	H	0.118966	-0.118804	0.155072
H196	H	0.618966	0.381196	0.655072
H197	H	0.119024	-0.118776	-0.154978
H198	H	0.619024	0.381224	0.345022
H199	H	0.392240	-0.124161	0.099984
H200	H	0.892240	0.375839	0.599984
H201	H	0.226778	-0.120873	-0.154981
H202	H	0.726778	0.379127	0.345019
H203	H	-0.046504	-0.115612	0.099998
H204	H	0.453496	0.384388	0.599998
H205	H	0.610140	-0.018873	0.734968
H206	H	1.110140	0.481127	1.234968
H207	H	0.575530	0.036751	0.557767
H208	H	1.075530	0.536751	1.057767
H209	H	0.610091	-0.018920	0.265176
H210	H	1.110091	0.481080	0.765176
H211	H	0.610084	-0.018937	0.149776
H212	H	1.110084	0.481063	0.649776
H213	H	0.735607	-0.220851	0.149762
H214	H	1.235607	0.279149	0.649762
H215	H	0.735629	-0.220828	0.265143
H216	H	1.235629	0.279172	0.765143
