data_functionalizedCrystal
_audit_creation_method	'MofGen! by Chris Wilmer'
_symmetry_space_group_name_H-M	'P1'
_symmetry_Int_Tables_number	1
_symmetry_cell_setting	triclinic
loop_
_symmetry_equiv_pos_as_xyz
  x,y,z
_cell_length_a	25.639239
_cell_length_b	18.050591
_cell_length_c	18.050582
_cell_angle_alpha	90.011999
_cell_angle_beta	89.974655
_cell_angle_gamma	89.961418
loop_
_atom_site_label
_atom_site_type_symbol
_atom_site_fract_x
_atom_site_fract_y
_atom_site_fract_z
Zn1	Zn	-0.208182	-1.135245	-0.419826
Zn2	Zn	0.291818	-0.635245	0.080174
Zn3	Zn	-0.295611	-1.135131	-0.295632
Zn4	Zn	0.204389	-0.635131	0.204368
Zn5	Zn	-0.208191	-1.011062	-0.295659
Zn6	Zn	0.291809	-0.511062	0.204341
Zn7	Zn	-0.295588	-1.010990	-0.419788
Zn8	Zn	0.204412	-0.510990	0.080212
O9	O	-0.251893	-1.073107	-0.357726
O10	O	0.248107	-0.573107	0.142274
O11	O	-0.219785	-1.239154	-0.403356
O12	O	0.280215	-0.739154	0.096644
O13	O	-0.284028	-1.118656	-0.191711
O14	O	0.215972	-0.618656	0.308289
O15	O	-0.135025	-1.027614	-0.312157
O16	O	0.364975	-0.527614	0.187843
O17	O	-0.284019	-1.239071	-0.312111
O18	O	0.215981	-0.739071	0.187889
O19	O	-0.135018	-1.118850	-0.403382
O20	O	0.364982	-0.618850	0.096618
O21	O	-0.219801	-1.027503	-0.191730
O22	O	0.280199	-0.527503	0.308270
O23	O	-0.219779	-0.907128	-0.312120
O24	O	0.280221	-0.407128	0.187880
O25	O	-0.283980	-1.027490	-0.523718
O26	O	0.216020	-0.527490	-0.023718
O27	O	-0.283989	-0.907075	-0.403318
O28	O	0.216011	-0.407075	0.096682
O29	O	-0.219763	-1.118779	-0.523746
O30	O	0.280237	-0.618779	-0.023746
O31	O	-0.368773	-1.118585	-0.312074
O32	O	0.131227	-0.618585	0.187926
O33	O	-0.368756	-1.027379	-0.403292
O34	O	0.131244	-0.527379	0.096708
C35	C	-0.251883	-0.880155	-0.357718
C36	C	0.248117	-0.380155	0.142282
C37	C	-0.251891	-0.797609	-0.357732
C38	C	0.248109	-0.297609	0.142268
C39	C	-0.286884	-0.548776	-0.407256
C40	C	0.213116	-0.048776	0.092744
C41	C	-0.299606	-0.598142	-0.339470
C42	C	0.200394	-0.098142	0.160530
C43	C	-0.251911	-0.500489	-0.357728
C44	C	0.248089	-0.000489	0.142272
C45	C	-0.239203	-0.598205	-0.425512
C46	C	0.260797	-0.098205	0.074488
C47	C	-0.251902	-0.646474	-0.357734
C48	C	0.248098	-0.146474	0.142266
C49	C	-0.264658	-0.548767	-0.289906
C50	C	0.235342	-0.048767	0.210094
C51	C	-0.204233	-0.548826	-0.375995
C52	C	0.295767	-0.048826	0.124005
C53	C	-0.216937	-0.598169	-0.308162
C54	C	0.283063	-0.098169	0.191838
C55	C	-0.251917	-0.416390	-0.357726
C56	C	0.248083	0.083610	0.142274
C57	C	-0.251896	-0.730570	-0.357729
C58	C	0.248104	-0.230570	0.142271
C59	C	-0.387735	-1.072982	-0.357692
C60	C	0.112265	-0.572982	0.142308
C61	C	-0.445849	-1.072997	-0.357703
C62	C	0.054151	-0.572997	0.142297
C63	C	-0.806209	-1.120722	-0.310310
C64	C	-0.306209	-0.620722	0.189690
C65	C	-0.860813	-1.120751	-0.310320
C66	C	-0.360813	-0.620751	0.189680
O67	O	-0.889046	-1.161199	-0.269988
O68	O	-0.389046	-0.661199	0.230012
N69	N	-0.888132	-1.073238	-0.357775
N70	N	-0.388132	-0.573238	0.142225
C71	C	-0.860844	-1.025698	-0.405229
C72	C	-0.360844	-0.525698	0.094771
O73	O	-0.889095	-0.985287	-0.445595
O74	O	-0.389095	-0.485287	0.054405
C75	C	-0.806240	-1.025673	-0.405222
C76	C	-0.306240	-0.525673	0.094778
C77	C	-0.778924	-1.073184	-0.357759
C78	C	-0.278924	-0.573184	0.142241
C79	C	-0.778892	-1.168230	-0.262851
C80	C	-0.278892	-0.668230	0.237149
C81	C	-0.724292	-1.168200	-0.262840
C82	C	-0.224292	-0.668200	0.237160
C83	C	-0.697008	-1.120662	-0.310289
C84	C	-0.197008	-0.620662	0.189711
C85	C	-0.724324	-1.073154	-0.357748
C86	C	-0.224324	-0.573154	0.142252
C87	C	-0.778953	-0.978138	-0.452679
C88	C	-0.278953	-0.478138	0.047321
C89	C	-0.724346	-0.978118	-0.452669
C90	C	-0.224346	-0.478118	0.047331
C91	C	-0.697030	-1.025629	-0.405205
C92	C	-0.197030	-0.525629	0.094795
C93	C	-0.642439	-1.025587	-0.405186
C94	C	-0.142439	-0.525587	0.094814
N95	N	-0.615120	-1.073100	-0.357731
N96	N	-0.115120	-0.573100	0.142269
C97	C	-0.642404	-1.120638	-0.310282
C98	C	-0.142404	-0.620638	0.189718
C99	C	-0.975514	-1.025754	-0.405241
C100	C	-0.475514	-0.525754	0.094759
C101	C	-1.030117	-1.025774	-0.405244
C102	C	-0.530117	-0.525774	0.094756
C103	C	-1.030082	-1.120828	-0.310336
C104	C	-0.530082	-0.620828	0.189664
C105	C	-0.975479	-1.120804	-0.310329
C106	C	-0.475479	-0.620804	0.189671
C107	C	-0.948195	-1.073267	-0.357785
C108	C	-0.448195	-0.573267	0.142215
C109	C	-0.527739	-1.120571	-0.310263
C110	C	-0.027739	-0.620571	0.189737
C111	C	-0.473134	-1.120534	-0.310254
C112	C	0.026866	-0.620534	0.189746
C113	C	-0.473173	-1.025483	-0.405165
C114	C	0.026827	-0.525483	0.094835
C115	C	-0.527774	-1.025516	-0.405171
C116	C	-0.027774	-0.525516	0.094829
C117	C	-0.555055	-1.073066	-0.357717
C118	C	-0.055055	-0.573066	0.142283
O119	O	-0.614171	-0.985161	-0.445499
O120	O	-0.114171	-0.485161	0.054501
O121	O	-0.614147	-1.161048	-0.269930
O122	O	-0.114147	-0.661048	0.230070
C123	C	-0.115520	-1.073253	-0.357777
C124	C	0.384480	-0.573253	0.142223
C125	C	-0.057406	-1.073315	-0.357798
C126	C	0.442594	-0.573315	0.142202
C127	C	-0.251868	-1.073139	-0.551432
C128	C	0.248132	-0.573139	-0.051432
C129	C	-0.251857	-1.073153	-0.633978
C130	C	0.248143	-0.573153	-0.133978
C131	C	-0.251907	-0.266813	-0.357732
C132	C	0.248093	0.233187	0.142268
C133	C	-0.251921	-0.349358	-0.357729
C134	C	0.248079	0.150642	0.142271
C135	C	-0.286722	-1.023556	-0.882788
C136	C	0.213278	-0.523556	-0.382788
C137	C	-0.239033	-1.005428	-0.833404
C138	C	0.260967	-0.505428	-0.333404
C139	C	-0.251781	-1.073216	-0.931098
C140	C	0.248219	-0.573216	-0.431098
C141	C	-0.299504	-1.091277	-0.833401
C142	C	0.200496	-0.591277	-0.333401
C143	C	-0.251821	-1.073183	-0.785113
C144	C	0.248179	-0.573183	-0.285113
C145	C	-0.204066	-1.055053	-0.882801
C146	C	0.295934	-0.555053	-0.382801
C147	C	-0.264570	-1.140934	-0.882802
C148	C	0.235430	-0.640934	-0.382802
C149	C	-0.216848	-1.122832	-0.833440
C150	C	0.283152	-0.622832	-0.333440
C151	C	-0.251758	-1.073233	-1.015197
C152	C	0.248242	-0.573233	-0.515197
C153	C	-0.251838	-1.073166	-0.701017
C154	C	0.248162	-0.573166	-0.201017
C155	C	-0.251880	-1.073118	-0.164774
C156	C	0.248120	-0.573118	0.335226
C157	C	-0.251743	-1.073248	-0.082229
C158	C	0.248257	-0.573248	0.417771
H159	H	-0.163928	-0.527146	-0.391467
H160	H	0.336072	-0.027146	0.108533
H161	H	-0.339847	-1.106569	-0.811702
H162	H	0.160153	-0.606569	-0.311702
O163	O	-0.226232	-0.937049	-0.807541
O164	O	0.273768	-0.437049	-0.307541
C165	C	-0.263140	-0.884873	-0.832691
C166	C	0.236860	-0.384873	-0.332691
H167	H	-0.301206	-0.914372	-0.846554
H168	H	0.198794	-0.414372	-0.346554
H169	H	-0.270484	-0.841991	-0.787494
H170	H	0.229516	-0.341991	-0.287494
H171	H	-0.247574	-0.856065	-0.884361
H172	H	0.252426	-0.356065	-0.384361
H173	H	-0.275451	-0.527143	-0.232569
H174	H	0.224549	-0.027143	0.267431
H175	H	-0.450895	-1.159223	-0.271601
H176	H	0.049105	-0.659223	0.228399
O177	O	-0.347697	-0.624079	-0.321135
O178	O	0.152303	-0.124079	0.178865
C179	C	-0.367122	-0.668113	-0.379436
C180	C	0.132878	-0.168113	0.120564
H181	H	-0.333210	-0.689806	-0.414090
H182	H	0.166790	-0.189806	0.085910
H183	H	-0.389880	-0.716802	-0.355536
H184	H	0.110120	-0.216802	0.144464
H185	H	-0.393983	-0.633340	-0.415824
H186	H	0.106017	-0.133340	0.084176
O187	O	-0.322234	-0.523021	-0.457166
O188	O	0.177766	-0.023021	0.042834
C189	C	-0.347312	-0.583320	-0.491709
C190	C	0.152688	-0.083320	0.008291
H191	H	-0.344594	-0.634184	-0.454483
H192	H	0.155406	-0.134184	0.045517
H193	H	-0.390059	-0.569008	-0.501594
H194	H	0.109941	-0.069008	-0.001594
H195	H	-0.327563	-0.595526	-0.546983
H196	H	0.172437	-0.095526	-0.046983
H197	H	-0.187358	-0.619719	-0.266232
H198	H	0.312642	-0.119719	0.233768
O199	O	-0.277382	-1.209270	-0.908752
O200	O	0.222618	-0.709270	-0.408752
C201	C	-0.235921	-1.237407	-0.951720
C202	C	0.264079	-0.737407	-0.451720
H203	H	-0.198044	-1.209006	-0.934845
H204	H	0.301956	-0.709006	-0.434845
H205	H	-0.232271	-1.299628	-0.942212
H206	H	0.267729	-0.799628	-0.442212
H207	H	-0.243921	-1.226338	-1.012848
H208	H	0.256079	-0.726338	-0.512848
H209	H	-0.549946	-1.159292	-0.271623
H210	H	-0.049946	-0.659292	0.228377
O211	O	-0.226443	-0.624024	-0.493951
O212	O	0.273557	-0.124024	0.006049
C213	C	-0.263432	-0.598872	-0.545980
C214	C	0.236568	-0.098872	-0.045980
H215	H	-0.283329	-0.546849	-0.523924
H216	H	0.216671	-0.046849	-0.023924
H217	H	-0.242987	-0.585591	-0.600473
H218	H	0.257013	-0.085591	-0.100473
H219	H	-0.293889	-0.643836	-0.555615
H220	H	0.206111	-0.143836	-0.055615
H221	H	-0.450950	-0.986776	-0.443795
H222	H	0.049050	-0.486776	0.056205
O223	O	-0.805504	-0.931913	-0.498685
O224	O	-0.305504	-0.431913	0.001315
C225	C	-0.837153	-0.883990	-0.456387
C226	C	-0.337153	-0.383990	0.043613
H227	H	-0.820732	-0.879421	-0.397886
H228	H	-0.320732	-0.379421	0.102114
H229	H	-0.837798	-0.826826	-0.483211
H230	H	-0.337798	-0.326826	0.016789
H231	H	-0.878522	-0.906970	-0.453861
H232	H	-0.378522	-0.406970	0.046139
O233	O	-0.697925	-0.931871	-0.498795
O234	O	-0.197925	-0.431871	0.001205
C235	C	-0.733748	-0.889963	-0.540700
C236	C	-0.233748	-0.389963	-0.040700
H237	H	-0.772684	-0.887429	-0.510282
H238	H	-0.272684	-0.387429	-0.010282
H239	H	-0.718013	-0.831437	-0.548579
H240	H	-0.218013	-0.331437	-0.048579
H241	H	-0.739516	-0.917133	-0.597123
H242	H	-0.239516	-0.417133	-0.097123
H243	H	-0.702054	-1.206889	-0.224194
H244	H	-0.202054	-0.706889	0.275806
H245	H	-0.801102	-1.206945	-0.224212
H246	H	-0.301102	-0.706945	0.275788
O247	O	-0.155920	-1.036623	-0.908483
O248	O	0.344080	-0.536623	-0.408483
C249	C	-0.142466	-0.965415	-0.882715
C250	C	0.357534	-0.465415	-0.382715
H251	H	-0.165800	-0.952272	-0.830564
H252	H	0.334200	-0.452272	-0.330564
H253	H	-0.099017	-0.963737	-0.869440
H254	H	0.400983	-0.463737	-0.369440
H255	H	-0.151701	-0.922657	-0.927302
H256	H	0.348299	-0.422657	-0.427302
H257	H	-1.052353	-0.987079	-0.443887
H258	H	-0.552353	-0.487079	0.056113
H259	H	-0.953241	-1.159492	-0.271681
H260	H	-0.453241	-0.659492	0.228319
H261	H	-0.316216	-0.981542	-0.904457
H262	H	0.183784	-0.481542	-0.404457
H263	H	-1.052307	-1.159539	-0.271703
H264	H	-0.552307	-0.659539	0.228297
H265	H	-0.953303	-0.987037	-0.443883
H266	H	-0.453303	-0.487037	0.056117
H267	H	-0.550016	-0.986831	-0.443822
H268	H	-0.050016	-0.486831	0.056178
O269	O	-0.181509	-1.172832	-0.807782
O270	O	0.318491	-0.672832	-0.307782
C271	C	-0.131301	-1.153507	-0.833106
C272	C	0.368699	-0.653507	-0.333106
H273	H	-0.130301	-1.091896	-0.846896
H274	H	0.369699	-0.591896	-0.346896
H275	H	-0.101425	-1.165992	-0.788042
H276	H	0.398575	-0.665992	-0.288042
H277	H	-0.121578	-1.187005	-0.884856
H278	H	0.378422	-0.687005	-0.384856
