data_functionalizedCrystal
_audit_creation_method	'MofGen! by Chris Wilmer'
_symmetry_space_group_name_H-M	'P1'
_symmetry_Int_Tables_number	1
_symmetry_cell_setting	triclinic
loop_
_symmetry_equiv_pos_as_xyz
  x,y,z
_cell_length_a	21.395362
_cell_length_b	19.121063
_cell_length_c	21.395355
_cell_angle_alpha	92.420740
_cell_angle_beta	89.956060
_cell_angle_gamma	92.485681
loop_
_atom_site_label
_atom_site_type_symbol
_atom_site_fract_x
_atom_site_fract_y
_atom_site_fract_z
Zn1	Zn	0.947241	-0.279403	-0.365205
Zn2	Zn	1.197241	-0.029403	-0.115205
Zn3	Zn	1.447241	0.220597	0.134795
Zn4	Zn	1.697241	0.470597	0.384795
Zn5	Zn	0.942680	-0.396839	-0.264891
Zn6	Zn	1.192680	-0.146839	-0.014891
Zn7	Zn	1.442680	0.103161	0.235109
Zn8	Zn	1.692680	0.353161	0.485109
Zn9	Zn	0.842454	-0.279436	-0.260407
Zn10	Zn	1.092454	-0.029436	-0.010407
Zn11	Zn	1.342454	0.220564	0.239593
Zn12	Zn	1.592454	0.470564	0.489593
Zn13	Zn	0.837961	-0.396853	-0.369596
Zn14	Zn	1.087961	-0.146853	-0.119596
Zn15	Zn	1.337961	0.103147	0.130404
Zn16	Zn	1.587961	0.353147	0.380404
O17	O	0.892584	-0.338133	-0.315025
O18	O	1.142584	-0.088133	-0.065025
O19	O	1.392584	0.161867	0.184975
O20	O	1.642584	0.411867	0.434975
O21	O	1.034314	-0.294962	-0.351936
O22	O	1.284314	-0.044962	-0.101936
O23	O	1.534314	0.205038	0.148064
O24	O	1.784314	0.455038	0.398064
O25	O	0.929357	-0.381273	-0.176618
O26	O	1.179357	-0.131273	0.073382
O27	O	1.429357	0.118727	0.323382
O28	O	1.679357	0.368727	0.573382
O29	O	0.860144	-0.181145	-0.270595
O30	O	1.110144	0.068855	-0.020595
O31	O	1.360144	0.318855	0.229405
O32	O	1.610144	0.568855	0.479405
O33	O	1.030964	-0.381241	-0.278236
O34	O	1.280964	-0.131241	-0.028236
O35	O	1.530964	0.118759	0.221764
O36	O	1.780964	0.368759	0.471764
O37	O	0.937130	-0.181121	-0.347589
O38	O	1.187130	0.068879	-0.097589
O39	O	1.437130	0.318879	0.152411
O40	O	1.687130	0.568879	0.402411
O41	O	0.855721	-0.295017	-0.173324
O42	O	1.105721	-0.045017	0.076676
O43	O	1.355721	0.204983	0.326676
O44	O	1.605721	0.454983	0.576676
O45	O	0.754180	-0.295031	-0.274853
O46	O	1.004180	-0.045031	-0.024853
O47	O	1.254180	0.204969	0.225147
O48	O	1.504180	0.454969	0.475147
O49	O	0.852486	-0.381266	-0.456691
O50	O	1.102486	-0.131266	-0.206691
O51	O	1.352486	0.118734	0.043309
O52	O	1.602486	0.368734	0.293309
O53	O	0.750879	-0.381297	-0.355073
O54	O	1.000879	-0.131297	-0.105073
O55	O	1.250879	0.118703	0.144927
O56	O	1.500879	0.368703	0.394927
O57	O	0.932773	-0.294976	-0.453465
O58	O	1.182773	-0.044976	-0.203465
O59	O	1.432773	0.205024	0.046535
O60	O	1.682773	0.455024	0.296535
O61	O	0.925000	-0.495127	-0.282494
O62	O	1.175000	-0.245127	-0.032494
O63	O	1.425000	0.004873	0.217506
O64	O	1.675000	0.254873	0.467506
O65	O	0.848063	-0.495138	-0.359420
O66	O	1.098063	-0.245138	-0.109420
O67	O	1.348063	0.004862	0.140580
O68	O	1.598063	0.254862	0.390580
C69	C	0.729795	-0.338170	-0.314953
C70	C	0.979795	-0.088170	-0.064953
C71	C	1.229795	0.161830	0.185047
C72	C	1.479795	0.411830	0.435047
C73	C	0.660152	-0.338203	-0.314938
C74	C	0.910152	-0.088203	-0.064938
C75	C	1.160152	0.161797	0.185062
C76	C	1.410152	0.411797	0.435062
C77	C	0.625735	-0.383181	-0.356651
C78	C	0.875735	-0.133181	-0.106651
C79	C	1.125735	0.116819	0.143349
C80	C	1.375735	0.366819	0.393349
C81	C	0.560300	-0.383164	-0.356679
C82	C	0.810300	-0.133164	-0.106679
C83	C	1.060300	0.116836	0.143321
C84	C	1.310300	0.366836	0.393321
C85	C	0.529285	-0.338176	-0.314982
C86	C	0.779285	-0.088176	-0.064982
C87	C	1.029285	0.161824	0.185018
C88	C	1.279285	0.411824	0.435018
C89	C	0.563711	-0.293189	-0.273266
C90	C	0.813711	-0.043189	-0.023266
C91	C	1.063711	0.206811	0.226734
C92	C	1.313711	0.456811	0.476734
C93	C	0.629145	-0.293202	-0.273244
C94	C	0.879145	-0.043202	-0.023244
C95	C	1.129145	0.206798	0.226756
C96	C	1.379145	0.456798	0.476756
C97	C	0.425776	-0.332517	-0.258362
C98	C	0.675776	-0.082517	-0.008362
C99	C	0.925776	0.167483	0.241638
C100	C	1.175776	0.417483	0.491638
C101	C	0.360343	-0.332509	-0.258383
C102	C	0.610343	-0.082509	-0.008383
C103	C	0.860343	0.167491	0.241617
C104	C	1.110343	0.417491	0.491617
C105	C	0.327466	-0.338130	-0.315049
C106	C	0.577466	-0.088130	-0.065049
C107	C	0.827466	0.161870	0.184951
C108	C	1.077466	0.411870	0.434951
C109	C	0.360030	-0.343774	-0.371698
C110	C	0.610030	-0.093774	-0.121698
C111	C	0.860030	0.156226	0.128302
C112	C	1.110030	0.406226	0.378302
C113	C	0.425463	-0.343788	-0.371676
C114	C	0.675463	-0.093788	-0.121676
C115	C	0.925463	0.156212	0.128324
C116	C	1.175463	0.406212	0.378324
C117	C	0.458334	-0.338156	-0.315001
C118	C	0.708334	-0.088156	-0.065001
C119	C	0.958334	0.161844	0.184999
C120	C	1.208334	0.411844	0.434999
C121	C	0.222096	-0.383092	-0.356795
C122	C	0.472096	-0.133092	-0.106795
C123	C	0.722096	0.116908	0.143205
C124	C	0.972096	0.366908	0.393205
C125	C	0.156661	-0.383070	-0.356824
C126	C	0.406661	-0.133070	-0.106824
C127	C	0.656661	0.116930	0.143176
C128	C	0.906661	0.366930	0.393176
C129	C	0.160073	-0.293098	-0.273405
C130	C	0.410073	-0.043098	-0.023405
C131	C	0.660073	0.206902	0.226595
C132	C	0.910073	0.456902	0.476595
C133	C	0.225508	-0.293117	-0.273383
C134	C	0.475508	-0.043117	-0.023383
C135	C	0.725508	0.206883	0.226617
C136	C	0.975508	0.456883	0.476617
C137	C	0.256516	-0.338117	-0.315077
C138	C	0.506516	-0.088117	-0.065077
C139	C	0.756516	0.161883	0.184923
C140	C	1.006516	0.411883	0.434923
C141	C	0.885566	-0.520617	-0.321934
C142	C	1.135566	-0.270617	-0.071934
C143	C	1.385566	-0.020617	0.178066
C144	C	1.635566	0.229383	0.428066
C145	C	0.882621	-0.598685	-0.324911
C146	C	1.132621	-0.348685	-0.074911
C147	C	1.382621	-0.098685	0.175089
C148	C	1.632621	0.151315	0.425089
C149	C	0.921325	-0.635332	-0.286291
C150	C	1.171325	-0.385332	-0.036291
C151	C	1.421325	-0.135332	0.213709
C152	C	1.671325	0.114668	0.463709
C153	C	0.918559	-0.708685	-0.289094
C154	C	1.168559	-0.458685	-0.039094
C155	C	1.418559	-0.208685	0.210906
C156	C	1.668559	0.041315	0.460906
C157	C	0.877085	-0.745389	-0.330515
C158	C	1.127085	-0.495389	-0.080515
C159	C	1.377085	-0.245389	0.169485
C160	C	1.627085	0.004611	0.419485
C161	C	0.838379	-0.708736	-0.369139
C162	C	1.088379	-0.458736	-0.119139
C163	C	1.338379	-0.208736	0.130861
C164	C	1.588379	0.041264	0.380861
C165	C	0.841149	-0.635385	-0.366338
C166	C	1.091149	-0.385385	-0.116338
C167	C	1.341149	-0.135385	0.133662
C168	C	1.591149	0.114615	0.383662
C169	C	0.866720	-0.966864	-0.340976
C170	C	1.116720	-0.716864	-0.090976
C171	C	1.366720	-0.466864	0.159024
C172	C	1.616720	-0.216864	0.409024
C173	C	0.863952	-1.040221	-0.343772
C174	C	1.113952	-0.790221	-0.093772
C175	C	1.363952	-0.540221	0.156228
C176	C	1.613952	-0.290221	0.406228
C177	C	0.944133	-1.040164	-0.263728
C178	C	1.194133	-0.790164	-0.013728
C179	C	1.444133	-0.540164	0.236272
C180	C	1.694133	-0.290164	0.486272
C181	C	0.946896	-0.966812	-0.260928
C182	C	1.196896	-0.716812	-0.010928
C183	C	1.446896	-0.466812	0.239072
C184	C	1.696896	-0.216812	0.489072
C185	C	0.908193	-0.930165	-0.299555
C186	C	1.158193	-0.680165	-0.049555
C187	C	1.408193	-0.430165	0.200445
C188	C	1.658193	-0.180165	0.450445
C189	C	0.874256	-0.820367	-0.333380
C190	C	1.124256	-0.570367	-0.083380
C191	C	1.374256	-0.320367	0.166620
C192	C	1.624256	-0.070367	0.416620
C193	C	0.911026	-0.855188	-0.296692
C194	C	1.161026	-0.605188	-0.046692
C195	C	1.411026	-0.355188	0.203308
C196	C	1.661026	-0.105188	0.453308
C197	C	1.056009	-0.338096	-0.315097
C198	C	1.306009	-0.088096	-0.065097
C199	C	1.556009	0.161904	0.184903
C200	C	1.806009	0.411904	0.434903
C201	C	1.125651	-0.338080	-0.315127
C202	C	1.375651	-0.088080	-0.065127
C203	C	1.625651	0.161920	0.184873
C204	C	1.875651	0.411920	0.434873
C205	C	0.892637	-0.338119	-0.478447
C206	C	1.142637	-0.088119	-0.228447
C207	C	1.392637	0.161881	0.021553
C208	C	1.642637	0.411881	0.271553
C209	C	0.892659	-0.338112	-0.548089
C210	C	1.142659	-0.088112	-0.298089
C211	C	1.392659	0.161888	-0.048089
C212	C	1.642659	0.411888	0.201911
C213	C	0.899647	-0.154936	-0.308102
C214	C	1.149647	0.095064	-0.058102
C215	C	1.399647	0.345064	0.191898
C216	C	1.649647	0.595064	0.441898
C217	C	0.902656	-0.076868	-0.305152
C218	C	1.152656	0.173132	-0.055152
C219	C	1.402656	0.423132	0.194848
C220	C	1.652656	0.673132	0.444848
C221	C	0.934463	-0.293179	-0.579123
C222	C	1.184463	-0.043179	-0.329123
C223	C	1.434463	0.206821	-0.079123
C224	C	1.684463	0.456821	0.170877
C225	C	0.934463	-0.293149	-0.644557
C226	C	1.184463	-0.043149	-0.394557
C227	C	1.434463	0.206851	-0.144557
C228	C	1.684463	0.456851	0.105443
C229	C	0.892666	-0.338065	-0.678955
C230	C	1.142666	-0.088065	-0.428955
C231	C	1.392666	0.161935	-0.178955
C232	C	1.642666	0.411935	0.071045
C233	C	0.850854	-0.383001	-0.647913
C234	C	1.100854	-0.133001	-0.397913
C235	C	1.350854	0.116999	-0.147913
C236	C	1.600854	0.366999	0.102087
C237	C	0.850851	-0.383025	-0.582480
C238	C	1.100851	-0.133025	-0.332480
C239	C	1.350851	0.116975	-0.082480
C240	C	1.600851	0.366975	0.167520
C241	C	0.885286	-0.401308	-0.785023
C242	C	1.135286	-0.151308	-0.535023
C243	C	1.385286	0.098692	-0.285023
C244	C	1.635286	0.348692	-0.035023
C245	C	0.885294	-0.401285	-0.850455
C246	C	1.135294	-0.151285	-0.600455
C247	C	1.385294	0.098715	-0.350455
C248	C	1.635294	0.348715	-0.100455
C249	C	0.892672	-0.337990	-0.880773
C250	C	1.142672	-0.087990	-0.630773
C251	C	1.392672	0.162010	-0.380773
C252	C	1.642672	0.412010	-0.130773
C253	C	0.900056	-0.274717	-0.845651
C254	C	1.150056	-0.024717	-0.595651
C255	C	1.400056	0.225283	-0.345651
C256	C	1.650056	0.475283	-0.095651
C257	C	0.900053	-0.274741	-0.780218
C258	C	1.150053	-0.024741	-0.530218
C259	C	1.400053	0.225259	-0.280218
C260	C	1.650053	0.475259	-0.030218
C261	C	0.892664	-0.338043	-0.749907
C262	C	1.142664	-0.088043	-0.499907
C263	C	1.392664	0.161957	-0.249907
C264	C	1.642664	0.411957	0.000093
C265	C	0.934479	-0.293021	-0.982759
C266	C	1.184479	-0.043021	-0.732759
C267	C	1.434479	0.206979	-0.482759
C268	C	1.684479	0.456979	-0.232759
C269	C	0.934475	-0.292989	-1.048194
C270	C	1.184475	-0.042989	-0.798194
C271	C	1.434475	0.207011	-0.548194
C272	C	1.684475	0.457011	-0.298194
C273	C	0.850869	-0.382847	-1.051549
C274	C	1.100869	-0.132847	-0.801549
C275	C	1.350869	0.117153	-0.551549
C276	C	1.600869	0.367153	-0.301549
C277	C	0.850870	-0.382872	-0.986115
C278	C	1.100870	-0.132872	-0.736115
C279	C	1.350870	0.117128	-0.486115
C280	C	1.600870	0.367128	-0.236115
C281	C	0.892678	-0.337960	-0.951723
C282	C	1.142678	-0.087960	-0.701723
C283	C	1.392678	0.162040	-0.451723
C284	C	1.642678	0.412040	-0.201723
C285	C	0.892570	-0.338096	-0.152236
C286	C	1.142570	-0.088096	0.097764
C287	C	1.392570	0.161904	0.347764
C288	C	1.642570	0.411904	0.597764
C289	C	0.892676	-0.337904	-0.082588
C290	C	1.142676	-0.087904	0.167412
C291	C	1.392676	0.162096	0.417412
C292	C	1.642676	0.412096	0.667412
H293	H	0.128639	-0.419695	-0.390795
H294	H	0.378639	-0.169695	-0.140795
H295	H	0.628639	0.080305	0.109205
H296	H	0.878639	0.330305	0.359205
H297	H	0.950076	-0.738520	-0.257645
H298	H	1.200076	-0.488520	-0.007645
H299	H	1.450076	-0.238520	0.242355
H300	H	1.700076	0.011480	0.492355
Cl301	Cl	0.792492	-0.589313	-0.414893
Cl302	Cl	1.042492	-0.339313	-0.164893
Cl303	Cl	1.292492	-0.089313	0.085107
Cl304	Cl	1.542492	0.160687	0.335107
Cl305	Cl	0.121090	-0.236537	-0.220990
Cl306	Cl	0.371090	0.013463	0.029010
Cl307	Cl	0.621090	0.263463	0.279010
Cl308	Cl	0.871090	0.513463	0.529010
Cl309	Cl	0.811801	-1.086362	-0.395839
Cl310	Cl	1.061801	-0.836362	-0.145839
Cl311	Cl	1.311801	-0.586362	0.104161
Cl312	Cl	1.561801	-0.336362	0.354161
H313	H	0.906064	-0.223221	-0.751624
H314	H	1.156064	0.026779	-0.501624
H315	H	1.406064	0.276779	-0.251624
H316	H	1.656064	0.526779	-0.001624
Cl317	Cl	0.524723	-0.236629	-0.220850
Cl318	Cl	0.774723	0.013371	0.029150
Cl319	Cl	1.024723	0.263371	0.279150
Cl320	Cl	1.274723	0.513371	0.529150
Cl321	Cl	0.987019	-0.236714	-0.535891
Cl322	Cl	1.237019	0.013286	-0.285891
Cl323	Cl	1.487019	0.263286	-0.035891
Cl324	Cl	1.737019	0.513286	0.214109
Cl325	Cl	0.318707	-0.350837	-0.442941
Cl326	Cl	0.568707	-0.100837	-0.192941
Cl327	Cl	0.818707	0.149163	0.057059
Cl328	Cl	1.068707	0.399163	0.307059
H329	H	0.944797	-0.825302	-0.262970
H330	H	1.194797	-0.575302	-0.012970
H331	H	1.444797	-0.325302	0.237030
H332	H	1.694797	-0.075302	0.487030
H333	H	0.840486	-0.850260	-0.367103
H334	H	1.090486	-0.600260	-0.117103
H335	H	1.340486	-0.350260	0.132897
H336	H	1.590486	-0.100260	0.382897
H337	H	0.975644	-1.070010	-0.232282
H338	H	1.225644	-0.820010	0.017718
H339	H	1.475644	-0.570010	0.267718
H340	H	1.725644	-0.320010	0.517718
H341	H	0.532271	-0.419790	-0.390649
H342	H	0.782271	-0.169790	-0.140649
H343	H	1.032271	0.080210	0.109351
H344	H	1.282271	0.330210	0.359351
Cl345	Cl	0.987009	-0.236643	-0.683580
Cl346	Cl	1.237009	0.013357	-0.433580
Cl347	Cl	1.487009	0.263357	-0.183580
Cl348	Cl	1.737009	0.513357	0.066420
Cl349	Cl	0.798293	-0.439517	-0.543463
Cl350	Cl	1.048293	-0.189517	-0.293463
Cl351	Cl	1.298293	0.060483	-0.043463
Cl352	Cl	1.548293	0.310483	0.206537
H353	H	0.451974	-0.348381	-0.417801
H354	H	0.701974	-0.098381	-0.167801
H355	H	0.951974	0.151619	0.082199
H356	H	1.201974	0.401619	0.332199
Cl357	Cl	0.798315	-0.439366	-0.947098
Cl358	Cl	1.048315	-0.189366	-0.697098
Cl359	Cl	1.298315	0.060634	-0.447098
Cl360	Cl	1.548315	0.310634	-0.197098
Cl361	Cl	0.261081	-0.439658	-0.409214
Cl362	Cl	0.511081	-0.189658	-0.159214
Cl363	Cl	0.761081	0.060342	0.090786
Cl364	Cl	1.011081	0.310342	0.340786
Cl365	Cl	0.268779	-0.236571	-0.220939
Cl366	Cl	0.518779	0.013429	0.029061
Cl367	Cl	0.768779	0.263429	0.279061
Cl368	Cl	1.018779	0.513429	0.529061
Cl369	Cl	0.909336	-0.195141	-0.883758
Cl370	Cl	1.159336	0.054859	-0.633758
Cl371	Cl	1.409336	0.304859	-0.383758
Cl372	Cl	1.659336	0.554859	-0.133758
H373	H	0.816820	-0.419569	-0.675924
H374	H	1.066820	-0.169569	-0.425924
H375	H	1.316820	0.080431	-0.175924
H376	H	1.566820	0.330431	0.074076
Cl377	Cl	0.319413	-0.325413	-0.187169
Cl378	Cl	0.569413	-0.075413	0.062831
Cl379	Cl	0.819413	0.174587	0.312831
Cl380	Cl	1.069413	0.424587	0.562831
H381	H	0.968519	-0.256447	-0.954755
H382	H	1.218519	-0.006447	-0.704755
H383	H	1.468519	0.243553	-0.454755
H384	H	1.718519	0.493553	-0.204755
H385	H	0.657168	-0.256574	-0.239276
H386	H	0.907168	-0.006574	0.010724
H387	H	1.157168	0.243426	0.260724
H388	H	1.407168	0.493426	0.510724
H389	H	0.968516	-0.256395	-1.073461
H390	H	1.218516	-0.006395	-0.823461
H391	H	1.468516	0.243605	-0.573461
H392	H	1.718516	0.493605	-0.323461
H393	H	0.816830	-0.419411	-1.079555
H394	H	1.066830	-0.169411	-0.829555
H395	H	1.316830	0.080589	-0.579555
H396	H	1.566830	0.330589	-0.329555
H397	H	0.879111	-0.452836	-0.760343
H398	H	1.129111	-0.202836	-0.510343
H399	H	1.379111	0.047164	-0.260343
H400	H	1.629111	0.297164	-0.010343
Cl401	Cl	0.664712	-0.439750	-0.409070
Cl402	Cl	0.914712	-0.189750	-0.159070
Cl403	Cl	1.164712	0.060250	0.090930
Cl404	Cl	1.414712	0.310250	0.340930
H405	H	0.452538	-0.327937	-0.212214
H406	H	0.702538	-0.077937	0.037786
H407	H	0.952538	0.172063	0.287786
H408	H	1.202538	0.422063	0.537786
Cl409	Cl	0.999046	-0.920675	-0.208864
Cl410	Cl	1.249046	-0.670675	0.041136
Cl411	Cl	1.499046	-0.420675	0.291136
Cl412	Cl	1.749046	-0.170675	0.541136
H413	H	0.835205	-0.937033	-0.372426
H414	H	1.085205	-0.687033	-0.122426
H415	H	1.335205	-0.437033	0.127574
H416	H	1.585205	-0.187033	0.377574
H417	H	0.955095	-0.605453	-0.252559
H418	H	1.205095	-0.355453	-0.002559
H419	H	1.455095	-0.105453	0.247441
H420	H	1.705095	0.144547	0.497441
Cl421	Cl	0.786244	-0.754879	-0.421214
Cl422	Cl	1.036244	-0.504879	-0.171214
Cl423	Cl	1.286244	-0.254879	0.078786
Cl424	Cl	1.536244	-0.004879	0.328786
H425	H	0.879285	-0.452806	-0.879046
H426	H	1.129285	-0.202806	-0.629046
H427	H	1.379285	0.047194	-0.379046
H428	H	1.629285	0.297194	-0.129046
