data_functionalizedCrystal
_audit_creation_method	'MofGen! by Chris Wilmer'
_symmetry_space_group_name_H-M	'P1'
_symmetry_Int_Tables_number	1
_symmetry_cell_setting	triclinic
loop_
_symmetry_equiv_pos_as_xyz
  x,y,z
_cell_length_a	10.654562
_cell_length_b	14.853567
_cell_length_c	9.130313
_cell_angle_alpha	90.002541
_cell_angle_beta	89.996930
_cell_angle_gamma	84.062517
loop_
_atom_site_label
_atom_site_type_symbol
_atom_site_fract_x
_atom_site_fract_y
_atom_site_fract_z
O1	O	1.666509	0.126676	-0.121882
O2	O	1.300907	0.138729	-0.121863
O3	O	1.493474	0.001525	-0.121877
O4	O	1.473942	0.263880	-0.121867
O5	O	1.493471	0.001529	0.121722
O6	O	1.300905	0.138732	0.121736
O7	O	1.666506	0.126680	0.121717
Cu8	Cu	1.483705	0.132707	0.143969
Cu9	Cu	1.483708	0.132702	-0.144115
O10	O	1.473940	0.263883	0.121731
C11	C	1.254117	0.137843	-0.000061
C12	C	1.114703	0.135188	-0.000054
C13	C	1.049183	0.133952	0.132720
C14	C	0.918187	0.131465	0.132696
C15	C	0.918240	0.131454	-0.132889
C16	C	1.049235	0.133935	-0.132863
C17	C	1.114651	0.135206	0.265529
C18	C	1.049132	0.133970	0.398314
C19	C	0.918135	0.131483	0.398290
C20	C	0.852658	0.130231	0.265480
C21	C	1.492588	-0.032066	-0.000082
C22	C	1.489936	-0.132164	-0.000095
C23	C	1.364336	-0.545375	-0.000060
C24	C	1.593110	-0.565423	-0.000072
C25	C	1.595603	-0.471376	-0.000081
C26	C	1.482462	-0.414324	-0.000077
C27	C	1.366826	-0.451318	-0.000064
C28	C	1.711237	-0.434374	-0.000079
C29	C	1.713735	-0.340322	-0.000086
C30	C	1.600592	-0.283267	-0.000093
C31	C	1.484952	-0.320268	-0.000082
C32	C	1.371810	-0.263215	-0.000078
C33	C	1.256169	-0.300213	-0.000077
C34	C	1.253683	-0.394264	-0.000071
C35	C	1.603077	-0.189217	-0.000099
C36	C	1.374300	-0.169159	-0.000082
C37	C	1.713296	0.127566	-0.000088
C38	C	1.852711	0.130220	-0.000105
C39	C	1.474826	0.297475	-0.000067
C40	C	1.477478	0.397573	-0.000064
N41	N	1.483713	0.132709	0.346592
N42	N	1.483711	0.132693	-0.346737
C43	C	1.569003	0.071976	0.423237
C44	C	1.568999	0.071966	0.576574
C45	C	1.398412	0.193428	0.576606
C46	C	1.398410	0.193434	0.423272
C47	C	1.654305	0.011252	0.346556
C48	C	1.739603	-0.049485	0.423202
C49	C	1.739600	-0.049496	0.576539
C50	C	1.654299	0.011230	0.653230
H51	H	1.102581	0.134946	-0.240980
H52	H	1.803350	-0.480833	-0.000069
H53	H	1.809044	-0.098956	0.638942
Br54	Br	1.207402	-0.595582	-0.000080
H55	H	1.685224	-0.611881	-0.000064
Br56	Br	1.870672	-0.290117	-0.000109
Br57	Br	1.654285	0.011201	0.861332
H58	H	1.697230	-0.159097	-0.000090
Br59	Br	1.855349	-0.131906	0.319128
H60	H	1.654318	0.011257	0.221702
H61	H	1.328964	0.242870	0.639058
H62	H	1.328958	0.242887	0.360867
H63	H	0.864794	0.130470	0.506409
Br64	Br	1.292429	0.138591	0.265570
H65	H	0.745992	0.128204	0.265471
H66	H	1.102453	0.134983	0.506443
H67	H	0.864918	0.130437	-0.241016
H68	H	1.282165	-0.122712	-0.000085
Br69	Br	1.102626	-0.222775	-0.000053
H70	H	1.159534	-0.424397	-0.000069
