data_functionalizedCrystal
_audit_creation_method	'MofGen! by Chris Wilmer'
_symmetry_space_group_name_H-M	'P1'
_symmetry_Int_Tables_number	1
_symmetry_cell_setting	triclinic
loop_
_symmetry_equiv_pos_as_xyz
  x,y,z
_cell_length_a	19.188933
_cell_length_b	19.188924
_cell_length_c	12.503572
_cell_angle_alpha	93.509187
_cell_angle_beta	86.495071
_cell_angle_gamma	83.143767
loop_
_atom_site_label
_atom_site_type_symbol
_atom_site_fract_x
_atom_site_fract_y
_atom_site_fract_z
O1	O	0.930179	0.083124	-0.089289
O2	O	0.726868	0.094857	-0.089300
O3	O	0.834393	-0.012665	-0.089282
O4	O	0.822654	0.190646	-0.089308
O5	O	0.826306	-0.004565	0.089359
O6	O	0.718782	0.102956	0.089341
O7	O	0.922092	0.091224	0.089351
Cu8	Cu	0.819699	0.097830	0.105657
Cu9	Cu	0.829262	0.088251	-0.105606
O10	O	0.814568	0.198745	0.089333
C11	C	0.696814	0.098526	0.000019
C12	C	0.619310	0.097385	0.000016
C13	C	0.829970	-0.034626	0.000040
C14	C	0.828831	-0.112131	0.000042
C15	C	0.070462	0.084825	-0.097349
C16	C	0.143286	0.085893	-0.097353
C17	C	0.175295	0.090845	0.000023
C18	C	0.134476	0.094712	0.097412
C19	C	0.061654	0.093637	0.097413
N20	N	0.281033	0.135550	0.072500
N21	N	0.350211	0.136573	0.072492
C22	C	0.394704	0.094083	0.000025
N23	N	0.367404	0.050541	-0.072450
N24	N	0.298220	0.049521	-0.072445
C25	C	0.254258	0.092011	0.000033
C26	C	0.514479	0.091370	-0.097362
C27	C	0.587306	0.092434	-0.097362
C28	C	0.578493	0.101260	0.097405
C29	C	0.505669	0.100189	0.097403
C30	C	0.473666	0.095247	0.000016
C31	C	0.832708	-0.152945	-0.097335
C32	C	0.831628	-0.225768	-0.097343
C33	C	0.826686	-0.257776	0.000032
C34	C	0.822805	-0.216952	0.097422
C35	C	0.823877	-0.144129	0.097427
N36	N	0.861453	-0.374153	0.072507
N37	N	0.860436	-0.443332	0.072495
C38	C	0.823452	-0.477185	0.000021
N39	N	0.787534	-0.439249	-0.072457
N40	N	0.788554	-0.370064	-0.072449
C41	C	0.825522	-0.336739	0.000036
C42	C	0.826157	-0.596963	-0.097372
C43	C	0.825073	-0.669786	-0.097376
C44	C	0.816257	-0.660970	0.097391
C45	C	0.817334	-0.588147	0.097393
C46	C	0.822288	-0.556148	0.000008
C47	C	0.952147	0.087554	0.000030
C48	C	1.029651	0.088695	0.000026
C49	C	0.818991	0.220707	0.000009
C50	C	0.820130	0.298211	-0.000000
N51	N	0.812977	0.104566	0.254248
N52	N	0.835989	0.081509	-0.254197
C53	C	0.803090	0.114482	0.473362
C54	C	0.845874	0.071595	0.526696
C55	C	0.840372	0.077112	0.648619
C56	C	0.808591	0.108966	0.351429
H57	H	0.044411	0.080798	-0.176649
H58	H	0.812228	-0.687029	0.176676
H59	H	0.834780	-0.259004	-0.176642
H60	H	0.762334	0.155340	0.519262
H61	H	0.620534	0.089277	-0.176660
N62	N	0.187316	0.081718	-0.202383
H63	H	0.155992	0.078423	-0.264075
H64	H	0.211926	0.125246	-0.206617
H65	H	0.604554	0.105290	0.176691
N66	N	0.819709	-0.100107	0.202462
H67	H	0.821142	-0.049119	0.187689
H68	H	0.774323	-0.105114	0.244986
H69	H	0.160542	0.098743	0.176696
N70	N	0.829276	-0.713793	-0.202429
H71	H	0.785762	-0.738416	-0.206825
H72	H	0.832608	-0.682407	-0.264028
N73	N	0.899874	0.017476	0.465905
H74	H	0.891041	-0.031169	0.485410
H75	H	0.896180	0.021216	0.386182
H76	H	0.028425	0.096791	0.176710
H77	H	0.488422	0.087344	-0.176660
H78	H	0.472440	0.103343	0.176697
N79	N	0.831497	-0.562443	-0.202401
H80	H	0.833783	-0.599351	-0.264093
H81	H	0.788863	-0.526624	-0.206643
H82	H	0.836739	-0.126896	-0.176633
H83	H	0.818779	-0.243017	0.176705
H84	H	0.814183	-0.554916	0.176688
