data_functionalizedCrystal
_audit_creation_method	'MofGen! by Chris Wilmer'
_symmetry_space_group_name_H-M	'P1'
_symmetry_Int_Tables_number	1
_symmetry_cell_setting	triclinic
loop_
_symmetry_equiv_pos_as_xyz
  x,y,z
_cell_length_a	16.625539
_cell_length_b	13.897449
_cell_length_c	13.897448
_cell_angle_alpha	89.981028
_cell_angle_beta	89.974316
_cell_angle_gamma	90.015918
loop_
_atom_site_label
_atom_site_type_symbol
_atom_site_fract_x
_atom_site_fract_y
_atom_site_fract_z
Zn1	Zn	-0.455889	-1.474657	-0.383998
Zn2	Zn	-0.321058	-1.474564	-0.545306
Zn3	Zn	-0.321072	-1.313359	-0.384030
Zn4	Zn	-0.455851	-1.313328	-0.545256
O5	O	-0.388468	-1.393977	-0.464648
O6	O	-0.438014	-1.609626	-0.405403
O7	O	-0.208228	-1.453155	-0.523946
O8	O	-0.338978	-1.334808	-0.249044
O9	O	-0.338954	-1.609558	-0.523915
O10	O	-0.438027	-1.453312	-0.249021
O11	O	-0.208238	-1.334718	-0.405458
O12	O	-0.338941	-1.178374	-0.405410
O13	O	-0.568688	-1.334754	-0.523831
O14	O	-0.437962	-1.178350	-0.523862
O15	O	-0.568716	-1.453281	-0.405355
O16	O	-0.338917	-1.453124	-0.680281
O17	O	-0.437948	-1.334664	-0.680245
C18	C	-0.388444	-1.393907	-0.715262
C19	C	-0.388461	-1.393965	-0.822476
C20	C	-0.388449	-1.143363	-0.464635
C21	C	-0.388460	-1.036149	-0.464652
C22	C	-0.598777	-1.394024	-0.464584
C23	C	-0.688398	-1.394044	-0.464557
C24	C	-0.761180	-1.394060	-0.464535
C25	C	-0.852489	-1.394083	-0.464500
C26	C	-0.925265	-1.394105	-0.464466
C27	C	-1.016580	-1.394129	-0.464431
C28	C	-0.178977	-1.393985	-0.464641
C29	C	-0.089356	-1.394152	-0.464397
C30	C	-0.388486	-1.645570	-0.464661
C31	C	-0.388495	-1.752784	-0.464667
C32	C	-0.388482	-0.839854	-0.464656
C33	C	-0.388468	-0.949086	-0.464651
C34	C	-0.388512	-1.394066	-1.018771
C35	C	-0.388486	-1.394007	-0.909538
C36	C	-0.388509	-1.394074	-0.213055
C37	C	-0.388526	-1.394115	-0.105841
