data_functionalizedCrystal
_audit_creation_method	'MofGen! by Chris Wilmer'
_symmetry_space_group_name_H-M	'P1'
_symmetry_Int_Tables_number	1
_symmetry_cell_setting	triclinic
loop_
_symmetry_equiv_pos_as_xyz
  x,y,z
_cell_length_a	14.519710
_cell_length_b	10.654541
_cell_length_c	9.130307
_cell_angle_alpha	90.003083
_cell_angle_beta	89.999422
_cell_angle_gamma	95.917963
loop_
_atom_site_label
_atom_site_type_symbol
_atom_site_fract_x
_atom_site_fract_y
_atom_site_fract_z
O1	O	1.224716	-0.164621	-0.121767
O2	O	0.956340	-0.184008	-0.121777
O3	O	1.096700	0.008484	-0.121763
O4	O	1.084356	-0.357113	-0.121781
O5	O	1.096695	0.008486	0.121836
O6	O	0.956335	-0.184006	0.121822
O7	O	1.224712	-0.164619	0.121832
Cu8	Cu	1.090523	-0.174313	0.144070
Cu9	Cu	1.090528	-0.174315	-0.144014
O10	O	1.084352	-0.357112	0.121818
C11	C	1.095791	0.055275	0.000036
C12	C	1.093081	0.194692	0.000034
C13	C	0.921973	-0.183103	0.000022
C14	C	0.819578	-0.180396	0.000018
C15	C	1.259078	-0.165524	0.000031
C16	C	1.361474	-0.168231	0.000025
C17	C	1.736421	-0.178198	0.000023
C18	C	1.632099	-0.175431	0.000023
C19	C	1.548951	-0.173215	0.000023
C20	C	1.444622	-0.170447	0.000025
C21	C	1.085260	-0.403902	0.000016
C22	C	1.087970	-0.543319	0.000009
N23	N	1.090526	-0.174310	0.346693
C24	C	1.260920	0.224277	0.000058
C25	C	1.343562	0.304566	0.000074
C26	C	1.341010	0.435559	0.000069
C27	C	1.255806	0.486265	0.000045
C28	C	1.173164	0.405976	0.000029
C29	C	1.175725	0.274981	0.000038
C30	C	1.005328	0.376392	-0.000006
C31	C	1.007878	0.245398	0.000009
C32	C	0.920124	0.427098	-0.000030
C33	C	0.837480	0.346809	-0.000035
C34	C	0.840036	0.215808	-0.000029
C35	C	0.925236	0.165109	-0.000006
N36	N	1.090533	-0.174307	-0.346637
C37	C	1.214866	-0.003908	0.346695
C38	C	1.277042	0.081290	0.423363
C39	C	1.277051	0.081291	0.576697
C40	C	1.214876	-0.003913	0.653366
C41	C	1.152699	-0.089110	0.576698
C42	C	1.152699	-0.089104	0.423361
C43	C	1.028357	-0.259505	0.576695
C44	C	1.028350	-0.259514	0.423362
C45	C	0.966181	-0.344708	0.653364
C46	C	0.904008	-0.429914	0.576696
C47	C	0.904002	-0.429912	0.423353
C48	C	0.966174	-0.344711	0.346694
H49	H	1.412933	0.263266	0.000106
H50	H	0.927325	0.058449	0.000008
O51	O	1.430145	0.522160	0.000099
H52	H	1.433008	0.582541	-0.099191
H53	H	1.214872	-0.003910	0.221843
H54	H	1.263006	0.117616	0.000082
O55	O	1.253048	0.627550	0.000040
H56	H	1.324827	0.674861	0.000060
H57	H	1.327663	0.150665	0.360926
H58	H	1.327677	0.150671	0.639120
H59	H	0.918052	0.533761	-0.000043
O60	O	0.745590	0.401493	-0.000049
H61	H	0.757699	0.506069	-0.000046
H62	H	1.214879	-0.003896	0.778218
O63	O	0.966191	-0.344705	0.818745
H64	H	0.912509	-0.418257	0.859173
H65	H	0.772738	0.150442	-0.000048
H66	H	0.853385	-0.499275	0.639129
H67	H	0.853367	-0.499286	0.360938
H68	H	0.966178	-0.344707	0.221842
