data_functionalizedCrystal
_audit_creation_method	'MofGen! by Chris Wilmer'
_symmetry_space_group_name_H-M	'P1'
_symmetry_Int_Tables_number	1
_symmetry_cell_setting	triclinic
loop_
_symmetry_equiv_pos_as_xyz
  x,y,z
_cell_length_a	17.699083
_cell_length_b	12.837942
_cell_length_c	16.776229
_cell_angle_alpha	90.007118
_cell_angle_beta	89.995177
_cell_angle_gamma	89.055978
loop_
_atom_site_label
_atom_site_type_symbol
_atom_site_fract_x
_atom_site_fract_y
_atom_site_fract_z
O1	O	1.013701	0.131069	0.066175
O2	O	0.794575	0.148121	0.066201
O3	O	0.899279	-0.011295	0.066184
O4	O	0.908997	0.290486	0.066192
O5	O	0.899276	-0.011309	-0.066393
O6	O	0.794572	0.148107	-0.066376
O7	O	1.013698	0.131055	-0.066401
Zn8	Zn	0.904134	0.139579	-0.087438
Zn9	Zn	0.904138	0.139598	0.087237
O10	O	0.908994	0.290472	-0.066384
C11	C	0.766332	0.147503	-0.000084
C12	C	0.682179	0.145670	-0.000074
C13	C	0.895995	-0.049915	-0.000104
C14	C	0.886204	-0.164967	-0.000101
C15	C	0.640432	0.239245	-0.000072
C16	C	0.561362	0.237516	-0.000082
C17	C	0.524040	0.142212	-0.000089
C18	C	0.565792	0.048631	-0.000094
C19	C	0.644861	0.050360	-0.000089
C20	C	0.246916	0.041653	-0.000114
C21	C	0.167842	0.039931	-0.000116
C22	C	0.163418	0.228809	-0.000107
C23	C	0.242486	0.230539	-0.000102
C24	C	0.284232	0.136958	-0.000111
C25	C	0.369969	0.138833	-0.000101
C26	C	0.438304	0.140336	-0.000093
C27	C	1.003908	-0.406222	-0.000099
C28	C	0.994712	-0.514324	-0.000096
C29	C	0.858617	-0.489277	-0.000088
C30	C	0.867813	-0.381174	-0.000091
C31	C	0.940461	-0.339651	-0.000097
C32	C	0.949656	-0.231546	-0.000105
C33	C	0.813561	-0.206501	-0.000092
C34	C	0.804365	-0.314604	-0.000089
C35	C	1.041941	0.131673	-0.000115
C36	C	1.126094	0.133506	-0.000119
C37	C	0.912278	0.329091	-0.000095
C38	C	0.922069	0.444144	-0.000092
N39	N	0.904137	0.139566	-0.206649
N40	N	0.904141	0.139603	0.206449
C41	C	0.950610	0.069152	0.248158
C42	C	0.950612	0.069149	0.331610
C43	C	0.904142	0.139593	0.373352
C44	C	0.857671	0.210052	0.331636
C45	C	0.857673	0.210059	0.248186
C46	C	0.857664	0.210027	0.668183
C47	C	0.857664	0.210013	0.751640
C48	C	0.950603	0.069117	0.751608
C49	C	0.950605	0.069124	0.668157
C50	C	0.904138	0.139586	0.626449
C51	C	0.904136	0.139589	0.535961
C52	C	0.904139	0.139586	0.463838
H53	H	0.670814	0.316852	-0.000065
O54	O	0.788039	-0.529578	0.000067
C55	C	0.668897	-0.541199	0.068750
C56	C	0.748810	-0.495506	0.068679
H57	H	0.637151	-0.513652	0.124208
H58	H	0.673186	-0.629902	0.068808
H59	H	0.637172	-0.513812	0.013244
H60	H	0.780580	-0.522813	0.124175
H61	H	0.744466	-0.406808	0.068579
H62	H	0.761898	-0.152287	-0.000097
O63	O	0.812419	0.278387	0.207701
C64	C	0.685142	0.339059	0.182216
C65	C	0.736301	0.261599	0.228100
H66	H	0.623591	0.325528	0.198704
H67	H	0.693061	0.326965	0.115393
H68	H	0.700910	0.422090	0.198625
H69	H	0.720565	0.178537	0.211758
H70	H	0.728375	0.273784	0.294912
H71	H	0.280896	-0.034546	-0.000122
H72	H	0.988448	0.011784	0.214178
H73	H	0.137457	-0.037681	-0.000123
O74	O	0.529420	-0.043858	-0.000067
C75	C	0.409575	-0.130236	-0.000123
C76	C	0.450666	-0.025418	-0.000138
H77	H	0.345895	-0.115364	-0.000197
H78	H	0.426151	-0.176479	0.055371
H79	H	0.426265	-0.176470	-0.055595
H80	H	0.433998	0.020901	0.055297
H81	H	0.434088	0.020746	-0.055669
O82	O	0.685301	-0.040633	-0.000052
C83	C	0.681350	-0.228164	-0.000107
C84	C	0.635461	-0.125189	-0.000127
H85	H	0.641074	-0.296554	-0.000184
H86	H	0.718453	-0.232142	0.055391
H87	H	0.718505	-0.232024	-0.055575
H88	H	0.598263	-0.121260	0.055304
H89	H	0.598407	-0.121253	-0.055661
H90	H	0.988451	0.011783	0.365570
H91	H	0.527375	0.313714	-0.000079
O92	O	1.074435	-0.365754	-0.000002
C93	C	1.163815	-0.258271	0.068693
C94	C	1.083916	-0.304010	0.068674
H95	H	1.171511	-0.208359	0.124220
H96	H	1.171535	-0.208227	0.013246
H97	H	1.207572	-0.324437	0.068649
H98	H	1.040110	-0.237911	0.068746
H99	H	1.076260	-0.354082	0.124116
H100	H	0.819827	0.267397	0.634231
H101	H	0.129419	0.305007	-0.000104
O102	O	0.812551	0.278382	0.372305
C103	C	0.771384	0.340854	0.500876
C104	C	0.822511	0.263400	0.454921
H105	H	0.779431	0.328783	0.567680
H106	H	0.709805	0.327293	0.484527
H107	H	0.787107	0.423886	0.484433
H108	H	0.806856	0.180338	0.471340
H109	H	0.884077	0.277052	0.471274
O110	O	0.995817	0.000656	0.627735
C111	C	1.087975	-0.139134	0.636513
C112	C	1.036819	-0.061637	0.682389
H113	H	1.121127	-0.189533	0.680681
H114	H	1.128990	-0.094390	0.597470
H115	H	1.051634	-0.190901	0.597415
H116	H	1.073099	-0.009851	0.721530
H117	H	0.995800	-0.106446	0.721381
O118	O	0.812503	0.278552	0.792065
C119	C	0.720293	0.418278	0.783295
C120	C	0.771410	0.340737	0.737415
H121	H	0.687044	0.468560	0.739130
H122	H	0.756595	0.470154	0.822350
H123	H	0.679356	0.373466	0.822381
H124	H	0.812355	0.385465	0.698285
H125	H	0.735060	0.288862	0.698410
H126	H	0.272870	0.308145	-0.000093
H127	H	1.008809	-0.197740	-0.000113
H128	H	0.745217	-0.348427	-0.000081
O129	O	1.056425	-0.578844	-0.000135
C130	C	1.192384	-0.592275	-0.000092
C131	C	1.122556	-0.519088	-0.000069
H132	H	1.245868	-0.543992	-0.000023
H133	H	1.191538	-0.643504	-0.055588
H134	H	1.191435	-0.643522	0.055379
H135	H	1.123459	-0.467776	-0.055503
H136	H	1.123428	-0.467930	0.055462
H137	H	0.988442	0.011746	0.785576
