data_functionalizedCrystal
_audit_creation_method	'MofGen! by Chris Wilmer'
_symmetry_space_group_name_H-M	'P1'
_symmetry_Int_Tables_number	1
_symmetry_cell_setting	triclinic
loop_
_symmetry_equiv_pos_as_xyz
  x,y,z
_cell_length_a	27.732046
_cell_length_b	27.732048
_cell_length_c	26.210047
_cell_angle_alpha	90.003465
_cell_angle_beta	90.001831
_cell_angle_gamma	82.642317
loop_
_atom_site_label
_atom_site_type_symbol
_atom_site_fract_x
_atom_site_fract_y
_atom_site_fract_z
O1	O	-0.057510	-0.640931	-0.042370
O2	O	-0.066256	-0.500137	-0.042387
O3	O	0.008514	-0.574907	-0.042366
O4	O	-0.132280	-0.566161	-0.042390
O5	O	0.008502	-0.574893	0.042492
O6	O	-0.066267	-0.500123	0.042472
O7	O	-0.057522	-0.640916	0.042488
Cu8	Cu	-0.061896	-0.570518	0.050228
Cu9	Cu	-0.061882	-0.570535	-0.050127
O10	O	-0.132291	-0.566146	0.042468
C11	C	0.026515	-0.574717	0.000065
C12	C	0.080170	-0.574164	0.000070
C13	C	-0.066078	-0.482123	0.000041
C14	C	-0.065525	-0.428468	0.000035
C15	C	-0.057699	-0.658931	0.000060
C16	C	-0.058252	-0.712585	0.000062
C17	C	0.418985	-0.614870	0.000057
C18	C	0.620645	-0.612820	0.000055
O19	O	0.651901	-0.650041	0.000037
N20	N	0.639769	-0.568485	0.000050
C21	C	0.608474	-0.524659	0.000044
O22	O	0.629367	-0.486902	0.000035
C23	C	0.406815	-0.526710	0.000042
C24	C	0.387695	-0.571047	0.000052
C25	C	0.399864	-0.659204	0.000066
C26	C	0.349452	-0.659716	0.000069
C27	C	0.318161	-0.615894	0.000064
C28	C	0.337283	-0.571559	0.000055
C29	C	0.375522	-0.482884	0.000032
C30	C	0.325104	-0.483401	0.000030
C31	C	0.305984	-0.527739	0.000039
C32	C	0.255580	-0.528249	0.000053
N33	N	0.236456	-0.572584	0.000057
C34	C	0.267747	-0.616406	0.000062
C35	C	0.714348	-0.523586	0.000045
C36	C	0.764763	-0.523073	0.000046
C37	C	0.776930	-0.611234	0.000057
C38	C	0.726515	-0.611746	0.000059
C39	C	0.695225	-0.567921	0.000049
C40	C	0.161878	-0.617478	0.000070
C41	C	0.111461	-0.617986	0.000075
C42	C	0.099298	-0.529826	0.000063
C43	C	0.149710	-0.529317	0.000060
C44	C	0.180999	-0.573148	0.000062
O45	O	0.224296	-0.491048	0.000064
O46	O	0.246844	-0.654158	0.000060
C47	C	0.469397	-0.614358	0.000054
C48	C	0.488519	-0.570024	0.000045
C49	C	0.457228	-0.526201	0.000039
C50	C	0.538933	-0.569511	0.000046
C51	C	0.570224	-0.613333	0.000051
C52	C	0.551100	-0.657668	0.000056
C53	C	0.500688	-0.658180	0.000059
C54	C	0.476352	-0.481866	0.000035
C55	C	0.526764	-0.481358	0.000032
C56	C	0.558055	-0.525180	0.000038
C57	C	0.849708	-0.566339	0.000042
C58	C	0.796054	-0.566896	0.000052
N59	N	-0.061905	-0.570510	0.120812
C60	C	-0.106229	-0.089653	0.000050
C61	C	-0.104178	0.112007	0.000055
O62	O	-0.141399	0.143263	0.000071
N63	N	-0.059843	0.131130	0.000062
C64	C	-0.016017	0.099835	0.000070
O65	O	0.021740	0.120728	0.000081
C66	C	-0.018069	-0.101823	0.000069
C67	C	-0.062407	-0.120944	0.000057
C68	C	-0.150563	-0.108774	0.000039
C69	C	-0.151076	-0.159186	0.000035
C70	C	-0.107253	-0.190477	0.000042
C71	C	-0.062919	-0.171356	0.000053
C72	C	0.025757	-0.133117	0.000081
C73	C	0.025240	-0.183535	0.000082
C74	C	-0.019098	-0.202655	0.000071
C75	C	-0.019609	-0.253059	0.000056
N76	N	-0.063944	-0.272182	0.000050
C77	C	-0.107766	-0.240891	0.000043
C78	C	-0.014943	0.205709	0.000070
C79	C	-0.014430	0.256124	0.000069
C80	C	-0.102591	0.268292	0.000055
C81	C	-0.103104	0.217876	0.000052
C82	C	-0.059278	0.186586	0.000063
C83	C	-0.108839	-0.346760	0.000034
C84	C	-0.109347	-0.397177	0.000028
C85	C	-0.021186	-0.409341	0.000045
C86	C	-0.020678	-0.358928	0.000048
C87	C	-0.064508	-0.327639	0.000044
O88	O	0.017592	-0.284343	0.000046
O89	O	-0.145518	-0.261794	0.000043
C90	C	-0.105717	-0.039241	0.000054
C91	C	-0.061382	-0.020120	0.000065
C92	C	-0.017560	-0.051411	0.000072
C93	C	-0.060869	0.030294	0.000065
C94	C	-0.104691	0.061585	0.000057
C95	C	-0.149027	0.042462	0.000051
C96	C	-0.149539	-0.007950	0.000047
C97	C	0.026775	-0.032287	0.000079
C98	C	0.027284	0.018125	0.000083
C99	C	-0.016538	0.049416	0.000075
N100	N	-0.061869	-0.570548	-0.120710
C101	C	-0.028781	-0.603640	0.473335
C102	C	-0.028774	-0.603651	0.686993
O103	O	-0.000614	-0.631801	0.714623
N104	N	-0.061871	-0.570538	0.713706
C105	C	-0.094970	-0.537418	0.687000
O106	O	-0.123117	-0.509251	0.714623
C107	C	-0.094974	-0.537406	0.473343
C108	C	-0.061878	-0.570524	0.446633
C109	C	0.004312	-0.636755	0.446625
C110	C	0.004308	-0.636754	0.393214
C111	C	-0.028789	-0.603638	0.366512
C112	C	-0.061882	-0.570522	0.393222
C113	C	-0.128070	-0.504284	0.446638
C114	C	-0.128067	-0.504283	0.393220
C115	C	-0.094971	-0.537401	0.366511
C116	C	-0.094983	-0.537405	0.313108
N117	N	-0.061886	-0.570518	0.286396
C118	C	-0.028789	-0.603634	0.313098
C119	C	-0.094966	-0.537428	0.799174
C120	C	-0.094966	-0.537431	0.852588
C121	C	-0.028770	-0.603664	0.852577
C122	C	-0.028773	-0.603662	0.799162
C123	C	-0.061869	-0.570540	0.772461
C124	C	-0.028800	-0.603629	0.200930
C125	C	-0.028808	-0.603626	0.147514
C126	C	-0.095002	-0.537393	0.147529
C127	C	-0.094996	-0.537397	0.200940
C128	C	-0.061891	-0.570517	0.227640
O129	O	-0.123125	-0.509266	0.285446
O130	O	-0.000639	-0.631790	0.285466
C131	C	-0.028777	-0.603641	0.526746
C132	C	-0.061871	-0.570526	0.553456
C133	C	-0.094968	-0.537410	0.526754
C134	C	-0.061870	-0.570530	0.606870
C135	C	-0.028773	-0.603646	0.633572
C136	C	0.004323	-0.636759	0.606860
C137	C	0.004320	-0.636758	0.553448
C138	C	-0.128064	-0.504297	0.553466
C139	C	-0.128058	-0.504301	0.606878
C140	C	-0.094961	-0.537418	0.633580
H141	H	0.095896	-0.654093	0.000084
H142	H	-0.155013	-0.477333	0.628621
H143	H	0.425337	-0.694892	0.000068
H144	H	0.710951	-0.647850	0.000066
O145	O	-0.145192	0.298644	0.000118
C146	C	-0.172130	0.290042	0.044072
H147	H	-0.159975	0.251706	0.058724
H148	H	-0.212473	0.293891	0.034187
H149	H	-0.165726	0.317571	0.074848
O150	O	-0.127168	-0.505235	0.773319
C151	C	-0.156368	-0.476007	0.808356
H152	H	-0.156771	-0.495827	0.846427
H153	H	-0.195026	-0.468341	0.792929
H154	H	-0.140920	-0.440218	0.814044
O155	O	-0.160265	-0.472109	0.527612
C156	C	-0.189464	-0.442879	0.562648
H157	H	-0.189864	-0.462697	0.600721
H158	H	-0.228122	-0.435215	0.547223
H159	H	-0.174017	-0.407089	0.568332
O160	O	0.545358	-0.438297	0.000113
C161	C	0.574170	-0.435351	0.044050
H162	H	0.562438	-0.460511	0.074777
H163	H	0.569358	-0.396354	0.058791
H164	H	0.614013	-0.446804	0.034112
H165	H	-0.185643	-0.023513	0.000038
O166	O	0.446009	-0.439263	-0.000035
C167	C	0.454618	-0.412333	-0.043992
H168	H	0.492950	-0.424503	-0.058648
H169	H	0.450786	-0.371989	-0.034109
H170	H	0.427082	-0.418728	-0.074764
H171	H	-0.145454	-0.412742	0.000018
H172	H	0.063392	0.033688	0.000088
H173	H	-0.144530	-0.321290	0.000032
O174	O	-0.191628	0.072814	0.000112
C175	C	-0.218570	0.064211	0.044062
H176	H	-0.206416	0.025875	0.058714
H177	H	-0.258912	0.068059	0.034173
H178	H	-0.212169	0.091740	0.074840
O179	O	0.192199	-0.660099	0.000096
C180	C	0.164502	-0.699334	0.000092
H181	H	0.126783	-0.686767	0.016156
H182	H	0.183320	-0.730012	0.024734
H183	H	0.161008	-0.712950	-0.040616
O184	O	-0.160263	-0.472176	0.472599
C185	C	-0.189906	-0.497828	0.503506
H186	H	-0.190467	-0.535942	0.487411
H187	H	-0.228462	-0.477811	0.504108
H188	H	-0.174762	-0.500473	0.543988
H189	H	0.333889	-0.695821	0.000075
H190	H	-0.001842	-0.630598	0.222662
H191	H	0.031266	-0.663723	0.468361
O192	O	-0.146204	0.199363	-0.000024
C193	C	-0.172881	0.215373	-0.043985
H194	H	-0.159967	0.250242	-0.058637
H195	H	-0.213190	0.222672	-0.034109
H196	H	-0.167059	0.186151	-0.074757
O197	O	0.022361	-0.340296	0.000124
C198	C	0.025296	-0.311512	0.044085
H199	H	-0.012900	-0.298674	0.058730
H200	H	0.044317	-0.278637	0.034210
H201	H	0.046845	-0.333948	0.074860
O202	O	-0.194113	-0.177818	0.000088
C203	C	-0.197066	-0.206606	0.044039
H204	H	-0.158875	-0.219443	0.058703
H205	H	-0.216080	-0.239482	0.034144
H206	H	-0.218629	-0.184174	0.074808
O207	O	0.021336	-0.439810	0.000076
C208	C	0.011371	-0.488406	0.000060
H209	H	-0.026587	-0.490055	0.016114
H210	H	0.039318	-0.511453	0.024706
H211	H	0.013323	-0.503005	-0.040650
H212	H	0.165279	-0.493214	0.000066
H213	H	-0.186251	-0.083301	0.000035
O214	O	0.069391	-0.062611	0.000062
C215	C	0.108627	-0.034915	0.000082
H216	H	0.096065	0.002805	-0.015981
H217	H	0.139312	-0.053732	-0.024553
H218	H	0.122231	-0.031424	0.040795
O219	O	0.028683	0.274614	0.000097
C220	C	0.067248	0.236179	0.000092
H221	H	0.053953	0.202029	0.016154
H222	H	0.098223	0.246487	0.024735
H223	H	0.080752	0.228942	-0.040616
O224	O	-0.160266	-0.472090	0.367363
C225	C	-0.189465	-0.442855	0.402396
H226	H	-0.189871	-0.462671	0.440469
H227	H	-0.228122	-0.435188	0.386967
H228	H	-0.174014	-0.407068	0.408080
H229	H	-0.121950	-0.510434	0.222688
O230	O	-0.127169	-0.505290	0.121528
C231	C	-0.156822	-0.530948	0.090636
H232	H	-0.137314	-0.568919	0.082636
H233	H	-0.164601	-0.510716	0.053074
H234	H	-0.192530	-0.533956	0.111216
H235	H	0.031259	-0.663720	0.371470
O236	O	0.027601	0.175269	0.000008
C237	C	0.029956	0.145749	-0.043948
H238	H	-0.008390	0.143471	-0.058603
H239	H	0.048258	0.107725	-0.034063
H240	H	0.051904	0.162179	-0.074720
H241	H	0.031269	-0.663726	0.531705
H242	H	0.802416	-0.646916	0.000061
H243	H	0.780326	-0.486969	0.000048
O244	O	0.684025	-0.480966	0.000063
C245	C	0.711721	-0.441731	0.000049
H246	H	0.749441	-0.454293	0.016114
H247	H	0.692905	-0.411045	0.024684
H248	H	0.715213	-0.428127	-0.040663
H249	H	0.031271	-0.663725	0.628609
O250	O	0.003391	-0.635816	0.121648
C251	C	0.032595	-0.665052	0.156674
H252	H	0.033005	-0.645237	0.194750
H253	H	0.071251	-0.672716	0.141241
H254	H	0.017147	-0.700841	0.162353
H255	H	0.391081	-0.446780	0.000021
H256	H	0.299630	-0.447712	0.000021
H257	H	0.073812	-0.494147	0.000060
H258	H	0.061861	-0.117559	0.000091
O259	O	0.003425	-0.635849	0.773298
C260	C	0.032625	-0.665086	0.808326
H261	H	0.033031	-0.645273	0.846403
H262	H	0.071282	-0.672751	0.792898
H263	H	0.017176	-0.700875	0.814001
H264	H	0.485125	-0.694285	0.000066
O265	O	0.581521	-0.700225	-0.000031
C266	C	0.611051	-0.702561	-0.043975
H267	H	0.592399	-0.677707	-0.074693
H268	H	0.617010	-0.741542	-0.058725
H269	H	0.647622	-0.690323	-0.034042
H270	H	0.060929	-0.209010	0.000092
H271	H	-0.001821	-0.630629	0.874327
H272	H	-0.121920	-0.510469	0.874331
