data_functionalizedCrystal
_audit_creation_method	'MofGen! by Chris Wilmer'
_symmetry_space_group_name_H-M	'P1'
_symmetry_Int_Tables_number	1
_symmetry_cell_setting	triclinic
loop_
_symmetry_equiv_pos_as_xyz
  x,y,z
_cell_length_a	14.519731
_cell_length_b	14.853567
_cell_length_c	13.930277
_cell_angle_alpha	89.999243
_cell_angle_beta	89.992691
_cell_angle_gamma	83.661892
loop_
_atom_site_label
_atom_site_type_symbol
_atom_site_fract_x
_atom_site_fract_y
_atom_site_fract_z
O1	O	1.223811	0.118270	-0.079825
O2	O	0.955331	0.132167	-0.079825
O3	O	1.096743	-0.006008	-0.079828
O4	O	1.082400	0.256445	-0.079822
O5	O	1.096723	-0.006011	0.079834
O6	O	0.955312	0.132164	0.079837
O7	O	1.223791	0.118267	0.079837
Zn8	Zn	1.089548	0.125215	0.105187
Zn9	Zn	1.089574	0.125219	-0.105175
O10	O	1.082380	0.256442	0.079840
C11	C	0.920962	0.131514	0.000006
C12	C	0.818583	0.129563	0.000005
C13	C	1.096083	-0.039598	0.000000
C14	C	1.094135	-0.139683	-0.000008
C15	C	1.001901	-0.552260	0.000010
C16	C	1.169902	-0.573463	0.000010
C17	C	1.171733	-0.479428	0.000005
C18	C	1.088647	-0.421805	0.000003
C19	C	1.003730	-0.458216	0.000007
C20	C	1.256648	-0.443010	0.000010
C21	C	1.258483	-0.348970	0.000006
C22	C	1.175396	-0.291345	-0.000003
C23	C	1.090476	-0.327761	0.000000
C24	C	1.007390	-0.270138	-0.000001
C25	C	0.922469	-0.306552	-0.000005
C26	C	0.920643	-0.400591	-0.000001
C27	C	1.177221	-0.197306	-0.000006
C28	C	1.009219	-0.176094	-0.000004
C29	C	0.735439	0.127978	0.000001
C30	C	0.631131	0.125996	0.000001
C31	C	0.547993	0.124424	0.000001
C32	C	0.443678	0.122443	-0.000001
C33	C	1.258160	0.118920	0.000004
C34	C	1.360540	0.120871	-0.000001
C35	C	1.083040	0.290032	0.000010
C36	C	1.084987	0.390117	0.000012
N37	N	1.089537	0.125212	0.248753
N38	N	1.089592	0.125215	-0.248741
C39	C	1.026955	0.186379	0.701023
C40	C	1.152219	0.064052	0.700990
C41	C	1.152208	0.064049	0.600495
C42	C	1.089570	0.125213	0.550259
C43	C	1.026944	0.186380	0.600518
C44	C	1.214840	0.002890	0.550227
C45	C	1.214832	0.002885	0.449726
C46	C	1.152189	0.064045	0.399488
C47	C	1.089559	0.125214	0.449754
C48	C	1.026922	0.186378	0.399518
C49	C	0.964287	0.247542	0.449782
C50	C	0.964301	0.247540	0.550280
C51	C	1.152175	0.064048	0.298989
C52	C	1.026911	0.186378	0.299012
H53	H	0.941559	-0.129182	-0.000009
O54	O	1.275453	-0.056736	0.400898
C55	C	1.225829	-0.112465	0.342947
H56	H	1.153797	-0.076567	0.327813
H57	H	1.219280	-0.178979	0.381862
C58	C	1.366244	-0.176074	0.266111
C59	C	1.277776	-0.131980	0.247515
H60	H	1.398289	-0.188116	0.207245
H61	H	1.399678	-0.138531	0.305156
H62	H	1.360774	-0.231497	0.298542
H63	H	1.283247	-0.076553	0.215096
H64	H	1.244344	-0.169515	0.208463
O65	O	0.966150	0.245914	0.749735
C66	C	0.981259	0.335197	0.725192
H67	H	1.016806	0.335168	0.652219
H68	H	1.027193	0.363184	0.781749
C69	C	0.844037	0.394992	0.810186
C70	C	0.887689	0.394958	0.720555
H71	H	0.786320	0.431858	0.807330
H72	H	0.833859	0.334842	0.826725
H73	H	0.882324	0.418313	0.857308
H74	H	0.849407	0.371628	0.673438
H75	H	0.897859	0.455106	0.704009
O76	O	1.212974	0.004677	0.749934
C77	C	1.199574	0.017811	0.849416
H78	H	1.126301	0.051343	0.863159
H79	H	1.251830	0.063147	0.877917
C80	C	1.303321	-0.115565	0.884138
C81	C	1.213323	-0.074387	0.901018
H82	H	1.311806	-0.172436	0.915970
H83	H	1.312352	-0.124412	0.817116
H84	H	1.346857	-0.077775	0.907889
H85	H	1.169789	-0.112172	0.877256
H86	H	1.204284	-0.065549	0.968038
O87	O	1.337437	-0.498854	0.000051
C88	C	1.412780	-0.446551	0.000029
H89	H	1.389460	-0.376410	0.030262
H90	H	1.438810	-0.439807	-0.076569
C91	C	1.520062	-0.579428	0.025504
C92	C	1.491422	-0.493282	0.062644
H93	H	1.568574	-0.608255	0.064124
H94	H	1.469303	-0.614667	0.025515
H95	H	1.541747	-0.573796	-0.038328
H96	H	1.469726	-0.498916	0.126469
H97	H	1.542179	-0.458046	0.062645
H98	H	0.913307	0.297339	0.591212
H99	H	1.265842	-0.046904	0.591133
O100	O	0.903570	0.306994	0.400872
C101	C	0.953025	0.362740	0.342751
H102	H	1.025143	0.326998	0.327690
H103	H	0.959369	0.429388	0.381479
C104	C	0.812484	0.425788	0.265788
C105	C	0.901058	0.381884	0.247283
H106	H	0.780427	0.437601	0.206900
H107	H	0.779163	0.388234	0.304947
H108	H	0.817782	0.481322	0.298064
H109	H	0.895758	0.326347	0.215019
H110	H	0.934376	0.419430	0.208115
H111	H	1.203176	0.014253	0.258068
H112	H	0.854821	-0.259623	0.000001
H113	H	0.851505	-0.430248	-0.000003
H114	H	1.237546	-0.620385	0.000019
O115	O	0.919493	-0.587777	0.000050
C116	C	0.935687	-0.683134	0.000024
H117	H	1.007624	-0.705095	0.030251
H118	H	0.931195	-0.709315	-0.076575
C119	C	0.773918	-0.695291	0.025509
C120	C	0.862268	-0.722264	0.062643
H121	H	0.728628	-0.719430	0.064131
H122	H	0.763006	-0.631047	0.025523
H123	H	0.770188	-0.717111	-0.038323
H124	H	0.866001	-0.700435	0.126468
H125	H	0.873179	-0.786505	0.062640
H126	H	1.327631	-0.319330	0.000008
H127	H	1.246363	-0.167662	0.000003
H128	H	0.975900	0.236182	0.258116
