data_functionalizedCrystal
_audit_creation_method	'MofGen! by Chris Wilmer'
_symmetry_space_group_name_H-M	'P1'
_symmetry_Int_Tables_number	1
_symmetry_cell_setting	triclinic
loop_
_symmetry_equiv_pos_as_xyz
  x,y,z
_cell_length_a	17.038272
_cell_length_b	10.654546
_cell_length_c	16.098571
_cell_angle_alpha	93.029463
_cell_angle_beta	87.133130
_cell_angle_gamma	92.202460
loop_
_atom_site_label
_atom_site_type_symbol
_atom_site_fract_x
_atom_site_fract_y
_atom_site_fract_z
O1	O	0.106709	-1.672675	0.069404
O2	O	0.117181	-1.308171	0.069374
O3	O	-0.001882	-1.488257	0.069382
O4	O	0.225772	-1.492589	0.069396
O5	O	0.004414	-1.498957	-0.069128
O6	O	0.123477	-1.318871	-0.069137
O7	O	0.113004	-1.683375	-0.069106
Zn8	Zn	0.119240	-1.502822	-0.091113
Zn9	Zn	0.110946	-1.488724	0.091381
O10	O	0.232068	-1.503289	-0.069115
C11	C	0.119561	-1.266652	0.000115
C12	C	0.117263	-1.126996	0.000103
C13	C	-0.027884	-1.489666	0.000127
C14	C	-0.114743	-1.477909	0.000126
C15	C	0.187365	-1.054018	0.000116
C16	C	0.185200	-0.922796	0.000124
C17	C	0.042825	-0.937540	0.000110
C18	C	0.044991	-1.068761	0.000096
C19	C	0.269563	-1.045504	0.000127
C20	C	0.267398	-0.914282	0.000135
C21	C	-0.164255	-1.585853	0.000134
C22	C	-0.245868	-1.574798	0.000141
C23	C	-0.277966	-1.455799	0.000134
C24	C	-0.228447	-1.347847	0.000128
C25	C	-0.146837	-1.358902	0.000127
C26	C	-0.523942	-1.416740	0.000142
C27	C	-0.605559	-1.405692	0.000141
C28	C	-0.622974	-1.632645	0.000155
C29	C	-0.541361	-1.643691	0.000149
C30	C	-0.491850	-1.535738	0.000148
C31	C	-0.361387	-1.444496	0.000139
C32	C	-0.408431	-1.547042	0.000149
C33	C	0.258070	-1.501879	0.000143
C34	C	0.344928	-1.513636	0.000149
N35	N	0.124901	-1.512453	-0.215660
C36	C	0.110627	-0.724895	0.000143
C37	C	0.112932	-0.864553	0.000125
C38	C	0.151184	-1.557009	-0.740471
C39	C	0.147219	-1.550277	-0.653284
C40	C	0.097343	-1.465645	-0.609698
C41	C	0.051437	-1.387730	-0.653305
C42	C	0.055407	-1.394456	-0.740491
C43	C	0.082964	-1.441264	-0.346453
C44	C	0.078996	-1.434547	-0.259261
C45	C	0.174779	-1.597093	-0.259246
C46	C	0.178741	-1.603817	-0.346434
C47	C	0.132838	-1.525898	-0.390033
C48	C	0.093287	-1.458765	-0.520578
C49	C	0.136899	-1.532772	-0.479151
N50	N	0.105279	-1.479102	0.215928
H51	H	-0.012092	-1.128176	0.000073
H52	H	0.294958	-0.875537	-0.059664
H53	H	-0.631689	-1.308785	0.000122
H54	H	-0.387530	-1.347606	0.000131
H55	H	-0.016017	-0.890108	0.000117
Cl56	Cl	0.311145	-0.847366	0.089635
Cl57	Cl	-0.123912	-1.735461	0.000135
H58	H	-0.106524	-1.271003	0.000121
Cl59	Cl	0.213883	-1.663416	-0.795256
H60	H	-0.515233	-1.740592	0.000155
H61	H	0.293018	-1.078970	0.059932
H62	H	-0.286178	-1.662698	0.000146
H63	H	-0.483639	-1.328837	0.000141
Cl64	Cl	0.030587	-1.352375	-0.465778
H65	H	0.219354	-1.672735	-0.381915
Cl66	Cl	-0.685221	-1.768347	0.000159
H67	H	0.304346	-1.082299	-0.057839
H68	H	-0.254588	-1.250954	0.000128
Cl69	Cl	0.204957	-1.648181	-0.598475
H70	H	-0.382294	-1.643929	0.000173
Cl71	Cl	0.232486	-1.695037	-0.204431
Cl72	Cl	-0.011260	-1.281327	-0.598511
H73	H	0.038382	-1.365622	-0.223776
Cl74	Cl	0.025255	-1.343308	-0.401252
Cl75	Cl	-0.002303	-1.296509	-0.795303
H76	H	0.177511	-1.601674	-0.514642
