data_functionalizedCrystal
_audit_creation_method	'MofGen! by Chris Wilmer'
_symmetry_space_group_name_H-M	'P1'
_symmetry_Int_Tables_number	1
_symmetry_cell_setting	triclinic
loop_
_symmetry_equiv_pos_as_xyz
  x,y,z
_cell_length_a	12.827893
_cell_length_b	19.120786
_cell_length_c	12.827885
_cell_angle_alpha	92.476068
_cell_angle_beta	90.019272
_cell_angle_gamma	92.465365
loop_
_atom_site_label
_atom_site_type_symbol
_atom_site_fract_x
_atom_site_fract_y
_atom_site_fract_z
Zn1	Zn	1.579850	-0.279595	0.573054
Zn2	Zn	1.572257	-0.397069	0.390838
Zn3	Zn	1.405089	-0.279629	0.398326
Zn4	Zn	1.397592	-0.397017	0.565541
O5	O	1.488697	-0.338327	0.481940
O6	O	1.725078	-0.295185	0.548894
O7	O	1.550041	-0.381527	0.245593
O8	O	1.434586	-0.181334	0.427782
O9	O	1.719499	-0.381493	0.415020
O10	O	1.562982	-0.181308	0.556154
O11	O	1.427224	-0.295244	0.251094
O12	O	1.257859	-0.295194	0.420497
O13	O	1.421810	-0.381405	0.712776
O14	O	1.252351	-0.381438	0.543349
O15	O	1.555713	-0.295135	0.718296
O16	O	1.542772	-0.495353	0.407735
O17	O	1.414447	-0.495315	0.536089
C18	C	1.217188	-0.338314	0.481921
C19	C	1.101034	-0.338326	0.481936
C20	C	1.052005	-0.295694	0.548275
C21	C	0.931954	-0.295704	0.548293
C22	C	1.477000	-0.520820	0.470307
C23	C	1.472092	-0.598890	0.465365
C24	C	1.536585	-0.635495	0.529935
C25	C	1.531969	-0.708851	0.525293
C26	C	1.462865	-0.745601	0.456077
C27	C	1.398365	-0.708991	0.391505
C28	C	1.402976	-0.635637	0.396152
C29	C	1.445595	-0.967088	0.438703
C30	C	1.440990	-1.040448	0.434058
C31	C	1.574594	-1.040302	0.567849
C32	C	1.579204	-0.966946	0.572485
C33	C	1.514700	-0.930343	0.507918
C34	C	1.458147	-0.820582	0.451328
C35	C	1.519413	-0.855362	0.512672
C36	C	1.761266	-0.338341	0.481960
C37	C	1.877419	-0.338347	0.481968
C38	C	1.488772	-0.338260	0.754514
C39	C	1.488804	-0.338231	0.870670
C40	C	1.500468	-0.155123	0.493641
C41	C	1.505483	-0.077052	0.498627
C42	C	1.488685	-0.338344	0.210429
C43	C	1.488868	-0.338175	0.094287
C44	C	1.555072	-0.295534	0.925186
C45	C	1.555106	-0.295503	1.045239
H46	H	1.592862	-0.605577	0.586294
C47	C	1.595428	-0.814935	0.588806
N48	N	1.652687	-0.784478	0.646146
H49	H	0.919586	-0.374851	0.425175
C50	C	1.115362	-0.246370	0.624985
N51	N	1.163081	-0.209218	0.682765
C52	C	1.655244	-0.926526	0.648610
N53	N	1.712527	-0.896081	0.705939
C54	C	1.332029	-0.595373	0.325120
N55	N	1.278587	-0.565047	0.271618
H56	H	1.432135	-0.374734	1.047421
H57	H	1.432090	-0.374759	0.912874
H58	H	1.611843	-0.258951	1.092111
H59	H	0.889779	-0.259208	0.605091
C60	C	1.374614	-0.926834	0.367699
N61	N	1.321138	-0.896513	0.314225
H62	H	1.054133	-0.374831	0.425152
H63	H	1.342094	-0.738919	0.335151
H64	H	1.627109	-1.070112	0.620417
C65	C	1.364962	-1.080871	0.357915
N66	N	1.307701	-1.111319	0.300567
H67	H	1.584495	-0.738650	0.577864
H68	H	1.401885	-0.850513	0.394969
C69	C	1.631682	-0.246177	0.868175
N70	N	1.689387	-0.208999	0.825236
