data_functionalizedCrystal
_audit_creation_method	'MofGen! by Chris Wilmer'
_symmetry_space_group_name_H-M	'P1'
_symmetry_Int_Tables_number	1
_symmetry_cell_setting	triclinic
loop_
_symmetry_equiv_pos_as_xyz
  x,y,z
_cell_length_a	23.196402
_cell_length_b	23.196402
_cell_length_c	23.196401
_cell_angle_alpha	59.998963
_cell_angle_beta	90.003708
_cell_angle_gamma	59.996656
loop_
_atom_site_label
_atom_site_type_symbol
_atom_site_fract_x
_atom_site_fract_y
_atom_site_fract_z
Zr1	Zr	0.555346	0.631019	-0.075659
O2	O	0.463275	0.751306	-0.167713
O3	O	0.583573	0.510744	-0.047441
O4	O	0.583548	0.631034	-0.167719
O5	O	0.463317	0.631000	0.047443
O6	O	0.678420	0.631031	-0.167721
O7	O	0.463299	0.631016	-0.047436
O8	O	0.678464	0.415854	0.047434
O9	O	0.463273	0.846177	-0.167712
O10	O	0.666411	0.560208	-0.035406
O11	O	0.595622	0.560198	0.035402
O12	O	0.595593	0.701824	-0.106209
O13	O	0.524804	0.701813	-0.035400
Zr14	Zr	0.706684	0.630989	0.075658
Zr15	Zr	0.706656	0.631015	-0.075662
Zr16	Zr	0.555374	0.630993	0.075662
Zr17	Zr	0.555343	0.782326	-0.075656
Zr18	Zr	0.706687	0.479681	0.075655
O19	O	0.678457	0.751264	0.047441
O20	O	0.678418	0.751301	-0.167718
O21	O	0.463315	0.751269	0.047445
O22	O	0.798756	0.510701	0.167713
O23	O	0.798716	0.510738	-0.047446
O24	O	0.583613	0.510707	0.167717
O25	O	0.798713	0.631008	-0.047443
O26	O	0.678482	0.630974	0.167718
O27	O	0.583610	0.630976	0.167720
O28	O	0.798731	0.630991	0.047435
O29	O	0.583544	0.846174	-0.167714
O30	O	0.678487	0.415834	0.167713
O31	O	0.798758	0.415830	0.167711
O32	O	0.798735	0.415851	0.047431
O33	O	0.463295	0.846156	-0.047432
O34	O	0.583566	0.846153	-0.047434
O35	O	0.666437	0.560184	0.106208
O36	O	0.737226	0.560194	0.035399
O37	O	0.666408	0.701810	-0.035403
O38	O	0.595619	0.701799	0.035405
C39	C	0.631019	0.441741	-0.000004
C40	C	0.631020	0.377507	-0.000006
C41	C	0.441750	0.631009	0.000004
C42	C	0.377515	0.631010	0.000005
C43	C	0.667968	-0.085331	-0.036949
C44	C	0.667966	-0.024972	-0.036956
C45	C	0.631016	0.005205	0.000006
C46	C	0.594050	-0.024968	0.036962
C47	C	0.594047	-0.085320	0.036961
C48	C	0.636308	0.067221	0.061916
C49	C	0.636316	0.127568	0.061918
C50	C	0.631021	0.191353	0.000006
C51	C	0.625732	0.194775	-0.061908
C52	C	0.625729	0.134423	-0.061908
C53	C	0.631015	0.070646	0.000010
C54	C	0.667978	0.286970	-0.036958
C55	C	0.667972	0.347333	-0.036967
C56	C	0.594061	0.347331	0.036958
C57	C	0.594063	0.286974	0.036959
C58	C	0.631026	0.256794	0.000003
C59	C	0.347333	0.631025	-0.052268
C60	C	0.286982	0.631018	-0.052268
C61	C	0.256807	0.631012	0.000000
C62	C	0.286998	0.630992	0.052282
C63	C	0.347352	0.630991	0.052285
C64	C	0.137434	0.678516	0.016288
C65	C	0.077078	0.678522	0.016281
C66	C	0.070656	0.631011	-0.000004
C67	C	0.124592	0.583504	-0.016296
C68	C	0.184946	0.583503	-0.016294
C69	C	0.191363	0.631012	0.000003
C70	C	-0.024965	0.631017	-0.052280
C71	C	-0.085314	0.631004	-0.052275
C72	C	-0.085301	0.630987	0.052272
C73	C	-0.024948	0.630991	0.052270
C74	C	0.005214	0.631010	-0.000009
C75	C	0.820280	0.630999	-0.000004
C76	C	0.884515	0.630997	-0.000006
C77	C	0.630980	0.631036	-0.189280
C78	C	0.630968	0.631047	-0.253519
C79	C	0.631011	0.820267	0.000004
C80	C	0.631010	0.884501	0.000005
C81	C	0.683236	0.631047	-0.283683
C82	C	0.683251	0.631031	-0.344030
C83	C	0.630989	0.631031	-0.374218
C84	C	0.578717	0.631026	-0.344044
C85	C	0.578707	0.631034	-0.283695
C86	C	0.567204	0.678529	-0.493598
C87	C	0.567214	0.678526	-0.553949
C88	C	0.631020	0.631002	-0.560355
C89	C	0.694820	0.583492	-0.506407
C90	C	0.694810	0.583500	-0.446058
C91	C	0.630994	0.631021	-0.439657
C92	C	0.683308	0.630983	-0.655953
C93	C	0.683325	0.630962	-0.716298
C94	C	0.578784	0.630965	-0.716315
C95	C	0.578774	0.630978	-0.655967
C96	C	0.631036	0.630991	-0.625792
C97	C	0.631050	0.630971	0.189279
C98	C	0.631062	0.630960	0.253518
C99	C	0.820284	0.441736	-0.000008
C100	C	0.884521	0.377500	-0.000011
C101	C	0.631054	0.441708	0.189275
C102	C	0.631067	0.377463	0.253513
C103	C	0.820319	0.441703	0.189271
C104	C	0.884568	0.377457	0.253508
C105	C	0.441711	0.820304	-0.189272
C106	C	0.377463	0.884551	-0.253508
C107	C	0.441746	0.820271	0.000008
C108	C	0.377510	0.884507	0.000010
C109	C	0.630976	0.820299	-0.189276
C110	C	0.630963	0.884544	-0.253514
C111	C	0.877722	0.347342	-0.036978
C112	C	0.938073	0.286994	-0.036995
C113	C	1.005222	0.256801	-0.000040
C114	C	1.012019	0.286966	0.036929
C115	C	0.951669	0.347317	0.036941
C116	C	0.668038	0.347286	0.320646
C117	C	0.668048	0.286929	0.381011
C118	C	0.631090	0.256747	0.374241
C119	C	0.594115	0.286930	0.307100
C120	C	0.594102	0.347290	0.246737
C121	C	0.951696	0.347291	0.246713
C122	C	1.012070	0.286933	0.307064
C123	C	1.005313	0.256737	0.374210
C124	C	0.938177	0.286909	0.381004
C125	C	0.877805	0.347270	0.320653
C126	C	0.310334	0.914724	-0.246713
C127	C	0.249960	0.975101	-0.307065
C128	C	0.256717	1.005300	-0.374211
C129	C	0.323853	0.975124	-0.381005
C130	C	0.384225	0.914752	-0.320654
C131	C	0.384308	0.914672	0.036971
C132	C	0.323957	0.975037	0.036971
C133	C	0.256808	1.005231	0.000014
C134	C	0.250011	0.975064	-0.036952
C135	C	0.310361	0.914704	-0.036955
C136	C	0.667928	0.914707	-0.246721
C137	C	0.667929	0.975064	-0.307074
C138	C	0.630961	1.005261	-0.374219
C139	C	0.593996	0.975092	-0.381010
C140	C	0.593999	0.914732	-0.320658
H141	H	0.698063	-0.109899	-0.067043
H142	H	0.957214	0.371864	0.067048
H143	H	0.563895	0.890180	-0.326199
H144	H	0.207673	1.054380	0.000023
H145	H	0.371891	0.631038	-0.094835
H146	H	0.195301	0.999659	-0.301520
H147	H	0.725865	0.630990	-0.631381
H148	H	0.033165	0.717209	0.029543
H149	H	0.698133	0.371853	0.326172
H150	H	0.725890	0.630957	-0.740856
H151	H	1.066700	0.262374	0.067016
H152	H	0.564025	0.262347	0.301599
H153	H	0.725815	0.631031	-0.368594
H154	H	1.054478	0.207587	0.423346
H155	H	0.304816	0.890146	-0.067051
H156	H	0.698160	0.262361	0.435673
H157	H	0.563971	0.262407	0.067055
H158	H	0.932525	0.262441	-0.067099
H159	H	0.371927	0.630979	0.094852
H160	H	0.563998	0.371852	0.192077
H161	H	0.823051	0.371924	-0.067080
H162	H	0.563964	-0.000393	0.067054
H163	H	1.054357	0.207659	-0.000055
H164	H	0.207552	1.054458	-0.423347
H165	H	0.195330	0.999658	-0.067041
H166	H	0.631107	0.207598	0.423398
H167	H	0.262403	0.631030	-0.094836
H168	H	0.957211	0.371868	0.192045
H169	H	1.066730	0.262373	0.301520
H170	H	0.746758	0.544814	-0.402135
H171	H	0.932686	0.262314	0.435682
H172	H	0.823148	0.371823	0.326195
H173	H	0.640629	0.124771	0.112334
H174	H	0.329346	0.999720	-0.435682
H175	H	0.304819	0.890139	-0.192045
H176	H	0.438883	0.890186	-0.326195
H177	H	0.698030	0.999622	-0.301531
H178	H	0.438979	0.890092	0.067071
H179	H	0.630964	1.054411	-0.423356
H180	H	0.640616	0.015289	0.112335
H181	H	0.329506	0.999589	0.067076
H182	H	0.698031	0.890130	-0.192054
H183	H	0.698073	0.262399	-0.067053
H184	H	0.698062	-0.000404	-0.067049
H185	H	0.621422	0.137214	-0.112321
H186	H	0.563897	0.999688	-0.435688
H187	H	0.698064	0.371900	-0.067063
H188	H	0.563971	0.371904	0.067049
H189	H	0.563951	-0.109882	0.067054
H190	H	0.621419	0.246711	-0.112323
H191	H	0.228860	0.544820	-0.029557
H192	H	0.725792	0.631055	-0.259115
H193	H	0.119365	0.544819	-0.029561
H194	H	-0.109886	0.631012	-0.094840
H195	H	-0.109867	0.630978	0.094832
H196	H	-0.000375	0.630984	0.094833
H197	H	0.142680	0.717156	0.029608
H198	H	-0.000403	0.631028	-0.094847
H199	H	0.262428	0.630986	0.094840
H200	H	0.746777	0.544793	-0.511619
H201	H	0.536210	0.630983	-0.631408
H202	H	0.536233	0.630960	-0.740892
H203	H	0.515264	0.717215	-0.597871
H204	H	0.536165	0.631024	-0.368626
H205	H	0.515241	0.717221	-0.488386
H206	H	0.536143	0.631034	-0.259134
