data_functionalizedCrystal
_audit_creation_method	'MofGen! by Chris Wilmer'
_symmetry_space_group_name_H-M	'P1'
_symmetry_Int_Tables_number	1
_symmetry_cell_setting	triclinic
loop_
_symmetry_equiv_pos_as_xyz
  x,y,z
_cell_length_a	13.032831
_cell_length_b	13.897448
_cell_length_c	13.897441
_cell_angle_alpha	90.030599
_cell_angle_beta	97.193526
_cell_angle_gamma	82.822399
loop_
_atom_site_label
_atom_site_type_symbol
_atom_site_fract_x
_atom_site_fract_y
_atom_site_fract_z
Zn1	Zn	1.597719	-0.571548	0.732369
Zn2	Zn	1.931053	-0.238214	1.065702
Zn3	Zn	2.264386	0.095119	1.399035
Zn4	Zn	1.597604	-0.732856	0.571057
Zn5	Zn	1.930938	-0.399523	0.904390
Zn6	Zn	2.264271	-0.066189	1.237723
Zn7	Zn	1.422952	-0.551073	0.550633
Zn8	Zn	1.756286	-0.217740	0.883967
Zn9	Zn	2.089619	0.115593	1.217300
Zn10	Zn	1.422932	-0.712283	0.711867
Zn11	Zn	1.756266	-0.378950	1.045200
Zn12	Zn	2.089599	-0.045617	1.378533
O13	O	1.510302	-0.641940	0.641481
O14	O	1.843635	-0.308607	0.974815
O15	O	2.176969	0.024727	1.308148
O16	O	1.743946	-0.610124	0.728098
O17	O	2.077279	-0.276790	1.061431
O18	O	2.410612	0.056543	1.394764
O19	O	1.574397	-0.708783	0.433361
O20	O	1.907730	-0.375450	0.766694
O21	O	2.241063	-0.042116	1.100028
O22	O	1.446192	-0.418814	0.574774
O23	O	1.779525	-0.085481	0.908107
O24	O	2.112858	0.247852	1.241440
O25	O	1.743861	-0.728636	0.609582
O26	O	2.077194	-0.395303	0.942916
O27	O	2.410528	-0.061970	1.276249
O28	O	1.574592	-0.433857	0.708294
O29	O	1.907926	-0.100523	1.041627
O30	O	2.241259	0.232810	1.374961
O31	O	1.446080	-0.575228	0.418356
O32	O	1.779414	-0.241895	0.751689
O33	O	2.112747	0.091438	1.085023
O34	O	1.276708	-0.555280	0.554894
O35	O	1.610041	-0.221947	0.888227
O36	O	1.943375	0.111387	1.221561
O37	O	1.446158	-0.693573	0.849573
O38	O	1.779491	-0.360240	1.182906
O39	O	2.112825	-0.026907	1.516239
O40	O	1.276694	-0.673720	0.673351
O41	O	1.610027	-0.340387	1.006685
O42	O	1.943360	-0.007054	1.340018
O43	O	1.574573	-0.590175	0.864635
O44	O	1.907907	-0.256842	1.197969
O45	O	2.241240	0.076491	1.531302
O46	O	1.574377	-0.865102	0.589702
O47	O	1.907711	-0.531769	0.923036
O48	O	2.241044	-0.198435	1.256369
O49	O	1.446047	-0.849987	0.693155
O50	O	1.779380	-0.516654	1.026488
O51	O	2.112713	-0.183321	1.359822
C52	C	1.238782	-0.610047	0.609682
C53	C	1.572115	-0.276713	0.943016
C54	C	1.905449	0.056620	1.276349
C55	C	1.122625	-0.596426	0.596101
C56	C	1.455958	-0.263092	0.929435
C57	C	1.789291	0.070241	1.262768
C58	C	1.070858	-0.649049	0.648569
C59	C	1.404192	-0.315716	0.981902
C60	C	1.737525	0.017618	1.315236
C61	C	0.950803	-0.634972	0.634534
C62	C	1.284137	-0.301639	0.967867
C63	C	1.617470	0.031694	1.301201
C64	C	1.510226	-0.892545	0.641444
C65	C	1.843559	-0.559212	0.974778
C66	C	2.176892	-0.225879	1.308111
C67	C	1.510289	-0.999767	0.641472
C68	C	1.843622	-0.666433	0.974805
C69	C	2.176955	-0.333100	1.308139
C70	C	1.510399	-1.196075	0.641545
C71	C	1.843732	-0.862741	0.974879
C72	C	2.177065	-0.529408	1.308212
C73	C	1.510335	-1.086835	0.641507
C74	C	1.843668	-0.753501	0.974841
C75	C	2.177001	-0.420168	1.308174
C76	C	1.782882	-0.673959	0.673405
C77	C	2.116216	-0.340625	1.006738
C78	C	2.449549	-0.007292	1.340072
C79	C	1.899040	-0.687603	0.687009
C80	C	2.232373	-0.354270	1.020342
C81	C	2.565707	-0.020936	1.353676
C82	C	1.510376	-0.641863	0.893083
C83	C	1.843710	-0.308530	1.226416
C84	C	2.177043	0.024803	1.559750
C85	C	1.510408	-0.641831	1.000301
C86	C	1.843741	-0.308498	1.333634
C87	C	2.177074	0.024836	1.666967
C88	C	1.510407	-0.390359	0.641543
C89	C	1.843740	-0.057026	0.974876
C90	C	2.177074	0.276307	1.308209
C91	C	1.510452	-0.283151	0.641569
C92	C	1.843785	0.050183	0.974902
C93	C	2.177119	0.383516	1.308236
C94	C	1.510288	-0.641954	0.390865
C95	C	1.843622	-0.308620	0.724199
C96	C	2.176955	0.024713	1.057532
C97	C	1.510459	-0.641738	0.283672
C98	C	1.843793	-0.308405	0.617005
C99	C	2.177126	0.024928	0.950339
C100	C	1.510436	-0.641769	1.196599
C101	C	1.843770	-0.308436	1.529933
C102	C	2.177103	0.024898	1.863266
C103	C	1.510417	-0.641806	1.087365
C104	C	1.843751	-0.308472	1.420698
C105	C	2.177084	0.024861	1.754031
H106	H	1.115419	-0.704520	0.703883
H107	H	1.448753	-0.371186	1.037216
H108	H	1.782086	-0.037853	1.370549
H109	H	1.078063	-0.540948	0.540795
H110	H	1.411397	-0.207614	0.874128
H111	H	1.744730	0.125719	1.207462
N112	N	0.954908	-0.757214	0.756399
N113	N	1.288242	-0.423880	1.089732
N114	N	1.621575	-0.090547	1.423066
N115	N	0.906298	-0.806697	0.805730
N116	N	1.239632	-0.473364	1.139063
N117	N	1.572965	-0.140031	1.472396
H118	H	0.945754	-0.855860	0.854736
H119	H	1.279087	-0.522527	1.188069
H120	H	1.612421	-0.189194	1.521402
H121	H	0.906246	-0.579491	0.579224
H122	H	1.239580	-0.246157	0.912557
H123	H	1.572913	0.087176	1.245890
