data_functionalizedCrystal
_audit_creation_method	'MofGen! by Chris Wilmer'
_symmetry_space_group_name_H-M	'P1'
_symmetry_Int_Tables_number	1
_symmetry_cell_setting	triclinic
loop_
_symmetry_equiv_pos_as_xyz
  x,y,z
_cell_length_a	9.065215
_cell_length_b	10.489716
_cell_length_c	9.565339
_cell_angle_alpha	90.004273
_cell_angle_beta	89.996928
_cell_angle_gamma	84.771917
loop_
_atom_site_label
_atom_site_type_symbol
_atom_site_fract_x
_atom_site_fract_y
_atom_site_fract_z
O1	O	1.959480	0.187020	-0.116230
O2	O	1.530119	0.202366	-0.116235
O3	O	1.754588	0.009128	-0.116237
O4	O	1.735011	0.380258	-0.116227
O5	O	1.754571	0.009140	0.116283
O6	O	1.530101	0.202378	0.116285
O7	O	1.959462	0.187032	0.116291
Zn8	Zn	1.744779	0.194707	0.153206
Zn9	Zn	1.744803	0.194691	-0.153150
O10	O	1.734993	0.380270	0.116293
C11	C	1.475131	0.200898	0.000024
C12	C	1.311310	0.196491	0.000022
C13	C	1.753109	-0.038403	0.000019
C14	C	1.748708	-0.180050	0.000006
C15	C	1.886359	-0.277228	0.000020
C16	C	1.813630	-0.354857	-0.114621
C17	C	1.813581	-0.354809	0.114625
C18	C	1.676036	-0.255813	-0.114731
C19	C	1.676007	-0.255760	0.114619
C20	C	1.603176	-0.333340	-0.000051
C21	C	2.014451	0.188500	0.000028
C22	C	2.178272	0.192907	0.000022
C23	C	1.736473	0.427801	0.000034
C24	C	1.740874	0.569448	0.000038
N25	N	1.744774	0.194717	0.362285
N26	N	1.744819	0.194671	-0.362229
C27	C	1.640932	0.284053	0.453489
C28	C	1.774524	0.310345	0.546671
C29	C	1.611240	0.168435	0.546659
C30	C	1.878433	0.221067	0.453415
C31	C	1.715061	0.079107	0.453395
C32	C	1.848749	0.105351	0.546534
H33	H	2.006093	-0.252120	-0.000095
F34	F	1.889589	-0.411444	-0.241304
H35	H	1.871710	-0.398067	0.211543
H36	H	1.483352	-0.358202	-0.000114
F37	F	1.682118	-0.048619	0.399797
F38	F	1.600139	-0.199497	-0.241557
F39	F	1.526258	0.382889	0.400083
H40	H	1.498294	0.146227	0.587621
F41	F	1.600135	-0.199119	0.241309
H42	H	1.799687	0.408094	0.587641
F43	F	2.026100	0.250245	0.400110
H44	H	1.936680	0.029780	0.587132
