data_functionalizedCrystal
_audit_creation_method	'MofGen! by Chris Wilmer'
_symmetry_space_group_name_H-M	'P1'
_symmetry_Int_Tables_number	1
_symmetry_cell_setting	triclinic
loop_
_symmetry_equiv_pos_as_xyz
  x,y,z
_cell_length_a	15.298709
_cell_length_b	15.297327
_cell_length_c	15.296720
_cell_angle_alpha	107.319222
_cell_angle_beta	72.673665
_cell_angle_gamma	72.593810
loop_
_atom_site_label
_atom_site_type_symbol
_atom_site_fract_x
_atom_site_fract_y
_atom_site_fract_z
Zn1	Zn	1.290660	0.190878	0.320097
Zn2	Zn	1.790660	0.690878	0.820097
Zn3	Zn	1.290550	0.319523	0.191514
Zn4	Zn	1.790550	0.819523	0.691514
Zn5	Zn	1.162063	0.190943	0.191490
Zn6	Zn	1.662063	0.690943	0.691490
Zn7	Zn	1.093954	0.387545	0.388045
Zn8	Zn	1.593954	0.887545	0.888045
O9	O	1.209307	0.272222	0.272786
O10	O	1.709307	0.772222	0.772786
O11	O	1.426740	0.179449	0.274613
O12	O	1.926740	0.679449	0.774613
O13	O	1.301963	0.274026	0.055440
O14	O	1.801963	0.774026	0.555440
O15	O	1.207671	0.054817	0.180103
O16	O	1.707671	0.554817	0.680103
O17	O	1.426658	0.273964	0.180144
O18	O	1.926658	0.773964	0.680144
O19	O	1.302151	0.054770	0.274590
O20	O	1.802151	0.554770	0.774590
O21	O	1.207564	0.179559	0.055422
O22	O	1.707564	0.679559	0.555422
O23	O	1.016934	0.245517	0.245990
O24	O	1.516934	0.745517	0.745990
O25	O	1.091591	0.389897	0.515103
O26	O	1.591591	0.889897	1.015103
O27	O	0.966895	0.389960	0.390398
O28	O	1.466895	0.889960	0.890398
O29	O	1.236109	0.245407	0.465181
O30	O	1.736109	0.745407	0.965181
O31	O	1.235921	0.464663	0.246031
O32	O	1.735921	0.964663	0.746031
O33	O	1.091483	0.514639	0.390421
O34	O	1.591483	1.014639	0.890421
C35	C	0.956626	0.325127	0.325565
C36	C	1.456626	0.825127	0.825565
C37	C	0.848519	0.347789	0.348172
C38	C	1.348519	0.847789	0.848172
C39	C	0.771706	0.433712	0.433898
C40	C	1.271706	0.933712	0.933898
C41	C	0.670133	0.455000	0.455147
C42	C	1.170133	0.955000	0.955147
C43	C	0.645362	0.390372	0.390668
C44	C	1.145362	0.890372	0.890668
C45	C	0.722175	0.304451	0.304936
C46	C	1.222175	0.804451	0.804936
C47	C	0.823759	0.283156	0.283690
C48	C	1.323759	0.783156	0.783690
C49	C	0.697415	0.239817	0.240459
C50	C	1.197415	0.739817	0.740459
C51	C	0.774228	0.153896	0.154728
C52	C	1.274228	0.653896	0.654728
C53	C	0.875800	0.132605	0.133485
C54	C	1.375800	0.632605	0.633485
C55	C	0.900571	0.197233	0.197964
C56	C	1.400571	0.697233	0.697964
C57	C	0.595831	0.261111	0.261706
C58	C	1.095831	0.761111	0.761706
C59	C	0.647884	0.110556	0.111497
C60	C	1.147884	0.610556	0.611497
C61	C	0.749457	0.089267	0.090249
C62	C	1.249457	0.589267	0.590249
C63	C	1.156322	0.524944	0.325618
C64	C	1.656322	1.024944	0.825618
C65	C	1.133737	0.633047	0.348233
C66	C	1.633737	1.133047	0.848233
C67	C	1.156265	0.325233	0.526410
C68	C	1.656265	0.825233	1.026410
C69	C	1.133662	0.347822	0.634490
C70	C	1.633662	0.847822	1.134490
C71	C	1.462973	0.219112	0.219802
C72	C	1.962973	0.719112	0.719802
C73	C	1.571071	0.196479	0.197223
C74	C	2.071071	0.696479	0.697223
C75	C	1.262521	0.018513	0.219765
C76	C	1.762521	0.518513	0.719765
C77	C	1.285197	-0.089602	0.197170
C78	C	1.785197	0.410398	0.697170
C79	C	1.371057	0.833559	0.111399
C80	C	1.871057	1.333559	0.611399
C81	C	1.392277	0.731990	0.090146
C82	C	1.892277	1.231990	0.590146
C83	C	1.327644	0.707249	0.154666
C84	C	1.827644	1.207249	0.654666
C85	C	1.241787	0.784088	0.240443
C86	C	1.741787	1.284088	0.740443
C87	C	1.220560	0.885667	0.261693
C88	C	1.720560	1.385667	0.761693
C89	C	1.177147	0.759357	0.304960
C90	C	1.677147	1.259357	0.804960
C91	C	1.091289	0.836196	0.390737
C92	C	1.591289	1.336196	0.890737
C93	C	1.070067	0.937765	0.411984
C94	C	1.570067	1.437765	0.911984
C95	C	1.134700	0.962506	0.347464
C96	C	1.634700	1.462506	0.847464
C97	C	1.198374	0.657777	0.283709
C98	C	1.698374	1.157777	0.783709
C99	C	1.047877	0.709885	0.434004
C100	C	1.547877	1.209885	0.934004
C101	C	1.026656	0.811455	0.455257
C102	C	1.526656	1.311455	0.955257
C103	C	1.262213	0.219337	0.020123
C104	C	1.762213	0.719337	0.520123
C105	C	1.285061	0.196433	-0.088053
C106	C	1.785061	0.696433	0.411947
C107	C	1.370927	0.110592	0.835182
C108	C	1.870927	0.610592	1.335182
C109	C	1.392169	0.089368	0.733635
C110	C	1.892169	0.589368	1.233635
C111	C	1.327544	0.153979	0.708844
C112	C	1.827544	0.653979	1.208844
C113	C	1.241673	0.239819	0.785609
C114	C	1.741673	0.739819	1.285609
C115	C	1.220433	0.261049	0.887166
C116	C	1.720433	0.761049	1.387166
C117	C	1.177050	0.304437	0.760828
C118	C	1.677050	0.804437	1.260828
C119	C	1.091179	0.390276	0.837593
C120	C	1.591179	0.890276	1.337593
C121	C	1.069942	0.411502	0.939140
C122	C	1.569942	0.911502	1.439140
C123	C	1.134567	0.346891	0.963931
C124	C	1.634567	0.846891	1.463931
C125	C	1.198291	0.283207	0.659271
C126	C	1.698291	0.783207	1.159271
C127	C	1.047796	0.433664	0.711255
C128	C	1.547796	0.933664	1.211255
C129	C	1.026554	0.454888	0.812802
C130	C	1.526554	0.954888	1.312802
H131	H	0.533299	0.331068	0.331510
H132	H	1.033299	0.831068	0.831510
H133	H	1.423540	0.057999	0.855379
H134	H	1.923540	0.557999	1.355379
H135	H	0.607599	0.524957	0.524950
H136	H	1.107599	1.024957	1.024950
F137	F	1.111966	0.369478	1.072009
F138	F	1.611966	0.869478	1.572009
F139	F	1.483556	-0.001985	0.651944
F140	F	1.983556	0.498015	1.151944
H141	H	0.791887	0.486319	0.486392
H142	H	1.291887	0.986319	0.986392
F143	F	0.537258	0.413032	0.413284
F144	F	1.037258	0.913032	0.913284
F145	F	1.008677	0.174582	0.175351
F146	F	1.508677	0.674582	0.675351
H147	H	1.000026	0.481405	1.001642
H148	H	1.500026	0.981405	1.501642
H149	H	0.995175	0.486278	0.691072
H150	H	1.495175	0.986278	1.191072
F151	F	0.957549	0.041150	0.042252
F152	F	1.457549	0.541150	0.542252
F153	F	1.350396	0.599148	0.132209
F154	F	1.850396	1.099148	0.632209
F155	F	0.831217	-0.002174	-0.000990
F156	F	1.331217	0.497826	0.499010
F157	F	1.111875	1.070606	0.369834
F158	F	1.611875	1.570606	0.869834
F159	F	0.621527	0.041767	0.042871
F160	F	1.121527	0.541767	0.542871
F161	F	1.483655	0.650220	-0.001134
F162	F	1.983655	1.150220	0.498866
F163	F	1.289747	0.576011	0.192422
F164	F	1.789747	1.076011	0.692422
H165	H	1.000147	1.000326	0.481820
H166	H	1.500147	1.500326	0.981820
F167	F	1.439832	0.859899	0.042741
F168	F	1.939832	1.359899	0.542741
F169	F	0.935283	0.893243	0.546544
F170	F	1.435283	1.393243	1.046544
F171	F	0.979081	0.683561	0.502671
F172	F	1.479081	1.183561	1.002671
H173	H	1.268207	0.213314	0.596777
H174	H	1.768207	0.713314	1.096777
F175	F	1.350154	0.131387	0.600767
F176	F	1.850154	0.631387	1.100767
H177	H	0.956636	0.524779	0.875318
H178	H	1.456636	1.024779	1.375318
