data_functionalizedCrystal
_audit_creation_method	'MofGen! by Chris Wilmer'
_symmetry_space_group_name_H-M	'P1'
_symmetry_Int_Tables_number	1
_symmetry_cell_setting	triclinic
loop_
_symmetry_equiv_pos_as_xyz
  x,y,z
_cell_length_a	17.699097
_cell_length_b	23.532407
_cell_length_c	16.776229
_cell_angle_alpha	89.988688
_cell_angle_beta	89.989262
_cell_angle_gamma	83.068554
loop_
_atom_site_label
_atom_site_type_symbol
_atom_site_fract_x
_atom_site_fract_y
_atom_site_fract_z
O1	O	1.003707	0.072056	-0.066363
O2	O	0.783282	0.081418	-0.066351
O3	O	0.900141	-0.006176	-0.066342
O4	O	0.886847	0.159649	-0.066371
O5	O	0.900126	-0.006181	0.066234
O6	O	0.783267	0.081412	0.066226
O7	O	1.003691	0.072050	0.066214
Zn8	Zn	0.893476	0.076731	0.087269
Zn9	Zn	0.893497	0.076738	-0.087406
O10	O	0.886832	0.159644	0.066206
C11	C	0.755079	0.081078	-0.000061
C12	C	0.671067	0.080068	-0.000056
C13	C	0.155388	0.073879	-0.072354
C14	C	0.234328	0.074824	-0.072350
C15	C	0.273783	0.075295	-0.000080
C16	C	0.234296	0.074814	0.072192
C17	C	0.155359	0.073865	0.072187
C18	C	0.552640	0.078642	0.072212
C19	C	0.631583	0.079594	0.072211
C20	C	0.631609	0.079602	-0.072325
C21	C	0.552672	0.078652	-0.072330
C22	C	0.513193	0.078169	-0.000059
C23	C	0.427598	0.077143	-0.000064
C24	C	0.359375	0.076325	-0.000074
C25	C	0.899795	-0.027395	-0.000052
C26	C	0.898777	-0.090615	-0.000046
C27	C	0.961548	-0.489536	-0.000093
C28	C	0.960603	-0.548939	-0.000099
O29	O	1.018792	-0.585514	-0.000132
N30	N	0.891130	-0.571767	-0.000095
C31	C	0.822598	-0.535189	-0.000092
O32	O	0.763419	-0.560060	-0.000090
C33	C	0.823545	-0.475787	-0.000092
C34	C	0.893022	-0.452962	-0.000088
C35	C	1.031020	-0.466710	-0.000090
C36	C	1.031965	-0.407311	-0.000083
C37	C	0.963439	-0.370738	-0.000078
C38	C	0.893967	-0.393563	-0.000081
C39	C	0.755014	-0.439210	-0.000096
C40	C	0.755966	-0.379804	-0.000096
C41	C	0.825443	-0.356980	-0.000092
C42	C	0.826386	-0.297591	-0.000069
N43	N	0.895858	-0.274763	-0.000073
C44	C	0.964385	-0.311336	-0.000078
C45	C	0.820616	-0.659937	-0.000094
C46	C	0.819669	-0.719338	-0.000089
C47	C	0.957674	-0.733084	-0.000097
C48	C	0.958620	-0.673682	-0.000097
C49	C	0.890089	-0.637109	-0.000099
C50	C	0.966365	-0.186594	-0.000061
C51	C	0.967304	-0.127189	-0.000050
C52	C	0.829299	-0.113448	-0.000047
C53	C	0.828360	-0.172848	-0.000053
C54	C	0.896899	-0.209420	-0.000063
O55	O	0.768227	-0.260981	-0.000039
O56	O	1.023554	-0.286456	-0.000091
C57	C	1.031894	0.072390	-0.000078
C58	C	1.115906	0.073400	-0.000088
C59	C	0.887178	0.180864	-0.000086
C60	C	0.888196	0.244084	-0.000098
N61	N	0.893468	0.076725	0.206481
N62	N	0.893511	0.076738	-0.206617
C63	C	0.945229	0.037955	0.248201
C64	C	0.945233	0.037954	0.331653
C65	C	0.893480	0.076728	0.373383
C66	C	0.841713	0.115500	0.331657
C67	C	0.841706	0.115497	0.248206
C68	C	0.841741	0.115511	0.668204
C69	C	0.841753	0.115512	0.751660
C70	C	0.945268	0.037968	0.751651
C71	C	0.945260	0.037966	0.668201
C72	C	0.893492	0.076736	0.626481
C73	C	0.893487	0.076735	0.535993
C74	C	0.893487	0.076731	0.463870
H75	H	0.266471	0.075210	-0.131197
H76	H	0.987405	0.006395	0.634227
F77	F	0.754415	-0.197140	-0.000043
H78	H	0.698438	-0.457783	-0.000104
F79	F	0.683023	-0.340884	-0.000100
H80	H	0.987380	0.006384	0.365622
H81	H	0.663705	0.079977	0.131066
F82	F	0.786667	0.156781	0.796071
F83	F	0.786613	0.156761	0.203805
H84	H	0.799590	0.147080	0.634243
H85	H	0.799571	0.147068	0.365638
H86	H	0.773507	-0.083659	-0.000040
H87	H	0.123269	0.073500	-0.131205
H88	H	0.520551	0.078272	-0.131180
H89	H	0.763094	-0.737916	-0.000078
H90	H	0.663764	0.079993	-0.131172
F91	F	0.510631	0.078140	0.149130
F92	F	1.000363	-0.003297	0.796058
H93	H	0.266427	0.075194	0.131036
H94	H	1.023883	-0.108609	-0.000045
H95	H	1.086826	-0.496483	-0.000097
H96	H	0.987376	0.006384	0.214230
H97	H	1.088540	-0.388734	-0.000083
F98	F	0.113340	0.073351	0.149103
H99	H	1.022175	-0.216364	-0.000072
F100	F	1.030606	-0.772019	-0.000106
H101	H	0.764806	-0.630162	-0.000089
F102	F	1.032566	-0.649396	-0.000093
