data_functionalizedCrystal
_audit_creation_method	'MofGen! by Chris Wilmer'
_symmetry_space_group_name_H-M	'P1'
_symmetry_Int_Tables_number	1
_symmetry_cell_setting	triclinic
loop_
_symmetry_equiv_pos_as_xyz
  x,y,z
_cell_length_a	18.215407
_cell_length_b	12.759394
_cell_length_c	18.215399
_cell_angle_alpha	89.972315
_cell_angle_beta	89.983176
_cell_angle_gamma	90.015285
loop_
_atom_site_label
_atom_site_type_symbol
_atom_site_fract_x
_atom_site_fract_y
_atom_site_fract_z
Zn1	Zn	1.125101	-0.418240	-0.416130
Zn2	Zn	1.125038	-0.593945	-0.293069
Zn3	Zn	1.002041	-0.418281	-0.293077
Zn4	Zn	1.002022	-0.593879	-0.416094
O5	O	1.063550	-0.506086	-0.354592
O6	O	1.228077	-0.441557	-0.399817
O7	O	1.108703	-0.570688	-0.190086
O8	O	1.018399	-0.271255	-0.309418
O9	O	1.228031	-0.570647	-0.309405
O10	O	1.108812	-0.271224	-0.399825
O11	O	1.018338	-0.441629	-0.190092
O12	O	0.899054	-0.441565	-0.309384
O13	O	1.018367	-0.570535	-0.519083
O14	O	0.899040	-0.570575	-0.399764
O15	O	1.108793	-0.441494	-0.519109
O16	O	1.108685	-0.740957	-0.309370
O17	O	1.018305	-0.740909	-0.399756
C18	C	0.872344	-0.506068	-0.354571
C19	C	0.790545	-0.506086	-0.354580
C20	C	1.063506	-0.779054	-0.354575
C21	C	1.063555	-0.895830	-0.354592
C22	C	0.602363	-0.573367	-0.401582
C23	C	0.525505	-0.573370	-0.401591
C24	C	0.525489	-0.438824	-0.307619
C25	C	0.602347	-0.438816	-0.307614
C26	C	0.640782	-0.506094	-0.354594
C27	C	0.487066	-0.506105	-0.354608
C28	C	0.403732	-0.506108	-0.354618
C29	C	0.724121	-0.506090	-0.354586
C30	C	1.157738	-0.895827	-0.260543
C31	C	1.204848	-0.950687	-0.213528
C32	C	1.204891	-1.060408	-0.213548
C33	C	1.157820	-1.115273	-0.260590
C34	C	1.110710	-1.060414	-0.307605
C35	C	1.110670	-0.950690	-0.307579
C36	C	1.016532	-1.060417	-0.401656
C37	C	1.016484	-0.950695	-0.401634
C38	C	0.969461	-1.115281	-0.448698
C39	C	0.922345	-1.060422	-0.495711
C40	C	0.922303	-0.950694	-0.495689
C41	C	0.969373	-0.895836	-0.448649
C42	C	1.255503	-0.506105	-0.354614
C43	C	1.337302	-0.506113	-0.354623
C44	C	1.063585	-0.506002	-0.546545
C45	C	1.063600	-0.505966	-0.628344
C46	C	1.063615	-0.232053	-0.354626
C47	C	1.063642	-0.115276	-0.354641
C48	C	1.016586	-0.438720	-0.816542
C49	C	1.016599	-0.438699	-0.893401
C50	C	1.110702	-0.573087	-0.893384
C51	C	1.110685	-0.573113	-0.816527
C52	C	1.063628	-0.505923	-0.778108
C53	C	1.063658	-0.505877	-0.931824
C54	C	1.063672	-0.505854	-1.015158
C55	C	1.063613	-0.505947	-0.694769
C56	C	1.063558	-0.506094	-0.163386
C57	C	1.063686	-0.505834	-0.081588
H58	H	0.633655	-0.628146	-0.439838
O59	O	0.970767	-0.373576	-0.779254
C60	C	0.897420	-0.396518	-0.798040
H61	H	0.893696	-0.480443	-0.819153
H62	H	0.861052	-0.387487	-0.747495
H63	H	0.878203	-0.340176	-0.842661
O64	O	0.969367	-1.221864	-0.448721
C65	C	0.898862	-1.258624	-0.429757
H66	H	0.856443	-1.195426	-0.442280
H67	H	0.885791	-1.332003	-0.462960
H68	H	0.897340	-1.278168	-0.368698
O69	O	0.970822	-0.373568	-0.930766
C70	C	0.923295	-0.433369	-0.975217
H71	H	0.918732	-0.516123	-0.952040
H72	H	0.866666	-0.395371	-0.976085
H73	H	0.946054	-0.436968	-1.033470
H74	H	1.149014	-0.627790	-0.924674
O75	O	0.876645	-0.897358	-0.541440
C76	C	0.918495	-0.833767	-0.588979
H77	H	0.976468	-0.866757	-0.593577
H78	H	0.891850	-0.832491	-0.645594
H79	H	0.921007	-0.750633	-0.566210
O80	O	0.488299	-0.638821	-0.447256
C81	C	0.538707	-0.698175	-0.488732
H82	H	0.593481	-0.701756	-0.458577
H83	H	0.516491	-0.780968	-0.496485
H84	H	0.546909	-0.659799	-0.544670
O85	O	0.488039	-0.373575	-0.262008
C86	C	0.411963	-0.387986	-0.272100
H87	H	0.401463	-0.469111	-0.296103
H88	H	0.382734	-0.380762	-0.216986
H89	H	0.390177	-0.325742	-0.311369
O90	O	1.156420	-0.638252	-0.779106
C91	C	1.203966	-0.578453	-0.734674
H92	H	1.178025	-0.498835	-0.723175
H93	H	1.213802	-0.621265	-0.680619
H94	H	1.258514	-0.566906	-0.764297
O95	O	0.639558	-0.373430	-0.261898
C96	C	0.589155	-0.314039	-0.220442
H97	H	0.534361	-0.357071	-0.217842
H98	H	0.611346	-0.302730	-0.162471
H99	H	0.581002	-0.234294	-0.247487
O100	O	1.157732	-1.221856	-0.260615
C101	C	1.087232	-1.258628	-0.241647
H102	H	1.044807	-1.195436	-0.254164
H103	H	1.074164	-1.332007	-0.274852
H104	H	1.085716	-1.278178	-0.180588
H105	H	1.243175	-0.906006	-0.175228
O106	O	1.157807	-0.789245	-0.260448
C107	C	1.209436	-0.752584	-0.208833
H108	H	1.252466	-0.815772	-0.198576
H109	H	1.237319	-0.679116	-0.231043
H110	H	1.180273	-0.733217	-0.155143
H111	H	1.243257	-1.105074	-0.175267
O112	O	0.876729	-1.113832	-0.541440
C113	C	0.918632	-1.177170	-0.589034
H114	H	0.974425	-1.193563	-0.563129
H115	H	0.888686	-1.254356	-0.598887
H116	H	0.926667	-1.134812	-0.643569
O117	O	0.969330	-0.789253	-0.448491
C118	C	0.950436	-0.752696	-0.377941
H119	H	0.963051	-0.815962	-0.335575
H120	H	0.983612	-0.679271	-0.364869
H121	H	0.889367	-0.733295	-0.376328
