data_functionalizedCrystal
_audit_creation_method	'MofGen! by Chris Wilmer'
_symmetry_space_group_name_H-M	'P1'
_symmetry_Int_Tables_number	1
_symmetry_cell_setting	triclinic
loop_
_symmetry_equiv_pos_as_xyz
  x,y,z
_cell_length_a	12.759395
_cell_length_b	12.759400
_cell_length_c	12.759387
_cell_angle_alpha	89.969069
_cell_angle_beta	90.020509
_cell_angle_gamma	89.983779
loop_
_atom_site_label
_atom_site_type_symbol
_atom_site_fract_x
_atom_site_fract_y
_atom_site_fract_z
Zn1	Zn	1.606269	0.418168	0.594004
Zn2	Zn	1.606159	0.593885	0.418324
Zn3	Zn	1.430567	0.418225	0.418341
Zn4	Zn	1.430559	0.593810	0.593963
O5	O	1.518389	0.506022	0.506158
O6	O	1.753275	0.441484	0.570710
O7	O	1.582824	0.570638	0.271305
O8	O	1.453923	0.271196	0.441667
O9	O	1.753195	0.570583	0.441639
O10	O	1.583011	0.271154	0.570726
O11	O	1.453817	0.441582	0.271318
O12	O	1.283545	0.441510	0.441628
O13	O	1.453910	0.570455	0.740990
O14	O	1.283539	0.570511	0.570657
O15	O	1.583003	0.441412	0.741020
O16	O	1.582817	0.740896	0.441599
O17	O	1.453804	0.740841	0.570640
C18	C	1.245421	0.506009	0.506140
C19	C	1.128644	0.506029	0.506157
C20	C	1.518326	0.778989	0.506136
C21	C	1.518396	0.895766	0.506162
C22	C	1.518468	0.505919	0.780192
C23	C	1.518502	0.505875	0.896969
C24	C	1.128677	0.640576	0.640298
C25	C	1.073833	0.707857	0.707371
C26	C	0.964111	0.707870	0.707384
C27	C	0.909232	0.640592	0.640318
C28	C	0.964076	0.573310	0.573245
C29	C	1.073800	0.573307	0.573237
C30	C	0.964043	0.438760	0.439112
C31	C	1.073765	0.438751	0.439092
C32	C	0.909163	0.371482	0.372046
C33	C	0.964008	0.304204	0.304966
C34	C	1.073736	0.304195	0.304955
C35	C	1.128609	0.371469	0.372019
C36	C	1.792422	0.506036	0.506177
C37	C	1.909199	0.506041	0.506185
C38	C	1.518480	0.231989	0.506203
C39	C	1.518519	0.115212	0.506222
C40	C	1.585647	0.950622	0.439044
C41	C	1.585712	1.060346	0.439077
C42	C	1.451264	1.060349	0.573347
C43	C	1.451206	0.950627	0.573319
C44	C	1.663266	0.950621	0.361521
C45	C	1.663331	1.060345	0.361554
C46	C	1.518370	0.506049	0.233191
C47	C	1.518540	0.505797	0.116414
C48	C	1.652935	0.371511	0.897020
C49	C	1.720167	0.304313	0.951906
C50	C	1.720192	0.304275	1.061628
C51	C	1.652977	0.371439	1.116465
C52	C	1.585746	0.438637	1.061579
C53	C	1.585730	0.438670	0.951855
C54	C	1.451308	0.572994	1.061528
C55	C	1.451286	0.573040	0.951806
C56	C	1.384093	0.640159	1.116366
C57	C	1.316865	0.707364	1.061480
C58	C	1.316843	0.707400	0.951751
C59	C	1.384055	0.640237	0.896920
H60	H	1.218018	0.640580	0.640286
F61	F	0.792456	0.640596	0.640349
F62	F	1.379642	0.892249	0.644769
H63	H	1.217950	0.371471	0.372013
H64	H	1.384048	0.640265	0.807579
F65	F	0.905740	0.779472	0.778775
F66	F	1.132247	0.779461	0.778738
F67	F	1.769586	0.911587	0.390084
F68	F	0.792388	0.371491	0.372068
F69	F	1.132097	0.232578	0.233570
H70	H	1.774932	0.249550	1.106316
F71	F	0.905596	0.232603	0.233606
H72	H	1.652995	0.371393	1.205807
F73	F	1.245279	0.778918	0.893345
F74	F	1.379761	1.118744	0.644818
F75	F	1.634918	1.099382	0.255186
F76	F	1.625177	0.906244	0.260459
H77	H	1.384115	0.640119	1.205707
F78	F	1.764365	1.104717	0.399752
H79	H	1.774890	0.249627	0.907245
F80	F	1.652927	0.371559	0.780244
H81	H	1.262138	0.762038	1.106137
