data_functionalizedCrystal
_audit_creation_method	'MofGen! by Chris Wilmer'
_symmetry_space_group_name_H-M	'P1'
_symmetry_Int_Tables_number	1
_symmetry_cell_setting	triclinic
loop_
_symmetry_equiv_pos_as_xyz
  x,y,z
_cell_length_a	11.792241
_cell_length_b	14.971486
_cell_length_c	14.048226
_cell_angle_alpha	90.001501
_cell_angle_beta	89.993434
_cell_angle_gamma	96.096228
loop_
_atom_site_label
_atom_site_type_symbol
_atom_site_fract_x
_atom_site_fract_y
_atom_site_fract_z
O1	O	0.147909	-1.187540	-0.079051
O2	O	0.165622	-0.927210	-0.079077
O3	O	-0.008446	-1.063692	-0.079057
O4	O	0.321977	-1.051058	-0.079072
O5	O	-0.008456	-1.063676	0.079264
O6	O	0.165611	-0.927194	0.079244
O7	O	0.147899	-1.187523	0.079270
Zn8	Zn	0.156753	-1.057356	0.104394
Zn9	Zn	0.156767	-1.057378	-0.104201
O10	O	0.321966	-1.051041	0.079250
C11	C	0.164824	-0.893874	0.000080
C12	C	0.162451	-0.794568	0.000070
C13	C	-0.050737	-1.062891	0.000103
C14	C	-0.176735	-1.060515	0.000102
C15	C	0.148696	-1.220859	0.000110
C16	C	0.151070	-1.320166	0.000114
C17	C	-0.407419	-1.056147	0.000086
C18	C	-0.279050	-1.058574	0.000095
C19	C	0.364257	-1.051843	0.000087
C20	C	0.490256	-1.054218	0.000082
N21	N	0.156744	-1.057347	0.246754
C22	C	0.264710	-0.737752	0.000067
C23	C	0.262473	-0.644444	0.000081
C24	C	0.157975	-0.607953	0.000092
C25	C	0.055707	-0.664776	0.000098
C26	C	0.057946	-0.758082	0.000091
C27	C	0.051049	-0.470294	0.000111
C28	C	0.048810	-0.376981	0.000117
C29	C	0.255577	-0.356656	0.000102
C30	C	0.257815	-0.449963	0.000095
C31	C	0.155547	-0.506779	0.000099
N32	N	0.156768	-1.057393	-0.246562
C33	C	0.079698	-1.117801	0.296582
C34	C	0.079698	-1.117807	0.396239
C35	C	0.156749	-1.057363	0.446068
C36	C	0.233797	-0.996903	0.396234
C37	C	0.233792	-0.996894	0.296578
C38	C	0.233806	-0.996929	0.603948
C39	C	0.233813	-0.996940	0.703611
C40	C	0.079712	-1.117843	0.703609
C41	C	0.079706	-1.117833	0.603953
C42	C	0.156757	-1.057374	0.554126
H43	H	0.349805	-0.767455	0.000058
F44	F	-0.002306	-1.182139	0.243559
F45	F	0.315810	-0.932578	0.550923
H46	H	0.016961	-1.167032	0.436808
F47	F	-0.062408	-0.338147	0.000153
H48	H	-0.032229	-0.516553	0.000116
H49	H	0.345744	-0.598187	0.000078
F50	F	-0.055508	-0.625937	0.000116
H51	H	0.016971	-1.167055	0.563383
H52	H	-0.025325	-0.804341	0.000093
H53	H	0.342907	-0.479670	0.000077
F54	F	-0.002289	-1.182188	0.756643
F55	F	0.364419	-0.296187	0.000099
F56	F	0.315791	-0.932548	0.243550
F57	F	0.315797	-0.932569	0.449266
H58	H	0.296555	-0.947719	0.744177
