data_functionalizedCrystal
_audit_creation_method	'MofGen! by Chris Wilmer'
_symmetry_space_group_name_H-M	'P1'
_symmetry_Int_Tables_number	1
_symmetry_cell_setting	triclinic
loop_
_symmetry_equiv_pos_as_xyz
  x,y,z
_cell_length_a	10.654550
_cell_length_b	8.597304
_cell_length_c	9.730223
_cell_angle_alpha	82.298743
_cell_angle_beta	89.996251
_cell_angle_gamma	84.909268
loop_
_atom_site_label
_atom_site_type_symbol
_atom_site_fract_x
_atom_site_fract_y
_atom_site_fract_z
O1	O	1.669004	0.220456	-0.140502
O2	O	1.303637	0.241460	-0.142966
O3	O	1.493511	0.002571	-0.114688
O4	O	1.479129	0.459346	-0.168780
O5	O	1.493509	0.002577	0.113891
O6	O	1.303634	0.241466	0.085613
O7	O	1.669001	0.220462	0.088077
Zn8	Zn	1.486318	0.230965	0.123137
Zn9	Zn	1.486320	0.230957	-0.178026
O10	O	1.479127	0.459352	0.059799
C11	C	1.256829	0.239921	-0.028491
C12	C	1.117362	0.235307	-0.027936
C13	C	1.491966	-0.055914	0.006525
C14	C	1.487349	-0.230190	0.027155
C15	C	1.038622	0.375961	-0.044613
C16	C	0.907578	0.371616	-0.044122
C17	C	0.934026	0.085950	-0.010282
C18	C	1.065067	0.090297	-0.010764
C19	C	1.023352	0.540889	-0.064156
C20	C	0.892308	0.536544	-0.063665
C21	C	1.715809	0.222001	-0.026401
C22	C	1.855276	0.226616	-0.026964
C23	C	1.480672	0.517837	-0.061417
C24	C	1.485289	0.692113	-0.082056
N25	N	1.486325	0.230970	0.328673
N26	N	1.486323	0.230940	-0.383560
C27	C	1.570424	0.125226	0.413116
C28	C	1.570420	0.125207	0.557002
C29	C	1.402215	0.336690	0.531986
C30	C	1.402214	0.336700	0.388104
C31	C	1.667539	0.003132	0.427560
C32	C	1.667536	0.003113	0.571445
H33	H	0.891432	-0.032112	0.003678
H34	H	1.487052	-0.241079	-0.191348
C35	C	1.480666	-0.481349	0.167291
C36	C	1.484943	-0.320370	0.174710
H37	H	1.479184	-0.537019	0.258385
H38	H	1.406915	-0.496921	0.117916
H39	H	1.553014	-0.519285	0.120561
H40	H	1.412590	-0.282431	0.221432
H41	H	1.558702	-0.304789	0.224106
H42	H	1.333723	0.422791	0.319352
C43	C	1.227738	-0.070518	0.125843
C44	C	1.151621	-0.064313	0.007582
H45	H	1.281167	-0.165977	0.137171
H46	H	1.277633	0.016451	0.115540
H47	H	1.176030	-0.066264	0.205027
H48	H	1.203329	-0.068555	-0.071603
H49	H	1.101722	-0.151306	0.017876
C50	C	0.956657	0.676411	0.127240
C51	C	1.063423	0.627957	0.054677
H52	H	0.981400	0.730150	0.200605
H53	H	0.900774	0.745098	0.065948
H54	H	0.915403	0.586836	0.164396
H55	H	1.104672	0.717533	0.017511
H56	H	1.119327	0.559266	0.115979
C57	C	1.231709	0.368736	0.690015
C58	C	1.309770	0.452908	0.597322
H59	H	1.174643	0.440489	0.730354
H60	H	1.185738	0.302893	0.641677
H61	H	1.281809	0.305759	0.760893
H62	H	1.259670	0.515876	0.526438
H63	H	1.355745	0.518777	0.645663
H64	H	1.645456	-0.117514	0.402795
H65	H	1.758926	0.041361	0.378401
C66	C	1.797988	0.039383	0.763781
C67	C	1.798008	0.039418	0.619871
H68	H	1.878535	0.061788	0.793675
H69	H	1.735866	0.117482	0.787072
H70	H	1.779568	-0.061157	0.808194
H71	H	1.816419	0.139962	0.575457
H72	H	1.860149	-0.038685	0.596567
C73	C	0.933569	0.675633	-0.287587
C74	C	0.836404	0.620424	-0.202741
H75	H	0.899054	0.727409	-0.373443
H76	H	0.976438	0.747593	-0.242953
H77	H	0.991100	0.589331	-0.303924
H78	H	0.778878	0.706729	-0.186395
H79	H	0.793515	0.548460	-0.247384
H80	H	1.059287	0.593401	-0.169062
H81	H	1.636418	-0.110897	0.629564
H82	H	0.846900	0.586389	0.029116
