data_functionalizedCrystal
_audit_creation_method	'MofGen! by Chris Wilmer'
_symmetry_space_group_name_H-M	'P1'
_symmetry_Int_Tables_number	1
_symmetry_cell_setting	triclinic
loop_
_symmetry_equiv_pos_as_xyz
  x,y,z
_cell_length_a	14.472310
_cell_length_b	19.288864
_cell_length_c	19.288865
_cell_angle_alpha	83.136245
_cell_angle_beta	89.993676
_cell_angle_gamma	89.973143
loop_
_atom_site_label
_atom_site_type_symbol
_atom_site_fract_x
_atom_site_fract_y
_atom_site_fract_z
O1	O	0.077148	-0.921357	-0.086643
O2	O	0.077086	-0.719097	-0.098332
O3	O	0.077100	-0.826072	0.008643
O4	O	0.077133	-0.814383	-0.193618
O5	O	-0.076582	-0.826044	0.008637
O6	O	-0.076596	-0.719069	-0.098338
O7	O	-0.076534	-0.921330	-0.086649
Cu8	Cu	-0.090598	-0.820197	-0.092494
Cu9	Cu	0.091149	-0.820230	-0.092487
O10	O	-0.076549	-0.814355	-0.193624
C11	C	0.000237	-0.693207	-0.097959
C12	C	0.000212	-0.616103	-0.096830
N13	N	-0.218428	-0.820179	-0.092499
C14	C	0.000257	-0.825682	0.034516
C15	C	0.000248	-0.824553	0.111620
C16	C	-0.592520	-0.820229	-0.092484
C17	C	-0.553362	-0.762798	-0.149533
C18	C	-0.446273	-0.762929	-0.149740
C19	C	-0.406929	-0.820204	-0.092491
C20	C	-0.445740	-0.892628	-0.108094
C21	C	-0.552862	-0.892305	-0.108499
C22	C	-0.553067	-0.805882	-0.019661
C23	C	-0.445940	-0.804218	-0.020152
C24	C	-0.302040	-0.820194	-0.092494
C25	C	-0.697408	-0.820243	-0.092483
N26	N	0.218980	-0.820253	-0.092476
C27	C	0.000317	-0.947220	-0.087022
C28	C	0.000347	-1.024324	-0.088151
C29	C	0.000237	-0.571407	-0.159598
C30	C	0.000247	-0.498960	-0.158537
C31	C	0.000251	-0.471212	-0.094705
C32	C	0.000221	-0.515918	-0.031929
C33	C	0.000202	-0.588364	-0.032991
C34	C	0.054116	-0.362960	-0.044523
C35	C	0.054141	-0.290515	-0.043464
C36	C	0.000306	-0.247767	-0.091425
C37	C	-0.053541	-0.277470	-0.140458
C38	C	-0.053560	-0.349915	-0.141521
C39	C	0.000271	-0.392658	-0.093546
C40	C	0.000341	-0.124514	-0.153047
C41	C	0.000345	-0.052066	-0.151984
C42	C	0.000328	-0.069026	-0.025374
C43	C	0.000315	-0.141473	-0.026439
C44	C	0.000325	-0.169212	-0.090278
C45	C	0.000297	-0.814745	-0.219497
C46	C	0.000312	-0.815874	-0.296601
C47	C	0.000263	-0.887321	0.156316
C48	C	0.000277	-0.886260	0.228763
C49	C	0.000258	-0.822428	0.256511
C50	C	0.000249	-0.759652	0.211805
C51	C	0.000244	-0.760714	0.139359
C52	C	-0.053589	-0.772239	0.364796
C53	C	-0.053589	-0.771179	0.437241
C54	C	0.000278	-0.819148	0.479956
C55	C	0.054134	-0.868189	0.450221
C56	C	0.054129	-0.869252	0.377775
C57	C	0.000264	-0.821269	0.335065
C58	C	0.000309	-0.880770	0.603209
C59	C	0.000329	-0.879707	0.675657
C60	C	0.000292	-0.753097	0.658697
C61	C	0.000281	-0.754162	0.586250
C62	C	0.000285	-0.818001	0.558511
H63	H	-0.579168	-0.708781	-0.140426
H64	H	-0.580258	-0.771808	-0.203274
H65	H	-0.420036	-0.709088	-0.140477
H66	H	-0.577824	-0.904982	-0.161601
C67	C	0.000137	-0.950058	0.573049
C68	C	-0.078944	-0.954366	0.531980
C69	C	-0.079139	-1.018188	0.504196
H70	H	0.053664	-0.953182	0.545085
H71	H	0.000106	-0.987309	0.610030
H72	H	-0.078905	-0.917125	0.495004
H73	H	-0.132484	-0.951254	0.559928
H74	H	-0.079170	-1.055439	0.541177
H75	H	-0.025609	-1.021305	0.476236
H76	H	-0.132799	-1.021122	0.476333
C77	C	0.000475	-0.039007	0.043983
C78	C	0.079519	-0.061799	0.081926
C79	C	0.079675	-0.034164	0.145826
H80	H	0.000535	0.010538	0.035728
H81	H	-0.053097	-0.054359	0.069853
H82	H	0.133077	-0.046443	0.056061
H83	H	0.079475	-0.111340	0.090200
H84	H	0.026103	-0.049516	0.171697
H85	H	0.079733	0.015380	0.137564
H86	H	0.133301	-0.049629	0.171581
H87	H	0.000300	-0.177866	0.024674
C88	C	0.112625	-0.258405	0.009848
C89	C	0.159736	-0.311349	0.051643
C90	C	0.213611	-0.281798	0.100768
H91	H	0.156008	-0.226959	-0.013661
H92	H	0.073823	-0.233900	0.038341
H93	H	0.198535	-0.335842	0.023153
H94	H	0.116376	-0.342798	0.075168
H95	H	0.174808	-0.257293	0.129262
H96	H	0.256988	-0.250353	0.077253
H97	H	0.245575	-0.317716	0.129136
C98	C	-0.410058	-0.856381	0.039029
C99	C	-0.313474	-0.852977	0.041036
C100	C	-0.280389	-0.901033	0.095536
H101	H	-0.434620	-0.845525	0.082113
H102	H	-0.428558	-0.902150	0.031546
H103	H	-0.294982	-0.807218	0.048525
H104	H	-0.288887	-0.863839	-0.002035
H105	H	-0.298889	-0.946802	0.088052
H106	H	-0.304958	-0.890173	0.138616
H107	H	-0.214853	-0.898734	0.096900
C108	C	-0.112024	-0.231181	-0.192615
C109	C	-0.159165	-0.272698	-0.235790
C110	C	-0.213034	-0.230078	-0.283850
H111	H	-0.155389	-0.206104	-0.168271
H112	H	-0.073215	-0.199190	-0.220283
H113	H	-0.197971	-0.304676	-0.208125
H114	H	-0.115822	-0.297774	-0.260150
H115	H	-0.174225	-0.198087	-0.311519
H116	H	-0.256394	-0.205003	-0.259500
H117	H	-0.245018	-0.258240	-0.313155
H118	H	-0.420626	-0.772067	-0.203785
H119	H	0.000235	-0.707679	0.234401
C120	C	0.112636	-0.409446	0.007440
C121	C	0.176324	-0.446317	-0.028742
C122	C	0.230236	-0.489154	0.019101
H123	H	0.144800	-0.381467	0.036812
H124	H	0.073835	-0.441483	0.035060
H125	H	0.215121	-0.414284	-0.056350
H126	H	0.144185	-0.474310	-0.058110
H127	H	0.191435	-0.521191	0.046721
H128	H	0.262394	-0.461169	0.048470
H129	H	0.273449	-0.514181	-0.005442
C130	C	-0.587222	-0.951033	-0.055169
C131	C	-0.511527	-0.986649	-0.022725
C132	C	-0.543139	-1.040754	0.026401
H133	H	-0.623690	-0.932115	-0.021038
H134	H	-0.623534	-0.982502	-0.077989
H135	H	-0.475230	-0.955184	0.000095
H136	H	-0.475051	-1.005583	-0.056838
H137	H	-0.579452	-1.072224	0.003582
H138	H	-0.579608	-1.021830	0.060527
H139	H	-0.491786	-1.064931	0.048416
H140	H	-0.420576	-0.750943	-0.008306
H141	H	-0.420250	-0.936376	-0.067638
C142	C	0.000373	-0.485891	0.037426
C143	C	0.079415	-0.508686	0.075370
C144	C	0.079576	-0.481048	0.139268
H145	H	0.000438	-0.436346	0.029169
H146	H	-0.053200	-0.501239	0.063298
H147	H	0.132974	-0.493335	0.049504
H148	H	0.079366	-0.558228	0.083646
H149	H	0.026003	-0.496396	0.165140
H150	H	0.079639	-0.431504	0.131004
H151	H	0.133200	-0.496516	0.165023
C152	C	-0.589209	-0.736956	0.000267
C153	C	-0.647622	-0.706084	-0.052507
C154	C	-0.680924	-0.642581	-0.034187
H155	H	-0.622638	-0.745118	0.042841
H156	H	-0.538741	-0.706652	0.005909
H157	H	-0.698083	-0.736381	-0.058140
H158	H	-0.614214	-0.697904	-0.095086
H159	H	-0.630455	-0.612277	-0.028546
H160	H	-0.714348	-0.650749	0.008388
H161	H	-0.720553	-0.621623	-0.069994
H162	H	0.000231	-0.709599	0.102967
H163	H	-0.418889	-0.905614	-0.160589
H164	H	0.000182	-0.624756	0.018124
H165	H	0.000269	-0.939303	0.133736
H166	H	-0.097437	-0.731244	0.461445
C167	C	-0.586881	-0.861617	0.037033
C168	C	-0.637668	-0.830112	0.086560
C169	C	-0.668828	-0.881433	0.138794
H170	H	-0.625068	-0.893857	0.016831
H171	H	-0.535372	-0.885556	0.059083
H172	H	-0.689170	-0.806185	0.064513
H173	H	-0.599500	-0.797877	0.106780
H174	H	-0.617319	-0.905372	0.160844
H175	H	-0.707012	-0.913670	0.118586
H176	H	-0.703283	-0.860064	0.172408
C177	C	0.000299	-0.947934	0.724073
C178	C	0.000276	-1.004064	0.684269
C179	C	0.000234	-1.066927	0.728847
H180	H	0.053881	-0.950265	0.752695
H181	H	-0.053311	-0.950175	0.752683
H182	H	0.053880	-1.001825	0.655671
H183	H	-0.053302	-1.001757	0.655648
H184	H	-0.053375	-1.069167	0.757457
H185	H	0.053817	-1.069250	0.757467
H186	H	0.000210	-1.105018	0.701847
H187	H	0.000248	-0.593987	-0.211580
H188	H	0.000293	-0.937375	0.265162
H189	H	0.000265	-0.462561	-0.209652
C190	C	0.000463	-0.683770	0.688773
C191	C	0.079529	-0.645861	0.666038
C192	C	0.079729	-0.581996	0.693740
H193	H	-0.053074	-0.657840	0.673441
H194	H	0.000521	-0.692095	0.738323
H195	H	0.079463	-0.637534	0.616498
H196	H	0.133080	-0.671770	0.681369
H197	H	0.079787	-0.590321	0.743291
H198	H	0.026188	-0.556073	0.678406
H199	H	0.133378	-0.556270	0.678324
C200	C	0.112703	-0.922518	0.345618
C201	C	0.159899	-0.964292	0.398524
C202	C	0.213879	-1.013360	0.368926
H203	H	0.073990	-0.951039	0.321122
H204	H	0.156033	-0.898940	0.314154
H205	H	0.116574	-0.987869	0.429976
H206	H	0.198629	-0.935791	0.423024
H207	H	0.257210	-0.989782	0.337463
H208	H	0.175160	-1.041877	0.344431
H209	H	0.245915	-1.041706	0.404818
H210	H	-0.097407	-0.374096	-0.181443
H211	H	0.000336	-0.147101	-0.205028
C212	C	0.000445	-0.686033	0.537685
C213	C	0.079519	-0.682950	0.495603
C214	C	0.079711	-0.620193	0.450864
H215	H	-0.053087	-0.683738	0.509011
H216	H	0.000486	-0.647845	0.564561
H217	H	0.079469	-0.721128	0.468730
H218	H	0.133064	-0.685233	0.524258
H219	H	0.079752	-0.582004	0.477740
H220	H	0.026176	-0.617904	0.422195
H221	H	0.133366	-0.618090	0.422310
C222	C	-0.112169	-0.720114	0.318542
C223	C	-0.159352	-0.676955	0.360089
C224	C	-0.213327	-0.628935	0.317506
H225	H	-0.073453	-0.692422	0.286512
H226	H	-0.155506	-0.744512	0.293512
H227	H	-0.116020	-0.652559	0.385108
H228	H	-0.198084	-0.704627	0.392118
H229	H	-0.256665	-0.653333	0.292475
H230	H	-0.174605	-0.601248	0.285477
H231	H	-0.245354	-0.599650	0.345689
H232	H	0.000360	-0.015674	-0.203099
H233	H	0.097998	-0.907250	0.484999
