data_functionalizedCrystal
_audit_creation_method	'MofGen! by Chris Wilmer'
_symmetry_space_group_name_H-M	'P1'
_symmetry_Int_Tables_number	1
_symmetry_cell_setting	triclinic
loop_
_symmetry_equiv_pos_as_xyz
  x,y,z
_cell_length_a	14.519731
_cell_length_b	14.044190
_cell_length_c	13.101039
_cell_angle_alpha	93.663707
_cell_angle_beta	86.635759
_cell_angle_gamma	88.440315
loop_
_atom_site_label
_atom_site_type_symbol
_atom_site_fract_x
_atom_site_fract_y
_atom_site_fract_z
O1	O	1.238534	0.119144	-0.085228
O2	O	0.971239	0.133757	-0.085231
O3	O	1.100870	-0.011540	-0.085210
O4	O	1.108903	0.264441	-0.085250
O5	O	1.091571	-0.001098	0.085219
O6	O	0.961940	0.144200	0.085197
O7	O	1.229235	0.129586	0.085200
Zn8	Zn	1.094111	0.138551	0.112258
Zn9	Zn	1.106363	0.124793	-0.112289
O10	O	1.099604	0.274884	0.085178
C11	C	0.932175	0.138294	-0.000017
C12	C	0.829629	0.136242	-0.000017
C13	C	0.746350	0.134574	-0.000021
C14	C	0.641874	0.132491	-0.000021
C15	C	0.558601	0.130838	-0.000021
C16	C	0.454118	0.128754	-0.000023
C17	C	1.092707	-0.041639	0.000007
C18	C	1.082227	-0.146883	0.000016
C19	C	1.137394	-0.397075	-0.000023
C20	C	1.063084	-0.339577	-0.000017
C21	C	1.073738	-0.232353	0.000001
C22	C	1.126742	-0.504309	-0.000042
C23	C	1.268299	0.125050	-0.000016
C24	C	1.370845	0.127101	-0.000023
C25	C	1.107767	0.304983	-0.000041
C26	C	1.118248	0.410226	-0.000057
N27	N	1.085755	0.147940	0.265505
N28	N	1.114725	0.115396	-0.265536
C29	C	1.074388	0.160722	0.474545
C30	C	1.126089	0.102617	0.525430
C31	C	1.119765	0.109729	0.641747
C32	C	1.080712	0.153611	0.358218
H33	H	0.991464	-0.370880	-0.000024
H34	H	1.209008	-0.365773	-0.000012
H35	H	1.175102	0.047530	0.481636
H36	H	1.025380	0.215807	0.518334
