data_functionalizedCrystal
_audit_creation_method	'MofGen! by Chris Wilmer'
_symmetry_space_group_name_H-M	'P1'
_symmetry_Int_Tables_number	1
_symmetry_cell_setting	triclinic
loop_
_symmetry_equiv_pos_as_xyz
  x,y,z
_cell_length_a	16.120530
_cell_length_b	12.827892
_cell_length_c	12.827885
_cell_angle_alpha	90.029786
_cell_angle_beta	87.081295
_cell_angle_gamma	92.888896
loop_
_atom_site_label
_atom_site_type_symbol
_atom_site_fract_x
_atom_site_fract_y
_atom_site_fract_z
Zn1	Zn	1.274619	0.497099	-0.671825
Zn2	Zn	1.774619	0.997099	-0.171825
Zn3	Zn	1.274534	0.671871	-0.497080
Zn4	Zn	1.774534	1.171871	0.002920
Zn5	Zn	1.135196	0.488277	-0.488241
Zn6	Zn	1.635196	0.988277	0.011759
Zn7	Zn	1.135185	0.662925	-0.662927
Zn8	Zn	1.635185	1.162925	-0.162927
O9	O	1.204884	0.580043	-0.580018
O10	O	1.704884	1.080043	-0.080018
O11	O	1.391274	0.527718	-0.656068
O12	O	1.891274	1.027718	-0.156068
O13	O	1.256020	0.647568	-0.349669
O14	O	1.756020	1.147568	0.150331
O15	O	1.153731	0.343213	-0.512619
O16	O	1.653731	0.843213	-0.012619
O17	O	1.391212	0.656122	-0.527683
O18	O	1.891212	1.156122	-0.027683
O19	O	1.256164	0.349695	-0.647497
O20	O	1.756164	0.849695	-0.147497
O21	O	1.153649	0.512683	-0.343176
O22	O	1.653649	1.012683	0.156824
O23	O	1.018528	0.504008	-0.503991
O24	O	1.518528	1.004008	-0.003991
O25	O	1.153712	0.640876	-0.810346
O26	O	1.653712	1.140876	-0.310346
O27	O	1.018520	0.632322	-0.632332
O28	O	1.518520	1.132322	-0.132332
O29	O	1.256154	0.519044	-0.816883
O30	O	1.756154	1.019044	-0.316883
O31	O	1.256009	0.816917	-0.519055
O32	O	1.756009	1.316917	-0.019055
O33	O	1.153630	0.810345	-0.640902
O34	O	1.653630	1.310345	-0.140902
C35	C	0.988274	0.566238	-0.566237
C36	C	1.488274	1.066238	-0.066237
C37	C	0.895607	0.560357	-0.560366
C38	C	1.395607	1.060357	-0.060366
C39	C	1.204831	0.851549	-0.579997
C40	C	1.704831	1.351549	-0.079997
C41	C	1.204885	0.967706	-0.580027
C42	C	1.704885	1.467706	-0.080027
C43	C	1.204959	0.307477	-0.580065
C44	C	1.704959	0.807477	-0.080065
C45	C	1.204991	0.191326	-0.580084
C46	C	1.704991	0.691326	-0.080084
C47	C	0.725944	0.549596	-0.549657
C48	C	1.225944	1.049596	-0.049657
C49	C	0.684664	0.610566	-0.610456
C50	C	1.184664	1.110566	-0.110456
C51	C	0.590258	0.604579	-0.604497
C52	C	1.090258	1.104579	-0.104497
C53	C	0.820359	0.555582	-0.555614
C54	C	1.320359	1.055582	-0.055614
C55	C	1.422339	0.593902	-0.593854
C56	C	1.922339	1.093902	-0.093854
C57	C	1.515006	0.599808	-0.599750
C58	C	2.015006	1.099808	-0.099750
C59	C	1.204941	0.579946	-0.852592
C60	C	1.704941	1.079946	-0.352592
C61	C	1.204966	0.579905	-0.968747
C62	C	1.704966	1.079905	-0.468747
C63	C	1.255606	1.022712	-0.519808
C64	C	1.755606	1.522712	-0.019808
C65	C	1.255663	1.142766	-0.519838
C66	C	1.755663	1.642766	-0.019838
C67	C	1.154325	0.513148	-1.017320
C68	C	1.654325	1.013148	-0.517320
C69	C	1.154350	0.513104	-1.137372
C70	C	1.654350	1.013104	-0.637372
C71	C	1.204874	0.580067	-0.308508
C72	C	1.704874	1.080067	0.191492
C73	C	1.205011	0.579824	-0.192364
C74	C	1.705011	1.079824	0.307636
H75	H	0.720225	0.667260	-0.666985
H76	H	1.220225	1.167260	-0.166985
O77	O	1.313203	1.205396	-0.451559
O78	O	1.813203	1.705396	0.048441
H79	H	1.304229	1.289863	-0.462312
H80	H	1.804229	1.789863	0.037688
H81	H	1.161561	1.144042	-0.631639
H82	H	1.661561	1.644042	-0.131639
O83	O	0.678833	0.474521	-0.474775
O84	O	1.178833	0.974521	0.025225
H85	H	0.695488	0.393551	-0.493854
H86	H	1.195488	0.893551	0.006146
H87	H	1.248337	0.637026	-1.016040
H88	H	1.748337	1.137026	-0.516040
H89	H	1.298991	0.980928	-0.468233
H90	H	1.798991	1.480928	0.031767
H91	H	1.161507	1.009493	-0.631610
H92	H	1.661507	1.509493	-0.131610
H93	H	1.110949	0.456031	-0.970026
H94	H	1.610949	0.956031	-0.470026
O95	O	1.096930	0.437380	-1.192712
O96	O	1.596930	0.937380	-0.692712
H97	H	1.054540	0.481466	-1.239739
H98	H	1.554540	0.981466	-0.739739
O99	O	1.262452	0.655538	-1.137042
O100	O	1.762452	1.155538	-0.637042
H101	H	1.225080	0.706306	-1.084933
H102	H	1.725080	1.206306	-0.584933
