data_functionalizedCrystal
_audit_creation_method	'MofGen! by Chris Wilmer'
_symmetry_space_group_name_H-M	'P1'
_symmetry_Int_Tables_number	1
_symmetry_cell_setting	triclinic
loop_
_symmetry_equiv_pos_as_xyz
  x,y,z
_cell_length_a	12.759401
_cell_length_b	19.120786
_cell_length_c	19.121324
_cell_angle_alpha	84.990628
_cell_angle_beta	92.426462
_cell_angle_gamma	92.464298
loop_
_atom_site_label
_atom_site_type_symbol
_atom_site_fract_x
_atom_site_fract_y
_atom_site_fract_z
Zn1	Zn	1.564724	-0.263210	-0.385825
Zn2	Zn	2.064724	0.236790	0.114175
Zn3	Zn	1.564597	-0.385901	-0.263136
Zn4	Zn	2.064597	0.114099	0.236864
Zn5	Zn	1.396223	-0.268245	-0.268180
Zn6	Zn	1.896223	0.231755	0.231820
Zn7	Zn	1.381798	-0.380845	-0.380769
Zn8	Zn	1.881798	0.119155	0.119231
O9	O	1.476836	-0.324550	-0.324477
O10	O	1.976836	0.175450	0.175523
O11	O	1.711728	-0.279494	-0.369555
O12	O	2.211728	0.220506	0.130445
O13	O	1.548245	-0.374517	-0.165340
O14	O	2.048245	0.125483	0.334660
O15	O	1.424665	-0.169106	-0.288012
O16	O	1.924665	0.330894	0.211988
O17	O	1.711634	-0.369635	-0.279416
O18	O	2.211634	0.130365	0.220584
O19	O	1.548463	-0.165408	-0.374446
O20	O	2.048463	0.334592	0.125554
O21	O	1.424542	-0.288075	-0.169046
O22	O	1.924542	0.211925	0.330954
O23	O	1.247289	-0.283172	-0.283110
O24	O	1.747289	0.216828	0.216890
O25	O	1.400080	-0.361018	-0.479904
O26	O	1.900080	0.138982	0.020096
O27	O	1.236692	-0.365900	-0.365828
O28	O	1.736692	0.134100	0.134172
O29	O	1.534475	-0.274592	-0.483619
O30	O	2.034475	0.225408	0.016381
O31	O	1.534258	-0.483701	-0.274513
O32	O	2.034258	0.016299	0.225487
O33	O	1.399957	-0.479986	-0.360938
O34	O	1.899957	0.020014	0.139062
C35	C	1.203870	-0.324534	-0.324468
C36	C	1.703870	0.175466	0.175532
C37	C	1.087092	-0.324544	-0.324480
C38	C	1.587092	0.175456	0.175520
C39	C	1.032262	-0.277689	-0.371482
C40	C	1.532262	0.222311	0.128518
C41	C	0.922537	-0.277703	-0.371486
C42	C	1.422537	0.222297	0.128514
C43	C	0.922480	-0.371430	-0.277484
C44	C	1.422480	0.128570	0.222516
C45	C	1.032204	-0.371413	-0.277477
C46	C	1.532204	0.128587	0.222523
C47	C	1.032294	-0.223578	-0.425755
C48	C	1.532294	0.276422	0.074245
C49	C	0.922569	-0.223592	-0.425759
C50	C	1.422569	0.276408	0.074241
C51	C	1.465556	-0.507375	-0.316645
C52	C	1.965556	-0.007375	0.183355
C53	C	1.460825	-0.585588	-0.313318
C54	C	1.960825	-0.085588	0.186682
C55	C	1.523004	-0.620344	-0.356792
C56	C	2.023004	-0.120344	0.143208
C57	C	1.518555	-0.693833	-0.353667
C58	C	2.018555	-0.193833	0.146333
C59	C	1.451930	-0.732564	-0.307063
C60	C	1.951930	-0.232564	0.192937
C61	C	1.389744	-0.697802	-0.263587
C62	C	1.889744	-0.197802	0.236413
C63	C	1.394188	-0.624315	-0.266716
C64	C	1.894188	-0.124315	0.233284
C65	C	1.435283	-0.954548	-0.295366
C66	C	1.935283	-0.454548	0.204634
C67	C	1.430845	-1.028041	-0.292238
C68	C	1.930845	-0.528041	0.207762
C69	C	1.559655	-1.024066	-0.382320
C70	C	2.059655	-0.524066	0.117680
C71	C	1.564099	-0.950577	-0.385442
C72	C	2.064099	-0.450577	0.114558
C73	C	1.501908	-0.915822	-0.341968
C74	C	2.001908	-0.415822	0.158032
C75	C	1.447383	-0.807681	-0.303866
C76	C	1.947383	-0.307681	0.196134
C77	C	1.506451	-0.840706	-0.345169
C78	C	2.006451	-0.340706	0.154831
C79	C	1.750867	-0.324567	-0.324487
C80	C	2.250867	0.175433	0.175513
C81	C	1.867643	-0.324574	-0.324491
C82	C	2.367643	0.175426	0.175509
C83	C	1.465683	-0.316679	-0.508006
C84	C	1.965683	0.183321	-0.008006
C85	C	1.460931	-0.313325	-0.586215
C86	C	1.960931	0.186675	-0.086215
C87	C	1.488187	-0.141011	-0.332356
C88	C	1.988187	0.358989	0.167644
C89	C	1.493025	-0.062797	-0.335713
C90	C	1.993025	0.437203	0.164287
C91	C	1.523099	-0.356753	-0.621031
C92	C	2.023099	0.143247	-0.121031
C93	C	1.518634	-0.353592	-0.694518
C94	C	2.018634	0.146408	-0.194518
C95	C	1.451994	-0.307008	-0.733186
C96	C	1.951994	0.192992	-0.233186
C97	C	1.389824	-0.263576	-0.698365
C98	C	1.889824	0.236424	-0.198365
C99	C	1.394295	-0.266733	-0.624880
C100	C	1.894295	0.233267	-0.124880
C101	C	1.435277	-0.295221	-0.955158
C102	C	1.935277	0.204779	-0.455158
C103	C	1.430808	-0.292068	-1.028648
C104	C	1.930808	0.207932	-0.528648
C105	C	1.559620	-0.382085	-1.024796
C106	C	2.059620	0.117915	-0.524796
C107	C	1.564080	-0.385241	-0.951310
C108	C	2.064080	0.114759	-0.451310
C109	C	1.501914	-0.341806	-0.916495
C110	C	2.001914	0.158194	-0.416495
C111	C	1.447426	-0.303778	-0.808300
C112	C	1.947426	0.196222	-0.308300
C113	C	1.506489	-0.345032	-0.841382
C114	C	2.006489	0.154968	-0.341382
C115	C	1.488008	-0.332340	-0.141664
C116	C	1.988008	0.167660	0.358336
C117	C	1.492976	-0.335496	-0.063464
C118	C	1.992976	0.164504	0.436536
H119	H	0.892894	-0.172626	-0.408552
H120	H	1.392894	0.327374	0.091448
H121	H	1.569257	-0.388956	-0.722862
H122	H	2.069257	0.111044	-0.222862
Br123	Br	0.847984	-0.435034	-0.213696
Br124	Br	1.347984	0.064966	0.286304
Br125	Br	1.081805	-0.252550	-0.510572
Br126	Br	1.581805	0.247450	-0.010572
Br127	Br	1.613436	-0.567788	-0.420038
Br128	Br	2.113436	-0.067788	0.079962
Br129	Br	1.299309	-0.750364	-0.200347
Br130	Br	1.799309	-0.250364	0.299653
Br131	Br	1.602926	-0.740999	-0.412683
Br132	Br	2.102926	-0.240999	0.087317
H133	H	1.618328	-0.423186	-0.919830
H134	H	2.118328	0.076814	-0.419830
H135	H	1.393140	-0.839224	-0.265919
H136	H	1.893140	-0.339224	0.234081
H137	H	1.560692	-0.809169	-0.383116
H138	H	2.060692	-0.309169	0.116884
Br139	Br	1.106617	-0.434980	-0.213664
Br140	Br	1.606617	0.065020	0.286336
H141	H	1.618350	-0.919044	-0.423390
H142	H	2.118350	-0.419044	0.076610
Br143	Br	1.350907	-0.236274	-0.907919
Br144	Br	1.850907	0.263726	-0.407919
H145	H	1.610286	-1.052372	-0.417714
H146	H	2.110286	-0.552372	0.082286
H147	H	1.610234	-0.417445	-1.053150
H148	H	2.110234	0.082555	-0.553150
H149	H	1.393166	-0.265851	-0.839792
H150	H	1.893166	0.234149	-0.339792
Br151	Br	1.309929	-0.207789	-0.577628
Br152	Br	1.809929	0.292211	-0.077628
H153	H	0.888590	-0.235941	-0.479604
H154	H	1.388590	0.264059	0.020396
H155	H	1.066293	-0.169674	-0.413584
H156	H	1.566293	0.330326	0.086416
Br157	Br	1.340428	-1.080605	-0.228981
Br158	Br	1.840428	-0.580605	0.271019
Br159	Br	1.613533	-0.419983	-0.568560
Br160	Br	2.113533	0.080017	-0.068560
H161	H	1.376546	-0.254128	-1.060130
H162	H	1.876546	0.245872	-0.560130
H163	H	1.384647	-0.926256	-0.259966
H164	H	1.884647	-0.426256	0.240034
H165	H	1.343554	-0.596017	-0.231315
H166	H	1.843554	-0.096017	0.268685
H167	H	1.335570	-0.225643	-0.729854
H168	H	1.835570	0.274357	-0.229854
Br169	Br	1.596932	-0.408247	-0.788903
Br170	Br	2.096932	0.091753	-0.288903
