data_functionalizedCrystal
_audit_creation_method	'MofGen! by Chris Wilmer'
_symmetry_space_group_name_H-M	'P1'
_symmetry_Int_Tables_number	1
_symmetry_cell_setting	triclinic
loop_
_symmetry_equiv_pos_as_xyz
  x,y,z
_cell_length_a	19.805407
_cell_length_b	19.805404
_cell_length_c	19.805399
_cell_angle_alpha	89.970203
_cell_angle_beta	89.973922
_cell_angle_gamma	90.027967
loop_
_atom_site_label
_atom_site_type_symbol
_atom_site_fract_x
_atom_site_fract_y
_atom_site_fract_z
Zn1	Zn	-1.034722	0.269504	0.382827
Zn2	Zn	-0.534722	0.769504	0.882827
Zn3	Zn	-1.034631	0.382692	0.269634
Zn4	Zn	-0.534631	0.882692	0.769634
Zn5	Zn	-0.921537	0.269520	0.269638
Zn6	Zn	-0.421537	0.769520	0.769638
Zn7	Zn	-0.921494	0.382653	0.382768
Zn8	Zn	-0.421494	0.882653	0.882768
O9	O	-0.978096	0.326092	0.326217
O10	O	-0.478096	0.826092	0.826217
O11	O	-1.129426	0.284528	0.367834
O12	O	-0.629426	0.784528	0.867834
O13	O	-1.019608	0.367703	0.174918
O14	O	-0.519608	0.867703	0.674918
O15	O	-0.936607	0.174801	0.284679
O16	O	-0.436607	0.674801	0.784679
O17	O	-1.129360	0.367687	0.284672
O18	O	-0.629360	0.867687	0.784672
O19	O	-1.019763	0.174789	0.367838
O20	O	-0.519763	0.674789	0.867838
O21	O	-0.936518	0.284555	0.174921
O22	O	-0.436518	0.784555	0.674921
O23	O	-0.826814	0.284518	0.284623
O24	O	-0.326814	0.784518	0.784623
O25	O	-0.936534	0.367621	0.477492
O26	O	-0.436534	0.867621	0.977492
O27	O	-0.826783	0.367637	0.367738
O28	O	-0.326783	0.867637	0.867738
O29	O	-1.019722	0.284490	0.477535
O30	O	-0.519722	0.784490	0.977535
O31	O	-1.019567	0.477404	0.284615
O32	O	-0.519567	0.977404	0.784615
O33	O	-0.936446	0.477375	0.367734
O34	O	-0.436446	0.977375	0.867734
C35	C	-0.802240	0.326075	0.326175
C36	C	-0.302240	0.826075	0.826175
C37	C	-0.727008	0.326084	0.326173
C38	C	-0.227008	0.826084	0.826173
C39	C	-0.978011	0.501948	0.326182
C40	C	-0.478011	1.001948	0.826182
C41	C	-0.978036	0.577180	0.326190
C42	C	-0.478036	1.077180	0.826190
C43	C	-0.978134	0.326050	0.502760
C44	C	-0.478134	0.826050	1.002760
C45	C	-0.978150	0.326032	0.577992
C46	C	-0.478150	0.826032	1.077992
C47	C	-0.265218	0.369446	0.369447
C48	C	0.234782	0.869446	0.869447
C49	C	-0.335907	0.369445	0.369435
C50	C	0.164093	0.869445	0.869435
C51	C	-0.371246	0.326102	0.326223
C52	C	0.128754	0.826102	0.826223
C53	C	-0.335893	0.282761	0.283016
C54	C	0.164107	0.782761	0.783016
C55	C	-0.265206	0.282765	0.283025
C56	C	0.234794	0.782765	0.783025
C57	C	-0.620967	0.282743	0.282978
C58	C	-0.120967	0.782743	0.782978
C59	C	-0.691659	0.282741	0.282973
C60	C	-0.191659	0.782741	0.782973
C61	C	-0.691667	0.369424	0.369388
C62	C	-0.191667	0.869424	0.869388
C63	C	-0.620980	0.369428	0.369397
C64	C	-0.120980	0.869428	0.869397
C65	C	-0.585634	0.326090	0.326187
C66	C	-0.085634	0.826090	0.826187
C67	C	-0.508985	0.326091	0.326200
C68	C	-0.008985	0.826091	0.826200
C69	C	-0.447893	0.326096	0.326214
C70	C	0.052107	0.826096	0.826214
C71	C	-0.154639	0.326107	0.326251
C72	C	0.345361	0.826107	0.826251
C73	C	-0.229871	0.326107	0.326244
C74	C	0.270129	0.826107	0.826244
C75	C	-0.978200	0.149550	0.326266
C76	C	-0.478200	0.649550	0.826266
C77	C	-0.978244	0.074318	0.326287
C78	C	-0.478244	0.574318	0.826287
C79	C	-1.021488	1.038906	0.369613
C80	C	-0.521488	1.538906	0.869613
C81	C	-1.021461	0.968218	0.369597
C82	C	-0.521461	1.468218	0.869597
C83	C	-0.978187	0.932942	0.326259
C84	C	-0.478187	1.432942	0.826259
C85	C	-0.934941	0.968358	0.282928
C86	C	-0.434941	1.468358	0.782928
C87	C	-0.934972	1.039045	0.282941
C88	C	-0.434972	1.539045	0.782941
C89	C	-0.934818	0.683285	0.282875
C90	C	-0.434818	1.183285	0.782875
C91	C	-0.934789	0.612593	0.282868
C92	C	-0.434789	1.112593	0.782868
C93	C	-1.021306	0.612457	0.369532
C94	C	-0.521306	1.112457	0.869532
C95	C	-1.021337	0.683145	0.369545
C96	C	-0.521337	1.183145	0.869545
C97	C	-0.978094	0.718555	0.326212
C98	C	-0.478094	1.218555	0.826212
C99	C	-0.978125	0.795203	0.326228
C100	C	-0.478125	1.295203	0.826228
C101	C	-0.978152	0.856295	0.326245
C102	C	-0.478152	1.356295	0.826245
C103	C	-0.978097	0.326086	0.150361
C104	C	-0.478097	0.826086	0.650361
C105	C	-0.978212	0.325913	0.075129
C106	C	-0.478212	0.825913	0.575129
C107	C	-1.021467	0.282743	0.613359
C108	C	-0.521467	0.782743	1.113359
C109	C	-1.021474	0.282724	0.684048
C110	C	-0.521474	0.782724	1.184048
C111	C	-0.978167	0.325996	0.719367
C112	C	-0.478167	0.825996	1.219367
C113	C	-0.934845	0.369286	0.683995
C114	C	-0.434845	0.869286	1.183995
C115	C	-0.934835	0.369302	0.613307
C116	C	-0.434835	0.869302	1.113307
C117	C	-0.934883	0.369223	0.969068
C118	C	-0.434883	0.869223	1.469068
C119	C	-0.934898	0.369206	1.039760
C120	C	-0.434898	0.869206	1.539760
C121	C	-1.021522	0.282645	1.039808
C122	C	-0.521522	0.782645	1.539808
C123	C	-1.021512	0.282661	0.969121
C124	C	-0.521512	0.782661	1.469121
C125	C	-0.978188	0.325948	0.933755
C126	C	-0.478188	0.825948	1.433755
C127	C	-0.978180	0.325968	0.857106
C128	C	-0.478180	0.825968	1.357106
C129	C	-0.978178	0.325980	0.796014
C130	C	-0.478178	0.825980	1.296014
H131	H	-0.364684	0.404738	0.404614
H132	H	0.135316	0.904738	0.904614
O133	O	-0.892857	0.411335	1.073995
O134	O	-0.392857	0.911335	1.573995
C135	C	-0.907610	0.478802	1.056718
C136	C	-0.407610	0.978802	1.556718
H137	H	-0.933618	0.480222	1.005401
H138	H	-0.433618	0.980222	1.505401
H139	H	-0.942401	0.501597	1.096504
H140	H	-0.442401	1.001597	1.596504
C141	C	-0.809654	0.518045	1.116453
C142	C	-0.309654	1.018045	1.616453
C143	C	-0.841592	0.519789	1.053421
C144	C	-0.341592	1.019789	1.553421
H145	H	-0.768931	0.543330	1.114422
H146	H	-0.268931	1.043330	1.614422
H147	H	-0.799715	0.472592	1.128095
H148	H	-0.299715	0.972592	1.628095
H149	H	-0.838653	0.537040	1.149601
H150	H	-0.338653	1.037040	1.649601
H151	H	-0.812596	0.500787	1.020276
H152	H	-0.312596	1.000787	1.520276
H153	H	-0.851524	0.565241	1.041773
H154	H	-0.351524	1.065241	1.541773
H155	H	-0.236427	0.247472	0.247847
H156	H	0.263573	0.747472	0.747847
O157	O	-1.063579	0.240765	0.718483
O158	O	-0.563579	0.740765	1.218483
C159	C	-1.107287	0.279291	0.759369
C160	C	-0.607287	0.779291	1.259369
H161	H	-1.083389	0.330583	0.769934
H162	H	-0.583389	0.830583	1.269934
H163	H	-1.157443	0.286735	0.732149
H164	H	-0.657443	0.786735	1.232149
C165	C	-1.148909	0.179037	0.813556
C166	C	-0.648909	0.679037	1.313556
C167	C	-1.119555	0.242032	0.826536
C168	C	-0.619555	0.742032	1.326536
H169	H	-1.156480	0.156053	0.854986
H170	H	-0.656480	0.656053	1.354986
H171	H	-1.119465	0.153081	0.786009
H172	H	-0.619465	0.653081	1.286009
H173	H	-1.190703	0.185249	0.790871
H174	H	-0.690703	0.685249	1.290871
H175	H	-1.077759	0.235819	0.849213
H176	H	-0.577759	0.735819	1.349213
H177	H	-1.148993	0.267987	0.854089
H178	H	-0.648993	0.767987	1.354089
H179	H	-1.056673	0.939386	0.404876
H180	H	-0.556673	1.439386	0.904876
O181	O	-0.726063	0.240733	0.240957
O182	O	-0.226063	0.740733	0.740957
C183	C	-0.766899	0.279217	0.197163
C184	C	-0.266899	0.779217	0.697163
H185	H	-0.777476	0.330539	0.220947
H186	H	-0.277476	0.830539	0.720947
H187	H	-0.739628	0.286595	0.146992
H188	H	-0.239628	0.786595	0.646992
C189	C	-0.821066	0.178927	0.155756
C190	C	-0.321066	0.678927	0.655756
C191	C	-0.834061	0.241959	0.184971
C192	C	-0.334061	0.741959	0.684971
H193	H	-0.862494	0.155944	0.148233
H194	H	-0.362494	0.655944	0.648233
H195	H	-0.793553	0.152999	0.185259
H196	H	-0.293553	0.652999	0.685259
H197	H	-0.798339	0.185084	0.113950
H198	H	-0.298339	0.685084	0.613950
H199	H	-0.856780	0.235801	0.226780
H200	H	-0.356780	0.735801	0.726780
H201	H	-0.861580	0.267886	0.155474
H202	H	-0.361580	0.767886	0.655474
H203	H	-0.899581	0.404517	0.712757
H204	H	-0.399581	0.904517	1.212757
O205	O	-0.892893	0.411309	0.934652
O206	O	-0.392893	0.911309	1.434652
C207	C	-0.931387	0.455057	0.893772
C208	C	-0.431387	0.955057	1.393772
H209	H	-0.982692	0.431196	0.883190
H210	H	-0.482692	0.931196	1.383190
H211	H	-0.938801	0.505207	0.921007
H212	H	-0.438801	1.005207	1.421007
C213	C	-0.831099	0.496637	0.839618
C214	C	-0.331099	0.996637	1.339618
C215	C	-0.894111	0.467328	0.826617
C216	C	-0.394111	0.967328	1.326617
H217	H	-0.808105	0.504210	0.798195
H218	H	-0.308105	1.004210	1.298195
H219	H	-0.805165	0.467165	0.867161
H220	H	-0.305165	0.967165	1.367161
H221	H	-0.837287	0.538426	0.862316
H222	H	-0.337287	1.038426	1.362316
H223	H	-0.887922	0.425537	0.803927
H224	H	-0.387922	0.925537	1.303927
H225	H	-0.920043	0.496794	0.799069
H226	H	-0.420043	0.996794	1.299069
O227	O	-0.725929	0.411623	0.411325
O228	O	-0.225929	0.911623	0.911325
C229	C	-0.708628	0.479065	0.396405
C230	C	-0.208628	0.979065	0.896405
H231	H	-0.657289	0.480436	0.370389
H232	H	-0.157289	0.980436	0.870389
H233	H	-0.748381	0.501819	0.361563
H234	H	-0.248381	1.001819	0.861563
C235	C	-0.768434	0.518462	0.494272
C236	C	-0.268434	1.018462	0.994272
C237	C	-0.705376	0.520146	0.462323
C238	C	-0.205376	1.020146	0.962323
H239	H	-0.766431	0.543804	0.534932
H240	H	-0.266431	1.043804	1.034932
H241	H	-0.780093	0.473025	0.504323
H242	H	-0.280093	0.973025	1.004323
H243	H	-0.801555	0.537423	0.465229
H244	H	-0.301555	1.037423	0.965229
H245	H	-0.672258	0.501178	0.491362
H246	H	-0.172258	1.001178	0.991362
H247	H	-0.693712	0.565581	0.452279
H248	H	-0.193712	1.065581	0.952279
H249	H	-0.236450	0.404738	0.404639
H250	H	0.263550	0.904738	0.904639
O251	O	-1.063583	1.073066	0.411740
O252	O	-0.563583	1.573066	0.911740
C253	C	-1.101731	1.026649	0.449990
C254	C	-0.601731	1.526649	0.949990
H255	H	-1.104075	0.976280	0.422257
H256	H	-0.604075	1.476280	0.922257
H257	H	-1.076904	1.019113	0.501364
H258	H	-0.576904	1.519113	1.001364
C259	C	-1.170892	1.116029	0.493901
C260	C	-0.670892	1.616029	0.993901
C261	C	-1.173776	1.054167	0.459835
C262	C	-0.673776	1.554167	0.959835
H263	H	-1.215333	1.133004	0.499978
H264	H	-0.715333	1.633004	0.999978
H265	H	-1.145190	1.147302	0.468133
H266	H	-0.645190	1.647302	0.968133
H267	H	-1.150200	1.109741	0.536710
H268	H	-0.650200	1.609741	1.036710
H269	H	-1.194460	1.060458	0.417025
H270	H	-0.694460	1.560458	0.917025
H271	H	-1.199484	1.022896	0.485596
H272	H	-0.699484	1.522896	0.985596
H273	H	-0.592196	0.247457	0.247791
H274	H	-0.092196	0.747457	0.747791
H275	H	-0.899759	1.067876	0.247660
H276	H	-0.399759	1.567876	0.747660
H277	H	-0.899549	0.583873	0.247574
H278	H	-0.399549	1.083873	0.747574
H279	H	-0.592210	0.404720	0.404587
H280	H	-0.092210	0.904720	0.904587
H281	H	-0.364672	0.247473	0.247829
H282	H	0.135328	0.747473	0.747829
O283	O	-1.063438	0.717306	0.411665
O284	O	-0.563438	1.217306	0.911665
C285	C	-1.101590	0.670892	0.449914
C286	C	-0.601590	1.170892	0.949914
H287	H	-1.103928	0.620520	0.422186
H288	H	-0.603928	1.120520	0.922186
H289	H	-1.076771	0.663363	0.501293
H290	H	-0.576771	1.163363	1.001293
C291	C	-1.170762	0.760275	0.493804
C292	C	-0.670762	1.260275	0.993804
C293	C	-1.173638	0.698409	0.459744
C294	C	-0.673638	1.198409	0.959744
H295	H	-1.215204	0.777250	0.499871
H296	H	-0.715204	1.277250	0.999871
H297	H	-1.145057	0.791546	0.468036
H298	H	-0.645057	1.291546	0.968036
H299	H	-1.150077	0.753993	0.536616
H300	H	-0.650077	1.253993	1.036616
H301	H	-1.194315	0.704694	0.416930
H302	H	-0.694315	1.204694	0.916930
H303	H	-1.199348	0.667140	0.485505
H304	H	-0.699348	1.167140	0.985505
O305	O	-1.063297	0.577954	0.411558
O306	O	-0.563297	1.077954	0.911558
C307	C	-1.053984	0.508000	0.402268
C308	C	-0.553984	1.008000	0.902268
H309	H	-1.031848	0.498400	0.350007
H310	H	-0.531848	0.998400	0.850007
H311	H	-1.017906	0.487944	0.442372
H312	H	-0.517906	0.987944	0.942372
C313	C	-1.149639	0.483436	0.472729
C314	C	-0.649639	0.983436	0.972729
C315	C	-1.122456	0.471644	0.408538
C316	C	-0.622456	0.971644	0.908538
H317	H	-1.191875	0.461009	0.476599
H318	H	-0.691875	0.961009	0.976599
H319	H	-1.155912	0.530565	0.478990
H320	H	-0.655912	1.030565	0.978990
H321	H	-1.119568	0.466722	0.506142
H322	H	-0.619568	0.966722	1.006142
H323	H	-1.152523	0.488365	0.375127
H324	H	-0.652523	0.988365	0.875127
H325	H	-1.116189	0.424516	0.402271
H326	H	-0.616189	0.924516	0.902271
H327	H	-1.056735	0.247508	0.584607
H328	H	-0.556735	0.747508	1.084607
O329	O	-1.063539	0.240609	1.074269
O330	O	-0.563539	0.740609	1.574269
C331	C	-1.054274	0.249880	1.144233
C332	C	-0.554274	0.749880	1.644233
H333	H	-1.002027	0.272038	1.153867
H334	H	-0.502027	0.772038	1.653867
H335	H	-1.094402	0.285923	1.164297
H336	H	-0.594402	0.785923	1.664297
C337	C	-1.124694	0.154171	1.168710
C338	C	-0.624694	0.654171	1.668710
C339	C	-1.060521	0.181381	1.180543
C340	C	-0.560521	0.681381	1.680543
H341	H	-1.128551	0.111919	1.191109
H342	H	-0.628551	0.611919	1.691109
H343	H	-1.130938	0.147927	1.121574
H344	H	-0.630938	0.647927	1.621574
H345	H	-1.158128	0.184214	1.185431
H346	H	-0.658128	0.684214	1.685431
H347	H	-1.027090	0.151343	1.163815
H348	H	-0.527090	0.651343	1.663815
H349	H	-1.054272	0.187619	1.227677
H350	H	-0.554272	0.687619	1.727677
H351	H	-1.056779	0.247426	0.940368
H352	H	-0.556779	0.747426	1.440368
H353	H	-0.899607	0.712107	0.247591
H354	H	-0.399607	1.212107	0.747591
O355	O	-0.892927	0.933989	0.240892
O356	O	-0.392927	1.433989	0.740892
C357	C	-0.902182	0.864005	0.250159
C358	C	-0.402182	1.364005	0.750159
H359	H	-0.924313	0.854294	0.302416
H360	H	-0.424313	1.354294	0.802416
H361	H	-0.938241	0.843938	0.210047
H362	H	-0.438241	1.343938	0.710047
C363	C	-0.806503	0.839709	0.179695
C364	C	-0.306503	1.339709	0.679695
C365	C	-0.833680	0.827782	0.243880
C366	C	-0.333680	1.327782	0.743880
H367	H	-0.764249	0.817364	0.175819
H368	H	-0.264249	1.317364	0.675819
H369	H	-0.800269	0.886859	0.173449
H370	H	-0.300269	1.386859	0.673449
H371	H	-0.836559	0.822987	0.146275
H372	H	-0.336559	1.322987	0.646275
H373	H	-0.803628	0.844511	0.277298
H374	H	-0.303628	1.344511	0.777298
H375	H	-0.839907	0.780634	0.250132
H376	H	-0.339907	1.280634	0.750132
H377	H	-0.899555	0.404545	0.584512
H378	H	-0.399555	0.904545	1.084512
