data_functionalizedCrystal
_audit_creation_method	'MofGen! by Chris Wilmer'
_symmetry_space_group_name_H-M	'P1'
_symmetry_Int_Tables_number	1
_symmetry_cell_setting	triclinic
loop_
_symmetry_equiv_pos_as_xyz
  x,y,z
_cell_length_a	12.759401
_cell_length_b	16.120444
_cell_length_c	12.759393
_cell_angle_alpha	92.863624
_cell_angle_beta	89.981433
_cell_angle_gamma	92.925484
loop_
_atom_site_label
_atom_site_type_symbol
_atom_site_fract_x
_atom_site_fract_y
_atom_site_fract_z
Zn1	Zn	1.584963	-0.331879	-0.615155
Zn2	Zn	1.575911	-0.471317	-0.448370
Zn3	Zn	1.409262	-0.331920	-0.439496
Zn4	Zn	1.400311	-0.471250	-0.624007
O5	O	1.492612	-0.401591	-0.531757
O6	O	1.730782	-0.350387	-0.593039
O7	O	1.553762	-0.452871	-0.300175
O8	O	1.440103	-0.215249	-0.455380
O9	O	1.724132	-0.452831	-0.470503
O10	O	1.569190	-0.215219	-0.584435
O11	O	1.431326	-0.350456	-0.293655
O12	O	1.261054	-0.350391	-0.463963
O13	O	1.424848	-0.452717	-0.769851
O14	O	1.254478	-0.452757	-0.599522
O15	O	1.560511	-0.350322	-0.763347
O16	O	1.545083	-0.587974	-0.479087
O17	O	1.416071	-0.587925	-0.608126
C18	C	1.219646	-0.401572	-0.531741
C19	C	1.102868	-0.401584	-0.531761
C20	C	1.051456	-0.348341	-0.595676
C21	C	0.941731	-0.348357	-0.595683
C22	C	0.934840	-0.454865	-0.467858
C23	C	1.044563	-0.454844	-0.467846
C24	C	1.055433	-0.286852	-0.669478
C25	C	0.945708	-0.286868	-0.669485
C26	C	1.478652	-0.618199	-0.545553
C27	C	1.472776	-0.710865	-0.551490
C28	C	1.523350	-0.921811	-0.501184
C29	C	1.462068	-0.880521	-0.562341
C30	C	1.468028	-0.786116	-0.556302
C31	C	1.517392	-1.016225	-0.507222
C32	C	1.766644	-0.401612	-0.531774
C33	C	1.883420	-0.401620	-0.531781
C34	C	1.492691	-0.401507	-0.805785
C35	C	1.492724	-0.401472	-0.922560
C36	C	1.506654	-0.184138	-0.517930
C37	C	1.512639	-0.091472	-0.512038
C38	C	1.563373	-0.348149	-0.974036
C39	C	1.563400	-0.348119	-1.083759
C40	C	1.422126	-0.454741	-1.090518
C41	C	1.422095	-0.454766	-0.980797
C42	C	1.644940	-0.286594	-0.970135
C43	C	1.644967	-0.286564	-1.079857
C44	C	1.492597	-0.401615	-0.258791
C45	C	1.492782	-0.401416	-0.142002
H46	H	0.887355	-0.498228	-0.415821
C47	C	1.098828	-0.317621	-0.774530
C48	C	1.068151	-0.266024	-0.852854
C49	C	1.108117	-0.294337	-0.949638
H50	H	1.072324	-0.372924	-0.790624
H51	H	1.173263	-0.316510	-0.770961
H52	H	0.993732	-0.267144	-0.856424
H53	H	1.094654	-0.210719	-0.836795
H54	H	1.182552	-0.293226	-0.946070
H55	H	1.081610	-0.349640	-0.965721
H56	H	1.087317	-0.259329	-1.002791
C57	C	1.386265	-0.927872	-0.638371
C58	C	1.410402	-0.906699	-0.741017
C59	C	1.340604	-0.950313	-0.811079
H60	H	1.316521	-0.913747	-0.622179
H61	H	1.392304	-0.985951	-0.632471
H62	H	1.404353	-0.848633	-0.746914
H63	H	1.480133	-0.920826	-0.757242
H64	H	1.346643	-1.008393	-0.805178
H65	H	1.270864	-0.936185	-0.794877
H66	H	1.356977	-0.935960	-0.880732
C67	C	1.621362	-0.200465	-0.925159
C68	C	1.606971	-0.147753	-1.007340
C69	C	1.585235	-0.068411	-0.965949
H70	H	1.678378	-0.178917	-0.882458
H71	H	1.559345	-0.203947	-0.884048
H72	H	1.668981	-0.144268	-1.048434
H73	H	1.549953	-0.169274	-1.050048
H74	H	1.523218	-0.071893	-0.924837
H75	H	1.642254	-0.046872	-0.923248
H76	H	1.575459	-0.032638	-1.021701
C77	C	1.599160	-0.874264	-0.425348
C78	C	1.590037	-0.788725	-0.434336
C79	C	1.659842	-0.744889	-0.364482
H80	H	1.668919	-0.888316	-0.441590
H81	H	1.582924	-0.888493	-0.355615
H82	H	1.606280	-0.774502	-0.504054
H83	H	1.520293	-0.774648	-0.418085
H84	H	1.643606	-0.759117	-0.294748
H85	H	1.729596	-0.758948	-0.380730
H86	H	1.653655	-0.686846	-0.370564
H87	H	1.720727	-0.309742	-0.937576
H88	H	0.914848	-0.304243	-0.751930
C89	C	0.905761	-0.204978	-0.625613
C90	C	0.991143	-0.150712	-0.596531
C91	C	0.954384	-0.075267	-0.556123
H92	H	0.863224	-0.214718	-0.565922
H93	H	0.865457	-0.180862	-0.677636
H94	H	1.031431	-0.174822	-0.544512
H95	H	1.033689	-0.140947	-0.656205
H96	H	0.914079	-0.051151	-0.608145
H97	H	0.911846	-0.085015	-0.496435
H98	H	1.012309	-0.038435	-0.536394
H99	H	1.364619	-0.498130	-1.137948
C100	C	1.345493	-0.512788	-0.924976
C101	C	1.363044	-0.595277	-0.956880
C102	C	1.292500	-0.648749	-0.905472
H103	H	1.275658	-0.500673	-0.942149
H104	H	1.355585	-0.505229	-0.851282
H105	H	1.352944	-0.602832	-1.030557
H106	H	1.432865	-0.607417	-0.939706
H107	H	1.302591	-0.641190	-0.831778
H108	H	1.222669	-0.636627	-0.922649
H109	H	1.304405	-0.704724	-0.927104
H110	H	1.619789	-0.225217	-1.109992
H111	H	1.725228	-0.303858	-1.110739
H112	H	1.086420	-0.498191	-0.415790
H113	H	1.089344	-0.222257	-0.643703
