data_functionalizedCrystal
_audit_creation_method	'MofGen! by Chris Wilmer'
_symmetry_space_group_name_H-M	'P1'
_symmetry_Int_Tables_number	1
_symmetry_cell_setting	triclinic
loop_
_symmetry_equiv_pos_as_xyz
  x,y,z
_cell_length_a	13.033293
_cell_length_b	12.645330
_cell_length_c	13.032268
_cell_angle_alpha	97.149830
_cell_angle_beta	89.079182
_cell_angle_gamma	97.182513
loop_
_atom_site_label
_atom_site_type_symbol
_atom_site_fract_x
_atom_site_fract_y
_atom_site_fract_z
Zn1	Zn	1.498489	-0.329810	-0.781490
Zn2	Zn	1.520245	-0.482152	-0.609521
Zn3	Zn	1.348349	-0.324212	-0.587666
Zn4	Zn	1.326499	-0.526344	-0.759562
O5	O	1.423396	-0.415630	-0.684560
O6	O	1.645293	-0.333867	-0.777002
O7	O	1.515691	-0.440364	-0.462713
O8	O	1.368305	-0.176606	-0.613408
O9	O	1.661276	-0.445792	-0.650657
O10	O	1.478613	-0.180719	-0.755810
O11	O	1.389401	-0.324326	-0.446656
O12	O	1.201533	-0.367177	-0.592145
O13	O	1.331065	-0.521111	-0.906380
O14	O	1.185480	-0.515682	-0.718436
O15	O	1.457426	-0.376718	-0.922490
O16	O	1.494504	-0.636363	-0.629394
O17	O	1.352160	-0.668830	-0.739628
C18	C	1.156191	-0.445619	-0.650540
C19	C	1.041876	-0.458477	-0.636011
C20	C	0.982990	-0.408945	-0.692143
C21	C	0.864840	-0.422234	-0.677127
C22	C	1.423347	-0.691062	-0.684529
C23	C	1.423416	-0.808887	-0.684562
C24	C	1.512858	-0.955973	-0.615036
C25	C	1.513091	-0.833411	-0.615264
C26	C	1.439035	-0.865700	-0.796699
C27	C	1.439718	-0.988166	-0.796357
C28	C	1.318189	-0.984407	-0.643016
C29	C	1.319019	-0.861391	-0.640651
C30	C	1.691644	-0.385525	-0.718713
C31	C	1.805956	-0.372696	-0.733267
C32	C	1.389381	-0.454468	-0.952792
C33	C	1.374886	-0.471019	-1.067097
C34	C	1.423469	-0.139122	-0.684617
C35	C	1.423501	-0.021291	-0.684641
C36	C	1.430945	-0.406955	-1.126029
C37	C	1.415965	-0.424060	-1.244169
C38	C	1.457337	-0.376859	-0.417378
C39	C	1.472031	-0.359987	-0.303099
H40	H	1.504915	-0.793809	-0.532549
H41	H	1.531113	-0.292467	-1.266096
H42	H	1.590732	-0.980333	-0.643405
N43	N	1.505055	-0.322259	-1.079595
N44	N	1.517115	-0.308482	-0.983691
H45	H	1.569457	-0.248663	-0.950898
H46	H	1.356870	-0.491569	-1.281173
H47	H	0.843006	-0.320442	-0.792440
N48	N	1.297048	-1.012936	-0.541318
N49	N	1.359350	-1.060807	-0.498280
H50	H	1.344431	-1.080956	-0.426454
N51	N	0.995398	-0.524035	-0.561790
N52	N	1.006460	-0.621501	-0.569954
H53	H	0.973637	-0.667805	-0.517535
N54	N	1.502930	-0.980925	-0.511011
N55	N	1.423333	-0.963752	-0.460069
H56	H	1.416317	-0.981381	-0.386598
H57	H	1.020046	-0.356697	-0.751312
H58	H	1.516286	-1.011158	-0.830008
H59	H	0.827789	-0.474479	-0.617948
N60	N	1.611298	-0.788512	-0.651177
N61	N	1.679876	-0.847706	-0.676160
H62	H	1.749238	-0.815998	-0.701527
H63	H	1.315796	-0.538523	-1.104105
H64	H	1.375337	-0.851686	-0.850543
N65	N	1.360674	-1.044354	-0.864552
N66	N	1.268302	-1.030163	-0.848389
H67	H	1.212480	-1.069844	-0.896553
N68	N	1.533898	-0.820340	-0.839258
N69	N	1.590147	-0.746193	-0.787211
H70	H	1.657147	-0.714155	-0.817264
N71	N	1.303944	-0.813615	-0.537039
N72	N	1.369793	-0.741160	-0.495626
H73	H	1.359151	-0.707413	-0.422449
N74	N	1.232399	-0.841538	-0.698195
N75	N	1.246261	-0.788136	-0.772843
H76	H	1.185087	-0.774117	-0.813495
H77	H	1.251780	-1.028469	-0.693543
