data_functionalizedCrystal
_audit_creation_method	'MofGen! by Chris Wilmer'
_symmetry_space_group_name_H-M	'P1'
_symmetry_Int_Tables_number	1
_symmetry_cell_setting	triclinic
loop_
_symmetry_equiv_pos_as_xyz
  x,y,z
_cell_length_a	19.077105
_cell_length_b	11.169416
_cell_length_c	11.169409
_cell_angle_alpha	90.029517
_cell_angle_beta	92.320653
_cell_angle_gamma	87.700901
loop_
_atom_site_label
_atom_site_type_symbol
_atom_site_fract_x
_atom_site_fract_y
_atom_site_fract_z
Zn1	Zn	1.076127	-0.551541	0.752318
Zn2	Zn	1.076074	-0.752278	0.551641
Zn3	Zn	0.958420	-0.543535	0.543585
Zn4	Zn	0.958437	-0.744106	0.744223
O5	O	1.017264	-0.647865	0.647942
O6	O	1.174612	-0.584939	0.732456
O7	O	1.060438	-0.724657	0.382620
O8	O	0.974049	-0.376649	0.571290
O9	O	1.174574	-0.732420	0.585020
O10	O	1.060528	-0.382530	0.724645
O11	O	0.973998	-0.571295	0.376702
O12	O	0.859930	-0.563371	0.563441
O13	O	0.974078	-0.718493	0.913249
O14	O	0.859942	-0.710730	0.710850
O15	O	1.060544	-0.577016	0.919196
O16	O	1.060455	-0.919143	0.577171
O17	O	0.974027	-0.913139	0.718661
C18	C	0.834398	-0.635296	0.635394
C19	C	0.756167	-0.629948	0.630054
C20	C	1.017256	-0.959689	0.647939
C21	C	1.017317	-1.093093	0.647983
C22	C	1.017319	-0.647736	0.960988
C23	C	1.017342	-0.647680	1.094390
C24	C	0.719438	-0.704273	0.704172
C25	C	0.645932	-0.699232	0.699161
C26	C	0.609155	-0.619871	0.620024
C27	C	0.645888	-0.545538	0.545903
C28	C	0.719393	-0.550574	0.550921
C29	C	0.389315	-0.596565	0.596805
C30	C	0.315805	-0.591537	0.591789
C31	C	0.315853	-0.745230	0.745050
C32	C	0.389360	-0.750263	0.750056
C33	C	0.426087	-0.675926	0.675939
N34	N	0.534019	-0.614719	0.614897
N35	N	0.501221	-0.681073	0.681073
C36	C	1.200845	-0.660484	0.660539
C37	C	1.279077	-0.665862	0.665908
C38	C	1.017292	-0.334825	0.647972
C39	C	1.017304	-0.201426	0.647984
C40	C	1.017251	-0.647910	0.336116
C41	C	1.017364	-0.647637	0.202724
H42	H	0.616031	-0.759756	0.759515
N43	N	0.276127	-0.505972	0.506407
H44	H	0.245628	-0.448328	0.553170
H45	H	0.245668	-0.552730	0.448665
H46	H	0.749297	-0.490044	0.490572
N47	N	0.428923	-0.516372	0.516887
H48	H	0.394469	-0.465333	0.465999
H49	H	0.459412	-0.567227	0.463338
H50	H	0.749377	-0.768901	0.768610
N51	N	0.606226	-0.459962	0.460524
H52	H	0.554087	-0.468061	0.468578
H53	H	0.619060	-0.479454	0.375666
N54	N	0.429025	-0.835866	0.835404
H55	H	0.394603	-0.882188	0.881598
H56	H	0.459542	-0.789170	0.893110
N57	N	0.276242	-0.825403	0.824986
H58	H	0.224096	-0.810175	0.809803
H59	H	0.289116	-0.807701	0.911611
