data_functionalizedCrystal
_audit_creation_method	'MofGen! by Chris Wilmer'
_symmetry_space_group_name_H-M	'P1'
_symmetry_Int_Tables_number	1
_symmetry_cell_setting	triclinic
loop_
_symmetry_equiv_pos_as_xyz
  x,y,z
_cell_length_a	19.188905
_cell_length_b	23.532357
_cell_length_c	22.010155
_cell_angle_alpha	90.003761
_cell_angle_beta	90.021523
_cell_angle_gamma	82.981423
loop_
_atom_site_label
_atom_site_type_symbol
_atom_site_fract_x
_atom_site_fract_y
_atom_site_fract_z
O1	O	0.925925	0.071028	0.050633
O2	O	1.425925	0.571028	0.550633
O3	O	0.722578	0.080615	0.050613
O4	O	1.222578	0.580615	0.550613
O5	O	0.830401	-0.007099	0.050611
O6	O	1.330401	0.492901	0.550611
O7	O	0.818101	0.158743	0.050635
O8	O	1.318101	0.658743	0.550635
O9	O	0.830370	-0.007089	-0.050440
O10	O	1.330370	0.492911	0.449560
O11	O	0.722547	0.080625	-0.050438
O12	O	1.222547	0.580625	0.449562
O13	O	0.925893	0.071039	-0.050418
O14	O	1.425893	0.571039	0.449582
Cu15	Cu	0.824217	0.075833	-0.059654
Cu16	Cu	1.324217	0.575833	0.440346
Cu17	Cu	0.824254	0.075821	0.059849
Cu18	Cu	1.324254	0.575821	0.559849
O19	O	0.818070	0.158753	-0.050416
O20	O	1.318070	0.658753	0.449584
C21	C	0.696552	0.080312	0.000085
C22	C	1.196552	0.580312	0.500085
C23	C	0.619050	0.079387	0.000077
C24	C	1.119050	0.579387	0.500077
C25	C	0.830078	-0.028312	0.000084
C26	C	1.330078	0.471688	0.500084
C27	C	0.829153	-0.091532	0.000078
C28	C	1.329153	0.408468	0.500078
C29	C	0.582677	0.078937	0.055161
C30	C	1.082677	0.578937	0.555161
C31	C	0.509856	0.078062	0.055168
C32	C	1.009856	0.578062	0.555168
C33	C	0.473413	0.077625	0.000088
C34	C	0.973413	0.577625	0.500088
C35	C	0.509795	0.078078	-0.055003
C36	C	1.009795	0.578078	0.444997
C37	C	0.582613	0.078959	-0.055009
C38	C	1.082613	0.578959	0.444991
N39	N	0.364496	0.043836	-0.040907
N40	N	0.864496	0.543836	0.459093
N41	N	0.295322	0.042998	-0.040898
N42	N	0.795322	0.542998	0.459102
C43	C	0.254016	0.074972	0.000103
C44	C	0.754016	0.574972	0.500103
N45	N	0.284499	0.107809	0.041103
N46	N	0.784499	0.607809	0.541103
N47	N	0.353679	0.108645	0.041095
N48	N	0.853679	0.608645	0.541095
C49	C	0.394454	0.076670	0.000089
C50	C	0.894454	0.576670	0.500089
C51	C	0.138682	0.073574	0.055199
C52	C	0.638682	0.573574	0.555199
C53	C	0.065859	0.072702	0.055204
C54	C	0.565859	0.572702	0.555204
C55	C	0.065801	0.072713	-0.054969
C56	C	0.565801	0.572713	0.445031
C57	C	0.138621	0.073590	-0.054972
C58	C	0.638621	0.573590	0.445028
C59	C	0.175058	0.074018	0.000113
C60	C	0.675058	0.574018	0.500113
C61	C	0.823363	-0.483561	0.055193
C62	C	1.323363	0.016439	0.555193
C63	C	0.822484	-0.542962	0.055196
C64	C	1.322484	-0.042962	0.555196
O65	O	0.822020	-0.573684	0.102042
O66	O	1.322020	-0.073684	0.602042
N67	N	0.822031	-0.572669	0.000114
N68	N	1.322031	-0.072669	0.500114
C69	C	0.822450	-0.542970	-0.054975
C70	C	1.322450	-0.042970	0.445025
O71	O	0.821983	-0.573692	-0.101826
O72	O	1.321983	-0.073692	0.398174
C73	C	0.823324	-0.483569	-0.054977
C74	C	1.323324	0.016431	0.445023
C75	C	0.823784	-0.453867	0.000108
C76	C	1.323784	0.046133	0.500108
C77	C	0.823822	-0.453858	0.110274
C78	C	1.323822	0.046142	0.610274
C79	C	0.824703	-0.394461	0.110270
C80	C	1.324703	0.105539	0.610270
C81	C	0.825124	-0.364767	0.055185
C82	C	1.325124	0.135233	0.555185
C83	C	0.824665	-0.394470	0.000104
C84	C	1.324665	0.105530	0.500104
C85	C	0.823738	-0.453871	-0.110066
C86	C	1.323738	0.046129	0.389934
C87	C	0.824612	-0.394466	-0.110064
C88	C	1.324612	0.105534	0.389936
C89	C	0.825072	-0.364764	-0.054978
C90	C	1.325072	0.135236	0.445022
C91	C	0.825967	-0.305378	-0.054984
C92	C	1.325967	0.194622	0.445016
N93	N	0.826420	-0.275672	0.000098
N94	N	1.326420	0.224328	0.500098
C95	C	0.825999	-0.305366	0.055183
C96	C	1.325999	0.194634	0.555183
C97	C	0.820613	-0.667715	-0.054965
C98	C	1.320613	-0.167715	0.445035
C99	C	0.819743	-0.727115	-0.054963
C100	C	1.319743	-0.227115	0.445037
C101	C	0.819776	-0.727103	0.055208
C102	C	1.319776	-0.227103	0.555208
C103	C	0.820650	-0.667703	0.055206
C104	C	1.320650	-0.167703	0.555206
C105	C	0.821066	-0.638009	0.000117
C106	C	1.321066	-0.138009	0.500117
C107	C	0.827848	-0.180628	0.055171
C108	C	1.327848	0.319372	0.555171
C109	C	0.828732	-0.121226	0.055162
C110	C	1.328732	0.378774	0.555162
C111	C	0.828696	-0.121243	-0.055008
C112	C	1.328696	0.378757	0.444992
C113	C	0.827816	-0.180640	-0.055000
C114	C	1.327816	0.319360	0.445000
C115	C	0.827390	-0.210331	0.000094
C116	C	1.327390	0.289669	0.500094
O117	O	0.826428	-0.274618	-0.101805
O118	O	1.326428	0.225382	0.398195
O119	O	0.826456	-0.274636	0.102026
O120	O	1.326456	0.225364	0.602026
C121	C	0.951919	0.071342	0.000111
C122	C	1.451919	0.571342	0.500111
C123	C	1.029422	0.072266	0.000123
C124	C	1.529422	0.572266	0.500123
C125	C	0.818393	0.179965	0.000113
C126	C	1.318393	0.679965	0.500113
C127	C	0.819318	0.243186	0.000122
C128	C	1.319318	0.743186	0.500122
N129	N	0.824196	0.075841	-0.143707
N130	N	1.324196	0.575841	0.356293
C131	C	0.782142	0.041362	-0.436321
C132	C	1.282142	0.541362	0.063679
C133	C	0.782135	0.041365	-0.372714
C134	C	1.282135	0.541365	0.127286
O135	O	0.746352	0.012051	-0.339825
O136	O	1.246352	0.512051	0.160175
N137	N	0.824224	0.075823	-0.340891
N138	N	1.324224	0.575823	0.159109
C139	C	0.866327	0.110277	-0.372679
C140	C	1.366327	0.610277	0.127321
O141	O	0.902126	0.139586	-0.339771
O142	O	1.402126	0.639586	0.160229
C143	C	0.866336	0.110271	-0.436286
C144	C	1.366336	0.610271	0.063714
C145	C	0.824240	0.075815	-0.468105
C146	C	1.324240	0.575815	0.031895
C147	C	0.740049	0.006909	-0.468141
C148	C	1.240049	0.506909	0.031859
C149	C	0.740054	0.006907	-0.531744
C150	C	1.240054	0.506907	-0.031744
C151	C	0.782152	0.041359	-0.563528
C152	C	1.282152	0.541359	-0.063528
C153	C	0.824245	0.075813	-0.531708
C154	C	1.324245	0.575813	-0.031708
C155	C	0.908442	0.144721	-0.468073
C156	C	1.408442	0.644721	0.031927
C157	C	0.908449	0.144712	-0.531683
C158	C	1.408449	0.644712	-0.031683
C159	C	0.866352	0.110255	-0.563503
C160	C	1.366352	0.610255	-0.063503
C161	C	0.866348	0.110264	-0.627095
C162	C	1.366348	0.610264	-0.127095
N163	N	0.824260	0.075805	-0.658918
N164	N	1.324260	0.575805	-0.158918
C165	C	0.782162	0.041353	-0.627134
C166	C	1.282162	0.541353	-0.127134
C167	C	0.866305	0.110286	-0.239101
C168	C	1.366305	0.610286	0.260899
C169	C	0.866292	0.110296	-0.175496
C170	C	1.366292	0.610296	0.324504
C171	C	0.782101	0.041383	-0.175535
C172	C	1.282101	0.541383	0.324465
C173	C	0.782111	0.041377	-0.239142
C174	C	1.282111	0.541377	0.260858
C175	C	0.824216	0.075828	-0.270924
C176	C	1.324216	0.575828	0.229076
C177	C	0.782176	0.041353	-0.760706
C178	C	1.282176	0.541353	-0.260706
C179	C	0.782183	0.041356	-0.824314
C180	C	1.282183	0.541356	-0.324314
C181	C	0.866376	0.110266	-0.824270
C182	C	1.366376	0.610266	-0.324270
C183	C	0.866366	0.110265	-0.760667
C184	C	1.366366	0.610265	-0.260667
C185	C	0.824264	0.075804	-0.728886
C186	C	1.324264	0.575804	-0.228886
O187	O	0.902115	0.139561	-0.660025
O188	O	1.402115	0.639561	-0.160025
O189	O	0.746375	0.012043	-0.660050
O190	O	1.246375	0.512043	-0.160050
N191	N	0.824281	0.075808	0.143902
N192	N	1.324281	0.575808	0.643902
H193	H	0.612339	0.079286	0.100016
H194	H	1.112339	0.579286	0.600016
Br195	Br	0.016349	0.072128	-0.129722
Br196	Br	0.516349	0.572128	0.370278
Br197	Br	0.823111	-0.494166	-0.184829
Br198	Br	1.323111	0.005834	0.315171
Br199	Br	0.631980	0.079571	-0.129772
Br200	Br	1.131980	0.579571	0.370228
H201	H	0.747899	0.013297	-0.850219
H202	H	1.247899	0.513297	-0.350219
Br203	Br	0.821274	-0.627398	0.129967
Br204	Br	1.321274	-0.127398	0.629967
H205	H	0.168349	0.073928	0.100053
H206	H	0.668349	0.573928	0.600053
Br207	Br	0.823250	-0.494146	0.185042
Br208	Br	1.323250	0.005854	0.685042
H209	H	0.168237	0.073953	-0.099828
H210	H	0.668237	0.573953	0.400172
H211	H	0.824940	-0.370292	-0.154924
H212	H	1.324940	0.129708	0.345076
Br213	Br	0.724978	-0.005387	-0.282318
Br214	Br	1.224978	0.494613	0.217682
H215	H	0.942738	0.172766	-0.557558
H216	H	1.442738	0.672766	-0.057558
H217	H	0.829108	-0.097045	0.100022
H218	H	1.329108	0.402955	0.600022
H219	H	0.819431	-0.751291	0.100061
H220	H	1.319431	-0.251291	0.600061
Br221	Br	0.923507	0.157020	-0.717482
Br222	Br	1.423507	0.657020	-0.217482
H223	H	0.829042	-0.097056	-0.099857
H224	H	1.329042	0.402944	0.400143
H225	H	0.827498	-0.204795	0.100034
H226	H	1.327498	0.295205	0.600034
H227	H	0.825075	-0.370282	0.155126
H228	H	1.325075	0.129718	0.655126
Br229	Br	0.819136	-0.767421	-0.129724
Br230	Br	1.319136	-0.267421	0.370276
Br231	Br	0.016493	0.072099	0.129968
Br232	Br	0.516493	0.572099	0.629968
H233	H	0.820953	-0.643542	-0.099827
H234	H	1.320953	-0.143542	0.400173
H235	H	0.827448	-0.204826	-0.099855
H236	H	1.327448	0.295174	0.400145
Br237	Br	0.460481	0.077453	0.129931
Br238	Br	0.960481	0.577453	0.629931
Br239	Br	0.725040	-0.005420	-0.717585
Br240	Br	1.225040	0.494580	-0.217585
Br241	Br	0.460338	0.077492	-0.129755
Br242	Br	0.960338	0.577492	0.370245
Br243	Br	0.923448	0.157050	-0.282229
Br244	Br	1.423448	0.657050	0.217771
H245	H	0.705777	-0.021153	-0.557646
H246	H	1.205777	0.478847	-0.057646
Br247	Br	0.923501	0.157025	-0.867417
Br248	Br	1.423501	0.657025	-0.367417
Br249	Br	0.682902	-0.039850	-0.425018
Br250	Br	1.182902	0.460150	0.074982
H251	H	0.747823	0.013330	-0.149645
H252	H	1.247823	0.513330	0.350355
Br253	Br	0.923408	0.157074	-0.132321
Br254	Br	1.423408	0.657074	0.367679
H255	H	0.942724	0.172778	-0.442176
H256	H	1.442724	0.672778	0.057824
