data_functionalizedCrystal
_audit_creation_method	'MofGen! by Chris Wilmer'
_symmetry_space_group_name_H-M	'P1'
_symmetry_Int_Tables_number	1
_symmetry_cell_setting	triclinic
loop_
_symmetry_equiv_pos_as_xyz
  x,y,z
_cell_length_a	18.050589
_cell_length_b	18.050591
_cell_length_c	18.050582
_cell_angle_alpha	89.979078
_cell_angle_beta	90.018205
_cell_angle_gamma	89.975773
loop_
_atom_site_label
_atom_site_type_symbol
_atom_site_fract_x
_atom_site_fract_y
_atom_site_fract_z
Zn1	Zn	-0.295786	-1.135293	0.420054
Zn2	Zn	0.204214	-0.635293	0.920054
Zn3	Zn	-0.419969	-1.135203	0.295873
Zn4	Zn	0.080031	-0.635203	0.795873
Zn5	Zn	-0.295789	-1.011112	0.295865
Zn6	Zn	0.204211	-0.511112	0.795865
Zn7	Zn	-0.419930	-1.011060	0.420009
Zn8	Zn	0.080070	-0.511060	0.920009
O9	O	-0.357868	-1.073167	0.357950
O10	O	0.142132	-0.573167	0.857950
O11	O	-0.312274	-1.239205	0.403603
O12	O	0.187726	-0.739205	0.903603
O13	O	-0.403514	-1.118727	0.191948
O14	O	0.096486	-0.618727	0.691948
O15	O	-0.191864	-1.027644	0.312354
O16	O	0.308136	-0.527644	0.812354
O17	O	-0.403511	-1.239140	0.312369
O18	O	0.096489	-0.739140	0.812369
O19	O	-0.191862	-1.118879	0.403595
O20	O	0.308138	-0.618879	0.903595
O21	O	-0.312279	-1.027557	0.191942
O22	O	0.187721	-0.527557	0.691942
O23	O	-0.312241	-0.907180	0.312311
O24	O	0.187759	-0.407180	0.812311
O25	O	-0.403444	-1.027555	0.523940
O26	O	0.096556	-0.527555	1.023940
O27	O	-0.403447	-0.907142	0.403519
O28	O	0.096553	-0.407142	0.903519
O29	O	-0.312236	-1.118828	0.523973
O30	O	0.187764	-0.618828	1.023973
O31	O	-0.523888	-1.118676	0.312325
O32	O	-0.023888	-0.618676	0.812325
O33	O	-0.523860	-1.027468	0.403527
O34	O	-0.023860	-0.527468	0.903527
C35	C	-0.550820	-1.073077	0.357938
C36	C	-0.050820	-0.573077	0.857938
C37	C	-0.633366	-1.073107	0.357958
C38	C	-0.133366	-0.573107	0.857958
C39	C	-0.357841	-0.880215	0.357909
C40	C	0.142159	-0.380215	0.857909
C41	C	-0.357847	-0.797669	0.357909
C42	C	0.142153	-0.297669	0.857909
C43	C	-0.357835	-1.073196	0.551656
C44	C	0.142165	-0.573196	1.051656
C45	C	-0.357821	-1.073208	0.634202
C46	C	0.142179	-0.573208	1.134202
C47	C	-0.832828	-1.023557	0.407536
C48	C	-0.332828	-0.523557	0.907536
C49	C	-0.882261	-1.005459	0.339767
C50	C	-0.382261	-0.505459	0.839767
C51	C	-0.784497	-1.073180	0.357967
C52	C	-0.284497	-0.573180	0.857967
C53	C	-0.882146	-1.091314	0.425744
C54	C	-0.382146	-0.591314	0.925744
C55	C	-0.930482	-1.073249	0.357983
C56	C	-0.430482	-0.573249	0.857983
C57	C	-0.832842	-1.055046	0.290162
C58	C	-0.332842	-0.555046	0.790162
C59	C	-0.832722	-1.140933	0.376186
C60	C	-0.332722	-0.640933	0.876186
C61	C	-0.882133	-1.122861	0.308370
C62	C	-0.382133	-0.622861	0.808370
C63	C	-0.700398	-1.073138	0.357959
C64	C	-0.200398	-0.573138	0.857959
C65	C	-1.014578	-1.073291	0.357983
C66	C	-0.514578	-0.573291	0.857983
C67	C	-0.164163	-1.073277	0.357979
C68	C	0.335837	-0.573277	0.857979
C69	C	-0.081617	-1.073324	0.357991
C70	C	0.418383	-0.573324	0.857991
C71	C	-0.357897	-1.266872	0.357992
C72	C	0.142103	-0.766872	0.857992
C73	C	-0.357909	-1.349418	0.358010
C74	C	0.142091	-0.849418	0.858010
C75	C	-0.308191	-0.598217	0.308425
C76	C	0.191809	-0.098217	0.808425
C77	C	-0.375927	-0.548798	0.290154
C78	C	0.124073	-0.048798	0.790154
C79	C	-0.357869	-0.646539	0.357943
C80	C	0.142131	-0.146539	0.857943
C81	C	-0.290157	-0.548877	0.376212
C82	C	0.209843	-0.048877	0.876212
C83	C	-0.357885	-0.500553	0.357974
C84	C	0.142115	-0.000553	0.857974
C85	C	-0.425641	-0.598206	0.339637
C86	C	0.074359	-0.098206	0.839637
C87	C	-0.339825	-0.598289	0.425726
C88	C	0.160175	-0.098289	0.925726
C89	C	-0.407607	-0.548892	0.407481
C90	C	0.092393	-0.048892	0.907481
C91	C	-0.357859	-0.730637	0.357923
C92	C	0.142141	-0.230637	0.857923
C93	C	-0.357903	-0.416457	0.357994
C94	C	0.142097	0.083543	0.857994
C95	C	-0.357848	-1.073181	0.164998
C96	C	0.142152	-0.573181	0.664998
C97	C	-0.357652	-1.073312	0.082453
C98	C	0.142348	-0.573312	0.582453
C99	C	-0.407353	-1.023612	0.833635
C100	C	0.092647	-0.523612	1.333635
C101	C	-0.425511	-1.091367	0.883034
C102	C	0.074489	-0.591367	1.383034
C103	C	-0.357765	-1.073245	0.785332
C104	C	0.142235	-0.573245	1.285332
C105	C	-0.339586	-1.005527	0.883014
C106	C	0.160414	-0.505527	1.383014
C107	C	-0.357711	-1.073274	0.931317
C108	C	0.142289	-0.573274	1.431317
C109	C	-0.375958	-1.141036	0.833645
C110	C	0.124042	-0.641036	1.333645
C111	C	-0.290002	-1.055150	0.833620
C112	C	0.209998	-0.555150	1.333620
C113	C	-0.308134	-1.122952	0.882998
C114	C	0.191866	-0.622952	1.382998
C115	C	-0.357797	-1.073227	0.701234
C116	C	0.142203	-0.573227	1.201234
C117	C	-0.357679	-1.073300	1.015414
C118	C	0.142321	-0.573300	1.515414
H119	H	-0.811178	-0.981531	0.449395
H120	H	-0.311178	-0.481531	0.949395
N121	N	-0.804284	-1.034673	0.214224
N122	N	-0.304284	-0.534673	0.714224
H123	H	-0.822639	-1.071930	0.176745
H124	H	-0.322639	-0.571930	0.676745
H125	H	-0.748335	-1.034740	0.214759
H126	H	-0.248335	-0.534740	0.714759
N127	N	-0.911078	-0.929604	0.319347
N128	N	-0.411078	-0.429604	0.819347
H129	H	-0.893146	-0.892126	0.356811
H130	H	-0.393146	-0.392126	0.856811
H131	H	-0.967023	-0.930377	0.319016
H132	H	-0.467023	-0.430377	0.819016
H133	H	-0.903645	-1.164855	0.266409
H134	H	-0.403645	-0.664855	0.766409
N135	N	-0.214151	-1.034829	0.804833
N136	N	0.285849	-0.534829	1.304833
H137	H	-0.179794	-1.025126	0.847922
H138	H	0.320206	-0.525126	1.347922
H139	H	-0.217969	-0.988803	0.773228
H140	H	0.282031	-0.488803	1.273228
N141	N	-0.910831	-1.111600	0.501658
N142	N	-0.410831	-0.611600	1.001658
H143	H	-0.941579	-1.158204	0.498174
H144	H	-0.441579	-0.658204	0.998174
H145	H	-0.942403	-1.069830	0.521384
H146	H	-0.442403	-0.569830	1.021384
H147	H	-0.810948	-1.198184	0.391613
H148	H	-0.310948	-0.698184	0.891613
H149	H	-0.232894	-0.527169	0.391625
H150	H	0.267106	-0.027169	0.891625
N151	N	-0.319232	-0.929656	0.911736
N152	N	0.180768	-0.429656	1.411736
H153	H	-0.318888	-0.930344	0.967685
H154	H	0.181112	-0.430344	1.467685
H155	H	-0.356757	-0.892237	0.893727
H156	H	0.143243	-0.392237	1.393727
H157	H	-0.449342	-0.981678	0.811961
H158	H	0.050658	-0.481678	1.311961
N159	N	-0.252603	-0.626915	0.252902
N160	N	0.247397	-0.126915	0.752902
H161	H	-0.266341	-0.608910	0.201723
H162	H	0.233659	-0.108910	0.701723
H163	H	-0.252682	-0.682861	0.253682
H164	H	0.247318	-0.182861	0.753682
H165	H	-0.391202	-0.527060	0.232844
H166	H	0.108798	-0.027060	0.732844
N167	N	-0.501525	-0.626780	0.319098
N168	N	-0.001525	-0.126780	0.819098
H169	H	-0.501046	-0.682732	0.319191
H170	H	-0.001046	-0.182732	0.819191
H171	H	-0.515228	-0.608285	0.268087
H172	H	-0.015228	-0.108285	0.768087
N173	N	-0.252564	-1.178626	0.911547
N174	N	0.247436	-0.678626	1.411547
H175	H	-0.266374	-1.229745	0.893496
H176	H	0.233626	-0.729745	1.393496
H177	H	-0.252577	-1.177957	0.967495
H178	H	0.247423	-0.677957	1.467495
H179	H	-0.324530	-0.620045	0.483019
H180	H	0.175470	-0.120045	0.983019
N181	N	-0.463321	-0.520378	0.462970
N182	N	0.036679	-0.020378	0.962970
H183	H	-0.514430	-0.538419	0.449088
H184	H	-0.014430	-0.038419	0.949088
H185	H	-0.462656	-0.464431	0.462963
H186	H	0.037344	0.035569	0.962963
H187	H	-0.391377	-1.198333	0.812050
H188	H	0.108623	-0.698333	1.312050
N189	N	-0.501384	-1.111671	0.911787
N190	N	-0.001384	-0.611671	1.411787
H191	H	-0.538829	-1.074140	0.893835
H192	H	-0.038829	-0.574140	1.393835
H193	H	-0.500613	-1.112017	0.967733
H194	H	-0.000613	-0.612017	1.467733
