data_functionalizedCrystal
_audit_creation_method	'MofGen! by Chris Wilmer'
_symmetry_space_group_name_H-M	'P1'
_symmetry_Int_Tables_number	1
_symmetry_cell_setting	triclinic
loop_
_symmetry_equiv_pos_as_xyz
  x,y,z
_cell_length_a	10.540491
_cell_length_b	10.540510
_cell_length_c	9.730217
_cell_angle_alpha	90.000793
_cell_angle_beta	90.000977
_cell_angle_gamma	84.509489
loop_
_atom_site_label
_atom_site_type_symbol
_atom_site_fract_x
_atom_site_fract_y
_atom_site_fract_z
O1	O	-1.685898	-0.178608	-0.114269
O2	O	-1.316476	-0.195528	-0.114273
O3	O	-1.509635	-0.002357	-0.114270
O4	O	-1.492739	-0.371778	-0.114272
O5	O	-1.509629	-0.002356	0.114310
O6	O	-1.316470	-0.195526	0.114307
O7	O	-1.685893	-0.178606	0.114311
Zn8	Zn	-1.501180	-0.187066	0.150601
Zn9	Zn	-1.501188	-0.187068	-0.150563
O10	O	-1.492733	-0.371776	0.114308
C11	C	-1.269169	-0.194271	0.000016
C12	C	-1.128218	-0.190514	0.000014
C13	C	-0.910747	-0.324714	-0.000515
C14	C	-1.057343	-0.328722	0.000011
C15	C	-1.083462	-0.119769	0.130541
C16	C	-0.936700	-0.116739	0.130640
C17	C	-0.936901	-0.113863	-0.129299
C18	C	-1.083243	-0.120409	-0.131014
C19	C	-0.733197	-0.179879	0.000016
C20	C	-0.874142	-0.183687	-0.000001
C21	C	-1.508373	0.044947	0.000017
C22	C	-1.504606	0.185896	0.000008
C23	C	-1.493995	-0.419081	0.000018
C24	C	-1.497762	-0.560030	0.000017
C25	C	-1.638793	0.403375	0.000534
C26	C	-1.642811	0.256780	0.000012
C27	C	-1.433862	0.230641	-0.130520
C28	C	-1.430823	0.377402	-0.130622
C29	C	-1.427938	0.377212	0.129316
C30	C	-1.434493	0.230872	0.131034
N31	N	-1.501184	-0.187063	0.356138
N32	N	-1.501194	-0.187060	-0.356100
C33	C	-1.672297	-0.016061	0.356131
C34	C	-1.757862	0.069436	0.428068
C35	C	-1.757875	0.069437	0.571947
C36	C	-1.672311	-0.016066	0.643894
C37	C	-1.586746	-0.101564	0.571957
C38	C	-1.586745	-0.101558	0.428074
C39	C	-1.415629	-0.272558	0.571964
C40	C	-1.415620	-0.272567	0.428084
C41	C	-1.330065	-0.358061	0.643910
C42	C	-1.244504	-0.443567	0.571974
C43	C	-1.244496	-0.443565	0.428085
C44	C	-1.330055	-0.358064	0.356148
H45	H	-1.114309	-0.168898	0.227680
N46	N	-0.883643	-0.168669	-0.253405
N47	N	-0.798773	-0.259866	-0.248062
H48	H	-0.761155	-0.298585	-0.335706
N49	N	-1.491478	0.427851	-0.253028
N50	N	-1.535758	0.354634	-0.337785
H51	H	-1.578599	0.390257	-0.424238
N52	N	-1.712672	0.221149	-0.117558
N53	N	-1.826458	0.264218	-0.132833
H54	H	-1.875800	0.239056	-0.215873
H55	H	-1.327453	0.400379	-0.136538
N56	N	-0.907837	0.012922	0.138073
N57	N	-0.845310	0.058688	0.044190
H58	H	-0.824929	0.150260	0.049446
H59	H	-1.130863	-0.018022	0.135396
H60	H	-1.330074	-0.358052	0.761065
N61	N	-1.482729	0.430427	0.253449
N62	N	-1.439434	0.392079	0.367249
H63	H	-1.478143	0.429660	0.454914
H64	H	-1.827525	0.139055	0.369476
N65	N	-0.886231	-0.177436	0.253014
N66	N	-0.807419	-0.273591	0.244889
H67	H	-0.771781	-0.316469	0.331316
H68	H	-1.332118	0.183235	-0.135375
H69	H	-1.698164	0.227446	0.093578
H70	H	-1.482996	0.199793	-0.227658
N71	N	-1.672293	-0.016070	0.790862
N72	N	-1.595891	-0.092407	0.855083
H73	H	-1.595869	-0.092408	0.958882
N74	N	-1.119126	-0.185002	-0.252143
N75	N	-1.177610	-0.282305	-0.242117
H76	H	-1.202955	-0.327931	-0.327662
H77	H	-1.132322	-0.019506	-0.138895
H78	H	-1.324172	0.399344	0.130194
N79	N	-1.330033	-0.358099	0.209179
N80	N	-1.351881	-0.456390	0.144964
H81	H	-1.351864	-0.456417	0.041165
N82	N	-1.499079	0.194990	0.252166
N83	N	-1.596384	0.136506	0.242142
H84	H	-1.642002	0.111158	0.327688
H85	H	-1.672306	-0.016064	0.238976
N86	N	-0.909178	0.016320	-0.130402
N87	N	-0.944443	0.088234	-0.032707
H88	H	-0.924870	0.180176	-0.033475
N89	N	-0.856190	-0.391895	0.116251
N90	N	-0.874247	-0.506142	0.134697
H91	H	-0.835716	-0.553588	0.217164
H92	H	-1.333592	0.181788	0.138915
N93	N	-1.094127	-0.398234	-0.117324
N94	N	-1.150098	-0.496558	-0.101636
H95	H	-1.176059	-0.545677	-0.184497
H96	H	-1.692634	0.445340	0.094143
H97	H	-1.827545	0.139061	0.630518
N98	N	-1.157093	-0.530875	0.645465
N99	N	-1.077946	-0.489828	0.725748
H100	H	-1.016208	-0.551490	0.777657
N101	N	-1.157092	-0.530919	0.354631
N102	N	-1.159863	-0.648276	0.370709
H103	H	-1.098132	-0.709974	0.318838
N104	N	-0.858126	-0.392265	-0.117954
N105	N	-0.887982	-0.353751	-0.236167
H106	H	-0.850812	-0.401458	-0.319115
N107	N	-1.092902	-0.398627	0.117575
N108	N	-1.068044	-0.361361	0.235644
H109	H	-1.093133	-0.410761	0.318670
N110	N	-1.705944	0.457967	-0.116234
N111	N	-1.650385	0.523707	-0.199831
H112	H	-1.697806	0.562265	-0.282302
