data_functionalizedCrystal
_audit_creation_method	'MofGen! by Chris Wilmer'
_symmetry_space_group_name_H-M	'P1'
_symmetry_Int_Tables_number	1
_symmetry_cell_setting	triclinic
loop_
_symmetry_equiv_pos_as_xyz
  x,y,z
_cell_length_a	19.288864
_cell_length_b	10.268362
_cell_length_c	11.792253
_cell_angle_alpha	89.989159
_cell_angle_beta	96.332579
_cell_angle_gamma	90.018431
loop_
_atom_site_label
_atom_site_type_symbol
_atom_site_fract_x
_atom_site_fract_y
_atom_site_fract_z
O1	O	0.922157	0.108734	-0.141581
O2	O	1.255490	0.442067	0.191753
O3	O	1.588823	0.775401	0.525086
O4	O	0.720005	0.108647	-0.160680
O5	O	1.053338	0.441981	0.172654
O6	O	1.386672	0.775314	0.505987
O7	O	0.825982	0.108666	0.014114
O8	O	1.159315	0.441999	0.347447
O9	O	1.492648	0.775332	0.680780
O10	O	0.816180	0.108716	-0.316374
O11	O	1.149513	0.442049	0.016959
O12	O	1.482846	0.775382	0.350293
O13	O	0.825973	-0.107935	0.014121
O14	O	1.159306	0.225398	0.347454
O15	O	1.492639	0.558732	0.680788
O16	O	0.719996	-0.107953	-0.160673
O17	O	1.053329	0.225380	0.172661
O18	O	1.386662	0.558713	0.505994
O19	O	0.922147	-0.107867	-0.141574
O20	O	1.255481	0.225467	0.191760
O21	O	1.588814	0.558800	0.525093
Cu22	Cu	0.821071	-0.127687	-0.151122
Cu23	Cu	1.154404	0.205646	0.182211
Cu24	Cu	1.487737	0.538979	0.515544
Cu25	Cu	0.821082	0.128468	-0.151131
Cu26	Cu	1.154415	0.461801	0.182203
Cu27	Cu	1.487748	0.795135	0.515536
O28	O	0.816170	-0.107885	-0.316367
O29	O	1.149504	0.225448	0.016966
O30	O	1.482837	0.558782	0.350300
C31	C	0.694120	0.000335	-0.160062
C32	C	1.027454	0.333669	0.173272
C33	C	1.360787	0.667002	0.506605
C34	C	0.617006	0.000301	-0.158217
C35	C	0.950340	0.333634	0.175117
C36	C	1.283673	0.666968	0.508450
N37	N	0.821068	-0.307853	-0.151116
N38	N	1.154401	0.025480	0.182218
N39	N	1.487735	0.358813	0.515551
C40	C	0.572895	0.000337	-0.260778
C41	C	0.906229	0.333670	0.072556
C42	C	1.239562	0.667004	0.405889
C43	C	0.500438	0.000351	-0.259045
C44	C	0.833772	0.333684	0.074289
C45	C	1.167105	0.667018	0.407622
C46	C	0.472095	0.000355	-0.154745
C47	C	0.805429	0.333689	0.178589
C48	C	1.138762	0.667022	0.511922
C49	C	0.516216	0.000312	-0.052170
C50	C	0.849549	0.333645	0.281163
C51	C	1.182883	0.666979	0.614496
C52	C	0.588671	0.000285	-0.053906
C53	C	0.922005	0.333618	0.279427
C54	C	1.255338	0.666952	0.612760
C55	C	0.363369	0.076272	-0.072756
C56	C	0.696702	0.409605	0.260577
C57	C	1.030035	0.742938	0.593911
C58	C	0.290914	0.076307	-0.071024
C59	C	0.624248	0.409640	0.262309
C60	C	0.957581	0.742974	0.595642
C61	C	0.248619	0.000433	-0.149386
C62	C	0.581953	0.333767	0.183947
C63	C	0.915286	0.667100	0.517281
C64	C	0.278786	-0.075458	-0.229499
C65	C	0.612119	0.257875	0.103835
C66	C	0.945453	0.591208	0.437168
C67	C	0.351241	-0.075486	-0.231235
C68	C	0.684575	0.257848	0.102099
C69	C	1.017908	0.591181	0.435432
C70	C	0.393531	0.000384	-0.152851
C71	C	0.726864	0.333717	0.180483
C72	C	1.060197	0.667051	0.513816
C73	C	0.125942	0.000483	-0.250075
C74	C	0.459275	0.333816	0.083259
C75	C	0.792608	0.667149	0.416592
C76	C	0.053484	0.000489	-0.248337
C77	C	0.386817	0.333822	0.084996
C78	C	0.720150	0.667156	0.418330
C79	C	0.069263	0.000463	-0.041460
C80	C	0.402596	0.333796	0.291873
C81	C	0.735930	0.667130	0.625207
C82	C	0.141719	0.000444	-0.043200
C83	C	0.475053	0.333777	0.290133
C84	C	0.808386	0.667111	0.623466
C85	C	0.170054	0.000460	-0.147511
C86	C	0.503388	0.333793	0.185823
C87	C	0.836721	0.667127	0.519156
C88	C	0.821078	-0.573524	-0.151129
C89	C	1.154411	-0.240190	0.182205
C90	C	1.487745	0.093143	0.515538
C91	C	0.821070	-0.425686	-0.151125
C92	C	1.154404	-0.092353	0.182209
C93	C	1.487737	0.240981	0.515542
C94	C	0.948032	0.000448	-0.142192
C95	C	1.281365	0.333781	0.191142
C96	C	1.614699	0.667115	0.524475
C97	C	1.025146	0.000491	-0.144036
C98	C	1.358479	0.333824	0.189297
C99	C	1.691813	0.667158	0.522630
C100	C	0.825360	0.000361	0.056399
C101	C	1.158693	0.333694	0.389732
C102	C	1.492026	0.667028	0.723065
C103	C	0.823511	0.000348	0.182384
C104	C	1.156845	0.333681	0.515717
C105	C	1.490178	0.667014	0.849050
N106	N	0.821090	0.308634	-0.151128
N107	N	1.154423	0.641967	0.182205
N108	N	1.487756	0.975301	0.515538
C109	C	0.822010	0.000341	0.284697
C110	C	1.155343	0.333674	0.618031
C111	C	1.488677	0.667007	0.951364
C112	C	0.820132	0.000338	0.413056
C113	C	1.153465	0.333671	0.746389
C114	C	1.486799	0.667005	1.079722
C115	C	0.816792	0.000395	0.641348
C116	C	1.150126	0.333729	0.974681
C117	C	1.483459	0.667062	1.308015
C118	C	0.818641	0.000336	0.515363
C119	C	1.151974	0.333670	0.848697
C120	C	1.485307	0.667003	1.182030
H121	H	0.595960	0.000353	-0.345715
H122	H	0.929294	0.333686	-0.012382
H123	H	1.262627	0.667019	0.320951
Cl124	Cl	-0.001972	0.000527	-0.377283
Cl125	Cl	0.331362	0.333861	-0.043950
Cl126	Cl	0.664695	0.667194	0.289383
H127	H	0.244351	-0.137243	-0.293308
H128	H	0.577684	0.196090	0.040026
H129	H	0.911017	0.529424	0.373359
H130	H	0.149013	0.000477	-0.335010
H131	H	0.482346	0.333810	-0.001677
H132	H	0.815680	0.667143	0.331656
Cl133	Cl	0.033639	0.000453	0.089662
Cl134	Cl	0.366972	0.333786	0.422995
Cl135	Cl	0.700306	0.667120	0.756328
H136	H	0.177636	0.000422	0.040316
H137	H	0.510969	0.333755	0.373649
H138	H	0.844302	0.667088	0.706983
Cl139	Cl	0.252997	0.171726	0.029677
Cl140	Cl	0.586330	0.505059	0.363010
Cl141	Cl	0.919664	0.838393	0.696344
Cl142	Cl	0.389164	-0.170894	-0.331938
Cl143	Cl	0.722497	0.162440	0.001396
Cl144	Cl	1.055831	0.495773	0.334729
Cl145	Cl	0.416533	0.171665	0.025766
Cl146	Cl	0.749866	0.504998	0.359100
Cl147	Cl	1.083199	0.838331	0.692433
Cl148	Cl	0.480586	0.000310	0.078950
Cl149	Cl	0.813919	0.333643	0.412283
Cl150	Cl	1.147253	0.666977	0.745616
H151	H	0.464516	0.000377	-0.342565
H152	H	0.797850	0.333710	-0.009231
H153	H	1.131183	0.667043	0.324102
Cl154	Cl	0.644128	0.000241	0.075038
Cl155	Cl	0.977462	0.333574	0.408372
Cl156	Cl	1.310795	0.666908	0.741705
