data_functionalizedCrystal
_audit_creation_method	'MofGen! by Chris Wilmer'
_symmetry_space_group_name_H-M	'P1'
_symmetry_Int_Tables_number	1
_symmetry_cell_setting	triclinic
loop_
_symmetry_equiv_pos_as_xyz
  x,y,z
_cell_length_a	23.096457
_cell_length_b	23.096457
_cell_length_c	21.606444
_cell_angle_alpha	90.000061
_cell_angle_beta	60.000825
_cell_angle_gamma	59.998275
loop_
_atom_site_label
_atom_site_type_symbol
_atom_site_fract_x
_atom_site_fract_y
_atom_site_fract_z
Zr1	Zr	0.633764	0.557748	-0.081232
O2	O	0.754556	0.465292	-0.180053
O3	O	0.512973	0.586092	-0.050940
O4	O	0.633768	0.586083	-0.180060
O5	O	0.633757	0.465305	0.050922
O6	O	0.633770	0.681364	-0.180064
O7	O	0.633761	0.465300	-0.050933
O8	O	0.417689	0.681379	0.050909
O9	O	0.849838	0.465290	-0.180051
O10	O	0.562657	0.669285	-0.038021
O11	O	0.562652	0.598182	0.037994
O12	O	0.704873	0.598172	-0.114028
O13	O	0.704869	0.527069	-0.038013
Zr14	Zr	0.633760	0.709716	0.081208
Zr15	Zr	0.633766	0.709709	-0.081238
Zr16	Zr	0.633757	0.557755	0.081214
Zr17	Zr	0.785727	0.557744	-0.081229
Zr18	Zr	0.481797	0.709720	0.081205
O19	O	0.754551	0.681372	0.050916
O20	O	0.754560	0.681361	-0.180061
O21	O	0.754547	0.465303	0.050924
O22	O	0.512967	0.802172	0.180029
O23	O	0.512977	0.802161	-0.050948
O24	O	0.512964	0.586103	0.180037
O25	O	0.633767	0.802159	-0.050946
O26	O	0.633755	0.681381	0.180036
O27	O	0.633754	0.586100	0.180039
O28	O	0.633763	0.802163	0.050908
O29	O	0.849840	0.586079	-0.180055
O30	O	0.417684	0.681385	0.180031
O31	O	0.417686	0.802174	0.180027
O32	O	0.417691	0.802168	0.050904
O33	O	0.849832	0.465296	-0.050928
O34	O	0.849834	0.586085	-0.050933
O35	O	0.562651	0.669292	0.114004
O36	O	0.562655	0.740395	0.037989
O37	O	0.704871	0.669282	-0.038018
O38	O	0.704867	0.598179	0.037997
C39	C	0.443680	0.633736	-0.000016
C40	C	0.379168	0.633737	-0.000017
C41	C	-0.081348	0.670848	-0.039679
C42	C	-0.020728	0.670847	-0.039686
C43	C	0.009582	0.633733	-0.000006
C44	C	-0.020717	0.596603	0.039667
C45	C	-0.081330	0.596600	0.039667
N46	N	0.071973	0.638888	0.064566
N47	N	0.129552	0.638895	0.064565
C48	C	0.192208	0.633738	-0.000004
N49	N	0.195102	0.628588	-0.064570
N50	N	0.137516	0.628585	-0.064568
C51	C	0.075308	0.633731	-0.000002
C52	C	0.288236	0.670860	-0.039687
C53	C	0.348860	0.670853	-0.039696
C54	C	0.348864	0.596614	0.039664
C55	C	0.288246	0.596616	0.039666
C56	C	0.257933	0.633743	-0.000008
C57	C	0.633759	0.443652	-0.000005
C58	C	0.633758	0.379140	-0.000002
C59	C	0.559524	0.385955	0.039666
C60	C	0.559523	0.325339	0.039669
C61	C	0.633760	0.257910	-0.000010
C62	C	0.708003	0.251097	-0.039680
C63	C	0.708002	0.311713	-0.039676
N64	N	0.689019	0.135110	-0.064587
N65	N	0.689015	0.077530	-0.064590
C66	C	0.633767	0.075277	-0.000024
N67	N	0.578511	0.132784	0.064544
N68	N	0.578512	0.190370	0.064545
C69	C	0.633769	0.192178	-0.000019
C70	C	0.559527	0.016368	0.039651
C71	C	0.559529	-0.044250	0.039656
C72	C	0.708011	-0.118492	-0.039699
C73	C	0.708007	-0.057874	-0.039697
C74	C	0.633763	0.009553	-0.000024
C75	C	0.823844	0.633728	-0.000008
C76	C	0.888356	0.633727	-0.000007
C77	C	0.633770	0.633722	-0.203207
C78	C	0.633773	0.633719	-0.272169
C79	C	0.633765	0.823812	-0.000020
C80	C	0.633766	0.888324	-0.000022
C81	C	0.708008	0.596598	-0.344243
C82	C	0.708006	0.596604	-0.409037
C83	C	0.633767	0.633728	-0.401757
C84	C	0.559527	0.670853	-0.329676
C85	C	0.559530	0.670851	-0.264883
C86	C	0.559512	0.670864	-0.590979
C87	C	0.559515	0.670862	-0.655780
C88	C	0.707988	0.596618	-0.735134
C89	C	0.707991	0.596616	-0.670340
C90	C	0.633751	0.633744	-0.598265
C91	C	0.633755	0.633738	-0.528008
C92	C	0.633763	0.633730	-0.472013
C93	C	0.633754	0.633742	0.203183
C94	C	0.633751	0.633745	0.272145
C95	C	0.443683	0.823816	-0.000023
C96	C	0.379172	0.888329	-0.000027
C97	C	0.443672	0.633746	0.203179
C98	C	0.379157	0.633750	0.272140
C99	C	0.443675	0.823826	0.203171
C100	C	0.379161	0.888342	0.272130
C101	C	0.823849	0.443638	-0.203195
C102	C	0.888363	0.379122	-0.272154
C103	C	0.823841	0.443648	-0.000001
C104	C	0.888352	0.379135	0.000003
C105	C	0.823852	0.633718	-0.203203
C106	C	0.888367	0.633714	-0.272164
C107	C	0.348878	0.881506	-0.039712
C108	C	0.288271	0.942117	-0.039731
C109	C	0.257956	1.009550	-0.000060
C110	C	0.288256	1.016372	0.039626
C111	C	0.348865	0.955762	0.039640
C112	C	0.348859	0.670871	0.344208
C113	C	0.288249	0.670873	0.409010
C114	C	0.257933	0.633757	0.401743
C115	C	0.288237	0.596632	0.329668
C116	C	0.348850	0.596626	0.264867
C117	C	0.348867	0.955761	0.264834
C118	C	0.288258	1.016387	0.329622
C119	C	0.257940	1.009592	0.401705
C120	C	0.288240	0.942166	0.408999
C121	C	0.348852	0.881542	0.344212
C122	C	0.918664	0.311703	-0.264858
C123	C	0.979292	0.251077	-0.329646
C124	C	1.009614	0.257872	-0.401729
C125	C	0.979309	0.325298	-0.409023
C126	C	0.918687	0.385922	-0.344236
C127	C	0.918652	0.385958	0.039681
C128	C	0.979276	0.325347	0.039682
C129	C	1.009593	0.257914	0.000009
C130	C	0.979290	0.251092	-0.039674
C131	C	0.918672	0.311702	-0.039679
C132	C	0.918663	0.670837	-0.264872
C133	C	0.979274	0.670846	-0.329663
C134	C	1.009591	0.633728	-0.401743
C135	C	0.979289	0.596604	-0.409033
C136	C	0.918676	0.596599	-0.344244
H137	H	-0.105997	0.566370	0.071973
H138	H	0.893980	0.306157	-0.206171
H139	H	0.003944	0.701076	-0.071992
H140	H	0.768444	0.566383	-0.676275
H141	H	0.768456	-0.173394	-0.072008
H142	H	1.003939	0.701076	-0.323712
F143	F	0.011544	0.557101	0.081894
F144	F	1.011563	0.179319	-0.081893
F145	F	0.255965	0.934945	0.485720
F146	F	0.381096	0.963034	0.081886
H147	H	0.894016	0.440816	-0.350185
F148	F	0.886399	0.457720	0.081908
H149	H	0.263556	0.701088	-0.071994
F150	F	0.193422	0.633770	0.470718
F151	F	0.381125	0.557107	0.081888
F152	F	1.011513	0.332622	0.081923
H153	H	0.373510	0.826648	0.350162
H154	H	0.263546	0.566413	0.323762
H155	H	0.499069	0.440853	0.071966
F156	F	0.381109	0.710380	0.351959
H157	H	0.263576	0.566391	0.071975
F158	F	0.886444	0.557080	-0.352016
H159	H	0.499071	0.330888	0.071971
H160	H	1.058947	0.633738	-0.454493
H161	H	1.003983	0.566384	-0.467730
F162	F	0.787010	0.179333	-0.081906
F163	F	1.011531	0.179325	-0.321867
F164	F	0.787017	-0.065128	-0.081922
F165	F	0.886408	0.710346	-0.188165
F166	F	0.886426	0.304430	-0.081908
F167	F	0.256032	0.934842	-0.081969
H168	H	1.058952	0.208567	0.000019
F169	F	1.074134	0.193344	-0.470675
F170	F	0.787024	0.557084	-0.352000
F171	F	0.480511	0.088131	0.081878
F172	F	-0.113593	0.710349	-0.081918
F173	F	0.381086	0.557118	0.188168
F174	F	0.787017	0.557094	-0.485743
F175	F	0.381126	0.963009	0.188125
H176	H	1.004005	0.330822	-0.467720
H177	H	0.768438	0.566388	-0.793827
F178	F	0.381133	0.809744	-0.081941
F179	F	0.480497	0.710376	-0.648026
F180	F	0.480499	0.710356	-0.514279
F181	F	0.381109	0.710359	-0.081929
H182	H	0.768453	0.306158	-0.071976
F183	F	0.193448	1.074051	-0.000081
H184	H	0.499080	0.701078	-0.206197
F185	F	0.480517	0.710364	-0.321929
F186	F	0.480515	-0.036993	0.081886
H187	H	0.208585	1.058961	0.454452
F188	F	0.255982	1.088145	0.081846
H189	H	0.263583	0.701107	0.467691
F190	F	0.256018	1.088139	0.321843
