data_functionalizedCrystal
_audit_creation_method	'MofGen! by Chris Wilmer'
_symmetry_space_group_name_H-M	'P1'
_symmetry_Int_Tables_number	1
_symmetry_cell_setting	triclinic
loop_
_symmetry_equiv_pos_as_xyz
  x,y,z
_cell_length_a	16.120490
_cell_length_b	16.120444
_cell_length_c	12.759393
_cell_angle_alpha	92.864729
_cell_angle_beta	87.082653
_cell_angle_gamma	90.165174
loop_
_atom_site_label
_atom_site_type_symbol
_atom_site_fract_x
_atom_site_fract_y
_atom_site_fract_z
Zn1	Zn	1.254487	-0.395628	-0.699338
Zn2	Zn	1.504487	-0.145628	-0.449338
Zn3	Zn	1.754487	0.104372	-0.199338
Zn4	Zn	2.004487	0.354372	0.050662
Zn5	Zn	1.247323	-0.534700	-0.532073
Zn6	Zn	1.497323	-0.284700	-0.282073
Zn7	Zn	1.747323	-0.034700	-0.032073
Zn8	Zn	1.997323	0.215300	0.217927
Zn9	Zn	1.115421	-0.388601	-0.514348
Zn10	Zn	1.365421	-0.138601	-0.264348
Zn11	Zn	1.615421	0.111399	-0.014348
Zn12	Zn	1.865421	0.361399	0.235652
Zn13	Zn	1.108336	-0.527574	-0.698383
Zn14	Zn	1.358336	-0.277574	-0.448383
Zn15	Zn	1.608336	-0.027574	-0.198383
Zn16	Zn	1.858336	0.222426	0.051617
O17	O	1.181392	-0.461626	-0.611035
O18	O	1.431392	-0.211626	-0.361035
O19	O	1.681392	0.038374	-0.111035
O20	O	1.931392	0.288374	0.138965
O21	O	1.369902	-0.420000	-0.684968
O22	O	1.619902	-0.170000	-0.434968
O23	O	1.869902	0.080000	-0.184968
O24	O	2.119902	0.330000	0.065032
O25	O	1.229793	-0.515361	-0.382701
O26	O	1.479793	-0.265361	-0.132701
O27	O	1.729793	-0.015361	0.117299
O28	O	1.979793	0.234639	0.367299
O29	O	1.139832	-0.273170	-0.531869
O30	O	1.389832	-0.023170	-0.281869
O31	O	1.639832	0.226830	-0.031869
O32	O	1.889832	0.476830	0.218131
O33	O	1.364639	-0.522175	-0.562078
O34	O	1.614639	-0.272175	-0.312078
O35	O	1.864639	-0.022175	-0.062078
O36	O	2.114639	0.227825	0.187922
O37	O	1.242003	-0.278333	-0.667781
O38	O	1.492003	-0.028333	-0.417781
O39	O	1.742003	0.221667	-0.167781
O40	O	1.992003	0.471667	0.082219
O41	O	1.132885	-0.408022	-0.369679
O42	O	1.382885	-0.158022	-0.119679
O43	O	1.632885	0.091978	0.130321
O44	O	1.882885	0.341978	0.380321
O45	O	0.998116	-0.401112	-0.530943
O46	O	1.248116	-0.151112	-0.280943
O47	O	1.498116	0.098888	-0.030943
O48	O	1.748116	0.348888	0.219057
O49	O	1.127757	-0.510030	-0.845530
O50	O	1.377757	-0.260030	-0.595530
O51	O	1.627757	-0.010030	-0.345530
O52	O	1.877757	0.239970	-0.095530
O53	O	0.992910	-0.503215	-0.666153
O54	O	1.242910	-0.253215	-0.416153
O55	O	1.492910	-0.003215	-0.166153
O56	O	1.742910	0.246785	0.083847
O57	O	1.235133	-0.413090	-0.846232
O58	O	1.485133	-0.163090	-0.596232
O59	O	1.735133	0.086910	-0.346232
O60	O	1.985133	0.336910	-0.096232
O61	O	1.222923	-0.650117	-0.561152
O62	O	1.472923	-0.400117	-0.311152
O63	O	1.722923	-0.150117	-0.061152
O64	O	1.972923	0.099883	0.188848
O65	O	1.120810	-0.644882	-0.683340
O66	O	1.370810	-0.394882	-0.433340
O67	O	1.620810	-0.144882	-0.183340
O68	O	1.870810	0.105118	0.066660
C69	C	0.965341	-0.450629	-0.596521
C70	C	1.215341	-0.200629	-0.346521
C71	C	1.465341	0.049371	-0.096521
C72	C	1.715341	0.299371	0.153479
C73	C	0.872912	-0.445944	-0.590338
C74	C	1.122912	-0.195944	-0.340338
C75	C	1.372912	0.054056	-0.090338
C76	C	1.622912	0.304056	0.159662
C77	C	1.170343	-0.677672	-0.624090
C78	C	1.420343	-0.427672	-0.374090
C79	C	1.670343	-0.177672	-0.124090
C80	C	1.920343	0.072328	0.125910
C81	C	1.165692	-0.770102	-0.629715
C82	C	1.415692	-0.520102	-0.379715
C83	C	1.665692	-0.270102	-0.129715
C84	C	1.915692	-0.020102	0.120285
C85	C	0.659943	-0.485919	-0.643109
C86	C	0.909943	-0.235919	-0.393109
C87	C	1.159943	0.014081	-0.143109
C88	C	1.409943	0.264081	0.106891
C89	C	0.703689	-0.437399	-0.579049
C90	C	0.953689	-0.187399	-0.329049
C91	C	1.203689	0.062601	-0.079049
C92	C	1.453689	0.312601	0.170951
C93	C	0.797853	-0.442155	-0.585332
C94	C	1.047853	-0.192155	-0.335332
C95	C	1.297853	0.057845	-0.085332
C96	C	1.547853	0.307845	0.164668
C97	C	0.565770	-0.481164	-0.636827
C98	C	0.815770	-0.231164	-0.386827
C99	C	1.065770	0.018836	-0.136827
C100	C	1.315770	0.268836	0.113173
C101	C	1.205721	-0.983081	-0.582095
C102	C	1.455721	-0.733081	-0.332095
C103	C	1.705721	-0.483081	-0.082095
C104	C	1.955721	-0.233081	0.167905
C105	C	1.157217	-0.939327	-0.639997
C106	C	1.407217	-0.689327	-0.389997
C107	C	1.657217	-0.439327	-0.139997
C108	C	1.907217	-0.189327	0.110003
C109	C	1.161934	-0.845161	-0.634274
C110	C	1.411934	-0.595161	-0.384274
C111	C	1.661934	-0.345161	-0.134274
C112	C	1.911934	-0.095161	0.115726
C113	C	1.201005	-1.077255	-0.587816
C114	C	1.451005	-0.827255	-0.337816
C115	C	1.701005	-0.577255	-0.087816
C116	C	1.951005	-0.327255	0.162184
C117	C	1.398287	-0.472666	-0.625607
C118	C	1.648287	-0.222666	-0.375607
C119	C	1.898287	0.027334	-0.125607
C120	C	2.148287	0.277334	0.124393
C121	C	1.490714	-0.477371	-0.631816
C122	C	1.740714	-0.227371	-0.381816
C123	C	1.990714	0.022629	-0.131816
C124	C	2.240714	0.272629	0.118184
C125	C	1.181453	-0.461549	-0.885068
C126	C	1.431453	-0.211549	-0.635068
C127	C	1.681453	0.038451	-0.385068
C128	C	1.931453	0.288451	-0.135068
C129	C	1.181480	-0.461516	-1.001844
C130	C	1.431480	-0.211516	-0.751844
C131	C	1.681480	0.038484	-0.501844
C132	C	1.931480	0.288484	-0.251844
C133	C	1.192507	-0.244737	-0.597954
C134	C	1.442507	0.005263	-0.347954
C135	C	1.692507	0.255263	-0.097954
C136	C	1.942507	0.505263	0.152046
C137	C	1.197243	-0.152311	-0.592380
C138	C	1.447243	0.097689	-0.342380
C139	C	1.697243	0.347689	-0.092380
C140	C	1.947243	0.597689	0.157620
C141	C	1.231943	-0.517387	-1.063483
C142	C	1.481943	-0.267387	-0.813483
C143	C	1.731943	-0.017387	-0.563483
C144	C	1.981943	0.232613	-0.313483
C145	C	1.231970	-0.517353	-1.173207
C146	C	1.481970	-0.267353	-0.923207
C147	C	1.731970	-0.017353	-0.673207
C148	C	1.981970	0.232647	-0.423207
C149	C	1.131063	-0.405574	-1.159642
C150	C	1.381063	-0.155574	-0.909642
C151	C	1.631063	0.094426	-0.659642
C152	C	1.881063	0.344426	-0.409642
C153	C	1.131041	-0.405605	-1.049921
C154	C	1.381041	-0.155605	-0.799921
C155	C	1.631041	0.094395	-0.549921
C156	C	1.881041	0.344395	-0.299921
C157	C	1.290198	-0.581924	-1.071316
C158	C	1.540198	-0.331924	-0.821316
C159	C	1.790198	-0.081924	-0.571316
C160	C	2.040198	0.168076	-0.321316
C161	C	1.290225	-0.581890	-1.181039
C162	C	1.540225	-0.331890	-0.931039
C163	C	1.790225	-0.081890	-0.681039
C164	C	2.040225	0.168110	-0.431039
C165	C	1.181382	-0.461644	-0.338069
C166	C	1.431382	-0.211644	-0.088069
C167	C	1.681382	0.038356	0.161931
C168	C	1.931382	0.288356	0.411931
C169	C	1.181528	-0.461451	-0.221290
C170	C	1.431528	-0.211451	0.028710
C171	C	1.681528	0.038549	0.278710
C172	C	1.931528	0.288549	0.528710
H173	H	0.670420	-0.392288	-0.519486
H174	H	0.920420	-0.142288	-0.269486
H175	H	1.170420	0.107712	-0.019486
H176	H	1.420420	0.357712	0.230514
H177	H	0.693209	-0.531027	-0.702667
H178	H	0.943209	-0.281027	-0.452667
H179	H	1.193209	-0.031027	-0.202667
H180	H	1.443209	0.218973	0.047333
H181	H	1.112147	-0.972589	-0.693866
H182	H	1.362147	-0.722589	-0.443866
H183	H	1.612147	-0.472589	-0.193866
H184	H	1.862147	-0.222589	0.056134
N185	N	1.262257	-0.941348	-0.514529
N186	N	1.512257	-0.691348	-0.264529
N187	N	1.762257	-0.441348	-0.014529
N188	N	2.012257	-0.191348	0.235471
N189	N	1.266053	-0.863803	-0.509924
N190	N	1.516053	-0.613803	-0.259924
N191	N	1.766053	-0.363803	-0.009924
N192	N	2.016053	-0.113803	0.240076
H193	H	1.305980	-0.834320	-0.462206
H194	H	1.555980	-0.584320	-0.212206
H195	H	1.805980	-0.334320	0.037794
H196	H	2.055980	-0.084320	0.287794
H197	H	1.089956	-0.360103	-0.999738
H198	H	1.339956	-0.110103	-0.749738
H199	H	1.589956	0.139897	-0.499738
H200	H	1.839956	0.389897	-0.249738
H201	H	1.269679	-0.645405	-1.213543
H202	H	1.519679	-0.395405	-0.963543
H203	H	1.769679	-0.145405	-0.713543
H204	H	2.019679	0.104595	-0.463543
H205	H	1.089998	-0.360053	-1.198800
H206	H	1.339998	-0.110053	-0.948800
H207	H	1.589998	0.139947	-0.698800
H208	H	1.839998	0.389947	-0.448800
N209	N	1.372096	-0.564417	-1.038096
N210	N	1.622096	-0.314417	-0.788096
N211	N	1.872096	-0.064417	-0.538096
N212	N	2.122096	0.185583	-0.288096
N213	N	1.429814	-0.552050	-1.104670
N214	N	1.679814	-0.302050	-0.854670
N215	N	1.929814	-0.052050	-0.604670
N216	N	2.179814	0.197950	-0.354670
H217	H	1.487653	-0.539686	-1.081210
H218	H	1.737653	-0.289686	-0.831210
H219	H	1.987653	-0.039686	-0.581210
H220	H	2.237653	0.210314	-0.331210
H221	H	1.263994	-0.641938	-1.039423
H222	H	1.513994	-0.391938	-0.789423
H223	H	1.763994	-0.141938	-0.539423
H224	H	2.013994	0.108062	-0.289423
H225	H	1.352596	-0.561932	-1.217790
H226	H	1.602596	-0.311932	-0.967790
H227	H	1.852596	-0.061932	-0.717790
H228	H	2.102596	0.188068	-0.467790
