data_functionalizedCrystal
_audit_creation_method	'MofGen! by Chris Wilmer'
_symmetry_space_group_name_H-M	'P1'
_symmetry_Int_Tables_number	1
_symmetry_cell_setting	triclinic
loop_
_symmetry_equiv_pos_as_xyz
  x,y,z
_cell_length_a	23.532407
_cell_length_b	23.532407
_cell_length_c	10.065875
_cell_angle_alpha	81.313937
_cell_angle_beta	98.729142
_cell_angle_gamma	82.848678
loop_
_atom_site_label
_atom_site_type_symbol
_atom_site_fract_x
_atom_site_fract_y
_atom_site_fract_z
O1	O	0.060728	0.763628	-0.113333
O2	O	0.070728	0.597768	-0.113375
O3	O	-0.017202	0.685697	-0.113328
O4	O	0.148658	0.675698	-0.113380
O5	O	-0.000368	0.668930	0.113652
O6	O	0.087562	0.581000	0.113604
O7	O	0.077562	0.746860	0.113647
Zn8	Zn	0.085235	0.661268	0.149663
Zn9	Zn	0.063055	0.683360	-0.149392
O10	O	0.165492	0.658931	0.113599
C11	C	0.078890	0.568168	0.000110
C12	C	0.078123	0.504952	0.000095
C13	C	-0.030000	0.677059	0.000165
C14	C	-0.093217	0.676292	0.000176
C15	C	0.125360	0.105846	0.000142
C16	C	0.124649	0.046445	0.000150
O17	O	0.168438	0.009698	0.000186
N18	N	0.072374	0.023818	0.000164
C19	C	0.020807	0.060594	0.000184
O20	O	-0.023722	0.035893	0.000198
C21	C	0.021519	0.119993	0.000185
C22	C	0.073797	0.142618	0.000157
C23	C	0.177634	0.128471	0.000115
C24	C	0.178344	0.187868	0.000104
C25	C	0.126781	0.224640	0.000119
C26	C	0.074507	0.202014	0.000146
C27	C	-0.030046	0.156767	0.000215
C28	C	-0.029329	0.216169	0.000217
C29	C	0.022948	0.238794	0.000189
C30	C	0.023655	0.298183	0.000150
N31	N	0.075930	0.320810	0.000136
C32	C	0.127493	0.284039	0.000121
C33	C	0.019316	-0.064149	0.000184
C34	C	0.018602	-0.123546	0.000173
C35	C	0.122445	-0.137691	0.000142
C36	C	0.123157	-0.078292	0.000143
C37	C	0.071591	-0.041522	0.000170
C38	C	0.128981	0.408777	0.000096
C39	C	0.129686	0.468181	0.000079
C40	C	0.025845	0.482320	0.000118
C41	C	0.025138	0.422922	0.000127
C42	C	0.076711	0.386152	0.000121
O43	O	-0.020111	0.334965	0.000120
O44	O	0.172016	0.308746	0.000124
C45	C	-0.492324	0.723530	0.000113
C46	C	-0.551725	0.722819	0.000102
O47	O	-0.588473	0.766608	0.000063
N48	N	-0.574352	0.670544	0.000090
C49	C	-0.537576	0.618977	0.000074
O50	O	-0.562277	0.574448	0.000062
C51	C	-0.478177	0.619689	0.000075
C52	C	-0.455552	0.671967	0.000101
C53	C	-0.469699	0.775804	0.000137
C54	C	-0.410302	0.776514	0.000150
C55	C	-0.373530	0.724951	0.000139
C56	C	-0.396155	0.672677	0.000114
C57	C	-0.441402	0.568123	0.000050
C58	C	-0.382000	0.568840	0.000050
C59	C	-0.359375	0.621118	0.000076
C60	C	-0.299986	0.621824	0.000116
N61	N	-0.277359	0.674099	0.000128
C62	C	-0.314131	0.725663	0.000140
C63	C	-0.662319	0.617486	0.000070
C64	C	-0.721716	0.616773	0.000079
C65	C	-0.735862	0.720616	0.000105
C66	C	-0.676463	0.721328	0.000105
C67	C	-0.639692	0.669761	0.000083
C68	C	-0.189392	0.727150	0.000168
C69	C	-0.129989	0.727856	0.000187
C70	C	-0.115849	0.624013	0.000155
C71	C	-0.175247	0.623307	0.000143
C72	C	-0.212018	0.674881	0.000145
O73	O	-0.263204	0.578058	0.000150
O74	O	-0.289424	0.770186	0.000134
C75	C	0.178290	0.667570	0.000103
C76	C	0.241506	0.668337	0.000084
N77	N	0.100371	0.646195	0.353761
C78	C	0.069400	0.776460	0.000159
C79	C	0.070166	0.839677	0.000165
N80	N	0.047914	0.698437	-0.353490
C81	C	0.068318	0.678112	0.421557
C82	C	0.079972	0.666516	0.578718
H83	H	0.170977	0.378844	0.000095
O84	O	-0.505500	0.825849	0.000090
C85	C	-0.603264	0.870789	0.000197
C86	C	-0.562793	0.814070	0.000207
H87	H	-0.649591	0.861283	0.000321
H88	H	-0.602154	0.903558	-0.094806
H89	H	-0.587993	0.889511	0.095176
H90	H	-0.578035	0.795296	-0.094707
H91	H	-0.563908	0.781339	0.095273
O92	O	-0.771544	0.770758	-0.000079
C93	C	-0.810560	0.867964	-0.117708
C94	C	-0.770119	0.811220	-0.117654
H95	H	-0.809431	0.900688	-0.212772
H96	H	-0.795336	0.886739	-0.022778
H97	H	-0.856890	0.858453	-0.117653
H98	H	-0.723779	0.820683	-0.117757
H99	H	-0.785393	0.792461	-0.212577
O100	O	-0.079399	0.251959	0.000055
C101	C	-0.147607	0.335888	-0.117565
C102	C	-0.090890	0.295411	-0.117531
H103	H	-0.156922	0.371021	-0.212637
H104	H	-0.142839	0.357085	-0.022643
H105	H	-0.185075	0.309494	-0.117479
H106	H	-0.053393	0.321764	-0.117665
H107	H	-0.095708	0.274212	-0.212444
H108	H	0.032247	0.714020	0.363252
O109	O	0.004903	0.741308	0.576981
C110	C	-0.032567	0.843675	0.532469
C111	C	0.016179	0.795208	0.611410
H112	H	-0.023461	0.887267	0.560254
H113	H	-0.076057	0.834355	0.560466
H114	H	-0.034250	0.845285	0.418156
H115	H	0.017916	0.793571	0.725741
H116	H	0.059646	0.804547	0.583300
H117	H	-0.219325	0.769147	0.000165
O118	O	-0.463383	0.517339	0.000251
C119	C	-0.513547	0.447583	0.117734
C120	C	-0.488669	0.505099	0.117700
H121	H	-0.534008	0.437676	0.212667
H122	H	-0.477072	0.410827	0.117802
H123	H	-0.548018	0.451686	0.022690
H124	H	-0.454207	0.501053	0.212728
H125	H	-0.525177	0.541832	0.117561
O126	O	-0.025690	0.401033	0.000197
C127	C	-0.128618	0.421346	0.000136
C128	C	-0.071095	0.446205	0.000076
H129	H	-0.165345	0.457857	0.000009
H130	H	-0.124542	0.386901	0.095158
H131	H	-0.138558	0.400876	-0.094824
H132	H	-0.061121	0.466704	0.094971
H133	H	-0.075200	0.480621	-0.095009
O134	O	-0.032227	-0.145428	0.000244
C135	C	-0.135154	-0.125107	0.000192
C136	C	-0.077627	-0.100254	0.000133
H137	H	-0.171878	-0.088593	0.000073
H138	H	-0.131080	-0.159553	0.095210
H139	H	-0.145098	-0.145573	-0.094771
H140	H	-0.067650	-0.079757	0.095032
H141	H	-0.081731	-0.065835	-0.094948
H142	H	-0.632382	0.575491	0.000064
O143	O	-0.388429	0.827353	0.000104
C144	C	-0.408745	0.930268	0.000203
C145	C	-0.433589	0.872733	0.000229
H146	H	-0.445243	0.966971	0.000333
H147	H	-0.388353	0.940259	-0.094808
H148	H	-0.374234	0.926157	0.095173
H149	H	-0.468121	0.876801	-0.094677
H150	H	-0.453944	0.862763	0.095303
H151	H	0.116042	0.630601	0.637019
O152	O	-0.743599	0.565943	0.000009
C153	C	-0.723277	0.463016	0.000065
C154	C	-0.698424	0.520543	0.000123
H155	H	-0.686763	0.426292	0.000186
H156	H	-0.757749	0.467063	-0.094955
H157	H	-0.743717	0.453099	0.095027
H158	H	-0.677953	0.530493	-0.094774
H159	H	-0.663979	0.516466	0.095206
O160	O	-0.346358	0.518690	0.000088
C161	C	-0.338610	0.415625	-0.000043
C162	C	-0.379035	0.472374	-0.000058
H163	H	-0.365015	0.378167	-0.000191
H164	H	-0.303417	0.406298	0.094972
H165	H	-0.317472	0.420411	-0.095009
H166	H	-0.400214	0.467632	0.094843
H167	H	-0.414193	0.481682	-0.095136
H168	H	0.165726	-0.059876	0.000128
O169	O	-0.197310	0.572575	-0.000052
C170	C	-0.264846	0.520185	-0.117732
C171	C	-0.239924	0.577675	-0.117648
H172	H	-0.299296	0.524284	-0.212813
H173	H	-0.285312	0.510235	-0.022819
H174	H	-0.228345	0.483457	-0.117665
H175	H	-0.276392	0.614440	-0.117764
H176	H	-0.219443	0.587574	-0.212554
H177	H	-0.658046	0.763897	0.000126
H178	H	0.164431	-0.167642	0.000135
O179	O	0.143409	0.603313	0.423097
C180	C	0.219747	0.527350	0.408330
C181	C	0.171017	0.575887	0.329642
H182	H	0.242090	0.505170	0.332805
H183	H	0.200350	0.494015	0.475200
H184	H	0.252905	0.546961	0.475253
H185	H	0.137843	0.556328	0.262644
H186	H	0.190455	0.609215	0.262857
H187	H	0.172259	0.486598	0.000055
H188	H	0.220914	0.206283	0.000080
H189	H	0.219625	0.098536	0.000107
H190	H	-0.022679	-0.034212	0.000194
H191	H	-0.085898	0.582032	0.000150
H192	H	-0.072616	0.138357	0.000239
H193	H	-0.111571	0.770428	0.000212
H194	H	-0.016137	0.512270	0.000125
