data_functionalizedCrystal
_audit_creation_method	'MofGen! by Chris Wilmer'
_symmetry_space_group_name_H-M	'P1'
_symmetry_Int_Tables_number	1
_symmetry_cell_setting	triclinic
loop_
_symmetry_equiv_pos_as_xyz
  x,y,z
_cell_length_a	13.032831
_cell_length_b	12.594516
_cell_length_c	13.033352
_cell_angle_alpha	82.826646
_cell_angle_beta	89.095163
_cell_angle_gamma	82.816889
loop_
_atom_site_label
_atom_site_type_symbol
_atom_site_fract_x
_atom_site_fract_y
_atom_site_fract_z
Zn1	Zn	1.498341	-0.719114	0.780831
Zn2	Zn	1.998341	-0.219114	1.280831
Zn3	Zn	1.520145	-0.877636	0.608862
Zn4	Zn	2.020145	-0.377636	1.108862
Zn5	Zn	1.348247	-0.674578	0.587077
Zn6	Zn	1.848247	-0.174578	1.087077
Zn7	Zn	1.326352	-0.871936	0.758982
Zn8	Zn	1.826352	-0.371936	1.258982
O9	O	1.423271	-0.785816	0.683938
O10	O	1.923271	-0.285816	1.183938
O11	O	1.645151	-0.761166	0.776280
O12	O	2.145151	-0.261166	1.276280
O13	O	1.515630	-0.834447	0.462060
O14	O	2.015630	-0.334447	0.962060
O15	O	1.368195	-0.531548	0.612806
O16	O	1.868195	-0.031548	1.112806
O17	O	1.661170	-0.877631	0.649935
O18	O	2.161170	-0.377631	1.149935
O19	O	1.478468	-0.564268	0.755156
O20	O	1.978468	-0.064268	1.255156
O21	O	1.389337	-0.685261	0.446055
O22	O	1.889337	-0.185261	0.946055
O23	O	1.201425	-0.679734	0.591620
O24	O	1.701425	-0.179734	1.091620
O25	O	1.330879	-0.867917	0.905793
O26	O	1.830879	-0.367917	1.405793
O27	O	1.185339	-0.824733	0.717918
O28	O	1.685339	-0.324733	1.217918
O29	O	1.457238	-0.755639	0.921845
O30	O	1.957238	-0.255639	1.421845
O31	O	1.494400	-1.025817	0.628749
O32	O	1.994400	-0.525817	1.128749
O33	O	1.352021	-1.021630	0.739041
O34	O	1.852021	-0.521630	1.239041
C35	C	1.156065	-0.746783	0.650034
C36	C	1.656065	-0.246783	1.150034
C37	C	1.041750	-0.730113	0.635555
C38	C	1.541750	-0.230113	1.135555
C39	C	1.423226	-1.062348	0.683914
C40	C	1.923226	-0.562348	1.183914
C41	C	1.423296	-1.180667	0.683950
C42	C	1.923296	-0.680667	1.183950
C43	C	0.982866	-0.794516	0.691495
C44	C	1.482866	-0.294516	1.191495
C45	C	0.864715	-0.777289	0.676531
C46	C	1.364715	-0.277289	1.176531
C47	C	1.500806	-1.252179	0.624046
C48	C	2.000806	-0.752179	1.124046
C49	C	1.513987	-1.337175	0.721095
C50	C	2.013987	-0.837175	1.221095
C51	C	1.410236	-1.306496	0.586977
C52	C	1.910236	-0.806496	1.086977
C53	C	1.436518	-1.264117	0.781055
C54	C	1.936518	-0.764117	1.281055
C55	C	1.332732	-1.233419	0.646868
C56	C	1.832732	-0.733419	1.146868
C57	C	1.345869	-1.318384	0.743978
C58	C	1.845869	-0.818384	1.243978
C59	C	1.691520	-0.825002	0.717975
C60	C	2.191520	-0.325002	1.217975
C61	C	1.805832	-0.841701	0.732479
C62	C	2.305832	-0.341701	1.232479
C63	C	1.389184	-0.816110	0.952177
C64	C	1.889184	-0.316110	1.452177
C65	C	1.374658	-0.829019	1.066484
C66	C	1.874658	-0.329019	1.566484
C67	C	1.423342	-0.508211	0.683988
C68	C	1.923342	-0.008211	1.183988
C69	C	1.423372	-0.389912	0.684010
C70	C	1.923372	0.110088	1.184010
C71	C	1.430702	-0.779222	1.125389
C72	C	1.930702	-0.279222	1.625389
C73	C	1.415690	-0.792563	1.243532
C74	C	1.915690	-0.292563	1.743532
C75	C	1.457217	-0.755664	1.416742
C76	C	1.957217	-0.255664	1.916742
C77	C	1.471742	-0.742758	1.302434
C78	C	1.971742	-0.242758	1.802434
H79	H	1.019922	-0.862405	0.750470
H80	H	1.519922	-0.362405	1.250470
H81	H	1.530836	-0.690237	1.265405
H82	H	2.030836	-0.190237	1.765405
H83	H	0.827662	-0.709388	0.617560
H84	H	1.327662	-0.209388	1.117560
C85	C	1.335850	-0.863505	1.293542
C86	C	1.835850	-0.363505	1.793542
H87	H	1.302630	-0.893012	1.241265
H88	H	1.802630	-0.393012	1.741265
H89	H	1.369890	-0.920322	1.340435
H90	H	1.869890	-0.420322	1.840435
H91	H	1.285759	-0.820934	1.329766
H92	H	1.785759	-0.320934	1.829766
C93	C	1.589349	-1.212815	0.555684
C94	C	2.089349	-0.712815	1.055684
H95	H	1.561441	-1.160664	0.501037
H96	H	2.061441	-0.660664	1.001037
H97	H	1.634440	-1.181317	0.596224
H98	H	2.134440	-0.681317	1.096224
H99	H	1.626782	-1.272182	0.527602
H100	H	2.126782	-0.772182	1.027602
H101	H	1.399158	-1.325588	0.504943
H102	H	1.899158	-0.825588	1.004943
C103	C	1.617484	-1.398021	0.763510
C104	C	2.117484	-0.898021	1.263510
H105	H	1.605069	-1.445658	0.823608
H106	H	2.105069	-0.945658	1.323608
H107	H	1.650221	-1.438226	0.712456
H108	H	2.150221	-0.938226	1.212456
H109	H	1.661009	-1.347705	0.780649
H110	H	2.161009	-0.847705	1.280649
C111	C	1.451615	-1.238536	0.891921
C112	C	1.951615	-0.738536	1.391921
H113	H	1.451533	-1.163005	0.891218
H114	H	1.951533	-0.663005	1.391218
H115	H	1.396886	-1.261757	0.934574
H116	H	1.896886	-0.761757	1.434574
H117	H	1.515761	-1.275051	0.918360
H118	H	2.015761	-0.775051	1.418360
H119	H	1.315556	-0.881522	1.103518
H120	H	1.815556	-0.381522	1.603518
C121	C	0.991699	-0.638391	0.555892
C122	C	1.491699	-0.138391	1.055892
H123	H	0.918855	-0.638847	0.556283
H124	H	1.418855	-0.138847	1.056283
H125	H	1.007338	-0.571157	0.573270
H126	H	1.507338	-0.071157	1.073270
H127	H	1.018020	-0.648593	0.488969
H128	H	1.518020	-0.148593	0.988969
C129	C	1.257356	-1.357506	0.812533
C130	C	1.757356	-0.857506	1.312533
H131	H	1.266837	-1.343237	0.881402
H132	H	1.766837	-0.843237	1.381402
H133	H	1.193124	-1.320582	0.786765
H134	H	1.693124	-0.820582	1.286765
H135	H	1.257520	-1.432851	0.811743
H136	H	1.757520	-0.932851	1.311743
H137	H	0.842882	-0.909593	0.791461
H138	H	1.342882	-0.409593	1.291461
C139	C	1.229267	-1.172540	0.604423
C140	C	1.729267	-0.672540	1.104423
H141	H	1.220068	-1.186656	0.535458
H142	H	1.720068	-0.686656	1.035458
H143	H	1.174147	-1.196097	0.646294
H144	H	1.674147	-0.696097	1.146294
H145	H	1.229768	-1.097297	0.605308
H146	H	1.729768	-0.597297	1.105308
C147	C	1.510538	-0.708285	1.075369
C148	C	2.010538	-0.208285	1.575369
H149	H	1.510159	-0.708631	1.002526
H150	H	2.010159	-0.208631	1.502526
H151	H	1.493295	-0.636544	1.091027
H152	H	1.993295	-0.136544	1.591027
H153	H	1.577423	-0.735935	1.101688
H154	H	2.077423	-0.235935	1.601688
