data_functionalizedCrystal
_audit_creation_method	'MofGen! by Chris Wilmer'
_symmetry_space_group_name_H-M	'P1'
_symmetry_Int_Tables_number	1
_symmetry_cell_setting	triclinic
loop_
_symmetry_equiv_pos_as_xyz
  x,y,z
_cell_length_a	21.395362
_cell_length_b	18.215405
_cell_length_c	21.395356
_cell_angle_alpha	89.973989
_cell_angle_beta	89.957023
_cell_angle_gamma	90.038610
loop_
_atom_site_label
_atom_site_type_symbol
_atom_site_fract_x
_atom_site_fract_y
_atom_site_fract_z
Zn1	Zn	0.957888	-0.292691	-0.354593
Zn2	Zn	0.957807	-0.415759	-0.249818
Zn3	Zn	0.853105	-0.292745	-0.249794
Zn4	Zn	0.853087	-0.415754	-0.354523
O5	O	0.905472	-0.354237	-0.302182
O6	O	1.045555	-0.308995	-0.340734
O7	O	0.943892	-0.399465	-0.162137
O8	O	0.867046	-0.189753	-0.263715
O9	O	1.045496	-0.399413	-0.263756
O10	O	0.944030	-0.189714	-0.340710
O11	O	0.866967	-0.309087	-0.162119
O12	O	0.765425	-0.309083	-0.263647
O13	O	0.867016	-0.399405	-0.442210
O14	O	0.765411	-0.399458	-0.340591
O15	O	0.944013	-0.308991	-0.442262
O16	O	0.943874	-0.518743	-0.263689
O17	O	0.866937	-0.518739	-0.340615
C18	C	0.742684	-0.354276	-0.302110
C19	C	0.673043	-0.354311	-0.302093
C20	C	0.640339	-0.401431	-0.342098
C21	C	0.574904	-0.401413	-0.342126
C22	C	0.542175	-0.354282	-0.302138
C23	C	0.574886	-0.307153	-0.262130
C24	C	0.640320	-0.307167	-0.262108
C25	C	0.438450	-0.348364	-0.245733
C26	C	0.373017	-0.348355	-0.245754
C27	C	0.340354	-0.354234	-0.302207
C28	C	0.373132	-0.360138	-0.358641
C29	C	0.438566	-0.360152	-0.358619
C30	C	0.471222	-0.354261	-0.302158
C31	C	0.236698	-0.401338	-0.342245
C32	C	0.171261	-0.401314	-0.342274
C33	C	0.171245	-0.307058	-0.262273
C34	C	0.236680	-0.307077	-0.262250
C35	C	0.269403	-0.354221	-0.302235
C36	C	0.905412	-0.545444	-0.302161
C37	C	0.905443	-0.627242	-0.302172
C38	C	0.945548	-0.815355	-0.342318
C39	C	0.945571	-0.892213	-0.342330
C40	C	0.865473	-0.892368	-0.262085
C41	C	0.865448	-0.815510	-0.262077
C42	C	0.905489	-0.777006	-0.302193
C43	C	0.905537	-0.930722	-0.302212
C44	C	0.905561	-1.014056	-0.302225
C45	C	0.905464	-0.693667	-0.302181
C46	C	1.068895	-0.354199	-0.302256
C47	C	1.138536	-0.354182	-0.302287
C48	C	0.905521	-0.354192	-0.465606
C49	C	0.905542	-0.354172	-0.535247
C50	C	0.905549	-0.162284	-0.302218
C51	C	0.905582	-0.080485	-0.302233
C52	C	0.865498	-0.307107	-0.567941
C53	C	0.865496	-0.307094	-0.633376
C54	C	0.905549	-0.354137	-0.666115
C55	C	0.945596	-0.401211	-0.633413
C56	C	0.945592	-0.401229	-0.567979
C57	C	0.962002	-0.359905	-0.769821
C58	C	0.962006	-0.359882	-0.835254
C59	C	0.905559	-0.354088	-0.867936
C60	C	0.849106	-0.348300	-0.835177
C61	C	0.849103	-0.348318	-0.769743
C62	C	0.905557	-0.354124	-0.737068
C63	C	0.865510	-0.307005	-0.971583
C64	C	0.865507	-0.306997	-1.037019
C65	C	0.945612	-0.401111	-1.037055
C66	C	0.945609	-0.401123	-0.971620
C67	C	0.905559	-0.354066	-0.938887
C68	C	0.905459	-0.354230	-0.139395
C69	C	0.905559	-0.354042	-0.069754
H70	H	0.548271	-0.439784	-0.374705
H71	H	0.263308	-0.268710	-0.229671
H72	H	0.144597	-0.268680	-0.229717
H73	H	0.978225	-0.439413	-1.063711
C74	C	0.989568	-0.453060	-0.669427
N75	N	1.022658	-0.492151	-0.696553
H76	H	0.832874	-0.923728	-0.229424
C77	C	0.336968	-0.341856	-0.183676
N78	N	0.309817	-0.336957	-0.136918
C79	C	0.821371	-0.773324	-0.217940
N80	N	0.788170	-0.741550	-0.184701
H81	H	0.465039	-0.343574	-0.199758
C82	C	0.538883	-0.255309	-0.218143
N83	N	0.511765	-0.216257	-0.185012
C84	C	0.989658	-0.452991	-0.532015
N85	N	1.022855	-0.491974	-0.504925
C86	C	0.821446	-0.255313	-0.669347
N87	N	0.788269	-0.216310	-0.696438
H88	H	1.007971	-0.364617	-0.743216
C89	C	0.989683	-0.452874	-0.935655
N90	N	1.022886	-0.491848	-0.908567
H91	H	0.832884	-0.268793	-0.541294
C92	C	0.989590	-0.773002	-0.386450
N93	N	1.022763	-0.741105	-0.419693
C94	C	0.821455	-0.255216	-1.072983
N95	N	0.788276	-0.216212	-1.100071
C96	C	0.474619	-0.366645	-0.420694
N97	N	0.501774	-0.371534	-0.467451
H98	H	0.978190	-0.923434	-0.375005
C99	C	0.787005	-0.341959	-0.733711
N100	N	0.740232	-0.337174	-0.706572
H101	H	0.346539	-0.364924	-0.404611
H102	H	0.803142	-0.343577	-0.861786
C103	C	0.821448	-0.255250	-0.935575
N104	N	0.788259	-0.216269	-0.908456
H105	H	1.007974	-0.364591	-0.861921
C106	C	0.135287	-0.453160	-0.386280
N107	N	0.108191	-0.492214	-0.419423
H108	H	0.666978	-0.439818	-0.374658
H109	H	0.666947	-0.268794	-0.229531
C110	C	0.272695	-0.453188	-0.386237
N111	N	0.299806	-0.492240	-0.419373
