data_functionalizedCrystal
_audit_creation_method	'MofGen! by Chris Wilmer'
_symmetry_space_group_name_H-M	'P1'
_symmetry_Int_Tables_number	1
_symmetry_cell_setting	triclinic
loop_
_symmetry_equiv_pos_as_xyz
  x,y,z
_cell_length_a	12.759401
_cell_length_b	12.645330
_cell_length_c	12.759393
_cell_angle_alpha	90.030048
_cell_angle_beta	90.019684
_cell_angle_gamma	90.016806
loop_
_atom_site_label
_atom_site_type_symbol
_atom_site_fract_x
_atom_site_fract_y
_atom_site_fract_z
Zn1	Zn	1.606234	-0.422002	0.594026
Zn2	Zn	1.606119	-0.599306	0.418350
Zn3	Zn	1.430536	-0.422054	0.418361
Zn4	Zn	1.430515	-0.599221	0.593988
O5	O	1.518351	-0.510646	0.506181
O6	O	1.753239	-0.445535	0.570733
O7	O	1.582788	-0.575850	0.271331
O8	O	1.453899	-0.273700	0.441684
O9	O	1.753155	-0.575800	0.441665
O10	O	1.582983	-0.273662	0.570744
O11	O	1.453788	-0.445624	0.271339
O12	O	1.283512	-0.445542	0.441648
O13	O	1.453864	-0.575655	0.741014
O14	O	1.283497	-0.575706	0.570680
O15	O	1.582964	-0.445453	0.741042
O16	O	1.582768	-0.747642	0.441629
O17	O	1.453753	-0.747580	0.570669
C18	C	1.245383	-0.510621	0.506162
C19	C	1.128607	-0.510636	0.506178
C20	C	1.518274	-0.786075	0.506167
C21	C	1.518337	-0.903905	0.506196
C22	C	1.073722	-0.442771	0.439114
C23	C	0.963998	-0.442796	0.439128
C24	C	0.964053	-0.578555	0.573277
C25	C	1.073775	-0.578534	0.573258
C26	C	1.073689	-0.364388	0.361667
C27	C	0.963965	-0.364413	0.361681
C28	C	1.437509	-1.071474	0.587625
C29	C	1.437095	-0.948915	0.587363
C30	C	1.488364	-0.948509	0.395474
C31	C	1.487871	-1.071108	0.395968
C32	C	1.629634	-1.070994	0.534590
C33	C	1.628952	-0.948387	0.537011
C34	C	1.792384	-0.510671	0.506202
C35	C	1.909161	-0.510682	0.506211
C36	C	1.518424	-0.510539	0.780215
C37	C	1.518456	-0.510493	0.896992
C38	C	1.518456	-0.234140	0.506219
C39	C	1.518501	-0.116310	0.506235
C40	C	1.518338	-0.510676	0.233214
C41	C	1.518510	-0.510423	0.116438
C42	C	1.585687	-0.442690	0.951870
C43	C	1.585712	-0.442652	1.061594
C44	C	1.451271	-0.578228	1.061552
C45	C	1.451242	-0.578261	0.951830
C46	C	1.663309	-0.364420	0.951895
C47	C	1.663334	-0.364381	1.061619
H48	H	1.118459	-0.633807	0.627857
C49	C	1.377350	-0.652774	1.121878
H50	H	1.387000	-0.643050	1.195084
H51	H	1.306761	-0.637262	1.103893
H52	H	1.392703	-0.724012	1.103882
H53	H	1.651556	-0.919229	0.618497
C54	C	1.564083	-1.111187	0.311241
H55	H	1.595202	-1.052539	0.276666
H56	H	1.617227	-1.152856	0.343046
H57	H	1.526821	-1.152877	0.261720
H58	H	0.919396	-0.633835	0.627891
H59	H	1.107745	-0.286427	0.390943
H60	H	1.406632	-1.099800	0.371947
H61	H	1.689976	-1.099988	0.475310
H62	H	1.103420	-0.386272	0.280254
C63	C	0.917927	-0.404011	0.257200
H64	H	0.973351	-0.421622	0.210660
H65	H	0.876022	-0.464835	0.269581
H66	H	0.876015	-0.349989	0.226894
H67	H	0.934205	-0.282339	0.383615
C68	C	1.462391	-0.908164	0.698278
H69	H	1.473012	-0.966536	0.743904
H70	H	1.524126	-0.866217	0.696136
H71	H	1.405613	-0.866614	0.723235
C72	C	1.462507	-1.111326	0.698877
H73	H	1.522568	-1.155657	0.696692
H74	H	1.475872	-1.052700	0.743506
H75	H	1.404474	-1.150272	0.725054
C76	C	1.326901	-1.113205	0.562572
H77	H	1.329866	-1.157830	0.502724
H78	H	1.301102	-1.152196	0.620718
H79	H	1.281500	-1.055324	0.548794
H80	H	1.354706	-0.919681	0.568578
C81	C	1.767694	-0.404166	0.905910
H82	H	1.814201	-0.421838	0.961358
H83	H	1.755176	-0.464976	0.863988
H84	H	1.798114	-0.350190	0.864024
H85	H	1.545485	-0.919357	0.333175
H86	H	1.634224	-0.286374	1.095664
H87	H	1.692473	-0.917742	0.482048
H88	H	1.396492	-0.633468	0.907153
C89	C	1.379756	-0.907177	0.362439
H90	H	1.352533	-0.862752	0.415966
H91	H	1.386026	-0.868057	0.299213
H92	H	1.333692	-0.965235	0.351782
H93	H	1.641544	-0.282321	0.922136
C94	C	1.773243	-0.394112	1.101858
H95	H	1.818425	-0.406375	1.043949
H96	H	1.800324	-0.337920	1.143235
H97	H	1.768782	-0.456408	1.143203
C98	C	1.666571	-1.112643	0.641808
H99	H	1.614553	-1.158062	0.670285
H100	H	1.730140	-1.150771	0.633303
H101	H	1.677780	-1.054782	0.687994
