data_functionalizedCrystal
_audit_creation_method	'MofGen! by Chris Wilmer'
_symmetry_space_group_name_H-M	'P1'
_symmetry_Int_Tables_number	1
_symmetry_cell_setting	triclinic
loop_
_symmetry_equiv_pos_as_xyz
  x,y,z
_cell_length_a	12.759394
_cell_length_b	12.759401
_cell_length_c	12.759393
_cell_angle_alpha	90.019807
_cell_angle_beta	89.968822
_cell_angle_gamma	89.989084
loop_
_atom_site_label
_atom_site_type_symbol
_atom_site_fract_x
_atom_site_fract_y
_atom_site_fract_z
Zn1	Zn	-0.418326	-1.606252	-0.594018
Zn2	Zn	-0.594042	-1.606147	-0.418336
Zn3	Zn	-0.418365	-1.430555	-0.418353
Zn4	Zn	-0.593952	-1.430542	-0.593973
O5	O	-0.506171	-1.518374	-0.506170
O6	O	-0.441656	-1.753259	-0.570726
O7	O	-0.570792	-1.582815	-0.271317
O8	O	-0.271339	-1.453911	-0.441682
O9	O	-0.570754	-1.753182	-0.441653
O10	O	-0.271310	-1.582995	-0.570742
O11	O	-0.441723	-1.453809	-0.271330
O12	O	-0.441636	-1.283532	-0.441638
O13	O	-0.570600	-1.453890	-0.741000
O14	O	-0.570638	-1.283523	-0.570665
O15	O	-0.441569	-1.582983	-0.741034
O16	O	-0.741051	-1.582803	-0.441609
O17	O	-0.740985	-1.453787	-0.570649
C18	C	-0.506132	-1.245407	-0.506149
C19	C	-0.506141	-1.128630	-0.506165
C20	C	-0.439044	-1.073801	-0.573476
C21	C	-0.439058	-0.964077	-0.573479
C22	C	-0.573276	-0.964020	-0.438858
C23	C	-0.573255	-1.073742	-0.438850
C24	C	-0.371930	-1.128689	-0.640790
C25	C	-0.304828	-1.073860	-0.708107
C26	C	-0.304842	-0.964136	-0.708111
C27	C	-0.371958	-0.909241	-0.640798
C28	C	-0.779139	-1.518311	-0.506145
C29	C	-0.895915	-1.518380	-0.506169
C30	C	-0.895931	-1.652825	-0.371901
C31	C	-0.950799	-1.720075	-0.304779
C32	C	-1.060521	-1.720137	-0.304808
C33	C	-1.115376	-1.652943	-0.371967
C34	C	-1.060508	-1.585693	-0.439089
C35	C	-0.950784	-1.585637	-0.439051
C36	C	-1.060492	-1.451255	-0.573361
C37	C	-0.950771	-1.451187	-0.573329
C38	C	-1.115348	-1.384062	-0.640521
C39	C	-1.060479	-1.316805	-0.707639
C40	C	-0.950751	-1.316746	-0.707607
C41	C	-0.895902	-1.383937	-0.640451
C42	C	-0.232138	-1.518466	-0.506219
C43	C	-0.115361	-1.518505	-0.506239
C44	C	-0.506070	-1.518447	-0.780204
C45	C	-0.506028	-1.518478	-0.896980
C46	C	-0.506198	-0.792407	-0.506186
C47	C	-0.506176	-0.909184	-0.506177
C48	C	-0.573208	-1.585655	-0.951833
C49	C	-0.573163	-1.585686	-1.061558
C50	C	-0.438755	-1.451355	-1.061566
C51	C	-0.438795	-1.451329	-0.951844
C52	C	-0.640441	-1.652803	-0.896970
C53	C	-0.707627	-1.719985	-0.951823
C54	C	-0.707583	-1.720016	-1.061547
C55	C	-0.640351	-1.652866	-1.116418
C56	C	-0.506196	-1.518362	-0.233203
C57	C	-0.505942	-1.518535	-0.116427
H58	H	-0.371910	-1.218032	-0.640794
O59	O	-0.366338	-1.378878	-0.892667
H60	H	-0.384337	-1.296417	-0.913701
H61	H	-0.640488	-1.652782	-0.807627
H62	H	-1.105195	-1.774902	-0.250156
O63	O	-0.777560	-1.383854	-0.640423
H64	H	-0.748543	-1.463066	-0.661718
O65	O	-1.233719	-1.653004	-0.372002
H66	H	-1.262657	-1.711052	-0.314043
O67	O	-0.891641	-1.792552	-0.232345
H68	H	-0.912629	-1.875007	-0.250452
H69	H	-0.640312	-1.652906	-1.205763
O70	O	-0.780125	-1.792417	-0.892642
H71	H	-0.826821	-1.839146	-0.949222
H72	H	-0.250178	-1.118563	-0.762905
H73	H	-0.384019	-1.396684	-1.106251
H74	H	-0.250197	-0.919498	-0.762917
H75	H	-0.762282	-1.774726	-1.106206
H76	H	-0.627920	-0.919316	-0.384057
O77	O	-0.371977	-0.790895	-0.640796
H78	H	-0.314046	-0.761988	-0.698913
O79	O	-0.645626	-1.132891	-0.366257
H80	H	-0.692311	-1.076293	-0.319463
O81	O	-0.777588	-1.652753	-0.371869
H82	H	-0.748662	-1.710775	-0.313899
H83	H	-1.204689	-1.384122	-0.640544
O84	O	-1.119639	-1.244328	-0.780060
H85	H	-1.205153	-1.255666	-0.768800
O86	O	-0.891571	-1.244200	-0.779992
H87	H	-0.948152	-1.197484	-0.826684
