data_functionalizedCrystal
_audit_creation_method	'MofGen! by Chris Wilmer'
_symmetry_space_group_name_H-M	'P1'
_symmetry_Int_Tables_number	1
_symmetry_cell_setting	triclinic
loop_
_symmetry_equiv_pos_as_xyz
  x,y,z
_cell_length_a	12.759401
_cell_length_b	25.639239
_cell_length_c	12.759393
_cell_angle_alpha	89.964022
_cell_angle_beta	89.979062
_cell_angle_gamma	90.040211
loop_
_atom_site_label
_atom_site_type_symbol
_atom_site_fract_x
_atom_site_fract_y
_atom_site_fract_z
Zn1	Zn	1.606091	-0.208104	-0.593980
Zn2	Zn	1.605909	-0.295549	-0.418283
Zn3	Zn	1.430390	-0.208132	-0.418315
Zn4	Zn	1.430308	-0.295513	-0.593921
O5	O	1.518175	-0.251825	-0.506125
O6	O	1.753088	-0.219708	-0.570685
O7	O	1.582584	-0.283980	-0.271266
O8	O	1.453808	-0.134963	-0.441656
O9	O	1.752954	-0.283953	-0.441601
O10	O	1.582895	-0.134943	-0.570716
O11	O	1.453631	-0.219755	-0.271290
O12	O	1.283358	-0.219720	-0.441598
O13	O	1.453669	-0.283891	-0.740950
O14	O	1.283298	-0.283918	-0.570615
O15	O	1.582816	-0.219672	-0.740993
O16	O	1.582505	-0.368710	-0.441544
O17	O	1.453492	-0.368683	-0.570584
C18	C	1.245207	-0.251818	-0.506104
C19	C	1.128431	-0.251828	-0.506120
C20	C	1.517998	-0.387667	-0.506077
C21	C	1.518018	-0.445781	-0.506091
C22	C	1.073565	-0.285307	-0.573193
C23	C	0.963841	-0.285309	-0.573214
C24	C	0.963858	-0.218352	-0.439079
C25	C	1.073580	-0.218347	-0.439065
C26	C	0.813929	-0.304070	-0.697071
C27	C	0.759060	-0.337557	-0.764135
C28	C	0.794614	-0.388581	-0.780073
C29	C	0.885037	-0.406129	-0.728931
C30	C	0.939901	-0.372645	-0.661860
C31	C	0.904348	-0.321613	-0.645942
C32	C	1.223494	-0.199592	-0.315206
C33	C	1.278359	-0.166110	-0.248129
C34	C	1.242807	-0.115085	-0.232180
C35	C	1.152381	-0.097539	-0.283303
C36	C	1.097515	-0.131021	-0.350380
C37	C	1.133075	-0.182046	-0.366331
C38	C	1.585527	-0.806146	-0.439048
C39	C	1.585568	-0.860750	-0.439062
O40	O	1.642783	-0.888988	-0.382007
N41	N	1.518359	-0.888064	-0.506194
C42	C	1.451113	-0.860770	-0.573324
O43	O	1.393952	-0.889017	-0.630428
C44	C	1.451079	-0.806167	-0.573315
C45	C	1.518284	-0.778856	-0.506171
C46	C	1.652728	-0.778835	-0.371910
C47	C	1.652685	-0.724234	-0.371895
C48	C	1.585442	-0.696945	-0.439018
C49	C	1.518242	-0.724255	-0.506156
C50	C	1.383839	-0.778874	-0.640449
C51	C	1.383810	-0.724267	-0.640435
C52	C	1.451016	-0.696957	-0.573291
C53	C	1.450956	-0.642365	-0.573263
N54	N	1.518165	-0.615052	-0.506131
C55	C	1.585408	-0.642341	-0.439008
C56	C	1.451192	-0.975441	-0.573341
C57	C	1.451221	-1.030043	-0.573346
C58	C	1.585677	-1.030019	-0.439085
C59	C	1.585642	-0.975416	-0.439075
C60	C	1.518401	-0.948127	-0.506208
C61	C	1.585313	-0.527676	-0.438981
C62	C	1.585261	-0.473071	-0.438969
C63	C	1.450810	-0.473100	-0.573233
C64	C	1.450857	-0.527700	-0.573242
C65	C	1.518117	-0.554987	-0.506112
O66	O	1.393774	-0.614093	-0.630292
O67	O	1.642569	-0.614088	-0.381925
C68	C	1.792208	-0.251831	-0.506146
C69	C	1.908984	-0.251834	-0.506156
C70	C	1.518253	-0.251774	-0.780158
C71	C	1.518287	-0.251753	-0.896935
C72	C	1.518381	-0.115452	-0.506196
C73	C	1.518468	-0.057337	-0.506226
C74	C	1.585539	-0.218309	-0.951821
C75	C	1.585556	-0.218286	-1.061546
C76	C	1.451068	-0.285156	-1.061487
C77	C	1.451045	-0.285176	-0.951765
C78	C	1.623220	-0.156599	-1.211536
C79	C	1.690489	-0.123160	-1.266426
C80	C	1.793008	-0.115142	-1.230836
C81	C	1.828280	-0.140572	-1.140358
C82	C	1.761018	-0.174015	-1.085473
C83	C	1.658484	-0.182023	-1.121061
C84	C	1.413392	-0.346864	-0.801773
C85	C	1.346134	-0.380310	-0.746887
C86	C	1.243613	-0.388333	-0.782474
C87	C	1.208344	-0.362913	-0.872956
C88	C	1.275603	-0.329466	-0.927843
C89	C	1.378123	-0.321443	-0.892247
C90	C	1.518157	-0.251837	-0.233157
C91	C	1.518327	-0.251711	-0.116381
H92	H	1.118221	-0.312568	-0.627796
C93	C	1.726701	-0.808846	-0.298064
C94	C	1.718174	-0.801375	-0.178623
C95	C	1.792147	-0.831382	-0.104765
C96	C	1.874648	-0.868859	-0.150348
C97	C	1.883179	-0.876333	-0.269796
C98	C	1.809205	-0.846326	-0.343654
H99	H	1.657098	-0.773630	-0.144874
H100	H	1.785831	-0.825849	-0.016342
H101	H	1.929407	-0.891072	-0.095674
H102	H	1.944254	-0.904078	-0.303545
H103	H	1.815521	-0.851858	-0.432077
H104	H	1.640085	-0.549887	-0.384320
H105	H	1.351989	-0.180401	-0.206501
C106	C	0.998050	-0.111720	-0.406627
C107	C	0.937701	-0.148547	-0.480409
C108	C	0.838238	-0.129247	-0.536656
C109	C	0.799125	-0.073119	-0.519121
C110	C	0.859474	-0.036288	-0.445335
C111	C	0.958937	-0.055588	-0.389088
H112	H	0.966654	-0.190099	-0.493393
H113	H	0.793564	-0.156512	-0.591277
H114	H	0.725497	-0.058832	-0.560758
H115	H	0.830521	0.005264	-0.432351
H116	H	1.003611	-0.028323	-0.334467
C117	C	1.377286	-1.060081	-0.647197
C118	C	1.303324	-1.030056	-0.721026
C119	C	1.229391	-1.060092	-0.794886
C120	C	1.229421	-1.120153	-0.794916
C121	C	1.303386	-1.150182	-0.721084
C122	C	1.377318	-1.120146	-0.647224
H123	H	1.303299	-0.985592	-0.721007
H124	H	1.174637	-1.037862	-0.849541
H125	H	1.174691	-1.142388	-0.849591
H126	H	1.303410	-1.194646	-0.721104
H127	H	1.432072	-1.142376	-0.592569
H128	H	1.639988	-0.450836	-0.384288
H129	H	1.246878	-0.308768	-1.001518
C130	C	1.867003	-0.078359	-1.291214
C131	C	1.970294	-0.099384	-1.337116
C132	C	2.044280	-0.062599	-1.397498
C133	C	2.014976	-0.004788	-1.411979
C134	C	1.911680	0.016240	-1.366076
C135	C	1.837693	-0.020545	-1.305694
H136	H	1.991991	-0.142181	-1.326398
H137	H	2.120747	-0.078165	-1.431479
H138	H	2.069746	0.022442	-1.456678
H139	H	1.889983	0.059037	-1.376795
H140	H	1.761227	-0.004979	-1.271714
H141	H	1.640434	-1.052248	-0.384433
H142	H	1.252456	-0.241140	-0.328196
C143	C	1.726625	-0.694199	-0.298043
C144	C	1.718129	-0.701763	-0.178602
C145	C	1.792078	-0.671733	-0.104748
C146	C	1.874522	-0.634140	-0.150335
C147	C	1.883021	-0.626574	-0.269782
C148	C	1.809072	-0.656604	-0.343636
H149	H	1.657096	-0.729594	-0.144851
H150	H	1.785786	-0.677334	-0.016326
H151	H	1.929263	-0.611910	-0.095664
H152	H	1.944054	-0.598743	-0.303534
H153	H	1.815365	-0.651003	-0.432059
C154	C	1.377208	-0.945426	-0.647182
C155	C	1.257784	-0.953004	-0.638493
C156	C	1.183802	-0.922993	-0.712335
C157	C	1.229244	-0.885404	-0.794865
C158	C	1.348674	-0.877824	-0.803557
C159	C	1.422656	-0.907835	-0.729715
H160	H	1.224139	-0.980831	-0.577396
H161	H	1.095391	-0.928604	-0.705900
H162	H	1.174478	-0.863188	-0.849526
H163	H	1.382319	-0.849997	-0.864653
H164	H	1.511067	-0.902224	-0.736150
H165	H	1.661760	-0.102455	-1.340093
C166	C	1.377113	-0.321924	-1.121803
C167	C	1.377138	-0.321907	-1.242493
C168	C	1.303184	-0.358678	-1.302806
C169	C	1.229206	-0.395465	-1.242429
C170	C	1.229178	-0.395483	-1.121732
C171	C	1.303132	-0.358713	-1.061419
H172	H	1.431904	-0.294674	-1.287194
H173	H	1.303205	-0.358664	-1.392154
H174	H	1.174461	-0.422684	-1.287076
H175	H	1.174412	-0.422717	-1.077031
H176	H	1.303111	-0.358727	-0.972071
H177	H	1.013520	-0.386932	-0.620221
C178	C	0.924141	-0.462261	-0.746457
C179	C	0.863795	-0.499092	-0.820234
C180	C	0.902904	-0.555224	-0.837762
C181	C	1.002358	-0.574525	-0.781514
C182	C	1.062710	-0.537693	-0.707731
C183	C	1.023601	-0.481561	-0.690203
H184	H	0.790168	-0.484805	-0.861877
H185	H	0.858227	-0.582490	-0.892381
H186	H	1.031309	-0.616077	-0.794489
H187	H	1.136338	-0.551980	-0.666088
H188	H	1.068278	-0.454296	-0.635584
H189	H	1.640367	-0.953182	-0.384401
C190	C	1.309837	-0.694250	-0.714280
C191	C	1.190412	-0.701827	-0.705603
C192	C	1.116437	-0.671811	-0.779444
C193	C	1.161888	-0.634218	-0.861962
C194	C	1.281320	-0.626639	-0.870642
C195	C	1.355295	-0.656655	-0.796801
H196	H	1.156761	-0.729657	-0.644515
H197	H	1.028026	-0.677421	-0.773017
H198	H	1.107128	-0.611998	-0.916623
H199	H	1.314971	-0.598809	-0.931730
H200	H	1.443706	-0.651045	-0.803228
C201	C	1.095565	-0.371731	-0.912105
C202	C	1.021580	-0.408515	-0.851729
C203	C	0.908799	-0.417335	-0.890875
C204	C	0.870003	-0.389372	-0.990397
C205	C	0.943991	-0.352586	-1.050780
C206	C	1.056771	-0.343765	-1.011634
H207	H	1.050297	-0.429217	-0.778051
H208	H	0.854029	-0.444567	-0.846175
H209	H	0.786516	-0.395901	-1.019375
H210	H	0.915273	-0.331883	-1.124458
H211	H	1.111541	-0.316534	-1.056334
H212	H	0.784979	-0.262520	-0.684111
C213	C	1.659493	-0.181541	-0.891507
C214	C	1.651009	-0.122100	-0.906623
C215	C	1.724963	-0.085330	-0.846311
C216	C	1.807401	-0.107999	-0.770883
C217	C	1.815889	-0.167443	-0.755764
C218	C	1.741935	-0.204213	-0.816075
H219	H	1.589980	-0.105316	-0.962462
H220	H	1.718679	-0.041326	-0.857504
H221	H	1.862146	-0.080780	-0.726237
H222	H	1.876918	-0.184227	-0.699924
H223	H	1.748219	-0.248218	-0.804882
H224	H	0.749932	-0.415847	-0.834679
H225	H	1.539738	-0.163120	-1.240516
C226	C	1.941061	-0.131757	-1.101216
C227	C	2.015047	-0.094970	-1.161585
C228	C	2.127829	-0.086153	-1.122439
C229	C	2.166625	-0.114123	-1.022923
C230	C	2.092637	-0.150912	-0.962548
C231	C	1.979855	-0.159729	-1.001694
H232	H	1.986330	-0.074263	-1.235257
H233	H	2.182600	-0.058920	-1.167133
H234	H	2.250113	-0.107596	-0.993945
H235	H	2.121355	-0.171619	-0.888876
H236	H	1.925085	-0.186962	-0.957000
H237	H	0.685438	-0.323264	-0.805775
H238	H	0.919185	-0.191094	-0.384484
H239	H	1.123421	-0.055993	-0.270300
H240	H	1.287484	-0.087826	-0.177550
H241	H	1.329108	-0.801102	-0.695120
H242	H	1.396136	-0.549938	-0.627919
H243	H	1.188856	-0.415573	-0.737781
H244	H	1.396058	-0.450872	-0.627881
H245	H	1.789737	-0.194722	-1.011811
H246	H	1.374863	-0.401014	-0.673218
H247	H	1.496871	-0.340330	-0.772783
