data_functionalizedCrystal
_audit_creation_method	'MofGen! by Chris Wilmer'
_symmetry_space_group_name_H-M	'P1'
_symmetry_Int_Tables_number	1
_symmetry_cell_setting	triclinic
loop_
_symmetry_equiv_pos_as_xyz
  x,y,z
_cell_length_a	19.188900
_cell_length_b	18.266242
_cell_length_c	17.038272
_cell_angle_alpha	89.993727
_cell_angle_beta	87.122023
_cell_angle_gamma	89.982578
loop_
_atom_site_label
_atom_site_type_symbol
_atom_site_fract_x
_atom_site_fract_y
_atom_site_fract_z
O1	O	-0.932219	0.061025	-0.097480
O2	O	-0.729722	0.060995	-0.110641
O3	O	-0.829767	0.061004	0.009751
O4	O	-0.832174	0.061016	-0.217872
O5	O	-0.829748	-0.060758	0.009757
O6	O	-0.729704	-0.060767	-0.110635
O7	O	-0.932200	-0.060737	-0.097473
Zn8	Zn	-0.830949	-0.080084	-0.104053
Zn9	Zn	-0.830973	0.080342	-0.104062
O10	O	-0.832155	-0.060746	-0.217866
C11	C	-0.703675	0.000110	-0.110216
C12	C	-0.626091	0.000099	-0.108948
N13	N	-0.830937	-0.189571	-0.104047
C14	C	-0.589671	0.066472	-0.108343
C15	C	-0.516773	0.066480	-0.107143
C16	C	-0.480298	0.000110	-0.106533
C17	C	-0.516726	-0.066272	-0.107143
C18	C	-0.589623	-0.066278	-0.108351
N19	N	-0.368388	-0.049287	-0.060150
N20	N	-0.299140	-0.049278	-0.059002
C21	C	-0.260665	0.000122	-0.102896
N22	N	-0.294055	0.049523	-0.147973
N23	N	-0.363310	0.049516	-0.149118
C24	C	-0.401254	0.000108	-0.105224
C25	C	-0.145200	0.066508	-0.100990
C26	C	-0.072300	0.066513	-0.099795
C27	C	-0.072255	-0.066241	-0.099788
C28	C	-0.145153	-0.066244	-0.100991
C29	C	-0.181622	0.000133	-0.101588
C30	C	-0.875254	-0.227876	-0.050764
C31	C	-0.875259	-0.304521	-0.050760
C32	C	-0.830953	-0.342858	-0.104054
C33	C	-0.786628	-0.304544	-0.157341
C34	C	-0.786620	-0.227901	-0.157338
N35	N	-0.826177	-0.463188	-0.173253
N36	N	-0.826188	-0.535996	-0.173253
C37	C	-0.830974	-0.573781	-0.104065
N38	N	-0.835760	-0.536007	-0.034874
N39	N	-0.835752	-0.463192	-0.034874
C40	C	-0.830957	-0.425965	-0.104062
C41	C	-0.875297	-0.695193	-0.050773
C42	C	-0.875297	-0.771839	-0.050768
C43	C	-0.786670	-0.771860	-0.157356
C44	C	-0.786667	-0.695216	-0.157354
C45	C	-0.830984	-0.656886	-0.104063
C46	C	0.041753	0.000143	-0.097904
C47	C	-0.035830	0.000142	-0.099187
C48	C	-0.827568	0.000123	0.038875
C49	C	-0.821037	0.000122	0.125647
N50	N	-0.830990	0.189829	-0.104061
C51	C	-0.834354	0.000137	-0.246990
C52	C	-0.840885	0.000142	-0.333762
C53	C	-0.881004	0.000130	0.175956
C54	C	-0.874863	0.000136	0.257486
C55	C	-0.808754	0.000129	0.288706
C56	C	-0.748783	0.000123	0.238391
C57	C	-0.754924	0.000122	0.156862
C58	C	-0.787056	0.000136	0.534394
C59	C	-0.780919	0.000134	0.615929
C60	C	-0.906999	0.000149	0.635019
C61	C	-0.913135	0.000143	0.553488
C62	C	-0.853164	0.000142	0.503179
C63	C	-0.802475	0.000133	0.372044
C64	C	-0.859443	0.000143	0.419844
H65	H	-0.619359	0.120522	-0.108830
H66	H	-0.913269	0.000165	0.394421
Cl67	Cl	-0.665674	0.000123	0.277639
Cl68	Cl	-0.191049	0.149951	-0.101749
Cl69	Cl	-0.719369	0.000128	0.411299
H70	H	-0.911348	-0.335715	-0.007368
H71	H	-0.911339	-0.196671	-0.007369
H72	H	-0.487023	-0.120311	-0.106648
Cl73	Cl	-0.730926	-0.352737	-0.224336
Cl74	Cl	-0.931010	-0.819997	0.016227
Cl75	Cl	-0.190941	-0.149690	-0.101747
Cl76	Cl	-0.964116	0.000131	0.136716
Cl77	Cl	-0.950254	0.000144	0.320729
Cl78	Cl	-0.931007	-0.647006	0.016225
H79	H	-0.750582	-0.664025	-0.200746
H80	H	-0.487114	0.120531	-0.106651
H81	H	-0.955824	0.000152	0.675988
Cl82	Cl	-0.697804	0.000121	0.655176
Cl83	Cl	-0.730903	-0.179742	-0.224330
H84	H	-0.619275	-0.120329	-0.108845
H85	H	-0.750593	-0.803074	-0.200746
H86	H	-0.966968	0.000149	0.528075
Cl87	Cl	-0.026515	0.149962	-0.099041
Cl88	Cl	-0.711662	0.000135	0.471160
Cl89	Cl	-0.679534	0.000115	0.093616
Cl90	Cl	-0.026407	-0.149679	-0.099029
