data_functionalizedCrystal
_audit_creation_method	'MofGen! by Chris Wilmer'
_symmetry_space_group_name_H-M	'P1'
_symmetry_Int_Tables_number	1
_symmetry_cell_setting	triclinic
loop_
_symmetry_equiv_pos_as_xyz
  x,y,z
_cell_length_a	9.065218
_cell_length_b	17.699104
_cell_length_c	7.540329
_cell_angle_alpha	89.995477
_cell_angle_beta	89.996962
_cell_angle_gamma	84.153701
loop_
_atom_site_label
_atom_site_type_symbol
_atom_site_fract_x
_atom_site_fract_y
_atom_site_fract_z
O1	O	1.957126	0.110972	-0.147491
O2	O	2.457126	0.610972	0.352509
O3	O	1.527573	0.120074	-0.147494
O4	O	2.027573	0.620074	0.352506
O5	O	1.754469	0.005429	-0.147477
O6	O	2.254469	0.505429	0.352523
O7	O	1.730229	0.225617	-0.147509
O8	O	2.230229	0.725617	0.352491
O9	O	1.754456	0.005428	0.147488
O10	O	2.254456	0.505428	0.647488
O11	O	1.527559	0.120073	0.147471
O12	O	2.027559	0.620073	0.647471
O13	O	1.957112	0.110970	0.147474
O14	O	2.457112	0.610970	0.647474
Cu15	Cu	1.742335	0.115521	0.174405
Cu16	Cu	2.242335	0.615521	0.674405
Cu17	Cu	1.742350	0.115523	-0.174426
Cu18	Cu	2.242350	0.615523	0.325574
O19	O	1.730216	0.225615	0.147456
O20	O	2.230216	0.725615	0.647456
C21	C	1.472605	0.119199	-0.000012
C22	C	1.972605	0.619199	0.499988
C23	C	1.308839	0.116583	-0.000013
C24	C	1.808839	0.616583	0.499987
C25	C	1.753589	-0.022775	0.000006
C26	C	2.253589	0.477225	0.500006
C27	C	1.750967	-0.106813	0.000007
C28	C	2.250967	0.393187	0.500007
C29	C	1.869367	-0.630760	-0.000043
C30	C	2.369367	-0.130760	0.499957
C31	C	1.871822	-0.551797	-0.000027
C32	C	2.371822	-0.051797	0.499973
C33	C	1.738625	-0.504218	-0.000024
C34	C	2.238625	-0.004218	0.499976
C35	C	1.602965	-0.535606	-0.000019
C36	C	2.102965	-0.035606	0.499981
C37	C	1.600512	-0.614568	-0.000022
C38	C	2.100512	-0.114568	0.499978
C39	C	1.612853	-0.217163	-0.000004
C40	C	2.112853	0.282837	0.499996
C41	C	1.615316	-0.138197	-0.000006
C42	C	2.115316	0.361803	0.499994
C43	C	1.884163	-0.154393	-0.000009
C44	C	2.384163	0.345607	0.499991
C45	C	1.881710	-0.233354	-0.000012
C46	C	2.381710	0.266646	0.499988
C47	C	1.746051	-0.264735	0.000002
C48	C	2.246051	0.235265	0.500002
C49	C	1.743391	-0.350356	-0.000011
C50	C	2.243391	0.149644	0.499989
C51	C	1.741283	-0.418599	-0.000023
C52	C	2.241283	0.081401	0.499977
C53	C	2.012080	0.111846	-0.000013
C54	C	2.512080	0.611846	0.499987
C55	C	2.175846	0.114462	-0.000024
C56	C	2.675846	0.614462	0.499976
C57	C	1.731096	0.253819	-0.000030
C58	C	2.231096	0.753819	0.499970
C59	C	1.733718	0.337857	-0.000043
C60	C	2.233718	0.837857	0.499957
N61	N	1.742334	0.115520	0.419753
N62	N	2.242334	0.615520	0.919753
N63	N	1.742363	0.115519	-0.419774
N64	N	2.242363	0.615519	0.080226
H65	H	1.977832	-0.669494	-0.000060
H66	H	2.477832	-0.169494	0.499940
C67	C	2.114080	-0.143874	-0.151655
C68	C	2.614080	0.356126	0.348345
C69	C	2.033284	-0.119895	-0.000013
C70	C	2.533284	0.380105	0.499987
H71	H	2.206133	-0.122573	-0.151665
H72	H	2.706133	0.377427	0.348335
H73	H	2.131676	-0.197702	-0.151647
H74	H	2.631676	0.302298	0.348353
H75	H	2.059230	-0.127596	-0.254497
H76	H	2.559230	0.372404	0.245503
H77	H	2.088130	-0.136177	0.102829
H78	H	2.588130	0.363823	0.602829
H79	H	2.015692	-0.066055	-0.000005
H80	H	2.515692	0.433945	0.499995
H81	H	1.490052	-0.640118	-0.000007
H82	H	1.990052	-0.140118	0.499993
C83	C	1.374568	-0.497493	-0.151648
C84	C	1.874568	0.002507	0.348352
C85	C	1.456549	-0.483310	-0.000020
C86	C	1.956549	0.016690	0.499980
H87	H	1.284172	-0.465211	-0.151644
H88	H	1.784172	0.034789	0.348356
H89	H	1.430209	-0.487873	-0.254488
H90	H	1.930209	0.012127	0.245512
H91	H	1.353704	-0.549013	-0.151625
H92	H	1.853704	-0.049013	0.348375
H93	H	1.477422	-0.431791	-0.000049
H94	H	1.977422	0.068209	0.499951
H95	H	1.400896	-0.492924	0.102847
H96	H	1.900896	0.007076	0.602847
C97	C	2.137324	-0.575738	-0.000047
C98	C	2.637324	-0.075738	0.499953
C99	C	2.020932	-0.517302	-0.000029
C100	C	2.520932	-0.017302	0.499971
H101	H	2.229381	-0.554440	-0.000055
H102	H	2.729381	-0.054440	0.499945
H103	H	2.130772	-0.606204	0.102801
H104	H	2.630772	-0.106204	0.602801
H105	H	2.130766	-0.606192	-0.102922
H106	H	2.630766	-0.106192	0.397078
H107	H	2.027484	-0.486850	0.102853
H108	H	2.527484	0.013150	0.602853
H109	H	2.027488	-0.486823	-0.102888
H110	H	2.527488	0.013177	0.397112
H111	H	1.990173	-0.272090	-0.000024
H112	H	2.490173	0.227910	0.499976
C113	C	1.347353	-0.193211	-0.000013
C114	C	1.847353	0.306789	0.499987
C115	C	1.463739	-0.251650	-0.000003
C116	C	1.963739	0.248350	0.499997
H117	H	1.255293	-0.214506	-0.000024
H118	H	1.755293	0.285494	0.499976
H119	H	1.353901	-0.162755	0.102839
H120	H	1.853901	0.337245	0.602839
H121	H	1.353922	-0.162748	-0.102883
H122	H	1.853922	0.337252	0.397117
H123	H	1.457176	-0.282111	0.102874
H124	H	1.957176	0.217889	0.602874
H125	H	1.457187	-0.282120	-0.102867
H126	H	1.957187	0.217880	0.397133
H127	H	1.506844	-0.099459	0.000001
H128	H	2.006844	0.400541	0.500001
