data_functionalizedCrystal
_audit_creation_method	'MofGen! by Chris Wilmer'
_symmetry_space_group_name_H-M	'P1'
_symmetry_Int_Tables_number	1
_symmetry_cell_setting	triclinic
loop_
_symmetry_equiv_pos_as_xyz
  x,y,z
_cell_length_a	10.654550
_cell_length_b	10.489741
_cell_length_c	9.130313
_cell_angle_alpha	89.995761
_cell_angle_beta	89.999724
_cell_angle_gamma	84.512052
loop_
_atom_site_label
_atom_site_type_symbol
_atom_site_fract_x
_atom_site_fract_y
_atom_site_fract_z
O1	O	1.667923	0.179162	-0.121689
O2	O	1.302453	0.196231	-0.121716
O3	O	1.493504	0.002095	-0.121693
O4	O	1.476872	0.373299	-0.121712
O5	O	1.493491	0.002089	0.121906
O6	O	1.302440	0.196226	0.121883
O7	O	1.667910	0.179156	0.121910
Cu8	Cu	1.485174	0.187691	0.144139
Cu9	Cu	1.485189	0.187697	-0.143945
O10	O	1.476859	0.373293	0.121887
C11	C	1.255648	0.194975	0.000080
C12	C	1.116203	0.191225	0.000070
C13	C	1.036771	0.305530	0.000068
C14	C	0.905748	0.301999	0.000094
C15	C	0.933603	0.069849	0.000117
C16	C	1.064623	0.073381	0.000102
C17	C	1.492241	-0.045439	0.000105
C18	C	1.488483	-0.187067	0.000102
C19	C	1.366923	-0.255148	0.000083
C20	C	1.424340	-0.347301	0.120194
C21	C	1.424382	-0.347270	-0.119976
C22	C	1.545951	-0.277354	0.120313
C23	C	1.545976	-0.277314	-0.119965
C24	C	1.603481	-0.369439	0.000176
C25	C	1.714715	0.180413	0.000110
C26	C	1.854160	0.184162	0.000111
C27	C	1.478122	0.420827	0.000085
C28	C	1.481880	0.562454	0.000079
N29	N	1.485172	0.187685	0.346761
N30	N	1.485201	0.187693	-0.346568
C31	C	1.569798	0.101758	0.423423
C32	C	1.569810	0.101758	0.576760
C33	C	1.400565	0.273624	0.576760
C34	C	1.400548	0.273617	0.423426
H35	H	0.891590	-0.026096	0.000151
N36	N	1.656171	0.013956	0.345063
N37	N	1.615538	-0.065570	0.259526
H38	H	1.676523	-0.127588	0.204168
N39	N	1.314121	0.361399	0.345085
N40	N	1.314123	0.361379	0.208181
H41	H	1.253086	0.423371	0.152848
H42	H	1.638719	0.031787	0.639174
N43	N	1.145770	-0.043385	0.000072
N44	N	1.221980	-0.067310	-0.102618
H45	H	1.279291	-0.149772	-0.102636
H46	H	1.597372	-0.246292	-0.221508
H47	H	1.266977	-0.205449	0.000196
H48	H	0.841079	0.395078	0.000096
N49	N	1.359864	-0.386126	-0.247365
N50	N	1.347465	-0.502010	-0.268310
H51	H	1.301893	-0.529450	-0.358274
N52	N	1.359799	-0.386170	0.247566
N53	N	1.247297	-0.345001	0.268959
H54	H	1.201706	-0.372448	0.358911
H55	H	1.331669	0.343589	0.639195
N56	N	1.610386	-0.238719	0.247864
N57	N	1.569432	-0.261817	0.372414
H58	H	1.614933	-0.234528	0.462500
N59	N	1.089439	0.425911	0.000068
N60	N	1.065483	0.503228	0.102754
H61	H	1.102676	0.588252	0.102760
N62	N	1.728979	-0.431491	0.000274
N63	N	1.802162	-0.413064	0.103497
H64	H	1.890795	-0.456888	0.103573
