data_functionalizedCrystal
_audit_creation_method	'MofGen! by Chris Wilmer'
_symmetry_space_group_name_H-M	'P1'
_symmetry_Int_Tables_number	1
_symmetry_cell_setting	triclinic
loop_
_symmetry_equiv_pos_as_xyz
  x,y,z
_cell_length_a	18.101389
_cell_length_b	12.759401
_cell_length_c	12.759400
_cell_angle_alpha	90.014845
_cell_angle_beta	90.014960
_cell_angle_gamma	90.015813
loop_
_atom_site_label
_atom_site_type_symbol
_atom_site_fract_x
_atom_site_fract_y
_atom_site_fract_z
Zn1	Zn	-0.418688	-1.606228	0.418372
Zn2	Zn	-0.294854	-1.606130	0.594040
Zn3	Zn	-0.294868	-1.430538	0.418376
Zn4	Zn	-0.418661	-1.430518	0.594010
O5	O	-0.356768	-1.518354	0.506199
O6	O	-0.402267	-1.753236	0.441686
O7	O	-0.191223	-1.582805	0.570752
O8	O	-0.311310	-1.453892	0.271354
O9	O	-0.311287	-1.753164	0.570748
O10	O	-0.402280	-1.582971	0.271351
O11	O	-0.191233	-1.453798	0.441693
O12	O	-0.311284	-1.283514	0.441663
O13	O	-0.522298	-1.453859	0.570697
O14	O	-0.402234	-1.283500	0.570701
O15	O	-0.522318	-1.582952	0.441656
O16	O	-0.311261	-1.582786	0.741057
O17	O	-0.402221	-1.453765	0.741035
C18	C	-0.356753	-1.518291	0.779167
C19	C	-0.356771	-1.518361	0.895943
C20	C	-0.356758	-1.245386	0.506180
C21	C	-0.356771	-1.128610	0.506197
C22	C	-0.549930	-1.518414	0.506173
C23	C	-0.632244	-1.518440	0.506162
C24	C	-0.931335	-1.518501	0.505965
C25	C	-0.899997	-1.437000	0.586895
C26	C	-0.814379	-1.437220	0.587271
C27	C	-0.782953	-1.518470	0.506062
C28	C	-0.814048	-1.629171	0.536115
C29	C	-0.899693	-1.628717	0.536647
C30	C	-0.899758	-1.490264	0.394801
C31	C	-0.814107	-1.487801	0.395443
C32	C	-0.699093	-1.518459	0.506116
C33	C	-1.015195	-1.518519	0.505914
C34	C	-0.164357	-1.518353	0.506150
C35	C	-0.082044	-1.518531	0.505866
C36	C	-0.356778	-1.792387	0.506220
C37	C	-0.356783	-1.909163	0.506228
C38	C	-0.404051	-1.073768	0.573494
C39	C	-0.404059	-0.964043	0.573508
C40	C	-0.309501	-0.964013	0.438924
C41	C	-0.309498	-1.073735	0.438906
C42	C	-0.451324	-1.128642	0.640786
C43	C	-0.498607	-1.073800	0.708090
C44	C	-0.498615	-0.964076	0.708103
C45	C	-0.451340	-0.909194	0.640813
C46	C	-0.356800	-1.518445	0.232166
C47	C	-0.356813	-1.518484	0.115390
C48	C	-0.309460	-1.585617	0.950782
C49	C	-0.309483	-1.585681	1.060506
C50	C	-0.404129	-1.451225	1.060543
C51	C	-0.404109	-1.451166	0.950821
C52	C	-0.262121	-1.652811	0.895904
C53	C	-0.214806	-1.720071	0.950743
C54	C	-0.214829	-1.720136	1.060467
C55	C	-0.262167	-1.652940	1.115352
H56	H	-0.793354	-1.355132	0.568464
H57	H	-0.792714	-1.542829	0.331945
Cl58	Cl	-0.782738	-1.362017	0.360455
Cl59	Cl	-0.930551	-1.665666	0.662108
Cl60	Cl	-0.451358	-0.771253	0.640824
H61	H	-0.262095	-1.652763	0.806562
H62	H	-0.921525	-1.455459	0.668790
H63	H	-0.793693	-1.691528	0.479021
Cl64	Cl	-0.250059	-1.142685	0.354302
Cl65	Cl	-0.463633	-1.366753	1.129543
Cl66	Cl	-0.261887	-1.652590	1.253291
Cl67	Cl	-0.780948	-1.666765	0.660245
H68	H	-0.271012	-0.919319	0.384140
H69	H	-0.176269	-1.774787	0.906050
H70	H	-0.176308	-1.774910	1.105114
Cl71	Cl	-0.931047	-1.581912	0.301706
Cl72	Cl	-0.463588	-1.366616	0.881876
H73	H	-0.793898	-1.455865	0.669669
Cl74	Cl	-0.558061	-0.895134	0.792703
Cl75	Cl	-0.931785	-1.309873	0.558155
H76	H	-0.920424	-1.691502	0.480259
H77	H	-0.921351	-1.410942	0.367420
H78	H	-0.451322	-1.217985	0.640785
Cl79	Cl	-0.558039	-1.142792	0.792672
