data_functionalizedCrystal
_audit_creation_method	'MofGen! by Chris Wilmer'
_symmetry_space_group_name_H-M	'P1'
_symmetry_Int_Tables_number	1
_symmetry_cell_setting	triclinic
loop_
_symmetry_equiv_pos_as_xyz
  x,y,z
_cell_length_a	30.570245
_cell_length_b	30.570259
_cell_length_c	30.570278
_cell_angle_alpha	90.004336
_cell_angle_beta	59.998841
_cell_angle_gamma	119.999903
loop_
_atom_site_label
_atom_site_type_symbol
_atom_site_fract_x
_atom_site_fract_y
_atom_site_fract_z
O1	O	0.313100	-0.372836	-0.013027
O2	O	0.223524	-0.309225	0.012940
O3	O	0.313096	-0.309225	-0.076633
O4	O	0.223528	-0.372836	0.076546
O5	O	0.385847	-0.236472	-0.076627
O6	O	0.296275	-0.236472	0.012946
O7	O	0.385851	-0.300084	-0.013020
Cu8	Cu	0.347706	-0.261635	-0.000036
Cu9	Cu	0.261669	-0.347673	-0.000044
O10	O	0.296279	-0.300084	0.076553
C11	C	0.128236	-0.080459	0.031431
C12	C	0.154312	-0.107028	0.031804
C13	C	0.049019	-0.159674	0.031437
C14	C	0.075216	-0.186122	0.031809
C15	C	0.128232	-0.159674	0.031438
C16	C	0.075219	-0.107028	0.031803
C17	C	0.134461	0.005155	0.024996
C18	C	0.163455	0.059253	0.020935
C19	C	0.217656	0.086385	0.018898
C20	C	0.249097	0.145043	0.014492
C21	C	0.242867	0.059424	0.020927
C22	C	0.213873	0.005328	0.024990
C23	C	0.159672	-0.021804	0.027023
C24	C	0.214050	-0.159469	0.025011
C25	C	0.243211	-0.184405	0.020957
C26	C	0.218177	-0.236571	0.018925
C27	C	0.249794	-0.263610	0.014526
C28	C	0.163976	-0.263810	0.020953
C29	C	0.134815	-0.238876	0.025010
C30	C	0.159854	-0.186706	0.027037
C31	C	-0.030166	-0.159470	0.025008
C32	C	-0.080203	-0.184404	0.020946
C33	C	-0.105302	-0.236569	0.018914
C34	C	-0.159559	-0.263608	0.014514
C35	C	-0.080369	-0.263806	0.020941
C36	C	-0.030332	-0.238874	0.025001
C37	C	-0.005232	-0.186706	0.027035
O38	O	-0.177322	-0.236471	0.012934
O39	O	-0.304540	-0.300084	-0.013034
O40	O	-0.304546	-0.300075	0.076540
O41	O	-0.177315	-0.236480	-0.076639
O42	O	-0.304550	-0.372832	0.076546
O43	O	-0.304544	-0.372841	-0.013028
O44	O	-0.177325	-0.309228	0.012941
Cu45	Cu	-0.240935	-0.347677	-0.000043
Cu46	Cu	-0.240930	-0.261634	-0.000050
O47	O	-0.177319	-0.309237	-0.076633
C48	C	0.560346	-0.080476	-0.400671
C49	C	0.534150	-0.107044	-0.427120
C50	C	0.481138	-0.159686	-0.321464
C51	C	0.455062	-0.186133	-0.348034
C52	C	0.481137	-0.159687	-0.400677
C53	C	0.534151	-0.107043	-0.348028
C54	C	0.639527	0.005134	-0.400459
C55	C	0.689565	0.059230	-0.425389
C56	C	0.714660	0.086361	-0.477551
C57	C	0.768912	0.145016	-0.504584
C58	C	0.689726	0.059400	-0.504791
C59	C	0.639693	0.005307	-0.479863
C60	C	0.614594	-0.021824	-0.427697
C61	C	0.474914	-0.159482	-0.480067
C62	C	0.445923	-0.184417	-0.505174
C63	C	0.391726	-0.236579	-0.478111
C64	C	0.360288	-0.263616	-0.505330
C65	C	0.366516	-0.263816	-0.425940
C66	C	0.395507	-0.238884	-0.400835
C67	C	0.449704	-0.186717	-0.427898
C68	C	0.474917	-0.159479	-0.235852
C69	C	0.445923	-0.184410	-0.181754
C70	C	0.391726	-0.236572	-0.154625
C71	C	0.360289	-0.263608	-0.095971
C72	C	0.366515	-0.263808	-0.181586
C73	C	0.395505	-0.238879	-0.235682
C74	C	0.449706	-0.186715	-0.262812
C75	C	0.447877	-0.499857	-0.027246
C76	C	0.417172	-0.557556	-0.023537
C77	C	0.500891	-0.473290	-0.027614
C78	C	0.447872	-0.420646	-0.027237
C79	C	0.417162	-0.393654	-0.023519
C80	C	0.500886	-0.394200	-0.027605
C81	C	0.527085	-0.420647	-0.027239
C82	C	0.581071	-0.393655	-0.023522
C83	C	0.421798	-0.473290	-0.027612
C84	C	0.624685	-0.371848	-0.020518
C85	C	0.392365	-0.604172	-0.020539
C86	C	0.392351	-0.371847	-0.020513
C87	C	0.679401	-0.344491	-0.016751
C88	C	0.361244	-0.662653	-0.016779
C89	C	0.361224	-0.344488	-0.016744
O90	O	0.385874	0.317571	-0.013061
O91	O	0.296298	0.164387	0.012907
O92	O	0.385865	0.253944	-0.076667
O93	O	0.296306	0.228013	0.076513
O94	O	0.313111	0.253945	-0.076668
O95	O	0.223543	0.164387	0.012906
O96	O	0.313120	0.317571	-0.013062
Cu97	Cu	0.261688	0.240979	-0.000078
Cu98	Cu	0.347729	0.240979	-0.000077
O99	O	0.223552	0.228014	0.076512
O100	O	0.223519	-0.372845	-0.541091
O101	O	0.313091	-0.309230	-0.477477
O102	O	0.223517	-0.309231	-0.477473
O103	O	0.313093	-0.372843	-0.541095
O104	O	0.296267	-0.236480	-0.550223
O105	O	0.385840	-0.236479	-0.550227
O106	O	0.296268	-0.300094	-0.613841
Cu107	Cu	0.347697	-0.261644	-0.588677
Cu108	Cu	0.261662	-0.347680	-0.502641
O109	O	0.385842	-0.300092	-0.613845
O110	O	0.786669	0.164358	-0.550197
O111	O	0.913888	0.317537	-0.613800
O112	O	0.913894	0.227969	-0.613809
O113	O	0.786663	0.253926	-0.550189
O114	O	0.913896	0.227972	-0.541055
O115	O	0.913890	0.317539	-0.541047
O116	O	0.786671	0.164360	-0.477444
Cu117	Cu	0.850281	0.240950	-0.502602
Cu118	Cu	0.850278	0.240947	-0.588642
O119	O	0.786665	0.253928	-0.477435
C120	C	0.082304	-0.499861	0.338326
C121	C	0.028321	-0.557560	0.365313
C122	C	0.108502	-0.473293	0.285683
C123	C	0.161512	-0.420652	0.338335
C124	C	0.192217	-0.393660	0.365332
C125	C	0.187589	-0.394204	0.285692
C126	C	0.161514	-0.420649	0.259121
C127	C	0.192222	-0.393656	0.201422
C128	C	0.108499	-0.473295	0.364777
C129	C	0.217031	-0.371848	0.154806
C130	C	-0.015291	-0.604176	0.387115
C131	C	0.217025	-0.371854	0.387142
C132	C	0.248156	-0.344489	0.096325
C133	C	-0.070006	-0.662657	0.414468
C134	C	0.248146	-0.344498	0.414504
C135	C	-0.552165	-0.499833	0.338318
C136	C	-0.582877	-0.557533	0.365312
C137	C	-0.578243	-0.473262	0.364759
C138	C	-0.472943	-0.420626	0.259108
C139	C	-0.418950	-0.393638	0.201411
C140	C	-0.499141	-0.394175	0.285670
C141	C	-0.552161	-0.420618	0.338311
C142	C	-0.582869	-0.393621	0.365297
C143	C	-0.499145	-0.473270	0.285677
C144	C	-0.607679	-0.371811	0.387099
C145	C	-0.607690	-0.604149	0.387120
C146	C	-0.375331	-0.371834	0.154797
C147	C	-0.638803	-0.344448	0.414451
C148	C	-0.638818	-0.662630	0.414479
C149	C	-0.320608	-0.344480	0.096318
C150	C	0.082352	0.213857	0.338293
C151	C	0.028368	0.217576	0.365285
C152	C	0.108553	0.213491	0.364739
C153	C	0.161557	0.213843	0.259083
C154	C	0.192259	0.217548	0.201384
C155	C	0.187637	0.213477	0.285649
C156	C	0.161565	0.213857	0.338292
C157	C	0.192277	0.217576	0.365283
C158	C	0.108544	0.213477	0.285650
C159	C	0.217089	0.220582	0.387089
C160	C	-0.015245	0.220583	0.387092
C161	C	0.217064	0.220542	0.154769
C162	C	0.248217	0.224353	0.414445
C163	C	-0.069960	0.224353	0.414450
C164	C	0.248183	0.224297	0.096288
C165	C	0.128262	-0.159719	-0.400665
C166	C	0.154344	-0.107075	-0.427113
C167	C	0.049044	-0.159711	-0.321462
C168	C	0.075246	-0.107067	-0.348031
C169	C	0.128266	-0.080504	-0.400672
C170	C	0.075242	-0.186161	-0.348024
C171	C	0.134479	-0.239112	-0.400451
C172	C	0.163470	-0.264222	-0.425379
C173	C	0.217674	-0.237159	-0.477538
C174	C	0.249113	-0.264381	-0.504568
C175	C	0.242891	-0.184987	-0.504778
C176	C	0.213900	-0.159880	-0.479852
C177	C	0.159696	-0.186943	-0.427688
C178	C	0.214094	0.005103	-0.480058
C179	C	0.243261	0.059199	-0.505164
C180	C	0.218228	0.086335	-0.478102
C181	C	0.249852	0.144990	-0.505321
C182	C	0.164024	0.059379	-0.425934
C183	C	0.134857	0.005285	-0.400830
C184	C	0.159894	-0.021851	-0.427892
C185	C	-0.030152	-0.239095	-0.235852
C186	C	-0.080193	-0.264194	-0.181756
C187	C	-0.105290	-0.237124	-0.154629
C188	C	-0.159551	-0.264336	-0.095977
C189	C	-0.080351	-0.184954	-0.181589
C190	C	-0.030309	-0.159853	-0.235683
C191	C	-0.005212	-0.186926	-0.262812
O192	O	-0.776528	-0.835582	0.522495
O193	O	-0.686946	-0.682402	0.458880
O194	O	-0.776509	-0.771968	0.458867
O195	O	-0.686965	-0.746015	0.522508
O196	O	-0.703750	-0.771978	0.386123
O197	O	-0.614188	-0.682411	0.386135
O198	O	-0.703769	-0.835591	0.449751
Cu199	Cu	-0.652335	-0.759002	0.411301
Cu200	Cu	-0.738380	-0.758991	0.497330
O201	O	-0.614207	-0.746024	0.449763
C202	C	0.481133	0.272395	-0.400710
C203	C	0.534146	0.272760	-0.427156
C204	C	0.481141	0.272409	-0.321501
C205	C	0.534153	0.272774	-0.348067
C206	C	0.560346	0.272395	-0.400710
C207	C	0.455061	0.272774	-0.348067
C208	C	0.395314	0.265967	-0.400503
C209	C	0.366148	0.261906	-0.425436
C210	C	0.391175	0.259861	-0.477597
C211	C	0.359552	0.255455	-0.504633
C212	C	0.445372	0.261882	-0.504835
C213	C	0.474537	0.265946	-0.479904
C214	C	0.449506	0.267986	-0.427738
C215	C	0.639523	0.265953	-0.480097
C216	C	0.689561	0.261891	-0.505201
C217	C	0.714660	0.259860	-0.478135
C218	C	0.768913	0.255453	-0.505352
C219	C	0.689731	0.261896	-0.425965
C220	C	0.639697	0.265960	-0.400862
C221	C	0.614594	0.267986	-0.427929
C222	C	0.395330	0.265996	-0.235891
C223	C	0.366167	0.261941	-0.181793
C224	C	0.391201	0.259910	-0.154662
C225	C	0.359587	0.255519	-0.096008
C226	C	0.445394	0.261929	-0.181620
C227	C	0.474556	0.265982	-0.235716
C228	C	0.449522	0.268015	-0.262849
H229	H	0.053285	-0.229380	0.032411
H230	H	0.143645	0.081481	-0.403902
O231	O	0.205140	-0.081636	0.032608
C232	C	0.191316	-0.110303	0.078994
H233	H	0.139229	-0.135640	0.110825
H234	H	0.215852	-0.080944	0.094968
H235	H	0.207690	-0.137503	0.068698
H236	H	0.230295	0.212878	0.264318
H237	H	0.522815	-0.494622	-0.028212
O238	O	0.048964	-0.081667	0.032554
C239	C	-0.012265	-0.110310	0.078938
H240	H	-0.030071	-0.153779	0.093934
H241	H	-0.042910	-0.108781	0.069021
H242	H	-0.013325	-0.091531	0.111365
O243	O	0.205289	-0.081553	-0.478689
C244	C	0.254121	-0.035389	-0.481613
H245	H	0.234370	-0.022100	-0.446066
H246	H	0.282127	-0.001895	-0.520484
H247	H	0.285351	-0.044842	-0.480656
H248	H	0.086571	-0.494620	0.264355
H249	H	0.412399	-0.229385	-0.326702
O250	O	0.082365	0.212849	0.416320
C251	C	0.029868	0.212619	0.434067
H252	H	0.034050	0.229872	0.398037
H253	H	0.026578	0.238043	0.461259
H254	H	-0.013476	0.169758	0.457257
O255	O	0.082469	0.212857	0.260151
C256	C	0.125712	0.258739	0.213967
H257	H	0.161840	0.291416	0.218805
H258	H	0.100845	0.273740	0.208270
H259	H	0.149420	0.248164	0.177482
H260	H	-0.100500	-0.162222	0.019296
O261	O	0.713773	0.259837	-0.555848
C262	C	0.708863	0.211455	-0.555812
H263	H	0.705154	0.195508	-0.519534
H264	H	0.751620	0.218948	-0.594036
H265	H	0.665846	0.180788	-0.553839
O266	O	0.370918	-0.498805	-0.028341
C267	C	0.353397	-0.551073	-0.028567
H268	H	0.395037	-0.552716	-0.045017
H269	H	0.335903	-0.562230	-0.054917
H270	H	0.315085	-0.580538	0.014050
H271	H	0.466458	-0.162231	-0.159808
O272	O	0.295852	0.085379	-0.555871
C273	C	0.285996	0.104480	-0.589687
H274	H	0.234385	0.079705	-0.571474
H275	H	0.311600	0.100922	-0.630690
H276	H	0.304032	0.148256	-0.594242
O277	O	0.238506	-0.342616	0.260157
C278	C	0.255998	-0.324869	0.207902
H279	H	0.237239	-0.360898	0.194820
H280	H	0.308609	-0.297656	0.179184
H281	H	0.236292	-0.301702	0.207446
O282	O	0.049007	-0.081669	-0.322606
C283	C	-0.012225	-0.110342	-0.307760
H284	H	-0.017312	-0.135696	-0.334499
H285	H	-0.023376	-0.080988	-0.312595
H286	H	-0.045501	-0.137528	-0.264183
H287	H	0.053317	-0.229415	-0.326695
H288	H	0.234481	-0.016989	-0.502098
O289	O	0.527000	-0.342629	-0.028219
C290	C	0.527295	-0.339687	0.017670
H291	H	0.489782	-0.380651	0.050343
H292	H	0.517987	-0.309123	0.032674
H293	H	0.574352	-0.326910	0.007101
O294	O	0.370967	0.267864	-0.349798
C295	C	0.356364	0.224195	-0.316083
H296	H	0.349704	0.190793	-0.334298
H297	H	0.311890	0.208805	-0.275011
H298	H	0.395688	0.237673	-0.311676
O299	O	0.404220	0.273561	-0.322591
C300	C	0.418059	0.319965	-0.307773
H301	H	0.458699	0.334932	-0.304937
H302	H	0.375970	0.310087	-0.267229
H303	H	0.430699	0.352398	-0.339169
H304	H	-0.477230	-0.494609	0.264350
O305	O	-0.005842	-0.108784	0.026955
C306	C	-0.038588	-0.090097	0.024308
H307	H	-0.061914	-0.113329	0.004590
H308	H	-0.005106	-0.045647	-0.000321
H309	H	-0.075222	-0.096202	0.066512
O310	O	-0.104363	-0.314882	-0.155656
C311	C	-0.071476	-0.333392	-0.191199
H312	H	-0.048199	-0.310071	-0.234192
H313	H	-0.104846	-0.377836	-0.182465
H314	H	-0.034791	-0.327237	-0.185681
H315	H	0.234438	-0.116992	0.026668
H316	H	0.322025	0.260264	-0.403257
O317	O	0.082273	-0.498723	0.416406
C318	C	0.021034	-0.513585	0.448980
H319	H	0.015925	-0.486856	0.428732
H320	H	0.009892	-0.508752	0.489485
H321	H	-0.012232	-0.557163	0.455062
O322	O	0.313571	0.260049	-0.155570
C323	C	0.323447	0.303736	-0.136486
H324	H	0.363176	0.318465	-0.132371
H325	H	0.279628	0.290534	-0.095741
H326	H	0.335521	0.337534	-0.165912
H327	H	0.519046	-0.117007	-0.502108
H328	H	-0.010032	-0.261054	0.026651
O329	O	0.081796	-0.021130	0.026996
C330	C	0.065770	0.014269	0.024326
H331	H	0.087435	0.048399	0.038257
H332	H	0.013305	-0.008255	0.051305
H333	H	0.083609	0.031287	-0.018739
O334	O	-0.005993	-0.109142	-0.261872
C335	C	0.056779	-0.075339	-0.280966
H336	H	0.065389	-0.093561	-0.256184
H337	H	0.068631	-0.034334	-0.277411
H338	H	0.087078	-0.070786	-0.324741
H339	H	0.374943	0.267653	-0.257981
O340	O	0.295869	-0.157860	0.018968
C341	C	0.311710	-0.106471	0.021638
H342	H	0.289950	-0.094155	0.007703
H343	H	0.364159	-0.076432	-0.005336
H344	H	0.293831	-0.107270	0.064704
O345	O	0.313807	-0.314449	-0.155162
C346	C	0.265552	-0.314315	-0.111687
H347	H	0.285981	-0.277947	-0.099587
H348	H	0.234890	-0.352457	-0.076356
H349	H	0.236763	-0.312433	-0.123965
H350	H	-0.477211	-0.350922	0.264337
H351	H	-0.009721	-0.261144	-0.257939
O352	O	-0.629171	-0.498795	0.416343
C353	C	-0.646684	-0.551057	0.434096
H354	H	-0.627922	-0.564140	0.398068
H355	H	-0.699296	-0.579765	0.461298
H356	H	-0.626997	-0.551528	0.457276
O357	O	0.081807	-0.265489	-0.349790
C358	C	0.065774	-0.316916	-0.331094
H359	H	0.087444	-0.329381	-0.366688
H360	H	0.013309	-0.346851	-0.305617
H361	H	0.083602	-0.316103	-0.305859
O362	O	0.138943	-0.314930	-0.398978
C363	C	0.124241	-0.348736	-0.427950
H364	H	0.117692	-0.330513	-0.454790
H365	H	0.079681	-0.389738	-0.398802
H366	H	0.163462	-0.353295	-0.453686
O367	O	0.295508	-0.158777	-0.555473
C368	C	0.285549	-0.187838	-0.589195
H369	H	0.245713	-0.231636	-0.564105
H370	H	0.329291	-0.184918	-0.619718
H371	H	0.273592	-0.170459	-0.611030
O372	O	0.527151	0.267864	-0.506419
C373	C	0.542992	0.265192	-0.557808
H374	H	0.499952	0.245488	-0.557761
H375	H	0.562781	0.240539	-0.568872
H376	H	0.579052	0.307387	-0.588347
H377	H	0.556067	-0.085705	-0.326693
H378	H	0.143595	-0.306290	0.019300
H379	H	0.465745	0.260215	-0.547310
H380	H	0.234431	-0.117402	-0.502033
O381	O	0.082226	-0.020816	-0.350147
C382	C	0.066375	0.014731	-0.331646
H383	H	0.109417	0.057721	-0.354964
H384	H	0.046553	0.005996	-0.287199
H385	H	0.030338	0.009218	-0.337815
H386	H	-0.100786	-0.162909	-0.159497
O387	O	0.560358	0.273582	-0.322638
C388	C	0.578067	0.319964	-0.307782
H389	H	0.584545	0.351793	-0.334518
H390	H	0.623403	0.335942	-0.312612
H391	H	0.540574	0.309662	-0.264205
H392	H	0.556060	0.273341	-0.470407
H393	H	0.619089	0.267606	-0.502140
O394	O	0.714219	0.259990	-0.399751
C395	C	0.776997	0.303672	-0.428815
H396	H	0.795699	0.318404	-0.472614
H397	H	0.804605	0.290464	-0.425890
H398	H	0.781450	0.337470	-0.411442
H399	H	0.619405	0.267622	-0.358387
H400	H	0.519053	-0.117005	-0.257940
H401	H	0.518681	0.267623	-0.257663
H402	H	0.142924	0.081199	0.019285
H403	H	-0.100807	-0.306285	0.019284
O404	O	0.295584	0.085833	0.018848
C405	C	0.343835	0.129320	-0.029525
H406	H	0.332907	0.121484	-0.060466
H407	H	0.389052	0.134099	-0.045027
H408	H	0.348565	0.167541	-0.022201
O409	O	0.238455	-0.020777	0.026931
C410	C	0.292506	0.014768	0.024274
H411	H	0.312177	0.057758	0.004553
H412	H	0.328214	0.006027	-0.000357
H413	H	0.280835	0.009259	0.066476
O414	O	0.469752	0.260049	-0.155267
C415	C	0.484352	0.303726	-0.136157
H416	H	0.491004	0.337118	-0.161033
H417	H	0.528829	0.319126	-0.139561
H418	H	0.445029	0.290251	-0.092428
H419	H	0.090683	-0.261057	0.026664
H420	H	0.374972	-0.261057	-0.257631
H421	H	0.556077	-0.085713	-0.470374
O422	O	0.713781	0.085493	-0.398957
C423	C	0.708873	0.128966	-0.394076
H424	H	0.705163	0.141210	-0.426643
H425	H	0.751631	0.164224	-0.398608
H426	H	0.665857	0.116618	-0.353033
O427	O	0.615243	-0.021225	-0.349822
C428	C	0.661257	-0.020246	-0.348678
H429	H	0.698706	-0.013849	-0.390585
H430	H	0.639672	-0.059952	-0.319955
H431	H	0.682602	0.013855	-0.334570
O432	O	0.714056	0.085809	-0.555428
C433	C	0.709175	0.129302	-0.555301
H434	H	0.670401	0.121470	-0.513434
H435	H	0.698455	0.134086	-0.585017
H436	H	0.754720	0.167520	-0.567352
H437	H	0.466457	-0.162235	-0.547652
O438	O	0.615421	-0.020840	-0.506304
C439	C	0.593868	0.004624	-0.519641
H440	H	0.583926	0.027970	-0.491445
H441	H	0.549642	-0.026824	-0.515571
H442	H	0.630605	0.033315	-0.562693
O443	O	0.313819	-0.314463	-0.399569
C444	C	0.267636	-0.315597	-0.352422
H445	H	0.290274	-0.280568	-0.339819
H446	H	0.238848	-0.354867	-0.319125
H447	H	0.236442	-0.312273	-0.360195
O448	O	0.371011	-0.265414	-0.350184
C449	C	0.368899	-0.312567	-0.349135
H450	H	0.368838	-0.325028	-0.384263
H451	H	0.325040	-0.345929	-0.309943
H452	H	0.411108	-0.304874	-0.352350
