data_functionalizedCrystal
_audit_creation_method	'MofGen! by Chris Wilmer'
_symmetry_space_group_name_H-M	'P1'
_symmetry_Int_Tables_number	1
_symmetry_cell_setting	triclinic
loop_
_symmetry_equiv_pos_as_xyz
  x,y,z
_cell_length_a	18.215407
_cell_length_b	18.215405
_cell_length_c	18.215407
_cell_angle_alpha	89.985182
_cell_angle_beta	89.989002
_cell_angle_gamma	90.024806
loop_
_atom_site_label
_atom_site_type_symbol
_atom_site_fract_x
_atom_site_fract_y
_atom_site_fract_z
Zn1	Zn	-1.125002	0.293108	0.416117
Zn2	Zn	-0.791669	0.626441	0.749451
Zn3	Zn	-0.458336	0.959774	1.082784
Zn4	Zn	-1.124931	0.416145	0.293045
Zn5	Zn	-0.791598	0.749478	0.626379
Zn6	Zn	-0.458265	1.082812	0.959712
Zn7	Zn	-1.001955	0.293097	0.293063
Zn8	Zn	-0.668622	0.626430	0.626396
Zn9	Zn	-0.335289	0.959763	0.959730
Zn10	Zn	-1.001901	0.416137	0.416069
Zn11	Zn	-0.668567	0.749470	0.749402
Zn12	Zn	-0.335234	1.082803	1.082735
O13	O	-1.063447	0.354622	0.354574
O14	O	-0.730114	0.687955	0.687907
O15	O	-0.396781	1.021288	1.021240
O16	O	-1.227977	0.309437	0.399805
O17	O	-0.894644	0.642770	0.733138
O18	O	-0.561310	0.976104	1.066471
O19	O	-1.108611	0.399821	0.190064
O20	O	-0.775278	0.733155	0.523397
O21	O	-0.441945	1.066488	0.856730
O22	O	-1.018330	0.190114	0.309414
O23	O	-0.684997	0.523447	0.642748
O24	O	-0.351664	0.856781	0.976081
O25	O	-1.227925	0.399832	0.309384
O26	O	-0.894592	0.733165	0.642718
O27	O	-0.561258	1.066499	0.976051
O28	O	-1.108732	0.190122	0.399822
O29	O	-0.775399	0.523455	0.733155
O30	O	-0.442066	0.856789	1.066488
O31	O	-1.018262	0.309418	0.190076
O32	O	-0.684928	0.642752	0.523410
O33	O	-0.351595	0.976085	0.856743
O34	O	-0.898964	0.309410	0.309367
O35	O	-0.565631	0.642744	0.642700
O36	O	-0.232297	0.976077	0.976034
O37	O	-1.018237	0.399818	0.519059
O38	O	-0.684904	0.733151	0.852393
O39	O	-0.351570	1.066484	1.185726
O40	O	-0.898924	0.399807	0.399739
O41	O	-0.565590	0.733141	0.733072
O42	O	-0.232257	1.066474	1.066405
O43	O	-1.108679	0.309429	0.519095
O44	O	-0.775346	0.642762	0.852428
O45	O	-0.442013	0.976095	1.185762
O46	O	-1.108558	0.519128	0.309337
O47	O	-0.775225	0.852462	0.642670
O48	O	-0.441892	1.185795	0.976004
O49	O	-1.018168	0.519122	0.399722
O50	O	-0.684835	0.852456	0.733055
O51	O	-0.351502	1.185789	1.066388
C52	C	-0.872241	0.354607	0.354550
C53	C	-0.538908	0.687941	0.687883
C54	C	-0.205574	1.021274	1.021217
C55	C	-0.790442	0.354619	0.354557
C56	C	-0.457109	0.687952	0.687891
C57	C	-0.123776	1.021286	1.021224
C58	C	-0.602247	0.401761	0.401552
C59	C	-0.268913	0.735094	0.734886
C60	C	0.064420	1.068427	1.068219
C61	C	-0.525388	0.401762	0.401560
C62	C	-0.192055	0.735096	0.734894
C63	C	0.141279	1.068429	1.068227
C64	C	-0.525400	0.307487	0.307598
C65	C	-0.192067	0.640820	0.640931
C66	C	0.141267	0.974153	0.974264
C67	C	-0.602257	0.307482	0.307594
C68	C	-0.268924	0.640815	0.640927
C69	C	0.064409	0.974149	0.974261
C70	C	-0.640679	0.354623	0.354570
C71	C	-0.307345	0.687956	0.687903
C72	C	0.025988	1.021290	1.021237
C73	C	-0.486963	0.354629	0.354582
C74	C	-0.153629	0.687963	0.687915
C75	C	0.179704	1.021296	1.021249
C76	C	-0.403629	0.354631	0.354591
C77	C	-0.070296	0.687964	0.687924
C78	C	0.263038	1.021298	1.021257
C79	C	-0.724018	0.354621	0.354563
C80	C	-0.390684	0.687954	0.687896
C81	C	-0.057351	1.021288	1.021229
C82	C	-1.063370	0.545828	0.354538
C83	C	-0.730036	0.879161	0.687872
C84	C	-0.396703	1.212495	1.021205
C85	C	-1.063404	0.627627	0.354548
C86	C	-0.730070	0.960960	0.687881
C87	C	-0.396737	1.294293	1.021214
C88	C	-0.255400	0.354634	0.354594
C89	C	0.077933	0.687968	0.687928
C90	C	0.411266	1.021301	1.021261
C91	C	-0.337199	0.354634	0.354595
C92	C	-0.003866	0.687967	0.687928
C93	C	0.329468	1.021300	1.021261
C94	C	-1.063460	0.354624	0.546527
C95	C	-0.730127	0.687957	0.879860
C96	C	-0.396793	1.021290	1.213193
C97	C	-1.063465	0.354624	0.628325
C98	C	-0.730132	0.687958	0.961659
C99	C	-0.396799	1.021291	1.294992
C100	C	-1.063545	0.162669	0.354625
C101	C	-0.730212	0.496002	0.687959
C102	C	-0.396879	0.829335	1.021292
C103	C	-1.063587	0.080870	0.354647
C104	C	-0.730254	0.414203	0.687981
C105	C	-0.396921	0.747536	1.021314
C106	C	-1.110580	0.815799	0.307571
C107	C	-0.777247	1.149133	0.640904
C108	C	-0.443914	1.482466	0.974238
C109	C	-1.110613	0.892658	0.307589
C110	C	-0.777280	1.225991	0.640922
C111	C	-0.443947	1.559325	0.974256
C112	C	-1.016409	0.892692	0.401629
C113	C	-0.683075	1.226025	0.734962
C114	C	-0.349742	1.559358	1.068296
C115	C	-1.016380	0.815834	0.401614
C116	C	-0.683047	1.149168	0.734948
C117	C	-0.349713	1.482501	1.068281
C118	C	-1.063465	0.777390	0.354581
C119	C	-0.730131	1.110724	0.687915
C120	C	-0.396798	1.444057	1.021248
C121	C	-1.063526	0.931106	0.354614
C122	C	-0.730193	1.264440	0.687947
C123	C	-0.396860	1.597773	1.021280
C124	C	-1.063562	1.014440	0.354633
C125	C	-0.730228	1.347773	0.687967
C126	C	-0.396895	1.681107	1.021300
C127	C	-1.063431	0.694051	0.354562
C128	C	-0.730097	1.027385	0.687896
C129	C	-0.396764	1.360718	1.021229
C130	C	-1.110544	0.307567	0.816539
C131	C	-0.777211	0.640900	1.149872
C132	C	-0.443877	0.974233	1.483206
C133	C	-1.110540	0.307566	0.893398
C134	C	-0.777207	0.640900	1.226731
C135	C	-0.443873	0.974233	1.560065
C136	C	-1.016363	0.401693	0.893349
C137	C	-0.683030	0.735026	1.226683
C138	C	-0.349696	1.068360	1.560016
C139	C	-1.016364	0.401689	0.816492
C140	C	-0.683030	0.735022	1.149825
C141	C	-0.349697	1.068356	1.483159
C142	C	-1.063459	0.354627	0.778089
C143	C	-0.730125	0.687960	1.111422
C144	C	-0.396792	1.021294	1.444756
C145	C	-1.063454	0.354631	0.931805
C146	C	-0.730120	0.687964	1.265138
C147	C	-0.396787	1.021297	1.598472
C148	C	-1.063449	0.354631	1.015139
C149	C	-0.730115	0.687964	1.348472
C150	C	-0.396782	1.021297	1.681805
C151	C	-1.063463	0.354626	0.694750
C152	C	-0.730129	0.687959	1.028083
C153	C	-0.396796	1.021292	1.361417
C154	C	-1.063435	0.354636	1.163367
C155	C	-0.730102	0.687969	1.496701
C156	C	-0.396768	1.021302	1.830034
C157	C	-1.063447	0.354633	1.081568
C158	C	-0.730113	0.687966	1.414902
C159	C	-0.396780	1.021300	1.748235
H160	H	-0.633550	0.269092	0.269335
H161	H	-0.300216	0.602425	0.602669
H162	H	0.033117	0.935759	0.936002
O163	O	-1.161370	0.774331	0.256854
O164	O	-0.828037	1.107664	0.590187
O165	O	-0.494704	1.440998	0.923521
H166	H	-1.194144	0.813955	0.224175
H167	H	-0.860811	1.147288	0.557508
H168	H	-0.527477	1.480622	0.890841
O169	O	-0.965569	0.452450	0.934771
O170	O	-0.632236	0.785784	1.268104
O171	O	-0.298902	1.119117	1.601438
H172	H	-0.998486	0.489902	0.969779
H173	H	-0.665153	0.823235	1.303112
H174	H	-0.331820	1.156568	1.636445
H175	H	-0.978013	0.784560	0.439899
H176	H	-0.644679	1.117893	0.773233
H177	H	-0.311346	1.451226	1.106566
H178	H	-1.148981	0.923928	0.269309
H179	H	-0.815647	1.257261	0.602643
H180	H	-0.482314	1.590594	0.935976
H181	H	-0.978073	0.924002	0.439921
H182	H	-0.644739	1.257336	0.773254
H183	H	-0.311406	1.590669	1.106587
H184	H	-1.148890	0.269244	0.785274
H185	H	-0.815556	0.602577	1.118607
H186	H	-0.482223	0.935910	1.451940
O187	O	-0.483933	0.452685	0.452151
O188	O	-0.150600	0.786018	0.785485
O189	O	0.182734	1.119352	1.118818
H190	H	-0.523565	0.485494	0.484781
H191	H	-0.190231	0.818828	0.818114
H192	H	0.143102	1.152161	1.151448
H193	H	-1.148880	0.269244	0.924701
H194	H	-0.815547	0.602577	1.258034
H195	H	-0.482214	0.935910	1.591367
H196	H	-0.978016	0.440011	0.785185
H197	H	-0.644683	0.773344	1.118518
H198	H	-0.311349	1.106677	1.451852
H199	H	-0.494108	0.269107	0.269350
H200	H	-0.160775	0.602440	0.602684
H201	H	0.172558	0.935774	0.936017
O202	O	-0.643690	0.452594	0.452225
O203	O	-0.310357	0.785928	0.785558
O204	O	0.022976	1.119261	1.118892
H205	H	-0.604050	0.485366	0.484902
H206	H	-0.270717	0.818699	0.818235
H207	H	0.062616	1.152033	1.151569
