data_functionalizedCrystal
_audit_creation_method	'MofGen! by Chris Wilmer'
_symmetry_space_group_name_H-M	'P1'
_symmetry_Int_Tables_number	1
_symmetry_cell_setting	triclinic
loop_
_symmetry_equiv_pos_as_xyz
  x,y,z
_cell_length_a	13.339070
_cell_length_b	15.021413
_cell_length_c	13.339070
_cell_angle_alpha	90.007525
_cell_angle_beta	115.629297
_cell_angle_gamma	89.988934
loop_
_atom_site_label
_atom_site_type_symbol
_atom_site_fract_x
_atom_site_fract_y
_atom_site_fract_z
O1	O	-1.496809	0.074081	-0.550514
O2	O	-1.182000	0.074072	-0.478254
O3	O	-1.303274	0.074073	-0.356979
O4	O	-1.375534	0.074080	-0.671788
O5	O	-1.303254	-0.073991	-0.356996
O6	O	-1.181980	-0.073992	-0.478270
O7	O	-1.496789	-0.073983	-0.550530
Zn8	Zn	-1.339381	-0.097496	-0.514403
Zn9	Zn	-1.339408	0.097585	-0.514381
O10	O	-1.375514	-0.073984	-0.671805
C11	C	-1.140874	0.000038	-0.466056
C12	C	-1.018360	0.000035	-0.429672
N13	N	-1.339371	-0.230634	-0.514419
C14	C	-0.732973	0.000050	-0.712571
C15	C	-0.848081	0.000056	-0.746759
C16	C	-0.890657	0.000050	-0.667490
C17	C	-0.818112	0.000039	-0.554028
C18	C	-0.702992	0.000040	-0.519837
C19	C	-0.860677	0.000040	-0.474756
C20	C	-0.788132	0.000029	-0.361294
C21	C	-0.673023	0.000029	-0.327109
C22	C	-0.630448	0.000035	-0.406377
C23	C	-0.975796	0.000040	-0.508947
C24	C	-0.945816	0.000030	-0.316213
C25	C	-0.830707	0.000024	-0.282025
C26	C	-1.283271	-0.470317	-0.570457
C27	C	-1.388482	-0.529648	-0.619622
C28	C	-1.339391	-0.412240	-0.514400
C29	C	-1.234215	-0.529651	-0.465266
C30	C	-1.339403	-0.587665	-0.514381
C31	C	-1.444666	-0.470265	-0.563628
C32	C	-1.290321	-0.470263	-0.409211
C33	C	-1.395592	-0.529567	-0.458355
C34	C	-1.339384	-0.311183	-0.514413
C35	C	-1.339421	-0.688720	-0.514370
C36	C	-0.537914	0.000048	-0.562728
C37	C	-0.660428	0.000045	-0.599111
C38	C	-1.291058	0.000042	-0.315872
C39	C	-1.254675	0.000044	-0.193358
N40	N	-1.339424	0.230723	-0.514358
C41	C	-1.387730	0.000049	-0.712912
C42	C	-1.424114	0.000053	-0.835426
C43	C	-1.537574	0.000052	0.092030
C44	C	-1.571761	0.000045	-0.023079
C45	C	-1.492493	0.000045	-0.065655
C46	C	-1.379030	0.000052	0.006890
C47	C	-1.344839	0.000052	0.122010
C48	C	-1.299758	0.000045	-0.035674
C49	C	-1.186296	0.000052	0.036871
C50	C	-1.152111	0.000053	0.151979
C51	C	-1.231380	0.000053	0.194555
C52	C	-1.333949	0.000045	-0.150794
C53	C	-1.141215	0.000045	-0.120813
C54	C	-1.107028	0.000052	-0.005705
H55	H	-1.034852	0.000045	-0.601328
H56	H	-0.613959	0.000030	-0.234721
C57	C	-1.219268	-0.435160	-0.634589
C58	C	-1.259029	-0.458627	-0.758298
C59	C	-1.195033	-0.423469	-0.822433
C60	C	-1.091275	-0.364843	-0.762859
C61	C	-1.051508	-0.341373	-0.639143
C62	C	-1.115504	-0.376532	-0.575008
H63	H	-1.335842	-0.502028	-0.802405
H64	H	-1.224472	-0.440843	-0.914016
H65	H	-1.043901	-0.338817	-0.810336
H66	H	-0.974695	-0.297972	-0.595036
H67	H	-1.086065	-0.359157	-0.483425
H68	H	-1.443126	-0.555419	-0.410957
C69	C	-1.444552	-0.564896	-0.739783
C70	C	-1.379055	-0.624888	-0.784108
C71	C	-1.435111	-0.660132	-0.904270
C72	C	-1.556663	-0.635384	-0.980106
C73	C	-1.622167	-0.575389	-0.935782
C74	C	-1.566111	-0.540145	-0.815621
H75	H	-1.289068	-0.643210	-0.727968
H76	H	-1.386620	-0.704544	-0.937080
H77	H	-1.598159	-0.661473	-1.069057
H78	H	-1.712154	-0.557066	-0.991922
H79	H	-1.614602	-0.495733	-0.782810
H80	H	-0.980479	0.000029	-0.251665
H81	H	-0.984385	0.000057	-0.695333
H82	H	-0.771625	0.000022	-0.189642
H83	H	-1.426331	0.000039	-0.209849
H84	H	-1.248784	-0.444158	-0.320279
C85	C	-1.564899	-0.435182	-0.619902
C86	C	-1.587108	-0.334220	-0.630354
C87	C	-1.707339	-0.299135	-0.686630
C88	C	-1.805360	-0.365012	-0.732454
C89	C	-1.783153	-0.465980	-0.722003
C90	C	-1.662923	-0.501065	-0.665727
H91	H	-1.514545	-0.285449	-0.596431
H92	H	-1.723777	-0.224392	-0.694366
H93	H	-1.894361	-0.339041	-0.774112
H94	H	-1.855717	-0.514752	-0.755926
H95	H	-1.646485	-0.575809	-0.657991
H96	H	-1.145264	-0.555739	-0.423722
H97	H	-0.907140	0.000072	-0.839139
H98	H	-1.520335	0.000039	-0.159382
H99	H	-0.698296	0.000062	-0.777099
H100	H	-0.536718	0.000029	-0.378547
H101	H	-1.664142	0.000038	-0.082137
H102	H	-1.076667	0.000040	-0.155477
H103	H	-1.602102	0.000045	0.126707
H104	H	-1.203550	0.000062	0.288284
H105	H	-1.059723	0.000052	0.211043
H106	H	-1.014645	0.000057	0.053377
