data_functionalizedCrystal
_audit_creation_method	'MofGen! by Chris Wilmer'
_symmetry_space_group_name_H-M	'P1'
_symmetry_Int_Tables_number	1
_symmetry_cell_setting	triclinic
loop_
_symmetry_equiv_pos_as_xyz
  x,y,z
_cell_length_a	10.654556
_cell_length_b	11.792254
_cell_length_c	9.130313
_cell_angle_alpha	89.998555
_cell_angle_beta	89.999332
_cell_angle_gamma	84.343003
loop_
_atom_site_label
_atom_site_type_symbol
_atom_site_fract_x
_atom_site_fract_y
_atom_site_fract_z
O1	O	1.667387	0.159447	-0.121815
O2	O	2.167387	0.659447	0.378185
O3	O	1.301867	0.174628	-0.121815
O4	O	1.801867	0.674628	0.378185
O5	O	1.493489	0.001889	-0.121804
O6	O	1.993489	0.501889	0.378196
O7	O	1.475765	0.332186	-0.121825
O8	O	1.975765	0.832186	0.378175
O9	O	1.493486	0.001893	0.121794
O10	O	1.993486	0.501893	0.621794
O11	O	1.301865	0.174633	0.121784
O12	O	1.801865	0.674633	0.621784
O13	O	1.667384	0.159452	0.121784
O14	O	2.167384	0.659452	0.621784
Cu15	Cu	1.484624	0.167043	0.144027
Cu16	Cu	1.984624	0.667043	0.644027
Cu17	Cu	1.484627	0.167037	-0.144057
Cu18	Cu	1.984627	0.667037	0.355943
O19	O	1.475763	0.332191	0.121774
O20	O	1.975763	0.832191	0.621774
C21	C	1.255071	0.173514	-0.000015
C22	C	1.755071	0.673514	0.499985
C23	C	1.115637	0.170175	-0.000015
C24	C	1.615637	0.670175	0.499985
C25	C	0.919122	0.165473	-0.132812
C26	C	1.419122	0.665473	0.367188
C27	C	1.050135	0.168604	-0.132806
C28	C	1.550135	0.668604	0.367194
C29	C	1.050121	0.168603	0.132779
C30	C	1.550121	0.668603	0.632779
C31	C	0.919111	0.165464	0.132771
C32	C	1.419111	0.665464	0.632771
C33	C	0.919130	0.165479	-0.286146
C34	C	1.419130	0.665479	0.213854
C35	C	1.050144	0.168610	-0.286140
C36	C	1.550144	0.668610	0.213860
C37	C	1.492371	-0.040402	-0.000005
C38	C	1.992371	0.459598	0.499995
C39	C	1.489029	-0.166423	-0.000007
C40	C	1.989029	0.333577	0.499993
C41	C	1.486314	-0.268766	-0.000012
C42	C	1.986314	0.231234	0.499988
C43	C	1.482919	-0.397161	-0.000026
C44	C	1.982919	0.102839	0.499974
C45	C	1.714180	0.160565	-0.000019
C46	C	2.214180	0.660565	0.499981
C47	C	1.853614	0.163905	-0.000029
C48	C	2.353614	0.663905	0.499971
C49	C	1.476880	0.374482	-0.000029
C50	C	1.976880	0.874482	0.499971
C51	C	1.480222	0.500503	-0.000037
C52	C	1.980222	1.000503	0.499963
N53	N	1.484631	0.167046	0.346649
N54	N	1.984631	0.667046	0.846649
N55	N	1.484630	0.167025	-0.346680
N56	N	1.984630	0.667025	0.153320
C57	C	1.569503	0.090583	0.423306
C58	C	2.069503	0.590583	0.923306
C59	C	1.569500	0.090569	0.576643
C60	C	2.069500	0.590569	1.076643
C61	C	1.399749	0.243491	0.576653
C62	C	1.899749	0.743491	1.076653
C63	C	1.399747	0.243499	0.423319
C64	C	1.899747	0.743499	0.923319
C65	C	1.667512	0.002298	0.423301
C66	C	2.167512	0.502298	0.923301
C67	C	1.667508	0.002284	0.576638
C68	C	2.167508	0.502284	1.076638
H69	H	1.074755	0.248756	-0.345002
H70	H	1.574755	0.748756	0.154998
H71	H	0.867201	0.246312	-0.333728
H72	H	1.367201	0.746312	0.166272
H73	H	1.330627	0.305751	0.360906
H74	H	1.830627	0.805751	0.860906
Br75	Br	1.284550	0.347241	0.680712
Br76	Br	1.784550	0.847241	1.180712
H77	H	0.865782	0.164163	0.240896
H78	H	1.365782	0.664163	0.740896
H79	H	1.646311	-0.084943	0.381686
H80	H	2.146311	0.415057	0.881686
Br81	Br	1.819349	0.048395	0.344015
Br82	Br	2.319349	0.548395	0.844015
H83	H	1.637224	-0.080158	0.624190
H84	H	2.137224	0.419842	1.124190
H85	H	1.103465	0.169872	0.240900
H86	H	1.603465	0.669872	0.740900
H87	H	0.894529	0.085339	-0.345019
H88	H	1.394529	0.585339	0.154981
H89	H	1.102075	0.087772	-0.333714
H90	H	1.602075	0.587772	0.166286
H91	H	1.763965	0.021733	0.618253
H92	H	2.263965	0.521733	1.118253
