data_functionalizedCrystal
_audit_creation_method	'MofGen! by Chris Wilmer'
_symmetry_space_group_name_H-M	'P1'
_symmetry_Int_Tables_number	1
_symmetry_cell_setting	triclinic
loop_
_symmetry_equiv_pos_as_xyz
  x,y,z
_cell_length_a	11.169417
_cell_length_b	12.759400
_cell_length_c	11.169409
_cell_angle_alpha	90.033399
_cell_angle_beta	90.019824
_cell_angle_gamma	90.015294
loop_
_atom_site_label
_atom_site_type_symbol
_atom_site_fract_x
_atom_site_fract_y
_atom_site_fract_z
Zn1	Zn	1.834928	-0.418157	0.678534
Zn2	Zn	1.834803	-0.593882	0.477847
Zn3	Zn	1.634214	-0.418221	0.477868
Zn4	Zn	1.634207	-0.593797	0.678492
O5	O	1.734538	-0.506014	0.578185
O6	O	2.002861	-0.441476	0.651921
O7	O	1.808145	-0.570643	0.309900
O8	O	1.660894	-0.271191	0.504513
O9	O	2.002770	-0.570581	0.504477
O10	O	1.808358	-0.271144	0.651942
O11	O	1.660773	-0.441585	0.309916
O12	O	1.466264	-0.441502	0.504473
O13	O	1.660883	-0.570435	0.846447
O14	O	1.466259	-0.570497	0.651870
O15	O	1.808352	-0.441393	0.846478
O16	O	1.808139	-0.740892	0.504437
O17	O	1.660762	-0.740829	0.651850
C18	C	1.422714	-0.505998	0.578170
C19	C	1.289314	-0.506017	0.578192
C20	C	1.734469	-0.778981	0.578162
C21	C	1.734549	-0.895758	0.578193
C22	C	1.811361	-1.060236	0.655062
C23	C	1.811297	-0.950512	0.655028
C24	C	1.657869	-0.950734	0.501378
C25	C	1.657940	-1.060456	0.501407
C26	C	1.888106	-1.114984	0.731911
C27	C	1.964787	-1.060016	0.808725
C28	C	1.964723	-0.950292	0.808691
C29	C	1.887976	-0.895536	0.731843
C30	C	2.047581	-0.506031	0.578201
C31	C	2.180981	-0.506038	0.578208
C32	C	1.734630	-0.505897	0.891228
C33	C	1.734670	-0.505848	1.024628
C34	C	1.734641	-0.231981	0.578235
C35	C	1.734685	-0.115204	0.578256
C36	C	1.734516	-0.506054	0.266361
C37	C	1.734709	-0.505808	0.132961
H38	H	2.027278	-1.104605	0.871284
O39	O	1.583399	-1.113976	0.426967
C40	C	1.505871	-1.177436	0.495247
H41	H	1.548160	-1.193771	0.586245
H42	H	1.489873	-1.254642	0.446371
H43	H	1.416890	-1.135212	0.508339
O44	O	1.583354	-0.897385	0.426854
C45	C	1.599753	-0.788754	0.443280
H46	H	1.639004	-0.773677	0.535931
H47	H	1.509831	-0.747125	0.435055
H48	H	1.663680	-0.757619	0.372138
H49	H	1.888163	-1.204327	0.731951
H50	H	1.887939	-0.806191	0.731812
O51	O	2.039248	-0.897057	0.883412
C52	C	2.107018	-0.968912	0.951219
H53	H	2.057903	-1.047157	0.955350
H54	H	2.119746	-0.937133	1.045783
H55	H	2.198201	-0.980549	0.907356
