data_functionalizedCrystal
_audit_creation_method	'MofGen! by Chris Wilmer'
_symmetry_space_group_name_H-M	'P1'
_symmetry_Int_Tables_number	1
_symmetry_cell_setting	triclinic
loop_
_symmetry_equiv_pos_as_xyz
  x,y,z
_cell_length_a	23.532407
_cell_length_b	19.288864
_cell_length_c	17.766277
_cell_angle_alpha	89.976755
_cell_angle_beta	90.009887
_cell_angle_gamma	97.007539
loop_
_atom_site_label
_atom_site_type_symbol
_atom_site_fract_x
_atom_site_fract_y
_atom_site_fract_z
O1	O	0.071044	-0.921134	0.062843
O2	O	0.571044	-0.421134	0.562843
O3	O	0.080628	-0.718844	0.062793
O4	O	0.580628	-0.218844	0.562793
O5	O	-0.007083	-0.826089	0.062806
O6	O	0.492917	-0.326089	0.562806
O7	O	0.158755	-0.813889	0.062830
O8	O	0.658755	-0.313889	0.562830
O9	O	-0.007085	-0.826070	-0.062383
O10	O	0.492915	-0.326070	0.437617
O11	O	0.080626	-0.718825	-0.062396
O12	O	0.580626	-0.218825	0.437604
O13	O	0.071042	-0.921115	-0.062345
O14	O	0.571042	-0.421115	0.437655
Cu15	Cu	0.075834	-0.819968	-0.073801
Cu16	Cu	0.575834	-0.319968	0.426199
Cu17	Cu	0.075836	-0.819991	0.074249
Cu18	Cu	0.575836	-0.319991	0.574249
O19	O	0.158753	-0.813870	-0.062358
O20	O	0.658753	-0.313870	0.437642
C21	C	0.080319	-0.692959	0.000192
C22	C	0.580319	-0.192959	0.500192
C23	C	0.079393	-0.615858	0.000172
C24	C	0.579393	-0.115858	0.500172
C25	C	-0.028301	-0.825769	0.000209
C26	C	0.471699	-0.325769	0.500209
C27	C	-0.091520	-0.824835	0.000203
C28	C	0.408480	-0.324835	0.500203
N29	N	0.075831	-0.819957	-0.177932
N30	N	0.575831	-0.319957	0.322068
C31	C	-0.490503	-0.882442	0.000259
C32	C	0.009497	-0.382442	0.500259
C33	C	-0.549905	-0.881574	0.000264
C34	C	-0.049905	-0.381574	0.500264
O35	O	-0.586539	-0.934976	0.000306
O36	O	-0.086539	-0.434976	0.500306
N37	N	-0.572664	-0.817817	0.000248
N38	N	-0.072664	-0.317817	0.500248
C39	C	-0.536017	-0.754923	0.000234
C40	C	-0.036017	-0.254923	0.500234
O41	O	-0.560829	-0.700613	0.000221
O42	O	-0.060829	-0.200613	0.500221
C43	C	-0.476616	-0.755792	0.000234
C44	C	0.023384	-0.255792	0.500234
C45	C	-0.453861	-0.819553	0.000242
C46	C	0.046139	-0.319553	0.500242
C47	C	-0.467748	-0.946198	0.000269
C48	C	0.032252	-0.446198	0.500269
C49	C	-0.408350	-0.947065	0.000262
C50	C	0.091650	-0.447065	0.500262
C51	C	-0.371707	-0.884177	0.000245
C52	C	0.128293	-0.384177	0.500245
C53	C	-0.394463	-0.820420	0.000236
C54	C	0.105537	-0.320420	0.500236
C55	C	-0.439970	-0.692899	0.000225
C56	C	0.060030	-0.192899	0.500225
C57	C	-0.380565	-0.693773	0.000225
C58	C	0.119435	-0.193773	0.500225
C59	C	-0.357810	-0.757534	0.000234
C60	C	0.142190	-0.257534	0.500234
C61	C	-0.298422	-0.758399	0.000212
C62	C	0.201578	-0.258399	0.500212
N63	N	-0.275664	-0.822156	0.000229
N64	N	0.224336	-0.322156	0.500229
C65	C	-0.312307	-0.885045	0.000245
C66	C	0.187693	-0.385045	0.500245
C67	C	-0.660763	-0.753104	0.000235
C68	C	-0.160763	-0.253104	0.500235
C69	C	-0.720163	-0.752235	0.000230
C70	C	-0.220163	-0.252235	0.500230
C71	C	-0.734047	-0.878886	0.000262
C72	C	-0.234047	-0.378886	0.500262
C73	C	-0.674647	-0.879755	0.000262
C74	C	-0.174647	-0.379755	0.500262
C75	C	-0.638005	-0.816861	0.000252
C76	C	-0.138005	-0.316861	0.500252
C77	C	-0.187566	-0.886862	0.000230
C78	C	0.312434	-0.386862	0.500230
C79	C	-0.128162	-0.887724	0.000220
C80	C	0.371838	-0.387724	0.500220
C81	C	-0.114283	-0.761073	0.000192
C82	C	0.385717	-0.261073	0.500192
C83	C	-0.173681	-0.760211	0.000198
C84	C	0.326319	-0.260211	0.500198
C85	C	-0.210322	-0.823111	0.000219
C86	C	0.289678	-0.323111	0.500219
O87	O	-0.261754	-0.705025	0.000174
O88	O	0.238246	-0.205025	0.500174
O89	O	-0.287486	-0.939346	0.000268
O90	O	0.212514	-0.439346	0.500268
C91	C	0.179971	-0.814190	0.000240
C92	C	0.679971	-0.314190	0.500240
C93	C	0.243190	-0.815124	0.000251
C94	C	0.743190	-0.315124	0.500251
C95	C	0.071351	-0.947000	0.000257
C96	C	0.571351	-0.447000	0.500257
C97	C	0.072277	-1.024101	0.000282
C98	C	0.572277	-0.524101	0.500282
C99	C	0.130858	-0.571003	0.000191
C100	C	0.630858	-0.071003	0.500191
C101	C	0.129988	-0.498559	0.000200
C102	C	0.629988	0.001441	0.500200
C103	C	0.077651	-0.470973	0.000203
C104	C	0.577651	0.029027	0.500203
C105	C	0.026179	-0.515838	0.000180
C106	C	0.526179	-0.015838	0.500180
C107	C	0.027050	-0.588280	0.000164
C108	C	0.527050	-0.088280	0.500164
C109	C	0.036508	-0.362844	0.044082
C110	C	0.536508	0.137156	0.544082
C111	C	0.035639	-0.290402	0.044102
C112	C	0.535639	0.209598	0.544102
C113	C	0.074961	-0.247535	0.000249
C114	C	0.574961	0.252465	0.500249
C115	C	0.115162	-0.277117	-0.043616
C116	C	0.615162	0.222883	0.456384
C117	C	0.116033	-0.349560	-0.043631
C118	C	0.616033	0.150440	0.456369
C119	C	0.076700	-0.392422	0.000220
C120	C	0.576700	0.107578	0.500220
C121	C	0.125487	-0.124127	0.000276
C122	C	0.625487	0.375873	0.500276
C123	C	0.124615	-0.051682	0.000279
C124	C	0.624615	0.448318	0.500279
C125	C	0.020805	-0.068962	0.000267
C126	C	0.520805	0.431038	0.500267
C127	C	0.021678	-0.141406	0.000256
C128	C	0.521678	0.358594	0.500256
C129	C	0.074021	-0.168984	0.000264
C130	C	0.574021	0.331016	0.500264
C131	C	0.110287	-0.861839	-0.217296
C132	C	0.610287	-0.361839	0.282704
C133	C	0.110286	-0.861850	-0.296098
C134	C	0.610286	-0.361850	0.203902
C135	C	0.075834	-0.819966	-0.335532
C136	C	0.575834	-0.319966	0.164468
C137	C	0.041371	-0.778083	-0.296159
C138	C	0.541371	-0.278083	0.203841
C139	C	0.041369	-0.778078	-0.217358
C140	C	0.541369	-0.278078	0.282642
C141	C	0.074394	-0.757358	-0.460408
C142	C	0.574394	-0.257358	0.039592
C143	C	0.074400	-0.757361	-0.539207
C144	C	0.574400	-0.257361	-0.039207
C145	C	0.075836	-0.819981	-0.578579
C146	C	0.575836	-0.319981	-0.078579
C147	C	0.077279	-0.882598	-0.539142
C148	C	0.577279	-0.382598	-0.039142
C149	C	0.077277	-0.882594	-0.460342
C150	C	0.577277	-0.382594	0.039658
C151	C	0.075832	-0.819967	-0.420978
C152	C	0.575832	-0.319967	0.079022
C153	C	0.110292	-0.861877	-0.703389
C154	C	0.610292	-0.361877	-0.203389
C155	C	0.110287	-0.861890	-0.782192
C156	C	0.610287	-0.361890	-0.282192
C157	C	0.041375	-0.778116	-0.782251
C158	C	0.541375	-0.278116	-0.282251
C159	C	0.041378	-0.778111	-0.703450
C160	C	0.541378	-0.278111	-0.203450
C161	C	0.075839	-0.819990	-0.664023
C162	C	0.575839	-0.319990	-0.164023
N163	N	0.075834	-0.820007	0.178379
N164	N	0.575834	-0.320007	0.678379
H165	H	-0.109639	-0.939648	0.000225
H166	H	0.390361	-0.439648	0.500225
C167	C	-0.649622	-0.949896	0.000278
C168	C	-0.149622	-0.449896	0.500278
N169	N	-0.630777	-1.002730	0.000293
N170	N	-0.130777	-0.502730	0.500293
C171	C	0.158419	-0.229969	-0.091861
C172	C	0.658419	0.270031	0.408139
N173	N	0.190998	-0.194454	-0.128198
N174	N	0.690998	0.305546	0.371802
C175	C	0.003476	-0.732009	-0.339538
C176	C	0.503476	-0.232009	0.160462
N177	N	-0.025068	-0.697306	-0.372212
N178	N	0.474932	-0.197306	0.127788
C179	C	0.003467	-0.731999	-0.174057
C180	C	0.503467	-0.231999	0.325943
N181	N	-0.025081	-0.697290	-0.141440
N182	N	0.474919	-0.197290	0.358560
H183	H	0.168107	-0.146582	0.000271
H184	H	0.668107	0.353418	0.500271
H185	H	-0.217393	-0.938081	0.000250
H186	H	0.282607	-0.438081	0.500250
H187	H	-0.389829	-0.998986	0.000272
H188	H	0.110171	-0.498986	0.500272
H189	H	-0.084438	-0.709871	0.000176
H190	H	0.415562	-0.209871	0.500176
C191	C	0.148190	-0.907915	-0.173931
C192	C	0.648190	-0.407915	0.326069
N193	N	0.176736	-0.942623	-0.141267
N194	N	0.676736	-0.442623	0.358733
C195	C	0.148192	-0.907924	-0.339407
C196	C	0.648192	-0.407924	0.160593
N197	N	0.176743	-0.942627	-0.372025
N198	N	0.676743	-0.442627	0.127975
H199	H	-0.630931	-0.701886	0.000220
H200	H	-0.130931	-0.201886	0.500220
H201	H	-0.350733	-0.642556	0.000218
H202	H	0.149267	-0.142556	0.500218
C203	C	0.148195	-0.907952	-0.660017
C204	C	0.648195	-0.407952	-0.160017
N205	N	0.176742	-0.942657	-0.627351
N206	N	0.676742	-0.442657	-0.127351
H207	H	-0.763893	-0.930094	0.000279
H208	H	-0.263893	-0.430094	0.500279
C209	C	0.072816	-0.688481	-0.582579
C210	C	0.572816	-0.188481	-0.082579
N211	N	0.071623	-0.636598	-0.615246
N212	N	0.571623	-0.136598	-0.115246
C213	C	-0.745186	-0.682093	0.000211
C214	C	-0.245186	-0.182093	0.500211
N215	N	-0.764031	-0.629259	0.000201
N216	N	-0.264031	-0.129259	0.500201
H217	H	0.002908	-0.266322	0.079822
H218	H	0.502908	0.233678	0.579822
H219	H	0.173479	-0.593452	0.000199
H220	H	0.673479	-0.093452	0.500199
H221	H	-0.497577	-0.997412	0.000285
H222	H	0.002423	-0.497412	0.500285
H223	H	0.078451	-0.933579	-0.428236
H224	H	0.578451	-0.433579	0.071764
H225	H	0.171898	-0.462031	0.000213
H226	H	0.671898	0.037969	0.500213
H227	H	0.073228	-0.706362	-0.428358
H228	H	0.573228	-0.206362	0.071642
H229	H	-0.458486	-0.640978	0.000222
H230	H	0.041514	-0.140978	0.500222
C231	C	-0.036768	-0.038622	0.000270
C232	C	0.463232	0.461378	0.500270
N233	N	-0.080132	-0.015766	0.000271
N234	N	0.419868	0.484234	0.500271
H235	H	0.166526	-0.015161	0.000291
H236	H	0.666526	0.484839	0.500291
H237	H	-0.192209	-0.708291	0.000170
H238	H	0.307791	-0.208291	0.500170
C239	C	-0.006750	-0.409991	0.092331
C240	C	0.493250	0.090009	0.592331
N241	N	-0.039330	-0.445501	0.128672
N242	N	0.460670	0.054499	0.628672
H243	H	0.148765	-0.373643	-0.079349
H244	H	0.648765	0.126357	0.420651
C245	C	-0.034938	-0.190749	0.000243
C246	C	0.465062	0.309251	0.500243
N247	N	-0.077584	-0.227914	0.000233
N248	N	0.422416	0.272086	0.500233
C249	C	0.078857	-0.951486	-0.582445
C250	C	0.578857	-0.451486	-0.082445
N251	N	0.080046	-1.003370	-0.615064
N252	N	0.580046	-0.503370	-0.115064
H253	H	-0.016435	-0.493372	0.000193
H254	H	0.483565	0.006628	0.500193
C255	C	0.148205	-0.907951	-0.825492
C256	C	0.648205	-0.407951	-0.325492
N257	N	0.176771	-0.942638	-0.858107
N258	N	0.676771	-0.442638	-0.358107
C259	C	0.003477	-0.732045	-0.825625
C260	C	0.503477	-0.232045	-0.325625
N261	N	-0.025069	-0.697345	-0.858298
N262	N	0.474931	-0.197345	-0.358298
C263	C	0.003479	-0.732030	-0.660147
C264	C	0.503479	-0.232030	-0.160147
N265	N	-0.025069	-0.697320	-0.627533
N266	N	0.474931	-0.197320	-0.127533
H267	H	-0.014860	-0.624802	0.000149
H268	H	0.485140	-0.124802	0.500149
