data_functionalizedCrystal
_audit_creation_method	'MofGen! by Chris Wilmer'
_symmetry_space_group_name_H-M	'P1'
_symmetry_Int_Tables_number	1
_symmetry_cell_setting	triclinic
loop_
_symmetry_equiv_pos_as_xyz
  x,y,z
_cell_length_a	10.723022
_cell_length_b	14.519731
_cell_length_c	9.798715
_cell_angle_alpha	89.995867
_cell_angle_beta	89.996609
_cell_angle_gamma	84.078040
loop_
_atom_site_label
_atom_site_type_symbol
_atom_site_fract_x
_atom_site_fract_y
_atom_site_fract_z
O1	O	1.655992	0.129339	-0.113486
O2	O	1.292725	0.141722	-0.113491
O3	O	1.483976	0.001342	-0.113475
O4	O	1.464741	0.269719	-0.113501
O5	O	1.483962	0.001342	0.113507
O6	O	1.292711	0.141721	0.113492
O7	O	1.655978	0.129339	0.113497
Zn8	Zn	1.474342	0.135530	0.149532
Zn9	Zn	1.474361	0.135531	-0.149526
O10	O	1.464727	0.269718	0.113482
C11	C	1.246227	0.140821	0.000000
C12	C	1.107697	0.138126	-0.000001
C13	C	0.888818	0.213887	-0.000011
C14	C	1.031995	0.216674	-0.000010
C15	C	1.483068	-0.033022	0.000016
C16	C	1.480367	-0.135416	0.000017
C17	C	1.478173	-0.218571	0.000013
C18	C	1.475431	-0.322894	0.000003
C19	C	1.473254	-0.406044	-0.000006
C20	C	1.470512	-0.510373	-0.000014
C21	C	1.702477	0.130240	0.000003
C22	C	1.841006	0.132935	-0.000004
C23	C	1.465635	0.304082	-0.000013
C24	C	1.468336	0.406476	-0.000023
N25	N	1.474339	0.135529	0.353632
N26	N	1.474375	0.135524	-0.353626
C27	C	1.554642	0.076328	0.421415
C28	C	1.554662	0.076325	0.578578
H29	H	1.066535	0.068812	-0.000031
H30	H	1.405624	0.186215	0.588092
H31	H	0.906070	0.065693	-0.000006
O32	O	0.811387	0.294198	-0.000083
C33	C	0.795715	0.460951	-0.000021
C34	C	0.883544	0.370066	0.000031
H35	H	0.854019	0.522314	0.000100
H36	H	0.734078	0.463966	-0.095038
H37	H	0.734011	0.463852	0.094945
H38	H	0.945326	0.367105	-0.094870
H39	H	0.945095	0.367089	0.095111
O40	O	1.081307	0.299287	-0.000086
C41	C	1.268975	0.377389	-0.000026
C42	C	1.213294	0.283764	0.000035
H43	H	1.375694	0.364872	0.000101
H44	H	1.236307	0.418309	-0.095049
H45	H	1.236132	0.418305	0.094935
H46	H	1.246112	0.242773	-0.094861
H47	H	1.245957	0.242915	0.095121
O48	O	1.636525	0.015752	0.351884
C49	C	1.708734	-0.144171	0.307864
C50	C	1.615909	-0.075680	0.386683
H51	H	1.692117	-0.218108	0.335991
H52	H	1.694083	-0.133450	0.193499
H53	H	1.808795	-0.131650	0.335825
H54	H	1.515812	-0.088160	0.358837
H55	H	1.630670	-0.086418	0.501029
H56	H	1.405598	0.186208	0.411951
H57	H	1.623418	0.025644	0.636869
