data_functionalizedCrystal
_audit_creation_method	'MofGen! by Chris Wilmer'
_symmetry_space_group_name_H-M	'P1'
_symmetry_Int_Tables_number	1
_symmetry_cell_setting	triclinic
loop_
_symmetry_equiv_pos_as_xyz
  x,y,z
_cell_length_a	10.685901
_cell_length_b	25.639240
_cell_length_c	10.685997
_cell_angle_alpha	85.633614
_cell_angle_beta	89.662132
_cell_angle_gamma	85.668536
loop_
_atom_site_label
_atom_site_type_symbol
_atom_site_fract_x
_atom_site_fract_y
_atom_site_fract_z
Zn1	Zn	1.971798	-0.288630	0.561882
Zn2	Zn	1.955592	-0.368862	0.352131
Zn3	Zn	1.746008	-0.275308	0.368258
Zn4	Zn	1.761942	-0.369891	0.577958
O5	O	1.858835	-0.325672	0.465057
O6	O	2.145186	-0.304417	0.520581
O7	O	1.914340	-0.350445	0.178728
O8	O	1.776074	-0.203914	0.393965
O9	O	2.133279	-0.363363	0.366477
O10	O	1.941961	-0.213702	0.536219
O11	O	1.760359	-0.281712	0.190577
O12	O	1.572584	-0.282710	0.409553
O13	O	1.803231	-0.365118	0.751368
O14	O	1.584291	-0.352200	0.563618
O15	O	1.957411	-0.305415	0.739557
O16	O	1.929790	-0.442159	0.382065
O17	O	1.787516	-0.442915	0.547980
C18	C	1.532923	-0.316121	0.490081
C19	C	1.393499	-0.312049	0.500816
C20	C	1.858660	-0.461509	0.465042
C21	C	1.858703	-0.519625	0.465068
C22	C	1.945212	-0.775870	0.539212
C23	C	1.945173	-0.721265	0.539205
O24	O	2.018579	-0.697317	0.602214
N25	N	1.858841	-0.688904	0.465073
C26	C	1.772550	-0.711151	0.390934
O27	O	1.699115	-0.678611	0.327877
C28	C	1.772595	-0.765756	0.390934
C29	C	1.858925	-0.798114	0.465081
C30	C	2.031535	-0.808228	0.613351
C31	C	2.031572	-0.862830	0.613359
C32	C	1.945285	-0.885074	0.539228
C33	C	1.858961	-0.852716	0.465089
C34	C	1.686311	-0.788002	0.316788
C35	C	1.686364	-0.842611	0.316795
C36	C	1.772694	-0.874969	0.390941
C37	C	1.772711	-0.929562	0.390965
N38	N	1.859043	-0.961923	0.465097
C39	C	1.945330	-0.939679	0.539229
C40	C	1.772463	-0.596478	0.390936
C41	C	1.772411	-0.541874	0.390941
C42	C	1.945036	-0.551991	0.539212
C43	C	1.945081	-0.606596	0.539212
C44	C	1.858795	-0.628839	0.465068
C45	C	1.945400	-1.054347	0.539241
C46	C	1.945425	-1.108953	0.539246
C47	C	1.772805	-1.098831	0.390972
C48	C	1.772774	-1.044229	0.390971
C49	C	1.859082	-1.021989	0.465109
O50	O	1.699346	-0.953546	0.327985
O51	O	2.018764	-0.972224	0.602262
C52	C	2.186020	-0.335261	0.439937
C53	C	2.325447	-0.339347	0.429232
C54	C	1.883906	-0.336867	0.792251
C55	C	1.894590	-0.341638	0.931681
C56	C	1.859048	-0.189307	0.465098
C57	C	1.859138	-0.131197	0.465115
C58	C	1.833852	-0.314531	1.139137
C59	C	1.823168	-0.309756	0.999707
H60	H	1.373849	-0.365836	0.359743
H61	H	1.753833	-0.278810	0.951273
H62	H	2.015373	-0.632939	0.599595
H63	H	2.101879	-0.889172	0.673727
H64	H	2.015297	-0.533871	0.599572
H65	H	1.345091	-0.285564	0.570320
H66	H	1.963915	-0.372584	0.980109
H67	H	2.015681	-1.036245	0.599609
H68	H	2.015724	-1.135298	0.599633
H69	H	2.101806	-0.790123	0.673717
H70	H	1.702101	-0.515531	0.330580
H71	H	1.616014	-0.761663	0.256411
H72	H	1.702187	-0.614583	0.330563
H73	H	1.616099	-0.860717	0.256414
H74	H	1.702465	-1.017882	0.330608
H75	H	1.702549	-1.116952	0.330619
