data_functionalizedCrystal
_audit_creation_method	'MofGen! by Chris Wilmer'
_symmetry_space_group_name_H-M	'P1'
_symmetry_Int_Tables_number	1
_symmetry_cell_setting	triclinic
loop_
_symmetry_equiv_pos_as_xyz
  x,y,z
_cell_length_a	12.594516
_cell_length_b	12.645331
_cell_length_c	12.645324
_cell_angle_alpha	90.027879
_cell_angle_beta	89.969158
_cell_angle_gamma	89.987401
loop_
_atom_site_label
_atom_site_type_symbol
_atom_site_fract_x
_atom_site_fract_y
_atom_site_fract_z
Zn1	Zn	-0.423759	-1.620746	-0.599592
Zn2	Zn	-0.601784	-1.620632	-0.422335
Zn3	Zn	-0.423809	-1.443460	-0.422321
Zn4	Zn	-0.601685	-1.443448	-0.599535
O5	O	-0.512759	-1.532072	-0.510946
O6	O	-0.447395	-1.769079	-0.576108
O7	O	-0.578237	-1.597087	-0.273986
O8	O	-0.274857	-1.467030	-0.445855
O9	O	-0.578189	-1.768995	-0.445878
O10	O	-0.274820	-1.597282	-0.576095
O11	O	-0.447480	-1.466920	-0.273976
O12	O	-0.447384	-1.295111	-0.445800
O13	O	-0.578021	-1.467009	-0.747890
O14	O	-0.578069	-1.295102	-0.575998
O15	O	-0.447299	-1.597270	-0.747932
O16	O	-0.750717	-1.597075	-0.445823
O17	O	-0.750644	-1.466899	-0.576011
C18	C	-0.512722	-1.256642	-0.510892
C19	C	-0.512732	-1.138812	-0.510894
C20	C	-0.430387	-1.093900	-0.429116
C21	C	-0.430075	-0.971340	-0.429386
C22	C	-0.482795	-0.970982	-0.622787
C23	C	-0.482188	-1.093580	-0.622286
C24	C	-0.625243	-1.093600	-0.481813
C25	C	-0.624648	-0.970992	-0.479377
C26	C	-0.789300	-1.532002	-0.510936
C27	C	-0.907606	-1.532069	-0.510967
C28	C	-0.976858	-1.461259	-0.581726
C29	C	-1.047730	-1.435427	-0.484991
C30	C	-1.047533	-1.557998	-0.607718
C31	C	-0.976919	-1.506186	-0.414180
C32	C	-0.976716	-1.628802	-0.536973
C33	C	-1.047556	-1.603007	-0.440171
C34	C	-0.235139	-1.532170	-0.510980
C35	C	-0.116833	-1.532212	-0.510994
C36	C	-0.512644	-1.532151	-0.787451
C37	C	-0.512594	-1.532185	-0.905282
C38	C	-0.512781	-0.808577	-0.510980
C39	C	-0.512749	-0.926407	-0.510941
C40	C	-0.430596	-1.614451	-1.072872
C41	C	-0.430300	-1.614187	-0.950312
C42	C	-0.482107	-1.420502	-0.949750
C43	C	-0.481485	-1.421001	-1.072348
C44	C	-0.625200	-1.560696	-1.072484
C45	C	-0.624634	-1.563139	-0.949878
C46	C	-0.512798	-1.532053	-0.235516
C47	C	-0.512547	-1.532225	-0.117687
H48	H	-0.647243	-0.941854	-0.397063
H49	H	-0.400678	-1.395926	-0.919051
H50	H	-0.539963	-1.357570	-0.920578
H51	H	-0.689252	-0.940397	-0.534559
H52	H	-0.399959	-1.122196	-0.646867
H53	H	-0.686588	-1.122641	-0.541376
H54	H	-0.449449	-1.697540	-1.102372
H55	H	-0.347606	-1.595842	-1.103693
H56	H	-0.945503	-1.710522	-0.558993
H57	H	-1.078402	-1.662949	-0.380274
H58	H	-0.346711	-0.942029	-0.448693
H59	H	-1.078946	-1.353689	-0.463017
H60	H	-1.078552	-1.579871	-0.689529
H61	H	-0.346849	-1.595336	-0.920996
H62	H	-0.946029	-1.484219	-0.332347
H63	H	-0.945815	-1.401271	-0.641478
H64	H	-0.652954	-1.640712	-1.103477
H65	H	-0.449393	-1.697002	-0.920249
H66	H	-0.399136	-1.396868	-1.100954
H67	H	-0.538577	-1.357651	-1.101991
H68	H	-0.647623	-1.645328	-0.920815
H69	H	-0.688980	-1.507603	-0.919222
H70	H	-0.401475	-0.940300	-0.647802
H71	H	-0.448765	-0.941197	-0.346467
H72	H	-0.448865	-1.123303	-0.345921
H73	H	-0.686263	-1.500812	-1.101472
H74	H	-0.539580	-1.123297	-0.685327
H75	H	-0.347491	-1.124724	-0.448174
H76	H	-0.540943	-0.941884	-0.685405
H77	H	-0.652595	-1.124465	-0.401617
