data_functionalizedCrystal
_audit_creation_method	'MofGen! by Chris Wilmer'
_symmetry_space_group_name_H-M	'P1'
_symmetry_Int_Tables_number	1
_symmetry_cell_setting	triclinic
loop_
_symmetry_equiv_pos_as_xyz
  x,y,z
_cell_length_a	19.188930
_cell_length_b	27.732048
_cell_length_c	17.666332
_cell_angle_alpha	89.988553
_cell_angle_beta	89.976766
_cell_angle_gamma	82.893716
loop_
_atom_site_label
_atom_site_type_symbol
_atom_site_fract_x
_atom_site_fract_y
_atom_site_fract_z
O1	O	0.925765	0.060348	-0.063200
O2	O	1.259098	0.393681	0.270134
O3	O	1.592431	0.727015	0.603467
O4	O	0.722402	0.068472	-0.063149
O5	O	1.055735	0.401805	0.270184
O6	O	1.389068	0.735138	0.603518
O7	O	0.830399	-0.005968	-0.063161
O8	O	1.163732	0.327366	0.270172
O9	O	1.497066	0.660699	0.603505
O10	O	0.817767	0.134787	-0.063187
O11	O	1.151100	0.468121	0.270146
O12	O	1.484434	0.801454	0.603480
O13	O	0.830380	-0.005971	0.062735
O14	O	1.163714	0.327362	0.396069
O15	O	1.497047	0.660695	0.729402
O16	O	0.722383	0.068468	0.062748
O17	O	1.055716	0.401801	0.396081
O18	O	1.389049	0.735135	0.729415
O19	O	0.925746	0.060344	0.062697
O20	O	1.259079	0.393677	0.396030
O21	O	1.592413	0.727011	0.729364
Cu22	Cu	0.824063	0.064406	0.074218
Cu23	Cu	1.157396	0.397739	0.407551
Cu24	Cu	1.490729	0.731072	0.740885
Cu25	Cu	0.824085	0.064410	-0.074670
Cu26	Cu	1.157418	0.397744	0.258664
Cu27	Cu	1.490752	0.731077	0.591997
O28	O	0.817748	0.134783	0.062710
O29	O	1.151082	0.468117	0.396043
O30	O	1.484415	0.801450	0.729376
C31	C	0.696383	0.068207	-0.000194
C32	C	1.029716	0.401540	0.333140
C33	C	1.363050	0.734873	0.666473
C34	C	0.618883	0.067417	-0.000174
C35	C	0.952217	0.400750	0.333160
C36	C	1.285550	0.734084	0.666493
C37	C	0.573681	0.111096	-0.000194
C38	C	0.907014	0.444429	0.333140
C39	C	1.240348	0.777762	0.666473
C40	C	0.500862	0.110354	-0.000202
C41	C	0.834195	0.443687	0.333132
C42	C	1.167528	0.777020	0.666465
C43	C	0.473249	0.065931	-0.000205
C44	C	0.806582	0.399264	0.333128
C45	C	1.139915	0.732597	0.666461
C46	C	0.518461	0.022246	-0.000181
C47	C	0.851794	0.355580	0.333152
C48	C	1.185128	0.688913	0.666485
C49	C	0.591278	0.022990	-0.000165
C50	C	0.924612	0.356323	0.333168
C51	C	1.257945	0.689656	0.666501
N52	N	0.365491	0.031976	-0.043078
N53	N	0.698825	0.365310	0.290256
N54	N	1.032158	0.698643	0.623589
N55	N	0.296317	0.031273	-0.043094
N56	N	0.629651	0.364607	0.290239
N57	N	0.962984	0.697940	0.623572
C58	C	0.253854	0.063689	-0.000251
C59	C	0.587188	0.397022	0.333082
C60	C	0.920521	0.730356	0.666415
N61	N	0.283177	0.096841	0.042600
N62	N	0.616510	0.430175	0.375933
N63	N	0.949844	0.763508	0.709266
N64	N	0.352357	0.097546	0.042613
N65	N	0.685691	0.430879	0.375946
N66	N	1.019024	0.764213	0.709280
C67	C	0.394291	0.065120	-0.000222
C68	C	0.727625	0.398453	0.333111
C69	C	1.060958	0.731787	0.666445
C70	C	0.129692	0.106566	-0.000279
C71	C	0.463026	0.439899	0.333054
C72	C	0.796359	0.773233	0.666388
C73	C	0.056872	0.105822	-0.000282
C74	C	0.390206	0.439156	0.333051
C75	C	0.723539	0.772489	0.666384
C76	C	0.074473	0.017714	-0.000269
C77	C	0.407806	0.351047	0.333064
C78	C	0.741140	0.684380	0.666397
C79	C	0.147292	0.018459	-0.000258
C80	C	0.480625	0.351792	0.333075
C81	C	0.813958	0.685125	0.666408
C82	C	0.174897	0.062886	-0.000267
C83	C	0.508230	0.396220	0.333067
C84	C	0.841563	0.729553	0.666400
C85	C	0.830125	-0.023977	-0.000211
C86	C	1.163458	0.309356	0.333122
C87	C	1.496791	0.642689	0.666456
C88	C	0.829326	-0.077635	-0.000204
C89	C	1.162660	0.255699	0.333129
C90	C	1.495993	0.589032	0.666462
C91	C	0.888119	-0.416270	-0.000258
C92	C	1.221452	-0.082937	0.333075
C93	C	1.554786	0.250397	0.666409
C94	C	0.885157	-0.617939	-0.000268
C95	C	1.218490	-0.284605	0.333065
C96	C	1.551823	0.048728	0.666399
O97	O	0.938918	-0.649030	-0.000314
O98	O	1.272252	-0.315696	0.333019
O99	O	1.605585	0.017637	0.666352
N100	N	0.821118	-0.637258	-0.000251
N101	N	1.154452	-0.303925	0.333082
N102	N	1.487785	0.029409	0.666416
C103	C	0.757816	-0.606157	-0.000237
C104	C	1.091150	-0.272824	0.333096
C105	C	1.424483	0.060510	0.666430
O106	O	0.703280	-0.627217	-0.000231
O107	O	1.036613	-0.293883	0.333103
O108	O	1.369947	0.039450	0.666436
C109	C	0.760780	-0.404489	-0.000233
C110	C	1.094113	-0.071156	0.333101
C111	C	1.427446	0.262177	0.666434
C112	C	0.824822	-0.385173	-0.000242
C113	C	1.158155	-0.051839	0.333092
C114	C	1.491489	0.281494	0.666425
C115	C	0.952156	-0.396953	-0.000268
C116	C	1.285489	-0.063619	0.333065
C117	C	1.618823	0.269714	0.666399
C118	C	0.952896	-0.346539	-0.000261
C119	C	1.286229	-0.013205	0.333072
C120	C	1.619563	0.320128	0.666405
C121	C	0.889599	-0.315441	-0.000245
C122	C	1.222932	0.017892	0.333088
C123	C	1.556266	0.351225	0.666422
C124	C	0.825562	-0.334759	-0.000235
C125	C	1.158895	-0.001425	0.333098
C126	C	1.492228	0.331908	0.666432
C127	C	0.697478	-0.373389	-0.000224
C128	C	1.030812	-0.040056	0.333110
C129	C	1.364145	0.293278	0.666443
C130	C	0.698225	-0.322969	-0.000225
C131	C	1.031558	0.010364	0.333109
C132	C	1.364892	0.343697	0.666442
C133	C	0.762267	-0.303653	-0.000234
C134	C	1.095600	0.029680	0.333100
C135	C	1.428934	0.363014	0.666433
C136	C	0.763005	-0.253247	-0.000212
C137	C	1.096338	0.080086	0.333121
C138	C	1.429671	0.413420	0.666455
N139	N	0.827043	-0.233928	-0.000229
N140	N	1.160376	0.099406	0.333105
N141	N	1.493709	0.432739	0.666438
C142	C	0.890340	-0.265025	-0.000245
C143	C	1.223673	0.068309	0.333088
C144	C	1.557007	0.401642	0.666422
C145	C	0.756265	-0.712036	-0.000238
C146	C	1.089599	-0.378702	0.333096
C147	C	1.422932	-0.045369	0.666429
C148	C	0.755524	-0.762452	-0.000238
C149	C	1.088858	-0.429119	0.333096
C150	C	1.422191	-0.095786	0.666429
C151	C	0.882865	-0.774231	-0.000270
C152	C	1.216198	-0.440897	0.333064
C153	C	1.549531	-0.107564	0.666397
C154	C	0.883605	-0.723813	-0.000265
C155	C	1.216938	-0.390480	0.333069
C156	C	1.550272	-0.057146	0.666402
C157	C	0.820303	-0.692716	-0.000254
C158	C	1.153637	-0.359383	0.333079
C159	C	1.486970	-0.026050	0.666412
C160	C	0.891889	-0.159151	-0.000231
C161	C	1.225222	0.174182	0.333103
C162	C	1.558556	0.507516	0.666436
C163	C	0.892623	-0.108732	-0.000221
C164	C	1.225957	0.224602	0.333112
C165	C	1.559290	0.557935	0.666446
C166	C	0.765283	-0.096958	-0.000193
C167	C	1.098617	0.236375	0.333141
C168	C	1.431950	0.569709	0.666474
C169	C	0.764549	-0.147373	-0.000198
C170	C	1.097882	0.185961	0.333135
C171	C	1.431215	0.519294	0.666468
C172	C	0.827857	-0.178468	-0.000220
C173	C	1.161190	0.154865	0.333113
C174	C	1.494524	0.488198	0.666447
O175	O	0.709272	-0.222127	-0.000174
O176	O	1.042605	0.111206	0.333159
O177	O	1.375938	0.444539	0.666493
O178	O	0.944868	-0.243956	-0.000268
O179	O	1.278202	0.089378	0.333065
O180	O	1.611535	0.422711	0.666399
C181	C	0.887379	-0.466684	-0.000265
C182	C	1.220712	-0.133351	0.333069
C183	C	1.554046	0.199983	0.666402
C184	C	0.823342	-0.486001	-0.000255
C185	C	1.156675	-0.152668	0.333079
C186	C	1.490009	0.180666	0.666412
C187	C	0.760045	-0.454904	-0.000238
C188	C	1.093378	-0.121571	0.333095
C189	C	1.426712	0.211763	0.666428
C190	C	0.822601	-0.536418	-0.000254
C191	C	1.155934	-0.203084	0.333079
C192	C	1.489268	0.130249	0.666412
C193	C	0.885898	-0.567515	-0.000271
C194	C	1.219231	-0.234182	0.333062
C195	C	1.552565	0.099152	0.666396
C196	C	0.949936	-0.548195	-0.000288
C197	C	1.283270	-0.214862	0.333046
C198	C	1.616603	0.118471	0.666379
C199	C	0.950676	-0.497781	-0.000281
C200	C	1.284010	-0.164448	0.333052
C201	C	1.617343	0.168885	0.666386
C202	C	0.696007	-0.474223	-0.000222
C203	C	1.029340	-0.140890	0.333112
C204	C	1.362673	0.192443	0.666445
C205	C	0.695272	-0.524638	-0.000227
C206	C	1.028605	-0.191305	0.333106
C207	C	1.361939	0.142028	0.666439
C208	C	0.758569	-0.555735	-0.000244
C209	C	1.091903	-0.222402	0.333090
C210	C	1.425236	0.110931	0.666423
C211	C	0.951765	0.060609	-0.000260
C212	C	1.285098	0.393942	0.333074
C213	C	1.618431	0.727276	0.666407
C214	C	1.029264	0.061399	-0.000285
C215	C	1.362597	0.394732	0.333049
C216	C	1.695931	0.728066	0.666382
C217	C	0.818023	0.152793	-0.000243
C218	C	1.151356	0.486126	0.333091
C219	C	1.484690	0.819460	0.666424
C220	C	0.818821	0.206450	-0.000254
C221	C	1.152155	0.539784	0.333079
C222	C	1.485488	0.873117	0.666413
N223	N	0.824052	0.064402	0.178937
N224	N	1.157385	0.397735	0.512271
N225	N	1.490719	0.731069	0.845604
N226	N	0.824101	0.064410	-0.179389
N227	N	1.157434	0.397743	0.153944
N228	N	1.490768	0.731077	0.487278
C229	C	0.871889	0.031456	0.218541
C230	C	1.205222	0.364790	0.551875
C231	C	1.538555	0.698123	0.885208
C232	C	0.871893	0.031454	0.297789
C233	C	1.205226	0.364787	0.631122
C234	C	1.538559	0.698121	0.964456
C235	C	0.824067	0.064406	0.337429
C236	C	1.157400	0.397739	0.670763
C237	C	1.490734	0.731072	1.004096
C238	C	0.776221	0.097354	0.297816
C239	C	1.109555	0.430687	0.631149
C240	C	1.442888	0.764021	0.964482
C241	C	0.776214	0.097352	0.218570
C242	C	1.109547	0.430685	0.551903
C243	C	1.442881	0.764019	0.885236
N244	N	0.814718	0.107196	0.461842
N245	N	1.148051	0.440529	0.795175
N246	N	1.481384	0.773862	1.128508
N247	N	0.814729	0.107196	0.537122
N248	N	1.148062	0.440529	0.870455
N249	N	1.481396	0.773862	1.203789
C250	C	0.824085	0.064412	0.576193
C251	C	1.157419	0.397746	0.909527
C252	C	1.490752	0.731079	1.242860
N253	N	0.833444	0.021627	0.537140
N254	N	1.166777	0.354961	0.870474
N255	N	1.500110	0.688294	1.203807
N256	N	0.833436	0.021628	0.461853
N257	N	1.166769	0.354961	0.795186
N258	N	1.500103	0.688294	1.128520
C259	C	0.824069	0.064411	0.423359
C260	C	1.157403	0.397744	0.756692
C261	C	1.490736	0.731078	1.090025
C262	C	0.871929	0.031462	0.701727
C263	C	1.205262	0.364795	1.035060
C264	C	1.538596	0.698128	1.368394
C265	C	0.871928	0.031459	0.780976
C266	C	1.205261	0.364792	1.114309
C267	C	1.538595	0.698125	1.447643
C268	C	0.776260	0.097363	0.781001
C269	C	1.109593	0.430696	1.114334
C270	C	1.442927	0.764029	1.447668
C271	C	0.776257	0.097361	0.701754
C272	C	1.109591	0.430695	1.035087
C273	C	1.442924	0.764028	1.368420
C274	C	0.824096	0.064411	0.662121
C275	C	1.157429	0.397745	0.995455
C276	C	1.490762	0.731078	1.328788
H277	H	0.944776	-0.093007	-0.000226
H278	H	1.278110	0.240326	0.333107
H279	H	1.611443	0.573659	0.666440
H280	H	0.152169	0.142741	-0.000275
H281	H	0.485503	0.476075	0.333059
H282	H	0.818836	0.809408	0.666392
H283	H	0.943441	-0.184464	-0.000251
H284	H	1.276774	0.148870	0.333082
H285	H	1.610108	0.482203	0.666415
Cl286	Cl	0.039766	-0.038133	-0.000265
Cl287	Cl	0.373100	0.295200	0.333068
Cl288	Cl	0.706433	0.628534	0.666402
Cl289	Cl	0.964118	-0.699535	-0.000277
Cl290	Cl	1.297451	-0.366202	0.333056
Cl291	Cl	1.630784	-0.032868	0.666390
H292	H	0.737280	0.124183	0.330095
H293	H	1.070613	0.457516	0.663428
H294	H	1.403946	0.790850	0.996762
Cl295	Cl	0.676677	-0.672949	-0.000224
Cl296	Cl	1.010011	-0.339616	0.333109
Cl297	Cl	1.343344	-0.006282	0.666443
Cl298	Cl	0.204121	-0.036455	-0.000238
Cl299	Cl	0.537454	0.296879	0.333095
Cl300	Cl	0.870787	0.630212	0.666429
H301	H	0.645328	-0.389107	-0.000221
H302	H	0.978662	-0.055774	0.333112
H303	H	1.311995	0.277559	0.666446
H304	H	0.737317	0.124191	0.813276
H305	H	1.070650	0.457524	1.146609
H306	H	1.403983	0.790857	1.479942
Cl307	Cl	0.685714	-0.057855	-0.000174
Cl308	Cl	1.019048	0.275478	0.333160
Cl309	Cl	1.352381	0.608811	0.666493
H310	H	0.495974	-0.013923	-0.000195
H311	H	0.829307	0.319410	0.333139
H312	H	1.162640	0.652744	0.666472
Cl313	Cl	0.000044	0.160738	-0.000303
Cl314	Cl	0.333378	0.494071	0.333030
Cl315	Cl	0.666711	0.827404	0.666363
Cl316	Cl	0.684038	-0.171657	-0.000173
Cl317	Cl	1.017371	0.161676	0.333161
Cl318	Cl	1.350704	0.495010	0.666494
H319	H	0.934404	-0.799559	-0.000283
H320	H	1.267737	-0.466225	0.333050
H321	H	1.601070	-0.132892	0.666384
H322	H	1.005046	-0.330816	-0.000272
H323	H	1.338379	0.002517	0.333062
H324	H	1.671712	0.335850	0.666395
Cl325	Cl	0.932023	-0.009968	0.168718
Cl326	Cl	1.265356	0.323365	0.502052
Cl327	Cl	1.598690	0.656699	0.835385
H328	H	0.737259	0.124181	0.186323
H329	H	1.070592	0.457514	0.519657
H330	H	1.403926	0.790847	0.852990
Cl331	Cl	1.031741	-0.436038	-0.000287
Cl332	Cl	1.365074	-0.102705	0.333046
Cl333	Cl	1.698408	0.230628	0.666379
Cl334	Cl	0.675011	-0.786730	-0.000212
Cl335	Cl	1.008344	-0.453396	0.333122
Cl336	Cl	1.341677	-0.120063	0.666455
H337	H	0.628083	-0.012580	-0.000150
H338	H	0.961417	0.320753	0.333184
H339	H	1.294750	0.654087	0.666517
H340	H	0.646676	-0.297652	-0.000217
H341	H	0.980009	0.035681	0.333116
H342	H	1.313342	0.369014	0.666449
Cl343	Cl	1.029509	-0.587299	-0.000305
Cl344	Cl	1.362842	-0.253965	0.333028
Cl345	Cl	1.696175	0.079368	0.666362
H346	H	1.002826	-0.482059	-0.000289
H347	H	1.336159	-0.148725	0.333045
H348	H	1.669493	0.184608	0.666378
H349	H	0.643117	-0.540360	-0.000213
H350	H	0.976451	-0.207027	0.333120
H351	H	1.309784	0.126306	0.666453
Cl352	Cl	0.932064	-0.009964	0.651902
Cl353	Cl	1.265397	0.323370	0.985236
Cl354	Cl	1.598731	0.656703	1.318569
H355	H	0.910880	0.004628	0.813222
H356	H	1.244214	0.337961	1.146556
H357	H	1.577547	0.671294	1.479889
H358	H	0.910848	0.004625	0.330041
H359	H	1.244182	0.337958	0.663374
H360	H	1.577515	0.671291	0.996707
Cl361	Cl	0.716121	0.138783	0.651961
Cl362	Cl	1.049454	0.472117	0.985294
Cl363	Cl	1.382788	0.805450	1.318627
Cl364	Cl	0.608381	0.166947	-0.000201
Cl365	Cl	0.941714	0.500280	0.333133
Cl366	Cl	1.275047	0.833614	0.666466
Cl367	Cl	0.444025	0.165268	-0.000225
Cl368	Cl	0.777359	0.498601	0.333108
Cl369	Cl	1.110692	0.831935	0.666442
H370	H	0.644461	-0.448908	-0.000210
H371	H	0.977795	-0.115575	0.333123
H372	H	1.311128	0.217758	0.666457
