data_functionalizedCrystal
_audit_creation_method	'MofGen! by Chris Wilmer'
_symmetry_space_group_name_H-M	'P1'
_symmetry_Int_Tables_number	1
_symmetry_cell_setting	triclinic
loop_
_symmetry_equiv_pos_as_xyz
  x,y,z
_cell_length_a	21.295417
_cell_length_b	16.625548
_cell_length_c	16.625539
_cell_angle_alpha	90.020568
_cell_angle_beta	89.966627
_cell_angle_gamma	89.968425
loop_
_atom_site_label
_atom_site_type_symbol
_atom_site_fract_x
_atom_site_fract_y
_atom_site_fract_z
Zn1	Zn	-0.250590	-1.232635	-0.455881
Zn2	Zn	0.082743	-0.899302	-0.122548
Zn3	Zn	0.416077	-0.565969	0.210786
Zn4	Zn	-0.355864	-1.232520	-0.321036
Zn5	Zn	-0.022530	-0.899186	0.012297
Zn6	Zn	0.310803	-0.565853	0.345630
Zn7	Zn	-0.250614	-1.097797	-0.321061
Zn8	Zn	0.082719	-0.764464	0.012272
Zn9	Zn	0.416053	-0.431131	0.345605
Zn10	Zn	-0.355827	-1.097749	-0.455826
Zn11	Zn	-0.022494	-0.764415	-0.122493
Zn12	Zn	0.310839	-0.431082	0.210841
O13	O	-0.303224	-1.165175	-0.388451
O14	O	0.030110	-0.831842	-0.055118
O15	O	0.363443	-0.498509	0.278215
O16	O	-0.264560	-1.345452	-0.438006
O17	O	0.068773	-1.012119	-0.104673
O18	O	0.402107	-0.678786	0.228661
O19	O	-0.341927	-1.214620	-0.208207
O20	O	-0.008594	-0.881287	0.125126
O21	O	0.324740	-0.547954	0.458460
O22	O	-0.162522	-1.115753	-0.338979
O23	O	0.170812	-0.782419	-0.005646
O24	O	0.504145	-0.449086	0.327688
O25	O	-0.341904	-1.345367	-0.338936
O26	O	-0.008571	-1.012034	-0.005603
O27	O	0.324763	-0.678701	0.327731
O28	O	-0.162504	-1.214818	-0.438030
O29	O	0.170829	-0.881484	-0.104697
O30	O	0.504163	-0.548151	0.228636
O31	O	-0.264601	-1.115640	-0.208226
O32	O	0.068732	-0.782307	0.125108
O33	O	0.402066	-0.448974	0.458441
O34	O	-0.264566	-0.984958	-0.338926
O35	O	0.068768	-0.651625	-0.005593
O36	O	0.402101	-0.318292	0.327741
O37	O	-0.341842	-1.115670	-0.568666
O38	O	-0.008509	-0.782337	-0.235332
O39	O	0.324824	-0.449003	0.098001
O40	O	-0.341866	-0.984923	-0.437937
O41	O	-0.008532	-0.651589	-0.104604
O42	O	0.324801	-0.318256	0.228730
O43	O	-0.264525	-1.214771	-0.568706
O44	O	0.068808	-0.881437	-0.235373
O45	O	0.402142	-0.548104	0.097961
O46	O	-0.443948	-1.214573	-0.338883
O47	O	-0.110615	-0.881240	-0.005550
O48	O	0.222719	-0.547907	0.327784
O49	O	-0.443922	-1.115558	-0.437912
O50	O	-0.110588	-0.782224	-0.104579
O51	O	0.222745	-0.448891	0.228754
C52	C	-0.303215	-0.955684	-0.388429
C53	C	0.030119	-0.622351	-0.055095
C54	C	0.363452	-0.289018	0.278238
C55	C	-0.303226	-0.866063	-0.388438
C56	C	0.030107	-0.532730	-0.055105
C57	C	0.363441	-0.199397	0.278229
C58	C	-0.466775	-1.165070	-0.388407
C59	C	-0.133442	-0.831736	-0.055073
C60	C	0.199891	-0.498403	0.278260
C61	C	-0.536744	-1.165098	-0.388414
C62	C	-0.203410	-0.831765	-0.055081
C63	C	0.129923	-0.498431	0.278252
C64	C	-0.303177	-1.165228	-0.598760
C65	C	0.030156	-0.831894	-0.265427
C66	C	0.363490	-0.498561	0.067906
C67	C	-0.303157	-1.165250	-0.688381
C68	C	0.030176	-0.831917	-0.355048
C69	C	0.363510	-0.498583	-0.021715
C70	C	-0.569603	-1.216701	-0.336903
C71	C	-0.236270	-0.883368	-0.003569
C72	C	0.097064	-0.550035	0.329764
C73	C	-0.635346	-1.216739	-0.336921
C74	C	-0.302012	-0.883406	-0.003587
C75	C	0.031321	-0.550073	0.329746
C76	C	-0.668226	-1.165159	-0.388442
C77	C	-0.334893	-0.831826	-0.055109
C78	C	-0.001559	-0.498493	0.278224
C79	C	-0.635359	-1.113552	-0.439964
C80	C	-0.302025	-0.780219	-0.106631
C81	C	0.031308	-0.446886	0.226703
C82	C	-0.569617	-1.113522	-0.439950
C83	C	-0.236284	-0.780188	-0.106617
C84	C	0.097049	-0.446855	0.226717
N85	N	-0.771493	-1.094624	-0.394581
N86	N	-0.438159	-0.761291	-0.061248
N87	N	-0.104826	-0.427958	0.272085
N88	N	-0.833944	-1.094656	-0.394590
N89	N	-0.500611	-0.761322	-0.061257
N90	N	-0.167277	-0.427989	0.272077
C91	C	-0.866301	-1.165250	-0.388488
C92	C	-0.532967	-0.831916	-0.055155
C93	C	-0.199634	-0.498583	0.278178
N94	N	-0.833847	-1.235813	-0.382362
N95	N	-0.500513	-0.902479	-0.049029
N96	N	-0.167180	-0.569146	0.284304
N97	N	-0.771389	-1.235780	-0.382350
N98	N	-0.438056	-0.902447	-0.049016
N99	N	-0.104723	-0.569114	0.284317
C100	C	-0.739511	-1.165187	-0.388463
C101	C	-0.406178	-0.831854	-0.055130
C102	C	-0.072845	-0.498520	0.278203
C103	C	-0.970446	-1.216898	-0.336994
C104	C	-0.637112	-0.883565	-0.003660
C105	C	-0.303779	-0.550232	0.329673
C106	C	-1.036189	-1.216937	-0.337017
C107	C	-0.702856	-0.883604	-0.003684
C108	C	-0.369523	-0.550271	0.329649
C109	C	-1.036201	-1.113743	-0.440056
C110	C	-0.702868	-0.780410	-0.106723
C111	C	-0.369534	-0.447077	0.226610
C112	C	-0.970459	-1.113711	-0.440037
C113	C	-0.637125	-0.780378	-0.106704
C114	C	-0.303792	-0.447045	0.226630
C115	C	-0.937585	-1.165288	-0.388501
C116	C	-0.604252	-0.831954	-0.055168
C117	C	-0.270918	-0.498621	0.278166
C118	C	-0.139033	-1.165303	-0.388514
C119	C	0.194300	-0.831970	-0.055180
C120	C	0.527633	-0.498637	0.278153
C121	C	-0.069065	-1.165358	-0.388540
C122	C	0.264268	-0.832025	-0.055207
C123	C	0.597601	-0.498691	0.278126
C124	C	-0.303233	-1.375484	-0.388474
C125	C	0.030100	-1.042151	-0.055141
C126	C	0.363433	-0.708817	0.278192
C127	C	-0.303237	-1.465105	-0.388484
C128	C	0.030096	-1.131772	-0.055151
C129	C	0.363429	-0.798439	0.278183
C130	C	-0.303230	-0.537888	-0.388473
C131	C	0.030103	-0.204554	-0.055139
C132	C	0.363436	0.128779	0.278194
C133	C	-0.303227	-0.629196	-0.388460
C134	C	0.030106	-0.295863	-0.055127
C135	C	0.363439	0.037471	0.278206
C136	C	-0.303229	-0.701973	-0.388455
C137	C	0.030105	-0.368639	-0.055121
C138	C	0.363438	-0.035306	0.278212
C139	C	-0.303225	-0.793287	-0.388444
C140	C	0.030108	-0.459954	-0.055111
C141	C	0.363442	-0.126620	0.278223
C142	C	-0.303086	-1.165287	-1.016557
C143	C	0.030247	-0.831954	-0.683224
C144	C	0.363580	-0.498621	-0.349891
C145	C	-0.303108	-1.165275	-0.925249
C146	C	0.030225	-0.831941	-0.591915
C147	C	0.363559	-0.498608	-0.258582
C148	C	-0.303122	-1.165269	-0.852472
C149	C	0.030211	-0.831936	-0.519139
C150	C	0.363544	-0.498602	-0.185806
C151	C	-0.303143	-1.165256	-0.761158
C152	C	0.030191	-0.831922	-0.427825
C153	C	0.363524	-0.498589	-0.094491
C154	C	-0.303225	-1.165169	-0.178960
C155	C	0.030108	-0.831836	0.154373
C156	C	0.363442	-0.498503	0.487706
C157	C	-0.303068	-1.165303	-0.089340
C158	C	0.030266	-0.831970	0.243994
C159	C	0.363599	-0.498637	0.577327
H160	H	-0.542839	-1.258700	-0.294941
H161	H	-0.209506	-0.925366	0.038392
H162	H	0.123827	-0.592033	0.371725
N163	N	-0.670798	-1.272400	-0.281361
N164	N	-0.337465	-0.939067	0.051973
N165	N	-0.004131	-0.605733	0.385306
H166	H	-0.639997	-1.305069	-0.248713
H167	H	-0.306663	-0.971735	0.084621
H168	H	0.026670	-0.638402	0.417954
H169	H	-0.698119	-1.239606	-0.244027
H170	H	-0.364785	-0.906272	0.089307
H171	H	-0.031452	-0.572939	0.422640
H172	H	-1.062972	-1.071750	-0.482010
H173	H	-0.729638	-0.738416	-0.148677
H174	H	-0.396305	-0.405083	0.184657
N175	N	-1.071637	-1.272598	-0.281458
N176	N	-0.738304	-0.939264	0.051875
N177	N	-0.404971	-0.605931	0.385209
H178	H	-1.060146	-1.330196	-0.294024
H179	H	-0.726812	-0.996863	0.039309
H180	H	-0.393479	-0.663530	0.372643
H181	H	-1.060228	-1.260026	-0.223856
H182	H	-0.726895	-0.926693	0.109477
H183	H	-0.393562	-0.593360	0.442811
N184	N	-0.534177	-1.057852	-0.495507
N185	N	-0.200843	-0.724519	-0.162174
N186	N	0.132490	-0.391185	0.171159
H187	H	-0.506949	-1.020492	-0.462696
H188	H	-0.173616	-0.687159	-0.129362
H189	H	0.159718	-0.353826	0.203971
H190	H	-0.506889	-1.090639	-0.532886
H191	H	-0.173555	-0.757306	-0.199553
H192	H	0.159778	-0.423973	0.133780
N193	N	-0.934979	-1.272526	-0.281421
N194	N	-0.601645	-0.939193	0.051913
N195	N	-0.268312	-0.605860	0.385246
H196	H	-0.946464	-1.260045	-0.223801
H197	H	-0.613131	-0.926711	0.109532
H198	H	-0.279797	-0.593378	0.442866
H199	H	-0.946380	-1.330114	-0.294069
H200	H	-0.613047	-0.996781	0.039264
H201	H	-0.279714	-0.663447	0.372597
N202	N	-0.670818	-1.057921	-0.495537
N203	N	-0.337484	-0.724588	-0.162204
N204	N	-0.004151	-0.391255	0.171130
H205	H	-0.717451	-1.065769	-0.487728
H206	H	-0.384118	-0.732435	-0.154394
H207	H	-0.050785	-0.399102	0.178939
H208	H	-0.659373	-1.000338	-0.482933
H209	H	-0.326040	-0.667004	-0.149600
H210	H	0.007294	-0.333671	0.183734
N211	N	-0.935012	-1.058047	-0.495591
N212	N	-0.601679	-0.724714	-0.162257
N213	N	-0.268346	-0.391381	0.171076
H214	H	-0.965816	-1.025375	-0.528232
H215	H	-0.632482	-0.692042	-0.194899
H216	H	-0.299149	-0.358708	0.138435
H217	H	-0.907783	-1.020740	-0.462726
H218	H	-0.574450	-0.687407	-0.129392
H219	H	-0.241116	-0.354074	0.203941
