data_functionalizedCrystal
_audit_creation_method	'MofGen! by Chris Wilmer'
_symmetry_space_group_name_H-M	'P1'
_symmetry_Int_Tables_number	1
_symmetry_cell_setting	triclinic
loop_
_symmetry_equiv_pos_as_xyz
  x,y,z
_cell_length_a	18.215407
_cell_length_b	14.908520
_cell_length_c	18.215398
_cell_angle_alpha	93.271864
_cell_angle_beta	89.980536
_cell_angle_gamma	93.321174
loop_
_atom_site_label
_atom_site_type_symbol
_atom_site_fract_x
_atom_site_fract_y
_atom_site_fract_z
Zn1	Zn	1.108174	-0.359182	-0.433018
Zn2	Zn	1.100987	-0.510045	-0.317051
Zn3	Zn	0.985106	-0.359205	-0.309967
Zn4	Zn	0.977978	-0.510001	-0.440074
O5	O	1.043061	-0.434608	-0.375028
O6	O	1.210204	-0.379203	-0.417647
O7	O	1.085590	-0.490063	-0.213129
O8	O	1.007422	-0.232956	-0.320372
O9	O	1.204924	-0.490041	-0.332447
O10	O	1.097840	-0.232939	-0.410777
O11	O	1.000453	-0.379242	-0.207924
O12	O	0.881177	-0.379199	-0.327214
O13	O	0.995273	-0.489967	-0.542121
O14	O	0.875940	-0.489989	-0.422803
O15	O	1.090928	-0.379160	-0.536937
O16	O	1.078678	-0.636284	-0.339289
O17	O	0.988304	-0.636252	-0.429673
C18	C	0.851855	-0.434593	-0.375006
C19	C	0.770056	-0.434608	-0.375015
C20	C	0.579150	-0.492386	-0.424734
C21	C	0.502291	-0.492389	-0.424743
C22	C	0.507723	-0.376846	-0.325339
C23	C	0.584581	-0.376839	-0.325333
C24	C	0.620292	-0.434615	-0.375030
C25	C	0.466576	-0.434624	-0.375045
C26	C	0.383242	-0.434627	-0.375054
C27	C	0.703631	-0.434611	-0.375021
C28	C	1.031958	-0.669002	-0.386031
C29	C	1.027275	-0.769277	-0.390763
C30	C	1.112679	-0.957676	-0.305614
C31	C	1.108281	-1.051893	-0.310057
C32	C	1.014087	-1.051930	-0.404098
C33	C	1.018484	-0.957713	-0.399654
C34	C	1.067781	-0.910589	-0.350409
C35	C	1.072174	-0.816371	-0.345963
C36	C	0.977984	-0.816409	-0.440006
C37	C	0.973587	-0.910626	-0.444450
C38	C	1.235013	-0.434624	-0.375050
C39	C	1.316812	-0.434631	-0.375060
C40	C	1.043107	-0.434556	-0.566978
C41	C	1.043127	-0.434534	-0.648776
C42	C	1.054228	-0.199299	-0.363997
C43	C	1.058986	-0.099024	-0.359297
C44	C	1.087496	-0.492127	-0.916543
C45	C	1.087484	-0.492159	-0.839686
C46	C	0.998821	-0.376767	-0.834250
C47	C	0.998830	-0.376740	-0.911106
C48	C	1.043172	-0.434420	-0.952251
C49	C	1.043150	-0.434477	-0.798537
C50	C	1.043136	-0.434510	-0.715205
C51	C	1.043185	-0.434388	-1.035588
C52	C	1.043061	-0.434595	-0.183821
C53	C	1.043196	-0.434362	-0.102011
H54	H	0.478638	-0.329809	-0.284876
Cl55	Cl	0.943097	-0.304239	-0.782519
H56	H	0.973957	-1.090314	-0.444195
H57	H	0.618080	-0.329789	-0.284858
Cl58	Cl	0.943092	-0.304201	-0.955999
Cl59	Cl	0.921528	-0.757209	-0.496314
H60	H	1.123602	-0.539094	-0.950041
H61	H	0.608224	-0.539429	-0.465202
Cl62	Cl	0.450573	-0.565018	-0.487232
Cl63	Cl	1.143207	-0.564710	-0.794800
Cl64	Cl	0.911620	-0.969876	-0.506355
H65	H	1.112312	-0.778003	-0.305863
H66	H	1.144843	-1.090228	-0.273581
Cl67	Cl	1.174639	-0.898432	-0.243698
