data_functionalizedCrystal
_audit_creation_method	'MofGen! by Chris Wilmer'
_symmetry_space_group_name_H-M	'P1'
_symmetry_Int_Tables_number	1
_symmetry_cell_setting	triclinic
loop_
_symmetry_equiv_pos_as_xyz
  x,y,z
_cell_length_a	12.759401
_cell_length_b	13.897447
_cell_length_c	12.759393
_cell_angle_alpha	89.969000
_cell_angle_beta	89.980324
_cell_angle_gamma	90.019956
loop_
_atom_site_label
_atom_site_type_symbol
_atom_site_fract_x
_atom_site_fract_y
_atom_site_fract_z
Zn1	Zn	1.606231	-0.383957	-0.593981
Zn2	Zn	1.606107	-0.545284	-0.418300
Zn3	Zn	1.430530	-0.384005	-0.418320
Zn4	Zn	1.430507	-0.545213	-0.593941
O5	O	1.518344	-0.464615	-0.506135
O6	O	1.753236	-0.405367	-0.570685
O7	O	1.582774	-0.523939	-0.271281
O8	O	1.453898	-0.249017	-0.441647
O9	O	1.753145	-0.523893	-0.441612
O10	O	1.582985	-0.248982	-0.570705
O11	O	1.453778	-0.405449	-0.271296
O12	O	1.283506	-0.405381	-0.441608
O13	O	1.453859	-0.523773	-0.740967
O14	O	1.283489	-0.523819	-0.570636
O15	O	1.582963	-0.405299	-0.740997
O16	O	1.582752	-0.680256	-0.441573
O17	O	1.453739	-0.680204	-0.570616
C18	C	1.245376	-0.464598	-0.506121
C19	C	1.128600	-0.464614	-0.506139
C20	C	1.073786	-0.403010	-0.573451
C21	C	0.964062	-0.403019	-0.573458
C22	C	0.963975	-0.526247	-0.438838
C23	C	1.073697	-0.526232	-0.438827
C24	C	1.518258	-0.715229	-0.506111
C25	C	1.518318	-0.822443	-0.506136
C26	C	1.518369	-0.909513	-0.506160
C27	C	1.518442	-1.018745	-0.506187
C28	C	1.792377	-0.464632	-0.506151
C29	C	1.909154	-0.464640	-0.506157
C30	C	1.518422	-0.464522	-0.780169
C31	C	1.518456	-0.464483	-0.896946
C32	C	1.518458	-0.213022	-0.506183
C33	C	1.518507	-0.105808	-0.506203
C34	C	1.585685	-0.402784	-0.951825
C35	C	1.585703	-0.402742	-1.061549
C36	C	1.451259	-0.526107	-1.061505
C37	C	1.451237	-0.526143	-0.951783
C38	C	1.518326	-0.464638	-0.233168
C39	C	1.518496	-0.464405	-0.116392
H40	H	1.118328	-0.576399	-0.384008
O41	O	1.385823	-0.585905	-1.114728
C42	C	1.207099	-0.632748	-1.148216
C43	C	1.281084	-0.564947	-1.087899
H44	H	1.122404	-0.615840	-1.126531
H45	H	1.218572	-0.622125	-1.236078
H46	H	1.225564	-0.710527	-1.126638
H47	H	1.262665	-0.487141	-1.109390
H48	H	1.269598	-0.575652	-1.000053
O49	O	1.126956	-0.343062	-0.638864
C50	C	1.115456	-0.220879	-0.772432
C51	C	1.055115	-0.288707	-0.698388
H52	H	1.057398	-0.176930	-0.820592
H53	H	1.166788	-0.170317	-0.724341
H54	H	1.166867	-0.265234	-0.827234
H55	H	1.003647	-0.244429	-0.643571
H56	H	1.003849	-0.339272	-0.746545
O57	O	0.910701	-0.343314	-0.638900
C58	C	0.786939	-0.330518	-0.780829
C59	C	0.847284	-0.398246	-0.706762
H60	H	0.735668	-0.374904	-0.835728
H61	H	0.735491	-0.280045	-0.732757
H62	H	0.845051	-0.286458	-0.828884
H63	H	0.789247	-0.442368	-0.658691
H64	H	0.898748	-0.448656	-0.754894
O65	O	0.910755	-0.586240	-0.373515
C66	C	0.877078	-0.750272	-0.322258
C67	C	0.937431	-0.682434	-0.396283
H68	H	0.898606	-0.828059	-0.340654
H69	H	0.898633	-0.733318	-0.237553
H70	H	0.789246	-0.739654	-0.333814
H71	H	1.025276	-0.693014	-0.384820
H72	H	0.915789	-0.699404	-0.480961
H73	H	1.640416	-0.352573	-0.907179
H74	H	1.640446	-0.352499	-1.106226
O75	O	1.386040	-0.586222	-0.898513
C76	C	1.334913	-0.750301	-0.864936
C77	C	1.408828	-0.682381	-0.925311
H78	H	1.353295	-0.828059	-0.886597
H79	H	1.346447	-0.739814	-0.777084
H80	H	1.250216	-0.733299	-0.886487
H81	H	1.493554	-0.699342	-0.903849
H82	H	1.397203	-0.692881	-1.013149
