data_functionalizedCrystal
_audit_creation_method	'MofGen! by Chris Wilmer'
_symmetry_space_group_name_H-M	'P1'
_symmetry_Int_Tables_number	1
_symmetry_cell_setting	triclinic
loop_
_symmetry_equiv_pos_as_xyz
  x,y,z
_cell_length_a	10.654550
_cell_length_b	19.288865
_cell_length_c	9.730223
_cell_angle_alpha	89.990377
_cell_angle_beta	89.999957
_cell_angle_gamma	83.810589
loop_
_atom_site_label
_atom_site_type_symbol
_atom_site_fract_x
_atom_site_fract_y
_atom_site_fract_z
O1	O	1.665751	0.097555	-0.114205
O2	O	1.300073	0.106849	-0.114232
O3	O	1.493478	0.001141	-0.114191
O4	O	1.472346	0.203263	-0.114247
O5	O	1.493466	0.001138	0.114389
O6	O	1.300061	0.106846	0.114348
O7	O	1.665738	0.097552	0.114375
Zn8	Zn	1.482898	0.102198	0.150653
Zn9	Zn	1.482914	0.102202	-0.150511
O10	O	1.472333	0.203260	0.114333
C11	C	1.253284	0.106165	0.000055
C12	C	1.113884	0.104123	0.000046
C13	C	1.033066	0.166363	0.000033
C14	C	0.902087	0.164440	0.000057
C15	C	0.932756	0.038033	0.000102
C16	C	1.063733	0.039956	0.000088
C17	C	1.492792	-0.024742	0.000103
C18	C	1.490751	-0.101859	0.000115
C19	C	1.604232	-0.145812	0.000131
C20	C	1.602315	-0.218272	0.000109
C21	C	1.486909	-0.246775	0.000099
C22	C	1.373413	-0.202812	0.000076
C23	C	1.375334	-0.130354	0.000085
C24	C	1.396183	-0.355657	0.080159
C25	C	1.394267	-0.428114	0.080160
C26	C	1.480980	-0.470259	0.000068
C27	C	1.569631	-0.439940	-0.080006
C28	C	1.571552	-0.367482	-0.079998
C29	C	1.484814	-0.325343	0.000090
C30	C	1.592390	-0.592782	0.000057
C31	C	1.590467	-0.665243	0.000027
C32	C	1.361562	-0.649781	0.000009
C33	C	1.363488	-0.577322	0.000025
C34	C	1.478905	-0.548827	0.000056
C35	C	1.712528	0.098236	0.000085
C36	C	1.851928	0.100277	0.000085
C37	C	1.473020	0.229142	0.000036
C38	C	1.475061	0.306259	0.000015
N39	N	1.482896	0.102195	0.356190
N40	N	1.482926	0.102200	-0.356047
C41	C	1.568564	0.055408	0.428134
C42	C	1.568577	0.055408	0.572017
C43	C	1.397248	0.148990	0.571999
C44	C	1.397231	0.148986	0.428118
H45	H	1.129539	-0.010730	0.000102
C46	C	1.599834	-0.523572	-0.262991
C47	C	1.664953	-0.486252	-0.168063
H48	H	1.658684	-0.552161	-0.317353
H49	H	1.546784	-0.551999	-0.215305
H50	H	1.549885	-0.491863	-0.320708
H51	H	1.714895	-0.517961	-0.110338
H52	H	1.718025	-0.457823	-0.215752
C53	C	1.179631	0.188650	0.616328
C54	C	1.303094	0.200420	0.651073
H55	H	1.121506	0.220399	0.665153
H56	H	1.167364	0.195347	0.520354
H57	H	1.166287	0.142221	0.639937
H58	H	1.316441	0.246848	0.627455
H59	H	1.315365	0.193728	0.747069
C60	C	1.830300	-0.168379	0.000154
C61	C	1.731097	-0.114491	0.000149
H62	H	1.908619	-0.149040	0.000156
H63	H	1.824782	-0.196324	0.079857
H64	H	1.824785	-0.196311	-0.079565
H65	H	1.736606	-0.086561	0.079874
H66	H	1.736618	-0.086534	-0.079562
H67	H	1.073895	0.218611	0.000009
C68	C	0.918567	-0.070300	-0.117363
C69	C	0.877626	-0.032497	0.000131
H70	H	0.884538	-0.113845	-0.117342
H71	H	0.890790	-0.044646	-0.197064
H72	H	1.008140	-0.078057	-0.117351
H73	H	0.788053	-0.024736	0.000113
H74	H	0.905395	-0.058157	0.079852
H75	H	1.694728	-0.254065	0.000115
C76	C	1.596266	-0.039012	0.266445
C77	C	1.662684	0.003939	0.349102
H78	H	1.654365	-0.070795	0.217663
H79	H	1.544123	-0.064228	0.322620
H80	H	1.545281	-0.011141	0.202977
H81	H	1.713663	-0.023932	0.412577
H82	H	1.714849	0.029157	0.292922
H83	H	1.682881	-0.701029	0.000032
C84	C	1.744687	-0.386439	-0.238335
C85	C	1.668977	-0.334153	-0.168026
H86	H	1.804825	-0.365861	-0.292689
H87	H	1.787355	-0.417636	-0.173948
H88	H	1.693224	-0.411272	-0.296068
H89	H	1.720440	-0.309322	-0.110285
H90	H	1.626307	-0.302943	-0.232420
C91	C	1.322790	0.268852	0.383759
C92	C	1.303061	0.200421	0.349026
H93	H	1.264658	0.300602	0.334923
H94	H	1.310535	0.275548	0.479731
H95	H	1.406554	0.276817	0.360156
H96	H	1.219299	0.192454	0.372638
H97	H	1.315305	0.193722	0.253033
H98	H	1.267597	-0.672988	-0.000006
H99	H	0.836289	0.215122	0.000049
H100	H	1.271079	-0.541534	0.000021
C101	C	1.788078	-0.583625	-0.117449
C102	C	1.719248	-0.561450	0.000062
H103	H	1.866390	-0.564278	-0.117451
H104	H	1.803178	-0.633063	-0.117446
H105	H	1.741349	-0.568561	-0.197147
H106	H	1.765973	-0.576518	0.079760
H107	H	1.704151	-0.512002	0.000071
H108	H	1.638334	0.017308	0.630590
C109	C	1.221104	-0.409146	0.238455
C110	C	1.296825	-0.461438	0.168174
H111	H	1.160942	-0.429719	0.292785
H112	H	1.272547	-0.384315	0.296195
H113	H	1.178453	-0.377946	0.174041
H114	H	1.339483	-0.492635	0.232588
H115	H	1.245375	-0.486280	0.110429
H116	H	1.279449	-0.226024	0.000066
C117	C	1.365973	-0.272007	0.263119
C118	C	1.300857	-0.309336	0.168205
H119	H	1.307122	-0.243409	0.317464
H120	H	1.415916	-0.303704	0.320843
H121	H	1.419030	-0.243581	0.215413
H122	H	1.247807	-0.337766	0.215911
H123	H	1.250893	-0.277635	0.110474
H124	H	1.282921	-0.094566	0.000073
