data_functionalizedCrystal
_audit_creation_method	'MofGen! by Chris Wilmer'
_symmetry_space_group_name_H-M	'P1'
_symmetry_Int_Tables_number	1
_symmetry_cell_setting	triclinic
loop_
_symmetry_equiv_pos_as_xyz
  x,y,z
_cell_length_a	10.654562
_cell_length_b	22.010155
_cell_length_c	10.654559
_cell_angle_alpha	90.004797
_cell_angle_beta	84.489374
_cell_angle_gamma	90.018528
loop_
_atom_site_label
_atom_site_type_symbol
_atom_site_fract_x
_atom_site_fract_y
_atom_site_fract_z
O1	O	1.667858	0.050566	0.176471
O2	O	2.167858	0.550566	0.676471
O3	O	1.302383	0.050558	0.193261
O4	O	1.802383	0.550558	0.693261
O5	O	1.493517	0.050558	0.002128
O6	O	1.993517	0.550558	0.502128
O7	O	1.476723	0.050567	0.367604
O8	O	1.976723	0.550567	0.867604
O9	O	1.493459	-0.050493	0.002127
O10	O	1.993459	0.449507	0.502127
O11	O	1.302324	-0.050492	0.193260
O12	O	1.802324	0.449508	0.693260
O13	O	1.667800	-0.050485	0.176471
O14	O	2.167800	0.449515	0.676471
Cu15	Cu	1.485057	-0.059715	0.184865
Cu16	Cu	1.985057	0.440285	0.684865
Cu17	Cu	1.485126	0.059789	0.184866
Cu18	Cu	1.985126	0.559789	0.684866
O19	O	1.476665	-0.050484	0.367603
O20	O	1.976665	0.449516	0.867603
C21	C	1.255556	0.000032	0.192024
C22	C	1.755556	0.500032	0.692024
C23	C	1.116113	0.000029	0.188326
C24	C	1.616113	0.500029	0.688326
C25	C	1.050551	-0.055049	0.186601
C26	C	1.550551	0.444951	0.686601
C27	C	0.919528	-0.055039	0.183136
C28	C	1.419528	0.444961	0.683136
C29	C	0.919642	0.055132	0.183127
C30	C	1.419642	0.555132	0.683127
C31	C	1.050663	0.055121	0.186583
C32	C	1.550663	0.555121	0.686583
C33	C	1.050483	-0.118655	0.186611
C34	C	1.550483	0.381345	0.686611
C35	C	0.919461	-0.118645	0.183146
C36	C	1.419461	0.381355	0.683146
N37	N	1.485018	-0.143767	0.184864
N38	N	1.985018	0.356233	0.684864
C39	C	1.561962	-0.563543	0.261736
C40	C	2.061962	-0.063543	0.761736
C41	C	1.561977	-0.627151	0.261733
C42	C	2.061977	-0.127151	0.761733
O43	O	1.627353	-0.660039	0.327084
O44	O	2.127353	-0.160039	0.827084
N45	N	1.485150	-0.658975	0.184852
N46	N	1.985150	-0.158975	0.684852
C47	C	1.408313	-0.627187	0.107959
C48	C	1.908313	-0.127187	0.607959
O49	O	1.342968	-0.660097	0.042565
O50	O	1.842968	-0.160097	0.542565
C51	C	1.408306	-0.563581	0.107956
C52	C	1.908306	-0.063581	0.607956
C53	C	1.485128	-0.531761	0.184852
C54	C	1.985128	-0.031761	0.684852
C55	C	1.638779	-0.531723	0.338624
C56	C	2.138779	-0.031723	0.838624
C57	C	1.638762	-0.468120	0.338629
C58	C	2.138762	0.031880	0.838629
C59	C	1.561929	-0.436337	0.261745
C60	C	2.061929	0.063663	0.761745
C61	C	1.485111	-0.468157	0.184857
C62	C	1.985111	0.031843	0.684857
C63	C	1.331476	-0.531795	0.031058
C64	C	1.831476	-0.031795	0.531058
C65	C	1.331477	-0.468184	0.031061
C66	C	1.831477	0.031816	0.531061
C67	C	1.408299	-0.436364	0.107957
C68	C	1.908299	0.063636	0.607957
C69	C	1.408261	-0.372771	0.107977
C70	C	1.908261	0.127229	0.607977
N71	N	1.485087	-0.340948	0.184858
N72	N	1.985087	0.159052	0.684858
C73	C	1.561921	-0.372730	0.261742
C74	C	2.061921	0.127270	0.761742
C75	C	1.408336	-0.760765	0.107969
C76	C	1.908336	-0.260765	0.607969
C77	C	1.408335	-0.824370	0.107978
C78	C	1.908335	-0.324370	0.607978
C79	C	1.562001	-0.824330	0.261750
C80	C	2.062001	-0.324330	0.761750
C81	C	1.561994	-0.760723	0.261748
C82	C	2.061994	-0.260723	0.761748
C83	C	1.485163	-0.728941	0.184851
C84	C	1.985163	-0.228941	0.684851
C85	C	1.561879	-0.239159	0.261746
C86	C	2.061879	0.260841	0.761746
C87	C	1.561852	-0.175550	0.261748
C88	C	2.061852	0.324450	0.761748
C89	C	1.408191	-0.175597	0.107971
C90	C	1.908191	0.324403	0.607971
C91	C	1.408213	-0.239200	0.107974
C92	C	1.908213	0.260800	0.607974
C93	C	1.485068	-0.270980	0.184865
C94	C	1.985068	0.229020	0.684865
O95	O	1.342922	-0.339842	0.042656
O96	O	1.842922	0.160158	0.542656
O97	O	1.627268	-0.339813	0.327113
O98	O	2.127268	0.160187	0.827113
C99	C	1.714627	0.000043	0.177707
C100	C	2.214627	0.500043	0.677707
C101	C	1.854070	0.000050	0.181405
C102	C	2.354070	0.500050	0.681405
C103	C	1.492253	0.000032	-0.044670
C104	C	1.992253	0.500032	0.455330
C105	C	1.488556	0.000033	-0.184113
C106	C	1.988556	0.500033	0.315887
N107	N	1.485175	0.143841	0.184858
N108	N	1.985175	0.643841	0.684858
C109	C	1.483387	0.055126	-0.380630
C110	C	1.983387	0.555126	0.119370
C111	C	1.486857	0.055119	-0.249608
C112	C	1.986857	0.555119	0.250392
C113	C	1.486799	-0.055051	-0.249648
C114	C	1.986799	0.444949	0.250352
C115	C	1.483339	-0.055044	-0.380669
C116	C	1.983339	0.444956	0.119331
C117	C	1.483415	0.118732	-0.380605
C118	C	1.983415	0.618732	0.119395
C119	C	1.486884	0.118726	-0.249583
C120	C	1.986884	0.618726	0.250417
C121	C	1.477930	0.000043	0.414402
C122	C	1.977930	0.500043	0.914402
C123	C	1.481626	0.000046	0.553844
C124	C	1.981626	0.500046	1.053844
H125	H	1.624462	-0.265027	0.324358
H126	H	2.124462	0.234973	0.824358
N127	N	1.362119	0.144876	-0.419815
N128	N	1.862119	0.644876	0.080185
H129	H	1.317474	0.113187	-0.467761
H130	H	1.817474	0.613187	0.032239
H131	H	1.306139	0.157508	-0.342335
H132	H	1.806139	0.657508	0.157665
H133	H	1.345643	-0.265109	0.045375
H134	H	1.845643	0.234891	0.545375
N135	N	0.849050	0.114550	0.181241
N136	N	1.349050	0.614550	0.681241
H137	H	0.756100	0.106201	0.178784
H138	H	1.256100	0.606201	0.678784
H139	H	0.862481	0.138608	0.259561
H140	H	1.362481	0.638608	0.759561
N141	N	1.111748	-0.151004	0.071640
N142	N	1.611748	0.348996	0.571640
H143	H	1.206276	-0.151026	0.074090
H144	H	1.706276	0.348974	0.574090
H145	H	1.080132	-0.194253	0.070828
H146	H	1.580132	0.305747	0.570828
N147	N	1.325335	-0.141311	0.025037
N148	N	1.825335	0.358689	0.525037
H149	H	1.336999	-0.096189	0.036705
H150	H	1.836999	0.403811	0.536705
H151	H	1.349380	-0.152429	-0.066070
H152	H	1.849380	0.347571	0.433930
N153	N	0.858120	-0.150983	0.298112
N154	N	1.358120	0.349017	0.798112
H155	H	0.925250	-0.165417	0.351919
H156	H	1.425250	0.334583	0.851919
H157	H	0.799280	-0.122126	0.348480
H158	H	1.299280	0.377874	0.848480
H159	H	1.578492	0.138465	-0.219997
H160	H	2.078492	0.638465	0.280003
H161	H	1.701325	-0.442217	0.401240
H162	H	2.201325	0.057783	0.901240
N163	N	1.488650	-0.114465	-0.179006
N164	N	1.988650	0.385535	0.320994
H165	H	1.412372	-0.116927	-0.115150
H166	H	1.912372	0.383073	0.384850
H167	H	1.487056	-0.149323	-0.240482
H168	H	1.987056	0.350677	0.259518
H169	H	0.889859	-0.138384	0.091552
H170	H	1.389859	0.361616	0.591552
N171	N	1.598395	0.151084	-0.441900
N172	N	2.098395	0.651084	0.058100
H173	H	1.652208	0.165513	-0.374750
H174	H	2.152208	0.665513	0.125250
H175	H	1.648751	0.122236	-0.500776
H176	H	2.148751	0.622236	-0.000776
H177	H	1.080050	-0.138388	0.278206
H178	H	1.580050	0.361612	0.778206
N179	N	1.371940	0.151058	-0.188237
N180	N	1.871940	0.651058	0.311763
H181	H	1.371067	0.194329	-0.219686
H182	H	1.871067	0.694329	0.280314
H183	H	1.293391	0.129395	-0.210227
H184	H	1.793391	0.629395	0.289773
N185	N	1.721645	-0.565994	0.421572
N186	N	2.221645	-0.065994	0.921572
H187	H	1.710006	-0.611119	0.409925
H188	H	2.210006	-0.111119	0.909925
H189	H	1.812765	-0.554858	0.397617
H190	H	2.312765	-0.054858	0.897617
N191	N	1.121384	0.114526	0.188411
N192	N	1.621384	0.614526	0.688411
H193	H	1.060037	0.149426	0.186780
H194	H	1.560037	0.649426	0.686780
H195	H	1.166265	0.116933	0.267558
H196	H	1.666265	0.616933	0.767558
N197	N	1.644717	-0.141227	0.344680
N198	N	2.144717	0.358773	0.844680
H199	H	1.620745	-0.152300	0.435827
H200	H	2.120745	0.347700	0.935827
H201	H	1.735846	-0.152293	0.320646
H202	H	2.235846	0.347707	0.820646
N203	N	1.644857	-0.726402	0.344672
N204	N	2.144857	-0.226402	0.844672
H205	H	1.620880	-0.737471	0.435820
H206	H	2.120880	-0.237471	0.935820
H207	H	1.735984	-0.737473	0.320643
H208	H	2.235984	-0.237473	0.820643
N209	N	1.644876	-0.858616	0.344678
N210	N	2.144876	-0.358616	0.844678
H211	H	1.633220	-0.903738	0.333002
H212	H	2.133220	-0.403738	0.833002
H213	H	1.735996	-0.847483	0.320716
H214	H	2.235996	-0.347483	0.820716
H215	H	1.345764	-0.850273	0.045377
H216	H	1.845764	-0.350273	0.545377
N217	N	1.481466	-0.114451	-0.451349
N218	N	1.981466	0.385549	0.048651
H219	H	1.483076	-0.149349	-0.389979
H220	H	1.983076	0.350651	0.110021
H221	H	1.402313	-0.116855	-0.496223
H222	H	1.902313	0.383145	0.003777
N223	N	1.325456	-0.726488	0.025032
N224	N	1.825456	-0.226488	0.525032
H225	H	1.276792	-0.756304	-0.023664
H226	H	1.776792	-0.256304	0.476336
H227	H	1.264530	-0.700107	0.079214
H228	H	1.764530	-0.200107	0.579214
H229	H	1.268921	-0.557692	-0.031560
H230	H	1.768921	-0.057692	0.468440
H231	H	1.268910	-0.442311	-0.031560
H232	H	1.768910	0.057689	0.468440
