data_functionalizedCrystal
_audit_creation_method	'MofGen! by Chris Wilmer'
_symmetry_space_group_name_H-M	'P1'
_symmetry_Int_Tables_number	1
_symmetry_cell_setting	triclinic
loop_
_symmetry_equiv_pos_as_xyz
  x,y,z
_cell_length_a	16.959454
_cell_length_b	17.077404
_cell_length_c	17.077396
_cell_angle_alpha	90.017244
_cell_angle_beta	89.974430
_cell_angle_gamma	89.979700
loop_
_atom_site_label
_atom_site_type_symbol
_atom_site_fract_x
_atom_site_fract_y
_atom_site_fract_z
Zn1	Zn	-0.314670	-1.200052	-0.443863
Zn2	Zn	0.018663	-0.866719	-0.110530
Zn3	Zn	0.351996	-0.533386	0.222804
Zn4	Zn	-0.446860	-1.199971	-0.312606
Zn5	Zn	-0.113527	-0.866638	0.020728
Zn6	Zn	0.219807	-0.533305	0.354061
Zn7	Zn	-0.314700	-1.068789	-0.312611
Zn8	Zn	0.018633	-0.735456	0.020722
Zn9	Zn	0.351967	-0.402123	0.354056
Zn10	Zn	-0.446811	-1.068759	-0.443829
Zn11	Zn	-0.113478	-0.735425	-0.110496
Zn12	Zn	0.219855	-0.402092	0.222837
O13	O	-0.380760	-1.134393	-0.378227
O14	O	-0.047427	-0.801060	-0.044894
O15	O	0.285906	-0.467726	0.288439
O16	O	-0.332214	-1.309889	-0.426463
O17	O	0.001120	-0.976555	-0.093130
O18	O	0.334453	-0.643222	0.240203
O19	O	-0.429362	-1.182548	-0.202759
O20	O	-0.096028	-0.849215	0.130574
O21	O	0.237305	-0.515882	0.463907
O22	O	-0.204085	-1.086249	-0.330038
O23	O	0.129248	-0.752915	0.003295
O24	O	0.462582	-0.419582	0.336628
O25	O	-0.429333	-1.309829	-0.330029
O26	O	-0.095999	-0.976496	0.003304
O27	O	0.237334	-0.643162	0.336637
O28	O	-0.204063	-1.182687	-0.426469
O29	O	0.129270	-0.849354	-0.093135
O30	O	0.462603	-0.516020	0.240198
O31	O	-0.332264	-1.086170	-0.202763
O32	O	0.001069	-0.752837	0.130570
O33	O	0.334403	-0.419503	0.463903
O34	O	-0.332217	-0.958938	-0.330006
O35	O	0.001117	-0.625605	0.003328
O36	O	0.334450	-0.292272	0.336661
O37	O	-0.429250	-1.086196	-0.553681
O38	O	-0.095916	-0.752863	-0.220347
O39	O	0.237417	-0.419530	0.112986
O40	O	-0.429278	-0.958916	-0.426411
O41	O	-0.095945	-0.625583	-0.093078
O42	O	0.237388	-0.292249	0.240256
O43	O	-0.332166	-1.182657	-0.553706
O44	O	0.001167	-0.849324	-0.220372
O45	O	0.334500	-0.515991	0.112961
O46	O	-0.557464	-1.182519	-0.329996
O47	O	-0.224131	-0.849185	0.003337
O48	O	0.109202	-0.515852	0.336670
O49	O	-0.557429	-1.086117	-0.426406
O50	O	-0.224095	-0.752784	-0.093072
O51	O	0.109238	-0.419451	0.240261
C52	C	-0.380746	-0.930445	-0.378206
C53	C	-0.047413	-0.597112	-0.044872
C54	C	0.285921	-0.263778	0.288461
C55	C	-0.380759	-0.843195	-0.378215
C56	C	-0.047426	-0.509862	-0.044882
C57	C	0.285908	-0.176529	0.288452
C58	C	-0.586127	-1.134327	-0.378214
C59	C	-0.252793	-0.800994	-0.044881
C60	C	0.080540	-0.467661	0.288453
C61	C	-0.673983	-1.134371	-0.378235
C62	C	-0.340650	-0.801038	-0.044901
C63	C	-0.007317	-0.467704	0.288432
C64	C	-0.380699	-1.134432	-0.582972
C65	C	-0.047366	-0.801099	-0.249638
C66	C	0.285968	-0.467766	0.083695
C67	C	-0.380673	-1.134449	-0.670222
C68	C	-0.047340	-0.801116	-0.336888
C69	C	0.285994	-0.467783	-0.003555
C70	C	-1.045470	-1.084270	-0.428422
C71	C	-0.712137	-0.750936	-0.095089
C72	C	-0.378803	-0.417603	0.238244
C73	C	-1.045447	-1.184735	-0.328112
C74	C	-0.712114	-0.851402	0.005221
C75	C	-0.378781	-0.518068	0.338554
C76	C	-0.962902	-1.184707	-0.328105
C77	C	-0.629568	-0.851374	0.005228
C78	C	-0.296235	-0.518041	0.338562
C79	C	-0.921636	-1.134460	-0.378256
C80	C	-0.588303	-0.801126	-0.044923
C81	C	-0.254969	-0.467793	0.288410
C82	C	-0.962917	-1.084239	-0.428415
C83	C	-0.629583	-0.750906	-0.095082
C84	C	-0.296250	-0.417572	0.238252
C85	C	-0.921615	-1.234921	-0.277942
C86	C	-0.588282	-0.901588	0.055392
C87	C	-0.254948	-0.568255	0.388725
C88	C	-0.839064	-1.234895	-0.277932
C89	C	-0.505731	-0.901562	0.055401
C90	C	-0.172397	-0.568229	0.388735
C91	C	-0.797797	-1.184651	-0.328088
C92	C	-0.464464	-0.851317	0.005245
C93	C	-0.131130	-0.517984	0.338579
C94	C	-0.839083	-1.134429	-0.378249
C95	C	-0.505749	-0.801096	-0.044916
C96	C	-0.172416	-0.467762	0.288418
C97	C	-0.797817	-1.084181	-0.428400
C98	C	-0.464484	-0.750848	-0.095067
C99	C	-0.131150	-0.417514	0.238266
C100	C	-0.839101	-1.033962	-0.478566
C101	C	-0.505768	-0.700629	-0.145233
C102	C	-0.172434	-0.367296	0.188100
C103	C	-0.921650	-1.033994	-0.478571
C104	C	-0.588316	-0.700661	-0.145238
C105	C	-0.254983	-0.367328	0.188096
C106	C	-0.715249	-1.184619	-0.328083
C107	C	-0.381915	-0.851285	0.005250
C108	C	-0.048582	-0.517952	0.338584
C109	C	-0.715264	-1.084150	-0.428393
C110	C	-0.381930	-0.750817	-0.095060
C111	C	-0.048597	-0.417484	0.238274
C112	C	-0.174592	-1.134480	-0.378258
C113	C	0.158741	-0.801147	-0.044925
C114	C	0.492075	-0.467814	0.288409
C115	C	-0.086736	-1.134518	-0.378271
C116	C	0.246598	-0.801184	-0.044938
C117	C	0.579931	-0.467851	0.288396
C118	C	-0.380775	-1.339137	-0.378250
C119	C	-0.047442	-1.005804	-0.044916
C120	C	0.285891	-0.672471	0.288417
C121	C	-0.380782	-1.426387	-0.378259
C122	C	-0.047448	-1.093054	-0.044926
C123	C	0.285885	-0.759720	0.288408
C124	C	-0.431375	-0.802214	-0.428333
C125	C	-0.098042	-0.468881	-0.094999
C126	C	0.235292	-0.135547	0.238334
C127	C	-0.431377	-0.720233	-0.428345
C128	C	-0.098044	-0.386900	-0.095012
C129	C	0.235290	-0.053567	0.238321
C130	C	-0.380766	-0.679236	-0.378236
C131	C	-0.047432	-0.345903	-0.044902
C132	C	0.285901	-0.012569	0.288431
C133	C	-0.330144	-0.720223	-0.328116
C134	C	0.003189	-0.386890	0.005218
C135	C	0.336523	-0.053556	0.338551
C136	C	-0.330139	-0.802202	-0.328108
C137	C	0.003194	-0.468869	0.005226
C138	C	0.336528	-0.135535	0.338559
C139	C	-0.330160	-0.549353	-0.328134
C140	C	0.003174	-0.216020	0.005199
C141	C	0.336507	0.117314	0.338532
C142	C	-0.330165	-0.467368	-0.328141
C143	C	0.003168	-0.134035	0.005192
C144	C	0.336501	0.199298	0.338525
C145	C	-0.431398	-0.467384	-0.428372
C146	C	-0.098064	-0.134051	-0.095039
C147	C	0.235269	0.199282	0.238294
C148	C	-0.431392	-0.549363	-0.428364
C149	C	-0.098059	-0.216030	-0.095031
C150	C	0.235274	0.117303	0.238302
C151	C	-0.380771	-0.590345	-0.378243
C152	C	-0.047438	-0.257012	-0.044910
C153	C	0.285895	0.076322	0.288424
C154	C	-0.330108	-1.084280	-0.711213
C155	C	0.003225	-0.750947	-0.377880
C156	C	0.336558	-0.417613	-0.044546
C157	C	-0.330090	-1.084293	-0.793194
C158	C	0.003243	-0.750960	-0.459860
C159	C	0.336576	-0.417626	-0.126527
C160	C	-0.380634	-1.134479	-0.834181
C161	C	-0.047300	-0.801146	-0.500848
C162	C	0.286033	-0.467813	-0.167514
C163	C	-0.431204	-1.184651	-0.793184
C164	C	-0.097871	-0.851317	-0.459850
C165	C	0.235463	-0.517984	-0.126517
C166	C	-0.431225	-1.184633	-0.711205
C167	C	-0.097892	-0.851300	-0.377871
C168	C	0.235441	-0.517967	-0.044538
C169	C	-0.431155	-1.184685	-0.964054
C170	C	-0.097821	-0.851351	-0.630720
C171	C	0.235512	-0.518018	-0.297387
C172	C	-0.431132	-1.184703	-1.046038
C173	C	-0.097799	-0.851370	-0.712705
C174	C	0.235534	-0.518037	-0.379372
C175	C	-0.330020	-1.084344	-1.046043
C176	C	0.003314	-0.751011	-0.712709
C177	C	0.336647	-0.417678	-0.379376
C178	C	-0.330041	-1.084327	-0.964064
C179	C	0.003292	-0.750994	-0.630730
C180	C	0.336626	-0.417660	-0.297397
C181	C	-0.380610	-1.134499	-0.923072
C182	C	-0.047277	-0.801166	-0.589739
C183	C	0.286056	-0.467833	-0.256405
C184	C	-0.380764	-1.134399	-0.174279
C185	C	-0.047431	-0.801066	0.159054
C186	C	0.285902	-0.467732	0.492387
C187	C	-0.380568	-1.134534	-0.087030
C188	C	-0.047234	-0.801201	0.246303
C189	C	0.286099	-0.467867	0.579637
H190	H	-0.681670	-1.043235	-0.469236
H191	H	-0.348337	-0.709902	-0.135902
H192	H	-0.015004	-0.376568	0.197431
C193	C	-0.274510	-1.029077	-0.666130
C194	C	0.058823	-0.695743	-0.332797
C195	C	0.392156	-0.362410	0.000536
H196	H	-0.281758	-1.036255	-0.611435
H197	H	0.051575	-0.702922	-0.278102
H198	H	0.384909	-0.369588	0.055231
H199	H	-0.286070	-0.976333	-0.679559
H200	H	0.047264	-0.643000	-0.346225
H201	H	0.380597	-0.309666	-0.012892
H202	H	-0.221397	-1.040596	-0.679578
H203	H	0.111937	-0.707263	-0.346245
H204	H	0.445270	-0.373929	-0.012911
C205	C	-0.274503	-0.422268	-0.273017
C206	C	0.058830	-0.088935	0.060316
C207	C	0.392164	0.244398	0.393650
H208	H	-0.281768	-0.367576	-0.280193
H209	H	0.051566	-0.034243	0.053141
H210	H	0.384899	0.299091	0.386474
H211	H	-0.221404	-0.435714	-0.284587
H212	H	0.111929	-0.102380	0.048746
H213	H	0.445262	0.230953	0.382079
H214	H	-0.286012	-0.435684	-0.220253
H215	H	0.047321	-0.102351	0.113080
H216	H	0.380655	0.230983	0.446413
H217	H	-0.805456	-1.275786	-0.237085
H218	H	-0.472122	-0.942453	0.096248
H219	H	-0.138789	-0.609120	0.429581
H220	H	-0.288918	-0.835568	-0.287301
H221	H	0.044416	-0.502235	0.046033
H222	H	0.377749	-0.168901	0.379366
H223	H	-0.288919	-1.043437	-0.826565
H224	H	0.044415	-0.710104	-0.493232
H225	H	0.377748	-0.376771	-0.159899
H226	H	-0.805493	-0.993047	-0.519396
H227	H	-0.472160	-0.659713	-0.186063
H228	H	-0.138827	-0.326380	0.147270
C229	C	-0.487062	-0.594460	-0.483484
C230	C	-0.153729	-0.261126	-0.150151
C231	C	0.179604	0.072207	0.183183
H232	H	-0.517206	-0.558313	-0.513341
H233	H	-0.183872	-0.224980	-0.180008
H234	H	0.149461	0.108354	0.153325
H235	H	-0.521460	-0.626420	-0.453395
H236	H	-0.188127	-0.293087	-0.120062
H237	H	0.145206	0.040247	0.213271
H238	H	-0.456859	-0.626460	-0.517735
H239	H	-0.123525	-0.293126	-0.184402
H240	H	0.209808	0.040207	0.148931
H241	H	-0.955270	-0.993108	-0.519412
H242	H	-0.621937	-0.659775	-0.186079
H243	H	-0.288604	-0.326442	0.147254
C244	C	-0.487075	-0.422309	-0.483509
C245	C	-0.153742	-0.088975	-0.150176
C246	C	0.179592	0.244358	0.183158
H247	H	-0.479824	-0.367613	-0.476346
H248	H	-0.146491	-0.034280	-0.143013
H249	H	0.186843	0.299053	0.190321
H250	H	-0.540168	-0.435721	-0.471929
H251	H	-0.206835	-0.102388	-0.138596
H252	H	0.126499	0.230945	0.194738
H253	H	-0.475569	-0.435772	-0.536271
H254	H	-0.142236	-0.102439	-0.202938
H255	H	0.191098	0.230895	0.130395
H256	H	-0.288881	-1.043464	-0.930694
H257	H	0.044453	-0.710131	-0.597361
H258	H	0.377786	-0.376798	-0.264027
H259	H	-0.288932	-0.582718	-0.287327
H260	H	0.044402	-0.249384	0.046006
H261	H	0.377735	0.083949	0.379339
C262	C	-0.274470	-0.675132	-0.272996
C263	C	0.058864	-0.341798	0.060337
C264	C	0.392197	-0.008465	0.393671
H265	H	-0.244318	-0.711282	-0.243152
H266	H	0.089015	-0.377949	0.090182
H267	H	0.422348	-0.044616	0.423515
H268	H	-0.304663	-0.643129	-0.238745
H269	H	0.028671	-0.309796	0.094588
H270	H	0.362004	0.023538	0.427922
H271	H	-0.240067	-0.643175	-0.303091
H272	H	0.093266	-0.309841	0.030242
H273	H	0.426599	0.023492	0.363576
H274	H	-0.288843	-1.043493	-1.079422
H275	H	0.044490	-0.710160	-0.746089
H276	H	0.377823	-0.376826	-0.412755
C277	C	-0.486723	-1.239912	-1.091124
C278	C	-0.153390	-0.906578	-0.757790
C279	C	0.179943	-0.573245	-0.424457
H280	H	-0.516849	-1.269785	-1.054971
H281	H	-0.183516	-0.936452	-0.721637
H282	H	0.149818	-0.603118	-0.388304
H283	H	-0.456475	-1.274132	-1.123107
H284	H	-0.123141	-0.940799	-0.789774
H285	H	0.210192	-0.607465	-0.456440
H286	H	-0.521153	-1.209874	-1.123099
H287	H	-0.187820	-0.876541	-0.789766
H288	H	0.145513	-0.543208	-0.456433
H289	H	-0.472594	-0.686870	-0.469156
H290	H	-0.139261	-0.353537	-0.135822
H291	H	0.194072	-0.020203	0.197511
C292	C	-0.486781	-1.239872	-0.918964
C293	C	-0.153448	-0.906539	-0.585631
C294	C	0.179885	-0.573205	-0.252298
H295	H	-0.516875	-1.269769	-0.955115
H296	H	-0.183542	-0.936436	-0.621781
H297	H	0.149791	-0.603102	-0.288448
H298	H	-0.521227	-1.209823	-0.886975
H299	H	-0.187893	-0.876490	-0.553642
H300	H	0.145440	-0.543156	-0.220308
H301	H	-0.456551	-1.274083	-0.886994
H302	H	-0.123218	-0.940750	-0.553661
H303	H	0.210116	-0.607417	-0.220327
H304	H	-0.472394	-1.225492	-0.677830
H305	H	-0.139061	-0.892159	-0.344497
H306	H	0.194272	-0.558825	-0.011164
C307	C	-1.090877	-1.029031	-0.483598
C308	C	-0.757544	-0.695698	-0.150265
C309	C	-0.424210	-0.362365	0.183069
H310	H	-1.145951	-1.036240	-0.476420
H311	H	-0.812617	-0.702907	-0.143087
H312	H	-0.479284	-0.369574	0.190247
H313	H	-1.077308	-1.040479	-0.536349
H314	H	-0.743975	-0.707146	-0.203015
H315	H	-0.410642	-0.373812	0.130318
H316	H	-1.077394	-0.976289	-0.472052
H317	H	-0.744060	-0.642956	-0.138719
H318	H	-0.410727	-0.309622	0.194614
C319	C	-1.090837	-1.240007	-0.272955
C320	C	-0.757504	-0.906674	0.060378
C321	C	-0.424170	-0.573340	0.393712
H322	H	-1.145913	-1.232836	-0.280147
H323	H	-0.812579	-0.899503	0.053186
H324	H	-0.479246	-0.566170	0.386519
H325	H	-1.077347	-1.228556	-0.220199
H326	H	-0.744013	-0.895222	0.113134
H327	H	-0.410680	-0.561889	0.446467
H328	H	-1.077264	-1.292738	-0.284503
H329	H	-0.743931	-0.959405	0.048830
H330	H	-0.410597	-0.626071	0.382164
C331	C	-0.967006	-1.290199	-0.222791
C332	C	-0.633673	-0.956866	0.110542
C333	C	-0.300340	-0.623532	0.443875
H334	H	-1.022082	-1.283034	-0.229992
H335	H	-0.688748	-0.949700	0.103342
H336	H	-0.355415	-0.616367	0.436675
H337	H	-0.953525	-1.278749	-0.170033
H338	H	-0.620192	-0.945416	0.163300
H339	H	-0.286859	-0.612083	0.496634
H340	H	-0.953426	-1.342928	-0.234340
H341	H	-0.620093	-1.009595	0.098993
H342	H	-0.286759	-0.676261	0.432326
H343	H	-0.681639	-1.225502	-0.287235
H344	H	-0.348306	-0.892169	0.046098
H345	H	-0.014972	-0.558836	0.379431
C346	C	-0.487047	-0.847304	-0.483456
C347	C	-0.153714	-0.513971	-0.150122
C348	C	0.179620	-0.180638	0.183211
H349	H	-0.517187	-0.811153	-0.513311
H350	H	-0.183853	-0.477819	-0.179977
H351	H	0.149480	-0.144486	0.153356
H352	H	-0.521448	-0.879264	-0.453370
H353	H	-0.188115	-0.545930	-0.120037
H354	H	0.145218	-0.212597	0.213297
H355	H	-0.456845	-0.879304	-0.517709
H356	H	-0.123512	-0.545971	-0.184375
H357	H	0.209821	-0.212638	0.148958
H358	H	-0.472361	-1.225509	-0.826562
H359	H	-0.139028	-0.892176	-0.493229
H360	H	0.194305	-0.558843	-0.159895
