data_functionalizedCrystal
_audit_creation_method	'MofGen! by Chris Wilmer'
_symmetry_space_group_name_H-M	'P1'
_symmetry_Int_Tables_number	1
_symmetry_cell_setting	triclinic
loop_
_symmetry_equiv_pos_as_xyz
  x,y,z
_cell_length_a	14.971486
_cell_length_b	10.723023
_cell_length_c	13.448316
_cell_angle_alpha	89.994428
_cell_angle_beta	89.998199
_cell_angle_gamma	84.040838
loop_
_atom_site_label
_atom_site_type_symbol
_atom_site_fract_x
_atom_site_fract_y
_atom_site_fract_z
O1	O	1.187820	0.162617	-0.082575
O2	O	0.927525	0.182090	-0.082602
O3	O	1.063677	-0.009285	-0.082584
O4	O	1.051668	0.353993	-0.082593
O5	O	1.063660	-0.009297	0.082800
O6	O	0.927507	0.182078	0.082782
O7	O	1.187803	0.162605	0.082809
Cu8	Cu	1.057653	0.172341	0.097896
Cu9	Cu	1.057674	0.172355	-0.097689
O10	O	1.051651	0.353981	0.082791
C11	C	0.894187	0.181214	0.000086
C12	C	0.794875	0.178604	0.000076
C13	C	0.738254	0.291032	0.000075
C14	C	0.644941	0.288572	0.000090
C15	C	0.608252	0.173683	0.000099
C16	C	0.664881	0.061246	0.000103
C17	C	0.758192	0.063707	0.000096
C18	C	0.470391	0.056125	0.000117
C19	C	0.377074	0.053663	0.000123
C20	C	0.357140	0.280990	0.000111
C21	C	0.450451	0.283451	0.000103
C22	C	0.507074	0.171013	0.000106
C23	C	1.062794	-0.055782	0.000107
C24	C	1.060180	-0.194309	0.000103
C25	C	1.059024	-0.256056	-0.085572
C26	C	1.056322	-0.399231	-0.085577
C27	C	1.221141	0.163482	0.000118
C28	C	1.320452	0.166091	0.000122
C29	C	1.052533	0.400477	0.000098
C30	C	1.055147	0.539004	0.000095
N31	N	1.057646	0.172330	0.235460
N32	N	1.057689	0.172355	-0.235254
C33	C	1.117953	0.087624	0.287509
C34	C	1.117958	0.087623	0.391612
C35	C	1.057660	0.172335	0.443665
C36	C	0.997347	0.257045	0.391609
C37	C	0.997337	0.257039	0.287508
C38	C	0.997372	0.257054	0.608589
C39	C	0.997382	0.257062	0.712698
C40	C	1.117993	0.087637	0.712693
C41	C	1.117983	0.087631	0.608592
C42	C	1.057670	0.172343	0.556544
H43	H	0.347205	-0.039889	0.000132
O44	O	0.525267	-0.053211	0.000070
C45	C	0.472878	-0.155145	0.000099
H46	H	0.403437	-0.123573	-0.031201
H47	H	0.506807	-0.233918	-0.047924
H48	H	0.466028	-0.190370	0.079441
H49	H	0.948228	0.326014	0.245131
O50	O	0.938646	0.339207	0.442128
C51	C	0.849982	0.318729	0.416690
H52	H	0.848937	0.218820	0.388083
H53	H	0.805189	0.332976	0.485158
H54	H	0.824123	0.387831	0.356261
H55	H	0.598843	0.380123	0.000087
O56	O	1.060074	-0.192700	-0.173099
C57	C	0.982165	-0.210407	-0.228008
H58	H	0.927427	-0.236491	-0.175311
H59	H	0.957833	-0.120026	-0.268807
H60	H	0.998234	-0.289019	-0.284307
H61	H	0.480320	0.377003	0.000086
O62	O	1.054972	-0.462603	-0.173059
C63	C	0.976231	-0.523909	-0.178367
H64	H	0.922920	-0.474809	-0.127251
H65	H	0.950248	-0.520805	-0.258102
H66	H	0.991852	-0.625685	-0.154040
H67	H	1.056146	-0.407903	0.073448
H68	H	1.059164	-0.247440	0.073449
H69	H	0.311033	0.372540	0.000114
H70	H	1.167058	0.018646	0.245134
O71	O	1.176637	0.005306	0.442017
C72	C	1.229849	-0.069472	0.373751
H73	H	1.231151	-0.018313	0.299536
H74	H	1.301167	-0.088318	0.403817
H75	H	1.200257	-0.162252	0.362700
H76	H	1.167087	0.018658	0.566211
O77	O	1.176544	0.005173	0.763135
C78	C	1.161245	-0.118393	0.737728
H79	H	1.126760	-0.118323	0.662151
H80	H	1.228106	-0.179679	0.734157
H81	H	1.116501	-0.157094	0.796330
H82	H	0.948280	0.326042	0.755074
H83	H	0.948255	0.326032	0.566215
H84	H	0.635002	-0.032298	0.000125
H85	H	0.768118	0.384588	0.000066
O86	O	0.813161	-0.045538	-0.000084
C87	C	0.796408	-0.115295	-0.085721
H88	H	0.764921	-0.049465	-0.145589
H89	H	0.862295	-0.165230	-0.114474
H90	H	0.748464	-0.187598	-0.066350
