data_functionalizedCrystal
_audit_creation_method	'MofGen! by Chris Wilmer'
_symmetry_space_group_name_H-M	'P1'
_symmetry_Int_Tables_number	1
_symmetry_cell_setting	triclinic
loop_
_symmetry_equiv_pos_as_xyz
  x,y,z
_cell_length_a	16.625547
_cell_length_b	13.897448
_cell_length_c	13.897441
_cell_angle_alpha	89.969401
_cell_angle_beta	89.973876
_cell_angle_gamma	90.017629
loop_
_atom_site_label
_atom_site_type_symbol
_atom_site_fract_x
_atom_site_fract_y
_atom_site_fract_z
Zn1	Zn	1.232718	-0.383986	-0.545520
Zn2	Zn	1.482718	-0.133986	-0.295520
Zn3	Zn	1.732718	0.116014	-0.045520
Zn4	Zn	1.982718	0.366014	0.204480
Zn5	Zn	1.232629	-0.545307	-0.384221
Zn6	Zn	1.482629	-0.295307	-0.134221
Zn7	Zn	1.732629	-0.045307	0.115779
Zn8	Zn	1.982629	0.204693	0.365779
Zn9	Zn	1.097876	-0.384028	-0.384223
Zn10	Zn	1.347876	-0.134028	-0.134223
Zn11	Zn	1.597876	0.115972	0.115777
Zn12	Zn	1.847876	0.365972	0.365777
Zn13	Zn	1.097861	-0.545240	-0.545459
Zn14	Zn	1.347861	-0.295240	-0.295459
Zn15	Zn	1.597861	-0.045240	-0.045459
Zn16	Zn	1.847861	0.204760	0.204541
O17	O	1.165271	-0.464640	-0.464856
O18	O	1.415271	-0.214640	-0.214856
O19	O	1.665271	0.035360	0.035144
O20	O	1.915271	0.285360	0.285144
O21	O	1.345538	-0.405396	-0.524148
O22	O	1.595538	-0.155396	-0.274148
O23	O	1.845538	0.094604	-0.024148
O24	O	2.095538	0.344604	0.225852
O25	O	1.214723	-0.523959	-0.249240
O26	O	1.464723	-0.273959	0.000760
O27	O	1.714723	-0.023959	0.250760
O28	O	1.964723	0.226041	0.500760
O29	O	1.115807	-0.249041	-0.405646
O30	O	1.365807	0.000959	-0.155646
O31	O	1.615807	0.250959	0.094354
O32	O	1.865807	0.500959	0.344354
O33	O	1.345473	-0.523918	-0.405643
O34	O	1.595473	-0.273918	-0.155643
O35	O	1.845473	-0.023918	0.094357
O36	O	2.095473	0.226082	0.344357
O37	O	1.214874	-0.249010	-0.524150
O38	O	1.464874	0.000990	-0.274150
O39	O	1.714874	0.250990	-0.024150
O40	O	1.964874	0.500990	0.225850
O41	O	1.115721	-0.405468	-0.249241
O42	O	1.365721	-0.155468	0.000759
O43	O	1.615721	0.094532	0.250759
O44	O	1.865721	0.344532	0.500759
O45	O	0.985042	-0.405403	-0.405587
O46	O	1.235042	-0.155403	-0.155587
O47	O	1.485042	0.094597	0.094413
O48	O	1.735042	0.344597	0.344413
O49	O	1.115781	-0.523804	-0.680449
O50	O	1.365781	-0.273804	-0.430449
O51	O	1.615781	-0.023804	-0.180449
O52	O	1.865781	0.226196	0.069551
O53	O	0.985031	-0.523845	-0.524046
O54	O	1.235031	-0.273845	-0.274046
O55	O	1.485031	-0.023845	-0.024046
O56	O	1.735031	0.226155	0.225954
O57	O	1.214859	-0.405331	-0.680494
O58	O	1.464859	-0.155331	-0.430494
O59	O	1.714859	0.094669	-0.180494
O60	O	1.964859	0.344669	0.069506
O61	O	1.214708	-0.680280	-0.405583
O62	O	1.464708	-0.430280	-0.155583
O63	O	1.714708	-0.180280	0.094417
O64	O	1.964708	0.069720	0.344417
O65	O	1.115695	-0.680231	-0.524044
O66	O	1.365695	-0.430231	-0.274044
O67	O	1.615695	-0.180231	-0.024044
O68	O	1.865695	0.069769	0.225956
C69	C	0.955780	-0.464622	-0.464810
C70	C	1.205780	-0.214622	-0.214810
C71	C	1.455780	0.035378	0.035190
C72	C	1.705780	0.285378	0.285190
C73	C	0.866159	-0.464637	-0.464814
C74	C	1.116159	-0.214637	-0.214814
C75	C	1.366159	0.035363	0.035186
C76	C	1.616159	0.285363	0.285186
C77	C	1.165212	-0.715255	-0.464828
C78	C	1.415212	-0.465255	-0.214828
C79	C	1.665212	-0.215255	0.035172
C80	C	1.915212	0.034745	0.285172
C81	C	1.165261	-0.822469	-0.464848
C82	C	1.415261	-0.572469	-0.214848
C83	C	1.665261	-0.322469	0.035152
C84	C	1.915261	-0.072469	0.285152
C85	C	1.165345	-1.018764	-0.464909
C86	C	1.415345	-0.768764	-0.214909
C87	C	1.665345	-0.518764	0.035091
C88	C	1.915345	-0.268764	0.285091
C89	C	1.165296	-0.909531	-0.464878
C90	C	1.415296	-0.659531	-0.214878
C91	C	1.665296	-0.409531	0.035122
C92	C	1.915296	-0.159531	0.285122
C93	C	0.793377	-0.464639	-0.464826
C94	C	1.043377	-0.214639	-0.214826
C95	C	1.293377	0.035361	0.035174
C96	C	1.543377	0.285361	0.285174
C97	C	0.702068	-0.464644	-0.464850
C98	C	0.952068	-0.214644	-0.214850
C99	C	1.202068	0.035356	0.035150
C100	C	1.452068	0.285356	0.285150
C101	C	0.629292	-0.464653	-0.464874
C102	C	0.879292	-0.214653	-0.214874
C103	C	1.129292	0.035347	0.035126
C104	C	1.379292	0.285347	0.285126
C105	C	0.537977	-0.464659	-0.464897
C106	C	0.787977	-0.214659	-0.214897
C107	C	1.037977	0.035341	0.035103
C108	C	1.287977	0.285341	0.285103
C109	C	1.375580	-0.464660	-0.464902
C110	C	1.625580	-0.214660	-0.214902
C111	C	1.875580	0.035340	0.035098
C112	C	2.125580	0.285340	0.285098
C113	C	1.465201	-0.464668	-0.464922
C114	C	1.715201	-0.214668	-0.214922
C115	C	1.965201	0.035332	0.035078
C116	C	2.215201	0.285332	0.285078
C117	C	1.165328	-0.464555	-0.716449
C118	C	1.415328	-0.214555	-0.466449
C119	C	1.665328	0.035445	-0.216449
C120	C	1.915328	0.285445	0.033551
C121	C	1.165353	-0.464519	-0.823663
C122	C	1.415353	-0.214519	-0.573663
C123	C	1.665353	0.035481	-0.323663
C124	C	1.915353	0.285481	-0.073663
C125	C	1.165352	-0.213047	-0.464905
C126	C	1.415352	0.036953	-0.214905
C127	C	1.665352	0.286953	0.035095
C128	C	1.915352	0.536953	0.285095
C129	C	1.165387	-0.105833	-0.464926
C130	C	1.415387	0.144167	-0.214926
C131	C	1.665387	0.394167	0.035074
C132	C	1.915387	0.644167	0.285074
C133	C	1.165374	-0.464453	-1.019958
C134	C	1.415374	-0.214453	-0.769958
C135	C	1.665374	0.035547	-0.519958
C136	C	1.915374	0.285547	-0.269958
C137	C	1.165360	-0.464492	-0.910726
C138	C	1.415360	-0.214492	-0.660726
C139	C	1.665360	0.035508	-0.410726
C140	C	1.915360	0.285508	-0.160726
C141	C	1.165260	-0.464656	-0.214241
C142	C	1.415260	-0.214656	0.035759
C143	C	1.665260	0.035344	0.285759
C144	C	1.915260	0.285344	0.535759
C145	C	1.165392	-0.464420	-0.107028
C146	C	1.415392	-0.214420	0.142972
C147	C	1.665392	0.035580	0.392972
C148	C	1.915392	0.285580	0.642972
