data_functionalizedCrystal
_audit_creation_method	'MofGen! by Chris Wilmer'
_symmetry_space_group_name_H-M	'P1'
_symmetry_Int_Tables_number	1
_symmetry_cell_setting	triclinic
loop_
_symmetry_equiv_pos_as_xyz
  x,y,z
_cell_length_a	14.519731
_cell_length_b	10.654545
_cell_length_c	13.596369
_cell_angle_alpha	90.003630
_cell_angle_beta	90.005416
_cell_angle_gamma	84.087140
loop_
_atom_site_label
_atom_site_type_symbol
_atom_site_fract_x
_atom_site_fract_y
_atom_site_fract_z
O1	O	1.224711	0.164753	0.081788
O2	O	1.724711	0.664753	0.581788
O3	O	0.956337	0.184111	0.081789
O4	O	1.456337	0.684111	0.581789
O5	O	1.096694	-0.008366	0.081788
O6	O	1.596694	0.491634	0.581788
O7	O	1.084354	0.357230	0.081789
O8	O	1.584354	0.857230	0.581789
O9	O	1.096680	-0.008376	-0.081795
O10	O	1.596680	0.491624	0.418205
O11	O	0.956323	0.184101	-0.081794
O12	O	1.456323	0.684101	0.418206
O13	O	1.224697	0.164742	-0.081795
O14	O	1.724697	0.664742	0.418205
Zn15	Zn	1.090508	0.174420	-0.107766
Zn16	Zn	1.590508	0.674420	0.392234
Zn17	Zn	1.090526	0.174434	0.107761
Zn18	Zn	1.590526	0.674434	0.607761
O19	O	1.084340	0.357220	-0.081793
O20	O	1.584340	0.857220	0.418207
C21	C	0.921966	0.183199	-0.000002
C22	C	1.421966	0.683199	0.499998
C23	C	0.819572	0.180481	-0.000002
C24	C	1.319572	0.680481	0.499998
C25	C	1.095781	-0.055160	-0.000002
C26	C	1.595781	0.444840	0.499998
C27	C	1.093069	-0.194578	0.000004
C28	C	1.593069	0.305422	0.500004
C29	C	1.093096	-0.194575	0.178347
C30	C	1.593096	0.305425	0.678347
C31	C	1.091839	-0.260072	0.267518
C32	C	1.591839	0.239928	0.767518
C33	C	1.089291	-0.391066	0.267520
C34	C	1.589291	0.108934	0.767520
C35	C	1.087998	-0.456567	0.178340
C36	C	1.587998	0.043433	0.678340
C37	C	1.089255	-0.391070	0.089169
C38	C	1.589255	0.108930	0.589169
C39	C	1.091805	-0.260073	0.089177
C40	C	1.591805	0.239927	0.589177
C41	C	1.089222	-0.391072	-0.089172
C42	C	1.589222	0.108928	0.410828
C43	C	1.091776	-0.260078	-0.089175
C44	C	1.591776	0.239922	0.410825
C45	C	1.087929	-0.456572	-0.178352
C46	C	1.587929	0.043428	0.321648
C47	C	1.089193	-0.391077	-0.267525
C48	C	1.589193	0.108923	0.232475
C49	C	1.091741	-0.260075	-0.267522
C50	C	1.591741	0.239925	0.232478
C51	C	1.093033	-0.194582	-0.178347
C52	C	1.593033	0.305418	0.321653
C53	C	0.736416	0.178272	0.000002
C54	C	1.236416	0.678272	0.500002
C55	C	0.632093	0.175513	0.000003
C56	C	1.132093	0.675513	0.500003
C57	C	0.548943	0.173322	0.000003
C58	C	1.048943	0.673322	0.500003
C59	C	0.444613	0.170563	0.000005
C60	C	0.944613	0.670563	0.500005
C61	C	1.259068	0.165655	-0.000001
C62	C	1.759068	0.665655	0.499999
C63	C	1.361462	0.168373	0.000005
C64	C	1.861462	0.668373	0.500005
C65	C	1.085254	0.404014	-0.000002
C66	C	1.585254	0.904014	0.499998
C67	C	1.087965	0.543432	-0.000001
C68	C	1.587965	1.043432	0.499999
N69	N	1.090502	0.174410	-0.254858
N70	N	1.590502	0.674410	0.245142
C71	C	1.090525	0.174435	-0.656149
C72	C	1.590525	0.674435	-0.156149
C73	C	1.090516	0.174432	-0.544498
C74	C	1.590516	0.674432	-0.044498
C75	C	1.090514	0.174423	-0.455507
C76	C	1.590514	0.674423	0.044493
C77	C	1.090504	0.174419	-0.343849
C78	C	1.590504	0.674419	0.156151
N79	N	1.090540	0.174434	0.254853
N80	N	1.590540	0.674434	0.754853
H81	H	1.095180	-0.087915	0.178355
H82	H	1.595180	0.412085	0.678355
H83	H	1.088134	-0.444417	-0.340128
H84	H	1.588134	0.055583	0.159872
H85	H	1.092890	-0.206727	0.340127
H86	H	1.592890	0.293273	0.840127
H87	H	1.088259	-0.444392	0.340130
H88	H	1.588259	0.055608	0.840130
H89	H	1.085913	-0.563228	0.178349
H90	H	1.585913	-0.063228	0.678349
H91	H	1.095113	-0.087920	-0.178336
H92	H	1.595113	0.412080	0.321664
H93	H	1.092751	-0.206753	-0.340137
H94	H	1.592751	0.293247	0.159863
H95	H	1.085850	-0.563234	-0.178344
H96	H	1.585850	-0.063234	0.321656
