data_functionalizedCrystal
_audit_creation_method	'MofGen! by Chris Wilmer'
_symmetry_space_group_name_H-M	'P1'
_symmetry_Int_Tables_number	1
_symmetry_cell_setting	triclinic
loop_
_symmetry_equiv_pos_as_xyz
  x,y,z
_cell_length_a	15.698487
_cell_length_b	23.096457
_cell_length_c	23.096457
_cell_angle_alpha	90.011518
_cell_angle_beta	60.006682
_cell_angle_gamma	60.000870
loop_
_atom_site_label
_atom_site_type_symbol
_atom_site_fract_x
_atom_site_fract_y
_atom_site_fract_z
Zr1	Zr	0.932411	0.557763	-0.076001
O2	O	1.110121	0.465295	-0.168448
O3	O	0.754701	0.586107	-0.047662
O4	O	0.932414	0.586081	-0.168452
O5	O	0.932406	0.465344	0.047625
O6	O	0.932416	0.681362	-0.168456
O7	O	0.932408	0.465321	-0.047657
O8	O	0.614520	0.681407	0.047617
O9	O	1.250302	0.465298	-0.168448
O10	O	0.827797	0.669305	-0.035578
O11	O	0.827794	0.598215	0.035533
O12	O	1.037028	0.598185	-0.106683
O13	O	1.037025	0.527095	-0.035572
Zr14	Zr	0.932411	0.709760	0.075957
Zr15	Zr	0.932415	0.709724	-0.076007
Zr16	Zr	0.932407	0.557799	0.075962
Zr17	Zr	1.155983	0.557767	-0.076001
Zr18	Zr	0.708839	0.709756	0.075957
O19	O	1.110121	0.681416	0.047617
O20	O	1.110126	0.681365	-0.168456
O21	O	1.110116	0.465347	0.047625
O22	O	0.754701	0.802228	0.168403
O23	O	0.754706	0.802176	-0.047670
O24	O	0.754695	0.586158	0.168411
O25	O	0.932416	0.802179	-0.047669
O26	O	0.932408	0.681442	0.168408
O27	O	0.932406	0.586161	0.168411
O28	O	0.932414	0.802202	0.047613
O29	O	1.250305	0.586087	-0.168452
O30	O	0.614517	0.681436	0.168408
O31	O	0.614520	0.802225	0.168403
O32	O	0.614523	0.802196	0.047612
O33	O	1.250299	0.465327	-0.047657
O34	O	1.250302	0.586116	-0.047661
O35	O	0.827794	0.669338	0.106638
O36	O	0.827797	0.740428	0.035528
O37	O	1.037028	0.669308	-0.035577
O38	O	1.037025	0.598218	0.035533
C39	C	0.652756	0.633757	-0.000022
C40	C	0.557844	0.633755	-0.000023
C41	C	0.480762	0.633754	-0.000021
C42	C	0.384057	0.633760	-0.000020
C43	C	0.932406	0.443681	-0.000015
C44	C	0.932405	0.379170	-0.000013
C45	C	0.823192	0.385988	0.037096
C46	C	0.823190	0.325372	0.037100
C47	C	0.932407	0.257939	-0.000021
C48	C	1.041635	0.251123	-0.037132
C49	C	1.041633	0.311739	-0.037128
N50	N	1.013705	0.135130	-0.060432
N51	N	1.013699	0.077551	-0.060434
C52	C	0.932418	0.075306	-0.000033
N53	N	0.851126	0.132823	0.060369
N54	N	0.851128	0.190409	0.060370
C55	C	0.932421	0.192208	-0.000028
C56	C	0.823196	0.016401	0.037083
C57	C	0.823199	-0.044217	0.037088
C58	C	1.041647	-0.118466	-0.037150
C59	C	1.041641	-0.057848	-0.037148
C60	C	0.932412	0.009583	-0.000033
C61	C	1.212066	0.633766	-0.000022
C62	C	1.306978	0.633768	-0.000022
C63	C	0.932416	0.633716	-0.190106
C64	C	0.932417	0.633701	-0.254618
C65	C	0.932416	0.823842	-0.000029
C66	C	0.932417	0.888353	-0.000032
C67	C	1.041630	0.596581	-0.322038
C68	C	1.041632	0.596599	-0.382655
C69	C	0.932414	0.633728	-0.375847
C70	C	0.823187	0.670856	-0.308415
C71	C	0.823188	0.670843	-0.247801
N72	N	0.851117	0.628604	-0.443402
N73	N	0.851123	0.628613	-0.500986
C74	C	0.932404	0.633771	-0.558472
N75	N	1.013696	0.638907	-0.556206
N76	N	1.013693	0.638894	-0.498618
C77	C	0.932401	0.633746	-0.441569
C78	C	1.041626	0.596669	-0.691622
C79	C	1.041623	0.596692	-0.752238
C80	C	0.823175	0.670944	-0.677997
C81	C	0.823181	0.670926	-0.617383
C82	C	0.932410	0.633784	-0.624200
C83	C	0.932406	0.633807	0.190061
C84	C	0.932405	0.633822	0.254574
C85	C	0.652761	0.823837	-0.000029
C86	C	0.557850	0.888347	-0.000032
C87	C	0.652751	0.633802	0.190061
C88	C	0.557837	0.633815	0.254574
C89	C	0.652756	0.823882	0.190054
C90	C	0.557844	0.888407	0.254564
C91	C	1.212066	0.443641	-0.190098
C92	C	1.306978	0.379116	-0.254609
C93	C	1.212061	0.443686	-0.000015
C94	C	1.306972	0.379176	-0.000012
C95	C	1.212071	0.633721	-0.190105
C96	C	1.306984	0.633708	-0.254618
C97	C	0.513279	0.881516	-0.037156
C98	C	0.424113	0.942124	-0.037172
C99	C	0.379513	1.009562	-0.000060
C100	C	0.424093	1.016392	0.037064
C101	C	0.513264	0.955785	0.037076
C102	C	0.513265	0.670948	0.321992
C103	C	0.424096	0.670958	0.382614
C104	C	0.379494	0.633840	0.375816
C105	C	0.424076	0.596703	0.308391
C106	C	0.513249	0.596689	0.247770
C107	C	0.513274	0.955824	0.247740
C108	C	0.424106	1.016458	0.308348
C109	C	0.379504	1.009674	0.375780
C110	C	0.424082	0.942251	0.382603
C111	C	0.513255	0.881618	0.321995
C112	C	1.351559	0.311699	-0.247784
C113	C	1.440754	0.251065	-0.308393
C114	C	1.485361	0.257849	-0.375825
C115	C	1.440777	0.325272	-0.382647
C116	C	1.351589	0.385905	-0.322040
C117	C	1.351552	0.386007	0.037105
C118	C	1.440743	0.325399	0.037105
C119	C	1.485346	0.257961	-0.000009
C120	C	1.440762	0.251131	-0.037131
C121	C	1.351579	0.311738	-0.037135
C122	C	1.351557	0.670833	-0.247797
C123	C	1.440727	0.670834	-0.308408
C124	C	1.485329	0.633705	-0.375838
C125	C	1.440747	0.596578	-0.382657
C126	C	1.351573	0.596582	-0.322048
H127	H	0.734249	0.440889	0.067314
O128	O	0.375974	1.089131	0.077098
H129	H	0.306470	1.130121	0.070856
O130	O	0.705381	0.710972	-0.544662
H131	H	0.723729	0.704735	-0.503657
O132	O	0.561385	0.808782	-0.077194
H133	H	0.515413	0.814225	-0.103016
O134	O	1.303497	0.304364	-0.077169
H135	H	1.205123	0.330208	-0.039698
H136	H	1.130573	0.566340	-0.327595
O137	O	0.705393	0.089134	0.077120
H138	H	0.629447	0.083690	0.102937
H139	H	0.387819	1.071351	0.302780
O140	O	0.283301	0.633871	0.441209
H141	H	0.317515	0.578605	0.441188
H142	H	0.734261	0.701087	-0.302876
O143	O	1.488869	0.556525	-0.455387
H144	H	1.558377	0.562756	-0.496381
H145	H	1.477091	0.196214	-0.067348
H146	H	0.734253	0.330924	0.067319
O147	O	1.303447	0.710891	-0.175072
H148	H	1.349421	0.736712	-0.180524
H149	H	0.306894	1.059051	0.425125
O150	O	0.375955	0.934937	0.455335
H151	H	0.306448	0.988429	0.496326
O152	O	0.375933	0.556692	0.301062
H153	H	0.306418	0.562959	0.354546
H154	H	0.549569	0.701174	0.327540
H155	H	0.387808	0.701201	0.437509
H156	H	0.549529	0.566454	0.192877
O157	O	0.561297	0.808909	0.329370
H158	H	0.659670	0.779498	0.303543
O159	O	1.488806	0.710877	-0.301046
H160	H	1.442819	0.736683	-0.243974
H161	H	1.315245	0.306162	-0.192883
H162	H	0.549576	0.961360	0.192839
O163	O	1.303515	0.556527	-0.329407
H164	H	1.349528	0.530704	-0.386480
O165	O	0.561317	0.963156	0.077131
H166	H	0.515305	1.020234	0.102940
H167	H	1.477040	0.196172	-0.302823
H168	H	0.387826	0.936549	-0.067404
H169	H	1.557965	0.208616	-0.000001
O170	O	0.283326	1.074930	-0.000069
H171	H	0.259823	1.058843	-0.032115
H172	H	1.557983	0.208472	-0.425169
O173	O	1.488884	0.332586	-0.455379
H174	H	1.558379	0.279094	-0.496371
H175	H	1.477029	0.330974	0.067337
H176	H	1.557940	0.633708	-0.425185
H177	H	1.130567	0.566426	-0.697174
H178	H	1.315292	0.440797	-0.327605
H179	H	1.130561	0.196215	-0.067354
H180	H	1.130561	0.566467	-0.807136
O181	O	1.303471	0.458741	0.077125
H182	H	1.349482	0.453298	0.102922
H183	H	1.130571	0.306182	-0.067345
H184	H	0.734260	-0.038659	0.067312
H185	H	1.130574	-0.173370	-0.067374
O186	O	1.159432	-0.065191	-0.077199
H187	H	1.164679	-0.039348	-0.039736
O188	O	1.159425	0.556561	-0.455386
H189	H	1.211788	0.499505	-0.461571
O190	O	0.705390	0.710874	-0.175077
H191	H	0.629441	0.736693	-0.180522
H192	H	0.734248	0.701176	-0.672452
