data_functionalizedCrystal
_audit_creation_method	'MofGen! by Chris Wilmer'
_symmetry_space_group_name_H-M	'P1'
_symmetry_Int_Tables_number	1
_symmetry_cell_setting	triclinic
loop_
_symmetry_equiv_pos_as_xyz
  x,y,z
_cell_length_a	16.992701
_cell_length_b	19.288865
_cell_length_c	18.366186
_cell_angle_alpha	90.011479
_cell_angle_beta	89.990974
_cell_angle_gamma	93.098291
loop_
_atom_site_label
_atom_site_type_symbol
_atom_site_fract_x
_atom_site_fract_y
_atom_site_fract_z
O1	O	1.039876	-0.147245	-0.060569
O2	O	1.373210	0.186089	0.272764
O3	O	1.706543	0.519422	0.606098
O4	O	0.811597	-0.145631	-0.060569
O5	O	1.144930	0.187702	0.272764
O6	O	1.478263	0.521036	0.606097
O7	O	0.932333	-0.045692	-0.060555
O8	O	1.265666	0.287641	0.272779
O9	O	1.598999	0.620975	0.606112
O10	O	0.919140	-0.247184	-0.060584
O11	O	1.252474	0.086150	0.272750
O12	O	1.585807	0.419483	0.606083
O13	O	0.932312	-0.045685	0.060545
O14	O	1.265646	0.287648	0.393878
O15	O	1.598979	0.620981	0.727211
O16	O	0.811576	-0.145625	0.060530
O17	O	1.144910	0.187709	0.393863
O18	O	1.478243	0.521042	0.727197
O19	O	1.039856	-0.147238	0.060530
O20	O	1.373189	0.186095	0.393864
O21	O	1.706523	0.519428	0.727197
Zn22	Zn	0.925713	-0.146430	0.079757
Zn23	Zn	1.259046	0.186903	0.413091
Zn24	Zn	1.592380	0.520236	0.746424
Zn25	Zn	0.925740	-0.146439	-0.079796
Zn26	Zn	1.259073	0.186894	0.253537
Zn27	Zn	1.592406	0.520228	0.586870
O28	O	0.919120	-0.247177	0.060516
O29	O	1.252453	0.086156	0.393849
O30	O	1.585787	0.419489	0.727182
C31	C	0.782381	-0.143550	-0.000019
C32	C	1.115715	0.189783	0.333314
C33	C	1.449048	0.523117	0.666647
C34	C	0.695359	-0.137350	-0.000019
C35	C	1.028692	0.195983	0.333315
C36	C	1.362026	0.529317	0.666648
C37	C	0.206547	-0.095691	-0.000016
C38	C	0.539880	0.237642	0.333318
C39	C	0.873213	0.570975	0.666651
C40	C	0.288312	-0.101522	-0.000012
C41	C	0.621646	0.231811	0.333321
C42	C	0.954979	0.565144	0.666655
C43	C	0.319624	-0.167182	-0.000025
C44	C	0.652957	0.166151	0.333309
C45	C	0.986290	0.499485	0.666642
C46	C	0.269164	-0.227014	-0.000034
C47	C	0.602498	0.106319	0.333300
C48	C	0.935831	0.439652	0.666633
C49	C	0.187400	-0.221183	-0.000032
C50	C	0.520733	0.112151	0.333301
C51	C	0.854067	0.445484	0.666635
C52	C	0.563135	-0.191351	-0.000026
C53	C	0.896469	0.141983	0.333307
C54	C	1.229802	0.475316	0.666641
C55	C	0.644906	-0.197178	-0.000030
C56	C	0.978239	0.136156	0.333304
C57	C	1.311573	0.469489	0.666637
C58	C	0.664049	-0.071685	-0.000007
C59	C	0.997382	0.261648	0.333326
C60	C	1.330715	0.594981	0.666660
C61	C	0.582282	-0.065860	-0.000010
C62	C	0.915615	0.267474	0.333324
C63	C	1.248949	0.600807	0.666657
C64	C	0.531830	-0.125692	-0.000015
C65	C	0.865163	0.207641	0.333319
C66	C	1.198496	0.540975	0.666652
N67	N	0.403201	-0.173144	-0.000023
N68	N	0.736535	0.160190	0.333310
N69	N	1.069868	0.493523	0.666643
N70	N	0.448254	-0.119730	-0.000011
N71	N	0.781587	0.213604	0.333323
N72	N	1.114920	0.546937	0.666656
C73	C	0.931898	-0.019788	-0.000003
C74	C	1.265231	0.313546	0.333330
C75	C	1.598565	0.646879	0.666664
C76	C	0.930624	0.057390	0.000004
C77	C	1.263957	0.390724	0.333337
C78	C	1.597290	0.724057	0.666670
C79	C	1.069071	-0.149319	-0.000021
C80	C	1.402405	0.184014	0.333312
C81	C	1.735738	0.517347	0.666645
C82	C	1.156094	-0.155519	-0.000027
C83	C	1.489427	0.177814	0.333307
C84	C	1.822760	0.511147	0.666640
C85	C	0.919555	-0.273082	-0.000038
C86	C	1.252888	0.060252	0.333296
C87	C	1.586221	0.393585	0.666629
C88	C	0.920829	-0.350260	-0.000049
C89	C	1.254162	-0.016926	0.333284
C90	C	1.587496	0.316407	0.666618
N91	N	0.925700	-0.146425	0.188648
N92	N	1.259034	0.186909	0.521982
N93	N	1.592367	0.520242	0.855315
C94	C	1.001466	0.097958	0.000007
C95	C	1.334800	0.431292	0.333340
C96	C	1.668133	0.764625	0.666674
C97	C	1.000269	0.170475	-0.000004
C98	C	1.333602	0.503809	0.333329
C99	C	1.666936	0.837142	0.666662
C100	C	0.928226	0.202421	-0.000005
C101	C	1.261559	0.535754	0.333328
C102	C	1.594892	0.869088	0.666662
C103	C	0.857374	0.161844	-0.000013
C104	C	1.190707	0.495177	0.333321
C105	C	1.524040	0.828510	0.666654
C106	C	0.858573	0.089328	-0.000008
C107	C	1.191906	0.422662	0.333325
C108	C	1.525240	0.755995	0.666658
C109	C	0.871584	0.314011	0.042414
C110	C	1.204917	0.647344	0.375747
C111	C	1.538250	0.980678	0.709080
C112	C	0.870388	0.386525	0.042414
C113	C	1.203721	0.719858	0.375747
C114	C	1.537054	1.053192	0.709081
C115	C	0.924524	0.426082	-0.000021
C116	C	1.257857	0.759416	0.333312
C117	C	1.591191	1.092749	0.666645
C118	C	0.979870	0.393117	-0.042447
C119	C	1.313203	0.726451	0.290886
C120	C	1.646537	1.059784	0.624220
C121	C	0.981069	0.320602	-0.042443
C122	C	1.314402	0.653935	0.290890
C123	C	1.647736	0.987269	0.624224
C124	C	0.926917	0.281051	-0.000010
C125	C	1.260251	0.614385	0.333323
C126	C	1.593584	0.947718	0.666657
C127	C	0.994073	0.545282	-0.000031
C128	C	1.327407	0.878615	0.333302
C129	C	1.660740	1.211948	0.666636
C130	C	0.992873	0.617800	-0.000047
C131	C	1.326206	0.951133	0.333286
C132	C	1.659540	1.284466	0.666620
C133	C	0.849976	0.609166	-0.000048
C134	C	1.183309	0.942500	0.333285
C135	C	1.516642	1.275833	0.666619
C136	C	0.851178	0.536650	-0.000039
C137	C	1.184511	0.869983	0.333294
C138	C	1.517845	1.203317	0.666627
C139	C	0.923229	0.504712	-0.000027
C140	C	1.256562	0.838045	0.333306
C141	C	1.589895	1.171379	0.666639
N142	N	0.925759	-0.146440	-0.188687
N143	N	1.259092	0.186894	0.144646
N144	N	1.592425	0.520227	0.477979
C145	C	0.979180	-0.102196	0.226755
C146	C	1.312513	0.231138	0.560089
C147	C	1.645846	0.564471	0.893422
C148	C	0.979185	-0.102193	0.302983
C149	C	1.312518	0.231140	0.636316
C150	C	1.645851	0.564474	0.969650
C151	C	0.925718	-0.146431	0.341101
C152	C	1.259051	0.186902	0.674435
C153	C	1.592384	0.520235	1.007768
C154	C	0.872228	-0.190663	0.302985
C155	C	1.205562	0.142670	0.636319
C156	C	1.538895	0.476004	0.969652
C157	C	0.872220	-0.190660	0.226759
C158	C	1.205553	0.142674	0.560092
C159	C	1.538886	0.476007	0.893426
C160	C	0.915223	-0.209108	0.461853
C161	C	1.248557	0.124226	0.795186
C162	C	1.581890	0.457559	1.128519
C163	C	0.915237	-0.209112	0.538077
C164	C	1.248571	0.124221	0.871411
C165	C	1.581904	0.457554	1.204744
C166	C	0.925740	-0.146441	0.576209
C167	C	1.259073	0.186892	0.909542
C168	C	1.592407	0.520225	1.242875
C169	C	0.936245	-0.083764	0.538106
C170	C	1.269578	0.249569	0.871439
C171	C	1.602911	0.582903	1.204772
C172	C	0.936236	-0.083761	0.461879
C173	C	1.269569	0.249573	0.795213
C174	C	1.602903	0.582906	1.128546
C175	C	0.925721	-0.146440	0.423756
C176	C	1.259054	0.186894	0.757089
C177	C	1.592387	0.520227	1.090423
C178	C	0.979228	-0.102206	0.696970
C179	C	1.312561	0.231128	1.030304
C180	C	1.645894	0.564461	1.363637
C181	C	0.979227	-0.102202	0.773200
C182	C	1.312560	0.231132	1.106533
C183	C	1.645894	0.564465	1.439866
C184	C	0.872275	-0.190678	0.773200
C185	C	1.205608	0.142655	1.106534
C186	C	1.538941	0.475989	1.439867
C187	C	0.872271	-0.190676	0.696973
C188	C	1.205605	0.142657	1.030306
C189	C	1.538938	0.475991	1.363639
C190	C	0.925752	-0.146441	0.658862
C191	C	1.259085	0.186893	0.992196
C192	C	1.592419	0.520226	1.325529
H193	H	0.670396	-0.250648	-0.000030
H194	H	1.003729	0.082685	0.333304
H195	H	1.337063	0.416018	0.666637
H196	H	0.828738	-0.226695	0.804236
H197	H	1.162071	0.106638	1.137569
H198	H	1.495404	0.439972	1.470902
H199	H	0.146321	-0.269901	-0.000038
H200	H	0.479655	0.063432	0.333295
H201	H	0.812988	0.396766	0.666628
H202	H	1.052741	0.519277	-0.000025
H203	H	1.386075	0.852610	0.333309
H204	H	1.719408	1.185943	0.666642
H205	H	0.828669	-0.226677	0.195732
H206	H	1.162003	0.106657	0.529065
H207	H	1.495336	0.439990	0.862398
H208	H	1.026132	0.293765	-0.076989
H209	H	1.359466	0.627098	0.256344
H210	H	1.692799	0.960431	0.589678
H211	H	0.329389	-0.052804	0.000000
H212	H	0.662722	0.280529	0.333333
H213	H	0.996055	0.613863	0.666667
H214	H	0.522067	-0.240071	-0.000034
H215	H	0.855400	0.093263	0.333300
H216	H	1.188733	0.426596	0.666633
H217	H	0.181060	-0.042225	-0.000010
H218	H	0.514393	0.291109	0.333324
H219	H	0.847727	0.624442	0.666657
H220	H	0.791316	0.635176	-0.000052
H221	H	1.124650	0.968509	0.333281
H222	H	1.457983	1.301843	0.666615
H223	H	0.294664	-0.280476	-0.000039
H224	H	0.627998	0.052858	0.333294
H225	H	0.961331	0.386191	0.666627
H226	H	1.060136	0.071959	0.000014
H227	H	1.393469	0.405293	0.333348
H228	H	1.726802	0.738626	0.666681
H229	H	1.050564	0.650830	-0.000048
H230	H	1.383897	0.984163	0.333285
H231	H	1.717231	1.317496	0.666618
H232	H	0.556795	-0.012393	0.000001
H233	H	0.890128	0.320941	0.333334
H234	H	1.223461	0.654274	0.666667
H235	H	1.023953	0.425323	-0.077002
H236	H	1.357286	0.758657	0.256331
H237	H	1.690620	1.091990	0.589664
H238	H	0.793490	0.503619	-0.000038
H239	H	1.126824	0.836952	0.333295
H240	H	1.460157	1.170285	0.666629
H241	H	0.825318	0.413359	0.076955
H242	H	1.158651	0.746693	0.410289
H243	H	1.491985	1.080026	0.743622
H244	H	1.057959	0.203512	-0.000004
H245	H	1.391293	0.536846	0.333329
H246	H	1.724626	0.870179	0.666662
H247	H	1.022725	-0.066175	0.195728
H248	H	1.356058	0.267158	0.529061
H249	H	1.689391	0.600492	0.862395
H250	H	0.827497	0.281809	0.076973
H251	H	1.160831	0.615142	0.410307
H252	H	1.494164	0.948476	0.743640
H253	H	0.798715	0.187858	-0.000015
H254	H	1.132049	0.521192	0.333319
H255	H	1.465382	0.854525	0.666652
H256	H	0.828726	-0.226694	0.665944
H257	H	1.162060	0.106639	0.999277
H258	H	1.495393	0.439973	1.332611
H259	H	0.906689	-0.260148	0.569095
H260	H	1.240022	0.073185	0.902428
H261	H	1.573355	0.406519	1.235762
H262	H	0.800883	0.056297	-0.000011
H263	H	1.134216	0.389631	0.333322
H264	H	1.467549	0.722964	0.666656
H265	H	1.022773	-0.066184	0.665940
H266	H	1.356106	0.267149	0.999273
H267	H	1.689439	0.600482	1.332606
H268	H	1.022735	-0.066175	0.334015
H269	H	1.356068	0.267158	0.667349
H270	H	1.689402	0.600492	1.000682
H271	H	0.944787	-0.032727	0.430859
H272	H	1.278121	0.300607	0.764192
H273	H	1.611454	0.633940	1.097526
H274	H	0.944797	-0.032731	0.569150
H275	H	1.278130	0.300602	0.902484
H276	H	1.611463	0.633935	1.235817
H277	H	1.022774	-0.066181	0.804227
H278	H	1.356107	0.267152	1.137560
H279	H	1.689441	0.600485	1.470894
H280	H	0.906657	-0.260144	0.430812
H281	H	1.239991	0.073189	0.764146
H282	H	1.573324	0.406522	1.097479
H283	H	0.828693	-0.226682	0.334025
H284	H	1.162027	0.106652	0.667358
H285	H	1.495360	0.439985	1.000691
H286	H	0.705135	-0.022973	-0.000002
H287	H	1.038468	0.310360	0.333331
H288	H	1.371802	0.643693	0.666665
