data_functionalizedCrystal
_audit_creation_method	'MofGen! by Chris Wilmer'
_symmetry_space_group_name_H-M	'P1'
_symmetry_Int_Tables_number	1
_symmetry_cell_setting	triclinic
loop_
_symmetry_equiv_pos_as_xyz
  x,y,z
_cell_length_a	16.974800
_cell_length_b	16.992695
_cell_length_c	16.176319
_cell_angle_alpha	89.993125
_cell_angle_beta	93.649398
_cell_angle_gamma	87.021674
loop_
_atom_site_label
_atom_site_type_symbol
_atom_site_fract_x
_atom_site_fract_y
_atom_site_fract_z
O1	O	1.055459	0.099873	0.001893
O2	O	1.555459	0.599873	0.501893
O3	O	0.826058	0.112614	-0.013462
O4	O	1.326058	0.612614	0.486538
O5	O	0.939839	-0.007898	-0.005840
O6	O	1.439839	0.492102	0.494160
O7	O	0.941678	0.220385	-0.005730
O8	O	1.441678	0.720385	0.494270
O9	O	0.939822	-0.007906	0.131652
O10	O	1.439822	0.492094	0.631652
O11	O	0.826041	0.112606	0.124030
O12	O	1.326041	0.612606	0.624030
O13	O	1.055442	0.099866	0.139385
O14	O	1.555442	0.599866	0.639385
Cu15	Cu	0.940740	0.106235	0.144261
Cu16	Cu	1.440740	0.606235	0.644261
Cu17	Cu	0.940760	0.106244	-0.018339
Cu18	Cu	1.440760	0.606244	0.481661
O19	O	0.941661	0.220378	0.131762
O20	O	1.441661	0.720378	0.631762
C21	C	0.796561	0.112128	0.053310
C22	C	1.296561	0.612128	0.553310
C23	C	0.708693	0.110681	0.047428
C24	C	1.208693	0.610681	0.547428
C25	C	0.937464	-0.037112	0.062748
C26	C	1.437464	0.462888	0.562748
C27	C	0.930405	-0.124148	0.062275
C28	C	1.430405	0.375852	0.562275
C29	C	0.667408	0.109995	0.119614
C30	C	1.167408	0.609995	0.619614
C31	C	0.584847	0.108622	0.114090
C32	C	1.084847	0.608622	0.614090
C33	C	0.543573	0.107942	0.036380
C34	C	1.043573	0.607942	0.536380
C35	C	0.584864	0.108625	-0.035811
C36	C	1.084864	0.608625	0.464189
C37	C	0.667424	0.109992	-0.030286
C38	C	1.167424	0.609992	0.469714
C39	C	0.296658	0.103849	0.011820
C40	C	0.796658	0.603849	0.511820
C41	C	0.214093	0.102485	0.006301
C42	C	0.714093	0.602485	0.506301
C43	C	0.214081	0.102481	0.156203
C44	C	0.714081	0.602481	0.656203
C45	C	0.296642	0.103852	0.161721
C46	C	0.796642	0.603852	0.661721
C47	C	0.337926	0.104531	0.089530
C48	C	0.837926	0.604531	0.589530
N49	N	0.459183	0.106541	0.030732
N50	N	0.959183	0.606541	0.530732
N51	N	0.422315	0.105926	0.095179
N52	N	0.922315	0.605926	0.595179
C53	C	0.998520	-0.174466	0.066835
C54	C	1.498520	0.325534	0.566835
C55	C	0.991882	-0.256245	0.066383
C56	C	1.491882	0.243755	0.566383
C57	C	0.917128	-0.287704	0.061377
C58	C	1.417128	0.212296	0.561377
C59	C	0.849008	-0.237380	0.056814
C60	C	1.349008	0.262620	0.556814
C61	C	0.855647	-0.155603	0.057260
C62	C	1.355647	0.344397	0.557260
C63	C	0.889614	-0.531271	0.059524
C64	C	1.389614	-0.031271	0.559524
C65	C	0.882980	-0.613055	0.059080
C66	C	1.382980	-0.113055	0.559080
C67	C	1.025855	-0.631914	0.068648
C68	C	1.525855	-0.131914	0.568648
C69	C	1.032487	-0.550134	0.069099
C70	C	1.532487	-0.050134	0.569099
C71	C	0.964367	-0.499817	0.064532
C72	C	1.464367	0.000183	0.564532
N73	N	0.910342	-0.371295	0.060917
N74	N	1.410342	0.128705	0.560917
N75	N	0.971154	-0.416227	0.064985
N76	N	1.471154	0.083773	0.564985
C77	C	1.084940	0.100352	0.072611
C78	C	1.584940	0.600352	0.572611
C79	C	1.172807	0.101799	0.078487
C80	C	1.672807	0.601799	0.578487
C81	C	0.944036	0.249591	0.063173
C82	C	1.444036	0.749591	0.563173
C83	C	0.951095	0.336627	0.063640
C84	C	1.451095	0.836627	0.563640
N85	N	0.940731	0.106228	0.258626
N86	N	1.440731	0.606228	0.758626
N87	N	0.940775	0.106245	-0.132703
N88	N	1.440775	0.606245	0.367297
C89	C	0.991131	0.052887	0.305267
C90	C	1.491131	0.552887	0.805267
C91	C	0.991135	0.052887	0.391814
C92	C	1.491135	0.552887	0.891814
C93	C	0.940743	0.106231	0.431719
C94	C	1.440743	0.606231	0.931719
C95	C	0.890337	0.159575	0.385072
C96	C	1.390337	0.659575	0.885072
C97	C	0.890330	0.159571	0.298526
C98	C	1.390330	0.659571	0.798526
C99	C	0.890365	0.159589	0.734102
C100	C	1.390365	0.659589	1.234102
C101	C	0.890378	0.159590	0.820655
C102	C	1.390378	0.659590	1.320655
C103	C	0.991171	0.052905	0.827390
C104	C	1.491171	0.552905	1.327390
C105	C	0.991163	0.052901	0.740844
C106	C	1.491163	0.552901	1.240844
C107	C	0.940755	0.106242	0.694205
C108	C	1.440755	0.606242	1.194205
C109	C	0.940750	0.106241	0.600360
C110	C	1.440750	0.606241	1.100360
C111	C	0.940751	0.106236	0.525563
C112	C	1.440751	0.606236	1.025563
H113	H	0.701007	0.110555	0.182894
H114	H	1.201007	0.610555	0.682894
C115	C	0.539436	0.107874	0.193495
C116	C	1.039436	0.607874	0.693495
H117	H	0.575841	0.108486	0.240567
H118	H	1.075841	0.608486	0.740567
H119	H	0.510375	0.061642	0.194676
H120	H	1.010375	0.561642	0.694676
H121	H	0.504084	0.153046	0.194237
H122	H	1.004084	0.653046	0.694237
H123	H	0.701037	0.110552	-0.089068
H124	H	1.201037	0.610552	0.410932
H125	H	1.059393	-0.148858	0.070917
H126	H	1.559393	0.351142	0.570917
C127	C	0.780723	-0.100250	0.052243
C128	C	1.280723	0.399750	0.552243
H129	H	0.795382	-0.047041	0.053217
H130	H	1.295382	0.452959	0.553217
H131	H	0.750273	-0.109780	0.098150
H132	H	1.250273	0.390220	0.598150
H133	H	0.750294	-0.109773	0.002251
H134	H	1.250294	0.390227	0.502251
C135	C	1.046562	-0.005794	0.261378
C136	C	1.546562	0.494206	0.761378
H137	H	1.076573	-0.037566	0.301554
H138	H	1.576573	0.462434	0.801554
H139	H	1.081253	0.022388	0.229924
H140	H	1.581253	0.522388	0.729924
H141	H	1.016052	-0.038420	0.225590
H142	H	1.516052	0.461580	0.725590
C143	C	0.814684	-0.475933	0.054514
C144	C	1.314684	0.024067	0.554514
H145	H	0.769215	-0.506384	0.051480
H146	H	1.269215	-0.006384	0.551480
H147	H	0.814302	-0.443630	0.006544
H148	H	1.314302	0.056370	0.506544
H149	H	0.814301	-0.443649	0.102444
H150	H	1.314301	0.056351	0.602444
C151	C	1.114716	-0.515534	0.074595
C152	C	1.614716	-0.015534	0.574595
H153	H	1.154334	-0.557214	0.077238
H154	H	1.654334	-0.057214	0.577238
H155	H	1.120273	-0.484028	0.122913
H156	H	1.620273	0.015972	0.622913
H157	H	1.120276	-0.484021	0.027013
H158	H	1.620276	0.015979	0.527013
H159	H	1.032174	0.009452	0.429789
H160	H	1.532174	0.509452	0.929789
H161	H	1.032213	0.009470	0.865374
H162	H	1.532213	0.509470	1.365374
C163	C	1.100780	-0.687263	0.073660
C164	C	1.600780	-0.187263	0.573660
H165	H	1.086123	-0.740472	0.072670
H166	H	1.586123	-0.240472	0.572670
H167	H	1.131218	-0.677743	0.123642
H168	H	1.631218	-0.177743	0.623642
H169	H	1.131220	-0.677726	0.027742
H170	H	1.631220	-0.177726	0.527742
C171	C	1.066809	-0.311591	0.071408
C172	C	1.566809	0.188409	0.571408
H173	H	1.112280	-0.281142	0.074466
H174	H	1.612280	0.218858	0.574466
H175	H	1.067203	-0.343880	0.023488
H176	H	1.567203	0.156120	0.523488
H177	H	1.067177	-0.343888	0.119386
H178	H	1.567177	0.156112	0.619386
C179	C	0.342037	0.104620	0.247202
C180	C	0.842037	0.604620	0.747202
H181	H	0.305623	0.104015	0.289404
H182	H	0.805623	0.604015	0.789404
H183	H	0.371089	0.150858	0.252243
H184	H	0.871089	0.650858	0.752243
H185	H	0.377395	0.059454	0.252701
H186	H	0.877395	0.559454	0.752701
H187	H	1.032200	0.009466	0.708356
H188	H	1.532200	0.509466	1.208356
C189	C	0.766781	-0.271984	0.051309
C190	C	1.266781	0.228016	0.551309
H191	H	0.772581	-0.327894	0.051705
H192	H	1.272581	0.172106	0.551705
H193	H	0.738520	-0.254702	0.001471
H194	H	1.238520	0.245298	0.501471
H195	H	0.738514	-0.254710	0.097371
H196	H	1.238514	0.245290	0.597371
C197	C	0.168665	0.101761	0.235606
C198	C	0.668665	0.601761	0.735606
H199	H	0.113585	0.100854	0.221189
H200	H	0.613585	0.600854	0.721189
H201	H	0.179060	0.147692	0.267072
H202	H	0.679060	0.647692	0.767072
H203	H	0.185326	0.056288	0.267539
H204	H	0.685326	0.556288	0.767539
H205	H	0.849340	0.203031	0.853144
H206	H	1.349340	0.703031	1.353144
C207	C	0.834926	0.218268	0.682810
C208	C	1.334926	0.718268	1.182810
H209	H	0.804924	0.250043	0.718975
H210	H	1.304924	0.750043	1.218975
H211	H	0.800228	0.190084	0.646739
H212	H	1.300228	0.690084	1.146739
H213	H	0.865430	0.250892	0.651079
H214	H	1.365430	0.750892	1.151079
H215	H	0.822104	-0.638665	0.055016
H216	H	1.322104	-0.138665	0.555016
C217	C	0.834908	0.218254	0.428966
C218	C	1.334908	0.718254	0.928966
H219	H	0.842136	0.210623	0.487190
H220	H	1.342136	0.710623	0.987190
H221	H	0.781603	0.209770	0.411231
H222	H	1.281603	0.709770	0.911231
H223	H	0.846804	0.270578	0.415564
H224	H	1.346804	0.770578	0.915564
H225	H	0.551253	0.108066	-0.099085
H226	H	1.051253	0.608066	0.400915
C227	C	0.834894	0.218246	0.247218
C228	C	1.334894	0.718246	0.747218
H229	H	0.842101	0.210599	0.189959
H230	H	1.342101	0.710599	0.689959
H231	H	0.846782	0.270571	0.262184
H232	H	1.346782	0.770571	0.762184
H233	H	0.781589	0.209754	0.257849
H234	H	1.281589	0.709754	0.757849
C235	C	0.168691	0.101754	-0.079184
C236	C	0.668691	0.601754	0.420816
H237	H	0.205102	0.102355	-0.121388
H238	H	0.705102	0.602355	0.378612
H239	H	0.133349	0.146928	-0.084654
H240	H	0.633349	0.646928	0.415346
H241	H	0.139621	0.055524	-0.084250
H242	H	0.639621	0.555524	0.415750
H243	H	0.330262	0.104400	-0.046963
H244	H	0.830262	0.604400	0.453037
