data_functionalizedCrystal
_audit_creation_method	'MofGen! by Chris Wilmer'
_symmetry_space_group_name_H-M	'P1'
_symmetry_Int_Tables_number	1
_symmetry_cell_setting	triclinic
loop_
_symmetry_equiv_pos_as_xyz
  x,y,z
_cell_length_a	10.489741
_cell_length_b	9.130313
_cell_length_c	10.654550
_cell_angle_alpha	89.995631
_cell_angle_beta	84.512052
_cell_angle_gamma	89.999174
loop_
_atom_site_label
_atom_site_type_symbol
_atom_site_fract_x
_atom_site_fract_y
_atom_site_fract_z
O1	O	1.693966	-0.121708	0.177192
O2	O	1.322763	-0.121731	0.193824
O3	O	1.516899	-0.121710	0.002773
O4	O	1.499830	-0.121729	0.368243
O5	O	1.516886	0.121889	0.002767
O6	O	1.322749	0.121868	0.193819
O7	O	1.693953	0.121890	0.177186
Cu8	Cu	1.508350	0.144122	0.185502
Cu9	Cu	1.508366	-0.143962	0.185509
O10	O	1.499816	0.121869	0.368238
C11	C	1.275225	0.000065	0.192565
C12	C	1.133597	0.000057	0.188807
N13	N	1.508348	0.346744	0.185497
N14	N	1.508378	-0.346585	0.185504
C15	C	1.065516	0.000077	0.067246
C16	C	0.973368	-0.120030	0.124673
C17	C	0.973389	0.120140	0.124697
C18	C	1.043315	-0.120149	0.246284
C19	C	1.043345	0.120128	0.246290
C20	C	0.951224	-0.000008	0.303805
C21	C	1.741491	0.000091	0.178445
C22	C	1.883118	0.000090	0.182204
C23	C	1.515639	0.000089	-0.044029
C24	C	1.511889	0.000086	-0.183474
C25	C	1.594341	0.423405	0.100935
C26	C	1.594353	0.576742	0.100935
C27	C	1.422375	0.576743	0.270070
C28	C	1.422358	0.423409	0.270062
C29	C	1.626194	0.000093	-0.262906
C30	C	1.622663	0.000074	-0.393928
C31	C	1.390513	0.000050	-0.366074
C32	C	1.394045	0.000057	-0.235054
C33	C	1.501076	0.000068	0.415039
C34	C	1.504826	0.000060	0.554484
H35	H	1.115254	-0.000068	-0.032684
F36	F	0.886556	-0.000097	0.434557
H37	H	1.664375	0.639156	0.032076
H38	H	0.942384	-0.221568	0.073241
H39	H	1.664357	0.360988	0.032074
F40	F	1.330866	0.658345	0.360070
H41	H	1.352326	0.360987	0.338923
F42	F	1.083888	0.252852	0.313462
H43	H	1.715742	0.000077	-0.458597
H44	H	1.722150	0.000113	-0.220914
F45	F	1.265102	0.000018	-0.420981
F46	F	1.083578	-0.253022	0.313464
H47	H	0.942430	0.221681	0.073237
F48	F	1.272380	0.000040	-0.150510
