data_functionalizedCrystal
_audit_creation_method	'MofGen! by Chris Wilmer'
_symmetry_space_group_name_H-M	'P1'
_symmetry_Int_Tables_number	1
_symmetry_cell_setting	triclinic
loop_
_symmetry_equiv_pos_as_xyz
  x,y,z
_cell_length_a	10.723023
_cell_length_b	16.992695
_cell_length_c	15.455313
_cell_angle_alpha	87.152573
_cell_angle_beta	87.294358
_cell_angle_gamma	92.432115
loop_
_atom_site_label
_atom_site_type_symbol
_atom_site_fract_x
_atom_site_fract_y
_atom_site_fract_z
O1	O	1.671792	-0.106629	-0.072111
O2	O	1.309547	-0.117162	-0.072117
O3	O	1.489217	0.002255	-0.072107
O4	O	1.492122	-0.226046	-0.072121
O5	O	1.478939	-0.004546	0.072154
O6	O	1.299270	-0.123962	0.072144
O7	O	1.661515	-0.113430	0.072150
Cu8	Cu	1.479454	-0.119317	0.085319
Cu9	Cu	1.491608	-0.111275	-0.085287
O10	O	1.481845	-0.232846	0.072140
C11	C	1.257843	-0.119796	0.000013
C12	C	1.119091	-0.117503	0.000010
C13	C	1.480342	0.028087	0.000023
C14	C	1.469194	0.115191	0.000023
C15	C	1.713219	-0.110796	0.000018
C16	C	1.851971	-0.113089	0.000015
C17	C	2.062549	-0.112957	-0.074720
C18	C	1.919142	-0.110588	-0.074718
C19	C	1.490720	-0.258678	0.000008
C20	C	1.501868	-0.345782	0.000003
N21	N	1.470914	-0.124973	0.205315
C22	C	1.576754	0.164853	0.000026
C23	C	1.566273	0.246697	0.000017
C24	C	1.448230	0.278876	0.000012
C25	C	1.340662	0.229208	0.000007
C26	C	1.351145	0.147366	0.000009
C27	C	1.404783	0.522708	-0.000001
C28	C	1.394308	0.604556	-0.000000
C29	C	1.619920	0.622039	0.000009
C30	C	1.630392	0.540195	0.000016
C31	C	1.522824	0.490534	0.000006
N32	N	1.437514	0.362533	0.000006
N33	N	1.533543	0.406879	0.000006
N34	N	1.500156	-0.105612	-0.205282
C35	C	1.547275	-0.074260	0.250713
C36	C	1.540829	-0.078544	0.341520
C37	C	1.458028	-0.133547	0.386928
C38	C	1.381660	-0.184262	0.341523
C39	C	1.388100	-0.179973	0.250717
C40	C	1.430228	-0.152039	0.658508
C41	C	1.423796	-0.156326	0.749320
C42	C	1.582964	-0.050606	0.749311
C43	C	1.589403	-0.046325	0.658503
C44	C	1.513029	-0.097038	0.613107
N45	N	1.451441	-0.137929	0.479748
N46	N	1.519612	-0.092651	0.520288
H47	H	1.870496	-0.106690	-0.138697
O48	O	1.669470	0.007171	0.614165
C49	C	1.754428	-0.032503	0.561325
H50	H	1.761563	-0.095612	0.588676
H51	H	1.850285	-0.000641	0.559919
H52	H	1.720138	-0.033334	0.492655
O53	O	1.909833	-0.117840	0.076405
C54	C	1.867316	-0.187407	0.124262
H55	H	1.771748	-0.207407	0.101986
H56	H	1.859523	-0.175472	0.196208
H57	H	1.936294	-0.235595	0.113291
O58	O	2.050158	-0.119909	0.076321
C59	C	1.981751	-0.051064	0.080954
H60	H	2.029444	-0.002208	0.036363
H61	H	1.977668	-0.031547	0.150505
H62	H	1.882829	-0.063768	0.059740
O63	O	1.670735	0.294975	-0.000134
C64	C	1.676739	0.346364	-0.074843
H65	H	1.619603	0.319196	-0.127063
H66	H	1.778177	0.356198	-0.099919
H67	H	1.637295	0.405249	-0.057958
H68	H	1.645142	-0.009317	0.786281
H69	H	1.672877	0.138659	0.000035
O70	O	1.301047	-0.237608	0.385593
C71	C	1.177764	-0.223106	0.363409
H72	H	1.172670	-0.159112	0.338458
H73	H	1.111772	-0.234587	0.423135
H74	H	1.149159	-0.263890	0.310699
H75	H	1.325918	-0.221268	0.213755
H76	H	2.120309	-0.110825	-0.138700
O77	O	1.745158	0.509070	-0.000015
C78	C	1.837847	0.570453	0.000012
H79	H	1.799259	0.627514	-0.027310
H80	H	1.922760	0.554889	-0.041861
H81	H	1.866474	0.578590	0.069224
H82	H	1.707495	0.662481	0.000015
O83	O	1.279542	0.635688	-0.000053
C84	C	1.186845	0.574307	-0.000044
H85	H	1.229331	0.519815	-0.027350
H86	H	1.107918	0.593815	-0.041937
H87	H	1.148327	0.559657	0.069162
H88	H	1.317193	0.482283	-0.000008
H89	H	1.244549	0.255415	-0.000003
O90	O	1.246532	0.099233	0.000045
C91	C	1.140097	0.145184	0.000018
H92	H	1.163744	0.204799	0.027333
H93	H	1.061244	0.113448	0.041894
H94	H	1.109235	0.154460	-0.069194
O95	O	1.627739	-0.020761	0.206742
C96	C	1.693773	0.023068	0.266289
H97	H	1.637906	0.021190	0.331026
H98	H	1.708437	0.086851	0.240064
H99	H	1.788373	-0.003393	0.275929
H100	H	1.603007	-0.037249	0.378483
H101	H	1.356367	-0.201119	0.786287
H102	H	1.368044	-0.193333	0.621553
