data_functionalizedCrystal
_audit_creation_method	'MofGen! by Chris Wilmer'
_symmetry_space_group_name_H-M	'P1'
_symmetry_Int_Tables_number	1
_symmetry_cell_setting	triclinic
loop_
_symmetry_equiv_pos_as_xyz
  x,y,z
_cell_length_a	16.992694
_cell_length_b	15.995350
_cell_length_c	15.455313
_cell_angle_alpha	92.667328
_cell_angle_beta	87.142206
_cell_angle_gamma	87.080299
loop_
_atom_site_label
_atom_site_type_symbol
_atom_site_fract_x
_atom_site_fract_y
_atom_site_fract_z
O1	O	1.043823	0.174116	-0.072015
O2	O	0.815539	0.172167	-0.072041
O3	O	0.935921	0.051671	-0.072026
O4	O	0.923440	0.294611	-0.072029
O5	O	0.929037	0.058531	0.072235
O6	O	0.808655	0.179027	0.072221
O7	O	1.036939	0.180976	0.072246
Cu8	Cu	0.922168	0.180628	0.085406
Cu9	Cu	0.930309	0.172515	-0.085200
O10	O	0.916556	0.301471	0.072232
C11	C	0.782884	0.173091	0.000087
C12	C	0.695840	0.165614	0.000077
C13	C	0.645600	0.237750	0.000077
C14	C	0.563813	0.230720	0.000089
C15	C	0.532268	0.151555	0.000095
C16	C	0.582515	0.079414	0.000098
C17	C	0.664300	0.086445	0.000092
C18	C	0.288669	0.122418	0.000118
C19	C	0.206878	0.115393	0.000122
C20	C	0.188181	0.266700	0.000114
C21	C	0.269969	0.273723	0.000103
C22	C	0.320208	0.201582	0.000111
N23	N	0.448669	0.144368	0.000104
N24	N	0.403806	0.208770	0.000107
C25	C	0.931963	0.023872	0.000103
C26	C	0.930416	-0.069182	0.000098
C27	C	0.924861	-0.407301	0.000100
C28	C	0.839142	-0.365620	-0.000233
C29	C	0.840674	-0.268811	0.000092
C30	C	0.927617	-0.239556	0.000098
C31	C	0.965973	-0.273887	0.082482
C32	C	0.963816	-0.370663	0.082550
C33	C	0.973415	-0.378704	-0.081501
C34	C	0.973447	-0.281812	-0.082590
C35	C	0.929178	-0.144754	0.000100
C36	C	0.923301	-0.502103	0.000104
C37	C	1.069593	0.180052	0.000117
C38	C	1.156637	0.187528	0.000121
C39	C	0.920514	0.329271	0.000101
C40	C	0.922061	0.422324	0.000101
N41	N	0.916448	0.186334	0.205401
N42	N	0.936036	0.166802	-0.205195
C43	C	0.967608	0.135164	0.250801
C44	C	0.963289	0.139488	0.341608
C45	C	0.907813	0.194986	0.387014
C46	C	0.856647	0.246157	0.341607
C47	C	0.860963	0.241829	0.250801
C48	C	0.889185	0.213646	0.658593
C49	C	0.884875	0.217972	0.749405
C50	C	0.991517	0.111301	0.749400
C51	C	0.995831	0.106981	0.658592
C52	C	0.944662	0.158150	0.613194
N53	N	0.903399	0.199408	0.479833
N54	N	0.949073	0.153722	0.520376
H55	H	0.147268	0.325432	0.000110
C56	C	0.918181	-0.394223	0.165729
H57	H	0.901129	-0.344675	0.199157
H58	H	0.951638	-0.428283	0.198670
H59	H	0.873606	-0.424232	0.150670
H60	H	1.033175	0.069641	0.786372
C61	C	0.172180	0.028307	0.000130
H62	H	0.213813	-0.013651	0.000140
H63	H	0.143059	0.020027	-0.050177
H64	H	0.138268	0.024819	0.050444
C65	C	0.922347	-0.234274	0.165301
H66	H	0.945996	-0.255442	0.214810
H67	H	0.868539	-0.247808	0.166036
H68	H	0.925602	-0.175128	0.166154
C69	C	1.048602	-0.408301	0.087623
H70	H	1.084209	-0.364432	0.089639
H71	H	1.061789	-0.444458	0.037950
H72	H	1.052114	-0.439221	0.138427
C73	C	0.823807	0.278975	0.799350
H74	H	0.793934	0.308811	0.759307
H75	H	0.850285	0.317440	0.834787
H76	H	0.789507	0.248287	0.834759
C77	C	1.058840	-0.415937	-0.082253
H78	H	1.064920	-0.448755	-0.033107
H79	H	1.094178	-0.371819	-0.080443
H80	H	1.070115	-0.450228	-0.133666
C81	C	0.935681	-0.251631	-0.164929
H82	H	0.963666	-0.277412	-0.214729
H83	H	0.937863	-0.192489	-0.166442
H84	H	0.882213	-0.266382	-0.164419
H85	H	1.037086	-0.262444	-0.087560
C86	C	0.343922	0.043066	0.000120
H87	H	0.313420	-0.005087	0.000116
H88	H	0.373821	0.045053	0.050426
H89	H	0.378609	0.040268	-0.050194
H90	H	0.847523	0.255311	0.621636
H91	H	1.029701	-0.255341	0.085550
H92	H	1.041003	0.061791	0.621625
H93	H	0.802224	-0.384703	0.058509
H94	H	0.556824	0.014957	0.000115
H95	H	0.705206	0.027704	0.000091
C96	C	0.795626	0.307205	0.391551
H97	H	0.800388	0.302462	0.452134
H98	H	0.744005	0.293871	0.376680
H99	H	0.804853	0.362955	0.376657
H100	H	1.004948	0.097821	0.378573
C101	C	1.028631	0.074115	0.200863
H102	H	1.058476	0.044254	0.240910
H103	H	1.062953	0.104748	0.165429
H104	H	1.002105	0.035664	0.165450
C105	C	0.804690	0.298115	0.200857
H106	H	0.815200	0.287584	0.140274
H107	H	0.812493	0.355282	0.215728
H108	H	0.751653	0.286190	0.215748
C109	C	0.680292	0.324832	0.000069
H110	H	0.638654	0.366786	0.000079
H111	H	0.714201	0.328329	-0.050239
H112	H	0.709413	0.333112	0.050381
C113	C	0.508552	0.310069	0.000086
H114	H	0.539053	0.358223	0.000070
H115	H	0.473866	0.312870	0.050396
H116	H	0.478652	0.308076	-0.050225
H117	H	0.295647	0.338187	0.000088
H118	H	0.810251	-0.245421	-0.058964
H119	H	0.948364	-0.404089	-0.143943
H120	H	0.807694	-0.389254	-0.059312
C121	C	0.791666	-0.230387	0.080003
H122	H	0.770748	-0.273952	0.112398
H123	H	0.749632	-0.195161	0.061635
H124	H	0.824393	-0.198354	0.115291
