data_functionalizedCrystal
_audit_creation_method	'MofGen! by Chris Wilmer'
_symmetry_space_group_name_H-M	'P1'
_symmetry_Int_Tables_number	1
_symmetry_cell_setting	triclinic
loop_
_symmetry_equiv_pos_as_xyz
  x,y,z
_cell_length_a	12.759401
_cell_length_b	16.120484
_cell_length_c	12.759393
_cell_angle_alpha	87.135381
_cell_angle_beta	90.020459
_cell_angle_gamma	92.926992
loop_
_atom_site_label
_atom_site_type_symbol
_atom_site_fract_x
_atom_site_fract_y
_atom_site_fract_z
Zn1	Zn	1.584979	-0.331838	0.615183
Zn2	Zn	2.084979	0.168162	1.115183
Zn3	Zn	1.575929	-0.471272	0.448396
Zn4	Zn	2.075929	0.028728	0.948396
Zn5	Zn	1.409276	-0.331880	0.439521
Zn6	Zn	1.909276	0.168120	0.939521
Zn7	Zn	1.400331	-0.471215	0.624029
Zn8	Zn	1.900331	0.028785	1.124029
O9	O	1.492629	-0.401551	0.531782
O10	O	1.992629	0.098449	1.031782
O11	O	1.730799	-0.350340	0.593070
O12	O	2.230799	0.149660	1.093070
O13	O	1.553779	-0.452823	0.300200
O14	O	2.053779	0.047177	0.800200
O15	O	1.440115	-0.215209	0.455407
O16	O	1.940115	0.284791	0.955407
O17	O	1.724150	-0.452781	0.470532
O18	O	2.224150	0.047219	0.970532
O19	O	1.569203	-0.215178	0.584465
O20	O	2.069203	0.284822	1.084465
O21	O	1.431340	-0.350413	0.293680
O22	O	1.931340	0.149587	0.793680
O23	O	1.261069	-0.350358	0.463984
O24	O	1.761069	0.149642	0.963984
O25	O	1.424868	-0.452685	0.769874
O26	O	1.924868	0.047315	1.269874
O27	O	1.254497	-0.452726	0.599542
O28	O	1.754497	0.047274	1.099542
O29	O	1.560529	-0.350285	0.763375
O30	O	2.060529	0.149715	1.263375
O31	O	1.545104	-0.587930	0.479110
O32	O	2.045104	-0.087930	0.979110
O33	O	1.416093	-0.587888	0.608147
O34	O	1.916093	-0.087888	1.108147
C35	C	1.219662	-0.401541	0.531761
C36	C	1.719662	0.098459	1.031761
C37	C	1.102884	-0.401557	0.531778
C38	C	1.602884	0.098443	1.031778
C39	C	1.044623	-0.454941	0.602262
C40	C	1.544623	0.045059	1.102262
C41	C	0.934898	-0.454944	0.602283
C42	C	1.434898	0.045056	1.102283
C43	C	0.941708	-0.348176	0.461326
C44	C	1.441708	0.151824	0.961326
C45	C	1.051430	-0.348170	0.461311
C46	C	1.551430	0.151830	0.961311
C47	C	1.478674	-0.618159	0.545574
C48	C	1.978674	-0.118159	1.045574
C49	C	1.472801	-0.710824	0.551510
C50	C	1.972801	-0.210824	1.051510
C51	C	1.462083	-0.880486	0.562368
C52	C	1.962083	-0.380486	1.062368
C53	C	1.523363	-0.921776	0.501214
C54	C	2.023363	-0.421776	1.001214
C55	C	1.517400	-1.016181	0.507255
C56	C	2.017400	-0.516181	1.007255
C57	C	1.468045	-0.786072	0.556328
C58	C	1.968045	-0.286072	1.056328
C59	C	1.766661	-0.401562	0.531804
C60	C	2.266661	0.098438	1.031804
C61	C	1.883438	-0.401567	0.531814
C62	C	2.383438	0.098433	1.031814
C63	C	1.492710	-0.401473	0.805811
C64	C	1.992710	0.098527	1.305811
C65	C	1.492745	-0.401440	0.922585
C66	C	1.992745	0.098560	1.422585
C67	C	1.506666	-0.184098	0.517959
C68	C	2.006666	0.315902	1.017959
C69	C	1.512648	-0.091432	0.512069
C70	C	2.012648	0.408568	1.012069
C71	C	1.492612	-0.401568	0.258816
C72	C	1.992612	0.098432	0.758816
C73	C	1.492796	-0.401366	0.142027
C74	C	1.992796	0.098634	0.642027
C75	C	1.556530	-0.454703	1.090574
C76	C	2.056530	0.045297	1.590574
C77	C	1.556502	-0.454743	0.980852
C78	C	2.056502	0.045257	1.480852
C79	C	1.429003	-0.348101	0.974046
C80	C	1.929003	0.151899	1.474046
C81	C	1.429026	-0.348067	1.083766
C82	C	1.929026	0.151933	1.583766
H83	H	0.899800	-0.304712	0.403954
H84	H	1.399800	0.195288	0.903954
H85	H	1.098869	-0.304692	0.403914
H86	H	1.598869	0.195308	0.903914
H87	H	1.608454	-0.498105	1.138007
H88	H	2.108454	0.001895	1.638007
C89	C	1.591322	-0.788201	0.433194
C90	C	2.091322	-0.288201	0.933194
C91	C	1.600224	-0.873790	0.424395
C92	C	2.100224	-0.373790	0.924395
H93	H	1.638763	-0.758576	0.385764
H94	H	2.138763	-0.258576	0.885764
H95	H	1.607558	-0.773925	0.502891
H96	H	2.107558	-0.273925	1.002891
H97	H	1.521608	-0.774056	0.416877
H98	H	2.021608	-0.274056	0.916877
H99	H	1.669936	-0.887936	0.440720
H100	H	2.169936	-0.387936	0.940720
H101	H	1.583995	-0.888071	0.354683
H102	H	2.083995	-0.388071	0.854683
H103	H	1.608401	-0.498175	0.938964
H104	H	2.108401	0.001825	1.438964
H105	H	0.887466	-0.498414	0.659680
H106	H	1.387466	0.001586	1.159680
C107	C	1.394104	-1.014059	0.630342
C108	C	1.894104	-0.514059	1.130342
C109	C	1.385206	-0.928472	0.639159
C110	C	1.885206	-0.428472	1.139159
H111	H	1.346637	-1.043689	0.677743
H112	H	1.846637	-0.543689	1.177743
H113	H	1.463800	-1.028212	0.646680
H114	H	1.963800	-0.528212	1.146680
H115	H	1.377892	-1.028321	0.560625
H116	H	1.877892	-0.528321	1.060625
H117	H	1.401426	-0.914208	0.708874
H118	H	1.901426	-0.414208	1.208874
H119	H	1.315494	-0.914313	0.622828
H120	H	1.815494	-0.414313	1.122828
H121	H	1.377086	-0.304705	0.926596
H122	H	1.877086	0.195295	1.426596
C123	C	1.253750	-0.307433	1.114925
C124	C	1.753750	0.192567	1.614925
C125	C	1.358961	-0.289432	1.140325
C126	C	1.858961	0.210568	1.640325
H127	H	1.210496	-0.271234	1.149838
H128	H	1.710496	0.228766	1.649838
H129	H	1.234771	-0.363435	1.136471
H130	H	1.734771	0.136565	1.636471
H131	H	1.244627	-0.299822	1.041240
H132	H	1.744627	0.200178	1.541240
H133	H	1.368085	-0.297049	1.214010
H134	H	1.868085	0.202951	1.714010
H135	H	1.377945	-0.233416	1.118785
H136	H	1.877945	0.266584	1.618785
C137	C	1.026867	-0.560467	0.741603
C138	C	1.526867	-0.060467	1.241603
C139	C	1.101183	-0.513614	0.679728
C140	C	1.601183	-0.013614	1.179728
H141	H	1.061786	-0.596684	0.789435
H142	H	1.561786	-0.096684	1.289435
H143	H	0.982003	-0.592317	0.697797
H144	H	1.482003	-0.092317	1.197797
H145	H	0.986425	-0.524172	0.779554
H146	H	1.486425	-0.024172	1.279554
H147	H	1.141620	-0.549908	0.641772
H148	H	1.641620	-0.049908	1.141772
H149	H	1.146066	-0.481761	0.723540
H150	H	1.646066	0.018239	1.223540
