data_functionalizedCrystal
_audit_creation_method	'MofGen! by Chris Wilmer'
_symmetry_space_group_name_H-M	'P1'
_symmetry_Int_Tables_number	1
_symmetry_cell_setting	triclinic
loop_
_symmetry_equiv_pos_as_xyz
  x,y,z
_cell_length_a	25.639243
_cell_length_b	25.639239
_cell_length_c	12.759393
_cell_angle_alpha	89.957028
_cell_angle_beta	90.024249
_cell_angle_gamma	89.957395
loop_
_atom_site_label
_atom_site_type_symbol
_atom_site_fract_x
_atom_site_fract_y
_atom_site_fract_z
Zn1	Zn	0.799264	0.208082	0.594059
Zn2	Zn	1.299264	0.708082	1.094059
Zn3	Zn	0.799173	0.295529	0.418344
Zn4	Zn	1.299173	0.795529	0.918344
Zn5	Zn	0.711827	0.208113	0.418381
Zn6	Zn	1.211827	0.708113	0.918381
Zn7	Zn	0.711783	0.295492	0.593968
Zn8	Zn	1.211783	0.795492	1.093968
O9	O	0.755512	0.251804	0.506188
O10	O	1.255512	0.751804	1.006188
O11	O	0.872417	0.219684	0.570773
O12	O	1.372417	0.719684	1.070773
O13	O	0.787566	0.283961	0.271328
O14	O	1.287566	0.783961	0.771328
O15	O	0.723482	0.134944	0.441739
O16	O	1.223482	0.634944	0.941739
O17	O	0.872350	0.283931	0.441676
O18	O	1.372350	0.783931	0.941676
O19	O	0.787721	0.134921	0.570809
O20	O	1.287721	0.634921	1.070809
O21	O	0.723394	0.219737	0.271355
O22	O	1.223394	0.719737	0.771355
O23	O	0.638656	0.219702	0.441650
O24	O	1.138656	0.719702	0.941650
O25	O	0.723407	0.283869	0.741001
O26	O	1.223407	0.783869	1.241001
O27	O	0.638624	0.283899	0.570653
O28	O	1.138624	0.783899	1.070653
O29	O	0.787679	0.219649	0.741068
O30	O	1.287679	0.719649	1.241068
O31	O	0.787524	0.368689	0.441588
O32	O	1.287524	0.868689	0.941588
O33	O	0.723319	0.368662	0.570618
O34	O	1.223319	0.868662	1.070618
C35	C	0.619669	0.251801	0.506147
C36	C	1.119669	0.751801	1.006147
C37	C	0.561555	0.251812	0.506154
C38	C	1.061555	0.751812	1.006154
C39	C	0.201221	0.218403	0.573521
C40	C	0.701221	0.718403	1.073521
C41	C	0.146617	0.218403	0.573528
C42	C	0.646617	0.718403	1.073528
O43	O	0.118405	0.189988	0.630754
O44	O	0.618405	0.689988	1.130754
N45	N	0.119273	0.251803	0.506217
N46	N	0.619273	0.751803	1.006217
C47	C	0.146535	0.285201	0.438888
C48	C	0.646535	0.785201	0.938888
O49	O	0.118263	0.313610	0.381635
O50	O	0.618263	0.813610	0.881635
C51	C	0.201139	0.285198	0.438877
C52	C	0.701139	0.785198	0.938877
C53	C	0.228480	0.251800	0.506200
C54	C	0.728480	0.751800	1.006200
C55	C	0.228563	0.185008	0.640837
C56	C	0.728563	0.685008	1.140837
C57	C	0.283163	0.185009	0.640832
C58	C	0.783163	0.685009	1.140832
C59	C	0.310422	0.218406	0.573510
C60	C	0.810422	0.718406	1.073510
C61	C	0.283081	0.251802	0.506194
C62	C	0.783081	0.751802	1.006194
C63	C	0.228400	0.318594	0.371544
C64	C	0.728400	0.818594	0.871544
C65	C	0.283008	0.318588	0.371538
C66	C	0.783008	0.818588	0.871538
C67	C	0.310349	0.285190	0.438860
C68	C	0.810349	0.785190	0.938860
C69	C	0.364940	0.285200	0.438867
C70	C	0.864940	0.785200	0.938867
N71	N	0.392285	0.251800	0.506178
N72	N	0.892285	0.751800	1.006178
C73	C	0.365026	0.218403	0.573499
C74	C	0.865026	0.718403	1.073499
C75	C	0.031865	0.285203	0.438915
C76	C	0.531865	0.785203	0.938915
C77	C	-0.022738	0.285209	0.438931
C78	C	0.477262	0.785209	0.938931
C79	C	-0.022652	0.218410	0.573569
C80	C	0.477348	0.718410	1.073569
C81	C	0.031951	0.218407	0.573558
C82	C	0.531951	0.718407	1.073558
C83	C	0.059209	0.251804	0.506226
C84	C	0.559209	0.751804	1.006226
C85	C	0.479691	0.218409	0.573484
C86	C	0.979691	0.718409	1.073484
C87	C	0.534296	0.218415	0.573475
C88	C	1.034296	0.718415	1.073475
C89	C	0.534206	0.285211	0.438833
C90	C	1.034206	0.785211	0.938833
C91	C	0.479605	0.285208	0.438845
C92	C	0.979605	0.785208	0.938845
C93	C	0.452349	0.251802	0.506174
C94	C	0.952349	0.751802	1.006174
O95	O	0.393187	0.313599	0.381667
O96	O	0.893187	0.813599	0.881667
O97	O	0.393305	0.189995	0.630733
O98	O	0.893305	0.689995	1.130733
C99	C	0.755421	0.387647	0.506112
C100	C	1.255421	0.887647	1.006112
C101	C	0.755430	0.445761	0.506114
C102	C	1.255430	0.945761	1.006114
C103	C	0.788909	0.806073	0.573541
C104	C	1.288909	1.306073	1.073541
C105	C	0.788917	0.860678	0.573565
C106	C	1.288917	1.360678	1.073565
O107	O	0.817329	0.888871	0.630796
O108	O	1.317329	1.388871	1.130796
N109	N	0.755505	0.888043	0.506318
N110	N	1.255505	1.388043	1.006318
C111	C	0.722078	0.860802	0.439051
C112	C	1.222078	1.360802	0.939051
O113	O	0.693659	0.889092	0.381855
O114	O	1.193659	1.389092	0.881855
C115	C	0.722067	0.806198	0.439033
C116	C	1.222067	1.306198	0.939033
C117	C	0.755486	0.778836	0.506277
C118	C	1.255486	1.278836	1.006277
C119	C	0.822324	0.778711	0.640780
C120	C	1.322324	1.278711	1.140780
C121	C	0.822316	0.724110	0.640754
C122	C	1.322316	1.224110	1.140754
C123	C	0.788892	0.696872	0.573490
C124	C	1.288892	1.196872	1.073490
C125	C	0.755477	0.724235	0.506251
C126	C	1.255477	1.224235	1.006251
C127	C	0.688638	0.778958	0.371772
C128	C	1.188638	1.278958	0.871772
C129	C	0.688630	0.724351	0.371761
C130	C	1.188630	1.224351	0.871761
C131	C	0.722048	0.696988	0.439004
C132	C	1.222048	1.196988	0.939004
C133	C	0.722046	0.642397	0.438961
C134	C	1.222046	1.142397	0.938961
N135	N	0.755459	0.615031	0.506208
N136	N	1.255459	1.115031	1.006208
C137	C	0.788882	0.642269	0.573472
C138	C	1.288882	1.142269	1.073472
C139	C	0.722103	0.975472	0.439094
C140	C	1.222103	1.475472	0.939094
C141	C	0.722116	1.030074	0.439106
C142	C	1.222116	1.530074	0.939106
C143	C	0.788955	1.029947	0.573621
C144	C	1.288955	1.529947	1.073621
C145	C	0.788944	0.975343	0.573604
C146	C	1.288944	1.475343	1.073604
C147	C	0.755515	0.948107	0.506341
C148	C	1.255515	1.448107	1.006341
C149	C	0.788862	0.527604	0.573413
C150	C	1.288862	1.027604	1.073413
C151	C	0.788853	0.472998	0.573379
C152	C	1.288853	0.972998	1.073379
C153	C	0.722013	0.473131	0.438868
C154	C	1.222013	0.973131	0.938868
C155	C	0.722024	0.527732	0.438898
C156	C	1.222024	1.027732	0.938898
C157	C	0.755451	0.554967	0.506179
C158	C	1.255451	1.054967	1.006179
O159	O	0.693648	0.614168	0.381762
O160	O	1.193648	1.114168	0.881762
O161	O	0.817291	0.613972	0.630668
O162	O	1.317291	1.113972	1.130668
C163	C	0.891885	0.251808	0.506231
C164	C	1.391885	0.751808	1.006231
C165	C	0.949999	0.251810	0.506249
C166	C	1.449999	0.751810	1.006249
C167	C	0.755548	0.251751	0.780222
C168	C	1.255548	0.751751	1.280222
C169	C	0.755564	0.251729	0.896999
C170	C	1.255564	0.751729	1.396999
C171	C	0.755586	1.115431	0.506299
C172	C	1.255586	1.615431	1.006299
C173	C	0.755538	1.057317	0.506375
C174	C	1.255538	1.557317	1.006375
C175	C	0.755505	0.251819	0.233221
C176	C	1.255505	0.751819	0.733221
C177	C	0.755591	0.251694	0.116445
C178	C	1.255591	0.751694	0.616445
C179	C	0.789035	0.218286	0.951897
C180	C	1.289035	0.718286	1.451897
C181	C	0.789047	0.218267	1.061621
C182	C	1.289047	0.718267	1.561621
C183	C	0.722116	0.285138	1.061539
C184	C	1.222116	0.785138	1.561539
C185	C	0.722102	0.285154	0.951816
C186	C	1.222102	0.785154	1.451816
C187	C	0.822497	0.184861	0.897079
C188	C	1.322497	0.684861	1.397079
C189	C	0.855971	0.151416	0.951978
C190	C	1.355971	0.651416	1.451978
C191	C	0.855983	0.151397	1.061702
C192	C	1.355983	0.651397	1.561702
C193	C	0.822522	0.184823	1.116528
C194	C	1.322522	0.684823	1.616528
H195	H	-0.044856	0.191215	0.628383
H196	H	0.455144	0.691215	1.128383
H197	H	0.816068	0.450721	0.628136
H198	H	1.316068	0.950721	1.128136
H199	H	0.822491	0.184874	0.807736
H200	H	1.322491	0.684874	1.307736
H201	H	0.849526	0.701834	0.695513
H202	H	1.349526	1.201834	1.195513
H203	H	0.694816	0.550011	0.384134
H204	H	1.194816	1.050011	0.884134
Cl205	Cl	0.679997	0.438879	0.354312
Cl206	Cl	1.179997	0.938879	0.854312
Cl207	Cl	0.864346	0.812942	0.725355
Cl208	Cl	1.364346	1.312942	1.225355
H209	H	-0.044994	0.312411	0.384122
H210	H	0.455006	0.812411	0.884122
H211	H	0.054055	0.312403	0.384088
H212	H	0.554055	0.812403	0.884088
H213	H	0.883210	0.124199	0.907332
H214	H	1.383210	0.624199	1.407332
H215	H	0.661426	0.801227	0.317015
H216	H	1.161426	1.301227	0.817015
H217	H	0.054209	0.191211	0.628376
H218	H	0.554209	0.691211	1.128376
Cl219	Cl	0.568665	0.176426	0.658118
Cl220	Cl	1.068665	0.676426	1.158118
H221	H	0.694874	0.312352	1.106186
H222	H	1.194874	0.812352	1.606186
Cl223	Cl	0.898065	0.109355	1.130715
Cl224	Cl	1.398065	0.609355	1.630715
H225	H	0.694839	0.312378	0.907117
H226	H	1.194839	0.812378	1.407117
Cl227	Cl	0.830955	0.940950	0.658143
Cl228	Cl	1.330955	1.440950	1.158143
Cl229	Cl	0.822531	0.184791	1.254468
Cl230	Cl	1.322531	0.684791	1.754468
H231	H	0.816078	0.549772	0.628207
H232	H	1.316078	1.049772	1.128207
Cl233	Cl	0.646603	0.690113	0.287195
Cl234	Cl	1.146603	1.190113	0.787195
H235	H	0.457505	0.191205	0.628306
H236	H	0.957505	0.691205	1.128306
Cl237	Cl	0.194304	0.143017	0.725483
Cl238	Cl	0.694304	0.643017	1.225483
Cl239	Cl	0.194042	0.360572	0.286883
Cl240	Cl	0.694042	0.860572	0.786883
Cl241	Cl	0.317527	0.143018	0.725466
Cl242	Cl	0.817527	0.643018	1.225466
Cl243	Cl	0.317271	0.360576	0.286889
Cl244	Cl	0.817271	0.860576	0.786889
H245	H	0.556410	0.312403	0.384024
H246	H	1.056410	0.812403	0.884024
Cl247	Cl	0.445232	0.327210	0.354241
Cl248	Cl	0.945232	0.827210	0.854241
H249	H	0.816169	1.052134	0.628394
H250	H	1.316169	1.552134	1.128394
Cl251	Cl	0.680110	1.064467	0.354553
Cl252	Cl	1.180110	1.564467	0.854553
Cl253	Cl	0.680078	0.941237	0.354519
Cl254	Cl	1.180078	1.441237	0.854519
