data_functionalizedCrystal
_audit_creation_method	'MofGen! by Chris Wilmer'
_symmetry_space_group_name_H-M	'P1'
_symmetry_Int_Tables_number	1
_symmetry_cell_setting	triclinic
loop_
_symmetry_equiv_pos_as_xyz
  x,y,z
_cell_length_a	23.532407
_cell_length_b	23.532407
_cell_length_c	9.482944
_cell_angle_alpha	100.504215
_cell_angle_beta	100.502924
_cell_angle_gamma	82.848712
loop_
_atom_site_label
_atom_site_type_symbol
_atom_site_fract_x
_atom_site_fract_y
_atom_site_fract_z
O1	O	0.763151	0.077021	0.120820
O2	O	0.597290	0.087026	0.120845
O3	O	0.685220	-0.000910	0.120805
O4	O	0.675221	0.164957	0.120860
O5	O	0.669419	-0.016694	-0.120990
O6	O	0.581488	0.071241	-0.120950
O7	O	0.747350	0.061237	-0.120975
Cu8	Cu	0.662976	0.064798	-0.143040
Cu9	Cu	0.681663	0.083465	0.142911
O10	O	0.659419	0.149172	-0.120935
C11	C	0.568173	0.078879	-0.000049
C12	C	0.504957	0.078114	-0.000041
C13	C	0.238785	0.022915	-0.000099
C14	C	0.298186	0.023626	-0.000098
O15	O	0.334926	-0.020164	-0.000163
N16	N	0.320814	0.075904	-0.000071
C17	C	0.284037	0.127473	-0.000059
O18	O	0.308738	0.172005	-0.000037
C19	C	0.224637	0.126760	-0.000070
C20	C	0.202014	0.074480	-0.000083
C21	C	0.216161	-0.029362	-0.000113
C22	C	0.156765	-0.030073	-0.000111
C23	C	0.119993	0.021492	-0.000095
C24	C	0.142618	0.073769	-0.000080
C25	C	0.187861	0.178328	-0.000069
C26	C	0.128457	0.177611	-0.000081
C27	C	0.105834	0.125330	-0.000093
C28	C	0.046450	0.124623	-0.000062
N29	N	0.023822	0.072345	-0.000089
C30	C	0.060594	0.020780	-0.000106
C31	C	0.408781	0.128966	-0.000039
C32	C	0.468180	0.129680	-0.000017
C33	C	0.482325	0.025832	-0.000059
C34	C	0.422925	0.025120	-0.000070
C35	C	0.386153	0.076688	-0.000066
C36	C	-0.064143	0.019290	-0.000100
C37	C	-0.123544	0.018584	-0.000092
C38	C	-0.137684	0.122431	-0.000058
C39	C	-0.078287	0.123138	-0.000058
C40	C	-0.041518	0.071563	-0.000084
O41	O	0.009674	0.168390	-0.000003
O42	O	0.035883	-0.023746	-0.000146
C43	C	0.677065	-0.030019	-0.000096
C44	C	0.676298	-0.093236	-0.000107
C45	C	0.723536	-0.492335	-0.000034
C46	C	0.722825	-0.551734	-0.000023
O47	O	0.766614	-0.588476	0.000024
N48	N	0.670550	-0.574360	-0.000016
C49	C	0.618982	-0.537582	-0.000006
O50	O	0.574452	-0.562281	0.000002
C51	C	0.619694	-0.478183	-0.000006
C52	C	0.671972	-0.455561	-0.000028
C53	C	0.775810	-0.469713	-0.000054
C54	C	0.776521	-0.410317	-0.000068
C55	C	0.724957	-0.373544	-0.000062
C56	C	0.672683	-0.396166	-0.000042
C57	C	0.568128	-0.441405	0.000014
C58	C	0.568844	-0.382002	0.000015
C59	C	0.621123	-0.359381	-0.000007
C60	C	0.621829	-0.299998	-0.000050
N61	N	0.674105	-0.277372	-0.000057
C62	C	0.725669	-0.314145	-0.000063
C63	C	0.617491	-0.662324	-0.000002
C64	C	0.616778	-0.721722	-0.000011
C65	C	0.720621	-0.735871	-0.000026
C66	C	0.721334	-0.676472	-0.000027
C67	C	0.669767	-0.639698	-0.000009
C68	C	0.727157	-0.189410	-0.000093
C69	C	0.727862	-0.130010	-0.000113
C70	C	0.624019	-0.115866	-0.000091
C71	C	0.623313	-0.175262	-0.000078
C72	C	0.674887	-0.212033	-0.000075
O73	O	0.578064	-0.263221	-0.000091
O74	O	0.770193	-0.289436	-0.000052
C75	C	0.776467	0.069384	-0.000077
C76	C	0.839684	0.070150	-0.000076
C77	C	0.667575	0.178281	-0.000030
C78	C	0.668342	0.241500	-0.000010
N79	N	0.649837	0.051668	-0.344162
C80	C	0.666860	0.068666	-0.583772
C81	C	0.677788	0.079596	-0.416353
N82	N	0.694807	0.096590	0.344033
H83	H	-0.034211	-0.022707	-0.000121
O84	O	0.772148	-0.654509	0.000224
C85	C	0.869319	-0.640289	0.125440
C86	C	0.811797	-0.665172	0.125348
H87	H	0.901395	-0.648912	0.226576
H88	H	0.861017	-0.591509	0.125540
H89	H	0.888143	-0.662062	0.024199
H90	H	0.792943	-0.643444	0.226571
H91	H	0.820134	-0.713955	0.125172
H92	H	0.206270	0.220901	-0.000052
H93	H	0.634847	0.036666	-0.645909
O94	O	0.518043	-0.024260	0.000170
C95	C	0.556477	-0.104643	0.125344
C96	C	0.516015	-0.047921	0.125282
H97	H	0.554841	-0.123796	0.226470
H98	H	0.602833	-0.095177	0.125441
H99	H	0.541678	-0.136971	0.024093
H100	H	0.530761	-0.015566	0.226515
H101	H	0.469667	-0.057432	0.125109
H102	H	0.486596	0.172253	0.000013
H103	H	0.582037	-0.085915	-0.000091
O104	O	0.572579	-0.197297	0.000123
C105	C	0.519688	-0.247923	0.125478
C106	C	0.577178	-0.223012	0.125395
H107	H	0.523382	-0.268709	0.226764
H108	H	0.510142	-0.282028	0.024369
H109	H	0.482960	-0.211432	0.125402
H110	H	0.613943	-0.259464	0.125522
H111	H	0.586674	-0.188893	0.226495
O112	O	0.715941	0.117844	-0.342406
C113	C	0.740719	0.216619	-0.295439
C114	C	0.697474	0.173363	-0.379299
H115	H	0.725797	0.261518	-0.325213
H116	H	0.785617	0.201765	-0.325297
H117	H	0.742738	0.218602	-0.173627
H118	H	0.695403	0.171359	-0.501130
H119	H	0.652598	0.188234	-0.349320
O120	O	0.732958	0.134836	-0.582014
C121	C	0.757736	0.233611	-0.535047
C122	C	0.714491	0.190355	-0.618908
H123	H	0.742814	0.278510	-0.564821
H124	H	0.802634	0.218757	-0.564905
H125	H	0.759755	0.235594	-0.413236
H126	H	0.712420	0.188351	-0.740738
H127	H	0.669615	0.205226	-0.588929
H128	H	-0.141960	-0.023990	-0.000098
H129	H	0.574206	-0.740137	-0.000019
H130	H	0.138351	-0.072645	-0.000127
H131	H	0.246095	-0.071355	-0.000131
H132	H	0.378844	0.170962	-0.000025
H133	H	0.617820	0.019667	-0.406291
H134	H	0.762608	-0.765822	-0.000025
O135	O	0.567426	-0.626565	0.000253
C136	C	0.516148	-0.543091	0.125471
C137	C	0.572873	-0.583546	0.125378
H138	H	0.520536	-0.508293	0.226609
H139	H	0.478650	-0.569436	0.125567
H140	H	0.507274	-0.521570	0.024232
H141	H	0.581801	-0.605077	0.226600
H142	H	0.610338	-0.557172	0.125206
H143	H	0.098519	0.219604	-0.000084
O144	O	0.400870	-0.025643	-0.000285
C145	C	0.333872	-0.094920	-0.125634
C146	C	0.358785	-0.037414	-0.125551
H147	H	0.299851	-0.104461	-0.226916
H148	H	0.312982	-0.091261	-0.024520
H149	H	0.370378	-0.131634	-0.125568
H150	H	0.322313	-0.000670	-0.125668
H151	H	0.379691	-0.041122	-0.226656
O152	O	-0.056359	0.173969	0.000157
C153	C	-0.042052	0.271110	0.125483
C154	C	-0.066919	0.213582	0.125424
H155	H	-0.050570	0.303148	0.226766
H156	H	-0.063845	0.290012	0.024370
H157	H	0.006712	0.262739	0.125397
H158	H	-0.115680	0.221904	0.125562
H159	H	-0.045082	0.194698	0.226528
O160	O	0.778702	-0.108127	-0.000064
C161	C	0.881620	-0.128445	-0.000161
C162	C	0.824089	-0.153299	-0.000187
H163	H	0.918328	-0.164957	-0.000292
H164	H	0.891203	-0.094396	0.101047
H165	H	0.877909	-0.107583	-0.101334
H166	H	0.827756	-0.174191	0.100918
H167	H	0.814525	-0.187320	-0.101462
O168	O	0.517344	-0.463414	-0.000206
C169	C	0.448087	-0.530463	-0.125365
C170	C	0.505604	-0.505579	-0.125321
H171	H	0.438584	-0.564566	-0.226494
H172	H	0.411332	-0.493997	-0.125441
H173	H	0.451786	-0.551275	-0.024117
H174	H	0.501962	-0.484773	-0.226552
H175	H	0.542337	-0.542067	-0.125169
O176	O	0.777204	-0.225195	-0.000290
C177	C	0.828503	-0.308626	-0.125613
C178	C	0.771788	-0.268153	-0.125542
H179	H	0.824148	-0.343361	-0.226883
H180	H	0.837390	-0.330221	-0.024488
H181	H	0.865977	-0.282229	-0.125561
H182	H	0.734279	-0.294508	-0.125645
H183	H	0.762951	-0.246557	-0.226658
O184	O	0.827359	-0.388437	-0.000013
C185	C	0.930276	-0.408767	-0.000106
C186	C	0.872741	-0.433614	-0.000140
H187	H	0.966980	-0.445282	-0.000240
H188	H	0.939862	-0.374720	0.101107
H189	H	0.926570	-0.387903	-0.101274
H190	H	0.876404	-0.454508	0.100960
H191	H	0.863175	-0.467633	-0.101420
O192	O	0.825854	-0.505500	-0.000256
C193	C	0.877152	-0.588928	-0.125592
C194	C	0.820438	-0.548455	-0.125515
H195	H	0.872797	-0.623660	-0.226868
H196	H	0.886040	-0.610526	-0.024473
H197	H	0.914626	-0.562530	-0.125533
H198	H	0.782929	-0.574811	-0.125625
H199	H	0.811601	-0.526855	-0.226625
H200	H	0.526852	-0.352063	0.000032
H201	H	-0.167634	0.164414	-0.000037
