data_functionalizedCrystal
_audit_creation_method	'MofGen! by Chris Wilmer'
_symmetry_space_group_name_H-M	'P1'
_symmetry_Int_Tables_number	1
_symmetry_cell_setting	triclinic
loop_
_symmetry_equiv_pos_as_xyz
  x,y,z
_cell_length_a	14.971482
_cell_length_b	15.944493
_cell_length_c	14.048226
_cell_angle_alpha	89.999441
_cell_angle_beta	89.994098
_cell_angle_gamma	83.543826
loop_
_atom_site_label
_atom_site_type_symbol
_atom_site_fract_x
_atom_site_fract_y
_atom_site_fract_z
O1	O	1.186807	0.109451	-0.079136
O2	O	0.926389	0.122563	-0.079139
O3	O	1.063736	-0.006264	-0.079145
O4	O	1.049459	0.238279	-0.079129
O5	O	1.063720	-0.006272	0.079176
O6	O	0.926373	0.122556	0.079183
O7	O	1.186790	0.109444	0.079186
Zn8	Zn	1.056579	0.115999	0.104321
Zn9	Zn	1.056600	0.116009	-0.104274
O10	O	1.049443	0.238271	0.079192
C11	C	0.893057	0.121974	0.000021
C12	C	0.793762	0.120218	0.000020
C13	C	0.747109	0.119387	0.086321
C14	C	0.653813	0.117724	0.086322
C15	C	0.607170	0.116898	0.000020
C16	C	0.653830	0.117727	-0.086288
C17	C	0.747125	0.119384	-0.086288
C18	C	0.459372	0.114275	-0.086282
C19	C	0.366070	0.112620	-0.086283
C20	C	0.366060	0.112616	0.086328
C21	C	0.459356	0.114273	0.086328
C22	C	0.506008	0.115103	0.000019
C23	C	1.063145	-0.037563	0.000012
C24	C	1.061395	-0.130813	-0.000000
C25	C	1.142241	-0.366497	0.000019
C26	C	1.098652	-0.417103	-0.078042
C27	C	1.058154	-0.301538	0.000011
C28	C	1.098616	-0.417086	0.078050
C29	C	1.055029	-0.466450	0.000027
C30	C	1.014587	-0.350915	-0.078114
C31	C	1.014564	-0.350895	0.078049
C32	C	0.970913	-0.401467	-0.000031
C33	C	1.059956	-0.206536	0.000001
C34	C	1.053219	-0.561449	0.000029
C35	C	1.220122	0.110033	0.000024
C36	C	1.319417	0.111789	0.000019
C37	C	1.050035	0.269570	0.000033
C38	C	1.051784	0.362821	0.000039
N39	N	1.056570	0.115991	0.246682
N40	N	1.056616	0.116009	-0.246635
C41	C	1.117407	0.058970	0.296497
C42	C	1.117413	0.058970	0.396155
C43	C	1.056586	0.115995	0.445995
C44	C	0.995743	0.173019	0.396173
C45	C	0.995734	0.173015	0.296517
C46	C	0.995769	0.173025	0.603887
C47	C	0.995779	0.173031	0.703550
C48	C	1.117448	0.058980	0.703525
C49	C	1.117439	0.058976	0.603869
C50	C	1.056597	0.116001	0.554054
H51	H	0.328071	0.111940	0.156604
H52	H	1.214671	-0.350801	-0.000059
H53	H	0.979103	-0.322125	-0.144179
H54	H	0.946247	0.219466	0.744125
O55	O	0.792386	0.120345	-0.170146
C56	C	0.759432	0.192625	-0.222655
H57	H	0.726687	0.242975	-0.172155
H58	H	0.707579	0.175232	-0.276471
C59	C	0.877933	0.165220	-0.337558
C60	C	0.837721	0.227063	-0.275532
H61	H	0.926224	0.186462	-0.370179
H62	H	0.900134	0.116522	-0.302184
H63	H	0.834714	0.150731	-0.382396
H64	H	0.880938	0.241544	-0.230688
H65	H	0.815530	0.275765	-0.310900
H66	H	1.166950	0.012538	0.436714
O67	O	1.176461	0.003612	0.752058
C68	C	1.163441	0.015851	0.850704
H69	H	1.092325	0.047133	0.864329
H70	H	1.214056	0.058063	0.878973
C71	C	1.264258	-0.108478	0.885132
C72	C	1.176909	-0.070063	0.901867
H73	H	1.272569	-0.161473	0.916694
H74	H	1.273033	-0.116723	0.818672
H75	H	1.306427	-0.073293	0.908690
H76	H	1.134742	-0.105243	0.878298
H77	H	1.168127	-0.061827	0.968324
O78	O	0.936758	0.228536	0.555537
C79	C	0.951271	0.311711	0.579897
H80	H	1.022882	0.312230	0.607279
H81	H	0.901695	0.336312	0.637751
C82	C	0.849403	0.367997	0.457738
C83	C	0.937360	0.368636	0.491361
H84	H	0.840819	0.403113	0.403126
H85	H	0.839623	0.311961	0.441327
H86	H	0.808100	0.388496	0.505957
H87	H	0.978660	0.348128	0.443146
H88	H	0.947147	0.424670	0.507761
O89	O	0.504776	0.115199	-0.170060
C90	C	0.548575	0.188862	-0.175223
H91	H	0.559158	0.213338	-0.100287
H92	H	0.505518	0.239129	-0.217808
C93	C	0.627287	0.138299	-0.316600
C94	C	0.640292	0.168357	-0.224562
H95	H	0.683861	0.125654	-0.347039
H96	H	0.597777	0.088672	-0.313125
H97	H	0.591403	0.180194	-0.352076
H98	H	0.676165	0.126459	-0.189085
H99	H	0.669810	0.217977	-0.228033
H100	H	1.166943	0.012537	0.255923
H101	H	0.946212	0.219447	0.436759
H102	H	1.134138	-0.445987	0.144040
H103	H	0.898426	-0.417001	-0.000075
H104	H	0.946193	0.219446	0.255959
O105	O	0.320902	0.111786	-0.170200
C106	C	0.382079	0.112893	-0.246379
H107	H	0.452291	0.087492	-0.221087
H108	H	0.382610	0.180407	-0.272909
C109	C	0.267110	0.088411	-0.358983
C110	C	0.353344	0.057206	-0.327921
H111	H	0.249384	0.054064	-0.409285
H112	H	0.225892	0.087669	-0.307661
H113	H	0.267564	0.144672	-0.381086
H114	H	0.352887	0.000950	-0.305808
H115	H	0.394561	0.057938	-0.379242
O116	O	0.972357	-0.316436	0.156878
C117	C	1.016918	-0.350332	0.239023
H118	H	1.089253	-0.374868	0.220321
H119	H	0.980881	-0.404426	0.267504
C120	C	0.927717	-0.251003	0.338513
C121	C	1.016563	-0.281133	0.315544
H122	H	0.927495	-0.208321	0.385717
H123	H	0.897693	-0.228169	0.283171
H124	H	0.897696	-0.296089	0.362242
H125	H	1.046579	-0.236050	0.291805
H126	H	1.046592	-0.303959	0.370884
H127	H	0.615846	0.117048	-0.156557
O128	O	1.141166	-0.451577	-0.156701
C129	C	1.231417	-0.434110	-0.156439
H130	H	1.252759	-0.421016	-0.080475
H131	H	1.238312	-0.376448	-0.202705
C132	C	1.265646	-0.526693	-0.289567
C133	C	1.291861	-0.510617	-0.196266
H134	H	1.302931	-0.573884	-0.314138
H135	H	1.204842	-0.538458	-0.289747
H136	H	1.271393	-0.478635	-0.328110
H137	H	1.286103	-0.558670	-0.157722
H138	H	1.352666	-0.498861	-0.196081
O139	O	1.176560	0.003502	0.555600
C140	C	1.230277	-0.046816	0.620935
H141	H	1.193618	-0.047823	0.691984
H142	H	1.296714	-0.019437	0.631514
C143	C	1.293751	-0.136167	0.494774
C144	C	1.248724	-0.137410	0.582035
H145	H	1.305135	-0.192049	0.470778
H146	H	1.257564	-0.102265	0.450755
H147	H	1.349111	-0.113348	0.503601
H148	H	1.193361	-0.160219	0.573204
H149	H	1.284902	-0.171318	0.626051
H150	H	0.615835	0.117034	0.156598
O151	O	0.792396	0.120038	0.170181
C152	C	0.779722	0.046947	0.222687
H153	H	0.761172	-0.004312	0.172184
H154	H	0.723268	0.062416	0.276500
C155	C	0.889977	0.078411	0.337598
C156	C	0.867202	0.015451	0.275568
H157	H	0.943937	0.058983	0.370221
H158	H	0.898514	0.127656	0.302226
H159	H	0.842925	0.091296	0.382434
H160	H	0.914248	0.002574	0.230726
H161	H	0.858675	-0.033797	0.310933
O162	O	0.504533	0.115038	0.170245
C163	C	0.443350	0.113971	0.246424
H164	H	0.380556	0.086217	0.221129
H165	H	0.424027	0.181131	0.272964
C166	C	0.564569	0.093660	0.359026
C167	C	0.487447	0.059566	0.327959
H168	H	0.591771	0.060104	0.409323
H169	H	0.605790	0.094382	0.307704
H170	H	0.548456	0.149626	0.381136
H171	H	0.503563	0.003605	0.305840
H172	H	0.446230	0.058833	0.379280
