data_functionalizedCrystal
_audit_creation_method	'MofGen! by Chris Wilmer'
_symmetry_space_group_name_H-M	'P1'
_symmetry_Int_Tables_number	1
_symmetry_cell_setting	triclinic
loop_
_symmetry_equiv_pos_as_xyz
  x,y,z
_cell_length_a	12.759395
_cell_length_b	25.639239
_cell_length_c	12.759387
_cell_angle_alpha	89.962425
_cell_angle_beta	89.981185
_cell_angle_gamma	90.040223
loop_
_atom_site_label
_atom_site_type_symbol
_atom_site_fract_x
_atom_site_fract_y
_atom_site_fract_z
Zn1	Zn	1.606076	-0.208096	-0.593964
Zn2	Zn	1.605898	-0.295543	-0.418267
Zn3	Zn	1.430379	-0.208126	-0.418301
Zn4	Zn	1.430293	-0.295504	-0.593906
O5	O	1.518162	-0.251817	-0.506110
O6	O	1.753074	-0.219700	-0.570668
O7	O	1.582577	-0.283976	-0.271250
O8	O	1.453796	-0.134957	-0.441641
O9	O	1.752943	-0.283947	-0.441584
O10	O	1.582880	-0.134935	-0.570700
O11	O	1.453624	-0.219751	-0.271275
O12	O	1.283347	-0.219713	-0.441585
O13	O	1.453649	-0.283881	-0.740935
O14	O	1.283283	-0.283910	-0.570602
O15	O	1.582796	-0.219662	-0.740978
O16	O	1.582493	-0.368703	-0.441528
O17	O	1.453477	-0.368675	-0.570569
C18	C	1.245194	-0.251811	-0.506092
C19	C	1.128418	-0.251821	-0.506109
C20	C	1.517985	-0.387660	-0.506062
C21	C	1.518006	-0.445774	-0.506076
C22	C	1.128390	-0.318777	-0.640236
C23	C	1.073515	-0.352259	-0.707303
C24	C	0.963794	-0.352265	-0.707316
C25	C	0.908944	-0.318785	-0.640257
C26	C	0.963819	-0.285303	-0.573190
C27	C	1.073543	-0.285301	-0.573182
C28	C	0.963846	-0.218345	-0.439070
C29	C	1.073568	-0.218340	-0.439050
C30	C	0.908997	-0.184865	-0.372011
C31	C	0.963871	-0.151384	-0.304937
C32	C	1.073600	-0.151380	-0.304926
C33	C	1.128443	-0.184858	-0.371983
C34	C	1.585516	-0.806139	-0.439032
C35	C	1.585557	-0.860744	-0.439046
O36	O	1.642773	-0.888982	-0.381991
N37	N	1.518346	-0.888056	-0.506179
C38	C	1.451099	-0.860762	-0.573310
O39	O	1.393935	-0.889008	-0.630414
C40	C	1.451064	-0.806159	-0.573300
C41	C	1.518271	-0.778849	-0.506156
C42	C	1.652718	-0.778829	-0.371894
C43	C	1.652676	-0.724229	-0.371879
C44	C	1.585431	-0.696938	-0.439002
C45	C	1.518229	-0.724248	-0.506140
C46	C	1.383822	-0.778865	-0.640436
C47	C	1.383794	-0.724258	-0.640421
C48	C	1.451001	-0.696948	-0.573276
C49	C	1.450941	-0.642357	-0.573249
N50	N	1.518152	-0.615044	-0.506116
C51	C	1.585397	-0.642335	-0.438992
C52	C	1.451178	-0.975433	-0.573326
C53	C	1.451206	-1.030035	-0.573331
C54	C	1.585666	-1.030013	-0.439069
C55	C	1.585631	-0.975410	-0.439059
C56	C	1.518388	-0.948120	-0.506193
C57	C	1.585302	-0.527670	-0.438965
C58	C	1.585250	-0.473065	-0.438953
C59	C	1.450795	-0.473092	-0.573219
C60	C	1.450842	-0.527692	-0.573228
C61	C	1.518104	-0.554980	-0.506097
O62	O	1.393757	-0.614084	-0.630278
O63	O	1.642560	-0.614083	-0.381908
C64	C	1.792195	-0.251824	-0.506128
C65	C	1.908972	-0.251827	-0.506136
C66	C	1.518233	-0.251763	-0.780143
C67	C	1.518263	-0.251740	-0.896920
C68	C	1.518368	-0.115444	-0.506181
C69	C	1.518456	-0.057330	-0.506211
C70	C	1.383993	-0.184858	-0.896965
C71	C	1.316878	-0.151407	-0.951848
C72	C	1.316909	-0.151388	-1.061570
C73	C	1.384061	-0.184825	-1.116411
C74	C	1.451177	-0.218277	-1.061527
C75	C	1.451141	-0.218291	-0.951803
C76	C	1.585440	-0.285161	-1.061483
C77	C	1.585416	-0.285178	-0.951761
C78	C	1.652593	-0.318598	-1.116324
C79	C	1.719715	-0.352047	-1.061441
C80	C	1.719682	-0.352065	-0.951712
C81	C	1.652531	-0.318629	-0.896878
C82	C	1.518151	-0.251833	-0.233142
C83	C	1.518324	-0.251709	-0.116366
H84	H	1.217731	-0.318779	-0.640225
H85	H	1.640358	-0.953177	-0.384385
H86	H	1.262256	-0.124150	-1.106255
H87	H	1.652501	-0.318638	-0.807537
H88	H	1.118186	-0.379517	-0.761903
H89	H	0.919204	-0.124125	-0.250348
C90	C	1.309819	-0.694243	-0.714276
N91	N	1.254100	-0.671637	-0.769902
C92	C	1.384079	-0.184809	-1.237107
N93	N	1.384093	-0.184797	-1.328018
H94	H	1.774381	-0.379271	-1.106101
H95	H	1.396411	-0.953216	-0.627992
C96	C	1.659645	-1.060043	-0.365239
N97	N	1.715365	-1.082663	-0.309636
H98	H	1.774339	-0.379303	-0.907033
C99	C	1.377263	-1.060070	-0.647186
N100	N	1.321571	-1.082690	-0.702820
C101	C	0.903430	-0.389097	-0.781091
N102	N	0.857964	-0.416840	-0.836658
H103	H	0.819603	-0.318789	-0.640283
H104	H	1.217784	-0.184859	-0.371978
C105	C	1.309891	-0.808894	-0.714305
N106	N	1.254203	-0.831511	-0.769949
H107	H	1.383969	-0.184866	-0.807623
C108	C	1.133953	-0.114546	-0.231146
N109	N	1.179407	-0.086802	-0.175572
H110	H	0.819656	-0.184870	-0.372030
H111	H	1.639978	-0.450830	-0.384272
C112	C	1.659287	-0.557679	-0.365112
N113	N	1.715007	-0.580281	-0.309480
C114	C	1.726601	-0.694195	-0.298005
N115	N	1.782283	-0.671577	-0.242356
C116	C	1.376908	-0.557734	-0.647086
N117	N	1.321227	-0.580358	-0.702726
H118	H	1.707483	-0.801044	-0.317234
C119	C	1.376833	-0.443062	-0.647055
N120	N	1.321132	-0.420441	-0.702675
H121	H	1.262201	-0.124184	-0.907184
C122	C	1.652619	-0.318579	-1.237021
N123	N	1.652642	-0.318565	-1.327931
