data_functionalizedCrystal
_audit_creation_method	'MofGen! by Chris Wilmer'
_symmetry_space_group_name_H-M	'P1'
_symmetry_Int_Tables_number	1
_symmetry_cell_setting	triclinic
loop_
_symmetry_equiv_pos_as_xyz
  x,y,z
_cell_length_a	16.625548
_cell_length_b	10.686285
_cell_length_c	10.686551
_cell_angle_alpha	99.084519
_cell_angle_beta	85.603024
_cell_angle_gamma	94.367355
loop_
_atom_site_label
_atom_site_type_symbol
_atom_site_fract_x
_atom_site_fract_y
_atom_site_fract_z
Zn1	Zn	1.288144	0.450125	-0.679055
Zn2	Zn	1.621478	0.783459	-0.345722
Zn3	Zn	1.954811	1.116792	-0.012389
Zn4	Zn	1.288079	0.678705	-0.450553
Zn5	Zn	1.621413	1.012039	-0.117220
Zn6	Zn	1.954746	1.345372	0.216114
Zn7	Zn	1.143696	0.466483	-0.466812
Zn8	Zn	1.477029	0.799817	-0.133479
Zn9	Zn	1.810363	1.133150	0.199855
Zn10	Zn	1.162915	0.662326	-0.662752
Zn11	Zn	1.496249	0.995660	-0.329419
Zn12	Zn	1.829582	1.328993	0.003915
O13	O	1.220709	0.564410	-0.564793
O14	O	1.554042	0.897743	-0.231460
O15	O	1.887375	1.231077	0.101874
O16	O	1.400970	0.480456	-0.648763
O17	O	1.734303	0.813789	-0.315430
O18	O	2.067636	1.147122	0.017904
O19	O	1.260856	0.664254	-0.275079
O20	O	1.594189	0.997587	0.058254
O21	O	1.927523	1.330921	0.391587
O22	O	1.154841	0.286691	-0.508594
O23	O	1.488175	0.620024	-0.175261
O24	O	1.821508	0.953358	0.158073
O25	O	1.400922	0.648392	-0.480883
O26	O	1.734255	0.981726	-0.147550
O27	O	2.067588	1.315059	0.185783
O28	O	1.260967	0.274673	-0.664528
O29	O	1.594300	0.608006	-0.331195
O30	O	1.927634	0.941340	0.002138
O31	O	1.154778	0.508336	-0.287024
O32	O	1.488112	0.841669	0.046309
O33	O	1.821445	1.175002	0.379642
O34	O	1.033412	0.492454	-0.492785
O35	O	1.366745	0.825787	-0.159452
O36	O	1.700079	1.159120	0.173882
O37	O	1.187598	0.620477	-0.842545
O38	O	1.520931	0.953810	-0.509212
O39	O	1.854264	1.287143	-0.175879
O40	O	1.047532	0.636338	-0.636741
O41	O	1.380865	0.969672	-0.303408
O42	O	1.714199	1.303005	0.029925
O43	O	1.279603	0.464574	-0.854523
O44	O	1.612936	0.797907	-0.521190
O45	O	1.946270	1.131240	-0.187857
O46	O	1.279492	0.854155	-0.465074
O47	O	1.612825	1.187488	-0.131741
O48	O	1.946159	1.520822	0.201592
O49	O	1.187535	0.842121	-0.620976
O50	O	1.520868	1.175455	-0.287643
O51	O	1.854201	1.508788	0.045691
C52	C	1.235615	0.894191	-0.539519
C53	C	1.568948	1.227525	-0.206186
C54	C	1.902282	1.560858	0.127147
C55	C	1.242067	1.035270	-0.528750
C56	C	1.575401	1.368603	-0.195416
C57	C	1.908734	1.701937	0.137917
C58	C	1.011216	0.564395	-0.564759
C59	C	1.344549	0.897728	-0.231426
C60	C	1.677882	1.231061	0.101908
C61	C	0.921596	0.564416	-0.564772
C62	C	1.254929	0.897750	-0.231439
C63	C	1.588263	1.231083	0.101894
C64	C	1.235752	0.538873	-0.895880
C65	C	1.569085	0.872207	-0.562546
C66	C	1.902418	1.205540	-0.229213
C67	C	1.242162	0.527991	-1.036969
C68	C	1.575495	0.861325	-0.703636
C69	C	1.908829	1.194658	-0.370303
C70	C	0.593423	0.564420	-0.564826
C71	C	0.926757	0.897754	-0.231492
C72	C	1.260090	1.231087	0.101841
C73	C	0.684731	0.564416	-0.564807
C74	C	1.018064	0.897749	-0.231474
C75	C	1.351397	1.231083	0.101860
C76	C	0.757507	0.564419	-0.564798
C77	C	1.090840	0.897752	-0.231465
C78	C	1.424173	1.231086	0.101869
C79	C	0.848820	0.564413	-0.564781
C80	C	1.182153	0.897747	-0.231448
C81	C	1.515487	1.231080	0.101885
C82	C	1.431020	0.564426	-0.564828
C83	C	1.764354	0.897760	-0.231495
C84	C	2.097687	1.231093	0.101839
C85	C	1.520642	0.564433	-0.564843
C86	C	1.853976	0.897767	-0.231510
C87	C	2.187309	1.231100	0.101824
C88	C	1.205768	0.233339	-0.590193
C89	C	1.539101	0.566672	-0.256860
C90	C	1.872434	0.900005	0.076473
C91	C	1.199401	0.092256	-0.601017
C92	C	1.532734	0.425589	-0.267684
C93	C	1.866067	0.758923	0.065649
C94	C	1.205767	0.589756	-0.235001
C95	C	1.539100	0.923089	0.098332
C96	C	1.872433	1.256422	0.431665
C97	C	1.199496	0.600280	-0.093940
C98	C	1.532830	0.933614	0.239393
C99	C	1.866163	1.266947	0.572726
H100	H	1.157936	1.033116	-0.671130
H101	H	1.491270	1.366449	-0.337797
H102	H	1.824603	1.699782	-0.004464
H103	H	1.158067	0.670499	-1.034778
H104	H	1.491400	1.003832	-0.701444
H105	H	1.824734	1.337166	-0.368111
F106	F	1.296260	1.112577	-0.437087
F107	F	1.629593	1.445910	-0.103754
F108	F	1.962927	1.779243	0.229579
F109	F	1.296326	0.436216	-1.114301
F110	F	1.629659	0.769549	-0.780968
F111	F	1.962993	1.102882	-0.447635
