data_functionalizedCrystal
_audit_creation_method	'MofGen! by Chris Wilmer'
_symmetry_space_group_name_H-M	'P1'
_symmetry_Int_Tables_number	1
_symmetry_cell_setting	triclinic
loop_
_symmetry_equiv_pos_as_xyz
  x,y,z
_cell_length_a	19.188930
_cell_length_b	18.266242
_cell_length_c	19.188930
_cell_angle_alpha	90.011475
_cell_angle_beta	83.144779
_cell_angle_gamma	90.022918
loop_
_atom_site_label
_atom_site_type_symbol
_atom_site_fract_x
_atom_site_fract_y
_atom_site_fract_z
O1	O	0.926149	0.061124	0.087169
O2	O	0.722838	0.061075	0.098903
O3	O	0.830361	0.061087	-0.008620
O4	O	0.818627	0.061113	0.194691
O5	O	0.830343	-0.060675	-0.008625
O6	O	0.722820	-0.060687	0.098897
O7	O	0.926131	-0.060638	0.087163
Zn8	Zn	0.824473	-0.079994	0.093029
Zn9	Zn	0.824497	0.080432	0.093037
O10	O	0.818608	-0.060649	0.194686
C11	C	0.696818	0.000188	0.098520
C12	C	0.619313	0.000169	0.097380
N13	N	0.824461	-0.189481	0.093024
C14	C	0.574389	0.000188	0.160470
C15	C	0.501566	0.000196	0.159399
C16	C	0.473669	0.000199	0.095233
C17	C	0.518603	0.000175	0.032133
C18	C	0.591425	0.000160	0.033207
N19	N	0.365695	0.041663	0.046188
N20	N	0.296516	0.041679	0.045172
C21	C	0.254260	0.000243	0.091994
N22	N	0.283795	-0.041200	0.139881
N23	N	0.352980	-0.041213	0.140899
C24	C	0.394707	0.000215	0.094062
C25	C	0.130372	0.000270	0.153928
C26	C	0.057547	0.000274	0.152853
C27	C	0.074586	0.000261	0.025586
C28	C	0.147409	0.000250	0.026662
C29	C	0.175298	0.000258	0.090835
C30	C	0.872088	-0.227785	0.045436
C31	C	0.872092	-0.304430	0.045433
C32	C	0.824477	-0.342768	0.093030
C33	C	0.776841	-0.304455	0.140621
C34	C	0.776834	-0.227812	0.140618
N35	N	0.815401	-0.463094	0.154837
N36	N	0.815413	-0.535902	0.154838
C37	C	0.824496	-0.573691	0.093040
N38	N	0.833582	-0.535920	0.031239
N39	N	0.833574	-0.463106	0.031240
C40	C	0.824480	-0.425875	0.093038
C41	C	0.872131	-0.695101	0.045444
C42	C	0.872130	-0.771748	0.045440
C43	C	0.776882	-0.771772	0.140634
C44	C	0.776879	-0.695127	0.140632
C45	C	0.824507	-0.656796	0.093038
C46	C	0.952151	0.000252	0.087546
C47	C	1.029656	0.000276	0.088687
C48	C	0.829972	0.000204	-0.034634
C49	C	0.828831	0.000197	-0.112138
N50	N	0.824513	0.189919	0.093037
C51	C	0.891922	0.000209	-0.157062
C52	C	0.890850	0.000220	-0.229886
C53	C	0.826684	0.000206	-0.257782
C54	C	0.763585	0.000198	-0.212849
C55	C	0.764658	0.000194	-0.140026
N56	N	0.777631	-0.041244	-0.365789
N57	N	0.776615	-0.041242	-0.434968
C58	C	0.823446	0.000220	-0.477191
N59	N	0.871341	0.041669	-0.447624
N60	N	0.872359	0.041664	-0.378439
C61	C	0.825513	0.000210	-0.336745
C62	C	0.885379	0.000245	-0.601079
C63	C	0.884305	0.000261	-0.673904
C64	C	0.757038	0.000231	-0.656865
C65	C	0.758114	0.000222	-0.584042
C66	C	0.822287	0.000226	-0.556154
C67	C	0.818997	0.000236	0.220700
C68	C	0.820138	0.000247	0.298204
H69	H	0.597091	0.000196	0.212725
H70	H	0.713281	0.000184	-0.103448
O71	O	0.923477	-0.653741	-0.005897
H72	H	0.977883	-0.668414	0.002848
O73	O	0.009090	0.000287	0.220906
H74	H	-0.024475	0.049916	0.223460
H75	H	0.738049	-0.196624	0.179371
O76	O	0.453098	0.000214	0.227449
H77	H	0.419537	0.049846	0.229997
H78	H	0.628003	0.000145	-0.018171
O79	O	0.044512	0.000259	-0.043626
H80	H	0.011773	0.049895	-0.047164
O81	O	0.958903	0.000226	-0.278350
H82	H	0.961436	-0.049401	-0.311944
O83	O	0.690062	0.000201	-0.535586
H84	H	0.701588	0.000207	-0.480262
H85	H	0.183988	0.000238	-0.024713
O86	O	0.961136	0.000218	-0.126986
H87	H	0.951286	0.000208	-0.068800
O88	O	0.954592	0.000263	-0.570997
H89	H	0.958125	-0.049370	-0.538245
H90	H	0.910911	-0.802935	0.006685
H91	H	0.704792	0.000222	-0.679578
O92	O	0.694375	0.000173	-0.242930
H93	H	0.704227	0.000168	-0.301116
O94	O	0.725519	-0.653806	0.191967
H95	H	0.692412	-0.693338	0.225069
O96	O	0.488521	0.000179	-0.037077
H97	H	0.430335	0.000200	-0.027225
H98	H	0.153080	0.000267	0.206181
H99	H	0.910868	-0.196579	0.006681
H100	H	0.910877	-0.335623	0.006680
O101	O	0.725489	-0.345796	0.191968
H102	H	0.691652	-0.380750	0.162670
O103	O	0.725524	-0.813109	0.191975
H104	H	0.733533	-0.872841	0.183986
O105	O	0.952356	0.000267	-0.722364
H106	H	0.997156	0.000260	-0.690734
