data_functionalizedCrystal
_audit_creation_method	'MofGen! by Chris Wilmer'
_symmetry_space_group_name_H-M	'P1'
_symmetry_Int_Tables_number	1
_symmetry_cell_setting	triclinic
loop_
_symmetry_equiv_pos_as_xyz
  x,y,z
_cell_length_a	6.817900
_cell_length_b	19.551823
_cell_length_c	11.102193
_cell_angle_alpha	94.524979
_cell_angle_beta	108.604059
_cell_angle_gamma	101.663376
loop_
_atom_site_label
_atom_site_type_symbol
_atom_site_fract_x
_atom_site_fract_y
_atom_site_fract_z
V1	V	-4.076511	-0.096680	-0.396852
O2	O	-4.072228	0.004641	-0.388686
O3	O	-4.018888	-0.191695	-0.394726
O4	O	-4.053823	-0.095195	-0.569664
O5	O	-4.037050	-0.092527	-0.212536
V6	V	-4.558003	-0.084561	-0.374735
O7	O	-4.342226	-0.123265	-0.445367
O8	O	-4.742485	-0.057976	-0.326219
O9	O	-4.392420	0.010455	-0.376861
O10	O	-4.679683	-0.185881	-0.382901
O11	O	-4.714860	-0.088713	-0.559050
O12	O	-4.357484	-0.086045	-0.201922
C13	C	-3.860813	-0.214858	-0.388617
C14	C	-3.895157	-0.292534	-0.388030
C15	C	-4.094003	-0.332580	-0.394110
C16	C	-4.126280	-0.405566	-0.393572
C17	C	-3.959686	-0.438501	-0.386928
C18	C	-3.760816	-0.398446	-0.380855
C19	C	-3.728551	-0.325463	-0.381406
C20	C	-3.834467	-0.544988	-0.306338
C21	C	-3.866735	-0.617969	-0.305779
C22	C	-4.059196	-0.663607	-0.385234
C23	C	-4.219412	-0.636253	-0.465232
C24	C	-4.187147	-0.563269	-0.465783
C25	C	-3.994652	-0.517639	-0.386331
C26	C	-4.293054	-0.782793	-0.390733
C27	C	-4.325327	-0.855781	-0.390203
C28	C	-3.959851	-0.848659	-0.377472
C29	C	-3.927590	-0.775674	-0.378016
C30	C	-4.094196	-0.742744	-0.384640
C31	C	-3.905375	-0.091761	-0.611767
C32	C	-3.968047	-0.091176	-0.753046
C33	C	-4.042041	-0.219156	-0.790159
C34	C	-4.108473	-0.282867	-0.875087
C35	C	-4.167360	-0.282314	-1.007829
C36	C	-4.159817	-0.218041	-1.055646
C37	C	-4.093385	-0.154329	-0.970718
C38	C	-4.034495	-0.154890	-0.837974
C39	C	-4.019407	-0.026351	-0.933605
C40	C	-3.960505	-0.026903	-0.800862
C41	C	-4.011865	0.037921	-0.981421
C42	C	-3.945417	0.101635	-0.896493
C43	C	-3.886526	0.101079	-0.763743
C44	C	-3.894073	0.036809	-0.715934
C45	C	-4.213836	0.033613	-0.382966
C46	C	-4.158731	0.111289	-0.383561
C47	C	-4.169273	-0.089481	-0.159813
C48	C	-4.085839	-0.090063	-0.018533
H49	H	-4.428713	-0.755980	-0.396125
F50	F	-3.979336	-0.219750	-0.648883
F51	F	-4.116507	-0.351268	-0.824189
H52	H	-4.288209	-0.438177	-0.398523
F53	F	-4.357650	-0.534160	-0.550927
H54	H	-4.375977	-0.673421	-0.530107
F55	F	-3.782552	-0.883707	-0.370414
F56	F	-3.831390	0.036211	-0.574659
F57	F	-4.536981	-0.898402	-0.396683
F58	F	-4.074551	0.038509	-1.122699
F59	F	-4.222524	-0.217455	-1.196924
F60	F	-4.271315	-0.297537	-0.401145
F61	F	-3.629609	-0.496423	-0.221771
H62	H	-3.832446	0.152961	-0.694601
F63	F	-3.583518	-0.433500	-0.373790
H64	H	-3.939297	0.153960	-0.935437
H65	H	-3.765665	-0.743067	-0.373056
H66	H	-4.221457	-0.334193	-1.076979
F67	F	-3.516903	-0.282842	-0.374934
F68	F	-3.696232	-0.647074	-0.220624
