data_functionalizedCrystal
_audit_creation_method	'MofGen! by Chris Wilmer'
_symmetry_space_group_name_H-M	'P1'
_symmetry_Int_Tables_number	1
_symmetry_cell_setting	triclinic
loop_
_symmetry_equiv_pos_as_xyz
  x,y,z
_cell_length_a	18.215407
_cell_length_b	18.215405
_cell_length_c	17.077396
_cell_angle_alpha	89.967575
_cell_angle_beta	89.985449
_cell_angle_gamma	90.022344
loop_
_atom_site_label
_atom_site_type_symbol
_atom_site_fract_x
_atom_site_fract_y
_atom_site_fract_z
Zn1	Zn	1.125055	-0.293028	-0.443769
Zn2	Zn	1.375055	-0.043028	-0.193769
Zn3	Zn	1.625055	0.206972	0.056231
Zn4	Zn	1.875055	0.456972	0.306231
Zn5	Zn	1.124968	-0.416103	-0.312496
Zn6	Zn	1.374968	-0.166103	-0.062496
Zn7	Zn	1.624968	0.083897	0.187504
Zn8	Zn	1.874968	0.333897	0.437504
Zn9	Zn	1.001992	-0.293050	-0.312523
Zn10	Zn	1.251992	-0.043050	-0.062523
Zn11	Zn	1.501992	0.206950	0.187477
Zn12	Zn	1.751992	0.456950	0.437477
Zn13	Zn	1.001953	-0.416052	-0.443726
Zn14	Zn	1.251953	-0.166052	-0.193726
Zn15	Zn	1.501953	0.083948	0.056274
Zn16	Zn	1.751953	0.333948	0.306274
O17	O	1.063492	-0.354558	-0.378129
O18	O	1.313492	-0.104558	-0.128129
O19	O	1.563492	0.145442	0.121871
O20	O	1.813492	0.395442	0.371871
O21	O	1.228028	-0.309367	-0.426362
O22	O	1.478028	-0.059367	-0.176362
O23	O	1.728028	0.190633	0.073638
O24	O	1.978028	0.440633	0.323638
O25	O	1.108635	-0.399811	-0.202653
O26	O	1.358635	-0.149811	0.047347
O27	O	1.608635	0.100189	0.297347
O28	O	1.858635	0.350189	0.547347
O29	O	1.018370	-0.190063	-0.329963
O30	O	1.268370	0.059937	-0.079963
O31	O	1.518370	0.309937	0.170037
O32	O	1.768370	0.559937	0.420037
O33	O	1.227964	-0.399790	-0.329917
O34	O	1.477964	-0.149790	-0.079917
O35	O	1.727964	0.100210	0.170083
O36	O	1.977964	0.350210	0.420083
O37	O	1.108783	-0.190047	-0.426389
O38	O	1.358783	0.059953	-0.176389
O39	O	1.608783	0.309953	0.073611
O40	O	1.858783	0.559953	0.323611
O41	O	1.018286	-0.309404	-0.202673
O42	O	1.268286	-0.059404	0.047327
O43	O	1.518286	0.190596	0.297327
O44	O	1.768286	0.440596	0.547327
O45	O	0.899003	-0.309354	-0.329921
O46	O	1.149003	-0.059354	-0.079921
O47	O	1.399003	0.190646	0.170079
O48	O	1.649003	0.440646	0.420079
O49	O	1.018303	-0.399702	-0.553579
O50	O	1.268303	-0.149702	-0.303579
O51	O	1.518303	0.100298	-0.053579
O52	O	1.768303	0.350298	0.196421
O53	O	0.898974	-0.399723	-0.426315
O54	O	1.148974	-0.149723	-0.176315
O55	O	1.398974	0.100277	0.073685
O56	O	1.648974	0.350277	0.323685
O57	O	1.108745	-0.309317	-0.553611
O58	O	1.358745	-0.059317	-0.303611
O59	O	1.608745	0.190683	-0.053611
O60	O	1.858745	0.440683	0.196389
O61	O	1.108597	-0.519081	-0.329875
O62	O	1.358597	-0.269081	-0.079875
O63	O	1.608597	-0.019081	0.170125
O64	O	1.858597	0.230919	0.420125
O65	O	1.018219	-0.519043	-0.426288
O66	O	1.268219	-0.269043	-0.176288
O67	O	1.518219	-0.019043	0.073712
O68	O	1.768219	0.230957	0.323712
C69	C	0.872286	-0.354536	-0.378117
C70	C	1.122286	-0.104536	-0.128117
C71	C	1.372286	0.145464	0.121883
C72	C	1.622286	0.395464	0.371883
C73	C	0.790487	-0.354544	-0.378130
C74	C	1.040487	-0.104544	-0.128130
C75	C	1.290487	0.145456	0.121870
C76	C	1.540487	0.395456	0.371870
C77	C	0.525434	-0.401691	-0.428252
C78	C	0.775434	-0.151691	-0.178252
C79	C	1.025434	0.098309	0.071748
C80	C	1.275434	0.348309	0.321748
C81	C	0.602293	-0.401685	-0.428248
C82	C	0.852293	-0.151685	-0.178248
C83	C	1.102293	0.098315	0.071752
C84	C	1.352293	0.348315	0.321752
C85	C	0.602292	-0.307442	-0.328019
C86	C	0.852292	-0.057442	-0.078019
C87	C	1.102292	0.192558	0.171981
C88	C	1.352292	0.442558	0.421981
C89	C	0.525435	-0.307453	-0.328020
C90	C	0.775435	-0.057453	-0.078020
C91	C	1.025435	0.192547	0.171980
C92	C	1.275435	0.442547	0.421980
C93	C	0.487008	-0.354576	-0.378140
C94	C	0.737008	-0.104576	-0.128140
C95	C	0.987008	0.145424	0.121860
C96	C	1.237008	0.395424	0.371860
C97	C	0.640724	-0.354559	-0.378136
C98	C	0.890724	-0.104559	-0.128136
C99	C	1.140724	0.145441	0.121864
C100	C	1.390724	0.395441	0.371864
C101	C	0.724057	-0.354552	-0.378132
C102	C	0.974057	-0.104552	-0.128132
C103	C	1.224057	0.145448	0.121868
C104	C	1.474057	0.395448	0.371868
C105	C	0.403669	-0.354584	-0.378144
C106	C	0.653669	-0.104584	-0.128144
C107	C	0.903669	0.145416	0.121856
C108	C	1.153669	0.395416	0.371856
C109	C	1.063415	-0.545765	-0.378091
C110	C	1.313415	-0.295765	-0.128091
C111	C	1.563415	-0.045765	0.121909
C112	C	1.813415	0.204235	0.371909
C113	C	1.063449	-0.627564	-0.378101
C114	C	1.313449	-0.377564	-0.128101
C115	C	1.563449	-0.127564	0.121899
C116	C	1.813449	0.122436	0.371899
C117	C	1.110619	-0.815753	-0.327991
C118	C	1.360619	-0.565753	-0.077991
C119	C	1.610619	-0.315753	0.172009
C120	C	1.860619	-0.065753	0.422009
C121	C	1.110652	-0.892611	-0.328010
C122	C	1.360652	-0.642611	-0.078010
C123	C	1.610652	-0.392611	0.171990
C124	C	1.860652	-0.142611	0.421990
C125	C	1.016459	-0.892612	-0.428323
C126	C	1.266459	-0.642612	-0.178323
C127	C	1.516459	-0.392612	0.071677
C128	C	1.766459	-0.142612	0.321677
C129	C	1.016431	-0.815755	-0.428308
C130	C	1.266431	-0.565755	-0.178308
C131	C	1.516431	-0.315755	0.071692
C132	C	1.766431	-0.065755	0.321692
C133	C	1.063510	-0.777327	-0.378137
C134	C	1.313510	-0.527327	-0.128137
C135	C	1.563510	-0.277327	0.121863
C136	C	1.813510	-0.027327	0.371863
C137	C	1.063571	-0.931043	-0.378171
C138	C	1.313571	-0.681043	-0.128171
C139	C	1.563571	-0.431043	0.121829
C140	C	1.813571	-0.181043	0.371829
C141	C	1.063606	-1.014377	-0.378192
C142	C	1.313606	-0.764377	-0.128192
C143	C	1.563606	-0.514377	0.121808
C144	C	1.813606	-0.264377	0.371808
C145	C	1.063475	-0.693988	-0.378117
C146	C	1.313475	-0.443988	-0.128117
C147	C	1.563475	-0.193988	0.121883
C148	C	1.813475	0.056012	0.371883
C149	C	1.255445	-0.354582	-0.378141
C150	C	1.505445	-0.104582	-0.128141
C151	C	1.755445	0.145418	0.121859
C152	C	2.005445	0.395418	0.371859
C153	C	1.337244	-0.354591	-0.378147
C154	C	1.587244	-0.104591	-0.128147
C155	C	1.837244	0.145409	0.121853
C156	C	2.087244	0.395409	0.371853
C157	C	1.063590	-0.162605	-0.378184
C158	C	1.313590	0.087395	-0.128184
C159	C	1.563590	0.337395	0.121816
C160	C	1.813590	0.587395	0.371816
C161	C	1.063632	-0.080806	-0.378207
C162	C	1.313632	0.169194	-0.128207
C163	C	1.563632	0.419194	0.121793
C164	C	1.813632	0.669194	0.371793
C165	C	1.063529	-0.354501	-0.582873
C166	C	1.313529	-0.104501	-0.332873
C167	C	1.563529	0.145499	-0.082873
C168	C	1.813529	0.395499	0.167127
C169	C	1.063545	-0.354477	-0.670123
C170	C	1.313545	-0.104477	-0.420123
C171	C	1.563545	0.145523	-0.170123
C172	C	1.813545	0.395523	0.079877
C173	C	1.016514	-0.307397	-0.711123
C174	C	1.266514	-0.057397	-0.461123
C175	C	1.516514	0.192603	-0.211123
C176	C	1.766514	0.442603	0.038877
C177	C	1.016526	-0.307380	-0.793103
C178	C	1.266526	-0.057380	-0.543103
C179	C	1.516526	0.192620	-0.293103
C180	C	1.766526	0.442620	-0.043103
C181	C	1.063573	-0.354440	-0.834082
C182	C	1.313573	-0.104440	-0.584082
C183	C	1.563573	0.145560	-0.334082
C184	C	1.813573	0.395560	-0.084082
C185	C	1.110606	-0.401526	-0.793077
C186	C	1.360606	-0.151526	-0.543077
C187	C	1.610606	0.098474	-0.293077
C188	C	1.860606	0.348474	-0.043077
C189	C	1.110590	-0.401546	-0.711098
C190	C	1.360590	-0.151546	-0.461098
C191	C	1.610590	0.098454	-0.211098
C192	C	1.860590	0.348454	0.038902
C193	C	1.110638	-0.401480	-0.963947
C194	C	1.360638	-0.151480	-0.713947
C195	C	1.610638	0.098520	-0.463947
C196	C	1.860638	0.348520	-0.213947
C197	C	1.110655	-0.401460	-1.045932
C198	C	1.360655	-0.151460	-0.795932
C199	C	1.610655	0.098540	-0.545932
C200	C	1.860655	0.348540	-0.295932
C201	C	1.016574	-0.307314	-1.045953
C202	C	1.266574	-0.057314	-0.795953
C203	C	1.516574	0.192686	-0.545953
C204	C	1.766574	0.442686	-0.295953
C205	C	1.016558	-0.307334	-0.963974
C206	C	1.266558	-0.057334	-0.713974
C207	C	1.516558	0.192666	-0.463974
C208	C	1.766558	0.442666	-0.213974
C209	C	1.063592	-0.354419	-0.922974
C210	C	1.313592	-0.104419	-0.672974
C211	C	1.563592	0.145581	-0.422974
C212	C	1.813592	0.395581	-0.172974
C213	C	1.063498	-0.354562	-0.174181
C214	C	1.313498	-0.104562	0.075819
C215	C	1.563498	0.145438	0.325819
C216	C	1.813498	0.395438	0.575819
C217	C	1.063625	-0.354379	-0.086932
C218	C	1.313625	-0.104379	0.163068
C219	C	1.563625	0.145621	0.413068
C220	C	1.813625	0.395621	0.663068
H221	H	0.494147	-0.269085	-0.287209
H222	H	0.744147	-0.019085	-0.037209
H223	H	0.994147	0.230915	0.212791
H224	H	1.244147	0.480915	0.462791
O225	O	1.161325	-0.452320	-0.666875
O226	O	1.411325	-0.202320	-0.416875
O227	O	1.661325	0.047680	-0.166875
O228	O	1.911325	0.297680	0.083125
H229	H	1.148683	-0.510073	-0.682596
H230	H	1.398683	-0.260073	-0.432596
H231	H	1.648683	-0.010073	-0.182596
H232	H	1.898683	0.239927	0.067404
O233	O	1.161473	-0.934053	-0.273929
O234	O	1.411473	-0.684053	-0.023929
O235	O	1.661473	-0.434053	0.226071
O236	O	1.911473	-0.184053	0.476071
H237	H	1.153595	-0.993953	-0.282376
H238	H	1.403595	-0.743953	-0.032376
H239	H	1.653595	-0.493953	0.217624
H240	H	1.903595	-0.243953	0.467624
O241	O	0.965668	-0.934058	-0.482420
O242	O	1.215668	-0.684058	-0.232420
O243	O	1.465668	-0.434058	0.017580
O244	O	1.715668	-0.184058	0.267580
H245	H	0.973593	-0.993958	-0.473998
H246	H	1.223593	-0.743958	-0.223998
H247	H	1.473593	-0.493958	0.026002
H248	H	1.723593	-0.243958	0.276002
O249	O	1.161406	-0.774299	-0.273896
O250	O	1.411406	-0.524299	-0.023896
O251	O	1.661406	-0.274299	0.226104
O252	O	1.911406	-0.024299	0.476104
H253	H	1.148841	-0.789103	-0.212276
H254	H	1.398841	-0.539103	0.037724
H255	H	1.648841	-0.289103	0.287724
H256	H	1.898841	-0.039103	0.537724
O257	O	0.483984	-0.452571	-0.482247
O258	O	0.733984	-0.202571	-0.232247
O259	O	0.983984	0.047429	0.017753
O260	O	1.233984	0.297429	0.267753
H261	H	0.523620	-0.485355	-0.517066
H262	H	0.773620	-0.235355	-0.267066
H263	H	1.023620	0.014645	-0.017066
H264	H	1.273620	0.264645	0.232934
O265	O	0.965607	-0.774301	-0.482384
O266	O	1.215607	-0.524301	-0.232384
O267	O	1.465607	-0.274301	0.017616
O268	O	1.715607	-0.024301	0.267616
H269	H	0.932863	-0.813933	-0.517262
H270	H	1.182863	-0.563933	-0.267262
H271	H	1.432863	-0.313933	-0.017262
H272	H	1.682863	-0.063933	0.232738
H273	H	0.978207	-0.269070	-0.677764
H274	H	1.228207	-0.019070	-0.427764
H275	H	1.478207	0.230930	-0.177764
H276	H	1.728207	0.480930	0.072236
H277	H	0.633576	-0.440051	-0.469053
H278	H	0.883576	-0.190051	-0.219053
H279	H	1.133576	0.059949	0.030947
H280	H	1.383576	0.309949	0.280947
H281	H	0.978226	-0.269045	-0.826482
H282	H	1.228226	-0.019045	-0.576482
H283	H	1.478226	0.230955	-0.326482
H284	H	1.728226	0.480955	-0.076482
O285	O	0.965826	-0.256567	-0.919769
O286	O	1.215826	-0.006567	-0.669769
O287	O	1.465826	0.243433	-0.419769
O288	O	1.715826	0.493433	-0.169769
H289	H	0.933122	-0.223824	-0.962050
H290	H	1.183122	0.026176	-0.712050
H291	H	1.433122	0.276176	-0.462050
H292	H	1.683122	0.526176	-0.212050
H293	H	0.978278	-0.268975	-1.079339
H294	H	1.228278	-0.018975	-0.829339
H295	H	1.478278	0.231025	-0.579339
H296	H	1.728278	0.481025	-0.329339
H297	H	1.148965	-0.439780	-1.079294
H298	H	1.398965	-0.189780	-0.829294
H299	H	1.648965	0.060220	-0.579294
H300	H	1.898965	0.310220	-0.329294
H301	H	1.148945	-0.439815	-0.930567
H302	H	1.398945	-0.189815	-0.680567
H303	H	1.648945	0.060185	-0.430567
H304	H	1.898945	0.310185	-0.180567
H305	H	0.633589	-0.269075	-0.287213
H306	H	0.883589	-0.019075	-0.037213
H307	H	1.133589	0.230925	0.212787
H308	H	1.383589	0.480925	0.462787
O309	O	1.161350	-0.452290	-0.837268
O310	O	1.411350	-0.202290	-0.587268
O311	O	1.661350	0.047710	-0.337268
O312	O	1.911350	0.297710	-0.087268
H313	H	1.198824	-0.419349	-0.874623
H314	H	1.448824	-0.169349	-0.624623
H315	H	1.698824	0.080651	-0.374623
H316	H	1.948824	0.330651	-0.124623
