data_functionalizedCrystal
_audit_creation_method	'MofGen! by Chris Wilmer'
_symmetry_space_group_name_H-M	'P1'
_symmetry_Int_Tables_number	1
_symmetry_cell_setting	triclinic
loop_
_symmetry_equiv_pos_as_xyz
  x,y,z
_cell_length_a	12.645331
_cell_length_b	12.645330
_cell_length_c	29.839126
_cell_angle_alpha	89.986742
_cell_angle_beta	89.973796
_cell_angle_gamma	90.025166
loop_
_atom_site_label
_atom_site_type_symbol
_atom_site_fract_x
_atom_site_fract_y
_atom_site_fract_z
Zn1	Zn	-1.620706	0.422172	0.254038
Zn2	Zn	-1.620550	0.599427	0.178919
Zn3	Zn	-1.443409	0.422175	0.178920
Zn4	Zn	-1.443376	0.599391	0.254020
O5	O	-1.532010	0.510791	0.216475
O6	O	-1.769032	0.445699	0.244081
O7	O	-1.597001	0.575930	0.116052
O8	O	-1.467007	0.273827	0.188892
O9	O	-1.768918	0.575928	0.188891
O10	O	-1.597266	0.273825	0.244081
O11	O	-1.466856	0.445704	0.116053
O12	O	-1.295058	0.445669	0.188875
O13	O	-1.466950	0.575866	0.316890
O14	O	-1.295033	0.575869	0.244051
O15	O	-1.597233	0.445664	0.316903
O16	O	-1.596968	0.747769	0.188874
O17	O	-1.466799	0.747743	0.244050
C18	C	-1.256580	0.510766	0.216462
C19	C	-1.138750	0.510781	0.216467
C20	C	-1.531892	0.786221	0.216470
C21	C	-1.531938	0.904051	0.216483
C22	C	-1.532105	0.510761	0.333653
C23	C	-1.532146	0.510748	0.383587
C24	C	-1.808515	0.510817	0.216488
C25	C	-1.926345	0.510828	0.216493
C26	C	-0.971167	0.428495	0.181947
C27	C	-1.093726	0.428708	0.181795
C28	C	-1.094212	0.622449	0.203536
C29	C	-0.971613	0.621999	0.203300
C30	C	-0.971612	0.482461	0.264051
C31	C	-1.094218	0.479966	0.263786
C32	C	-1.450362	1.071642	0.251303
C33	C	-1.449963	0.949083	0.251190
C34	C	-1.501680	0.948623	0.169138
C35	C	-1.501163	1.071222	0.169350
C36	C	-1.644216	1.071147	0.228628
C37	C	-1.643547	0.948541	0.229662
C38	C	-1.532120	1.234286	0.216491
C39	C	-1.532072	1.116456	0.216502
C40	C	-1.531976	0.510745	0.099752
C41	C	-1.532141	0.510459	0.049818
C42	C	-1.599898	0.578415	0.740177
C43	C	-1.599899	0.578489	0.552504
O44	O	-1.657494	0.636189	0.528242
N45	N	-1.532141	0.510697	0.529033
C46	C	-1.464372	0.442886	0.552482
O47	O	-1.406732	0.385234	0.528212
C48	C	-1.464366	0.442818	0.740154
C49	C	-1.532136	0.510608	0.763624
C50	C	-1.667662	0.646200	0.763647
C51	C	-1.667665	0.646177	0.810562
C52	C	-1.599903	0.578369	0.834008
C53	C	-1.532139	0.510584	0.810539
C54	C	-1.396593	0.375014	0.763603
C55	C	-1.396595	0.375005	0.810524
C56	C	-1.464366	0.442794	0.833993
C57	C	-1.464381	0.442753	0.880901
N58	N	-1.532140	0.510546	0.904372
C59	C	-1.599901	0.578354	0.880926
C60	C	-1.464382	0.442925	0.453951
C61	C	-1.464384	0.442940	0.407033
C62	C	-1.599911	0.578545	0.407059
C63	C	-1.599912	0.578523	0.453978
C64	C	-1.532140	0.510717	0.477423
C65	C	-1.599903	0.578299	0.979452
C66	C	-1.599903	0.578267	1.026372
C67	C	-1.464373	0.442666	1.026342
C68	C	-1.464376	0.442694	0.979427
C69	C	-1.532145	0.510519	0.955983
O70	O	-1.406808	0.385092	0.905192
O71	O	-1.657516	0.636014	0.905205
C72	C	-1.599895	0.578439	0.693262
C73	C	-1.532130	0.510654	0.669793
C74	C	-1.464369	0.442846	0.693239
C75	C	-1.532133	0.510669	0.622875
C76	C	-1.599894	0.578477	0.599429
C77	C	-1.667653	0.646270	0.622900
C78	C	-1.667656	0.646246	0.669816
C79	C	-1.396611	0.375054	0.669767
C80	C	-1.396614	0.375082	0.622851
C81	C	-1.464375	0.442889	0.599405
H82	H	-0.941716	0.345439	0.189965
N83	N	-1.132642	0.653175	0.160391
N84	N	-1.186466	0.735488	0.156270
H85	H	-1.213606	0.757185	0.125797
N86	N	-1.473730	0.911273	0.295229
N87	N	-1.559675	0.934867	0.313353
H88	H	-1.576460	0.908171	0.344458
H89	H	-0.942628	0.542429	0.289791
N90	N	-0.932856	0.382098	0.278801
N91	N	-0.871394	0.330255	0.254439
H92	H	-0.844020	0.259371	0.264852
N93	N	-0.932439	0.451748	0.138000
N94	N	-0.871972	0.528694	0.132011
H95	H	-0.844618	0.545120	0.100974
H96	H	-0.941963	0.685419	0.227365
N97	N	-1.130747	0.376884	0.276027
N98	N	-1.185036	0.364734	0.310666
H99	H	-1.210837	0.291931	0.319311
N100	N	-1.398318	1.107215	0.156475
N101	N	-1.345250	1.163126	0.182690
H102	H	-1.272611	1.188541	0.173599
N103	N	-1.473946	1.108490	0.295493
N104	N	-1.551243	1.168217	0.301856
H105	H	-1.567922	1.194220	0.333069
N106	N	-1.132642	0.549706	0.297810
N107	N	-1.105108	0.536775	0.337663
H108	H	-1.132242	0.586038	0.361693
H109	H	-1.558095	1.100868	0.142536
H110	H	-1.123840	0.345901	0.189900
N111	N	-1.327379	0.305783	0.693706
N112	N	-1.266888	0.245267	0.672738
H113	H	-1.217991	0.196337	0.689643
H114	H	-1.367743	1.102538	0.243372
H115	H	-1.420565	0.918006	0.158679
H116	H	-1.366834	0.919843	0.243156
H117	H	-1.122996	0.447456	0.146553
N118	N	-0.935676	0.652185	0.159685
N119	N	-1.001139	0.673435	0.129631
H120	H	-0.975764	0.694754	0.098827
H121	H	-1.666365	0.919406	0.264506
H122	H	-1.559315	0.919454	0.142499
H123	H	-1.671807	1.102007	0.262566
N124	N	-1.723946	0.910079	0.200176
N125	N	-1.700190	0.848983	0.168826
H126	H	-1.756969	0.821821	0.147997
N127	N	-1.130798	0.701453	0.234113
N128	N	-1.190250	0.676278	0.265852
H129	H	-1.216090	0.732073	0.287449
H130	H	-1.705093	1.100125	0.203281
H131	H	-1.655094	0.633469	1.045478
H132	H	-1.655093	0.633522	0.960370
N133	N	-1.736888	0.715439	0.834525
N134	N	-1.797371	0.775979	0.813578
H135	H	-1.846259	0.824906	0.830498
H136	H	-1.722842	0.701422	0.744562
H137	H	-1.655097	0.633724	0.473083
N138	N	-1.669133	0.647792	0.383098
N139	N	-1.669121	0.647783	0.341207
H140	H	-1.718005	0.696687	0.324282
N141	N	-1.395169	0.373670	0.383070
N142	N	-1.334678	0.313135	0.404015
H143	H	-1.285789	0.264213	0.387093
H144	H	-1.409190	0.387706	0.473036
H145	H	-1.341404	0.319814	0.744502
N146	N	-1.327353	0.305738	0.834465
N147	N	-1.266854	0.245225	0.813501
H148	H	-1.217952	0.196303	0.830408
H149	H	-1.409206	0.387480	0.960317
N150	N	-1.395170	0.373408	1.050304
N151	N	-1.395187	0.373410	1.092194
H152	H	-1.346308	0.324500	1.109119
N153	N	-1.736892	0.715496	0.693779
N154	N	-1.797384	0.776027	0.672831
H155	H	-1.846287	0.824939	0.689752
N156	N	-1.736874	0.715518	0.598939
N157	N	-1.736855	0.715514	0.557048
H158	H	-1.785737	0.764418	0.540123
N159	N	-1.327385	0.305815	0.598888
N160	N	-1.266891	0.245282	0.619833
H161	H	-1.217994	0.196368	0.602911
