data_functionalizedCrystal
_audit_creation_method	'MofGen! by Chris Wilmer'
_symmetry_space_group_name_H-M	'P1'
_symmetry_Int_Tables_number	1
_symmetry_cell_setting	triclinic
loop_
_symmetry_equiv_pos_as_xyz
  x,y,z
_cell_length_a	6.817900
_cell_length_b	12.840946
_cell_length_c	11.102295
_cell_angle_alpha	82.596968
_cell_angle_beta	70.616099
_cell_angle_gamma	88.344365
loop_
_atom_site_label
_atom_site_type_symbol
_atom_site_fract_x
_atom_site_fract_y
_atom_site_fract_z
V1	V	-3.926388	0.283509	0.178852
O2	O	-3.887456	0.320307	-0.005495
O3	O	-3.905863	0.240989	0.351653
O4	O	-3.821769	0.425671	0.177461
O5	O	-3.972132	0.134346	0.169902
V6	V	-4.413689	0.270598	0.156642
O7	O	-4.179359	0.311831	0.227573
O8	O	-4.610914	0.242276	0.107921
O9	O	-4.211007	0.313118	-0.016159
O10	O	-4.570017	0.233800	0.340988
O11	O	-4.485341	0.419761	0.165591
O12	O	-4.295101	0.128435	0.158032
C13	C	-3.759464	0.226045	0.393735
C14	C	-3.823594	0.192228	0.535010
C15	C	-4.034808	0.180036	0.607883
C16	C	-4.095094	0.148276	0.740630
C17	C	-3.944163	0.128702	0.800501
C18	C	-3.732931	0.140898	0.727618
C19	C	-3.672648	0.172665	0.594875
C20	C	-3.652205	0.461626	0.171531
C21	C	-3.648057	0.579757	0.171535
C22	C	-4.111043	-0.025659	0.164012
C23	C	-4.128039	0.092476	0.163984
V24	V	-3.909364	0.769668	0.178889
O25	O	-3.944506	0.922958	0.169955
O26	O	-3.814877	0.622811	0.177482
O27	O	-3.887302	0.770777	0.351690
O28	O	-3.871579	0.773969	-0.005459
V29	V	-4.394723	0.812290	0.156689
O30	O	-4.164272	0.742780	0.227611
O31	O	-4.589222	0.861863	0.107975
O32	O	-4.266397	0.947900	0.158091
O33	O	-4.476772	0.664915	0.165625
O34	O	-4.549699	0.813905	0.341039
O35	O	-4.193971	0.799935	-0.016116
C36	C	-4.020750	0.328057	-0.058235
C37	C	-3.935856	0.361881	-0.199508
C38	C	-3.740453	0.768500	0.393763
C39	C	-3.803250	0.772548	0.535039
C40	C	-4.004752	0.785247	-0.058203
C41	C	-3.921230	0.780163	-0.199480
C42	C	-4.013820	0.778373	0.607935
C43	C	-4.072812	0.782184	0.740676
C44	C	-3.710641	0.774340	0.727613
C45	C	-3.651652	0.770536	0.594873
C46	C	-4.069628	0.374075	-0.272381
C47	C	-3.989884	0.405840	-0.405127
C48	C	-3.776368	0.425417	-0.464997
C49	C	-3.642587	0.413218	-0.392115
C50	C	-3.722330	0.381446	-0.259373
H51	H	-4.267098	0.138348	0.799953
N52	N	-3.424521	0.764265	0.516234
H53	H	-3.337436	0.763563	0.574280
H54	H	-3.400338	0.697857	0.473813
H55	H	-4.137265	0.780011	0.559222
H56	H	-3.613384	0.371529	-0.200048
N57	N	-3.570151	0.119757	0.792195
H58	H	-3.640411	0.097770	0.887341
H59	H	-3.476832	0.061745	0.753201
N60	N	-4.299926	0.788473	0.819300
H61	H	-4.387000	0.789171	0.761248
H62	H	-4.340481	0.725562	0.887608
H63	H	-3.500655	0.182584	0.535550
H64	H	-4.243490	0.358141	-0.223652
H65	H	-3.468736	0.429161	-0.440882
H66	H	-3.587225	0.772701	0.776347
H67	H	-4.157732	0.195964	0.559154
N68	N	-4.134197	0.419011	-0.483714
H69	H	-4.281556	0.401802	-0.425633
H70	H	-4.125637	0.493979	-0.526124
H71	H	-3.711463	0.451286	-0.573085
N72	N	-4.009197	0.094439	0.943674
H73	H	-4.165909	0.089685	0.980744
H74	H	-3.948745	0.023413	0.960051
