data_functionalizedCrystal
_audit_creation_method	'MofGen! by Chris Wilmer'
_symmetry_space_group_name_H-M	'P1'
_symmetry_Int_Tables_number	1
_symmetry_cell_setting	triclinic
loop_
_symmetry_equiv_pos_as_xyz
  x,y,z
_cell_length_a	12.759399
_cell_length_b	16.959455
_cell_length_c	12.759393
_cell_angle_alpha	89.973590
_cell_angle_beta	89.969670
_cell_angle_gamma	90.012675
loop_
_atom_site_label
_atom_site_type_symbol
_atom_site_fract_x
_atom_site_fract_y
_atom_site_fract_z
Zn1	Zn	-0.418299	1.208455	-0.594210
Zn2	Zn	-0.594015	1.208374	-0.418530
Zn3	Zn	-0.418341	1.076270	-0.418524
Zn4	Zn	-0.593928	1.076259	-0.594147
O5	O	-0.506146	1.142339	-0.506353
O6	O	-0.441627	1.319055	-0.570934
O7	O	-0.570765	1.190821	-0.271508
O8	O	-0.271315	1.093843	-0.441853
O9	O	-0.570725	1.318996	-0.441863
O10	O	-0.271284	1.190959	-0.570929
O11	O	-0.441699	1.093764	-0.271504
O12	O	-0.441614	0.965657	-0.441792
O13	O	-0.570576	1.093824	-0.741176
O14	O	-0.570617	0.965649	-0.570821
O15	O	-0.441543	1.190948	-0.741223
O16	O	-0.741024	1.190810	-0.441802
O17	O	-0.740960	1.093745	-0.570827
C18	C	-0.506111	0.936973	-0.506300
C19	C	-0.506122	0.849116	-0.506302
C20	C	-0.779113	1.142289	-0.506331
C21	C	-0.895890	1.142340	-0.506357
C22	C	-0.573300	0.477599	-0.439111
C23	C	-0.439079	0.477683	-0.573722
C24	C	-0.439061	0.560229	-0.573697
C25	C	-0.506166	0.601464	-0.506378
C26	C	-0.573287	0.560153	-0.439086
C27	C	-0.371948	0.601546	-0.640996
C28	C	-0.371929	0.684097	-0.640973
C29	C	-0.439029	0.725333	-0.573649
C30	C	-0.506153	0.684017	-0.506353
C31	C	-0.573257	0.725252	-0.439035
C32	C	-0.640376	0.683938	-0.371733
C33	C	-0.640387	0.601389	-0.371761
C34	C	-0.439018	0.807881	-0.573620
C35	C	-0.573244	0.807806	-0.439009
C36	C	-1.060475	1.192995	-0.439283
C37	C	-0.950751	1.192942	-0.439251
C38	C	-0.950758	1.091781	-0.573493
C39	C	-1.060480	1.091831	-0.573520
C40	C	-1.060470	1.251402	-0.361782
C41	C	-0.950746	1.251350	-0.361750
C42	C	-0.232112	1.142411	-0.506397
C43	C	-0.115336	1.142442	-0.506416
C44	C	-0.506045	1.142394	-0.780386
C45	C	-0.506002	1.142417	-0.897163
C46	C	-0.506181	1.348508	-0.506406
C47	C	-0.506196	1.436364	-0.506429
C48	C	-0.573182	1.192957	-0.952025
C49	C	-0.573137	1.192981	-1.061749
C50	C	-0.438730	1.091918	-1.061740
C51	C	-0.438771	1.091899	-0.952018
C52	C	-0.650783	1.251302	-0.952031
C53	C	-0.650739	1.251326	-1.061755
C54	C	-0.506170	1.142330	-0.233385
C55	C	-0.505917	1.142460	-0.116609
H56	H	-0.695018	0.717522	-0.316928
H57	H	-0.629015	1.312522	-0.922277
H58	H	-0.627944	0.443957	-0.384312
H59	H	-0.906083	1.050574	-0.628127
H60	H	-0.728088	1.229354	-0.917979
O61	O	-0.374046	0.437542	-0.639163
C62	C	-0.433953	0.389841	-0.706951
H63	H	-0.513534	0.377454	-0.669766
H64	H	-0.445577	0.421694	-0.784780
C65	C	-0.278449	0.326651	-0.771763
C66	C	-0.376188	0.311432	-0.726089
H67	H	-0.242816	0.278286	-0.783573
H68	H	-0.238087	0.358790	-0.726096
H69	H	-0.288149	0.353197	-0.836616
H70	H	-0.366486	0.284895	-0.661231
H71	H	-0.416547	0.279287	-0.771745
O72	O	-0.306916	0.561402	-0.706434
C73	C	-0.366825	0.513692	-0.774211
H74	H	-0.446403	0.501307	-0.737020
H75	H	-0.378454	0.545538	-0.852045
C76	C	-0.211320	0.450501	-0.839020
C77	C	-0.309056	0.435284	-0.793338
H78	H	-0.175685	0.402136	-0.850824
H79	H	-0.170958	0.482646	-0.793361
H80	H	-0.221026	0.477041	-0.903877
H81	H	-0.299349	0.408754	-0.728477
H82	H	-0.349416	0.403133	-0.838987
O83	O	-1.100852	1.320777	-0.396800
C84	C	-1.066556	1.334583	-0.500258
H85	H	-0.991192	1.300280	-0.515189
H86	H	-1.129488	1.314368	-0.557671
C87	C	-1.138448	1.465442	-0.497204
C88	C	-1.045880	1.423316	-0.515540
H89	H	-1.125698	1.520177	-0.506633
H90	H	-1.161558	1.456140	-0.427504
H91	H	-1.190882	1.448587	-0.545051
H92	H	-0.993452	1.440164	-0.467685
H93	H	-1.022761	1.432622	-0.585232
H94	H	-0.627885	0.841373	-0.384186
O95	O	-1.096045	1.231758	-0.264726
C96	C	-1.059208	1.156042	-0.237800
H97	H	-1.039692	1.121861	-0.312201
H98	H	-0.985798	1.161786	-0.187481
C99	C	-1.168466	1.153728	-0.084476
C100	C	-1.144504	1.111744	-0.175857
H101	H	-1.221078	1.126404	-0.046263
H102	H	-1.193281	1.204741	-0.102614
H103	H	-1.107284	1.158512	-0.042556
H104	H	-1.205682	1.106970	-0.217782
H105	H	-1.119701	1.060730	-0.157725
O106	O	-0.910192	1.225092	-0.269574
C107	C	-0.848075	1.157787	-0.288184
H108	H	-0.873687	1.128692	-0.364516
H109	H	-0.762247	1.175908	-0.294366
C110	C	-0.830108	1.134826	-0.103295
C111	C	-0.861571	1.099087	-0.197043
H112	H	-0.838428	1.098618	-0.047074
H113	H	-0.871954	1.180172	-0.090756
H114	H	-0.758586	1.149925	-0.108462
H115	H	-0.933095	1.083998	-0.191880
H116	H	-0.819738	1.053737	-0.209579
O117	O	-1.113822	1.042637	-0.638577
C118	C	-1.177413	0.991656	-0.578703
H119	H	-1.144416	0.986797	-0.495942
H120	H	-1.260544	1.016137	-0.575139
C121	C	-1.219681	0.915430	-0.731562
C122	C	-1.179148	0.909457	-0.629915
H123	H	-1.220757	0.864727	-0.763153
H124	H	-1.176843	0.949779	-0.771901
H125	H	-1.288954	0.935834	-0.728577
H126	H	-1.109873	0.889063	-0.632902
H127	H	-1.221976	0.875103	-0.589577
H128	H	-0.920883	1.312545	-0.383621
H129	H	-0.732094	1.234911	-1.091516
H130	H	-0.317276	0.717728	-0.695775
O131	O	-0.373581	1.042759	-1.115074
C132	C	-0.433359	0.991715	-1.178540
H133	H	-0.516118	0.986804	-1.145463
H134	H	-0.436949	1.016169	-1.261703
C135	C	-0.280369	0.915591	-1.220835
C136	C	-0.382013	0.909554	-1.180203
H137	H	-0.248694	0.864911	-1.221866
H138	H	-0.240093	0.949982	-1.178080
H139	H	-0.283374	0.935973	-1.290133
H140	H	-0.379005	0.889183	-1.110902
H141	H	-0.422286	0.875158	-1.222947
O142	O	-0.616124	1.320722	-1.102507
C143	C	-0.695637	1.354564	-1.164642
H144	H	-0.751860	1.306505	-1.191834
H145	H	-0.740395	1.400101	-1.116529
C146	C	-0.577028	1.453962	-1.227381
C147	C	-0.646078	1.394934	-1.260785
H148	H	-0.546459	1.478868	-1.286684
H149	H	-0.523459	1.431164	-1.185516
H150	H	-0.614337	1.491902	-1.187286
H151	H	-0.608766	1.356991	-1.300868
H152	H	-0.699640	1.417726	-1.302659
O153	O	-0.705698	0.561220	-0.306547
C154	C	-0.773613	0.513485	-0.366269
H155	H	-0.780195	0.538412	-0.448993
H156	H	-0.741141	0.450928	-0.369970
C157	C	-0.874690	0.481561	-0.213154
C158	C	-0.882780	0.512180	-0.314756
H159	H	-0.942028	0.480752	-0.181378
H160	H	-0.828932	0.513718	-0.172917
H161	H	-0.847626	0.429433	-0.216253
H162	H	-0.909831	0.564310	-0.311655
H163	H	-0.928545	0.480031	-0.354991
H164	H	-0.384373	0.841516	-0.628419
H165	H	-0.384058	1.050751	-0.907353
