data_functionalizedCrystal
_audit_creation_method	'MofGen! by Chris Wilmer'
_symmetry_space_group_name_H-M	'P1'
_symmetry_Int_Tables_number	1
_symmetry_cell_setting	triclinic
loop_
_symmetry_equiv_pos_as_xyz
  x,y,z
_cell_length_a	19.077236
_cell_length_b	19.076808
_cell_length_c	17.077396
_cell_angle_alpha	87.670636
_cell_angle_beta	87.678825
_cell_angle_gamma	94.519737
loop_
_atom_site_label
_atom_site_type_symbol
_atom_site_fract_x
_atom_site_fract_y
_atom_site_fract_z
Zn1	Zn	1.066467	-0.237459	-0.481060
Zn2	Zn	1.316467	0.012541	-0.231060
Zn3	Zn	1.566467	0.262541	0.018940
Zn4	Zn	1.816467	0.512541	0.268940
Zn5	Zn	1.061642	-0.355362	-0.344287
Zn6	Zn	1.311642	-0.105362	-0.094287
Zn7	Zn	1.561642	0.144638	0.155713
Zn8	Zn	1.811642	0.394638	0.405713
Zn9	Zn	0.948576	-0.242210	-0.344303
Zn10	Zn	1.198576	0.007790	-0.094303
Zn11	Zn	1.448576	0.257790	0.155697
Zn12	Zn	1.698576	0.507790	0.405697
Zn13	Zn	0.943808	-0.360045	-0.470012
Zn14	Zn	1.193808	-0.110045	-0.220012
Zn15	Zn	1.443808	0.139955	0.029988
Zn16	Zn	1.693808	0.389955	0.279988
O17	O	1.005123	-0.298769	-0.409915
O18	O	1.255123	-0.048769	-0.159915
O19	O	1.505123	0.201231	0.090085
O20	O	1.755123	0.451231	0.340085
O21	O	1.164479	-0.249151	-0.467534
O22	O	1.414479	0.000849	-0.217534
O23	O	1.664479	0.250849	0.032466
O24	O	1.914479	0.500849	0.282466
O25	O	1.046620	-0.340381	-0.234440
O26	O	1.296620	-0.090381	0.015560
O27	O	1.546620	0.159619	0.265560
O28	O	1.796620	0.409619	0.515560
O29	O	0.968229	-0.142922	-0.367074
O30	O	1.218229	0.107078	-0.117074
O31	O	1.468229	0.357078	0.132926
O32	O	1.718229	0.607078	0.382926
O33	O	1.160934	-0.335775	-0.367048
O34	O	1.410934	-0.085775	-0.117048
O35	O	1.660934	0.164225	0.132952
O36	O	1.910934	0.414225	0.382952
O37	O	1.054844	-0.139431	-0.467548
O38	O	1.304844	0.110569	-0.217548
O39	O	1.554844	0.360569	0.032452
O40	O	1.804844	0.610569	0.282452
O41	O	0.963550	-0.257248	-0.234451
O42	O	1.213550	-0.007248	0.015549
O43	O	1.463550	0.242752	0.265549
O44	O	1.713550	0.492752	0.515549
O45	O	0.849291	-0.261788	-0.356361
O46	O	1.099291	-0.011788	-0.106361
O47	O	1.349291	0.238212	0.143639
O48	O	1.599291	0.488212	0.393639
O49	O	0.960103	-0.343755	-0.581327
O50	O	1.210103	-0.093755	-0.331327
O51	O	1.460103	0.156245	-0.081327
O52	O	1.710103	0.406245	0.168673
O53	O	0.845788	-0.348361	-0.448719
O54	O	1.095788	-0.098361	-0.198719
O55	O	1.345788	0.151639	0.051281
O56	O	1.595788	0.401639	0.301281
O57	O	1.050220	-0.253691	-0.589443
O58	O	1.300220	-0.003691	-0.339443
O59	O	1.550220	0.246309	-0.089443
O60	O	1.800220	0.496309	0.160557
O61	O	1.041996	-0.454641	-0.356335
O62	O	1.291996	-0.204641	-0.106335
O63	O	1.541996	0.045359	0.143665
O64	O	1.791996	0.295359	0.393665
O65	O	0.955424	-0.458081	-0.448704
O66	O	1.205424	-0.208081	-0.198704
O67	O	1.455424	0.041919	0.051296
O68	O	1.705424	0.291919	0.301296
C69	C	0.821961	-0.306099	-0.401343
C70	C	1.071961	-0.056099	-0.151343
C71	C	1.321961	0.193901	0.098657
C72	C	1.571961	0.443901	0.348657
C73	C	0.743602	-0.309252	-0.397694
C74	C	0.993602	-0.059252	-0.147694
C75	C	1.243602	0.190748	0.102306
C76	C	1.493602	0.440748	0.352306
C77	C	0.708633	-0.265704	-0.448370
C78	C	0.958633	-0.015704	-0.198370
C79	C	1.208633	0.234296	0.051630
C80	C	1.458633	0.484296	0.301630
C81	C	0.635006	-0.268663	-0.444935
C82	C	0.885006	-0.018663	-0.194935
C83	C	1.135006	0.231337	0.055065
C84	C	1.385006	0.481337	0.305065
C85	C	0.596351	-0.315174	-0.390826
C86	C	0.846351	-0.065174	-0.140826
C87	C	1.096351	0.184826	0.109174
C88	C	1.346351	0.434826	0.359174
C89	C	0.631326	-0.358723	-0.340144
C90	C	0.881326	-0.108723	-0.090144
C91	C	1.131326	0.141277	0.159856
C92	C	1.381326	0.391277	0.409856
C93	C	0.704950	-0.355760	-0.343577
C94	C	0.954950	-0.105760	-0.093577
C95	C	1.204950	0.144240	0.156423
C96	C	1.454950	0.394240	0.406423
C97	C	0.375959	-0.328861	-0.374939
C98	C	0.625959	-0.078861	-0.124939
C99	C	0.875959	0.171139	0.125061
C100	C	1.125959	0.421139	0.375061
C101	C	0.302329	-0.331822	-0.371512
C102	C	0.552329	-0.081822	-0.121512
C103	C	0.802329	0.168178	0.128488
C104	C	1.052329	0.418178	0.378488
C105	C	0.306015	-0.241761	-0.476302
C106	C	0.556015	0.008239	-0.226302
C107	C	0.806015	0.258239	0.023698
C108	C	1.056015	0.508239	0.273698
C109	C	0.379641	-0.238805	-0.479733
C110	C	0.629641	0.011195	-0.229733
C111	C	0.879641	0.261195	0.020267
C112	C	1.129641	0.511195	0.270267
C113	C	0.414609	-0.282352	-0.429048
C114	C	0.664609	-0.032352	-0.179048
C115	C	0.914609	0.217648	0.070952
C116	C	1.164609	0.467648	0.320952
N117	N	0.521093	-0.318201	-0.387315
N118	N	0.771093	-0.068201	-0.137315
N119	N	1.021093	0.181799	0.112685
N120	N	1.271093	0.431799	0.362685
N121	N	0.489865	-0.279321	-0.432557
N122	N	0.739865	-0.029321	-0.182557
N123	N	0.989865	0.220679	0.067443
N124	N	1.239865	0.470679	0.317443
C125	C	0.997688	-0.481941	-0.401337
C126	C	1.247688	-0.231941	-0.151337
C127	C	1.497688	0.018059	0.098663
C128	C	1.747688	0.268059	0.348663
C129	C	0.994572	-0.560300	-0.397697
C130	C	1.244572	-0.310300	-0.147697
C131	C	1.494572	-0.060300	0.102303
C132	C	1.744572	0.189700	0.352303
C133	C	1.038170	-0.595237	-0.448337
C134	C	1.288170	-0.345237	-0.198337
C135	C	1.538170	-0.095237	0.051663
C136	C	1.788170	0.154763	0.301663
C137	C	1.035239	-0.668864	-0.444918
C138	C	1.285239	-0.418864	-0.194918
C139	C	1.535239	-0.168864	0.055082
C140	C	1.785239	0.081136	0.305082
C141	C	0.988713	-0.707553	-0.390854
C142	C	1.238713	-0.457553	-0.140854
C143	C	1.488713	-0.207553	0.109146
C144	C	1.738713	0.042447	0.359146
C145	C	0.945111	-0.672611	-0.340211
C146	C	1.195111	-0.422611	-0.090211
C147	C	1.445111	-0.172611	0.159789
C148	C	1.695111	0.077389	0.409789
C149	C	0.948038	-0.598986	-0.343635
C150	C	1.198038	-0.348986	-0.093635
C151	C	1.448038	-0.098986	0.156365
C152	C	1.698038	0.151014	0.406365
C153	C	0.975121	-0.927951	-0.375004
C154	C	1.225121	-0.677951	-0.125004
C155	C	1.475121	-0.427951	0.124996
C156	C	1.725121	-0.177951	0.374996
C157	C	0.972198	-1.001582	-0.371582
C158	C	1.222198	-0.751582	-0.121582
C159	C	1.472198	-0.501582	0.128418
C160	C	1.722198	-0.251582	0.378418
C161	C	1.062325	-0.997830	-0.476291
C162	C	1.312325	-0.747830	-0.226291
C163	C	1.562325	-0.497830	0.023709
C164	C	1.812325	-0.247830	0.273709
C165	C	1.065252	-0.924203	-0.479706
C166	C	1.315252	-0.674203	-0.229706
C167	C	1.565252	-0.424203	0.020294
C168	C	1.815252	-0.174203	0.270294
C169	C	1.021647	-0.889267	-0.429066
C170	C	1.271647	-0.639267	-0.179066
C171	C	1.521647	-0.389267	0.070934
C172	C	1.771647	-0.139267	0.320934
N173	N	0.985718	-0.782811	-0.387355
N174	N	1.235718	-0.532811	-0.137355
N175	N	1.485718	-0.282811	0.112645
N176	N	1.735718	-0.032811	0.362645
N177	N	1.024640	-0.814010	-0.432569
N178	N	1.274640	-0.564010	-0.182569
N179	N	1.524640	-0.314010	0.067431
N180	N	1.774640	-0.064010	0.317431
C181	C	1.189001	-0.291411	-0.418521
C182	C	1.439001	-0.041411	-0.168521
C183	C	1.689001	0.208589	0.081479
C184	C	1.939001	0.458589	0.331479
C185	C	1.267359	-0.288275	-0.422189
C186	C	1.517359	-0.038275	-0.172189
C187	C	1.767359	0.211725	0.077811
C188	C	2.017359	0.461725	0.327811
C189	C	1.005168	-0.298715	-0.614664
C190	C	1.255168	-0.048715	-0.364664
C191	C	1.505168	0.201285	-0.114664
C192	C	1.755168	0.451285	0.135336
C193	C	1.005187	-0.298692	-0.701916
C194	C	1.255187	-0.048692	-0.451916
C195	C	1.505187	0.201308	-0.201916
C196	C	1.755187	0.451308	0.048084
C197	C	1.012607	-0.114881	-0.418545
C198	C	1.262607	0.135119	-0.168545
C199	C	1.512607	0.385119	0.081455
C200	C	1.762607	0.635119	0.331455
C201	C	1.015796	-0.036518	-0.422223
C202	C	1.265796	0.213482	-0.172223
C203	C	1.515796	0.463482	0.077777
C204	C	1.765796	0.713482	0.327777
C205	C	1.052113	-0.251793	-0.747134
C206	C	1.302113	-0.001793	-0.497134
C207	C	1.552113	0.248207	-0.247134
C208	C	1.802113	0.498207	0.002866
C209	C	1.052123	-0.251769	-0.829116
C210	C	1.302123	-0.001769	-0.579116
C211	C	1.552123	0.248231	-0.329116
C212	C	1.802123	0.498231	-0.079116
C213	C	1.005209	-0.298649	-0.865878
C214	C	1.255209	-0.048649	-0.615878
C215	C	1.505209	0.201351	-0.365878
C216	C	1.755209	0.451351	-0.115878
C217	C	0.958278	-0.345551	-0.820654
C218	C	1.208278	-0.095551	-0.570654
C219	C	1.458278	0.154449	-0.320654
C220	C	1.708278	0.404449	-0.070654
C221	C	0.958266	-0.345571	-0.738674
C222	C	1.208266	-0.095571	-0.488674
C223	C	1.458266	0.154429	-0.238674
C224	C	1.708266	0.404429	0.011326
C225	C	0.958308	-0.345507	-0.991528
C226	C	1.208308	-0.095507	-0.741528
C227	C	1.458308	0.154493	-0.491528
C228	C	1.708308	0.404493	-0.241528
C229	C	0.958321	-0.345488	-1.073514
C230	C	1.208321	-0.095488	-0.823514
C231	C	1.458321	0.154512	-0.573514
C232	C	1.708321	0.404512	-0.323514
C233	C	1.052165	-0.251705	-1.081970
C234	C	1.302165	-0.001705	-0.831970
C235	C	1.552165	0.248295	-0.581970
C236	C	1.802165	0.498295	-0.331970
C237	C	1.052153	-0.251725	-0.999989
C238	C	1.302153	-0.001725	-0.749989
C239	C	1.552153	0.248275	-0.499989
C240	C	1.802153	0.498275	-0.249989
C241	C	1.005222	-0.298628	-0.954771
C242	C	1.255222	-0.048628	-0.704771
C243	C	1.505222	0.201372	-0.454771
C244	C	1.755222	0.451372	-0.204771
C245	C	1.005121	-0.298770	-0.205967
C246	C	1.255121	-0.048770	0.044033
C247	C	1.505121	0.201230	0.294033
C248	C	1.755121	0.451230	0.544033
C249	C	1.005247	-0.298589	-0.118732
C250	C	1.255247	-0.048589	0.131268
C251	C	1.505247	0.201411	0.381268
C252	C	1.755247	0.451411	0.631268
H253	H	0.599847	-0.396590	-0.296084
H254	H	0.849847	-0.146590	-0.046084
H255	H	1.099847	0.103410	0.203916
H256	H	1.349847	0.353410	0.453916
F257	F	0.742167	-0.402110	-0.289640
F258	F	0.992167	-0.152110	-0.039640
F259	F	1.242167	0.097890	0.210360
F260	F	1.492167	0.347890	0.460360
F261	F	1.102113	-0.201788	-1.130095
F262	F	1.352113	0.048212	-0.880095
F263	F	1.602113	0.298212	-0.630095
F264	F	1.852113	0.548212	-0.380095
H265	H	1.076059	-0.563741	-0.492359
H266	H	1.326059	-0.313741	-0.242359
H267	H	1.576059	-0.063741	0.007641
H268	H	1.826059	0.186259	0.257641
F269	F	0.908385	-0.395378	-1.112637
F270	F	1.158385	-0.145378	-0.862637
F271	F	1.408385	0.104622	-0.612637
F272	F	1.658385	0.354622	-0.362637
H273	H	0.920082	-0.383690	-0.954713
H274	H	1.170082	-0.133690	-0.704713
H275	H	1.420082	0.116310	-0.454713
H276	H	1.670082	0.366310	-0.204713
H277	H	1.090318	-0.213619	-0.717208
H278	H	1.340318	0.036381	-0.467208
H279	H	1.590318	0.286381	-0.217208
H280	H	1.840318	0.536381	0.032792
F281	F	0.895588	-0.713789	-0.282678
F282	F	1.145588	-0.463789	-0.032678
F283	F	1.395588	-0.213789	0.217322
F284	F	1.645588	0.036211	0.467322
H285	H	1.070746	-0.697306	-0.486149
H286	H	1.320746	-0.447306	-0.236149
H287	H	1.570746	-0.197306	0.013851
H288	H	1.820746	0.052694	0.263851
F289	F	1.114770	-0.883033	-0.537250
F290	F	1.364770	-0.633033	-0.287250
F291	F	1.614770	-0.383033	-0.037250
F292	F	1.864770	-0.133033	0.212750
H293	H	0.740101	-0.227832	-0.492434
H294	H	0.990101	0.022168	-0.242434
H295	H	1.240101	0.272168	0.007566
H296	H	1.490101	0.522168	0.257566
F297	F	1.102087	-0.201834	-0.960866
F298	F	1.352087	0.048166	-0.710866
F299	F	1.602087	0.298166	-0.460866
F300	F	1.852087	0.548166	-0.210866
H301	H	0.404421	-0.364320	-0.333669
H302	H	0.654421	-0.114320	-0.083669
H303	H	0.904421	0.135680	0.166331
H304	H	1.154421	0.385680	0.416331
H305	H	1.090336	-0.213580	-0.865929
H306	H	1.340336	0.036420	-0.615929
H307	H	1.590336	0.286420	-0.365929
H308	H	1.840336	0.536420	-0.115929
F309	F	0.908319	-0.395486	-0.690549
F310	F	1.158319	-0.145486	-0.440549
F311	F	1.408319	0.104514	-0.190549
F312	F	1.658319	0.354514	0.059451
H313	H	0.277536	-0.206307	-0.517566
H314	H	0.527536	0.043693	-0.267566
H315	H	0.777536	0.293693	-0.017566
H316	H	1.027536	0.543693	0.232434
F317	F	1.108728	-1.035016	-0.530183
F318	F	1.358728	-0.785016	-0.280183
F319	F	1.608728	-0.535016	-0.030183
F320	F	1.858728	-0.285016	0.219817
F321	F	0.922679	-1.042756	-0.314034
F322	F	1.172679	-0.792756	-0.064034
F323	F	1.422679	-0.542756	0.185966
F324	F	1.672679	-0.292756	0.435966
H325	H	0.270857	-0.369700	-0.327450
H326	H	0.520857	-0.119700	-0.077450
H327	H	0.770857	0.130300	0.172550
H328	H	1.020857	0.380300	0.422550
H329	H	0.606538	-0.233204	-0.486202
H330	H	0.856538	0.016796	-0.236202
H331	H	1.106538	0.266796	0.013798
H332	H	1.356538	0.516796	0.263798
H333	H	0.939618	-0.899512	-0.333769
H334	H	1.189618	-0.649512	-0.083769
H335	H	1.439618	-0.399512	0.166231
H336	H	1.689618	-0.149512	0.416231
H337	H	0.411109	-0.200934	-0.523797
H338	H	0.661109	0.049066	-0.273797
H339	H	0.911109	0.299066	-0.023797
H340	H	1.161109	0.549066	0.226203
F341	F	0.901635	-0.561804	-0.289737
F342	F	1.151635	-0.311804	-0.039737
F343	F	1.401635	-0.061804	0.210263
F344	F	1.651635	0.188196	0.460263
F345	F	0.908346	-0.395441	-0.859782
F346	F	1.158346	-0.145441	-0.609782
F347	F	1.408346	0.104559	-0.359782
F348	F	1.658346	0.354559	-0.109782
