data_functionalizedCrystal
_audit_creation_method	'MofGen! by Chris Wilmer'
_symmetry_space_group_name_H-M	'P1'
_symmetry_Int_Tables_number	1
_symmetry_cell_setting	triclinic
loop_
_symmetry_equiv_pos_as_xyz
  x,y,z
_cell_length_a	6.394989
_cell_length_b	11.026607
_cell_length_c	10.065875
_cell_angle_alpha	100.697662
_cell_angle_beta	99.048558
_cell_angle_gamma	82.458136
loop_
_atom_site_label
_atom_site_type_symbol
_atom_site_fract_x
_atom_site_fract_y
_atom_site_fract_z
O1	O	0.855566	-1.641000	-0.113473
O2	O	0.755391	-1.286163	-0.113477
O3	O	0.503308	-1.468618	-0.113477
O4	O	1.107649	-1.458545	-0.113474
O5	O	0.551624	-1.433830	0.113512
O6	O	0.803707	-1.251375	0.113511
O7	O	0.903882	-1.606212	0.113515
Zn8	Zn	0.861466	-1.423270	0.149553
Zn9	Zn	0.797808	-1.469105	-0.149515
O10	O	1.155965	-1.423757	0.113515
C11	C	0.761068	-1.223275	0.000016
C12	C	0.705977	-1.087719	0.000014
C13	C	1.210376	-1.443143	0.000014
C14	C	1.448899	-1.449231	0.000010
C15	C	0.898204	-1.669100	0.000019
C16	C	0.953293	-1.804658	0.000012
N17	N	0.904912	-1.391998	0.353658
N18	N	0.754348	-1.500386	-0.353620
C19	C	0.858092	-1.016240	0.000014
C20	C	0.801156	-0.876135	0.000012
C21	C	0.812908	-1.458216	0.421437
C22	C	0.846366	-1.434158	0.578604
H23	H	1.030475	-1.058766	0.000023
H24	H	0.628756	-0.833618	-0.000024
H25	H	1.125689	-0.847177	0.000021
O26	O	0.689097	-1.546971	0.351898
C27	C	0.341069	-1.619125	0.307860
C28	C	0.481012	-1.518505	0.386688
H29	H	0.172815	-1.596160	0.335980
H30	H	0.335958	-1.622667	0.193492
H31	H	0.410894	-1.713099	0.335823
H32	H	0.411293	-1.424479	0.358840
H33	H	0.486120	-1.515072	0.501036
H34	H	0.533588	-1.045197	-0.000021
O35	O	0.969609	-1.345105	0.648110
C36	C	1.023127	-1.128221	0.692081
C37	C	0.883349	-1.228942	0.613305
H38	H	0.953465	-1.034284	0.663949
H39	H	1.028065	-1.124545	0.806457
H40	H	1.191443	-1.151295	0.664084
H41	H	0.714967	-1.205940	0.641187
H42	H	0.878591	-1.232596	0.498948
H43	H	0.650793	-1.574890	0.588059
O44	O	1.028149	-1.302950	0.423169
C45	C	1.081667	-1.086066	0.467140
C46	C	0.941889	-1.186786	0.388364
H47	H	1.012005	-0.992128	0.439008
H48	H	1.086605	-1.082390	0.581516
H49	H	1.249983	-1.109140	0.439143
H50	H	0.773507	-1.163784	0.416246
H51	H	0.937131	-1.190441	0.274007
