data_functionalizedCrystal
_audit_creation_method	'MofGen! by Chris Wilmer'
_symmetry_space_group_name_H-M	'P1'
_symmetry_Int_Tables_number	1
_symmetry_cell_setting	triclinic
loop_
_symmetry_equiv_pos_as_xyz
  x,y,z
_cell_length_a	16.120530
_cell_length_b	16.120484
_cell_length_c	10.686551
_cell_angle_alpha	91.292191
_cell_angle_beta	97.503409
_cell_angle_gamma	90.167327
loop_
_atom_site_label
_atom_site_type_symbol
_atom_site_fract_x
_atom_site_fract_y
_atom_site_fract_z
Zn1	Zn	1.299168	-0.355207	0.840318
Zn2	Zn	1.799168	0.144793	1.340318
Zn3	Zn	1.281321	-0.503929	0.639338
Zn4	Zn	1.781321	-0.003929	1.139338
Zn5	Zn	1.148285	-0.358860	0.618040
Zn6	Zn	1.648285	0.141140	1.118040
Zn7	Zn	1.152958	-0.487215	0.839163
Zn8	Zn	1.652958	0.012785	1.339163
O9	O	1.220433	-0.426303	0.734215
O10	O	1.720433	0.073697	1.234215
O11	O	1.413665	-0.380401	0.823054
O12	O	1.913665	0.119599	1.323054
O13	O	1.254249	-0.493209	0.459862
O14	O	1.754249	0.006791	0.959862
O15	O	1.173813	-0.242418	0.639095
O16	O	1.673813	0.257582	1.139095
O17	O	1.400554	-0.489666	0.675396
O18	O	1.900554	0.010334	1.175396
O19	O	1.284665	-0.239733	0.802402
O20	O	1.784665	0.260267	1.302402
O21	O	1.156508	-0.386628	0.444214
O22	O	1.656508	0.113372	0.944214
O23	O	1.032039	-0.370421	0.637975
O24	O	1.532039	0.129579	1.137975
O25	O	1.181778	-0.461180	1.015967
O26	O	1.681778	0.038820	1.515967
O27	O	1.035473	-0.464723	0.800433
O28	O	1.535473	0.035277	1.300433
O29	O	1.289197	-0.364194	1.016816
O30	O	1.789197	0.135806	1.516816
O31	O	1.258781	-0.617670	0.674276
O32	O	1.758781	-0.117670	1.174276
O33	O	1.164473	-0.605390	0.821086
O34	O	1.664473	-0.105390	1.321086
C35	C	1.003454	-0.416155	0.716769
C36	C	1.503454	0.083845	1.216769
C37	C	0.910631	-0.411833	0.709336
C38	C	1.410631	0.088167	1.209336
C39	C	0.740682	-0.403921	0.695777
C40	C	1.240682	0.096079	1.195777
C41	C	0.701026	-0.448741	0.772749
C42	C	1.201026	0.051259	1.272749
C43	C	0.606461	-0.444339	0.765205
C44	C	1.106461	0.055661	1.265205
C45	C	0.835256	-0.408322	0.703320
C46	C	1.335256	0.091678	1.203320
C47	C	1.210222	-0.641596	0.749896
C48	C	1.710222	-0.141596	1.249896
C49	C	1.205932	-0.733701	0.756653
C50	C	1.705932	-0.233701	1.256653
C51	C	1.198106	-0.902338	0.769015
C52	C	1.698106	-0.402338	1.269015
C53	C	1.242911	-0.949433	0.699447
C54	C	1.742911	-0.449433	1.199447
C55	C	1.238556	-1.043268	0.706325
C56	C	1.738556	-0.543268	1.206325
C57	C	1.202459	-0.808494	0.762138
C58	C	1.702459	-0.308494	1.262138
C59	C	1.438259	-0.436490	0.751730
C60	C	1.938259	0.063510	1.251730
C61	C	1.531083	-0.440832	0.759194
C62	C	2.031083	0.059168	1.259194
C63	C	1.238000	-0.410415	1.063476
C64	C	1.738000	0.089585	1.563476
C65	C	1.245485	-0.403645	1.203788
C66	C	1.745485	0.096355	1.703788
C67	C	1.230708	-0.210168	0.718502
C68	C	1.730708	0.289832	1.218502
C69	C	1.235087	-0.118065	0.711806
C70	C	1.735087	0.381935	1.211806
C71	C	1.202986	-0.442071	0.406234
C72	C	1.702986	0.057929	0.906234
C73	C	1.195673	-0.448615	0.265919
C74	C	1.695673	0.051385	0.765919
H75	H	1.284539	-0.919280	0.634720
H76	H	1.784539	-0.419280	1.134720
H77	H	0.738096	-0.490417	0.844315
H78	H	1.238096	0.009583	1.344315
N79	N	1.309572	-0.345778	1.275498
N80	N	1.809572	0.154222	1.775498
H81	H	1.349560	-0.378652	1.335761
H82	H	1.849560	0.121348	1.835761
H83	H	1.280283	-0.303191	1.324605
H84	H	1.780283	0.196809	1.824605
N85	N	1.142963	-0.942270	0.854744
N86	N	1.642963	-0.442270	1.354744
H87	H	1.147630	-1.004614	0.847559
H88	H	1.647630	-0.504614	1.347559
H89	H	1.082961	-0.925420	0.829139
H90	H	1.582961	-0.425420	1.329139
H91	H	1.147301	-0.492298	1.211770
H92	H	1.647301	0.007702	1.711770
N93	N	0.691581	-0.348738	0.600961
N94	N	1.191581	0.151262	1.100961
H95	H	0.659948	-0.306258	0.646713
H96	H	1.159948	0.193742	1.146713
H97	H	0.650718	-0.383614	0.542042
H98	H	1.150718	0.116386	1.042042
