data_functionalizedCrystal
_audit_creation_method	'MofGen! by Chris Wilmer'
_symmetry_space_group_name_H-M	'P1'
_symmetry_Int_Tables_number	1
_symmetry_cell_setting	triclinic
loop_
_symmetry_equiv_pos_as_xyz
  x,y,z
_cell_length_a	16.109301
_cell_length_b	9.065218
_cell_length_c	8.140239
_cell_angle_alpha	90.001686
_cell_angle_beta	89.997285
_cell_angle_gamma	95.761317
loop_
_atom_site_label
_atom_site_type_symbol
_atom_site_fract_x
_atom_site_fract_y
_atom_site_fract_z
O1	O	1.104587	-0.189628	-0.136606
O2	O	1.604587	0.310372	0.363394
O3	O	0.862706	-0.213227	-0.136609
O4	O	1.362706	0.286773	0.363391
O5	O	0.988646	0.013336	-0.136604
O6	O	1.488646	0.513336	0.363396
O7	O	0.978647	-0.416191	-0.136611
O8	O	1.478647	0.083809	0.363389
O9	O	0.988639	0.013338	0.136623
O10	O	1.488639	0.513338	0.636623
O11	O	0.862699	-0.213225	0.136618
O12	O	1.362699	0.286775	0.636618
O13	O	1.104580	-0.189626	0.136621
O14	O	1.604580	0.310374	0.636621
Zn15	Zn	0.983638	-0.201425	0.180000
Zn16	Zn	1.483638	0.298575	0.680000
Zn17	Zn	0.983648	-0.201428	-0.179988
Zn18	Zn	1.483648	0.298572	0.320012
O19	O	0.978640	-0.416188	0.136616
O20	O	1.478640	0.083812	0.636616
C21	C	0.831720	-0.212270	0.000004
C22	C	1.331720	0.287730	0.500004
C23	C	0.739403	-0.209404	0.000003
C24	C	1.239403	0.290596	0.500003
C25	C	0.987682	0.068300	0.000007
C26	C	1.487682	0.568300	0.500007
C27	C	0.984808	0.232074	-0.000001
C28	C	1.484808	0.732074	0.499999
C29	C	1.135565	-0.190583	0.000004
C30	C	1.635565	0.309417	0.500004
C31	C	1.227883	-0.193449	-0.000006
C32	C	1.727883	0.306551	0.499994
C33	C	1.449174	-0.065675	0.000005
C34	C	1.949174	0.434325	0.500005
C35	C	1.535915	-0.068379	0.000010
C36	C	2.035915	0.431621	0.500010
C37	C	1.518106	-0.337188	-0.000002
C38	C	2.018106	0.162812	0.499998
C39	C	1.431366	-0.334482	0.000004
C40	C	1.931366	0.165518	0.500004
C41	C	1.396903	-0.198721	-0.000001
C42	C	1.896903	0.301279	0.499999
C43	C	1.570383	-0.204131	-0.000001
C44	C	2.070383	0.295869	0.499999
C45	C	1.664432	-0.207065	0.000005
C46	C	2.164432	0.292935	0.500005
C47	C	1.302848	-0.195787	-0.000004
C48	C	1.802848	0.304213	0.499996
C49	C	0.979604	-0.471153	0.000002
C50	C	1.479604	0.028847	0.500002
C51	C	0.982478	-0.634926	-0.000001
C52	C	1.482478	-0.134926	0.499999
N53	N	0.983638	-0.201421	0.425683
N54	N	1.483638	0.298579	0.925683
N55	N	0.983654	-0.201419	-0.425671
N56	N	1.483654	0.298581	0.074329
H57	H	1.421116	0.044871	0.000004
H58	H	1.921116	0.544871	0.500004
H59	H	1.578471	0.039961	0.000017
H60	H	2.078471	0.539961	0.500017
C61	C	1.556019	-0.486513	-0.000018
C62	C	2.056019	0.013487	0.499982
H63	H	1.615164	-0.469072	-0.000039
H64	H	2.115164	0.030928	0.499961
H65	H	1.538146	-0.541301	0.095257
H66	H	2.038146	-0.041301	0.595257
H67	H	1.538144	-0.541283	-0.095316
H68	H	2.038144	-0.041283	0.404684
H69	H	1.388805	-0.442832	0.000005
H70	H	1.888805	0.057168	0.500005
