data_functionalizedCrystal
_audit_creation_method	'MofGen! by Chris Wilmer'
_symmetry_space_group_name_H-M	'P1'
_symmetry_Int_Tables_number	1
_symmetry_cell_setting	triclinic
loop_
_symmetry_equiv_pos_as_xyz
  x,y,z
_cell_length_a	25.639239
_cell_length_b	19.077312
_cell_length_c	19.076919
_cell_angle_alpha	94.668947
_cell_angle_beta	92.268407
_cell_angle_gamma	87.744840
loop_
_atom_site_label
_atom_site_type_symbol
_atom_site_fract_x
_atom_site_fract_y
_atom_site_fract_z
Zn1	Zn	-0.250395	1.061567	-0.355259
Zn2	Zn	0.249605	1.561567	0.144741
Zn3	Zn	-0.334449	1.066194	-0.237374
Zn4	Zn	0.165551	1.566194	0.262626
Zn5	Zn	-0.243662	0.948427	-0.242127
Zn6	Zn	0.256338	1.448427	0.257873
Zn7	Zn	-0.334427	0.943626	-0.359957
Zn8	Zn	0.165573	1.443626	0.140043
O9	O	-0.290733	1.004954	-0.298679
O10	O	0.209267	1.504954	0.201321
O11	O	-0.264371	1.160826	-0.335666
O12	O	0.235629	1.660826	0.164334
O13	O	-0.319597	1.054518	-0.139357
O14	O	0.180403	1.554518	0.360643
O15	O	-0.171393	0.963509	-0.257156
O16	O	0.328607	1.463509	0.242844
O17	O	-0.326125	1.164225	-0.249057
O18	O	0.173875	1.664225	0.250943
O19	O	-0.176339	1.046632	-0.340274
O20	O	0.323661	1.546632	0.159726
O21	O	-0.252896	0.967995	-0.142849
O22	O	0.247104	1.467995	0.357151
O23	O	-0.252875	0.849145	-0.261712
O24	O	0.247125	1.349145	0.238288
O25	O	-0.326089	0.955325	-0.457981
O26	O	0.173911	1.455325	0.042019
O27	O	-0.319560	0.845618	-0.348282
O28	O	0.180440	1.345618	0.151718
O29	O	-0.264350	1.041976	-0.454529
O30	O	0.235650	1.541976	0.045471
O31	O	-0.407608	1.049862	-0.253612
O32	O	0.092392	1.549862	0.246388
O33	O	-0.407592	0.959812	-0.343673
O34	O	0.092408	1.459812	0.156327
C35	C	-0.285485	0.821804	-0.306023
C36	C	0.214515	1.321804	0.193977
C37	C	-0.283253	0.743451	-0.309181
C38	C	0.216747	1.243451	0.190819
C39	C	-0.267203	0.302216	-0.331841
C40	C	0.232797	0.802216	0.168159
C41	C	-0.269310	0.375837	-0.328870
C42	C	0.230690	0.875837	0.171130
C43	C	-0.302458	0.414411	-0.282218
C44	C	0.197542	0.914411	0.217782
C45	C	-0.333506	0.379361	-0.238540
C46	C	0.166494	0.879361	0.261460
C47	C	-0.331401	0.305741	-0.241516
C48	C	0.168599	0.805741	0.258484
C49	C	-0.312196	0.634781	-0.268479
C50	C	0.187804	1.134781	0.231521
C51	C	-0.314297	0.708405	-0.265505
C52	C	0.185703	1.208405	0.234495
C53	C	-0.250102	0.704877	-0.355836
C54	C	0.249898	1.204877	0.144164
C55	C	-0.247998	0.631256	-0.358804
C56	C	0.252002	1.131256	0.141196
C57	C	-0.279047	0.596211	-0.315129
C58	C	0.220953	1.096211	0.184871
N59	N	-0.304611	0.489664	-0.279178
N60	N	0.195389	0.989664	0.220822
N61	N	-0.276897	0.520960	-0.318174
N62	N	0.223103	1.020960	0.181826
C63	C	-0.426571	1.004836	-0.298651
C64	C	0.073429	1.504836	0.201349
C65	C	-0.484686	1.004850	-0.298661
C66	C	0.015314	1.504850	0.201339
C67	C	-0.845054	1.051957	-0.251856
C68	C	-0.345054	1.551957	0.248144
C69	C	-0.899659	1.051984	-0.251865
C70	C	-0.399659	1.551984	0.248135
O71	O	-0.927896	1.091916	-0.212039
O72	O	-0.427896	1.591916	0.287961
N73	N	-0.926977	1.005076	-0.298721
N74	N	-0.426977	1.505076	0.201279
C75	C	-0.899687	0.958142	-0.345576
C76	C	-0.399687	1.458142	0.154424
O77	O	-0.927937	0.918245	-0.385432
O78	O	-0.427937	1.418245	0.114568
C79	C	-0.845083	0.958119	-0.345571
C80	C	-0.345083	1.458119	0.154429
C81	C	-0.817767	1.005026	-0.298707
C82	C	-0.317767	1.505026	0.201293
C83	C	-0.817739	1.098861	-0.204997
C84	C	-0.317739	1.598861	0.295003
C85	C	-0.763137	1.098833	-0.204988
C86	C	-0.263137	1.598833	0.295012
C87	C	-0.735851	1.051901	-0.251838
C88	C	-0.235851	1.551901	0.248162
C89	C	-0.763166	1.004998	-0.298698
C90	C	-0.263166	1.504998	0.201302
C91	C	-0.817794	0.911189	-0.392430
C92	C	-0.317794	1.411189	0.107570
C93	C	-0.763186	0.911170	-0.392420
C94	C	-0.263186	1.411170	0.107580
C95	C	-0.735871	0.958077	-0.345556
C96	C	-0.235871	1.458077	0.154444
C97	C	-0.681278	0.958038	-0.345539
C98	C	-0.181278	1.458038	0.154461
N99	N	-0.653960	1.004947	-0.298683
N100	N	-0.153960	1.504947	0.201317
C101	C	-0.681247	1.051878	-0.251833
C102	C	-0.181247	1.551878	0.248167
C103	C	-1.014359	0.958194	-0.345585
C104	C	-0.514359	1.458194	0.154415
C105	C	-1.068962	0.958213	-0.345588
C106	C	-0.568962	1.458213	0.154412
C107	C	-1.068931	1.052057	-0.251877
C108	C	-0.568931	1.552057	0.248123
C109	C	-1.014327	1.052034	-0.251871
C110	C	-0.514327	1.552034	0.248129
C111	C	-0.987042	1.005103	-0.298729
C112	C	-0.487042	1.505103	0.201271
C113	C	-0.566579	1.051816	-0.251817
C114	C	-0.066579	1.551816	0.248183
C115	C	-0.511973	1.051781	-0.251810
C116	C	-0.011973	1.551781	0.248190
C117	C	-0.512009	0.957941	-0.345523
C118	C	-0.012009	1.457941	0.154477
C119	C	-0.566610	0.957972	-0.345528
C120	C	-0.066610	1.457972	0.154472
C121	C	-0.593894	1.004915	-0.298672
C122	C	-0.093894	1.504915	0.201328
O123	O	-0.653007	0.918129	-0.385346
O124	O	-0.153007	1.418129	0.114654
O125	O	-0.652990	1.091775	-0.211990
O126	O	-0.152990	1.591775	0.288010
C127	C	-0.154365	1.005090	-0.298721
C128	C	0.345635	1.505090	0.201279
C129	C	-0.096254	1.005148	-0.298739
C130	C	0.403746	1.505148	0.201261
C131	C	-0.295968	0.997599	-0.482549
C132	C	0.204032	1.497599	0.017451
C133	C	-0.298199	0.994465	-0.560903
C134	C	0.201801	1.494465	-0.060903
C135	C	-0.296002	1.188818	-0.291307
C136	C	0.203998	1.688818	0.208693
C137	C	-0.298247	1.267171	-0.288165
C138	C	0.201753	1.767171	0.211835
C139	C	-0.267105	1.038105	-0.595918
C140	C	0.232895	1.538105	-0.095918
C141	C	-0.269199	1.035151	-0.669540
C142	C	0.230801	1.535151	-0.169540
C143	C	-0.302390	0.988561	-0.708146
C144	C	0.197610	1.488561	-0.208146
C145	C	-0.333485	0.944916	-0.673126
C146	C	0.166515	1.444916	-0.173126
C147	C	-0.331388	0.947867	-0.599505
C148	C	0.168612	1.447867	-0.099505
C149	C	-0.312106	0.974896	-0.928523
C150	C	0.187894	1.474896	-0.428523
C151	C	-0.314202	0.971951	-1.002149
C152	C	0.185798	1.471951	-0.502149
C153	C	-0.249914	1.062185	-0.998558
C154	C	0.250086	1.562185	-0.498558
C155	C	-0.247822	1.065135	-0.924935
C156	C	0.252178	1.565135	-0.424935
C157	C	-0.278916	1.021487	-0.889922
C158	C	0.221084	1.521487	-0.389922
N159	N	-0.304532	0.985543	-0.783400
N160	N	0.195468	1.485543	-0.283400
N161	N	-0.276770	1.024503	-0.814669
N162	N	0.223230	1.524503	-0.314669
C163	C	-0.285482	1.012320	-0.115523
C164	C	0.214518	1.512320	0.384477
C165	C	-0.283107	1.015591	-0.037164
C166	C	0.216893	1.515591	0.462836
H167	H	-0.221007	0.599853	-0.396796
H168	H	0.278993	1.099853	0.103204
O169	O	-0.364918	0.900789	-0.561734
O170	O	0.135082	1.400789	-0.061734
H171	H	-0.388351	0.867897	-0.600946
H172	H	0.111649	1.367897	-0.100946
H173	H	-0.243880	1.070689	-0.698046
H174	H	0.256120	1.570689	-0.198046
H175	H	-0.240207	0.270814	-0.369826
H176	H	0.259793	0.770814	0.130174
H177	H	-0.224824	0.733418	-0.391394
H178	H	0.275176	1.233418	0.108606
O179	O	-0.984929	0.907566	-0.396120
O180	O	-0.484929	1.407566	0.103880
H181	H	-0.958160	0.872985	-0.365970
H182	H	-0.458160	1.372985	0.134030
O183	O	-0.847158	1.149490	-0.154458
O184	O	-0.347158	1.649490	0.345542
H185	H	-0.873921	1.184088	-0.184597
H186	H	-0.373921	1.684088	0.315403
H187	H	-1.091197	0.920011	-0.383743
H188	H	-0.591197	1.420011	0.116257
H189	H	-0.244032	0.404368	-0.364438
H190	H	0.255968	0.904368	0.135562
H191	H	-0.240079	1.076046	-0.564490
H192	H	0.259921	1.576046	-0.064490
O193	O	-0.984872	1.102639	-0.201333
O194	O	-0.484872	1.602639	0.298667
H195	H	-0.961887	1.137203	-0.231479
H196	H	-0.461887	1.637203	0.268521
H197	H	-0.220796	1.103075	-0.893507
H198	H	0.279204	1.603075	-0.393507
H199	H	-0.840024	0.872989	-0.430588
H200	H	-0.340024	1.372989	0.069412
O201	O	-0.733755	0.860542	-0.442952
O202	O	-0.233755	1.360542	0.057048
H203	H	-0.761926	0.827927	-0.475531
H204	H	-0.261926	1.327927	0.024469
H205	H	-0.224599	1.097720	-1.027074
H206	H	0.275401	1.597720	-0.527074
H207	H	-0.341231	0.934009	-1.033580
H208	H	0.158769	1.434009	-0.533580
O209	O	-0.345677	0.596993	-0.221360
O210	O	0.154323	1.096993	0.278640
H211	H	-0.387470	0.610619	-0.232768
H212	H	0.112530	1.110619	0.267232
H213	H	-0.360498	0.410774	-0.200558
H214	H	0.139502	0.910774	0.299442
H215	H	-0.341292	0.739811	-0.227514
H216	H	0.158708	1.239811	0.272486
O217	O	-0.345613	0.927786	-0.890763
O218	O	0.154387	1.427786	-0.390763
H219	H	-0.369037	0.894887	-0.929979
H220	H	0.130963	1.394887	-0.429979
H221	H	-0.360508	0.906979	-0.704565
H222	H	0.139492	1.406979	-0.204565
H223	H	-0.356682	0.277208	-0.205952
H224	H	0.143318	0.777208	0.294048
H225	H	-0.489734	1.089979	-0.213645
H226	H	0.010266	1.589979	0.286355
H227	H	-0.588787	1.090043	-0.213664
H228	H	-0.088787	1.590043	0.286336
H229	H	-0.740900	1.137031	-0.166829
H230	H	-0.240900	1.637031	0.333171
O231	O	-0.596077	0.907380	-0.396070
O232	O	-0.096077	1.407380	0.103930
H233	H	-0.567927	0.874743	-0.428649
H234	H	-0.067927	1.374743	0.071351
O235	O	-1.098366	1.102692	-0.201354
O236	O	-0.598366	1.602692	0.298646
H237	H	-1.140925	1.094832	-0.209244
H238	H	-0.640925	1.594832	0.290756
O239	O	-0.482574	0.907325	-0.396058
O240	O	0.017426	1.407325	0.103942
H241	H	-0.440017	0.915197	-0.388180
H242	H	0.059983	1.415197	0.111820
