data_functionalizedCrystal
_audit_creation_method	'MofGen! by Chris Wilmer'
_symmetry_space_group_name_H-M	'P1'
_symmetry_Int_Tables_number	1
_symmetry_cell_setting	triclinic
loop_
_symmetry_equiv_pos_as_xyz
  x,y,z
_cell_length_a	18.215407
_cell_length_b	21.295418
_cell_length_c	21.295411
_cell_angle_alpha	89.975438
_cell_angle_beta	89.983429
_cell_angle_gamma	90.028835
loop_
_atom_site_label
_atom_site_type_symbol
_atom_site_fract_x
_atom_site_fract_y
_atom_site_fract_z
Zn1	Zn	1.125030	-0.250629	-0.355932
Zn2	Zn	1.124938	-0.355894	-0.250665
Zn3	Zn	1.001970	-0.250644	-0.250676
Zn4	Zn	1.001921	-0.355866	-0.355896
O5	O	1.063465	-0.303258	-0.303292
O6	O	1.228002	-0.264599	-0.341978
O7	O	1.108608	-0.341951	-0.162577
O8	O	1.018353	-0.162552	-0.264659
O9	O	1.227935	-0.341937	-0.264639
O10	O	1.108765	-0.162542	-0.341989
O11	O	1.018264	-0.264623	-0.162586
O12	O	0.898979	-0.264596	-0.264624
O13	O	1.018270	-0.341888	-0.443990
O14	O	0.898943	-0.341902	-0.341929
O15	O	1.108718	-0.264571	-0.444016
O16	O	1.108561	-0.443980	-0.264604
O17	O	1.018181	-0.443959	-0.341917
C18	C	0.872259	-0.303247	-0.303274
C19	C	0.790460	-0.303258	-0.303281
C20	C	0.602267	-0.343575	-0.343483
C21	C	0.525408	-0.343577	-0.343491
C22	C	0.525415	-0.262953	-0.263115
C23	C	0.602273	-0.262949	-0.263111
C24	C	0.640696	-0.303263	-0.303294
C25	C	0.486980	-0.303270	-0.303306
C26	C	0.403647	-0.303271	-0.303314
C27	C	0.724035	-0.303260	-0.303287
C28	C	1.063376	-0.466810	-0.303269
C29	C	1.063405	-0.536778	-0.303280
C30	C	1.110634	-1.036177	-0.343639
C31	C	1.110613	-0.970435	-0.343629
C32	C	1.063565	-0.937617	-0.303332
C33	C	1.016549	-0.970548	-0.263030
C34	C	1.016577	-1.036289	-0.263036
N35	N	0.999106	-0.834448	-0.298441
N36	N	0.999081	-0.771997	-0.298438
C37	C	1.063479	-0.739543	-0.303308
N38	N	1.127903	-0.771899	-0.308193
N39	N	1.127927	-0.834357	-0.308199
C40	C	1.063530	-0.866332	-0.303320
C41	C	1.110472	-0.635334	-0.343594
C42	C	1.110452	-0.569591	-0.343579
C43	C	1.016382	-0.569705	-0.262983
C44	C	1.016409	-0.635448	-0.262994
C45	C	1.063453	-0.668258	-0.303303
C46	C	1.255418	-0.303270	-0.303311
C47	C	1.337217	-0.303274	-0.303319
C48	C	1.063499	-0.303225	-0.467483
C49	C	1.063513	-0.303210	-0.537451
C50	C	1.063575	-0.139068	-0.303329
C51	C	1.063622	-0.069100	-0.303345
C52	C	1.110638	-0.343344	-1.036905
C53	C	1.110624	-0.343364	-0.971162
C54	C	1.063583	-0.303112	-0.938290
C55	C	1.016538	-0.262849	-0.971166
C56	C	1.016547	-0.262834	-1.036908
N57	N	1.057959	-0.248033	-0.835081
N58	N	1.057955	-0.248048	-0.772630
C59	C	1.063551	-0.303155	-0.740216
N60	N	1.069166	-0.358246	-0.772612
N61	N	1.069174	-0.358230	-0.835069
C62	C	1.063567	-0.303124	-0.867005
C63	C	1.110575	-0.343441	-0.636062
C64	C	1.110556	-0.343462	-0.570318
C65	C	1.016473	-0.262941	-0.570323
C66	C	1.016488	-0.262925	-0.636066
C67	C	1.063543	-0.303174	-0.668931
C68	C	1.063474	-0.303246	-0.139741
C69	C	1.063602	-0.303083	-0.069773
H70	H	0.494122	-0.376401	-0.376218
Cl71	Cl	0.477106	-0.212277	-0.212600
Cl72	Cl	0.957402	-0.212245	-0.929842
Cl73	Cl	0.957407	-0.929293	-0.212367
H74	H	0.633549	-0.376399	-0.376205
Cl75	Cl	1.169759	-0.393982	-0.929834
Cl76	Cl	0.957299	-0.676839	-0.212339
Cl77	Cl	0.650588	-0.212263	-0.212587
Cl78	Cl	1.169620	-0.676585	-0.394259
Cl79	Cl	1.169563	-0.528202	-0.394236
Cl80	Cl	1.169784	-0.393950	-1.078218
H81	H	1.148947	-1.062888	-0.376457
H82	H	1.148887	-0.376216	-0.662822
Cl83	Cl	1.169719	-0.929037	-0.394288
Cl84	Cl	0.957343	-0.212317	-0.677388
Cl85	Cl	0.957407	-0.212220	-1.078230
H86	H	0.978293	-1.063095	-0.230223
Cl87	Cl	1.169689	-0.394084	-0.528998
H88	H	0.978169	-0.230168	-0.543560
H89	H	0.978078	-0.542986	-0.230169
