data_functionalizedCrystal
_audit_creation_method	'MofGen! by Chris Wilmer'
_symmetry_space_group_name_H-M	'P1'
_symmetry_Int_Tables_number	1
_symmetry_cell_setting	triclinic
loop_
_symmetry_equiv_pos_as_xyz
  x,y,z
_cell_length_a	17.699083
_cell_length_b	17.019294
_cell_length_c	16.776229
_cell_angle_alpha	93.872869
_cell_angle_beta	89.997548
_cell_angle_gamma	83.339169
loop_
_atom_site_label
_atom_site_type_symbol
_atom_site_fract_x
_atom_site_fract_y
_atom_site_fract_z
O1	O	1.004145	0.099741	0.073022
O2	O	0.783775	0.112720	0.073938
O3	O	0.900107	-0.008613	0.065592
O4	O	0.887812	0.221074	0.081368
O5	O	0.900097	-0.008592	-0.066983
O6	O	0.783764	0.112741	-0.058637
O7	O	1.004134	0.099762	-0.059553
Zn8	Zn	0.893947	0.106255	-0.080144
Zn9	Zn	0.893962	0.106227	0.094529
O10	O	0.887802	0.221095	-0.051207
C11	C	0.755572	0.112265	0.007622
C12	C	0.671553	0.110870	0.007536
C13	C	0.622981	0.182090	0.012428
C14	C	0.544037	0.180774	0.012327
C15	C	0.513666	0.108238	0.007341
C16	C	0.562245	0.037013	0.002447
C17	C	0.641187	0.038329	0.002542
C18	C	0.243878	0.031703	0.002062
C19	C	0.164929	0.030392	0.001970
C20	C	0.146728	0.174147	0.011847
C21	C	0.225670	0.175463	0.011943
C22	C	0.274242	0.104239	0.007044
C23	C	0.359842	0.105666	0.007152
C24	C	0.428068	0.106810	0.007239
C25	C	0.899636	-0.037990	-0.002712
C26	C	0.898237	-0.125557	-0.008720
C27	C	0.897587	-0.166703	0.060723
C28	C	0.896268	-0.248980	0.055075
C29	C	0.895604	-0.290111	-0.020017
C30	C	0.896252	-0.248959	-0.089465
C31	C	0.897565	-0.166682	-0.083816
C32	C	0.891633	-0.538532	-0.040688
C33	C	0.890321	-0.620815	-0.046331
C34	C	0.890337	-0.620831	0.098210
C35	C	0.891655	-0.538553	0.103852
C36	C	0.892298	-0.497408	0.034404
C37	C	0.894258	-0.374212	-0.025792
C38	C	0.893639	-0.413307	0.040179
C39	C	1.032337	0.100217	0.006764
C40	C	1.116356	0.101612	0.006856
C41	C	0.888273	0.250472	0.017098
C42	C	0.889672	0.338039	0.023112
N43	N	0.893943	0.106273	-0.199354
C44	C	0.848121	0.058425	-0.747807
C45	C	0.848119	0.058432	-0.664354
C46	C	0.893965	0.106220	-0.619357
C47	C	0.939820	0.153999	-0.657818
C48	C	0.939826	0.153988	-0.741269
C49	C	0.939801	0.154046	-0.321267
C50	C	0.939790	0.154055	-0.237810
C51	C	0.848094	0.058490	-0.244352
C52	C	0.848100	0.058478	-0.327804
C53	C	0.893958	0.106254	-0.366257
C54	C	0.893961	0.106245	-0.456746
C55	C	0.893959	0.106234	-0.528869
N56	N	0.893972	0.106202	0.213739
H57	H	0.680735	-0.019665	-0.001441
H58	H	0.893720	-0.407710	-0.086932
H59	H	0.894174	-0.379814	0.101319
C60	C	0.131524	-0.049407	-0.003525
N61	N	0.106363	-0.109509	-0.007666
C62	C	0.892386	-0.493316	0.186459
N63	N	0.892939	-0.459243	0.248680
C64	C	0.528834	-0.042777	-0.003040
N65	N	0.503671	-0.102877	-0.007169
H66	H	0.898132	-0.133221	0.121872
H67	H	0.977152	0.192905	-0.621175
H68	H	0.504492	0.238768	0.016311
C69	C	0.889588	-0.666057	-0.128942
N70	N	0.889037	-0.700133	-0.191161
H71	H	0.283416	-0.026293	-0.001927
C72	C	0.895624	-0.294247	0.131469
N73	N	0.895163	-0.328344	0.189011
H74	H	0.889812	-0.654340	0.154751
C75	C	0.892344	-0.493284	-0.117084
N76	N	0.892880	-0.459199	-0.174630
H77	H	0.977162	0.192892	-0.772577
C78	C	0.895516	-0.294205	-0.172068
N79	N	0.894963	-0.328283	-0.234286
C80	C	0.898282	-0.121422	-0.160210
N81	N	0.898820	-0.087333	-0.217752
C82	C	0.797686	0.005854	-0.797296
N83	N	0.759700	-0.033747	-0.834569
H84	H	0.810785	0.019525	-0.633048
C85	C	0.259073	0.255258	0.017423
N86	N	0.284230	0.315362	0.021545
C87	C	0.990232	0.206623	-0.188315
N88	N	1.028223	0.246214	-0.151036
C89	C	0.990211	0.206637	-0.363552
N90	N	1.028171	0.246264	-0.395403
H91	H	0.810765	0.019567	-0.364436
H92	H	0.107171	0.232141	0.015831
C93	C	0.656381	0.261886	0.017912
N94	N	0.681535	0.321991	0.022039
C95	C	0.797717	0.005864	-0.202051
N96	N	0.759796	-0.033795	-0.170193
