data_functionalizedCrystal
_audit_creation_method	'MofGen! by Chris Wilmer'
_symmetry_space_group_name_H-M	'P1'
_symmetry_Int_Tables_number	1
_symmetry_cell_setting	triclinic
loop_
_symmetry_equiv_pos_as_xyz
  x,y,z
_cell_length_a	16.120530
_cell_length_b	18.215404
_cell_length_c	18.215399
_cell_angle_alpha	89.972485
_cell_angle_beta	92.916648
_cell_angle_gamma	92.880662
loop_
_atom_site_label
_atom_site_type_symbol
_atom_site_fract_x
_atom_site_fract_y
_atom_site_fract_z
Zn1	Zn	1.274544	0.350119	0.473096
Zn2	Zn	1.607877	0.683452	0.806429
Zn3	Zn	1.941211	1.016786	1.139762
Zn4	Zn	1.274443	0.473186	0.350026
Zn5	Zn	1.607776	0.806519	0.683359
Zn6	Zn	1.941110	1.139852	1.016692
Zn7	Zn	1.135127	0.343893	0.343810
Zn8	Zn	1.468460	0.677227	0.677144
Zn9	Zn	1.801794	1.010560	1.010477
Zn10	Zn	1.135091	0.466898	0.466821
Zn11	Zn	1.468424	0.800231	0.800154
Zn12	Zn	1.801758	1.133565	1.133488
O13	O	1.204801	0.408524	0.408438
O14	O	1.538135	0.741857	0.741772
O15	O	1.871468	1.075191	1.075105
O16	O	1.391196	0.371681	0.461997
O17	O	1.724530	0.705015	0.795330
O18	O	2.057863	1.038348	1.128664
O19	O	1.255935	0.456061	0.246216
O20	O	1.589268	0.789394	0.579549
O21	O	1.922602	1.122728	0.912882
O22	O	1.153678	0.241737	0.360985
O23	O	1.487012	0.575071	0.694319
O24	O	1.820345	0.908404	1.027652
O25	O	1.391122	0.462098	0.371578
O26	O	1.724455	0.795431	0.704912
O27	O	2.057789	1.128764	1.038245
O28	O	1.256108	0.246312	0.455970
O29	O	1.589441	0.579645	0.789304
O30	O	1.922774	0.912978	1.122637
O31	O	1.153580	0.361070	0.241649
O32	O	1.486914	0.694404	0.574983
O33	O	1.820247	1.027737	0.908316
O34	O	1.018457	0.354973	0.354901
O35	O	1.351790	0.688306	0.688234
O36	O	1.685123	1.021640	1.021568
O37	O	1.153617	0.451381	0.570639
O38	O	1.486950	0.784714	0.903972
O39	O	1.820284	1.118048	1.237306
O40	O	1.018430	0.445344	0.445276
O41	O	1.351763	0.778677	0.778610
O42	O	1.685097	1.112011	1.111943
O43	O	1.256073	0.365584	0.575249
O44	O	1.589406	0.698917	0.908582
O45	O	1.922739	1.032251	1.241915
O46	O	1.255900	0.575333	0.365494
O47	O	1.589233	0.908667	0.698827
O48	O	1.922567	1.242000	1.032161
O49	O	1.153519	0.570714	0.451303
O50	O	1.486852	0.904047	0.784636
O51	O	1.820186	1.237380	1.117970
C52	C	0.988193	0.398801	0.398734
C53	C	1.321527	0.732135	0.732067
C54	C	1.654860	1.065468	1.065400
C55	C	0.895527	0.394659	0.394600
C56	C	1.228861	0.727993	0.727933
C57	C	1.562194	1.061326	1.061266
C58	C	1.204717	0.599727	0.408409
C59	C	1.538051	0.933060	0.741742
C60	C	1.871384	1.266393	1.075076
C61	C	1.204758	0.681527	0.408425
C62	C	1.538091	1.014861	0.741758
C63	C	1.871424	1.348194	1.075091
C64	C	1.204852	0.408476	0.600393
C65	C	1.538185	0.741809	0.933727
C66	C	1.871519	1.075142	1.267060
C67	C	1.204874	0.408455	0.682193
C68	C	1.538207	0.741788	1.015527
C69	C	1.871540	1.075122	1.348860
C70	C	0.725866	0.387081	0.387058
C71	C	1.059199	0.720414	0.720391
C72	C	1.392532	1.053747	1.053725
C73	C	0.684577	0.430022	0.429872
C74	C	1.017911	0.763355	0.763205
C75	C	1.351244	1.096688	1.096539
C76	C	0.590172	0.425805	0.425676
C77	C	0.923505	0.759138	0.759009
C78	C	1.256838	1.092471	1.092342
C79	C	0.820280	0.391297	0.391253
C80	C	1.153613	0.724630	0.724587
C81	C	1.486946	1.057963	1.057920
C82	C	1.422255	0.418285	0.418181
C83	C	1.755588	0.751619	0.751514
C84	C	2.088922	1.084952	1.084848
C85	C	1.514921	0.422445	0.422333
C86	C	1.848254	0.755778	0.755666
C87	C	2.181588	1.089112	1.088999
C88	C	1.258197	0.872108	0.363846
C89	C	1.591530	1.205441	0.697180
C90	C	1.924863	1.538775	1.030513
C91	C	1.258235	0.948968	0.363870
C92	C	1.591569	1.282302	0.697203
C93	C	1.924902	1.615635	1.030537
C94	C	1.151534	0.944194	0.453142
C95	C	1.484867	1.277527	0.786475
C96	C	1.818200	1.610860	1.119808
C97	C	1.151500	0.867335	0.453121
C98	C	1.484833	1.200668	0.786455
C99	C	1.818166	1.534002	1.119788
C100	C	1.204830	0.831294	0.408469
C101	C	1.538163	1.164627	0.741803
C102	C	1.871496	1.497961	1.075136
C103	C	1.204903	0.985013	0.408513
C104	C	1.538236	1.318347	0.741847
C105	C	1.871569	1.651680	1.075180
C106	C	1.204945	1.068349	0.408539
C107	C	1.538278	1.401682	0.741873
C108	C	1.871611	1.735015	1.075206
C109	C	1.204789	0.747953	0.408444
C110	C	1.538123	1.081287	0.741778
C111	C	1.871456	1.414620	1.075111
C112	C	1.204914	1.216576	0.408498
C113	C	1.538247	1.549909	0.741831
C114	C	1.871580	1.883243	1.075165
C115	C	1.204975	1.134780	0.408558
C116	C	1.538308	1.468113	0.741891
C117	C	1.871642	1.801447	1.075225
C118	C	1.204799	0.408521	0.217232
C119	C	1.538132	0.741855	0.550565
C120	C	1.871465	1.075188	0.883898
C121	C	1.204939	0.408342	0.135440
C122	C	1.538272	0.741675	0.468773
C123	C	1.871605	1.075009	0.802106
C124	C	1.258241	0.363737	0.872790
C125	C	1.591575	0.697071	1.206123
C126	C	1.924908	1.030404	1.539456
C127	C	1.258251	0.363716	0.949649
C128	C	1.591585	0.697050	1.282982
C129	C	1.924918	1.030383	1.616316
C130	C	1.151565	0.453061	0.944837
C131	C	1.484898	0.786395	1.278171
C132	C	1.818232	1.119728	1.611504
C133	C	1.151551	0.453078	0.867980
C134	C	1.484885	0.786411	1.201313
C135	C	1.818218	1.119745	1.534646
C136	C	1.204894	0.408417	0.831958
C137	C	1.538228	0.741751	1.165291
C138	C	1.871561	1.075084	1.498625
C139	C	1.204918	0.408380	0.985675
C140	C	1.538251	0.741713	1.319008
C141	C	1.871585	1.075046	1.652342
C142	C	1.204928	0.408357	1.069009
C143	C	1.538262	0.741691	1.402343
C144	C	1.871595	1.075024	1.735676
C145	C	1.204883	0.408438	0.748618
C146	C	1.538216	0.741772	1.081952
C147	C	1.871550	1.075105	1.415285
H148	H	0.720130	0.469951	0.469678
H149	H	1.053463	0.803284	0.803012
H150	H	1.386797	1.136618	1.136345
H151	H	0.690315	0.347154	0.347255
H152	H	1.023649	0.680487	0.680589
H153	H	1.356982	1.013821	1.013922
O154	O	1.315724	0.833232	0.315698
O155	O	1.649057	1.166565	0.649032
O156	O	1.982390	1.499898	0.982365
H157	H	1.352846	0.874529	0.284680
H158	H	1.686179	1.207862	0.618013
H159	H	2.019512	1.541195	0.951346
O160	O	1.093936	0.823311	0.501256
O161	O	1.427269	1.156645	0.834590
O162	O	1.760603	1.489978	1.167923
H163	H	1.102881	0.763812	0.493746
H164	H	1.436214	1.097146	0.827080
H165	H	1.769547	1.430479	1.160413
H166	H	1.301675	0.327370	0.843463
H167	H	1.635008	0.660703	1.176797
H168	H	1.968341	0.994036	1.510130
O169	O	1.093984	0.501255	0.823941
O170	O	1.427317	0.834589	1.157274
O171	O	1.760650	1.167922	1.490608
H172	H	1.108238	0.559657	0.839305
H173	H	1.441571	0.892990	1.172638
H174	H	1.774905	1.226323	1.505972
O175	O	1.315794	0.315531	0.993692
O176	O	1.649128	0.648864	1.327026
O177	O	1.982461	0.982197	1.660359
H178	H	1.352887	0.284485	0.955729
H179	H	1.686220	0.617818	1.289063
H180	H	2.019553	0.951152	1.622396
H181	H	1.108137	0.489424	0.974176
H182	H	1.441470	0.822757	1.307509
H183	H	1.774803	1.156091	1.640843
H184	H	1.108113	0.973548	0.489494
H185	H	1.441446	1.306881	0.822828
H186	H	1.774779	1.640214	1.156161
O187	O	1.315790	0.992992	0.315737
O188	O	1.649123	1.326325	0.649070
O189	O	1.982457	1.659659	0.982404
H190	H	1.352861	0.955015	0.284682
H191	H	1.686194	1.288348	0.618016
H192	H	2.019527	1.621682	0.951349
