data_functionalizedCrystal
_audit_creation_method	'MofGen! by Chris Wilmer'
_symmetry_space_group_name_H-M	'P1'
_symmetry_Int_Tables_number	1
_symmetry_cell_setting	triclinic
loop_
_symmetry_equiv_pos_as_xyz
  x,y,z
_cell_length_a	8.559649
_cell_length_b	12.811415
_cell_length_c	7.681481
_cell_angle_alpha	78.833607
_cell_angle_beta	94.912730
_cell_angle_gamma	76.943994
loop_
_atom_site_label
_atom_site_type_symbol
_atom_site_fract_x
_atom_site_fract_y
_atom_site_fract_z
O1	O	2.105264	-0.024741	-0.142471
O2	O	1.639521	0.030103	-0.151233
O3	O	1.886638	-0.152947	-0.121993
O4	O	1.858146	0.158309	-0.171711
O5	O	1.917055	-0.175522	0.174471
O6	O	1.669937	0.007528	0.145231
O7	O	2.135680	-0.047316	0.153993
Zn8	Zn	1.907638	-0.023479	0.196682
Zn9	Zn	1.867563	0.006266	-0.193922
O10	O	1.888563	0.135734	0.124753
C11	C	1.595158	0.022972	-0.003665
C12	C	1.417657	0.035343	-0.005642
C13	C	1.901183	-0.203713	0.032541
C14	C	1.899185	-0.321345	0.051320
C15	C	1.862239	-0.517758	-0.236636
C16	C	1.860362	-0.628283	-0.219000
C17	C	1.893541	-0.652919	0.104225
C18	C	1.895418	-0.542394	0.086589
C19	C	1.879769	-0.474818	-0.083847
C20	C	1.881659	-0.364293	-0.101480
C21	C	1.914826	-0.388929	0.221743
C22	C	1.912948	-0.499454	0.239378
C23	C	2.180042	-0.040184	0.006421
C24	C	2.357543	-0.052555	0.008386
C25	C	1.874018	0.186500	-0.029785
C26	C	1.876014	0.304133	-0.048576
N27	N	1.935000	-0.043780	0.463259
N28	N	1.840214	0.026558	-0.460498
H29	H	1.868921	-0.309274	-0.240258
H30	H	1.743457	0.098353	0.452837
H31	H	1.441881	-0.137280	0.021919
H32	H	1.849511	-0.462738	-0.375411
H33	H	1.846081	-0.663239	-0.343418
H34	H	2.031775	-0.115573	0.549933
H35	H	1.906268	-0.707956	0.242985
H36	H	1.929107	-0.353957	0.346155
O37	O	1.316877	0.136379	-0.022030
C38	C	1.089495	0.275177	-0.196012
C39	C	1.203502	0.160728	-0.177645
H40	H	0.997826	0.294908	-0.321838
H41	H	1.023008	0.276053	-0.073689
H42	H	1.163341	0.339338	-0.206161
H43	H	1.129778	0.096502	-0.167547
H44	H	1.269996	0.159944	-0.299972
H45	H	1.925683	-0.554488	0.378142
