data_functionalizedCrystal
_audit_creation_method	'MofGen! by Chris Wilmer'
_symmetry_space_group_name_H-M	'P1'
_symmetry_Int_Tables_number	1
_symmetry_cell_setting	triclinic
loop_
_symmetry_equiv_pos_as_xyz
  x,y,z
_cell_length_a	12.594517
_cell_length_b	29.839131
_cell_length_c	12.594509
_cell_angle_alpha	89.965034
_cell_angle_beta	89.978673
_cell_angle_gamma	90.041220
loop_
_atom_site_label
_atom_site_type_symbol
_atom_site_fract_x
_atom_site_fract_y
_atom_site_fract_z
Zn1	Zn	1.627079	-0.178842	-0.601810
Zn2	Zn	1.626891	-0.253977	-0.423811
Zn3	Zn	1.449083	-0.178861	-0.423839
Zn4	Zn	1.448987	-0.253946	-0.601741
O5	O	1.538010	-0.216407	-0.512800
O6	O	1.776000	-0.188814	-0.578215
O7	O	1.603266	-0.244034	-0.274869
O8	O	1.472814	-0.115992	-0.447488
O9	O	1.775862	-0.244015	-0.447440
O10	O	1.603587	-0.115978	-0.578243
O11	O	1.472632	-0.188847	-0.274889
O12	O	1.300125	-0.188816	-0.447421
O13	O	1.472649	-0.243962	-0.750696
O14	O	1.300054	-0.243981	-0.578124
O15	O	1.603493	-0.188784	-0.750747
O16	O	1.603173	-0.316840	-0.447373
O17	O	1.472467	-0.316817	-0.578097
C18	C	1.261469	-0.216398	-0.512769
C19	C	1.143164	-0.216404	-0.512781
C20	C	1.073918	-0.186360	-0.441827
C21	C	1.003064	-0.227339	-0.415635
C22	C	1.003219	-0.175445	-0.538990
C23	C	1.073868	-0.257405	-0.486538
C24	C	1.074029	-0.205484	-0.609939
C25	C	1.003207	-0.246491	-0.583784
C26	C	1.537818	-0.333129	-0.512747
C27	C	1.537833	-0.383064	-0.512760
C28	C	1.606192	-0.692706	-0.444831
C29	C	1.606324	-0.880379	-0.444873
O30	O	1.664293	-0.904643	-0.387076
N31	N	1.538231	-0.903849	-0.512880
C32	C	1.470105	-0.880397	-0.580888
O33	O	1.412199	-0.904665	-0.638741
C34	C	1.469980	-0.692725	-0.580851
C35	C	1.538070	-0.669258	-0.512831
C36	C	1.674278	-0.669239	-0.376818
C37	C	1.674240	-0.622324	-0.376804
C38	C	1.606117	-0.598875	-0.444804
C39	C	1.538032	-0.622342	-0.512817
C40	C	1.401860	-0.669274	-0.648863
C41	C	1.401837	-0.622353	-0.648849
C42	C	1.469927	-0.598886	-0.580829
C43	C	1.469872	-0.551978	-0.580803
N44	N	1.537965	-0.528509	-0.512796
C45	C	1.606087	-0.551957	-0.444796
C46	C	1.470174	-0.978927	-0.580901
C47	C	1.470204	-1.025845	-0.580909
C48	C	1.606424	-1.025824	-0.444895
C49	C	1.606388	-0.978906	-0.444882
C50	C	1.538267	-0.955458	-0.512893
C51	C	1.606003	-0.453432	-0.444772
C52	C	1.605956	-0.406512	-0.444761
C53	C	1.469740	-0.406537	-0.580778
C54	C	1.469782	-0.453452	-0.580785
C55	C	1.537922	-0.476899	-0.512779
O56	O	1.411941	-0.527685	-0.638578
O57	O	1.664002	-0.527681	-0.386968
C58	C	1.606230	-0.739622	-0.444845
C59	C	1.538145	-0.763089	-0.512859
C60	C	1.470022	-0.739640	-0.580858
C61	C	1.538175	-0.810006	-0.512867
C62	C	1.606297	-0.833455	-0.444867
C63	C	1.674390	-0.809986	-0.376859
C64	C	1.674353	-0.763070	-0.376846
C65	C	1.401929	-0.763109	-0.648866
C66	C	1.401972	-0.810025	-0.648873
C67	C	1.470094	-0.833473	-0.580874
C68	C	1.815631	-0.216416	-0.512832
C69	C	1.933936	-0.216420	-0.512846
C70	C	1.538081	-0.216367	-0.790421
C71	C	1.538112	-0.216350	-0.908727
C72	C	1.538232	-0.099228	-0.512876
C73	C	1.538327	-0.049294	-0.512909
C74	C	1.466968	-0.246345	-0.977952
C75	C	1.564077	-0.257322	-1.048740
C76	C	1.441079	-0.205346	-1.048739
C77	C	1.635272	-0.227349	-0.977956
C78	C	1.512208	-0.175355	-0.977949
C79	C	1.609384	-0.186316	-1.048704
C80	C	1.538000	-0.216413	-0.236259
C81	C	1.538176	-0.216304	-0.117954
H82	H	1.105223	-0.196225	-0.692051
H83	H	1.729798	-0.743967	-0.321458
C84	C	1.680861	-0.380699	-0.369937
C85	C	1.764375	-0.348392	-0.416123
C86	C	1.839277	-0.322580	-0.341304
C87	C	1.830666	-0.329075	-0.220299
C88	C	1.747149	-0.361384	-0.174106
C89	C	1.672246	-0.387195	-0.248926
H90	H	1.770752	-0.343583	-0.505704
H91	H	1.901103	-0.298664	-0.375499
H92	H	1.886114	-0.309968	-0.164913
H93	H	1.740771	-0.366193	-0.084526
H94	H	1.610421	-0.411112	-0.214731
H95	H	0.971896	-0.236586	-0.333498
H96	H	0.972128	-0.140805	-0.561094
C97	C	1.690787	-0.152026	-1.090434
C98	C	1.809137	-0.157101	-1.062244
C99	C	1.890544	-0.122817	-1.103985
C100	C	1.853602	-0.083457	-1.173916
C101	C	1.735247	-0.078380	-1.202110
C102	C	1.653840	-0.112665	-1.160369
H103	H	1.836489	-0.186240	-1.010474
H104	H	1.978159	-0.126575	-1.083113
H105	H	1.913865	-0.058077	-1.204814
H106	H	1.707895	-0.049242	-1.253880
H107	H	1.566225	-0.108906	-1.181241
C108	C	1.115609	-0.304222	-0.456492
C109	C	1.086804	-0.345105	-0.525287
C110	C	1.128548	-0.391920	-0.495237
C111	C	1.199098	-0.397853	-0.396393
C112	C	1.227907	-0.356968	-0.327592
C113	C	1.186163	-0.310153	-0.357641
H114	H	1.034575	-0.340715	-0.598463
H115	H	1.107221	-0.422185	-0.546169
H116	H	1.229999	-0.432508	-0.374148
H117	H	1.280136	-0.361359	-0.254416
H118	H	1.207490	-0.279888	-0.306710
C119	C	1.749329	-0.835785	-0.302060
C120	C	1.870320	-0.829282	-0.310859
C121	C	1.945258	-0.855084	-0.236069
C122	C	1.899205	-0.887388	-0.152479
C123	C	1.778208	-0.893891	-0.143676
C124	C	1.703270	-0.868090	-0.218466
H125	H	1.904416	-0.805368	-0.372740
H126	H	2.034828	-0.850269	-0.242586
H127	H	1.954679	-0.906487	-0.097115
H128	H	1.744111	-0.917806	-0.081795
H129	H	1.613699	-0.872905	-0.211949
H130	H	1.661491	-0.472516	-0.389396
C131	C	1.394806	-0.380739	-0.655576
C132	C	1.403434	-0.387148	-0.776586
C133	C	1.328504	-0.361349	-0.851390
C134	C	1.244946	-0.329143	-0.805185
C135	C	1.236314	-0.322733	-0.684169
C136	C	1.311244	-0.348531	-0.609365
H137	H	1.465292	-0.410990	-0.810795
H138	H	1.334894	-0.366095	-0.940975
H139	H	1.189478	-0.310045	-0.860560
H140	H	1.174456	-0.298890	-0.649960
H141	H	1.304854	-0.343786	-0.519780
H142	H	0.972354	-0.271935	-0.643816
H143	H	1.729687	-0.603220	-0.321420
C144	C	1.326963	-0.695077	-0.723695
C145	C	1.205965	-0.688672	-0.714912
C146	C	1.131063	-0.714474	-0.789753
C147	C	1.177160	-0.746679	-0.873377
C148	C	1.298165	-0.753085	-0.882164
C149	C	1.373066	-0.727284	-0.807323
H150	H	1.171836	-0.664830	-0.653006
H151	H	1.041488	-0.709731	-0.783248
H152	H	1.121714	-0.765779	-0.928779
H153	H	1.332294	-0.776927	-0.944071
H154	H	1.462642	-0.732026	-0.813828
H155	H	1.490234	-0.140715	-0.946830
H156	H	1.358992	-0.196059	-1.079831
H157	H	1.729757	-0.688326	-0.321444
H158	H	1.104966	-0.160977	-0.381749
H159	H	1.586022	-0.291971	-1.079835
C160	C	1.395296	-1.051656	-0.655723
C161	C	1.320371	-1.025856	-0.730522
C162	C	1.245465	-1.051665	-0.805345
C163	C	1.245484	-1.103273	-0.805368
C164	C	1.320412	-1.129075	-0.730567
C165	C	1.395318	-1.103266	-0.655744
H166	H	1.320354	-0.987651	-0.730507
H167	H	1.189998	-1.032564	-0.860718
H168	H	1.190034	-1.122378	-0.860757
H169	H	1.320429	-1.167281	-0.730582
H170	H	1.450784	-1.122367	-0.600371
H171	H	1.661833	-0.959802	-0.389495
C172	C	1.395229	-0.953137	-0.655710
C173	C	1.441268	-0.920841	-0.739323
C174	C	1.366319	-0.895052	-0.814128
C175	C	1.245330	-0.901561	-0.805319
C176	C	1.199284	-0.933859	-0.721703
C177	C	1.274234	-0.959647	-0.646898
H178	H	1.530837	-0.916021	-0.745846
H179	H	1.400405	-0.871143	-0.876026
H180	H	1.189848	-0.882471	-0.860694
H181	H	1.109716	-0.938678	-0.715179
H182	H	1.240147	-0.983556	-0.585000
C183	C	1.326896	-0.596560	-0.723659
C184	C	1.205907	-0.603069	-0.714864
C185	C	1.130964	-0.577278	-0.789670
C186	C	1.177012	-0.544978	-0.873271
C187	C	1.298007	-0.538467	-0.882070
C188	C	1.372950	-0.564259	-0.807264
H189	H	1.171814	-0.626981	-0.652974
H190	H	1.041395	-0.582097	-0.783156
H191	H	1.121535	-0.525885	-0.928646
H192	H	1.332100	-0.514556	-0.943959
H193	H	1.462519	-0.559439	-0.813778
C194	C	1.746201	-0.239948	-0.936140
C195	C	1.766654	-0.242318	-0.815728
C196	C	1.877582	-0.254917	-0.773910
C197	C	1.968056	-0.265145	-0.852503
C198	C	1.947606	-0.262776	-0.972922
C199	C	1.836678	-0.250177	-1.014740
H200	H	1.699677	-0.234746	-0.757542
H201	H	1.892720	-0.256671	-0.684767
H202	H	2.050171	-0.274472	-0.821546
H203	H	2.014582	-0.270348	-1.031108
H204	H	1.821540	-0.248423	-1.103883
H205	H	1.661893	-1.044924	-0.389527
H206	H	1.414341	-0.472560	-0.636176
H207	H	1.346515	-0.829128	-0.704262
H208	H	1.346457	-0.744021	-0.704241
H209	H	1.406851	-0.271749	-0.946888
