data_functionalizedCrystal
_audit_creation_method	'MofGen! by Chris Wilmer'
_symmetry_space_group_name_H-M	'P1'
_symmetry_Int_Tables_number	1
_symmetry_cell_setting	triclinic
loop_
_symmetry_equiv_pos_as_xyz
  x,y,z
_cell_length_a	14.560438
_cell_length_b	20.016444
_cell_length_c	20.016444
_cell_angle_alpha	90.003000
_cell_angle_beta	60.003253
_cell_angle_gamma	59.998864
loop_
_atom_site_label
_atom_site_type_symbol
_atom_site_fract_x
_atom_site_fract_y
_atom_site_fract_z
Zr1	Zr	1.005231	0.643609	-0.087629
O2	O	1.196833	0.536931	-0.194304
O3	O	0.813630	0.676312	-0.054929
O4	O	1.005222	0.676311	-0.194300
O5	O	1.005248	0.536932	0.055007
O6	O	1.005215	0.786256	-0.194294
O7	O	1.005240	0.536931	-0.054933
O8	O	0.662491	0.786257	0.055015
O9	O	1.347972	0.536930	-0.194303
O10	O	0.892433	0.772309	-0.040977
O11	O	0.892444	0.690259	0.041066
O12	O	1.118019	0.690258	-0.123025
O13	O	1.118030	0.608207	-0.040982
Zr14	Zr	1.005231	0.818959	0.087721
Zr15	Zr	1.005220	0.818958	-0.087620
Zr16	Zr	1.005243	0.643609	0.087712
Zr17	Zr	1.246280	0.643608	-0.087626
Zr18	Zr	0.764183	0.818960	0.087718
O19	O	1.196833	0.786256	0.055021
O20	O	1.196816	0.786255	-0.194292
O21	O	1.196849	0.536931	0.055009
O22	O	0.813630	0.925637	0.194396
O23	O	0.813613	0.925636	-0.054916
O24	O	0.813646	0.676312	0.194384
O25	O	1.005215	0.925636	-0.054914
O26	O	1.005240	0.786257	0.194392
O27	O	1.005248	0.676312	0.194386
O28	O	1.005222	0.925636	0.055025
O29	O	1.347962	0.676310	-0.194296
O30	O	0.662500	0.786258	0.194388
O31	O	0.662491	0.925638	0.194395
O32	O	0.662482	0.925637	0.055022
O33	O	1.347981	0.536931	-0.054930
O34	O	1.347972	0.676310	-0.054923
O35	O	0.892444	0.772310	0.123117
O36	O	0.892433	0.854360	0.041074
O37	O	1.118019	0.772309	-0.040974
O38	O	1.118030	0.690258	0.041069
C39	C	0.703716	0.731284	0.000043
C40	C	0.601385	0.731285	0.000042
C41	C	1.005246	0.731285	0.219371
C42	C	1.005251	0.731285	0.293808
C43	C	1.005217	0.950620	0.000057
C44	C	1.005212	1.025060	0.000060
C45	C	0.553305	0.774111	-0.042785
C46	C	0.457147	0.774113	-0.042779
C47	C	0.457162	0.688455	0.042883
C48	C	0.553311	0.688459	0.042880
C49	C	0.601378	0.816937	-0.085624
C50	C	0.553299	0.859767	-0.128455
C51	C	0.457142	0.859768	-0.128448
C52	C	0.409063	0.816941	-0.085611
C53	C	1.306746	0.731283	0.000049
C54	C	1.409078	0.731283	0.000050
C55	C	1.005246	0.511948	0.000035
C56	C	1.005251	0.437507	0.000032
C57	C	0.887473	1.239147	0.042876
C58	C	0.887479	1.309088	0.042869
C59	C	1.122998	1.223413	-0.042789
C60	C	1.122992	1.153474	-0.042787
C61	C	1.005225	1.161344	0.000050
C62	C	1.005237	1.301224	0.000042
C63	C	1.005244	1.377057	0.000035
C64	C	1.005218	1.085506	0.000056
C65	C	1.005217	0.731283	-0.219279
C66	C	1.005212	0.731283	-0.293716
C67	C	1.122989	0.688452	0.422247
C68	C	1.122984	0.688449	0.492192
C69	C	0.887464	0.774117	0.577843
C70	C	0.887471	0.774114	0.507899
C71	C	1.005237	0.731284	0.430101
C72	C	1.005225	0.731284	0.569991
C73	C	1.005218	0.731282	0.645829
C74	C	1.005245	0.731285	0.354258
C75	C	0.703702	0.950620	0.000054
C76	C	0.601365	1.025061	0.000056
C77	C	0.703731	0.731285	0.219368
C78	C	0.601404	0.731286	0.293804
C79	C	0.703716	0.950621	0.219379
C80	C	0.601385	1.025062	0.293818
C81	C	1.306746	0.511947	-0.219287
C82	C	1.409078	0.437506	-0.293726
C83	C	1.306761	0.511947	0.000039
C84	C	1.409097	0.437507	0.000036
C85	C	1.306732	0.731282	-0.219276
C86	C	1.409059	0.731282	-0.293712
C87	C	0.553307	1.017189	-0.042780
C88	C	0.457164	1.087128	-0.042794
C89	C	0.409075	1.164937	0.000033
C90	C	0.457143	1.172807	0.042871
C91	C	0.553291	1.102869	0.042879
C92	C	0.553350	0.774116	0.371597
C93	C	0.457217	0.774113	0.441544
C94	C	0.409133	0.731285	0.433697
C95	C	0.457196	0.688449	0.355896
C96	C	0.553334	0.688448	0.285950
C97	C	0.553323	1.102857	0.285951
C98	C	0.457185	1.172809	0.355888
C99	C	0.409104	1.164964	0.433692
C100	C	0.457175	1.087161	0.441558
C101	C	0.553318	1.017211	0.371622
C102	C	1.457151	0.359710	-0.285858
C103	C	1.553319	0.289758	-0.355796
C104	C	1.601405	0.297603	-0.433600
C105	C	1.553328	0.375407	-0.441466
C106	C	1.457169	0.445357	-0.371530
C107	C	1.457166	0.445378	0.042865
C108	C	1.553335	0.375440	0.042859
C109	C	1.601427	0.297631	0.000030
C110	C	1.553355	0.289761	-0.042804
C111	C	1.457194	0.359698	-0.042803
C112	C	1.457113	0.774119	-0.285838
C113	C	1.553247	0.774134	-0.355772
C114	C	1.601331	0.731308	-0.433579
C115	C	1.553268	0.688470	-0.441451
C116	C	1.457129	0.688459	-0.371518
H117	H	0.679677	0.816939	-0.085636
N118	N	1.405308	0.529298	0.089057
H119	H	1.365429	0.535853	0.148970
H120	H	1.478727	0.535794	0.066518
H121	H	0.592460	0.953840	-0.077665
N122	N	0.305362	1.240368	0.000030
H123	H	0.338812	1.274036	-0.024344
H124	H	0.282255	1.223503	-0.033591
H125	H	1.417977	0.808993	-0.222490
N126	N	0.405271	1.256732	0.089060
H127	H	0.337067	1.299836	0.082552
H128	H	0.365439	1.263218	0.148956
H129	H	1.592527	0.226399	-0.077675
H130	H	1.418060	0.353278	-0.077677
N131	N	0.760469	1.393001	0.089058
H132	H	0.708986	1.399560	0.148973
H133	H	0.778437	1.436067	0.082493
N134	N	0.605116	1.111366	0.089087
H135	H	0.560052	1.171271	0.116215
H136	H	0.588374	1.084220	0.132149
N137	N	1.705143	0.222202	0.000032
H138	H	1.728287	0.239003	0.033668
H139	H	1.671614	0.188567	0.024388
H140	H	1.592459	0.381864	0.077743
H141	H	0.330818	1.221929	0.490632
N142	N	1.605071	0.820342	-0.347271
H143	H	1.560025	0.847462	-0.287368
H144	H	1.701593	0.781022	-0.374426
N145	N	1.705012	0.731331	-0.509003
H146	H	1.728149	0.764970	-0.492201
H147	H	1.784742	0.673306	-0.542646
N148	N	1.705113	0.222157	-0.509031
H149	H	1.784893	0.188494	-0.509056
H150	H	1.671531	0.188559	-0.509012
N151	N	1.605197	0.383862	-0.525386
H152	H	1.673402	0.327740	-0.568490
H153	H	1.531769	0.414781	-0.531871
H154	H	1.418028	0.508699	-0.377946
H155	H	0.592442	0.894641	-0.163326
H156	H	1.592433	0.653602	-0.504811
N157	N	0.760453	0.820324	0.661753
H158	H	0.685858	0.847457	0.656114
H159	H	0.755315	0.781003	0.692642
H160	H	0.418013	1.080786	0.504916
H161	H	0.791578	0.808993	0.514300
H162	H	1.218879	1.217015	-0.077664
H163	H	1.418014	0.653573	-0.377941
H164	H	0.592437	0.953869	0.378040
H165	H	0.417987	0.894648	-0.163316
N166	N	0.405334	1.078629	-0.088999
H167	H	0.450384	1.018724	-0.116120
H168	H	0.308813	1.105785	-0.049680
N169	N	0.605198	0.820315	0.380073
H170	H	0.560160	0.847441	0.439973
H171	H	0.701719	0.780987	0.352915
H172	H	0.418011	0.653586	0.077757
N173	N	0.305338	0.816950	-0.085593
H174	H	0.282167	0.850583	-0.119221
H175	H	0.338873	0.758920	-0.109947
H176	H	0.418095	0.808998	0.504886
H177	H	0.418031	0.653580	0.349518
N178	N	0.605173	0.642272	0.089074
H179	H	0.560137	0.615136	0.116208
H180	H	0.701694	0.599215	0.049748
H181	H	0.791580	1.245559	0.077754
N182	N	1.250004	1.069551	-0.088973
H183	H	1.232127	1.026440	-0.082472
H184	H	1.301432	1.063065	-0.148868
N185	N	1.405294	0.351237	-0.201947
H186	H	1.450355	0.291335	-0.207587
H187	H	1.422018	0.378397	-0.171057
N188	N	1.250002	0.642266	0.338338
H189	H	1.324595	0.615134	0.343979
H190	H	1.255146	0.599206	0.307441
H191	H	1.218869	0.653570	0.485790
H192	H	0.330851	0.731293	0.490658
N193	N	1.605159	0.205849	-0.347301
H194	H	1.560089	0.211500	-0.287399
H195	H	1.588437	0.174957	-0.374459
H196	H	0.592446	0.653573	0.222610
H197	H	0.592457	1.109261	0.222605
N198	N	0.405347	1.256719	0.347393
H199	H	0.450390	1.251067	0.287491
H200	H	0.308826	1.287610	0.374548
