data_functionalizedCrystal
_audit_creation_method	'MofGen! by Chris Wilmer'
_symmetry_space_group_name_H-M	'P1'
_symmetry_Int_Tables_number	1
_symmetry_cell_setting	triclinic
loop_
_symmetry_equiv_pos_as_xyz
  x,y,z
_cell_length_a	21.295418
_cell_length_b	19.077114
_cell_length_c	21.295412
_cell_angle_alpha	87.728154
_cell_angle_beta	89.957310
_cell_angle_gamma	87.655040
loop_
_atom_site_label
_atom_site_type_symbol
_atom_site_fract_x
_atom_site_fract_y
_atom_site_fract_z
Zn1	Zn	0.952299	0.279925	-0.366301
Zn2	Zn	1.452299	0.779925	0.133699
Zn3	Zn	0.947977	0.397625	-0.265259
Zn4	Zn	1.447977	0.897625	0.234741
Zn5	Zn	0.847022	0.279977	-0.261012
Zn6	Zn	1.347022	0.779977	0.238988
Zn7	Zn	0.842766	0.397621	-0.370455
Zn8	Zn	1.342766	0.897621	0.129545
O9	O	0.897516	0.338787	-0.315757
O10	O	1.397516	0.838787	0.184243
O11	O	1.039816	0.295519	-0.352936
O12	O	1.539816	0.795519	0.147064
O13	O	0.934558	0.382043	-0.176607
O14	O	1.434558	0.882043	0.323393
O15	O	0.864577	0.181478	-0.271463
O16	O	1.364577	0.681478	0.228537
O17	O	1.036641	0.381993	-0.278701
O18	O	1.536641	0.881993	0.221299
O19	O	0.941924	0.181440	-0.348818
O20	O	1.441924	0.681440	0.151182
O21	O	0.860387	0.295607	-0.173487
O22	O	1.360387	0.795607	0.326513
O23	O	0.758367	0.295602	-0.275492
O24	O	1.258367	0.795602	0.224508
O25	O	0.857323	0.381985	-0.457993
O26	O	1.357323	0.881985	0.042007
O27	O	0.755240	0.382035	-0.355899
O28	O	1.255240	0.882035	0.144101
O29	O	0.937796	0.295514	-0.454940
O30	O	1.437796	0.795514	0.045060
O31	O	0.930431	0.496117	-0.282729
O32	O	1.430431	0.996117	0.217271
O33	O	0.853132	0.496114	-0.360017
O34	O	1.353132	0.996114	0.139983
C35	C	0.733963	0.338824	-0.315686
C36	C	1.233963	0.838824	0.184314
C37	C	0.663994	0.338857	-0.315671
C38	C	1.163994	0.838857	0.184329
C39	C	0.890868	0.521653	-0.322298
C40	C	1.390868	1.021653	0.177702
C41	C	0.888081	0.599884	-0.325118
C42	C	1.388081	1.099884	0.174882
C43	C	0.927049	0.636616	-0.286237
C44	C	1.427049	1.136616	0.213763
C45	C	0.924432	0.710122	-0.288892
C46	C	1.424432	1.210122	0.211108
C47	C	0.882844	0.746896	-0.330427
C48	C	1.382844	1.246896	0.169573
C49	C	0.843875	0.710159	-0.369312
C50	C	1.343875	1.210159	0.130688
C51	C	0.846495	0.636654	-0.366659
C52	C	1.346495	1.136654	0.133341
C53	C	0.870689	0.966734	-0.342675
C54	C	1.370689	1.466734	0.157325
C55	C	0.868070	1.040244	-0.345324
C56	C	1.368070	1.540244	0.154676
C57	C	0.948629	1.040202	-0.264905
C58	C	1.448629	1.540202	0.235095
C59	C	0.951243	0.966696	-0.262253
C60	C	1.451243	1.466696	0.237747
C61	C	0.912276	0.929966	-0.301141
C62	C	1.412276	1.429966	0.198859
N63	N	0.880166	0.822031	-0.333141
N64	N	1.380166	1.322031	0.166859
N65	N	0.914957	0.854832	-0.298429
N66	N	1.414957	1.354832	0.201571
C67	C	0.629513	0.383922	-0.357481
C68	C	1.129513	0.883922	0.142519
C69	C	0.563771	0.383905	-0.357508
C70	C	1.063771	0.883905	0.142492
C71	C	0.532512	0.338830	-0.315715
C72	C	1.032512	0.838830	0.184285
C73	C	0.567001	0.293756	-0.273902
C74	C	1.067001	0.793756	0.226098
C75	C	0.632742	0.293769	-0.273880
C76	C	1.132742	0.793769	0.226120
N77	N	0.429435	0.333330	-0.260460
N78	N	0.929435	0.833330	0.239540
N79	N	0.366984	0.333321	-0.260483
N80	N	0.866984	0.833321	0.239517
C81	C	0.334439	0.338785	-0.315780
C82	C	0.834439	0.838785	0.184220
N83	N	0.366705	0.344271	-0.371056
N84	N	0.866705	0.844271	0.128944
N85	N	0.429161	0.344283	-0.371032
N86	N	0.929161	0.844283	0.128968
C87	C	0.461228	0.338809	-0.315735
C88	C	0.961228	0.838809	0.184265
C89	C	0.228674	0.383833	-0.357624
C90	C	0.728674	0.883833	0.142376
C91	C	0.162931	0.383811	-0.357652
C92	C	0.662931	0.883811	0.142348
C93	C	0.166162	0.293666	-0.274040
C94	C	0.666162	0.793666	0.225960
C95	C	0.231904	0.293685	-0.274017
C96	C	0.731904	0.793685	0.225983
C97	C	0.263155	0.338772	-0.315808
C98	C	0.763155	0.838772	0.184192
C99	C	1.061708	0.338750	-0.315829
C100	C	1.561708	0.838750	0.184171
C101	C	1.131676	0.338735	-0.315859
C102	C	1.631676	0.838735	0.184141
C103	C	0.904202	1.155207	-0.309212
C104	C	1.404202	1.655207	0.190788
C105	C	0.907038	1.076976	-0.306443
C106	C	1.407038	1.576976	0.193557
C107	C	0.897567	0.338743	-0.479946
C108	C	1.397567	0.838743	0.020054
C109	C	0.897589	0.338725	-0.549913
C110	C	1.397589	0.838725	-0.049913
C111	C	0.858978	0.293712	-0.581145
C112	C	1.358978	0.793712	-0.081145
C113	C	0.858977	0.293699	-0.646887
C114	C	1.358977	0.793699	-0.146887
C115	C	0.897596	0.338691	-0.681394
C116	C	1.397596	0.838691	-0.181394
C117	C	0.936209	0.383712	-0.650155
C118	C	1.436209	0.883712	-0.150155
C119	C	0.936205	0.383729	-0.584414
C120	C	1.436205	0.883729	-0.084414
N121	N	0.952509	0.344049	-0.784844
N122	N	1.452509	0.844049	-0.284844
N123	N	0.952511	0.344029	-0.847295
N124	N	1.452511	0.844029	-0.347295
C125	C	0.897610	0.338644	-0.879468
C126	C	1.397610	0.838644	-0.379468
N127	N	0.842706	0.333266	-0.846830
N128	N	1.342706	0.833266	-0.346830
N129	N	0.842705	0.333283	-0.784373
N130	N	1.342705	0.833283	-0.284373
C131	C	0.897605	0.338678	-0.752679
C132	C	1.397605	0.838678	-0.252679
C133	C	0.858994	0.293615	-0.981985
C134	C	1.358994	0.793615	-0.481985
C135	C	0.858991	0.293607	-1.047728
C136	C	1.358991	0.793607	-0.547728
C137	C	0.936230	0.383616	-1.050994
C138	C	1.436230	0.883616	-0.550994
C139	C	0.936227	0.383628	-0.985252
C140	C	1.436227	0.883628	-0.485252
C141	C	0.897610	0.338624	-0.950751
C142	C	1.397610	0.838624	-0.450751
C143	C	0.897503	0.338780	-0.152205
C144	C	1.397503	0.838780	0.347795
C145	C	0.897611	0.338600	-0.082231
C146	C	1.397611	0.838600	0.417769
H147	H	0.960911	0.606680	-0.252412
H148	H	1.460911	1.106680	0.247588
C149	C	0.996994	0.926250	-0.216569
C150	C	1.496994	1.426250	0.283431
H151	H	1.019831	0.958654	-0.193797
H152	H	1.519831	1.458654	0.306203
H153	H	0.973950	0.897624	-0.188078
H154	H	1.473950	1.397624	0.311922
H155	H	1.025435	0.897526	-0.239653
H156	H	1.525435	1.397526	0.260347
H157	H	0.810015	0.740106	-0.403133
H158	H	1.310015	1.240106	0.096867
C159	C	0.663887	0.433508	-0.403456
C160	C	1.163887	0.933508	0.096544
H161	H	0.633932	0.460340	-0.428365
H162	H	1.133932	0.960340	0.071635
H163	H	0.688382	0.464145	-0.380421
H164	H	1.188382	0.964145	0.119579
H165	H	0.690548	0.406624	-0.429956
H166	H	1.190548	0.906624	0.070044
H167	H	0.980354	1.070116	-0.233246
H168	H	1.480354	1.570116	0.266754
C169	C	0.978712	0.433106	-1.088944
C170	C	1.478712	0.933106	-0.588944
H171	H	0.973188	0.426647	-1.132571
H172	H	1.473188	0.926647	-0.632571
H173	H	0.967777	0.480401	-1.079851
H174	H	1.467777	0.980401	-0.579851
H175	H	1.021384	0.422792	-1.077832
H176	H	1.521384	0.922792	-0.577832
H177	H	0.541546	0.257054	-0.239875
H178	H	1.041546	0.757054	0.260125
H179	H	0.834212	1.070183	-0.379157
H180	H	1.334212	1.570183	0.120843
C181	C	0.525836	0.433437	-0.403536
C182	C	1.025836	0.933437	0.096464
H183	H	0.553865	0.460280	-0.428431
H184	H	1.053865	0.960280	0.071569
H185	H	0.501230	0.406511	-0.430036
H186	H	1.001230	0.906511	0.069964
H187	H	0.499019	0.464077	-0.380544
H188	H	0.999019	0.964077	0.119456
C189	C	0.816515	0.244121	-0.944028
C190	C	1.316515	0.744121	-0.444028
H191	H	0.822049	0.250570	-0.900402
H192	H	1.322049	0.750570	-0.400402
H193	H	0.773844	0.254428	-0.955138
H194	H	1.273844	0.754428	-0.455138
H195	H	0.827456	0.196824	-0.953123
H196	H	1.327456	0.696824	-0.453123
H197	H	0.827531	0.257069	-0.553058
H198	H	1.327531	0.757069	-0.053058
C199	C	0.670672	0.244200	-0.227883
C200	C	1.170672	0.744200	0.272117
H201	H	0.642642	0.217353	-0.202994
H202	H	1.142642	0.717353	0.297006
H203	H	0.697474	0.213576	-0.250903
H204	H	1.197474	0.713576	0.249097
H205	H	0.695295	0.271095	-0.201366
H206	H	1.195295	0.771095	0.298634
H207	H	0.827537	0.257041	-0.672321
H208	H	1.327537	0.757041	-0.172321
C209	C	0.978692	0.433199	-0.688110
C210	C	1.478692	0.933199	-0.188110
H211	H	0.973170	0.426737	-0.731736
H212	H	1.473170	0.926737	-0.231736
H213	H	0.967756	0.480495	-0.679020
H214	H	1.467756	0.980495	-0.179020
H215	H	1.021364	0.422887	-0.676995
H216	H	1.521364	0.922887	-0.176995
C217	C	0.978682	0.433240	-0.550057
C218	C	1.478682	0.933240	-0.050057
H219	H	1.001685	0.460033	-0.580022
H220	H	1.501685	0.960033	-0.080022
H221	H	0.953484	0.463916	-0.525486
H222	H	1.453484	0.963916	-0.025486
H223	H	1.007093	0.406310	-0.523473
H224	H	1.507093	0.906310	-0.023473
H225	H	0.140712	0.256962	-0.240014
H226	H	0.640712	0.756962	0.259986
C227	C	0.978702	0.433136	-0.950892
C228	C	1.478702	0.933136	-0.450892
H229	H	0.973165	0.426707	-0.906798
H230	H	1.473165	0.926707	-0.406798
H231	H	1.021374	0.422826	-0.961327
H232	H	1.521374	0.922826	-0.461327
H233	H	0.967760	0.480428	-0.963348
H234	H	1.467760	0.980428	-0.463348
C235	C	0.263054	0.433419	-0.403597
C236	C	0.763054	0.933419	0.096403
H237	H	0.233100	0.460248	-0.428510
H238	H	0.733100	0.960248	0.071490
H239	H	0.287545	0.464057	-0.380561
H240	H	0.787545	0.964057	0.119439
H241	H	0.289719	0.406535	-0.430094
H242	H	0.789719	0.906535	0.069906
C243	C	0.125001	0.433395	-0.403637
C244	C	0.625001	0.933395	0.096363
H245	H	0.153032	0.460255	-0.428515
H246	H	0.653032	0.960255	0.071485
H247	H	0.100371	0.406519	-0.430158
H248	H	0.600371	0.906519	0.069842
H249	H	0.098207	0.464017	-0.380602
H250	H	0.598207	0.964017	0.119398
H251	H	0.814765	0.606748	-0.398321
H252	H	1.314765	1.106748	0.101679
H253	H	0.956162	0.740026	-0.257231
H254	H	1.456162	1.240026	0.242769
C255	C	0.827817	0.926340	-0.385439
C256	C	1.327817	1.426340	0.114561
H257	H	0.802668	0.958771	-0.410547
H258	H	1.302668	1.458771	0.089453
H259	H	0.852899	0.897612	-0.411865
H260	H	1.352899	1.397612	0.088135
H261	H	0.801421	0.897722	-0.360283
H262	H	1.301421	1.397722	0.139717
C263	C	0.269834	0.244121	-0.228018
C264	C	0.769834	0.744121	0.271982
H265	H	0.241803	0.217277	-0.203127
H266	H	0.741803	0.717277	0.296873
H267	H	0.296635	0.213495	-0.251035
H268	H	0.796635	0.713495	0.248965
H269	H	0.294457	0.271018	-0.201503
H270	H	0.794457	0.771018	0.298497
H271	H	0.827546	0.256955	-1.073156
H272	H	1.327546	0.756955	-0.573156
