data_functionalizedCrystal
_audit_creation_method	'MofGen! by Chris Wilmer'
_symmetry_space_group_name_H-M	'P1'
_symmetry_Int_Tables_number	1
_symmetry_cell_setting	triclinic
loop_
_symmetry_equiv_pos_as_xyz
  x,y,z
_cell_length_a	13.635800
_cell_length_b	10.943632
_cell_length_c	11.168136
_cell_angle_alpha	88.106154
_cell_angle_beta	71.491317
_cell_angle_gamma	108.838880
loop_
_atom_site_label
_atom_site_type_symbol
_atom_site_fract_x
_atom_site_fract_y
_atom_site_fract_z
V1	V	-2.055801	-0.178649	0.393669
O2	O	-2.034692	0.008565	0.386206
O3	O	-2.044789	-0.354212	0.390947
O4	O	-2.043933	-0.175910	0.565375
O5	O	-2.035554	-0.170972	0.210570
V6	V	-2.294308	-0.156255	0.371772
O7	O	-2.193569	-0.227772	0.441701
O8	O	-2.381638	-0.107132	0.323741
O9	O	-2.193716	0.019308	0.374495
O10	O	-2.374115	-0.343469	0.379235
O11	O	-2.373252	-0.163933	0.554871
O12	O	-2.194572	-0.158994	0.200066
C13	C	-1.970099	-0.397010	0.384728
C14	C	-2.001821	-0.540536	0.383647
C15	C	-1.969006	-0.169567	0.607228
C16	C	-2.000031	-0.168489	0.747599
V17	V	-1.555801	-0.178649	0.393669
O18	O	-1.534692	0.008565	0.386206
O19	O	-1.544789	-0.354212	0.390947
O20	O	-1.543933	-0.175910	0.565375
O21	O	-1.535554	-0.170972	0.210570
V22	V	-1.794308	-0.156255	0.371772
O23	O	-1.693569	-0.227772	0.441701
O24	O	-1.881638	-0.107132	0.323741
O25	O	-1.693716	0.019308	0.374495
O26	O	-1.874115	-0.343469	0.379235
O27	O	-1.873252	-0.163933	0.554871
O28	O	-1.694572	-0.158994	0.200066
C29	C	-1.924280	-0.617688	0.376456
C30	C	-1.964202	-0.690329	0.274522
C31	C	-2.018437	-0.723632	0.483667
C32	C	-2.041303	-0.611273	0.281641
C33	C	-2.095547	-0.644582	0.490879
C34	C	-2.135524	-0.717186	0.388925
C35	C	-2.100077	0.062099	0.380709
C36	C	-2.057975	0.205623	0.381799
C37	C	-2.101170	-0.165342	0.158207
C38	C	-2.059763	-0.166414	0.017835
C39	C	-1.470099	-0.397010	0.384728
C40	C	-1.501821	-0.540536	0.383647
C41	C	-1.469006	-0.169567	0.607228
C42	C	-1.500031	-0.168489	0.747599
C43	C	-2.101313	-0.174132	0.816290
C44	C	-2.133381	-0.173018	0.961370
C45	C	-1.600077	0.062099	0.380709
C46	C	-1.557975	0.205623	0.381799
C47	C	-1.601170	-0.165342	0.158207
C48	C	-1.559763	-0.166414	0.017835
C49	C	-1.603414	-0.610772	0.389153
C50	C	-1.636203	-0.759113	0.388035
C51	C	-1.601313	-0.174132	0.816290
C52	C	-1.633381	-0.173018	0.961370
H53	H	-1.834650	-0.574204	0.371065
Cl54	Cl	-1.425802	-0.158967	0.926684
Cl55	Cl	-2.267345	-0.180484	1.052532
H56	H	-1.909001	-0.711083	0.183036
H57	H	-1.439121	-0.590226	0.378114
H58	H	-1.720147	-0.177855	1.020420
H59	H	-2.050643	-0.562501	0.196176
Cl60	Cl	-2.273863	-0.783930	0.397014
H61	H	-1.666118	-0.561084	0.394700
H62	H	-1.664279	-0.179779	0.767690
H63	H	-2.150708	-0.623796	0.582365
Cl64	Cl	-1.402800	-0.159746	0.822618
Cl65	Cl	-1.925802	-0.158967	0.926684
H66	H	-2.164279	-0.179779	0.767690
Cl67	Cl	-2.003959	-0.799150	0.615456
H68	H	-1.937060	-0.162824	0.796196
Cl69	Cl	-1.770575	-0.852322	0.395300
H70	H	-1.475860	-0.756475	0.376848
