data_functionalizedCrystal
_audit_creation_method	'MofGen! by Chris Wilmer'
_symmetry_space_group_name_H-M	'P1'
_symmetry_Int_Tables_number	1
_symmetry_cell_setting	triclinic
loop_
_symmetry_equiv_pos_as_xyz
  x,y,z
_cell_length_a	22.010155
_cell_length_b	23.532407
_cell_length_c	23.532407
_cell_angle_alpha	82.848678
_cell_angle_beta	89.999577
_cell_angle_gamma	89.996931
loop_
_atom_site_label
_atom_site_type_symbol
_atom_site_fract_x
_atom_site_fract_y
_atom_site_fract_z
O1	O	0.050455	-0.755264	-0.069127
O2	O	0.383789	-0.421930	0.264206
O3	O	0.717122	-0.088597	0.597540
O4	O	0.050474	-0.589400	-0.079130
O5	O	0.383807	-0.256067	0.254203
O6	O	0.717141	0.077266	0.587537
O7	O	0.050453	-0.677334	0.008803
O8	O	0.383786	-0.344000	0.342137
O9	O	0.717120	-0.010667	0.675470
O10	O	0.050476	-0.667330	-0.157060
O11	O	0.383810	-0.333997	0.176273
O12	O	0.717143	-0.000664	0.509607
O13	O	-0.050597	-0.677318	0.008790
O14	O	0.282736	-0.343984	0.342123
O15	O	0.616069	-0.010651	0.675457
O16	O	-0.050576	-0.589384	-0.079143
O17	O	0.282757	-0.256051	0.254190
O18	O	0.616090	0.077282	0.587523
O19	O	-0.050595	-0.755248	-0.069140
O20	O	0.282738	-0.421914	0.264193
O21	O	0.616072	-0.088581	0.597527
Cu22	Cu	-0.059812	-0.672315	-0.074143
Cu23	Cu	0.273521	-0.338981	0.259190
Cu24	Cu	0.606854	-0.005648	0.592524
Cu25	Cu	0.059691	-0.672333	-0.074127
Cu26	Cu	0.393025	-0.339000	0.259206
Cu27	Cu	0.726358	-0.005667	0.592539
O28	O	-0.050574	-0.667314	-0.157073
O29	O	0.282759	-0.333981	0.176260
O30	O	0.616093	-0.000648	0.509593
C31	C	-0.000049	-0.568176	-0.078882
C32	C	0.333285	-0.234843	0.254451
C33	C	0.666618	0.098490	0.587785
C34	C	-0.000042	-0.504959	-0.078116
C35	C	0.333291	-0.171626	0.255217
C36	C	0.666625	0.161707	0.588551
C37	C	-0.000074	-0.677071	0.030013
C38	C	0.333260	-0.343738	0.363346
C39	C	0.666593	-0.010404	0.696679
C40	C	-0.000078	-0.676305	0.093230
C41	C	0.333255	-0.342972	0.426563
C42	C	0.666588	-0.009638	0.759896
N43	N	-0.143865	-0.672305	-0.074153
N44	N	0.189469	-0.338972	0.259180
N45	N	0.522802	-0.005639	0.592513
C46	C	-0.563653	-0.711273	-0.035196
C47	C	-0.230320	-0.377939	0.298137
C48	C	0.103013	-0.044606	0.631471
C49	C	-0.627261	-0.711275	-0.035192
C50	C	-0.293928	-0.377942	0.298141
C51	C	0.039406	-0.044609	0.631475
O52	O	-0.660160	-0.744384	-0.002076
O53	O	-0.326827	-0.411050	0.331257
O54	O	0.006506	-0.077717	0.664590
N55	N	-0.659072	-0.672333	-0.074115
N56	N	-0.325739	-0.339000	0.259218
N57	N	0.007595	-0.005667	0.592551
C58	C	-0.627272	-0.633382	-0.113041
C59	C	-0.293938	-0.300049	0.220292
C60	C	0.039395	0.033285	0.553625
O61	O	-0.660170	-0.600259	-0.146148
O62	O	-0.326837	-0.266925	0.187185
O63	O	0.006497	0.066408	0.520519
C64	C	-0.563665	-0.633377	-0.113042
C65	C	-0.230332	-0.300044	0.220291
C66	C	0.103001	0.033289	0.553625
C67	C	-0.531858	-0.672326	-0.074120
C68	C	-0.198524	-0.338992	0.259213
C69	C	0.134809	-0.005659	0.592547
C70	C	-0.531846	-0.750217	0.003723
C71	C	-0.198513	-0.416884	0.337057
C72	C	0.134821	-0.083551	0.670390
C73	C	-0.468243	-0.750215	0.003719
C74	C	-0.134909	-0.416882	0.337052
C75	C	0.198424	-0.083549	0.670385
C76	C	-0.436447	-0.711268	-0.035205
C77	C	-0.103114	-0.377935	0.298128
C78	C	0.230220	-0.044602	0.631461
C79	C	-0.468255	-0.672324	-0.074125
C80	C	-0.134921	-0.338990	0.259209
C81	C	0.198412	-0.005657	0.592542
C82	C	-0.531866	-0.594424	-0.151965
C83	C	-0.198533	-0.261091	0.181368
C84	C	0.134800	0.072243	0.514702
C85	C	-0.468256	-0.594422	-0.151962
C86	C	-0.134922	-0.261089	0.181371
C87	C	0.198411	0.072245	0.514705
C88	C	-0.436448	-0.633370	-0.113040
C89	C	-0.103115	-0.300037	0.220293
C90	C	0.230219	0.033296	0.553627
C91	C	-0.372856	-0.633374	-0.113054
C92	C	-0.039522	-0.300041	0.220280
C93	C	0.293811	0.033292	0.553613
N94	N	-0.341045	-0.672317	-0.074130
N95	N	-0.007712	-0.338983	0.259203
N96	N	0.325622	-0.005650	0.592536
C97	C	-0.372841	-0.711263	-0.035206
C98	C	-0.039507	-0.377930	0.298127
C99	C	0.293826	-0.044597	0.631460
C100	C	-0.760850	-0.633395	-0.113036
C101	C	-0.427516	-0.300061	0.220297
C102	C	-0.094183	0.033272	0.553631
C103	C	-0.824455	-0.633402	-0.113039
C104	C	-0.491122	-0.300069	0.220295
C105	C	-0.157788	0.033265	0.553628
C106	C	-0.824440	-0.711294	-0.035188
C107	C	-0.491106	-0.377961	0.298145
C108	C	-0.157773	-0.044628	0.631478
C109	C	-0.760833	-0.711290	-0.035189
C110	C	-0.427500	-0.377956	0.298144
C111	C	-0.094167	-0.044623	0.631478
C112	C	-0.729039	-0.672337	-0.074113
C113	C	-0.395705	-0.339003	0.259221
C114	C	-0.062372	-0.005670	0.592554
C115	C	-0.239269	-0.711256	-0.035220
C116	C	0.094064	-0.377923	0.298114
C117	C	0.427397	-0.044590	0.631447
C118	C	-0.175660	-0.711252	-0.035229
C119	C	0.157673	-0.377919	0.298104
C120	C	0.491006	-0.044586	0.631437
C121	C	-0.175681	-0.633358	-0.113077
C122	C	0.157652	-0.300025	0.220256
C123	C	0.490986	0.033309	0.553589
C124	C	-0.239284	-0.633364	-0.113070
C125	C	0.094049	-0.300031	0.220264
C126	C	0.427382	0.033303	0.553597
C127	C	-0.271077	-0.672315	-0.074136
C128	C	0.062256	-0.338982	0.259197
C129	C	0.395590	-0.005649	0.592531
O130	O	-0.339916	-0.600282	-0.146151
O131	O	-0.006583	-0.266948	0.187182
O132	O	0.326751	0.066385	0.520516
O133	O	-0.339935	-0.744376	-0.002100
O134	O	-0.006601	-0.411043	0.331233
O135	O	0.326732	-0.077710	0.664567
N136	N	0.143744	-0.672347	-0.074112
N137	N	0.477077	-0.339014	0.259221
N138	N	0.810411	-0.005680	0.592555
C139	C	-0.000071	-0.776472	-0.069388
C140	C	0.333263	-0.443138	0.263945
C141	C	0.666596	-0.109805	0.597278
C142	C	-0.000073	-0.839689	-0.070154
C143	C	0.333260	-0.506355	0.263179
C144	C	0.666593	-0.173022	0.596513
C145	C	-0.000063	-0.105856	-0.125350
C146	C	0.333270	0.227477	0.207984
C147	C	0.666604	0.560810	0.541317
C148	C	-0.000067	-0.046456	-0.124638
C149	C	0.333267	0.286877	0.208695
C150	C	0.666600	0.620211	0.542029
O151	O	-0.000083	-0.009711	-0.168424
O152	O	0.333251	0.323622	0.164909
O153	O	0.666584	0.656955	0.498243
N154	N	-0.000073	-0.023830	-0.072362
N155	N	0.333260	0.309504	0.260972
N156	N	0.666593	0.642837	0.594305
C157	C	-0.000082	-0.060607	-0.020794
C158	C	0.333251	0.272726	0.312540
C159	C	0.666585	0.606059	0.645873
O160	O	-0.000088	-0.035908	0.023737
O161	O	0.333245	0.297426	0.357070
O162	O	0.666578	0.630759	0.690404
C163	C	-0.000082	-0.120006	-0.021506
C164	C	0.333251	0.213327	0.311828
C165	C	0.666584	0.546660	0.645161
C166	C	-0.000070	-0.142629	-0.073785
C167	C	0.333263	0.190704	0.259548
C168	C	0.666597	0.524038	0.592881
C169	C	-0.000051	-0.128479	-0.177625
C170	C	0.333282	0.204854	0.155708
C171	C	0.666615	0.538187	0.489042
C172	C	-0.000046	-0.187876	-0.178336
C173	C	0.333287	0.145458	0.154997
C174	C	0.666620	0.478791	0.488330
C175	C	-0.000053	-0.224649	-0.126772
C176	C	0.333280	0.108685	0.206561
C177	C	0.666614	0.442018	0.539895
C178	C	-0.000065	-0.202025	-0.074497
C179	C	0.333268	0.131308	0.258837
C180	C	0.666602	0.464641	0.592170
C181	C	-0.000096	-0.156783	0.030062
C182	C	0.333238	0.176550	0.363395
C183	C	0.666571	0.509884	0.696729
C184	C	-0.000097	-0.216185	0.029345
C185	C	0.333237	0.117148	0.362679
C186	C	0.666570	0.450481	0.696012
C187	C	-0.000084	-0.238808	-0.022934
C188	C	0.333249	0.094525	0.310399
C189	C	0.666583	0.427859	0.643732
C190	C	-0.000067	-0.298194	-0.023643
C191	C	0.333266	0.035139	0.309690
C192	C	0.666600	0.368472	0.643023
N193	N	-0.000061	-0.320820	-0.075920
N194	N	0.333273	0.012513	0.257414
N195	N	0.666606	0.345846	0.590747
C196	C	-0.000054	-0.284048	-0.127484
C197	C	0.333280	0.049286	0.205849
C198	C	0.666613	0.382619	0.539183
C199	C	-0.000082	0.064135	-0.019302
C200	C	0.333251	0.397468	0.314031
C201	C	0.666585	0.730802	0.647365
C202	C	-0.000077	0.123533	-0.018589
C203	C	0.333256	0.456866	0.314744
C204	C	0.666590	0.790200	0.648077
C205	C	-0.000063	0.137680	-0.122434
C206	C	0.333270	0.471014	0.210899
C207	C	0.666604	0.804347	0.544232
C208	C	-0.000064	0.078281	-0.123146
C209	C	0.333270	0.411615	0.210187
C210	C	0.666603	0.744948	0.543520
C211	C	-0.000076	0.041509	-0.071578
C212	C	0.333258	0.374842	0.261755
C213	C	0.666591	0.708176	0.595088
C214	C	-0.000043	-0.408784	-0.128974
C215	C	0.333291	-0.075451	0.204360
C216	C	0.666624	0.257882	0.537693
C217	C	-0.000035	-0.468186	-0.129680
C218	C	0.333298	-0.134853	0.203653
C219	C	0.666631	0.198480	0.536986
C220	C	-0.000052	-0.482329	-0.025836
C221	C	0.333281	-0.148995	0.307497
C222	C	0.666614	0.184338	0.640831
C223	C	-0.000057	-0.422932	-0.025129
C224	C	0.333277	-0.089598	0.308204
C225	C	0.666610	0.243735	0.641538
C226	C	-0.000054	-0.386160	-0.076702
C227	C	0.333279	-0.052827	0.256631
C228	C	0.666613	0.280506	0.589964
O229	O	-0.000054	-0.334974	0.020119
O230	O	0.333280	-0.001640	0.353453
O231	O	0.666613	0.331693	0.686786
O232	O	-0.000055	-0.308755	-0.172007
O233	O	0.333278	0.024578	0.161326
O234	O	0.666611	0.357911	0.494660
C235	C	-0.000046	-0.667577	-0.178283
C236	C	0.333288	-0.334244	0.155051
C237	C	0.666621	-0.000910	0.488384
C238	C	-0.000037	-0.668343	-0.241500
C239	C	0.333296	-0.335010	0.091833
C240	C	0.666629	-0.001676	0.425167
C241	C	-0.000050	-0.723539	0.492333
C242	C	0.333283	-0.390205	0.825666
C243	C	0.666616	-0.056872	1.158999
C244	C	-0.000046	-0.722827	0.551733
C245	C	0.333288	-0.389494	0.885066
C246	C	0.666621	-0.056160	1.218400
O247	O	-0.000028	-0.766613	0.588478
O248	O	0.333305	-0.433280	0.921811
O249	O	0.666639	-0.099946	1.255144
N250	N	-0.000040	-0.670551	0.574359
N251	N	0.333293	-0.337217	0.907693
N252	N	0.666627	-0.003884	1.241026
C253	C	-0.000033	-0.618983	0.537582
C254	C	0.333300	-0.285649	0.870915
C255	C	0.666634	0.047684	1.204248
O256	O	-0.000027	-0.574452	0.562281
O257	O	0.333306	-0.241119	0.895615
O258	O	0.666639	0.092215	1.228948
C259	C	-0.000033	-0.619695	0.478182
C260	C	0.333300	-0.286361	0.811516
C261	C	0.666633	0.046972	1.144849
C262	C	-0.000045	-0.671974	0.455560
C263	C	0.333288	-0.338641	0.788893
C264	C	0.666622	-0.005308	1.122227
C265	C	-0.000061	-0.775814	0.469710
C266	C	0.333272	-0.442481	0.803043
C267	C	0.666606	-0.109147	1.136376
C268	C	-0.000067	-0.776525	0.410313
C269	C	0.333266	-0.443192	0.743647
C270	C	0.666600	-0.109859	1.076980
C271	C	-0.000062	-0.724961	0.373540
C272	C	0.333271	-0.391628	0.706874
C273	C	0.666605	-0.058294	1.040207
C274	C	-0.000051	-0.672685	0.396164
C275	C	0.333282	-0.339352	0.729497
C276	C	0.666616	-0.006019	1.062830
C277	C	-0.000022	-0.568127	0.441406
C278	C	0.333311	-0.234794	0.774739
C279	C	0.666644	0.098540	1.108073
C280	C	-0.000022	-0.568844	0.382004
C281	C	0.333311	-0.235510	0.715337
C282	C	0.666645	0.097823	1.048670
C283	C	-0.000034	-0.621123	0.359381
C284	C	0.333300	-0.287790	0.692714
C285	C	0.666633	0.045543	1.026048
C286	C	-0.000052	-0.621832	0.299995
C287	C	0.333282	-0.288499	0.633328
C288	C	0.666615	0.044834	0.966661
N289	N	-0.000057	-0.674109	0.277368
N290	N	0.333276	-0.340775	0.610702
N291	N	0.666610	-0.007442	0.944035
C292	C	-0.000062	-0.725673	0.314141
C293	C	0.333271	-0.392340	0.647475
C294	C	0.666604	-0.059006	0.980808
C295	C	-0.000031	-0.617491	0.662324
C296	C	0.333302	-0.284158	0.995657
C297	C	0.666635	0.049176	1.328991
C298	C	-0.000035	-0.616778	0.721722
C299	C	0.333298	-0.283445	1.055055
C300	C	0.666631	0.049888	1.388389
C301	C	-0.000047	-0.720623	0.735869
C302	C	0.333287	-0.387290	1.069203
C303	C	0.666620	-0.053957	1.402536
C304	C	-0.000047	-0.721335	0.676470
C305	C	0.333286	-0.388002	1.009804
C306	C	0.666620	-0.054669	1.343137
C307	C	-0.000037	-0.669767	0.639698
C308	C	0.333297	-0.336434	0.973031
C309	C	0.666630	-0.003101	1.306365
C310	C	-0.000075	-0.727163	0.189405
C311	C	0.333258	-0.393829	0.522738
C312	C	0.666592	-0.060496	0.856071
C313	C	-0.000083	-0.727869	0.130003
C314	C	0.333250	-0.394536	0.463336
C315	C	0.666583	-0.061203	0.796669
C316	C	-0.000069	-0.624025	0.115860
C317	C	0.333264	-0.290692	0.449194
C318	C	0.666598	0.042642	0.782527
C319	C	-0.000064	-0.623318	0.175257
C320	C	0.333270	-0.289985	0.508591
C321	C	0.666603	0.043349	0.841924
C322	C	-0.000065	-0.674891	0.212029
C323	C	0.333269	-0.341558	0.545362
C324	C	0.666602	-0.008225	0.878695
O325	O	-0.000067	-0.578070	0.263215
O326	O	0.333267	-0.244736	0.596549
O327	O	0.666600	0.088597	0.929882
O328	O	-0.000060	-0.770196	0.289433
O329	O	0.333273	-0.436863	0.622767
O330	O	0.666607	-0.103529	0.956100
H331	H	-0.149765	-0.742971	-0.003534
H332	H	0.183569	-0.409638	0.329799
H333	H	0.516902	-0.076304	0.663132
N334	N	-0.000022	-0.513218	0.342350
N335	N	0.333311	-0.179884	0.675683
N336	N	0.666645	0.153449	1.009017
H337	H	-0.037485	-0.511191	0.317395
H338	H	0.295848	-0.177858	0.650728
H339	H	0.629181	0.155476	0.984061
H340	H	0.037458	-0.511229	0.317422
H341	H	0.370792	-0.177895	0.650755
H342	H	0.704125	0.155438	0.984088
N343	N	-0.433940	-0.792219	0.045704
N344	N	-0.100607	-0.458885	0.379038
N345	N	0.232726	-0.125552	0.712371
H346	H	-0.407548	-0.817313	0.024073
H347	H	-0.074215	-0.483979	0.357406
H348	H	0.259119	-0.150646	0.690739
H349	H	-0.463781	-0.816848	0.070350
H350	H	-0.130447	-0.483515	0.403684
H351	H	0.202886	-0.150181	0.737017
N352	N	-0.000045	-0.776242	0.775536
N353	N	0.333289	-0.442909	1.108870
N354	N	0.666622	-0.109575	1.442203
H355	H	-0.037507	-0.799062	0.768298
H356	H	0.295827	-0.465728	1.101631
H357	H	0.629160	-0.132395	1.434965
H358	H	-0.000017	-0.767807	0.816580
H359	H	0.333316	-0.434474	1.149914
H360	H	0.666649	-0.101141	1.483247
N361	N	-0.273554	-0.753270	0.006768
N362	N	0.059779	-0.419937	0.340102
N363	N	0.393112	-0.086604	0.673435
H364	H	-0.243745	-0.777940	0.031418
H365	H	0.089588	-0.444607	0.364751
H366	H	0.422922	-0.111274	0.698084
H367	H	-0.299940	-0.778323	-0.014910
H368	H	0.033393	-0.444990	0.318424
H369	H	0.366726	-0.111657	0.651757
N370	N	-0.566134	-0.792237	0.045701
N371	N	-0.232800	-0.458903	0.379034
N372	N	0.100533	-0.125570	0.712367
H373	H	-0.536323	-0.816906	0.070348
H374	H	-0.202990	-0.483573	0.403682
H375	H	0.130344	-0.150240	0.737015
H376	H	-0.592512	-0.817289	0.024014
H377	H	-0.259179	-0.483955	0.357348
H378	H	0.074154	-0.150622	0.690681
H379	H	-0.000056	-0.763906	0.658056
H380	H	0.333277	-0.430573	0.991389
H381	H	0.666611	-0.097239	1.324722
N382	N	-0.000094	-0.784261	0.105608
N383	N	0.333239	-0.450928	0.438941
N384	N	0.666572	-0.117594	0.772274
H385	H	0.037362	-0.786879	0.081275
H386	H	0.370695	-0.453546	0.414608
H387	H	0.704028	-0.120213	0.747942
H388	H	-0.037582	-0.786833	0.081311
H389	H	0.295751	-0.453499	0.414644
H390	H	0.629085	-0.120166	0.747977
N391	N	-0.000060	-0.566933	0.199662
N392	N	0.333274	-0.233599	0.532995
N393	N	0.666607	0.099734	0.866329
H394	H	-0.000059	-0.534375	0.167351
H395	H	0.333274	-0.201042	0.500684
H396	H	0.666607	0.132291	0.834017
H397	H	0.037406	-0.564382	0.223993
H398	H	0.370740	-0.231049	0.557326
H399	H	0.704073	0.102285	0.890660
N400	N	-0.000035	-0.369123	-0.184594
N401	N	0.333299	-0.035789	0.148740
N402	N	0.666632	0.297544	0.482073
H403	H	-0.037496	-0.344162	-0.186620
H404	H	0.295838	-0.010829	0.146713
H405	H	0.629171	0.322504	0.480046
H406	H	-0.000003	-0.392509	-0.217786
H407	H	0.333331	-0.059176	0.115547
H408	H	0.666664	0.274157	0.448881
N409	N	-0.000105	-0.255849	0.084965
N410	N	0.333229	0.077485	0.418299
N411	N	0.666562	0.410818	0.751632
H412	H	-0.037563	-0.280808	0.086979
H413	H	0.295770	0.052526	0.420313
H414	H	0.629103	0.385859	0.753646
H415	H	-0.000089	-0.232461	0.118157
H416	H	0.333244	0.100872	0.451490
H417	H	0.666577	0.434206	0.784823
H418	H	-0.000063	-0.817806	0.499645
H419	H	0.333270	-0.484473	0.832978
H420	H	0.666604	-0.151140	1.166312
H421	H	-0.000074	-0.819097	0.391900
H422	H	0.333259	-0.485763	0.725233
H423	H	0.666593	-0.152430	1.058567
H424	H	-0.000036	-0.574207	0.740136
H425	H	0.333297	-0.240874	1.073469
H426	H	0.666630	0.092460	1.406802
H427	H	-0.734939	-0.743004	-0.003495
H428	H	-0.401606	-0.409671	0.329838
H429	H	-0.068273	-0.076338	0.663172
N430	N	-0.858756	-0.591393	-0.155020
N431	N	-0.525423	-0.258060	0.178313
N432	N	-0.192089	0.075273	0.511647
H433	H	-0.903876	-0.597300	-0.149116
H434	H	-0.570543	-0.263966	0.184218
H435	H	-0.237210	0.069367	0.517551
H436	H	-0.847637	-0.597741	-0.195390
H437	H	-0.514304	-0.264407	0.137943
H438	H	-0.180971	0.068926	0.471277
N439	N	-0.726559	-0.591381	-0.155022
N440	N	-0.393225	-0.258047	0.178311
N441	N	-0.059892	0.075286	0.511644
H442	H	-0.756367	-0.566715	-0.179677
H443	H	-0.423034	-0.233381	0.153656
H444	H	-0.089700	0.099952	0.486990
H445	H	-0.700165	-0.613034	-0.180093
H446	H	-0.366832	-0.279701	0.153240
H447	H	-0.033498	0.053633	0.486573
N448	N	-0.000026	-0.561868	0.622664
N449	N	0.333308	-0.228535	0.955997
N450	N	0.666641	0.104799	1.289330
H451	H	-0.000023	-0.528647	0.646015
H452	H	0.333310	-0.195314	0.979349
H453	H	0.666643	0.138020	1.312682
H454	H	-0.037487	-0.559894	0.597711
H455	H	0.295846	-0.226560	0.931044
H456	H	0.629180	0.106773	1.264378
N457	N	-0.000078	-0.088822	-0.233245
N458	N	0.333255	0.244511	0.100088
N459	N	0.666588	0.577844	0.433421
H460	H	-0.000082	-0.112176	-0.266464
H461	H	0.333251	0.221157	0.066869
H462	H	0.666585	0.554490	0.400202
H463	H	0.037373	-0.063858	-0.235231
H464	H	0.370707	0.269475	0.098102
H465	H	0.704040	0.602809	0.431435
N466	N	-0.000080	-0.568411	0.076193
N467	N	0.333254	-0.235078	0.409526
N468	N	0.666587	0.098256	0.742860
H469	H	-0.000087	-0.576799	0.035132
H470	H	0.333246	-0.243466	0.368466
H471	H	0.666580	0.089867	0.701799
H472	H	0.037382	-0.545612	0.083476
H473	H	0.370715	-0.212279	0.416809
H474	H	0.704048	0.121054	0.750143
N475	N	-0.000017	-0.511739	0.465797
N476	N	0.333316	-0.178406	0.799130
N477	N	0.666649	0.154928	1.132463
H478	H	-0.000013	-0.479187	0.433480
H479	H	0.333320	-0.145854	0.766813
H480	H	0.666654	0.187480	1.100147
H481	H	0.037443	-0.509182	0.490133
H482	H	0.370777	-0.175849	0.823466
H483	H	0.704110	0.157485	1.156799
H484	H	-0.850339	-0.743006	-0.003493
H485	H	-0.517006	-0.409673	0.329840
H486	H	-0.183673	-0.076340	0.663173
N487	N	-0.000119	-0.132395	0.086451
N488	N	0.333215	0.200939	0.419784
N489	N	0.666548	0.534272	0.753118
H490	H	-0.000119	-0.089185	0.079088
H491	H	0.333214	0.244148	0.412421
H492	H	0.666547	0.577482	0.745754
H493	H	0.037336	-0.145872	0.109008
H494	H	0.370669	0.187461	0.442342
H495	H	0.704002	0.520795	0.775675
N496	N	-0.566163	-0.552406	-0.193937
N497	N	-0.232829	-0.219072	0.139397
N498	N	0.100504	0.114261	0.472730
H499	H	-0.536360	-0.527731	-0.218586
H500	H	-0.203026	-0.194398	0.114748
H501	H	0.130307	0.138936	0.448081
H502	H	-0.592548	-0.527359	-0.172249
H503	H	-0.259215	-0.194025	0.161085
H504	H	0.074119	0.139308	0.494418
H505	H	-0.000058	-0.404512	0.017441
H506	H	0.333275	-0.071178	0.350775
H507	H	0.666609	0.262155	0.684108
N508	N	-0.000058	0.053880	-0.179531
N509	N	0.333275	0.387214	0.153802
N510	N	0.666608	0.720547	0.487136
H511	H	0.037401	0.029548	-0.182138
H512	H	0.370734	0.362881	0.151195
H513	H	0.704067	0.696214	0.484528
H514	H	-0.000076	0.086224	-0.212054
H515	H	0.333258	0.419557	0.121279
H516	H	0.666591	0.752890	0.454612
N517	N	-0.433963	-0.552405	-0.193942
N518	N	-0.100630	-0.219072	0.139391
N519	N	0.232703	0.114261	0.472724
H520	H	-0.463769	-0.527735	-0.218596
H521	H	-0.130436	-0.194402	0.114738
H522	H	0.202898	0.138932	0.448071
H523	H	-0.407571	-0.574058	-0.219015
H524	H	-0.074238	-0.240725	0.114318
H525	H	0.259096	0.092608	0.447652
H526	H	-0.000056	-0.512280	0.016146
H527	H	0.333278	-0.178946	0.349480
H528	H	0.666611	0.154387	0.682813
N529	N	-0.273596	-0.591366	-0.155058
N530	N	0.059738	-0.258033	0.178276
N531	N	0.393071	0.075300	0.511609
H532	H	-0.243799	-0.566696	-0.179719
H533	H	0.089535	-0.233363	0.153614
H534	H	0.422868	0.099970	0.486948
H535	H	-0.299986	-0.566312	-0.133382
H536	H	0.033347	-0.232979	0.199951
H537	H	0.366681	0.100355	0.533284
H538	H	-0.000060	0.167632	-0.164421
H539	H	0.333273	0.500965	0.168913
H540	H	0.666606	0.834299	0.502246
H541	H	-0.149783	-0.601650	-0.144771
H542	H	0.183550	-0.268316	0.188563
H543	H	0.516884	0.065017	0.521896
N544	N	-0.000016	-0.492586	-0.186070
N545	N	0.333318	-0.159253	0.147264
N546	N	0.666651	0.174080	0.480597
H547	H	-0.000013	-0.460274	-0.218626
H548	H	0.333321	-0.126941	0.114707
H549	H	0.666654	0.206393	0.448041
H550	H	-0.037472	-0.516924	-0.188636
H551	H	0.295861	-0.183591	0.144697
H552	H	0.629194	0.149742	0.478031
N553	N	-0.000030	-0.212272	-0.234724
N554	N	0.333304	0.121062	0.098610
N555	N	0.666637	0.454395	0.431943
H556	H	-0.000026	-0.179956	-0.267277
H557	H	0.333308	0.153377	0.066057
H558	H	0.666641	0.486711	0.399390
H559	H	-0.037488	-0.236607	-0.237292
H560	H	0.295845	0.096727	0.096041
H561	H	0.629178	0.430060	0.429375
H562	H	-0.000073	-0.769159	0.219337
H563	H	0.333260	-0.435826	0.552671
H564	H	0.666593	-0.102492	0.886004
H565	H	-0.000078	0.141947	0.023982
H566	H	0.333256	0.475280	0.357315
H567	H	0.666589	0.808613	0.690648
H568	H	-0.000086	0.034198	0.022693
H569	H	0.333247	0.367531	0.356027
H570	H	0.666580	0.700864	0.689360
