data_functionalizedCrystal
_audit_creation_method	'MofGen! by Chris Wilmer'
_symmetry_space_group_name_H-M	'P1'
_symmetry_Int_Tables_number	1
_symmetry_cell_setting	triclinic
loop_
_symmetry_equiv_pos_as_xyz
  x,y,z
_cell_length_a	10.489711
_cell_length_b	10.489746
_cell_length_c	9.130313
_cell_angle_alpha	89.995172
_cell_angle_beta	89.994946
_cell_angle_gamma	84.534155
loop_
_atom_site_label
_atom_site_type_symbol
_atom_site_fract_x
_atom_site_fract_y
_atom_site_fract_z
O1	O	1.694077	0.179787	-0.121854
O2	O	1.322877	0.196719	-0.121845
O3	O	1.516920	0.002654	-0.121839
O4	O	1.500034	0.373851	-0.121860
O5	O	1.516907	0.002649	0.121760
O6	O	1.322864	0.196713	0.121754
O7	O	1.694064	0.179781	0.121745
Cu8	Cu	1.508463	0.188247	0.143992
Cu9	Cu	1.508478	0.188253	-0.144092
O10	O	1.500021	0.373845	0.121739
C11	C	1.275338	0.195445	-0.000044
C12	C	1.133707	0.191643	-0.000041
C13	C	1.515637	-0.044880	-0.000040
C14	C	1.511817	-0.186509	-0.000040
C15	C	0.951322	0.308348	-0.000064
C16	C	1.043473	0.250055	-0.120166
C17	C	1.043433	0.250018	0.120004
C18	C	0.973520	0.126513	-0.120272
C19	C	0.973470	0.126493	0.120005
C20	C	1.065594	0.068111	-0.000126
C21	C	1.386092	-0.339353	-0.000056
C22	C	1.448956	-0.261965	-0.120161
C23	C	1.448972	-0.262011	0.120008
C24	C	1.567939	-0.361469	-0.120277
C25	C	1.567938	-0.361521	0.120000
C26	C	1.630889	-0.284182	-0.000135
C27	C	1.741603	0.181055	-0.000059
C28	C	1.883234	0.184857	-0.000072
C29	C	1.501304	0.421380	-0.000064
C30	C	1.505124	0.563008	-0.000072
N31	N	1.508461	0.188241	0.346615
N32	N	1.508490	0.188249	-0.346715
C33	C	1.594412	0.102346	0.423269
C34	C	1.594425	0.102346	0.576606
C35	C	1.422529	0.274148	0.576620
C36	C	1.422512	0.274141	0.423286
H37	H	1.074475	0.302313	-0.221705
O38	O	1.338968	0.357709	0.349041
C39	C	1.168419	0.528061	0.365223
C40	C	1.262982	0.433520	0.449487
H41	H	1.106942	0.589361	0.446397
H42	H	1.223998	0.592402	0.293447
H43	H	1.104248	0.472336	0.293424
H44	H	1.327177	0.489141	0.521366
H45	H	1.207324	0.369180	0.521170
H46	H	0.942716	0.074312	-0.221928
H47	H	1.734470	-0.259718	-0.000203
H48	H	1.074384	0.302289	0.221541
H49	H	1.618136	-0.405028	0.221545
H50	H	1.664395	0.032399	0.360847
O51	O	1.389193	-0.210268	0.241309
C52	C	1.382832	-0.204322	0.505058
C53	C	1.450674	-0.262996	0.367816
H54	H	1.432495	-0.246949	0.607373
H55	H	1.387170	-0.096141	0.504577
H56	H	1.278532	-0.226504	0.504816
H57	H	1.554999	-0.240911	0.367968
H58	H	1.446232	-0.371162	0.368349
O59	O	1.627753	-0.413297	-0.241514
C60	C	1.691337	-0.605772	-0.377498
C61	C	1.623545	-0.547241	-0.240154
H62	H	1.687982	-0.714076	-0.376429
H63	H	1.640965	-0.563932	-0.479775
H64	H	1.795344	-0.582634	-0.377917
H65	H	1.519537	-0.570357	-0.239593
H66	H	1.674018	-0.589082	-0.137939
H67	H	1.664413	0.032401	0.639014
H68	H	1.115050	-0.033484	-0.000180
O69	O	0.892087	0.429453	-0.000468
C70	C	0.860427	0.631344	-0.127515
C71	C	0.927572	0.494225	-0.127248
H72	H	0.889113	0.683761	-0.229990
H73	H	0.752203	0.627340	-0.126569
H74	H	0.890328	0.684476	-0.026111
H75	H	0.897775	0.441014	-0.228636
H76	H	1.035783	0.498321	-0.128119
O77	O	0.936478	0.064390	0.241296
C78	C	0.929828	0.059221	0.505024
C79	C	0.971769	0.129680	0.367770
H80	H	0.958368	0.111963	0.607313
H81	H	0.821497	0.056101	0.503367
H82	H	0.978651	-0.042633	0.505993
H83	H	0.923037	0.231564	0.366711
H84	H	1.080111	0.132696	0.369480
H85	H	1.282589	-0.364061	-0.000173
H86	H	1.352554	0.344088	0.639061
O87	O	1.388901	-0.209909	-0.241137
C88	C	1.218000	-0.062799	-0.335252
C89	C	1.285925	-0.121622	-0.198136
H90	H	1.134714	0.008574	-0.300535
H91	H	1.288705	-0.011494	-0.403130
H92	H	1.180245	-0.142010	-0.403611
H93	H	1.323683	-0.042488	-0.129664
H94	H	1.215172	-0.172958	-0.130368
