data_functionalizedCrystal
_audit_creation_method	'MofGen! by Chris Wilmer'
_symmetry_space_group_name_H-M	'P1'
_symmetry_Int_Tables_number	1
_symmetry_cell_setting	triclinic
loop_
_symmetry_equiv_pos_as_xyz
  x,y,z
_cell_length_a	10.723023
_cell_length_b	19.288840
_cell_length_c	9.198806
_cell_angle_alpha	89.988256
_cell_angle_beta	89.998741
_cell_angle_gamma	83.796782
loop_
_atom_site_label
_atom_site_type_symbol
_atom_site_fract_x
_atom_site_fract_y
_atom_site_fract_z
O1	O	0.155504	0.922371	-0.121131
O2	O	0.176535	0.720245	-0.121081
O3	O	-0.015656	0.825971	-0.121102
O4	O	0.347694	0.816645	-0.121110
O5	O	-0.015653	0.825961	0.120683
O6	O	0.176537	0.720235	0.120705
O7	O	0.155506	0.922361	0.120654
Cu8	Cu	0.166022	0.821297	0.142756
Cu9	Cu	0.166019	0.821309	-0.143183
O10	O	0.347696	0.816636	0.120675
C11	C	0.175864	0.694359	-0.000182
C12	C	0.173849	0.617241	-0.000162
C13	C	-0.062140	0.825287	-0.000212
C14	C	-0.200651	0.823257	-0.000217
C15	C	-0.405550	0.820259	-0.125473
C16	C	-0.262392	0.822357	-0.125470
C17	C	0.172879	0.581037	-0.131963
C18	C	0.170971	0.508577	-0.131981
C19	C	0.170008	0.472327	-0.000190
C20	C	0.170984	0.508540	0.131628
C21	C	0.172905	0.580997	0.131642
C22	C	0.093880	0.362500	0.100761
C23	C	0.091952	0.290045	0.100742
C24	C	0.164090	0.248845	-0.000228
C25	C	0.238141	0.280110	-0.101202
C26	C	0.240061	0.352567	-0.101188
C27	C	0.167926	0.393760	-0.000191
C28	C	0.161054	0.134072	-0.132057
C29	C	0.159154	0.061611	-0.132069
C30	C	0.159154	0.061575	0.131543
C31	C	0.161067	0.134034	0.131552
C32	C	0.162011	0.170278	-0.000253
C33	C	0.394181	0.817319	-0.000219
C34	C	0.532692	0.819349	-0.000223
C35	C	0.156177	0.948247	-0.000249
C36	C	0.158192	1.025365	-0.000278
N37	N	0.166023	0.821294	0.343870
C38	C	0.084976	0.865685	0.416058
C39	C	0.084973	0.865695	0.583470
N40	N	0.166018	0.821312	0.655703
H41	H	-0.458663	0.819489	-0.232705
Cl42	Cl	-0.180399	0.823560	-0.291035
Cl43	Cl	0.273162	0.762634	0.559874
H44	H	0.015586	0.903681	0.353924
Cl45	Cl	0.333155	0.391870	-0.228115
Cl46	Cl	-0.385320	0.820549	0.165345
Cl47	Cl	0.174072	0.626597	-0.297659
H48	H	-0.253752	0.822470	0.107020
Cl49	Cl	-0.022154	0.924378	0.679308
H50	H	0.235403	0.783294	0.406006
Cl51	Cl	0.174122	0.626514	0.297348
H52	H	0.170184	0.479094	-0.239312
Cl53	Cl	0.157946	0.016095	-0.297778
Cl54	Cl	0.328842	0.228324	-0.228140
Cl55	Cl	0.162252	0.179638	-0.297750
Cl56	Cl	0.157956	0.016009	0.297225
Cl57	Cl	0.162278	0.179552	0.297254
Cl58	Cl	-0.001109	0.250745	0.227708
H59	H	0.170203	0.479020	0.238933
Cl60	Cl	0.003184	0.414287	0.227709
