data_functionalizedCrystal
_audit_creation_method	'MofGen! by Chris Wilmer'
_symmetry_space_group_name_H-M	'P1'
_symmetry_Int_Tables_number	1
_symmetry_cell_setting	triclinic
loop_
_symmetry_equiv_pos_as_xyz
  x,y,z
_cell_length_a	10.489763
_cell_length_b	9.565339
_cell_length_c	11.792241
_cell_angle_alpha	89.999915
_cell_angle_beta	95.629112
_cell_angle_gamma	89.998309
loop_
_atom_site_label
_atom_site_type_symbol
_atom_site_fract_x
_atom_site_fract_y
_atom_site_fract_z
O1	O	-1.693490	0.116200	0.160250
O2	O	-1.360157	0.449533	0.493583
O3	O	-1.026824	0.782866	0.826917
O4	O	-1.322247	0.116216	0.175255
O5	O	-0.988914	0.449549	0.508588
O6	O	-0.655580	0.782883	0.841921
O7	O	-1.516878	0.116198	0.002607
O8	O	-1.183544	0.449531	0.335940
O9	O	-0.850211	0.782864	0.669273
O10	O	-1.498860	0.116218	0.332898
O11	O	-1.165526	0.449551	0.666231
O12	O	-0.832193	0.782885	0.999565
O13	O	-1.516862	-0.116322	0.002617
O14	O	-1.183529	0.217011	0.335951
O15	O	-0.850196	0.550344	0.669284
O16	O	-1.322232	-0.116304	0.175265
O17	O	-0.988898	0.217029	0.508599
O18	O	-0.655565	0.550363	0.841932
O19	O	-1.693475	-0.116320	0.160261
O20	O	-1.360142	0.217013	0.493594
O21	O	-1.026808	0.550346	0.826927
Zn22	Zn	-1.507851	-0.153230	0.167765
Zn23	Zn	-1.174518	0.180104	0.501098
Zn24	Zn	-0.841184	0.513437	0.834431
Zn25	Zn	-1.507871	0.153125	0.167751
Zn26	Zn	-1.174538	0.486459	0.501084
Zn27	Zn	-0.841204	0.819792	0.834417
O28	O	-1.498844	-0.116302	0.332909
O29	O	-1.165511	0.217031	0.666242
O30	O	-0.832178	0.550365	0.999575
C31	C	-1.274712	-0.000042	0.174121
C32	C	-0.941379	0.333291	0.507455
C33	C	-0.608045	0.666625	0.840788
C34	C	-1.133096	-0.000036	0.170715
C35	C	-0.799762	0.333297	0.504048
C36	C	-0.466429	0.666631	0.837381
C37	C	-1.065331	-0.000057	0.060850
C38	C	-0.731997	0.333276	0.394183
C39	C	-0.398664	0.666610	0.727517
C40	C	-0.973035	0.114586	0.112735
C41	C	-0.639702	0.447920	0.446068
C42	C	-0.306369	0.781253	0.779401
C43	C	-0.973054	-0.114660	0.112772
C44	C	-0.639721	0.218673	0.446105
C45	C	-0.306387	0.552006	0.779438
C46	C	-1.042666	0.114702	0.222645
C47	C	-0.709332	0.448035	0.555978
C48	C	-0.375999	0.781369	0.889311
C49	C	-1.042694	-0.114647	0.222666
C50	C	-0.709361	0.218686	0.556000
C51	C	-0.376027	0.552019	0.889333
C52	C	-0.950426	0.000024	0.274631
C53	C	-0.617093	0.333357	0.607964
C54	C	-0.283759	0.666691	0.941297
N55	N	-1.507846	-0.362309	0.167774
N56	N	-1.174513	-0.028976	0.501107
N57	N	-0.841180	0.304358	0.834440
C58	C	-1.417809	-0.453504	0.247591
C59	C	-1.084475	-0.120170	0.580924
C60	C	-0.751142	0.213163	0.914257
C61	C	-1.533226	-0.546686	0.270565
C62	C	-1.199893	-0.213353	0.603899
C63	C	-0.866560	0.119980	0.937232
C64	C	-1.392479	-0.546682	0.144808
C65	C	-1.059145	-0.213349	0.478142
C66	C	-0.725812	0.119985	0.811475
C67	C	-1.623322	-0.453440	0.190800
C68	C	-1.289989	-0.120106	0.524133
C69	C	-0.956656	0.213227	0.857467
C70	C	-1.482499	-0.453427	0.064998
C71	C	-1.149165	-0.120094	0.398331
C72	C	-0.815832	0.213239	0.731664
C73	C	-1.597999	-0.546568	0.087929
C74	C	-1.264666	-0.213234	0.421263
C75	C	-0.931333	0.120099	0.754596
C76	C	-0.741012	-0.000063	0.161376
C77	C	-0.407679	0.333270	0.494709
C78	C	-0.074346	0.666604	0.828043
C79	C	-0.882636	-0.000071	0.164729
C80	C	-0.549303	0.333262	0.498062
C81	C	-0.215970	0.666596	0.831396
C82	C	-1.515738	-0.000062	-0.039682
C83	C	-1.182405	0.333272	0.293651
C84	C	-0.849072	0.666605	0.626985
C85	C	-1.512351	-0.000060	-0.165705
C86	C	-1.179017	0.333273	0.167628
C87	C	-0.845684	0.666606	0.500962
N88	N	-1.507886	0.362205	0.167733
N89	N	-1.174552	0.695538	0.501066
N90	N	-0.841219	1.028872	0.834399
C91	C	-1.506121	-0.000037	-0.396435
C92	C	-1.172788	0.333297	-0.063101
C93	C	-0.839455	0.666630	0.270232
C94	C	-1.509582	-0.000050	-0.268040
C95	C	-1.176249	0.333284	0.065294
C96	C	-0.842916	0.666617	0.398627
C97	C	-1.499984	-0.000039	0.375197
C98	C	-1.166650	0.333294	0.708531
C99	C	-0.833317	0.666627	1.041864
C100	C	-1.503371	-0.000032	0.501220
C101	C	-1.170038	0.333302	0.834554
C102	C	-0.836705	0.666635	1.167887
H103	H	-1.073341	0.211735	0.269090
H104	H	-0.740008	0.545069	0.602424
H105	H	-0.406675	0.878402	0.935757
H106	H	-1.294898	-0.587643	0.125402
H107	H	-0.961565	-0.254310	0.458736
H108	H	-0.628231	0.079024	0.792069
H109	H	-1.073575	-0.211572	0.269119
H110	H	-0.740242	0.121762	0.602452
H111	H	-0.406908	0.455095	0.935786
H112	H	-0.900695	0.000091	0.365034
H113	H	-0.567361	0.333425	0.698368
H114	H	-0.234028	0.666758	1.031701
H115	H	-0.942228	-0.211585	0.066270
H116	H	-0.608895	0.121749	0.399603
H117	H	-0.275562	0.455082	0.732937
H118	H	-1.554692	-0.587649	0.357463
H119	H	-1.221359	-0.254316	0.690796
H120	H	-0.888026	0.079018	1.024130
H121	H	-0.942186	0.211506	0.066244
H122	H	-0.608853	0.544839	0.399577
H123	H	-0.275520	0.878173	0.732911
H124	H	-1.341736	-0.412642	0.315152
H125	H	-1.008403	-0.079308	0.648486
H126	H	-0.675070	0.254025	0.981819
H127	H	-1.720925	-0.412655	0.210310
H128	H	-1.387592	-0.079321	0.543644
H129	H	-1.054258	0.254012	0.876977
H130	H	-1.674242	-0.587174	0.020410
H131	H	-1.340908	-0.253840	0.353743
H132	H	-1.007575	0.079493	0.687076
H133	H	-1.115327	0.000081	-0.029458
H134	H	-0.781994	0.333415	0.303875
H135	H	-0.448661	0.666748	0.637209
H136	H	-1.460997	-0.412432	-0.021873
H137	H	-1.127663	-0.079099	0.311461
H138	H	-0.794330	0.254235	0.644794
