data_functionalizedCrystal
_audit_creation_method	'MofGen! by Chris Wilmer'
_symmetry_space_group_name_H-M	'P1'
_symmetry_Int_Tables_number	1
_symmetry_cell_setting	triclinic
loop_
_symmetry_equiv_pos_as_xyz
  x,y,z
_cell_length_a	16.120530
_cell_length_b	12.594516
_cell_length_c	16.120256
_cell_angle_alpha	87.128506
_cell_angle_beta	90.128265
_cell_angle_gamma	92.887010
loop_
_atom_site_label
_atom_site_type_symbol
_atom_site_fract_x
_atom_site_fract_y
_atom_site_fract_z
Zn1	Zn	1.247485	0.539266	-0.534546
Zn2	Zn	1.747485	1.039266	-0.034546
Zn3	Zn	1.254449	0.708702	-0.395481
Zn4	Zn	1.754449	1.208702	0.104519
Zn5	Zn	1.115473	0.521274	-0.388464
Zn6	Zn	1.615473	1.021274	0.111536
Zn7	Zn	1.108406	0.707727	-0.527451
Zn8	Zn	1.608406	1.207727	-0.027451
O9	O	1.181453	0.619242	-0.461485
O10	O	1.681453	1.119242	0.038515
O11	O	1.364775	0.569679	-0.522005
O12	O	1.864775	1.069679	-0.022005
O13	O	1.241887	0.676718	-0.278185
O14	O	1.741887	1.176718	0.221815
O15	O	1.133028	0.374720	-0.407875
O16	O	1.633028	0.874720	0.092125
O17	O	1.369892	0.694163	-0.419834
O18	O	1.869892	1.194163	0.080166
O19	O	1.230016	0.387938	-0.515200
O20	O	1.730016	0.887938	-0.015200
O21	O	1.139782	0.539015	-0.273029
O22	O	1.639782	1.039015	0.226971
O23	O	0.998169	0.538070	-0.400995
O24	O	1.498169	1.038070	0.099005
O25	O	1.120982	0.692502	-0.644758
O26	O	1.620982	1.192502	-0.144758
O27	O	0.992976	0.675056	-0.503108
O28	O	1.492976	1.175056	-0.003108
O29	O	1.223163	0.568734	-0.649970
O30	O	1.723163	1.068734	-0.149970
O31	O	1.235033	0.857513	-0.412955
O32	O	1.735033	1.357513	0.087045
O33	O	1.127736	0.856797	-0.509912
O34	O	1.627736	1.356797	-0.009912
C35	C	0.965400	0.604505	-0.450521
C36	C	1.465400	1.104505	0.049479
C37	C	0.872970	0.598228	-0.445850
C38	C	1.372970	1.098228	0.054150
C39	C	0.703740	0.586742	-0.437329
C40	C	1.203740	1.086742	0.062671
C41	C	0.660004	0.651824	-0.485703
C42	C	1.160004	1.151824	0.014297
C43	C	0.565838	0.645434	-0.480962
C44	C	1.065838	1.145434	0.019038
C45	C	0.797914	0.593131	-0.442069
C46	C	1.297914	1.093131	0.057931
C47	C	1.181395	0.895777	-0.461444
C48	C	1.681395	1.395777	0.038556
C49	C	1.181445	1.014086	-0.461458
C50	C	1.681445	1.514086	0.038542
C51	C	1.239860	1.083698	-0.408779
C52	C	1.739860	1.583698	0.091221
C53	C	1.256326	1.160454	-0.485700
C54	C	1.756326	1.660454	0.014300
C55	C	1.165064	1.148137	-0.384572
C56	C	1.665064	1.648137	0.115428
C57	C	1.197948	1.089289	-0.538421
C58	C	1.697948	1.589289	-0.038421
C59	C	1.106653	1.076960	-0.437240
C60	C	1.606653	1.576960	0.062760
C61	C	1.123088	1.153686	-0.514212
C62	C	1.623088	1.653686	-0.014212
C63	C	1.398350	0.634037	-0.472494
C64	C	1.898350	1.134037	0.027506
C65	C	1.490779	0.640342	-0.477185
C66	C	1.990779	1.140342	0.022815
C67	C	1.170507	0.632516	-0.678380
C68	C	1.670507	1.132516	-0.178380
C69	C	1.165842	0.638172	-0.770807
C70	C	1.665842	1.138172	-0.270807
C71	C	1.181515	1.341628	-0.461524
C72	C	1.681515	1.841628	0.038476
C73	C	1.181493	1.223318	-0.461482
C74	C	1.681493	1.723318	0.038518
C75	C	1.205777	0.589716	-0.983793
C76	C	1.705777	1.089716	-0.483793
C77	C	1.157298	0.648454	-0.940027
C78	C	1.657298	1.148454	-0.440027
C79	C	1.162054	0.642732	-0.845865
C80	C	1.662054	1.142732	-0.345865
C81	C	1.201023	0.595437	-1.077964
C82	C	1.701023	1.095437	-0.577964
C83	C	1.192405	0.605946	-0.245437
C84	C	1.692405	1.105946	0.254563
C85	C	1.197230	0.600001	-0.153018
C86	C	1.697230	1.100001	0.346982
H87	H	0.670465	0.526229	-0.392356
H88	H	1.170465	1.026229	0.107644
Cl89	Cl	1.354012	1.216732	-0.517365
Cl90	Cl	1.854012	1.716732	-0.017365
H91	H	1.250850	0.535137	-0.950546
H92	H	1.750850	1.035137	-0.450546
Cl93	Cl	1.046846	1.200857	-0.583088
Cl94	Cl	1.546846	1.700857	-0.083088
Cl95	Cl	0.711378	0.745254	-0.555148
Cl96	Cl	1.211378	1.245254	-0.055148
Cl97	Cl	1.219497	1.049290	-0.638858
Cl98	Cl	1.719497	1.549290	-0.138858
H99	H	1.289272	1.052962	-0.364281
H100	H	1.789272	1.552962	0.135719
H101	H	1.043402	1.040471	-0.416719
H102	H	1.543402	1.540471	0.083281
H103	H	1.151189	1.174187	-0.319541
H104	H	1.651189	1.674187	0.180459
H105	H	1.112218	0.703032	-0.973276
H106	H	1.612218	1.203032	-0.473276
