data_functionalizedCrystal
_audit_creation_method	'MofGen! by Chris Wilmer'
_symmetry_space_group_name_H-M	'P1'
_symmetry_Int_Tables_number	1
_symmetry_cell_setting	triclinic
loop_
_symmetry_equiv_pos_as_xyz
  x,y,z
_cell_length_a	19.121063
_cell_length_b	12.827893
_cell_length_c	12.827885
_cell_angle_alpha	89.979001
_cell_angle_beta	87.596033
_cell_angle_gamma	87.532808
loop_
_atom_site_label
_atom_site_type_symbol
_atom_site_fract_x
_atom_site_fract_y
_atom_site_fract_z
Zn1	Zn	-0.279612	-1.579833	0.608589
Zn2	Zn	0.220388	-1.079833	1.108589
Zn3	Zn	-0.397078	-1.572234	0.441281
Zn4	Zn	0.102922	-1.072234	0.941281
Zn5	Zn	-0.279643	-1.405073	0.433859
Zn6	Zn	0.220357	-0.905073	0.933859
Zn7	Zn	-0.397023	-1.397570	0.615972
Zn8	Zn	0.102977	-0.897570	1.115972
O9	O	-0.338339	-1.488678	0.524925
O10	O	0.161661	-0.988678	1.024925
O11	O	-0.295205	-1.725061	0.586411
O12	O	0.204795	-1.225061	1.086411
O13	O	-0.381537	-1.550020	0.294063
O14	O	0.118463	-1.050020	0.794063
O15	O	-0.181354	-1.434575	0.450841
O16	O	0.318646	-0.934575	0.950841
O17	O	-0.381507	-1.719478	0.463491
O18	O	0.118493	-1.219478	0.963491
O19	O	-0.181332	-1.562971	0.579214
O20	O	0.318668	-1.062971	1.079214
O21	O	-0.295257	-1.427207	0.288610
O22	O	0.204743	-0.927207	0.788610
O23	O	-0.295203	-1.257842	0.458001
O24	O	0.204797	-0.757842	0.958001
O25	O	-0.381412	-1.421789	0.761227
O26	O	0.118588	-0.921789	1.261227
O27	O	-0.381441	-1.252330	0.591799
O28	O	0.118559	-0.752330	1.091799
O29	O	-0.295151	-1.555696	0.755802
O30	O	0.204849	-1.055696	1.255802
O31	O	-0.495355	-1.542745	0.470651
O32	O	0.004645	-1.042745	0.970651
O33	O	-0.495314	-1.414420	0.598996
O34	O	0.004686	-0.914420	1.098996
C35	C	-0.338320	-1.217169	0.524896
C36	C	0.161680	-0.717169	1.024896
C37	C	-0.338329	-1.101015	0.524909
C38	C	0.161671	-0.601015	1.024909
C39	C	-0.381076	-0.926482	0.591034
C40	C	0.118924	-0.426482	1.091034
C41	C	-0.381068	-1.046533	0.591021
C42	C	0.118932	-0.546533	1.091021
C43	C	-0.520819	-1.476972	0.536453
C44	C	-0.020819	-0.976972	1.036453
C45	C	-0.598884	-1.472060	0.541419
C46	C	-0.098884	-0.972060	1.041419
C47	C	-0.635558	-1.536616	0.476986
C48	C	-0.135558	-1.036616	0.976986
C49	C	-0.708908	-1.532003	0.481663
C50	C	-0.208908	-1.032003	0.981663
C51	C	-0.745585	-1.462827	0.550769
C52	C	-0.245585	-0.962827	1.050769
C53	C	-0.708906	-1.398268	0.615210
C54	C	-0.208906	-0.898268	1.115210
C55	C	-0.635556	-1.402888	0.610537
C56	C	-0.135556	-0.902888	1.110537
C57	C	-0.967053	-1.445538	0.568222
C58	C	-0.467053	-0.945538	1.068222
C59	C	-1.040408	-1.440921	0.572888
C60	C	-0.540408	-0.940921	1.072888
C61	C	-1.040405	-1.574658	0.439341
C62	C	-0.540405	-1.074658	0.939341
C63	C	-0.967054	-1.579267	0.434671
C64	C	-0.467054	-1.079267	0.934671
C65	C	-0.930382	-1.514712	0.499115
C66	C	-0.430382	-1.014712	0.999115
C67	C	-0.820561	-1.458107	0.555549
C68	C	-0.320561	-0.958107	1.055549
C69	C	-0.855407	-1.519438	0.494340
C70	C	-0.355407	-1.019438	0.994340
C71	C	-0.155147	-1.500458	0.513376
C72	C	0.344853	-1.000458	1.013376
C73	C	-0.077081	-1.505477	0.508454
C74	C	0.422919	-1.005477	1.008454
C75	C	-0.338271	-1.488753	0.797491
C76	C	0.161729	-0.988753	1.297491
C77	C	-0.338243	-1.488785	0.913643
C78	C	0.161757	-0.988785	1.413643
C79	C	-0.338353	-0.761247	0.524947
C80	C	0.161647	-0.261247	1.024947
C81	C	-0.338344	-0.877401	0.524933
C82	C	0.161656	-0.377401	1.024933
C83	C	-0.338355	-1.488666	0.253416
C84	C	0.161645	-0.988666	0.753416
C85	C	-0.338186	-1.488849	0.137253
C86	C	0.161814	-0.988849	0.637253
C87	C	-0.295550	-1.555055	0.962743
C88	C	0.204450	-1.055055	1.462743
C89	C	-0.295519	-1.555089	1.082791
C90	C	0.204481	-1.055089	1.582791
H91	H	-0.417668	-0.879625	0.647629
H92	H	0.082332	-0.379625	1.147629
F93	F	-0.290503	-1.045843	0.450940
F94	F	0.209497	-0.545843	0.950940
H95	H	-0.374742	-1.432114	1.095025
H96	H	0.125258	-0.932114	1.595025
F97	F	-0.290520	-0.938640	0.450945
F98	F	0.209480	-0.438640	0.950945
F99	F	-0.385986	-1.414654	0.974859
F100	F	0.114014	-0.914654	1.474859
H101	H	-0.605698	-1.350321	0.663007
H102	H	-0.105698	-0.850321	1.163007
F103	F	-0.247746	-1.629255	1.137991
F104	F	0.252254	-1.129255	1.637991
H105	H	-0.259019	-1.611761	0.915903
H106	H	0.240981	-1.111761	1.415903
H107	H	-1.070271	-1.627216	0.386876
H108	H	-0.570271	-1.127216	0.886876
F109	F	-0.596531	-1.610237	0.403426
F110	F	-0.096531	-1.110237	0.903426
H111	H	-0.937194	-1.635595	0.378399
H112	H	-0.437194	-1.135595	0.878399
F113	F	-0.428884	-1.101712	0.664998
F114	F	0.071116	-0.601712	1.164998
F115	F	-0.859601	-1.384486	0.629094
F116	F	-0.359601	-0.884486	1.129094
F117	F	-0.816372	-1.593062	0.420799
F118	F	-0.316372	-1.093062	0.920799
F119	F	-0.747936	-1.600715	0.413086
F120	F	-0.247936	-1.100715	0.913086
H121	H	-1.070267	-1.384603	0.629180
H122	H	-0.570267	-0.884603	1.129180
H123	H	-0.937200	-1.392973	0.620693
H124	H	-0.437200	-0.892973	1.120693
H125	H	-0.738774	-1.341948	0.671482
H126	H	-0.238774	-0.841948	1.171482
