data_functionalizedCrystal
_audit_creation_method	'MofGen! by Chris Wilmer'
_symmetry_space_group_name_H-M	'P1'
_symmetry_Int_Tables_number	1
_symmetry_cell_setting	triclinic
loop_
_symmetry_equiv_pos_as_xyz
  x,y,z
_cell_length_a	14.519709
_cell_length_b	10.654550
_cell_length_c	9.730223
_cell_angle_alpha	90.000242
_cell_angle_beta	90.003220
_cell_angle_gamma	95.917463
loop_
_atom_site_label
_atom_site_type_symbol
_atom_site_fract_x
_atom_site_fract_y
_atom_site_fract_z
O1	O	-0.129530	1.666594	0.114167
O2	O	0.370470	2.166594	0.614167
O3	O	-0.141871	1.300997	0.114190
O4	O	0.358129	1.800997	0.614190
O5	O	-0.001513	1.493489	0.114190
O6	O	0.498487	1.993489	0.614190
O7	O	-0.269889	1.474102	0.114166
O8	O	0.230111	1.974102	0.614166
O9	O	-0.001513	1.493475	-0.114390
O10	O	0.498487	1.993475	0.385610
O11	O	-0.141871	1.300983	-0.114390
O12	O	0.358129	1.800983	0.385610
O13	O	-0.129530	1.666581	-0.114413
O14	O	0.370470	2.166581	0.385587
Zn15	Zn	-0.135701	1.483780	-0.150694
Zn16	Zn	0.364299	1.983780	0.349306
Zn17	Zn	-0.135701	1.483798	0.150470
Zn18	Zn	0.364299	1.983798	0.650470
O19	O	-0.269889	1.474089	-0.114414
O20	O	0.230111	1.974089	0.385586
C21	C	-0.140965	1.254201	-0.000097
C22	C	0.359035	1.754201	0.499903
C23	C	-0.138254	1.114784	-0.000087
C24	C	0.361746	1.614784	0.499913
C25	C	-0.220895	1.034504	-0.000098
C26	C	0.279105	1.534504	0.499902
C27	C	-0.218342	0.903507	-0.000122
C28	C	0.281658	1.403507	0.499878
C29	C	-0.050500	0.933084	-0.000117
C30	C	0.449500	1.433084	0.499883
C31	C	-0.053054	1.064078	-0.000104
C32	C	0.446946	1.564078	0.499896
C33	C	-0.304253	1.474999	-0.000127
C34	C	0.195747	1.974999	0.499873
C35	C	-0.406649	1.477706	-0.000136
C36	C	0.093351	1.977706	0.499864
C37	C	-0.781596	1.487674	-0.000082
C38	C	-0.281596	1.987674	0.499918
C39	C	-0.677274	1.484906	-0.000098
C40	C	-0.177274	1.984906	0.499902
C41	C	-0.594126	1.482690	-0.000111
C42	C	-0.094126	1.982690	0.499889
C43	C	-0.489797	1.479922	-0.000124
C44	C	0.010203	1.979922	0.499876
C45	C	0.032852	1.492579	-0.000094
C46	C	0.532852	1.992579	0.499906
C47	C	0.135247	1.489871	-0.000075
C48	C	0.635247	1.989871	0.499925
C49	C	-0.130436	1.713377	-0.000124
C50	C	0.369564	2.213377	0.499876
C51	C	-0.133147	1.852794	-0.000125
C52	C	0.366853	2.352794	0.499875
N53	N	-0.135700	1.483777	-0.356230
N54	N	0.364300	1.983777	0.143770
C55	C	-0.192156	1.560065	-0.428161
C56	C	0.307844	2.060065	0.071839
C57	C	-0.192151	1.560086	-0.572044
C58	C	0.307849	2.060086	-0.072044
C59	C	-0.079232	1.407519	-0.572052
C60	C	0.420768	1.907519	-0.072052
C61	C	-0.079233	1.407506	-0.428172
C62	C	0.420767	1.907506	0.071828
N63	N	-0.135694	1.483811	0.356007
N64	N	0.364306	1.983811	0.856007
H65	H	-0.285637	0.838147	-0.000134
H66	H	0.214363	1.338147	0.499866
H67	H	-0.290270	1.075783	-0.000095
H68	H	0.209730	1.575783	0.499905
O69	O	0.036084	1.150681	-0.000101
O70	O	0.536084	1.650681	0.499899
H71	H	0.076820	1.132640	0.093066
H72	H	0.576820	1.632640	0.593066
O73	O	-0.018337	1.325260	-0.649663
O74	O	0.481663	1.825260	-0.149663
H75	H	0.055189	1.352440	-0.622051
H76	H	0.555189	1.852440	-0.122051
H77	H	0.018867	0.891783	-0.000139
H78	H	0.518867	1.391783	0.499861
H79	H	-0.238135	1.622170	-0.369591
H80	H	0.261865	2.122170	0.130409
H81	H	-0.238121	1.622210	-0.630605
H82	H	0.261879	2.122210	-0.130605
O83	O	-0.018315	1.325230	-0.350603
O84	O	0.481685	1.825230	0.149397
H85	H	0.030843	1.385344	-0.285070
H86	H	0.530843	1.885344	0.214930
