data_functionalizedCrystal
_audit_creation_method	'MofGen! by Chris Wilmer'
_symmetry_space_group_name_H-M	'P1'
_symmetry_Int_Tables_number	1
_symmetry_cell_setting	triclinic
loop_
_symmetry_equiv_pos_as_xyz
  x,y,z
_cell_length_a	11.026623
_cell_length_b	9.483335
_cell_length_c	10.967829
_cell_angle_alpha	111.321163
_cell_angle_beta	83.619121
_cell_angle_gamma	101.374660
loop_
_atom_site_label
_atom_site_type_symbol
_atom_site_fract_x
_atom_site_fract_y
_atom_site_fract_z
O1	O	-1.573999	0.260272	0.556392
O2	O	-1.222598	0.244851	0.494830
O3	O	-1.413701	0.206038	0.339918
O4	O	-1.382896	0.299086	0.711304
O5	O	-1.452564	-0.043640	0.308380
O6	O	-1.261460	-0.004826	0.463292
O7	O	-1.612862	0.010595	0.524854
Cu8	Cu	-1.440709	-0.019913	0.491193
Cu9	Cu	-1.394750	0.275359	0.528491
O10	O	-1.421758	0.049408	0.679765
C11	C	-1.197169	0.117168	0.467704
C12	C	-1.063502	0.108687	0.433848
C13	C	-0.986805	0.132108	0.527327
C14	C	-0.848653	0.123344	0.492338
N15	N	-1.473043	-0.227592	0.464961
C16	C	-1.433827	0.069105	0.275865
C17	C	-1.435883	0.033068	0.131990
C18	C	-0.638290	0.138281	0.551979
C19	C	-0.771956	0.146768	0.585831
C20	C	-1.431196	-0.458713	0.498926
C21	C	-1.404263	-0.285837	0.520758
N22	N	-1.362426	0.483036	0.554715
C23	C	-1.416668	0.146343	0.084191
C24	C	-1.418792	0.109100	-0.064511
C25	C	-1.401631	0.186344	0.743819
C26	C	-1.399574	0.222391	0.887695
H27	H	-1.026882	0.082185	0.327919
H28	H	-1.023420	0.158641	0.633260
H29	H	-1.551870	-0.305698	0.401036
O30	O	-1.535601	-0.562175	0.414249
H31	H	-1.624356	-0.522455	0.456475
H32	H	-0.812039	0.096840	0.386402
O33	O	-1.299834	-0.182398	0.605421
H34	H	-1.295053	-0.062852	0.609265
H35	H	-1.283613	-0.438851	0.618647
H36	H	-1.436809	-0.015460	-0.133673
O37	O	-1.392788	0.311335	0.175790
H38	H	-1.394872	0.314696	0.278212
O39	O	-1.375700	0.387392	-0.020712
H40	H	-1.377786	0.390758	0.081712
H41	H	-0.808564	0.173301	0.691771
O42	O	-1.459776	-0.131923	0.040393
H43	H	-1.457712	-0.135284	-0.062028
