data_functionalizedCrystal
_audit_creation_method	'MofGen! by Chris Wilmer'
_symmetry_space_group_name_H-M	'P1'
_symmetry_Int_Tables_number	1
_symmetry_cell_setting	triclinic
loop_
_symmetry_equiv_pos_as_xyz
  x,y,z
_cell_length_a	16.120530
_cell_length_b	18.215405
_cell_length_c	18.215399
_cell_angle_alpha	90.030551
_cell_angle_beta	92.916648
_cell_angle_gamma	87.120245
loop_
_atom_site_label
_atom_site_type_symbol
_atom_site_fract_x
_atom_site_fract_y
_atom_site_fract_z
Zn1	Zn	1.274537	-0.350119	0.473077
Zn2	Zn	1.607870	-0.016785	0.806410
Zn3	Zn	1.941203	0.316548	1.139743
Zn4	Zn	1.274433	-0.473185	0.350000
Zn5	Zn	1.607766	-0.139852	0.683334
Zn6	Zn	1.941100	0.193481	1.016667
Zn7	Zn	1.135120	-0.343893	0.343792
Zn8	Zn	1.468453	-0.010560	0.677125
Zn9	Zn	1.801787	0.322774	1.010459
Zn10	Zn	1.135081	-0.466897	0.466796
Zn11	Zn	1.468415	-0.133564	0.800129
Zn12	Zn	1.801748	0.199769	1.133462
O13	O	1.204793	-0.408524	0.408416
O14	O	1.538126	-0.075190	0.741749
O15	O	1.871459	0.258143	1.075083
O16	O	1.391189	-0.371681	0.461977
O17	O	1.724522	-0.038347	0.795310
O18	O	2.057855	0.294986	1.128644
O19	O	1.255925	-0.456060	0.246191
O20	O	1.589259	-0.122727	0.579524
O21	O	1.922592	0.210606	0.912858
O22	O	1.153673	-0.241737	0.360972
O23	O	1.487007	0.091596	0.694305
O24	O	1.820340	0.424929	1.027639
O25	O	1.391112	-0.462097	0.371553
O26	O	1.724446	-0.128764	0.704887
O27	O	2.057779	0.204569	1.038220
O28	O	1.256102	-0.246311	0.455957
O29	O	1.589436	0.087022	0.789290
O30	O	1.922769	0.420355	1.122624
O31	O	1.153573	-0.361070	0.241630
O32	O	1.486906	-0.027737	0.574963
O33	O	1.820239	0.305597	0.908297
O34	O	1.018449	-0.354973	0.354882
O35	O	1.351782	-0.021639	0.688215
O36	O	1.685116	0.311694	1.021549
O37	O	1.153608	-0.451381	0.570615
O38	O	1.486941	-0.118047	0.903948
O39	O	1.820274	0.215286	1.237281
O40	O	1.018421	-0.445344	0.445252
O41	O	1.351754	-0.112010	0.778586
O42	O	1.685087	0.221323	1.111919
O43	O	1.256065	-0.365584	0.575229
O44	O	1.589398	-0.032250	0.908562
O45	O	1.922732	0.301083	1.241896
O46	O	1.255888	-0.575333	0.365463
O47	O	1.589221	-0.242000	0.698796
O48	O	1.922555	0.091334	1.032130
O49	O	1.153507	-0.570713	0.451272
O50	O	1.486840	-0.237380	0.784606
O51	O	1.820174	0.095954	1.117939
C52	C	1.204705	-0.599726	0.408377
C53	C	1.538038	-0.266393	0.741710
C54	C	1.871371	0.066941	1.075043
C55	C	1.204743	-0.681527	0.408388
C56	C	1.538077	-0.348193	0.741721
C57	C	1.871410	-0.014860	1.075055
C58	C	0.988185	-0.398801	0.398712
C59	C	1.321518	-0.065467	0.732046
C60	C	1.654851	0.267866	1.065379
C61	C	0.895519	-0.394659	0.394578
C62	C	1.228852	-0.061326	0.727912
C63	C	1.562186	0.272008	1.061245
C64	C	1.258178	-0.872107	0.363799
C65	C	1.591512	-0.538774	0.697133
C66	C	1.924845	-0.205440	1.030466
C67	C	1.258216	-0.948968	0.363819
C68	C	1.591549	-0.615634	0.697152
C69	C	1.924882	-0.282301	1.030485
C70	C	1.151514	-0.944193	0.453091
C71	C	1.484847	-0.610860	0.786424
C72	C	1.818180	-0.277526	1.119757
C73	C	1.151481	-0.867334	0.453075
C74	C	1.484815	-0.534001	0.786408
C75	C	1.818148	-0.200667	1.119741
C76	C	1.204812	-0.831293	0.408425
C77	C	1.538146	-0.497960	0.741758
C78	C	1.871479	-0.164626	1.075091
C79	C	1.204882	-0.985012	0.408460
C80	C	1.538215	-0.651679	0.741794
C81	C	1.871549	-0.318346	1.075127
C82	C	1.204922	-1.068348	0.408482
C83	C	1.538255	-0.735014	0.741815
C84	C	1.871589	-0.401681	1.075148
C85	C	1.204774	-0.747952	0.408404
C86	C	1.538107	-0.414619	0.741737
C87	C	1.871440	-0.081286	1.075071
C88	C	0.725858	-0.387080	0.387037
C89	C	1.059191	-0.053747	0.720371
C90	C	1.392524	0.279587	1.053704
C91	C	0.684568	-0.430021	0.429849
C92	C	1.017902	-0.096688	0.763182
C93	C	1.351235	0.236645	1.096515
C94	C	0.590163	-0.425804	0.425653
C95	C	0.923496	-0.092471	0.758986
C96	C	1.256829	0.240862	1.092320
C97	C	0.820272	-0.391296	0.391232
C98	C	1.153605	-0.057963	0.724566
C99	C	1.486938	0.275371	1.057899
C100	C	1.422246	-0.418285	0.418158
C101	C	1.755580	-0.084952	0.751492
C102	C	2.088913	0.248382	1.084825
C103	C	1.514912	-0.422445	0.422310
C104	C	1.848245	-0.089111	0.755643
C105	C	2.181579	0.244222	1.088977
C106	C	1.204843	-0.408475	0.600371
C107	C	1.538177	-0.075142	0.933705
C108	C	1.871510	0.258191	1.267038
C109	C	1.204865	-0.408455	0.682171
C110	C	1.538198	-0.075121	1.015505
C111	C	1.871532	0.258212	1.348838
C112	C	1.204904	-0.216576	0.408473
C113	C	1.538237	0.116758	0.741806
C114	C	1.871570	0.450091	1.075139
C115	C	1.204951	-0.134779	0.408497
C116	C	1.538284	0.198554	0.741830
C117	C	1.871618	0.531888	1.075164
C118	C	1.204790	-0.408521	0.217210
C119	C	1.538123	-0.075188	0.550543
C120	C	1.871457	0.258146	0.883876
C121	C	1.204930	-0.408342	0.135418
C122	C	1.538263	-0.075008	0.468751
C123	C	1.871597	0.258325	0.802084
C124	C	1.258234	-0.363737	0.872770
C125	C	1.591567	-0.030404	1.206104
C126	C	1.924900	0.302930	1.539437
C127	C	1.258244	-0.363716	0.949629
C128	C	1.591577	-0.030383	1.282963
C129	C	1.924910	0.302951	1.616296
C130	C	1.151555	-0.453061	0.944813
C131	C	1.484889	-0.119728	1.278146
C132	C	1.818222	0.213606	1.611480
C133	C	1.151542	-0.453077	0.867955
C134	C	1.484875	-0.119744	1.201288
C135	C	1.818208	0.213589	1.534622
C136	C	1.204886	-0.408417	0.831936
C137	C	1.538219	-0.075083	1.165269
C138	C	1.871552	0.258250	1.498602
C139	C	1.204909	-0.408379	0.985653
C140	C	1.538243	-0.075046	1.318986
C141	C	1.871576	0.258287	1.652320
C142	C	1.204920	-0.408357	1.068987
C143	C	1.538253	-0.075023	1.402321
C144	C	1.871586	0.258310	1.735654
C145	C	1.204875	-0.408438	0.748596
C146	C	1.538208	-0.075105	1.081930
C147	C	1.871541	0.258229	1.415263
H148	H	1.301605	-0.842765	0.327444
H149	H	1.634938	-0.509431	0.660777
H150	H	1.968271	-0.176098	0.994110
Cl151	Cl	0.739454	-0.491666	0.491308
Cl152	Cl	1.072787	-0.158333	0.824641
Cl153	Cl	1.406120	0.175001	1.157974
H154	H	1.301673	-0.982195	0.327482
H155	H	1.635006	-0.648862	0.660815
H156	H	1.968339	-0.315528	0.994148
H157	H	1.301684	-0.327332	0.982874
H158	H	1.635017	0.006001	1.316207
H159	H	1.968350	0.339335	1.649540
Cl160	Cl	1.325291	-0.307589	0.827491
Cl161	Cl	1.658625	0.025744	1.160825
Cl162	Cl	1.991958	0.359077	1.494158
Cl163	Cl	1.084392	-0.816021	0.509184
Cl164	Cl	1.417725	-0.482688	0.842517
Cl165	Cl	1.751058	-0.149355	1.175851
Cl166	Cl	1.084470	-0.989507	0.509216
Cl167	Cl	1.417804	-0.656173	0.842550
Cl168	Cl	1.751137	-0.322840	1.175883
Cl169	Cl	0.670971	-0.325436	0.325586
Cl170	Cl	1.004304	0.007897	0.658919
Cl171	Cl	1.337638	0.341231	0.992253
Cl172	Cl	1.084503	-0.509207	0.990100
Cl173	Cl	1.417836	-0.175873	1.323433
Cl174	Cl	1.751169	0.157460	1.656767
Cl175	Cl	1.084465	-0.509247	0.816616
Cl176	Cl	1.417799	-0.175913	1.149950
Cl177	Cl	1.751132	0.157420	1.483283
