data_functionalizedCrystal
_audit_creation_method	'MofGen! by Chris Wilmer'
_symmetry_space_group_name_H-M	'P1'
_symmetry_Int_Tables_number	1
_symmetry_cell_setting	triclinic
loop_
_symmetry_equiv_pos_as_xyz
  x,y,z
_cell_length_a	14.519709
_cell_length_b	14.519709
_cell_length_c	12.996460
_cell_angle_alpha	89.999398
_cell_angle_beta	90.001234
_cell_angle_gamma	96.319855
loop_
_atom_site_label
_atom_site_type_symbol
_atom_site_fract_x
_atom_site_fract_y
_atom_site_fract_z
O1	O	0.120885	-1.223870	0.085435
O2	O	0.620885	-0.723870	0.585435
O3	O	0.135121	-0.955394	0.085467
O4	O	0.635121	-0.455394	0.585467
O5	O	-0.006235	-1.096750	0.085441
O6	O	0.493765	-0.596750	0.585441
O7	O	0.262242	-1.082514	0.085461
O8	O	0.762242	-0.582514	0.585461
O9	O	-0.006227	-1.096732	-0.085693
O10	O	0.493773	-0.596732	0.414307
O11	O	0.135130	-0.955375	-0.085667
O12	O	0.635130	-0.455375	0.414333
O13	O	0.120893	-1.223852	-0.085699
O14	O	0.620893	-0.723852	0.414301
Cu15	Cu	0.128012	-1.089612	-0.101309
Cu16	Cu	0.628012	-0.589612	0.398691
Cu17	Cu	0.128002	-1.089634	0.101077
Cu18	Cu	0.628002	-0.589634	0.601077
O19	O	0.262250	-1.082496	-0.085673
O20	O	0.762250	-0.582496	0.414327
C21	C	-0.040591	-1.096078	-0.000126
C22	C	0.459409	-0.596078	0.499874
C23	C	-0.142972	-1.094090	-0.000126
C24	C	0.357028	-0.594090	0.499874
C25	C	0.134462	-0.921025	-0.000096
C26	C	0.634462	-0.421025	0.499904
C27	C	0.132474	-0.818643	-0.000084
C28	C	0.632474	-0.318643	0.499916
C29	C	0.121553	-1.258221	-0.000134
C30	C	0.621553	-0.758221	0.499866
C31	C	0.123541	-1.360602	-0.000139
C32	C	0.623541	-0.860602	0.499861
C33	C	-0.517868	-1.086770	-0.000099
C34	C	-0.017868	-0.586770	0.499901
C35	C	-0.413560	-1.088803	-0.000107
C36	C	0.086440	-0.588803	0.499893
C37	C	-0.330423	-1.090430	-0.000114
C38	C	0.169577	-0.590430	0.499886
C39	C	-0.226109	-1.092463	-0.000120
C40	C	0.273891	-0.592463	0.499880
C41	C	0.296606	-1.083168	-0.000103
C42	C	0.796606	-0.583168	0.499897
C43	C	0.398987	-1.085156	-0.000096
C44	C	0.898987	-0.585156	0.499904
N45	N	0.128018	-1.089604	-0.243656
N46	N	0.628018	-0.589604	0.256344
C47	C	0.125154	-0.443748	-0.000132
C48	C	0.625154	0.056252	0.499868
C49	C	0.127187	-0.548056	-0.000118
C50	C	0.627187	-0.048056	0.499882
C51	C	0.128814	-0.631192	-0.000107
C52	C	0.628814	-0.131192	0.499893
C53	C	0.130847	-0.735507	-0.000095
C54	C	0.630847	-0.235507	0.499905
C55	C	0.128021	-1.089608	-0.336762
C56	C	0.628021	-0.589608	0.163238
C57	C	0.128015	-1.089616	-0.453567
C58	C	0.628015	-0.589616	0.046433
C59	C	0.128004	-1.089628	-0.546665
C60	C	0.628004	-0.589628	-0.046665
C61	C	0.127999	-1.089638	-0.663478
C62	C	0.627999	-0.589638	-0.163478
N63	N	0.127989	-1.089649	0.243424
N64	N	0.627989	-0.589649	0.743424
