data_functionalizedCrystal
_audit_creation_method	'MofGen! by Chris Wilmer'
_symmetry_space_group_name_H-M	'P1'
_symmetry_Int_Tables_number	1
_symmetry_cell_setting	triclinic
loop_
_symmetry_equiv_pos_as_xyz
  x,y,z
_cell_length_a	6.817900
_cell_length_b	17.078472
_cell_length_c	11.168136
_cell_angle_alpha	95.135010
_cell_angle_beta	108.508683
_cell_angle_gamma	99.306020
loop_
_atom_site_label
_atom_site_type_symbol
_atom_site_fract_x
_atom_site_fract_y
_atom_site_fract_z
V1	V	-4.063423	-0.109779	-0.393572
O2	O	-4.071694	0.005263	-0.386211
O3	O	-3.994055	-0.217662	-0.390755
O4	O	-4.040426	-0.108096	-0.565280
O5	O	-4.025001	-0.105061	-0.210478
V6	V	-4.546477	-0.096018	-0.371688
O7	O	-4.325712	-0.139965	-0.441577
O8	O	-4.734385	-0.065832	-0.323683
O9	O	-4.392638	0.011865	-0.374505
O10	O	-4.655603	-0.211060	-0.379050
O11	O	-4.702295	-0.100736	-0.554783
O12	O	-4.346267	-0.097701	-0.199980
C13	C	-3.833133	-0.243961	-0.384514
C14	C	-3.857872	-0.332157	-0.383355
C15	C	-4.051755	-0.377632	-0.389104
C16	C	-4.074992	-0.460502	-0.388023
C17	C	-3.904339	-0.497893	-0.381183
C18	C	-3.710443	-0.452412	-0.375437
C19	C	-3.687213	-0.369545	-0.376528
C20	C	-3.954275	-0.745297	-0.377255
C21	C	-3.977519	-0.828170	-0.376161
C22	C	-4.342068	-0.836254	-0.388749
C23	C	-4.318817	-0.753384	-0.389831
C24	C	-4.124927	-0.707911	-0.384092
N25	N	-3.928085	-0.582599	-0.380074
N26	N	-4.101188	-0.623208	-0.385211
C27	C	-3.892283	-0.104198	-0.607136
C28	C	-3.954625	-0.103536	-0.747507
C29	C	-4.155666	-0.107003	-0.816195
C30	C	-4.220103	-0.106319	-0.961276
C31	C	-4.216901	0.038160	-0.380743
C32	C	-4.171401	0.126354	-0.381910
C33	C	-4.157751	-0.101602	-0.158117
C34	C	-4.074648	-0.102260	-0.017745
H35	H	-3.571500	-0.482864	-0.369876
O36	O	-4.304336	-0.111259	-0.758395
C37	C	-4.457138	-0.182559	-0.811475
H38	H	-4.457249	-0.204000	-0.911146
H39	H	-4.619665	-0.170638	-0.817893
H40	H	-4.418065	-0.230694	-0.748312
O41	O	-3.498895	-0.325266	-0.370774
C42	C	-3.422278	-0.266333	-0.261159
H43	H	-3.559634	-0.253841	-0.230163
H44	H	-3.340553	-0.208771	-0.283971
H45	H	-3.304694	-0.288732	-0.180707
O46	O	-4.425547	-0.109964	-1.031872
C47	C	-4.497786	-0.178880	-1.125583
H48	H	-4.357374	-0.198362	-1.145316
H49	H	-4.609765	-0.164590	-1.217270
H50	H	-4.584630	-0.229412	-1.089941
O51	O	-3.806052	-0.099245	-0.805383
C52	C	-3.653188	-0.027967	-0.752253
H53	H	-3.724357	0.017794	-0.707743
H54	H	-3.599965	-0.002592	-0.830423
H55	H	-3.511633	-0.041463	-0.675634
O56	O	-3.869096	-0.098750	-0.947519
C57	C	-3.746361	-0.094822	-1.028197
H58	H	-3.851474	-0.120768	-1.130368
H59	H	-3.617428	-0.130930	-0.995059
H60	H	-3.670935	-0.029593	-1.024402
H61	H	-4.190717	-0.347193	-0.394662
H62	H	-3.838556	-0.858614	-0.370621
O63	O	-4.263370	-0.504737	-0.393798
C64	C	-4.339973	-0.563703	-0.503370
H65	H	-4.266121	-0.543965	-0.576939
H66	H	-4.518990	-0.571845	-0.545765
H67	H	-4.296756	-0.622979	-0.476013
O68	O	-4.484843	-0.717199	-0.396559
C69	C	-4.660946	-0.775106	-0.401379
H70	H	-4.643156	-0.836928	-0.438898
H71	H	-4.810992	-0.760032	-0.467696
H72	H	-4.671095	-0.775182	-0.301444
O73	O	-4.530222	-0.880496	-0.394159
C74	C	-4.502346	-0.917888	-0.284037
H75	H	-4.330155	-0.923203	-0.241779
H76	H	-4.607581	-0.980293	-0.310644
H77	H	-4.546759	-0.880406	-0.210642
O78	O	-3.765947	-0.701032	-0.371493
C79	C	-3.689335	-0.642105	-0.261871
H80	H	-3.826699	-0.629604	-0.230891
H81	H	-3.607570	-0.584545	-0.284668
H82	H	-3.571786	-0.664513	-0.181415
