data_functionalizedCrystal
_audit_creation_method	'MofGen! by Chris Wilmer'
_symmetry_space_group_name_H-M	'P1'
_symmetry_Int_Tables_number	1
_symmetry_cell_setting	triclinic
loop_
_symmetry_equiv_pos_as_xyz
  x,y,z
_cell_length_a	21.295417
_cell_length_b	17.077404
_cell_length_c	17.077396
_cell_angle_alpha	89.981638
_cell_angle_beta	89.966808
_cell_angle_gamma	90.028477
loop_
_atom_site_label
_atom_site_type_symbol
_atom_site_fract_x
_atom_site_fract_y
_atom_site_fract_z
Zn1	Zn	-0.250643	1.200013	-0.443793
Zn2	Zn	0.082690	1.533346	-0.110460
Zn3	Zn	0.416023	1.866680	0.222874
Zn4	Zn	-0.355916	1.199903	-0.312516
Zn5	Zn	-0.022583	1.533236	0.020817
Zn6	Zn	0.310750	1.866569	0.354150
Zn7	Zn	-0.250661	1.068745	-0.312544
Zn8	Zn	0.082672	1.402078	0.020790
Zn9	Zn	0.416005	1.735411	0.354123
Zn10	Zn	-0.355875	1.068695	-0.443743
Zn11	Zn	-0.022542	1.402029	-0.110409
Zn12	Zn	0.310792	1.735362	0.222924
O13	O	-0.303274	1.134339	-0.378149
O14	O	0.030059	1.467672	-0.044816
O15	O	0.363393	1.801006	0.288518
O16	O	-0.264618	1.309845	-0.426389
O17	O	0.068715	1.643179	-0.093055
O18	O	0.402049	1.976512	0.240278
O19	O	-0.341979	1.182479	-0.202673
O20	O	-0.008646	1.515812	0.130660
O21	O	0.324688	1.849145	0.463994
O22	O	-0.162569	1.086225	-0.329987
O23	O	0.170764	1.419558	0.003347
O24	O	0.504097	1.752891	0.336680
O25	O	-0.341962	1.309764	-0.329940
O26	O	-0.008628	1.643098	0.003393
O27	O	0.324705	1.976431	0.336726
O28	O	-0.162556	1.182667	-0.426415
O29	O	0.170777	1.516000	-0.093082
O30	O	0.504110	1.849334	0.240251
O31	O	-0.264648	1.086118	-0.202693
O32	O	0.068685	1.419451	0.130640
O33	O	0.402018	1.752784	0.463974
O34	O	-0.264608	0.958891	-0.329938
O35	O	0.068725	1.292225	0.003396
O36	O	0.402058	1.625558	0.336729
O37	O	-0.341891	1.086140	-0.553596
O38	O	-0.008557	1.419474	-0.220263
O39	O	0.324776	1.752807	0.113070
O40	O	-0.341908	0.958855	-0.426329
O41	O	-0.008575	1.292188	-0.092996
O42	O	0.324758	1.625522	0.240338
O43	O	-0.264578	1.182619	-0.553633
O44	O	0.068756	1.515952	-0.220300
O45	O	0.402089	1.849286	0.113033
O46	O	-0.444000	1.182431	-0.329891
O47	O	-0.110667	1.515764	0.003442
O48	O	0.222666	1.849097	0.336776
O49	O	-0.443970	1.086033	-0.426302
O50	O	-0.110636	1.419367	-0.092969
O51	O	0.222697	1.752700	0.240364
C52	C	-0.303256	0.930391	-0.378131
C53	C	0.030077	1.263724	-0.044798
C54	C	0.363411	1.597058	0.288535
C55	C	-0.303264	0.843141	-0.378142
C56	C	0.030070	1.176475	-0.044809
C57	C	0.363403	1.509808	0.288524
C58	C	-0.263062	0.802194	-0.428440
C59	C	0.070271	1.135527	-0.095106
C60	C	0.403604	1.468861	0.238227
C61	C	-0.263066	0.720214	-0.428443
C62	C	0.070267	1.053547	-0.095110
C63	C	0.403600	1.386880	0.238223
C64	C	-0.303275	0.679182	-0.378153
C65	C	0.030058	1.012515	-0.044820
C66	C	0.363391	1.345849	0.288514
C67	C	-0.343478	0.720135	-0.327850
C68	C	-0.010145	1.053468	0.005483
C69	C	0.323188	1.386802	0.338817
C70	C	-0.343471	0.802114	-0.327843
C71	C	-0.010137	1.135447	0.005490
C72	C	0.323196	1.468780	0.338824
C73	C	-0.343493	0.549265	-0.327870
C74	C	-0.010159	0.882598	0.005464
C75	C	0.323174	1.215931	0.338797
C76	C	-0.343501	0.467280	-0.327877
C77	C	-0.010168	0.800614	0.005456
C78	C	0.323165	1.133947	0.338789
C79	C	-0.263088	0.467365	-0.428470
C80	C	0.070245	0.800698	-0.095137
C81	C	0.403578	1.134031	0.238197
C82	C	-0.263081	0.549344	-0.428463
C83	C	0.070253	0.882677	-0.095130
C84	C	0.403586	1.216010	0.238204
C85	C	-0.303285	0.590291	-0.378161
C86	C	0.030049	0.923624	-0.044827
C87	C	0.363382	1.256958	0.288506
C88	C	-0.466826	1.134236	-0.378105
C89	C	-0.133492	1.467569	-0.044772
C90	C	0.199841	1.800903	0.288561
C91	C	-0.536794	1.134264	-0.378113
C92	C	-0.203460	1.467597	-0.044780
C93	C	0.129873	1.800931	0.288554
C94	C	-0.569655	1.184503	-0.327963
C95	C	-0.236322	1.517836	0.005370
C96	C	0.097011	1.851169	0.338704
C97	C	-0.635398	1.184539	-0.327981
C98	C	-0.302064	1.517873	0.005353
C99	C	0.031269	1.851206	0.338686
C100	C	-0.668276	1.134323	-0.378140
C101	C	-0.334943	1.467657	-0.044807
C102	C	-0.001610	1.800990	0.288527
C103	C	-0.635407	1.084081	-0.428300
C104	C	-0.302073	1.417414	-0.094967
C105	C	0.031260	1.750748	0.238367
C106	C	-0.569665	1.084051	-0.428286
C107	C	-0.236332	1.417385	-0.094953
C108	C	0.097001	1.750718	0.238380
N109	N	-0.771540	1.065655	-0.384118
N110	N	-0.438207	1.398988	-0.050785
N111	N	-0.104873	1.732321	0.282548
N112	N	-0.833991	1.065685	-0.384127
N113	N	-0.500658	1.399019	-0.050793
N114	N	-0.167325	1.732352	0.282540
C115	C	-0.866351	1.134411	-0.378185
C116	C	-0.533018	1.467745	-0.044852
C117	C	-0.199684	1.801078	0.288482
N118	N	-0.833900	1.203107	-0.372220
N119	N	-0.500566	1.536441	-0.038886
N120	N	-0.167233	1.869774	0.294447
N121	N	-0.771443	1.203076	-0.372207
N122	N	-0.438109	1.536409	-0.038874
N123	N	-0.104776	1.869743	0.294459
C124	C	-0.739562	1.134350	-0.378161
C125	C	-0.406228	1.467684	-0.044827
C126	C	-0.072895	1.801017	0.288506
C127	C	-0.970498	1.184694	-0.328052
C128	C	-0.637165	1.518028	0.005282
C129	C	-0.303831	1.851361	0.338615
C130	C	-1.036242	1.184732	-0.328075
C131	C	-0.702908	1.518066	0.005258
C132	C	-0.369575	1.851399	0.338592
C133	C	-1.036249	1.084267	-0.428390
C134	C	-0.702916	1.417600	-0.095056
C135	C	-0.369583	1.750934	0.238277
C136	C	-0.970507	1.084236	-0.428371
C137	C	-0.637173	1.417569	-0.095037
C138	C	-0.303840	1.750903	0.238296
C139	C	-0.937635	1.134448	-0.378198
C140	C	-0.604302	1.467782	-0.044864
C141	C	-0.270968	1.801115	0.288469
C142	C	-0.139084	1.134464	-0.378210
C143	C	0.194250	1.467797	-0.044876
C144	C	0.527583	1.801130	0.288457
C145	C	-0.069116	1.134517	-0.378236
C146	C	0.264218	1.467850	-0.044902
C147	C	0.597551	1.801183	0.288431
C148	C	-0.303228	1.134386	-0.582893
C149	C	0.030106	1.467720	-0.249560
C150	C	0.363439	1.801053	0.083773
C151	C	-0.303208	1.134407	-0.670143
C152	C	0.030126	1.467740	-0.336810
C153	C	0.363459	1.801073	-0.003476
C154	C	-0.303292	1.339083	-0.378167
C155	C	0.030041	1.672417	-0.044834
C156	C	0.363374	2.005750	0.288500
C157	C	-0.303300	1.426333	-0.378175
C158	C	0.030033	1.759666	-0.044841
C159	C	0.363367	2.093000	0.288492
C160	C	-0.262948	1.184645	-0.711154
C161	C	0.070386	1.517978	-0.377821
C162	C	0.403719	1.851312	-0.044487
C163	C	-0.262927	1.184654	-0.793134
C164	C	0.070407	1.517988	-0.459801
C165	C	0.403740	1.851321	-0.126468
C166	C	-0.303170	1.134429	-0.834103
C167	C	0.030164	1.467762	-0.500769
C168	C	0.363497	1.801096	-0.167436
C169	C	-0.343432	1.084185	-0.793086
C170	C	-0.010098	1.417519	-0.459753
C171	C	0.323235	1.750852	-0.126419
C172	C	-0.343449	1.084172	-0.711107
C173	C	-0.010116	1.417506	-0.377774
C174	C	0.323218	1.750839	-0.044440
C175	C	-0.343394	1.084217	-0.963956
C176	C	-0.010060	1.417550	-0.630623
C177	C	0.323273	1.750884	-0.297290
C178	C	-0.343377	1.084231	-1.045941
C179	C	-0.010044	1.417564	-0.712608
C180	C	0.323289	1.750897	-0.379274
C181	C	-0.262871	1.184699	-1.045984
C182	C	0.070462	1.518032	-0.712650
C183	C	0.403795	1.851365	-0.379317
C184	C	-0.262889	1.184686	-0.964005
C185	C	0.070445	1.518019	-0.630671
C186	C	0.403778	1.851353	-0.297338
C187	C	-0.303152	1.134443	-0.922994
C188	C	0.030182	1.467776	-0.589660
C189	C	0.363515	1.801110	-0.256327
C190	C	-0.303275	1.134337	-0.174201
C191	C	0.030059	1.467670	0.159132
C192	C	0.363392	1.801003	0.492466
C193	C	-0.303117	1.134469	-0.086952
C194	C	0.030216	1.467802	0.246382
C195	C	0.363550	1.801135	0.579715
H196	H	-0.376214	0.686720	-0.286899
H197	H	-0.042881	1.020054	0.046434
H198	H	0.290452	1.353387	0.379768
H199	H	-0.230179	1.225547	-0.677803
H200	H	0.103154	1.558880	-0.344470
H201	H	0.436488	1.892213	-0.011137
Cl202	Cl	-0.676738	1.020956	-0.491361
Cl203	Cl	-0.343405	1.354289	-0.158028
Cl204	Cl	-0.010072	1.687623	0.175306
H205	H	-0.376227	1.043255	-0.677717
H206	H	-0.042893	1.376589	-0.344384
H207	H	0.290440	1.709922	-0.011050
H208	H	-0.230144	1.225565	-0.826522
H209	H	0.103189	1.558899	-0.493188
H210	H	0.436523	1.892232	-0.159855
H211	H	-0.542893	1.225390	-0.287111
H212	H	-0.209560	1.558724	0.046222
H213	H	0.123774	1.892057	0.379555
Cl214	Cl	-0.528351	1.020888	-0.491337
Cl215	Cl	-0.195018	1.354221	-0.158003
Cl216	Cl	0.138315	1.687555	0.175330
H217	H	-0.230087	1.225607	-1.079379
H218	H	0.103247	1.558940	-0.746045
H219	H	0.436580	1.892274	-0.412712
H220	H	-0.376229	0.582602	-0.286906
H221	H	-0.042896	0.915935	0.046427
H222	H	0.290437	1.249268	0.379760
Cl223	Cl	-0.212300	1.247832	-0.912503
Cl224	Cl	0.121033	1.581165	-0.579169
Cl225	Cl	0.454366	1.914499	-0.245836
Cl226	Cl	-0.393962	1.021080	-1.097443
Cl227	Cl	-0.060629	1.354414	-0.764110
Cl228	Cl	0.272704	1.687747	-0.430776
Cl229	Cl	-0.394021	1.021041	-0.844589
Cl230	Cl	-0.060688	1.354375	-0.511256
Cl231	Cl	0.272646	1.687708	-0.177923
H232	H	-0.230332	0.686878	-0.469402
H233	H	0.103002	1.020211	-0.136069
H234	H	0.436335	1.353545	0.197265
Cl235	Cl	-0.212514	0.853769	-0.491669
Cl236	Cl	0.120820	1.187102	-0.158336
Cl237	Cl	0.454153	1.520436	0.174997
H238	H	-0.376170	1.043291	-0.930568
H239	H	-0.042837	1.376625	-0.597234
H240	H	0.290496	1.709958	-0.263901
Cl241	Cl	-0.929171	1.247817	-0.264978
Cl242	Cl	-0.595837	1.581150	0.068355
Cl243	Cl	-0.262504	1.914483	0.401689
Cl244	Cl	-0.394012	0.853591	-0.264610
Cl245	Cl	-0.060679	1.186924	0.068723
Cl246	Cl	0.272654	1.520257	0.402057
Cl247	Cl	-0.676718	1.247700	-0.264929
Cl248	Cl	-0.343385	1.581033	0.068405
Cl249	Cl	-0.010052	1.914367	0.401738
H250	H	-0.230343	0.582750	-0.469418
H251	H	0.102991	0.916083	-0.136085
H252	H	0.436324	1.249416	0.197248
H253	H	-0.230352	0.434021	-0.469426
H254	H	0.102982	0.767355	-0.136093
H255	H	0.436315	1.100688	0.197240
H256	H	-1.062997	1.225648	-0.287238
H257	H	-0.729663	1.558981	0.046095
H258	H	-0.396330	1.892314	0.379428
H259	H	-1.063018	1.043384	-0.469234
H260	H	-0.729685	1.376717	-0.135901
H261	H	-0.396351	1.710050	0.197433
H262	H	-0.376243	0.433874	-0.286927
H263	H	-0.042910	0.767208	0.046406
H264	H	0.290423	1.100541	0.379740
Cl265	Cl	-0.929193	1.021071	-0.491417
Cl266	Cl	-0.595859	1.354405	-0.158083
Cl267	Cl	-0.262526	1.687738	0.175250
