data_functionalizedCrystal
_audit_creation_method	'MofGen! by Chris Wilmer'
_symmetry_space_group_name_H-M	'P1'
_symmetry_Int_Tables_number	1
_symmetry_cell_setting	triclinic
loop_
_symmetry_equiv_pos_as_xyz
  x,y,z
_cell_length_a	16.625548
_cell_length_b	12.827892
_cell_length_c	12.827885
_cell_angle_alpha	89.970214
_cell_angle_beta	89.978573
_cell_angle_gamma	90.016460
loop_
_atom_site_label
_atom_site_type_symbol
_atom_site_fract_x
_atom_site_fract_y
_atom_site_fract_z
Zn1	Zn	1.232727	-0.415953	-0.590903
Zn2	Zn	1.732727	0.084047	-0.090903
Zn3	Zn	1.232645	-0.590730	-0.416164
Zn4	Zn	1.732645	-0.090730	0.083836
Zn5	Zn	1.097887	-0.416007	-0.416171
Zn6	Zn	1.597887	0.083993	0.083829
Zn7	Zn	1.097876	-0.590656	-0.590858
Zn8	Zn	1.597876	-0.090656	-0.090858
O9	O	1.165284	-0.503336	-0.503524
O10	O	1.665284	-0.003336	-0.003524
O11	O	1.345548	-0.439146	-0.567740
O12	O	1.845548	0.060854	-0.067740
O13	O	1.214739	-0.567606	-0.269929
O14	O	1.714739	-0.067606	0.230071
O15	O	1.115813	-0.269764	-0.439372
O16	O	1.615813	0.230236	0.060628
O17	O	1.345488	-0.567554	-0.439359
O18	O	1.845488	-0.067554	0.060641
O19	O	1.214879	-0.269724	-0.567747
O20	O	1.714879	0.230276	-0.067747
O21	O	1.115733	-0.439238	-0.269934
O22	O	1.615733	0.060762	0.230066
O23	O	0.985053	-0.439166	-0.439328
O24	O	1.485053	0.060834	0.060672
O25	O	1.115794	-0.567427	-0.737100
O26	O	1.615794	-0.067427	-0.237100
O27	O	0.985045	-0.567480	-0.567669
O28	O	1.485045	-0.067480	-0.067669
O29	O	1.214868	-0.439074	-0.737134
O30	O	1.714868	0.060926	-0.237134
O31	O	1.214728	-0.736956	-0.439315
O32	O	1.714728	-0.236956	0.060685
O33	O	1.115714	-0.736901	-0.567662
O34	O	1.615714	-0.236901	-0.067662
C35	C	1.165233	-0.774846	-0.503506
C36	C	1.665233	-0.274846	-0.003506
C37	C	1.165285	-0.890999	-0.503533
C38	C	1.665285	-0.390999	-0.003533
C39	C	0.955793	-0.503321	-0.503495
C40	C	1.455793	-0.003321	-0.003495
C41	C	0.866172	-0.503340	-0.503507
C42	C	1.366172	-0.003340	-0.003507
C43	C	1.214339	-0.942776	-0.440093
C44	C	1.714339	-0.442776	0.059907
C45	C	1.214394	-1.062827	-0.440120
C46	C	1.714394	-0.562827	0.059880
C47	C	0.537996	-0.503347	-0.503552
C48	C	1.037996	-0.003347	-0.003552
C49	C	0.629304	-0.503342	-0.503536
C50	C	1.129304	-0.003342	-0.003536
C51	C	0.702081	-0.503344	-0.503529
C52	C	1.202081	-0.003344	-0.003529
C53	C	0.793395	-0.503338	-0.503514
C54	C	1.293395	-0.003338	-0.003514
C55	C	1.375592	-0.503352	-0.503554
C56	C	1.875592	-0.003352	-0.003554
C57	C	1.465214	-0.503359	-0.503567
C58	C	1.965214	-0.003359	-0.003567
C59	C	1.165339	-0.503236	-0.776094
C60	C	1.665339	-0.003236	-0.276094
C61	C	1.165363	-0.503193	-0.892248
C62	C	1.665363	-0.003193	-0.392248
C63	C	1.165356	-0.230766	-0.503565
C64	C	1.665356	0.269234	-0.003565
C65	C	1.165387	-0.114613	-0.503583
C66	C	1.665387	0.385387	-0.003583
C67	C	1.116387	-0.439660	-0.944035
C68	C	1.616387	0.060340	-0.444035
C69	C	1.116410	-0.439614	-1.064085
C70	C	1.616410	0.060386	-0.564085
C71	C	1.165275	-0.503361	-0.232014
C72	C	1.665275	-0.003361	0.267986
C73	C	1.165407	-0.503109	-0.115861
C74	C	1.665407	-0.003109	0.384139
H75	H	1.256298	-0.898231	-0.385764
H76	H	1.756298	-0.398231	0.114236
C77	C	1.271130	-1.122978	-0.366740
C78	C	1.771130	-0.622978	0.133260
N79	N	1.313865	-1.168286	-0.311468
N80	N	1.813865	-0.668286	0.188532
H81	H	1.074484	-0.385217	-1.108621
H82	H	1.574484	0.114783	-0.608621
C83	C	1.108647	-1.054469	-0.576964
C84	C	1.608647	-0.554469	-0.076964
N85	N	1.065912	-1.009160	-0.632235
N86	N	1.565912	-0.509160	-0.132235
H87	H	1.123333	-0.935548	-0.557869
H88	H	1.623333	-0.435548	-0.057869
C89	C	1.222057	-0.576598	-1.055705
C90	C	1.722057	-0.076598	-0.555705
N91	N	1.264725	-0.631951	-1.010388
N92	N	1.764725	-0.131951	-0.510388
H93	H	1.074437	-0.385305	-0.899495
H94	H	1.574437	0.114695	-0.399495
H95	H	1.207309	-0.557553	-0.936787
H96	H	1.707309	-0.057553	-0.436787
