data_functionalizedCrystal
_audit_creation_method	'MofGen! by Chris Wilmer'
_symmetry_space_group_name_H-M	'P1'
_symmetry_Int_Tables_number	1
_symmetry_cell_setting	triclinic
loop_
_symmetry_equiv_pos_as_xyz
  x,y,z
_cell_length_a	19.077312
_cell_length_b	12.759394
_cell_length_c	19.076919
_cell_angle_alpha	92.275853
_cell_angle_beta	94.668947
_cell_angle_gamma	87.719771
loop_
_atom_site_label
_atom_site_type_symbol
_atom_site_fract_x
_atom_site_fract_y
_atom_site_fract_z
Zn1	Zn	1.061712	-0.503164	-0.355291
Zn2	Zn	1.561712	-0.003164	0.144709
Zn3	Zn	1.066388	-0.672068	-0.237417
Zn4	Zn	1.566388	-0.172068	0.262583
Zn5	Zn	0.948568	-0.489634	-0.242158
Zn6	Zn	1.448568	0.010366	0.257842
Zn7	Zn	0.943819	-0.672025	-0.360000
Zn8	Zn	1.443819	-0.172025	0.140000
O9	O	1.005122	-0.584223	-0.298716
O10	O	1.505122	-0.084223	0.201284
O11	O	1.160979	-0.531250	-0.335700
O12	O	1.660979	-0.031250	0.164300
O13	O	1.054703	-0.642224	-0.139398
O14	O	1.554703	-0.142224	0.360602
O15	O	0.963608	-0.344410	-0.257178
O16	O	1.463608	0.155590	0.242822
O17	O	1.164414	-0.655343	-0.249098
O18	O	1.664414	-0.155343	0.250902
O19	O	1.046734	-0.354351	-0.340297
O20	O	1.546734	0.145649	0.159703
O21	O	0.968141	-0.508191	-0.142881
O22	O	1.468141	-0.008191	0.357119
O23	O	0.849292	-0.508149	-0.261745
O24	O	1.349292	-0.008149	0.238255
O25	O	0.955514	-0.655269	-0.458023
O26	O	1.455514	-0.155269	0.041977
O27	O	0.845802	-0.642150	-0.348323
O28	O	1.345802	-0.142150	0.151677
O29	O	1.042129	-0.531208	-0.454563
O30	O	1.542129	-0.031208	0.045437
O31	O	1.050098	-0.819081	-0.253665
O32	O	1.550098	-0.319081	0.246335
O33	O	0.960047	-0.819049	-0.343726
O34	O	1.460047	-0.319049	0.156274
C35	C	0.821969	-0.573677	-0.306059
C36	C	1.321969	-0.073677	0.193941
C37	C	0.743615	-0.569192	-0.309218
C38	C	1.243615	-0.069192	0.190782
C39	C	0.302371	-0.536940	-0.331876
C40	C	0.802371	-0.036940	0.168124
C41	C	0.375993	-0.541173	-0.328904
C42	C	0.875993	-0.041173	0.171096
C43	C	0.414586	-0.607784	-0.282257
C44	C	0.914586	-0.107784	0.217743
C45	C	0.379554	-0.670174	-0.238583
C46	C	0.879554	-0.170174	0.261417
C47	C	0.305933	-0.665945	-0.241559
C48	C	0.805933	-0.165945	0.258441
C49	C	0.634961	-0.627353	-0.268519
C50	C	1.134961	-0.127353	0.231481
C51	C	0.708587	-0.631574	-0.265546
C52	C	1.208587	-0.131574	0.234454
C53	C	0.705021	-0.502575	-0.355868
C54	C	1.205021	-0.002575	0.144132
C55	C	0.631399	-0.498348	-0.358836
C56	C	1.131399	0.001652	0.141164
C57	C	0.596373	-0.560741	-0.315165
C58	C	1.096373	-0.060741	0.184835
N59	N	0.489840	-0.612111	-0.279217
N60	N	0.989840	-0.112111	0.220783
N61	N	0.521120	-0.556419	-0.318209
N62	N	1.021120	-0.056419	0.181791
C63	C	1.005083	-0.857187	-0.298706
C64	C	1.505083	-0.357187	0.201294
C65	C	1.005130	-0.973968	-0.298723
C66	C	1.505130	-0.473968	0.201277
C67	C	1.091619	-0.984160	-0.385344
C68	C	1.591619	-0.484160	0.114656
C69	C	1.134886	-1.044119	-0.428660
C70	C	1.634886	-0.544119	0.071340
C71	C	1.134927	-1.153844	-0.428673
C72	C	1.634927	-0.653844	0.071327
C73	C	1.091696	-1.203612	-0.385368
C74	C	1.591696	-0.703612	0.114632
C75	C	1.048429	-1.143653	-0.342053
C76	C	1.548429	-0.643653	0.157947
C77	C	1.048394	-1.033927	-0.342043
C78	C	1.548394	-0.533927	0.157957
C79	C	0.961937	-1.133461	-0.255437
C80	C	1.461937	-0.633461	0.244563
C81	C	0.961898	-1.023736	-0.255418
C82	C	1.461898	-0.523736	0.244582
C83	C	0.918705	-1.183229	-0.212132
C84	C	1.418705	-0.683229	0.287868
C85	C	0.875441	-1.123271	-0.168812
C86	C	1.375441	-0.623271	0.331188
C87	C	0.875402	-1.013539	-0.168800
C88	C	1.375402	-0.513539	0.331200
C89	C	0.918632	-0.963778	-0.212103
C90	C	1.418632	-0.463778	0.287897
C91	C	1.188990	-0.594810	-0.291345
C92	C	1.688990	-0.094810	0.208655
C93	C	1.267343	-0.599322	-0.288204
C94	C	1.767343	-0.099322	0.211796
C95	C	0.997770	-0.594743	-0.482587
C96	C	1.497770	-0.094743	0.017413
C97	C	0.994637	-0.599226	-0.560941
C98	C	1.494637	-0.099226	-0.060941
C99	C	1.005179	-0.310194	-0.298741
C100	C	1.505179	0.189806	0.201259
C101	C	1.005204	-0.193420	-0.298752
C102	C	1.505204	0.306580	0.201248
C103	C	1.038259	-0.536742	-0.595952
C104	C	1.538259	-0.036742	-0.095952
C105	C	1.035307	-0.540950	-0.669575
C106	C	1.535307	-0.040950	-0.169575
C107	C	0.988736	-0.607647	-0.708185
C108	C	1.488736	-0.107647	-0.208185
C109	C	0.945109	-0.670133	-0.673169
C110	C	1.445109	-0.170133	-0.173169
C111	C	0.948058	-0.665919	-0.599548
C112	C	1.448058	-0.165919	-0.099548
C113	C	0.975077	-0.627171	-0.928563
C114	C	1.475077	-0.127171	-0.428563
C115	C	0.972133	-0.631383	-1.002189
C116	C	1.472133	-0.131383	-0.502189
C117	C	1.062330	-0.502198	-0.998590
C118	C	1.562330	-0.002198	-0.498590
C119	C	1.065278	-0.497994	-0.924967
C120	C	1.565278	0.002006	-0.424967
C121	C	1.021649	-0.560476	-0.889958
C122	C	1.521649	-0.060476	-0.389958
N123	N	0.985719	-0.611952	-0.783440
N124	N	1.485719	-0.111952	-0.283440
N125	N	1.024663	-0.556165	-0.814705
N126	N	1.524663	-0.056165	-0.314705
C127	C	1.012485	-0.573670	-0.115560
C128	C	1.512485	-0.073670	0.384440
C129	C	1.015755	-0.568899	-0.037200
C130	C	1.515755	-0.068899	0.462800
H131	H	1.091597	-0.894817	-0.385331
H132	H	1.591597	-0.394817	0.114669
H133	H	1.170151	-1.202662	-0.463952
H134	H	1.670151	-0.702662	0.036048
O135	O	0.828734	-0.948871	-0.122082
O136	O	1.328734	-0.448871	0.377918
H137	H	0.861725	-0.898623	-0.084969
H138	H	1.361725	-0.398623	0.415031
O139	O	0.750218	-0.703418	-0.215229
O140	O	1.250218	-0.203418	0.284771
H141	H	0.782512	-0.760660	-0.245363
H142	H	1.282512	-0.260660	0.254637
O143	O	1.091783	-1.321958	-0.385334
O144	O	1.591783	-0.821958	0.114666
H145	H	1.129150	-1.355289	-0.422710
H146	H	1.629150	-0.855289	0.077290
H147	H	0.270953	-0.482691	-0.369857
H148	H	0.770953	0.017309	0.130143
O149	O	0.597185	-0.694641	-0.221417
O150	O	1.097185	-0.194641	0.278583
H151	H	0.565064	-0.643556	-0.186969
H152	H	1.065064	-0.143556	0.313031
H153	H	0.404509	-0.490379	-0.364469
H154	H	0.904509	0.009621	0.135531
O155	O	0.894877	-0.742070	-0.714812
O156	O	1.394877	-0.242070	-0.214812
H157	H	0.840122	-0.720045	-0.702901
H158	H	1.340122	-0.220045	-0.202901
O159	O	0.589773	-0.426501	-0.409147
O160	O	1.089773	0.073499	0.090853
H161	H	0.626499	-0.383836	-0.439020
H162	H	1.126499	0.116164	0.060980
H163	H	0.939561	-0.678064	-0.900067
H164	H	1.439561	-0.178064	-0.400067
H165	H	0.912530	-0.716789	-0.571043
H166	H	1.412530	-0.216789	-0.071043
H167	H	0.410982	-0.724414	-0.200605
H168	H	0.910982	-0.224414	0.299395
O169	O	0.268150	-0.733219	-0.194448
O170	O	0.768150	-0.233219	0.305552
H171	H	0.281796	-0.817202	-0.205864
H172	H	0.781796	-0.317202	0.294136
O173	O	0.742797	-0.435289	-0.402974
O174	O	1.242797	0.064711	0.097026
H175	H	0.800474	-0.449423	-0.393075
H176	H	1.300474	0.050577	0.106925
H177	H	1.170084	-1.003588	-0.463919
H178	H	1.670084	-0.503588	0.036081
O179	O	0.828814	-1.176943	-0.122110
O180	O	1.328814	-0.676943	0.377890
H181	H	0.843148	-1.153427	-0.066304
H182	H	1.343148	-0.653427	0.433696
O183	O	0.918810	-1.301578	-0.212124
O184	O	1.418810	-0.801578	0.287876
H185	H	0.902440	-1.332773	-0.265854
H186	H	1.402440	-0.832773	0.234146
O187	O	0.918588	-0.845431	-0.212089
O188	O	1.418588	-0.345431	0.287911
H189	H	0.955913	-0.820902	-0.249481
H190	H	1.455913	-0.320902	0.250519
O191	O	1.088490	-0.464804	-0.554309
O192	O	1.588490	0.035196	-0.054309
H193	H	1.118322	-0.422056	-0.591026
H194	H	1.618322	0.077944	-0.091026
O195	O	1.082360	-0.473565	-0.707340
O196	O	1.582360	0.026435	-0.207340
H197	H	1.115247	-0.426490	-0.668123
H198	H	1.615247	0.073510	-0.168123
O199	O	1.115511	-0.426062	-0.883322
O200	O	1.615511	0.073938	-0.383322
H201	H	1.145347	-0.383316	-0.920037
H202	H	1.645347	0.116684	-0.420037
H203	H	1.097849	-0.451328	-1.027103
H204	H	1.597849	0.048672	-0.527103
H205	H	0.934207	-0.685698	-1.033624
H206	H	1.434207	-0.185698	-0.533624
