data_functionalizedCrystal
_audit_creation_method	'MofGen! by Chris Wilmer'
_symmetry_space_group_name_H-M	'P1'
_symmetry_Int_Tables_number	1
_symmetry_cell_setting	triclinic
loop_
_symmetry_equiv_pos_as_xyz
  x,y,z
_cell_length_a	17.699083
_cell_length_b	9.065218
_cell_length_c	7.540329
_cell_angle_alpha	89.998243
_cell_angle_beta	90.003072
_cell_angle_gamma	84.149450
loop_
_atom_site_label
_atom_site_type_symbol
_atom_site_fract_x
_atom_site_fract_y
_atom_site_fract_z
O1	O	1.005529	0.186555	-0.147226
O2	O	1.505529	0.686555	0.352774
O3	O	0.785340	0.210827	-0.147284
O4	O	1.285340	0.710827	0.352716
O5	O	0.899986	-0.016086	-0.147250
O6	O	1.399986	0.483914	0.352750
O7	O	0.890883	0.413468	-0.147260
O8	O	1.390883	0.913468	0.352740
O9	O	0.899979	-0.016089	0.147715
O10	O	1.399979	0.483911	0.647715
O11	O	0.785333	0.210824	0.147681
O12	O	1.285333	0.710824	0.647681
O13	O	1.005522	0.186552	0.147739
O14	O	1.505522	0.686552	0.647739
Cu15	Cu	0.895427	0.198688	0.174643
Cu16	Cu	1.395427	0.698688	0.674643
Cu17	Cu	0.895435	0.198691	-0.174188
Cu18	Cu	1.395435	0.698691	0.325812
O19	O	0.890876	0.413466	0.147705
O20	O	1.390876	0.913466	0.647705
C21	C	0.899108	-0.071048	0.000229
C22	C	1.399108	0.428952	0.500229
C23	C	0.896492	-0.234814	0.000220
C24	C	1.396492	0.265186	0.500220
C25	C	0.757133	0.209956	0.000192
C26	C	1.257133	0.709956	0.500192
C27	C	0.673094	0.207347	0.000170
C28	C	1.173094	0.707347	0.500170
C29	C	0.625512	0.340540	0.000167
C30	C	1.125512	0.840540	0.500167
C31	C	0.546550	0.338080	0.000190
C32	C	1.046550	0.838080	0.500190
C33	C	0.515171	0.202425	0.000203
C34	C	1.015171	0.702425	0.500203
C35	C	0.562759	0.069221	0.000211
C36	C	1.062759	0.569221	0.500211
C37	C	0.641720	0.071683	0.000200
C38	C	1.141720	0.571683	0.500200
C39	C	0.244319	0.059289	0.000255
C40	C	0.744319	0.559289	0.500255
C41	C	0.165352	0.056838	0.000260
C42	C	0.665352	0.556838	0.500260
C43	C	0.149148	0.325686	0.000244
C44	C	0.649148	0.825686	0.500244
C45	C	0.228109	0.328148	0.000234
C46	C	0.728109	0.828148	0.500234
C47	C	0.275691	0.194946	0.000251
C48	C	0.775691	0.694946	0.500251
C49	C	0.361311	0.197615	0.000230
C50	C	0.861311	0.697615	0.500230
C51	C	0.429552	0.199754	0.000212
C52	C	0.929552	0.699754	0.500212
C53	C	1.033729	0.187423	0.000260
C54	C	1.533729	0.687423	0.500260
C55	C	1.117768	0.190033	0.000270
C56	C	1.617768	0.690033	0.500270
C57	C	0.891755	0.468428	0.000222
C58	C	1.391755	0.968428	0.500222
C59	C	0.894370	0.632193	0.000219
C60	C	1.394370	1.132193	0.500219
N61	N	0.895427	0.198685	0.419991
N62	N	1.395427	0.698685	0.919991
N63	N	0.895441	0.198683	-0.419536
N64	N	1.395441	0.698683	0.080464
H65	H	0.507811	0.446539	0.000186
H66	H	1.007811	0.946539	0.500186
O67	O	0.290498	-0.070141	-0.000055
O68	O	0.790498	0.429859	0.499945
C69	C	0.276110	-0.152532	-0.152794
C70	C	0.776110	0.347468	0.347206
H71	H	0.249664	-0.074548	-0.259571
H72	H	0.749664	0.425452	0.240429
H73	H	0.331709	-0.211905	-0.204071
H74	H	0.831709	0.288095	0.295929
H75	H	0.235324	-0.237767	-0.118251
H76	H	0.735324	0.262233	0.381749
H77	H	0.253653	0.438612	0.000216
H78	H	0.753653	0.938612	0.500216
H79	H	0.680462	-0.036777	0.000201
H80	H	1.180462	0.463223	0.500201
H81	H	0.110397	0.434146	0.000240
H82	H	0.610397	0.934146	0.500240
O83	O	0.134834	-0.074909	-0.000030
O84	O	0.634834	0.425091	0.499970
C85	C	0.089625	-0.084366	-0.152771
C86	C	0.589625	0.415634	0.347229
H87	H	0.108822	-0.007353	-0.259557
H88	H	0.608822	0.492647	0.240443
H89	H	0.095891	-0.203292	-0.204030
H90	H	0.595891	0.296708	0.295970
H91	H	0.027606	-0.050105	-0.118236
H92	H	0.527606	0.449895	0.381764
O93	O	0.532243	-0.062518	-0.000090
O94	O	1.032243	0.437482	0.499910
C95	C	0.487034	-0.071969	-0.152830
C96	C	0.987034	0.428031	0.347170
H97	H	0.506228	0.005056	-0.259609
H98	H	1.006228	0.505056	0.240391
H99	H	0.493303	-0.190890	-0.204103
H100	H	0.993303	0.309110	0.295897
H101	H	0.425015	-0.037717	-0.118290
H102	H	0.925015	0.462283	0.381710
O103	O	0.655865	0.472447	0.000231
O104	O	1.155865	0.972447	0.500231
C105	C	0.596931	0.589477	0.000192
C106	C	1.096931	1.089477	0.500192
H107	H	0.543025	0.548310	0.056044
H108	H	1.043025	1.048310	0.556044
H109	H	0.614080	0.684206	0.085823
H110	H	1.114080	1.184206	0.585823
H111	H	0.586034	0.630550	-0.141317
H112	H	1.086034	1.130550	0.358683
