data_functionalizedCrystal
_audit_creation_method	'MofGen! by Chris Wilmer'
_symmetry_space_group_name_H-M	'P1'
_symmetry_Int_Tables_number	1
_symmetry_cell_setting	triclinic
loop_
_symmetry_equiv_pos_as_xyz
  x,y,z
_cell_length_a	10.654550
_cell_length_b	16.109304
_cell_length_c	9.130313
_cell_angle_alpha	90.001562
_cell_angle_beta	90.000042
_cell_angle_gamma	83.973770
loop_
_atom_site_label
_atom_site_type_symbol
_atom_site_fract_x
_atom_site_fract_y
_atom_site_fract_z
O1	O	1.666252	0.116770	-0.121780
O2	O	1.300622	0.127895	-0.121784
O3	O	1.493479	0.001362	-0.121783
O4	O	1.473395	0.243304	-0.121781
O5	O	1.493477	0.001365	0.121816
O6	O	1.300620	0.127899	0.121815
O7	O	1.666249	0.116773	0.121819
Cu8	Cu	1.483434	0.122336	0.144059
Cu9	Cu	1.483437	0.122332	-0.144025
O10	O	1.473392	0.243307	0.121818
C11	C	1.492664	-0.029616	0.000013
C12	C	1.490223	-0.121926	0.000003
C13	C	1.253834	0.127080	0.000015
C14	C	1.114424	0.124636	0.000013
C15	C	1.484585	-0.334299	-0.132777
C16	C	1.482280	-0.421033	-0.132776
C17	C	1.482283	-0.421026	0.132809
C18	C	1.484579	-0.334293	0.132806
C19	C	1.485737	-0.290932	0.000009
C20	C	1.481135	-0.464399	0.000013
C21	C	1.478636	-0.558440	0.000016
C22	C	1.488234	-0.196885	0.000006
C23	C	1.713037	0.117589	0.000017
C24	C	1.852448	0.120033	0.000009
C25	C	1.932943	0.045531	0.000003
C26	C	2.063932	0.047833	0.000010
C27	C	2.033919	0.199143	0.000023
C28	C	1.902932	0.196841	0.000027
C29	C	1.950272	-0.041826	-0.000011
C30	C	2.081262	-0.039525	-0.000004
C31	C	1.474208	0.274285	0.000018
C32	C	1.476649	0.366595	0.000019
N33	N	1.483442	0.122339	0.346682
N34	N	1.483440	0.122324	-0.346647
C35	C	1.568860	0.066329	0.423335
C36	C	1.568857	0.066319	0.576671
C37	C	1.398012	0.178336	0.576690
C38	C	1.398011	0.178341	0.423356
C39	C	1.667500	0.001659	0.423325
C40	C	1.667497	0.001649	0.576662
H41	H	1.481339	-0.456338	-0.240903
O42	O	1.481046	-0.467791	0.276040
H43	H	1.567027	-0.458048	0.339709
H44	H	1.915018	-0.069645	-0.105191
O45	O	1.640257	-0.082979	0.368138
H46	H	1.546469	-0.096823	0.408665
O47	O	1.485809	-0.287525	-0.276000
H48	H	1.484605	-0.332254	-0.368333
O49	O	1.485836	-0.287510	0.276031
H50	H	1.484669	-0.332233	0.368374
H51	H	1.837396	0.257507	0.000049
O52	O	2.142216	-0.074473	0.139321
H53	H	2.068603	-0.094870	0.213178
O54	O	2.088381	0.281980	0.000037
H55	H	2.056051	0.317809	0.099335
O56	O	1.787924	0.028462	0.360308
H57	H	1.851772	0.042666	0.450902
O58	O	1.911981	-0.087069	0.135025
H59	H	1.959591	-0.151748	0.134950
O60	O	2.137180	-0.083113	-0.135043
H61	H	2.060672	-0.106269	-0.201168
O62	O	1.305876	0.238747	0.340673
H63	H	1.246482	0.277691	0.419753
H64	H	1.328456	0.223931	0.639134
O65	O	1.628224	-0.078353	0.639665
H66	H	1.607403	-0.120760	0.549065
H67	H	1.763815	0.015894	0.618280
