data_functionalizedCrystal
_audit_creation_method	'MofGen! by Chris Wilmer'
_symmetry_space_group_name_H-M	'P1'
_symmetry_Int_Tables_number	1
_symmetry_cell_setting	triclinic
loop_
_symmetry_equiv_pos_as_xyz
  x,y,z
_cell_length_a	14.446369
_cell_length_b	17.052832
_cell_length_c	17.052862
_cell_angle_alpha	102.027225
_cell_angle_beta	70.264414
_cell_angle_gamma	67.549512
loop_
_atom_site_label
_atom_site_type_symbol
_atom_site_fract_x
_atom_site_fract_y
_atom_site_fract_z
Zr1	Zr	1.032264	0.764955	0.053418
O2	O	1.178588	0.657075	-0.078009
O3	O	0.853489	0.798031	0.093709
O4	O	0.996424	0.819784	-0.047236
O5	O	1.075241	0.618157	0.174115
O6	O	1.005065	0.948126	-0.022964
O7	O	1.035654	0.635322	0.062936
O8	O	0.749381	0.909213	0.229162
O9	O	1.330925	0.657070	-0.078011
O10	O	0.945489	0.907911	0.129005
O11	O	0.968583	0.799321	0.193862
O12	O	1.136870	0.824933	0.027917
O13	O	1.159965	0.716343	0.092774
Zr14	Zr	1.109183	0.942269	0.269447
Zr15	Zr	1.046046	0.969646	0.092130
Zr16	Zr	1.095400	0.737578	0.230735
Zr17	Zr	1.275222	0.764946	0.053415
Zr18	Zr	0.866224	0.942278	0.269450
O19	O	1.287957	0.909193	0.229155
O20	O	1.198185	0.948119	-0.022966
O21	O	1.268361	0.618149	0.174112
O22	O	0.962858	1.050149	0.400874
O23	O	0.873086	1.089075	0.148753
O24	O	0.943261	0.759105	0.345831
O25	O	1.066205	1.089067	0.148750
O26	O	1.145023	0.887440	0.370101
O27	O	1.136381	0.759098	0.345828
O28	O	1.105792	1.071902	0.259928
O29	O	1.341880	0.819771	-0.047240
O30	O	0.799567	0.887453	0.370105
O31	O	0.810522	1.050154	0.400876
O32	O	0.760336	1.071915	0.259933
O33	O	1.381110	0.635309	0.062932
O34	O	1.392065	0.798011	0.093703
O35	O	1.004576	0.882291	0.294948
O36	O	0.981482	0.990881	0.230091
O37	O	1.172863	0.907903	0.129002
O38	O	1.195957	0.799313	0.193859
C39	C	0.766819	0.853623	0.161436
C40	C	0.663676	0.853627	0.161437
C41	C	0.609826	0.922119	0.120524
C42	C	0.502787	0.921880	0.120189
C43	C	0.583974	0.755345	0.103845
C44	C	0.691233	0.755755	0.103518
C45	C	0.571887	0.882538	0.259802
C46	C	0.463515	0.884644	0.260057
C47	C	1.053484	0.597575	0.113010
C48	C	1.047633	0.510679	0.096576
C49	C	1.118369	0.227912	0.295264
C50	C	1.123860	0.309558	0.310710
C51	C	1.104804	0.359842	0.257177
C52	C	1.080256	0.328472	0.188197
C53	C	1.074756	0.246822	0.172754
C54	C	1.061191	0.378752	0.134668
C55	C	1.036642	0.347382	0.065687
C56	C	1.031144	0.265738	0.050247
C57	C	1.050200	0.215455	0.103779
C58	C	1.066691	0.460402	0.150110
C59	C	1.023077	0.479312	0.027601
C60	C	1.017586	0.397665	0.012155
C61	C	1.374628	0.853601	0.161428
C62	C	1.477770	0.853597	0.161427
C63	C	0.991749	0.887856	-0.060364
C64	C	0.964945	0.899478	-0.135639
C65	C	1.087963	1.109649	0.209855
C66	C	1.093813	1.196545	0.226289
C67	C	1.288997	0.758968	-0.558904
C68	C	1.314183	0.748043	-0.488181
C69	C	1.226876	0.785901	-0.400043
C70	C	1.114378	0.834686	-0.382633
C71	C	1.089189	0.845605	-0.453363
C72	C	1.027068	0.872538	-0.294502
C73	C	0.914570	0.921323	-0.277092
C74	C	0.889386	0.932241	-0.347817
C75	C	0.976693	0.894383	-0.435956
C76	C	1.052257	0.861618	-0.223772
C77	C	0.852449	0.948256	-0.118231
C78	C	0.827263	0.959181	-0.188954
C79	C	1.149698	0.819368	0.383228
C80	C	1.176501	0.807746	0.458504
C81	C	0.784058	1.109660	0.209859
C82	C	0.686767	1.196560	0.226294
C83	C	0.845793	0.819380	0.383232
C84	C	0.769454	0.807761	0.458509
C85	C	0.863033	1.075416	0.431655
C86	C	0.792544	1.150695	0.523366
C87	C	1.278414	0.631808	-0.108790
C88	C	1.348902	0.556529	-0.200501
C89	C	1.357388	0.597564	0.113006
C90	C	1.454680	0.510663	0.096571
C91	C	1.295653	0.887844	-0.060368
C92	C	1.371992	0.899463	-0.135644
C93	C	0.622287	1.194062	0.181239
C94	C	0.530879	1.275708	0.196664
C95	C	0.503946	1.359853	0.257149
C96	C	0.568436	1.362349	0.302205
C97	C	0.659847	1.280704	0.286775
C98	C	0.752395	0.845614	0.546633
C99	C	0.680682	0.834692	0.617370
C100	C	0.626023	0.785924	0.599982
C101	C	0.643088	0.748067	0.511848
C102	C	0.714807	0.758983	0.441113
C103	C	0.747388	1.242738	0.532581
C104	C	0.681168	1.313479	0.618748
C105	C	0.660100	1.292174	0.695698
C106	C	0.705265	1.200122	0.686480
C107	C	0.771490	1.129383	0.600314
C108	C	1.394070	0.464486	-0.209717
C109	C	1.460320	0.393745	-0.295884
C110	C	1.481393	0.415049	-0.372834
C111	C	1.436222	0.507102	-0.363615
C112	C	1.369981	0.577841	-0.277449
C113	C	1.519167	0.513164	0.141618
C114	C	1.610595	0.431520	0.126173
C115	C	1.637530	0.347376	0.065686
C116	C	1.573037	0.344878	0.020634
C117	C	1.481615	0.426522	0.036074
C118	C	1.426630	0.948236	-0.118228
C119	C	1.498350	0.959170	-0.188948
C120	C	1.515436	0.921325	-0.277085
C121	C	1.460789	0.872549	-0.294500
C122	C	1.389064	0.861621	-0.223780
H123	H	0.586882	0.995072	0.160313
O124	O	0.770107	1.265729	0.449593
H125	H	0.862459	1.236200	0.408711
H126	H	1.497088	0.318798	-0.303372
O127	O	1.736129	0.259314	0.049037
H128	H	1.705673	0.212021	0.067983
H129	H	1.429111	0.424473	-0.000609
H130	H	1.011143	0.240203	-0.005914
H131	H	0.644399	1.388427	0.626239
H132	H	0.443598	0.838693	0.294845
O133	O	1.680128	0.434230	0.174785
H134	H	1.748235	0.363327	0.153887
O135	O	0.541259	0.976111	0.320691
H136	H	0.560352	0.970017	0.377665
H137	H	1.344584	0.821901	-0.237974
O138	O	1.383157	0.718150	-0.653958
H139	H	1.346740	0.733948	-0.700209
H140	H	0.666798	0.865526	0.689126
O141	O	1.002533	0.533537	-0.030146
H142	H	0.916320	0.554800	-0.023023
O143	O	0.403393	1.018212	0.173021
H144	H	0.368273	1.041353	0.128201
H145	H	1.542840	0.998885	-0.174752
O146	O	0.588656	1.368475	0.788634
H147	H	0.560788	1.436056	0.782105
O148	O	1.408209	0.989065	-0.023170
H149	H	1.317232	1.039024	0.021575
H150	H	0.596893	0.730970	0.031544
H151	H	0.735666	0.998900	-0.174790
O152	O	0.363984	0.980444	0.316786
H153	H	0.324818	1.005847	0.274920
H154	H	0.688101	1.182789	0.749145
H155	H	1.573842	0.930229	-0.334663
H156	H	0.674066	0.902878	0.048765
O157	O	0.518516	0.896083	0.024540
H158	H	0.602699	0.883721	-0.021657
H159	H	0.808248	1.054439	0.592822
O160	O	1.479233	0.831720	-0.389566
H161	H	1.538301	0.847507	-0.435810
H162	H	1.497247	0.581669	0.190877
O163	O	0.584093	0.695498	0.493119
H164	H	0.609683	0.635590	0.512834
O165	O	0.461331	1.272995	0.148067
H166	H	0.465245	1.315169	0.106756
H167	H	0.796893	0.885324	0.560807
H168	H	1.376915	0.447122	-0.147070
H169	H	0.756146	0.731729	0.030624
O170	O	0.949532	0.906162	-0.512241
H171	H	0.903333	0.980608	-0.498114
H172	H	0.997598	0.372114	-0.044009
H173	H	0.797782	0.971956	-0.333637
O174	O	1.552855	0.338749	-0.465769
H175	H	1.580716	0.271168	-0.459240
O176	O	0.405343	1.447910	0.273796
H177	H	0.365029	1.432026	0.232308
H178	H	0.730476	0.702756	0.130204
H179	H	1.594982	0.276358	-0.028615
O180	O	0.548649	0.774171	0.676282
H181	H	0.545962	0.808702	0.740482
O182	O	1.093165	0.494236	0.224506
H183	H	1.177267	0.441646	0.211458
O184	O	0.567137	0.685662	0.140149
H185	H	0.553136	0.706072	0.211116
O186	O	0.618980	0.816535	0.300735
H187	H	0.707311	0.763396	0.251315
H188	H	0.728683	0.728161	0.369361
H189	H	1.453389	0.524438	-0.426278
O190	O	1.110765	0.447887	0.273810
H191	H	1.131058	0.461244	0.330757
O192	O	1.321247	0.677117	-0.267513
H193	H	1.347024	0.680037	-0.335501
H194	H	1.143846	0.335098	0.366874
H195	H	0.546493	1.430871	0.351452
O196	O	0.729378	1.283402	0.335387
H197	H	0.695275	1.355630	0.380044
O198	O	1.138911	0.173687	0.353004
H199	H	1.212149	0.103649	0.309449
O200	O	1.044161	0.127441	0.087235
H201	H	1.126779	0.069411	0.070187
H202	H	1.143855	0.821896	-0.237957
H203	H	1.247390	0.777003	-0.342461
H204	H	1.405780	0.708324	-0.502363
H205	H	0.781357	0.979079	-0.046466
H206	H	0.644209	1.125557	0.131978
