data_functionalizedCrystal
_audit_creation_method	'MofGen! by Chris Wilmer'
_symmetry_space_group_name_H-M	'P1'
_symmetry_Int_Tables_number	1
_symmetry_cell_setting	triclinic
loop_
_symmetry_equiv_pos_as_xyz
  x,y,z
_cell_length_a	15.944551
_cell_length_b	19.288865
_cell_length_c	18.366186
_cell_angle_alpha	90.010106
_cell_angle_beta	89.986417
_cell_angle_gamma	96.682508
loop_
_atom_site_label
_atom_site_type_symbol
_atom_site_fract_x
_atom_site_fract_y
_atom_site_fract_z
O1	O	1.114185	-0.089582	-0.060629
O2	O	0.869593	-0.100626	-0.060616
O3	O	0.998957	0.006008	-0.060608
O4	O	0.984822	-0.196216	-0.060636
O5	O	0.998933	0.006010	0.060491
O6	O	0.869570	-0.100624	0.060483
O7	O	1.114162	-0.089579	0.060470
Zn8	Zn	0.991862	-0.095101	0.079704
Zn9	Zn	0.991893	-0.095104	-0.079850
O10	O	0.984798	-0.196213	0.060463
C11	C	0.838289	-0.100167	-0.000064
C12	C	0.745048	-0.098792	-0.000059
C13	C	1.145466	-0.090039	-0.000083
C14	C	1.238707	-0.091414	-0.000093
C15	C	0.998490	0.031887	-0.000056
C16	C	0.997125	0.108994	-0.000050
C17	C	1.453296	-0.160796	-0.000086
C18	C	1.514452	-0.128578	-0.059789
C19	C	1.409423	-0.093900	-0.000083
C20	C	1.514407	-0.128560	0.059605
C21	C	1.574326	-0.096307	-0.000070
C22	C	1.469350	-0.061664	-0.059835
C23	C	1.469299	-0.061655	0.059613
C24	C	1.530437	-0.029389	-0.000105
C25	C	1.314426	-0.092516	-0.000091
C26	C	1.669322	-0.097687	-0.000067
C27	C	0.985265	-0.222092	-0.000091
C28	C	0.986630	-0.299199	-0.000102
N29	N	0.991848	-0.095099	0.188595
C30	C	1.073030	0.153490	-0.000050
C31	C	1.071747	0.225941	-0.000062
C32	C	0.994555	0.253891	-0.000058
C33	C	0.918641	0.209385	-0.000062
C34	C	0.919925	0.136936	-0.000058
C35	C	0.933865	0.362340	0.042363
C36	C	0.932584	0.434787	0.042364
C37	C	0.990589	0.477347	-0.000074
C38	C	1.049891	0.447452	-0.042503
C39	C	1.051175	0.375004	-0.042499
C40	C	0.993154	0.332449	-0.000063
C41	C	1.065108	0.600403	-0.000088
C42	C	1.063822	0.672855	-0.000104
C43	C	0.910714	0.656298	-0.000097
C44	C	0.912002	0.583848	-0.000088
C45	C	0.989201	0.555906	-0.000080
C46	C	1.042623	-0.137256	0.226681
C47	C	1.042636	-0.137255	0.302908
C48	C	0.991858	-0.095104	0.341048
C49	C	0.941080	-0.052937	0.302954
C50	C	0.941075	-0.052935	0.226727
C51	C	0.916142	-0.093148	0.461834
C52	C	0.916145	-0.093155	0.538059
C53	C	0.991876	-0.095107	0.576156
C54	C	1.067604	-0.097066	0.538018
C55	C	1.067598	-0.097063	0.461792
C56	C	0.991859	-0.095101	0.423703
C57	C	1.042669	-0.137265	0.696896
C58	C	1.042684	-0.137259	0.773125
C59	C	0.941121	-0.052945	0.773169
C60	C	0.941114	-0.052948	0.696941
C61	C	0.991886	-0.095112	0.658809
N62	N	0.991907	-0.095106	0.811259
H63	H	1.419776	-0.216323	-0.000153
H64	H	1.127969	0.577652	-0.000085
H65	H	1.449480	-0.033397	-0.110368
H66	H	1.084037	-0.171587	0.804133
H67	H	1.084012	-0.171597	0.665847
H68	H	1.083983	-0.171587	0.333923
O69	O	0.886349	-0.007481	0.814292
H70	H	0.894878	-0.014568	0.873697
H71	H	1.099459	0.350666	-0.077048
O72	O	1.574594	0.044242	-0.000099
H73	H	1.556535	0.071842	-0.049694
H74	H	0.899763	-0.018621	0.665932
O75	O	1.442749	-0.024206	0.126481
H76	H	1.460576	-0.052082	0.175972
H77	H	1.097124	0.482104	-0.077061
H78	H	1.129270	-0.098659	0.569035
O79	O	0.868627	0.467025	0.088129
H80	H	0.877486	0.524554	0.081006
H81	H	1.083969	-0.171587	0.195638
H82	H	0.847863	0.679055	-0.000098
O83	O	0.834496	-0.090915	0.579192
H84	H	0.781846	-0.089497	0.539896
H85	H	1.534373	-0.156865	0.110079
H86	H	1.129259	-0.098657	0.430743
H87	H	1.125636	0.709084	-0.000109
O88	O	1.156291	0.123350	-0.000062
H89	H	1.208857	0.166468	-0.000075
H90	H	0.899726	-0.018604	0.195719
H91	H	0.854467	-0.091563	0.430821
O92	O	1.153618	0.273947	-0.000053
H93	H	1.207514	0.242345	-0.000041
H94	H	0.850192	0.547618	-0.000084
H95	H	0.886628	0.327692	0.076926
H96	H	0.855790	0.232147	-0.000061
H97	H	0.899738	-0.018617	0.334012
O98	O	0.838054	0.088936	-0.000045
H99	H	0.784160	0.120541	-0.000039
H100	H	1.534466	-0.156875	-0.110270
