data_functionalizedCrystal
_audit_creation_method	'MofGen! by Chris Wilmer'
_symmetry_space_group_name_H-M	'P1'
_symmetry_Int_Tables_number	1
_symmetry_cell_setting	triclinic
loop_
_symmetry_equiv_pos_as_xyz
  x,y,z
_cell_length_a	15.995350
_cell_length_b	14.044220
_cell_length_c	14.472310
_cell_angle_alpha	89.998762
_cell_angle_beta	90.009379
_cell_angle_gamma	91.659374
loop_
_atom_site_label
_atom_site_type_symbol
_atom_site_fract_x
_atom_site_fract_y
_atom_site_fract_z
O1	O	1.120122	-0.122173	0.076765
O2	O	0.877473	-0.137261	0.076784
O3	O	0.995155	0.008267	0.076765
O4	O	1.002439	-0.267702	0.076783
O5	O	0.995123	0.008259	-0.076917
O6	O	0.877441	-0.137269	-0.076898
O7	O	1.120089	-0.122182	-0.076917
Cu8	Cu	0.998762	-0.129726	-0.090940
Cu9	Cu	0.998800	-0.129716	0.090807
O10	O	1.002407	-0.267710	-0.076899
C11	C	0.846216	-0.136641	-0.000055
C12	C	0.753126	-0.134771	-0.000048
C13	C	0.991950	0.043578	-0.000076
C14	C	0.982439	0.148803	-0.000076
N15	N	0.998741	-0.129733	-0.218771
C16	C	0.414876	-0.128056	-0.000067
C17	C	0.454569	-0.024413	-0.000417
C18	C	0.551399	-0.026284	-0.000064
C19	C	0.582686	-0.131387	-0.000058
C20	C	0.545435	-0.182502	0.087702
C21	C	0.448605	-0.179899	0.087768
C22	C	0.448389	-0.182050	-0.086997
C23	C	0.545333	-0.182025	-0.088150
C24	C	0.677524	-0.133275	-0.000050
C25	C	0.320038	-0.126171	-0.000069
C26	C	1.151347	-0.122801	-0.000077
C27	C	1.244437	-0.124671	-0.000078
C28	C	1.005612	-0.303020	-0.000056
C29	C	1.015123	-0.408246	-0.000049
C30	C	0.965051	0.341465	-0.000061
C31	C	1.032507	0.399098	-0.000064
C32	C	1.022832	0.506301	-0.000056
C33	C	0.974725	0.234251	-0.000070
C34	C	0.998799	-0.129713	-0.592862
C35	C	0.935579	-0.207321	-0.553686
C36	C	0.935760	-0.207604	-0.446598
C37	C	0.998769	-0.129723	-0.407271
C38	C	1.087747	-0.151324	-0.446114
C39	C	1.087401	-0.151876	-0.553235
C40	C	0.973803	-0.030273	-0.553396
C41	C	0.971848	-0.030936	-0.446269
C42	C	0.998758	-0.129726	-0.302383
C43	C	0.998816	-0.129711	-0.697750
N44	N	0.998827	-0.129702	0.218638
H45	H	0.576814	0.013896	-0.062974
Cl46	Cl	0.576172	-0.301710	0.092770
Cl47	Cl	1.132890	0.350977	-0.000082
Cl48	Cl	0.864676	0.389588	-0.000049
Cl49	Cl	0.875169	0.001779	-0.595148
H50	H	1.108954	-0.223019	-0.419273
H51	H	0.869859	-0.194733	-0.420338
Cl52	Cl	0.870735	-0.005620	-0.407076
H53	H	1.014336	0.029523	-0.419502
Cl54	Cl	0.585165	-0.127680	0.188536
Cl55	Cl	0.833525	-0.187765	-0.593472
Cl56	Cl	0.961132	-0.320615	-0.595205
H57	H	0.952491	-0.281396	-0.420961
H58	H	0.569848	-0.144711	-0.153074
Cl59	Cl	0.412761	-0.129738	-0.189699
H60	H	0.431909	0.016828	0.062167
H61	H	0.422041	-0.255991	0.091755
Cl62	Cl	1.119665	-0.263843	-0.591795
Cl63	Cl	0.577883	-0.300364	-0.096326
Cl64	Cl	0.408164	-0.300027	-0.087908
H65	H	1.136306	-0.097579	-0.579148
Cl66	Cl	0.589760	0.035907	0.097393
Cl67	Cl	0.416057	-0.122336	0.189045
H68	H	1.136222	-0.096302	-0.420638
H69	H	0.432940	0.017012	-0.063353
Cl70	Cl	1.044846	0.058895	-0.592510
