data_functionalizedCrystal
_audit_creation_method	'MofGen! by Chris Wilmer'
_symmetry_space_group_name_H-M	'P1'
_symmetry_Int_Tables_number	1
_symmetry_cell_setting	triclinic
loop_
_symmetry_equiv_pos_as_xyz
  x,y,z
_cell_length_a	18.215405
_cell_length_b	19.805407
_cell_length_c	18.215399
_cell_angle_alpha	90.022125
_cell_angle_beta	89.970580
_cell_angle_gamma	89.977195
loop_
_atom_site_label
_atom_site_type_symbol
_atom_site_fract_x
_atom_site_fract_y
_atom_site_fract_z
Zn1	Zn	-0.293012	-1.034755	-0.416153
Zn2	Zn	0.040322	-0.701422	-0.082820
Zn3	Zn	0.373655	-0.368088	0.250513
Zn4	Zn	-0.416083	-1.034673	-0.293084
Zn5	Zn	-0.082750	-0.701339	0.040249
Zn6	Zn	0.250584	-0.368006	0.373583
Zn7	Zn	-0.293033	-0.921567	-0.293096
Zn8	Zn	0.040301	-0.588234	0.040238
Zn9	Zn	0.373634	-0.254901	0.373571
Zn10	Zn	-0.416039	-0.921538	-0.416104
Zn11	Zn	-0.082706	-0.588205	-0.082771
Zn12	Zn	0.250628	-0.254872	0.250563
O13	O	-0.354542	-0.978133	-0.354609
O14	O	-0.021208	-0.644800	-0.021276
O15	O	0.312125	-0.311467	0.312057
O16	O	-0.309347	-1.129461	-0.399844
O17	O	0.023986	-0.796127	-0.066510
O18	O	0.357320	-0.462794	0.266823
O19	O	-0.399787	-1.019647	-0.190101
O20	O	-0.066454	-0.686314	0.143232
O21	O	0.266879	-0.352980	0.476566
O22	O	-0.190046	-0.936629	-0.309445
O23	O	0.143288	-0.603295	0.023888
O24	O	0.476621	-0.269962	0.357221
O25	O	-0.399767	-1.129400	-0.309425
O26	O	-0.066434	-0.796067	0.023908
O27	O	0.266900	-0.462734	0.357242
O28	O	-0.190030	-1.019787	-0.399855
O29	O	0.143303	-0.686454	-0.066522
O30	O	0.476636	-0.353120	0.266811
O31	O	-0.309383	-0.936549	-0.190110
O32	O	0.023951	-0.603216	0.143223
O33	O	0.357284	-0.269882	0.476557
O34	O	-0.309340	-0.826847	-0.309397
O35	O	0.023993	-0.493514	0.023936
O36	O	0.357327	-0.160180	0.357269
O37	O	-0.399692	-0.936579	-0.519095
O38	O	-0.066359	-0.603245	-0.185761
O39	O	0.266975	-0.269912	0.147572
O40	O	-0.399712	-0.826826	-0.399771
O41	O	-0.066379	-0.493492	-0.066438
O42	O	0.266955	-0.160159	0.266896
O43	O	-0.309304	-1.019759	-0.519131
O44	O	0.024029	-0.686425	-0.185798
O45	O	0.357362	-0.353092	0.147536
O46	O	-0.519061	-1.019619	-0.309377
O47	O	-0.185728	-0.686285	0.023956
O48	O	0.147605	-0.352952	0.357290
O49	O	-0.519029	-0.936499	-0.399759
O50	O	-0.185696	-0.603166	-0.066426
O51	O	0.147638	-0.269832	0.266907
C52	C	-0.354524	-0.802277	-0.354580
C53	C	-0.021191	-0.468944	-0.021247
C54	C	0.312143	-0.135611	0.312086
C55	C	-0.354534	-0.727045	-0.354586
C56	C	-0.021201	-0.393712	-0.021252
C57	C	0.312132	-0.060379	0.312081
C58	C	-0.401661	-0.691708	-0.401566
C59	C	-0.068328	-0.358374	-0.068233
C60	C	0.265005	-0.025041	0.265101
C61	C	-0.401661	-0.621019	-0.401574
C62	C	-0.068328	-0.287686	-0.068241
C63	C	0.265005	0.045647	0.265092
C64	C	-0.354537	-0.585670	-0.354598
C65	C	-0.021204	-0.252336	-0.021265
C66	C	0.312129	0.080997	0.312069
C67	C	-0.307405	-0.621012	-0.307616
C68	C	0.025928	-0.287679	0.025718
C69	C	0.359261	0.045654	0.359051
C70	C	-0.307402	-0.691700	-0.307612
C71	C	0.025931	-0.358366	0.025722
C72	C	0.359265	-0.025033	0.359055
C73	C	-0.307416	-0.335939	-0.307632
C74	C	0.025917	-0.002606	0.025701
C75	C	0.359251	0.330728	0.359035
C76	C	-0.307424	-0.265247	-0.307638
C77	C	0.025909	0.068086	0.025695
C78	C	0.359242	0.401420	0.359029
C79	C	-0.401675	-0.265259	-0.401595
C80	C	-0.068342	0.068074	-0.068261
C81	C	0.264992	0.401408	0.265072
C82	C	-0.401672	-0.335946	-0.401591
C83	C	-0.068339	-0.002613	-0.068257
C84	C	0.264995	0.330721	0.265076
C85	C	-0.354537	-0.371282	-0.354611
C86	C	-0.021204	-0.037949	-0.021278
C87	C	0.312129	0.295384	0.312055
C88	C	-0.354537	-0.447931	-0.354604
C89	C	-0.021204	-0.114597	-0.021270
C90	C	0.312130	0.218736	0.312063
C91	C	-0.354541	-0.509023	-0.354601
C92	C	-0.021208	-0.175689	-0.021268
C93	C	0.312126	0.157644	0.312065
C94	C	-0.545748	-0.978065	-0.354578
C95	C	-0.212415	-0.644732	-0.021244
C96	C	0.120919	-0.311398	0.312089
C97	C	-0.627547	-0.978098	-0.354589
C98	C	-0.294213	-0.644765	-0.021255
C99	C	0.039120	-0.311431	0.312078
C100	C	-0.892597	-1.021505	-0.307626
C101	C	-0.559263	-0.688172	0.025707
C102	C	-0.225930	-0.354838	0.359041
C103	C	-0.815738	-1.021477	-0.307609
C104	C	-0.482405	-0.688144	0.025724
C105	C	-0.149071	-0.354810	0.359058
C106	C	-0.815745	-0.934845	-0.401642
C107	C	-0.482412	-0.601512	-0.068309
C108	C	-0.149078	-0.268179	0.265024
C109	C	-0.892602	-0.934870	-0.401655
C110	C	-0.559269	-0.601537	-0.068321
C111	C	-0.225936	-0.268204	0.265012
C112	C	-0.931026	-0.978204	-0.354648
C113	C	-0.597693	-0.644871	-0.021314
C114	C	-0.264360	-0.311537	0.312019
C115	C	-0.777310	-0.978151	-0.354618
C116	C	-0.443977	-0.644818	-0.021285
C117	C	-0.110644	-0.311485	0.312048
C118	C	-0.693977	-0.978121	-0.354600
C119	C	-0.360643	-0.644787	-0.021267
C120	C	-0.027310	-0.311454	0.312066
C121	C	-1.014365	-0.978234	-0.354665
C122	C	-0.681032	-0.644901	-0.021331
C123	C	-0.347699	-0.311567	0.312002
C124	C	-0.162589	-0.978220	-0.354657
C125	C	0.170745	-0.644887	-0.021324
C126	C	0.504078	-0.311554	0.312010
C127	C	-0.080790	-0.978257	-0.354677
C128	C	0.252544	-0.644924	-0.021344
C129	C	0.585877	-0.311591	0.311989
C130	C	-0.354491	-0.978175	-0.546562
C131	C	-0.021158	-0.644841	-0.213229
C132	C	0.312176	-0.311508	0.120104
C133	C	-0.354469	-0.978192	-0.628361
C134	C	-0.021136	-0.644859	-0.295028
C135	C	0.312197	-0.311526	0.038305
C136	C	-0.354555	-0.154676	-0.354631
C137	C	-0.021221	0.178657	-0.021298
C138	C	0.312112	0.511991	0.312035
C139	C	-0.354548	-0.229908	-0.354623
C140	C	-0.021215	0.103425	-0.021289
C141	C	0.312119	0.436759	0.312044
C142	C	-0.307360	-1.021519	-0.816575
C143	C	0.025973	-0.688186	-0.483242
C144	C	0.359306	-0.354853	-0.149909
C145	C	-0.307339	-1.021528	-0.893434
C146	C	0.025994	-0.688194	-0.560101
C147	C	0.359328	-0.354861	-0.226767
C148	C	-0.401464	-0.934913	-0.893385
C149	C	-0.068131	-0.601579	-0.560052
C150	C	0.265202	-0.268246	-0.226718
C151	C	-0.401481	-0.934902	-0.816528
C152	C	-0.068148	-0.601568	-0.483194
C153	C	0.265185	-0.268235	-0.149861
C154	C	-0.354431	-0.978209	-0.778125
C155	C	-0.021097	-0.644876	-0.444791
C156	C	0.312236	-0.311542	-0.111458
C157	C	-0.354392	-0.978228	-0.931841
C158	C	-0.021059	-0.644895	-0.598508
C159	C	0.312275	-0.311561	-0.265174
C160	C	-0.354369	-0.978236	-1.015175
C161	C	-0.021036	-0.644903	-0.681841
C162	C	0.312298	-0.311570	-0.348508
C163	C	-0.354452	-0.978200	-0.694786
C164	C	-0.021119	-0.644866	-0.361452
C165	C	0.312214	-0.311533	-0.028119
C166	C	-0.354539	-0.978131	-0.163403
C167	C	-0.021206	-0.644798	0.169930
C168	C	0.312128	-0.311465	0.503264
C169	C	-0.354353	-0.978245	-0.081605
C170	C	-0.021020	-0.644911	0.251729
C171	C	0.312313	-0.311578	0.585062
H172	H	-0.440052	-0.236479	-0.439850
H173	H	-0.106718	0.096854	-0.106517
H174	H	0.226615	0.430187	0.226816
H175	H	-0.269009	-1.056794	-0.924737
H176	H	0.064325	-0.723461	-0.591404
H177	H	0.397658	-0.390128	-0.258070
H178	H	-0.440048	-0.364724	-0.439841
H179	H	-0.106714	-0.031391	-0.106508
H180	H	0.226619	0.301943	0.226826
H181	H	-0.269042	-0.364701	-0.269373
H182	H	0.064292	-0.031368	0.063960
H183	H	0.397625	0.301965	0.397294
H184	H	-0.923893	-0.899607	-0.439947
H185	H	-0.590559	-0.566273	-0.106614
H186	H	-0.257226	-0.232940	0.226720
H187	H	-0.269047	-1.056781	-0.785310
H188	H	0.064287	-0.723448	-0.451977
H189	H	0.397620	-0.390115	-0.118643
H190	H	-0.439773	-0.899655	-0.924662
H191	H	-0.106440	-0.566322	-0.591329
H192	H	0.226894	-0.232988	-0.257995
H193	H	-0.439811	-0.899628	-0.785220
H194	H	-0.106478	-0.566295	-0.451887
H195	H	0.226856	-0.232962	-0.118554
O196	O	-0.261547	-0.726058	-0.262077
O197	O	0.071787	-0.392724	0.071256
O198	O	0.405120	-0.059391	0.404590
C199	C	-0.214077	-0.766990	-0.304058
C200	C	0.119256	-0.433657	0.029276
C201	C	0.452589	-0.100324	0.362609
H202	H	-0.209608	-0.745714	-0.362029
H203	H	0.123725	-0.412381	-0.028696
H204	H	0.457059	-0.079047	0.304637
H205	H	-0.236831	-0.820557	-0.306548
H206	H	0.096503	-0.487224	0.026786
H207	H	0.429836	-0.153890	0.360119
C208	C	-0.143015	-0.794216	-0.197040
C209	C	0.190318	-0.460883	0.136293
C210	C	0.523651	-0.127550	0.469626
C211	C	-0.137521	-0.768081	-0.268240
C212	C	0.195812	-0.434748	0.065093
C213	C	0.529146	-0.101414	0.398426
H214	H	-0.095793	-0.794892	-0.174945
H215	H	0.237541	-0.461559	0.158388
H216	H	0.570874	-0.128226	0.491721
H217	H	-0.174998	-0.766641	-0.168756
H218	H	0.158336	-0.433308	0.164577
H219	H	0.491669	-0.099975	0.497911
H220	H	-0.161979	-0.838853	-0.199125
H221	H	0.171354	-0.505520	0.134209
H222	H	0.504687	-0.172186	0.467542
H223	H	-0.118566	-0.723443	-0.266154
H224	H	0.214767	-0.390109	0.067179
H225	H	0.548100	-0.056776	0.400513
H226	H	-0.105534	-0.795649	-0.296523
H227	H	0.227800	-0.462315	0.036810
H228	H	0.561133	-0.128982	0.370143
H229	H	-0.440038	-0.720484	-0.439817
H230	H	-0.106704	-0.387151	-0.106484
H231	H	0.226629	-0.053818	0.226850
H232	H	-0.269046	-0.236467	-0.269384
H233	H	0.064287	0.096866	0.063949
H234	H	0.397621	0.430199	0.397282
H235	H	-0.440037	-0.592250	-0.439830
H236	H	-0.106704	-0.258917	-0.106496
H237	H	0.226629	0.074416	0.226837
H238	H	-0.784453	-0.899565	-0.439915
H239	H	-0.451119	-0.566232	-0.106582
H240	H	-0.117786	-0.232898	0.226751
H241	H	-0.269033	-0.592225	-0.269370
H242	H	0.064300	-0.258892	0.063963
H243	H	0.397634	0.074441	0.397297
O244	O	-0.778294	-1.063477	-0.261957
O245	O	-0.444961	-0.730144	0.071376
O246	O	-0.111627	-0.396811	0.404710
C247	C	-0.702218	-1.054176	-0.272033
C248	C	-0.368885	-0.720843	0.061300
C249	C	-0.035551	-0.387509	0.394633
H250	H	-0.691747	-1.001923	-0.296073
H251	H	-0.358413	-0.668590	0.037260
H252	H	-0.025080	-0.335256	0.370593
H253	H	-0.680345	-1.094292	-0.311265
H254	H	-0.347012	-0.760959	0.022068
H255	H	-0.013678	-0.427625	0.355401
C256	C	-0.675669	-1.124590	-0.168044
C257	C	-0.342335	-0.791257	0.165289
C258	C	-0.009002	-0.457923	0.498623
C259	C	-0.662807	-1.060409	-0.197564
C260	C	-0.329474	-0.727076	0.135769
C261	C	0.003859	-0.393742	0.469102
H262	H	-0.651357	-1.128438	-0.122109
H263	H	-0.318024	-0.795104	0.211224
H264	H	0.015310	-0.461771	0.544557
H265	H	-0.726922	-1.130859	-0.161257
H266	H	-0.393589	-0.797525	0.172077
H267	H	-0.060256	-0.464192	0.505410
H268	H	-0.657441	-1.158013	-0.200744
H269	H	-0.324108	-0.824679	0.132589
H270	H	0.009225	-0.491346	0.465922
H271	H	-0.681043	-1.026988	-0.164869
H272	H	-0.347710	-0.693655	0.168465
H273	H	-0.014376	-0.360322	0.501798
H274	H	-0.611555	-1.054135	-0.204345
H275	H	-0.278222	-0.720802	0.128989
H276	H	0.055111	-0.387468	0.462322
O277	O	-0.929808	-1.063615	-0.261891
O278	O	-0.596475	-0.730281	0.071442
O279	O	-0.263142	-0.396948	0.404775
C280	C	-0.879404	-1.101838	-0.220398
C281	C	-0.546071	-0.768504	0.112935
C282	C	-0.212738	-0.435171	0.446269
H283	H	-0.824643	-1.074097	-0.217811
H284	H	-0.491309	-0.740763	0.115522
H285	H	-0.157976	-0.407430	0.448855
H286	H	-0.871169	-1.153225	-0.247402
H287	H	-0.537836	-0.819892	0.085931
H288	H	-0.204503	-0.486559	0.419264
C289	C	-0.976703	-1.145720	-0.145264
C290	C	-0.643369	-0.812386	0.188069
C291	C	-0.310036	-0.479053	0.521402
C292	C	-0.909445	-1.111645	-0.142083
C293	C	-0.576112	-0.778311	0.191251
C294	C	-0.242779	-0.444978	0.524584
H295	H	-0.995234	-1.151772	-0.096957
H296	H	-0.661901	-0.818439	0.236376
H297	H	-0.328567	-0.485106	0.569710
H298	H	-1.010662	-1.119970	-0.173221
H299	H	-0.677329	-0.786637	0.160112
H300	H	-0.343995	-0.453303	0.493446
H301	H	-0.969831	-1.188539	-0.167771
H302	H	-0.636498	-0.855206	0.165562
H303	H	-0.303164	-0.521872	0.498895
H304	H	-0.916319	-1.068823	-0.119585
H305	H	-0.582986	-0.735490	0.213749
H306	H	-0.249653	-0.402157	0.547082
H307	H	-0.875488	-1.137387	-0.114120
H308	H	-0.542155	-0.804054	0.219213
H309	H	-0.208821	-0.470721	0.552546
