data_functionalizedCrystal
_audit_creation_method	'MofGen! by Chris Wilmer'
_symmetry_space_group_name_H-M	'P1'
_symmetry_Int_Tables_number	1
_symmetry_cell_setting	triclinic
loop_
_symmetry_equiv_pos_as_xyz
  x,y,z
_cell_length_a	14.044220
_cell_length_b	14.971486
_cell_length_c	12.503552
_cell_angle_alpha	93.522504
_cell_angle_beta	93.839943
_cell_angle_gamma	91.598497
loop_
_atom_site_label
_atom_site_type_symbol
_atom_site_fract_x
_atom_site_fract_y
_atom_site_fract_z
O1	O	0.118069	-1.201397	-0.089199
O2	O	0.618069	-0.701397	0.410801
O3	O	0.132861	-0.942164	-0.089228
O4	O	0.632861	-0.442164	0.410772
O5	O	-0.012523	-1.067889	-0.089203
O6	O	0.487477	-0.567889	0.410797
O7	O	0.263454	-1.075672	-0.089224
O8	O	0.763454	-0.575672	0.410776
O9	O	-0.001580	-1.058423	0.089437
O10	O	0.498420	-0.558423	0.589437
O11	O	0.143805	-0.932698	0.089412
O12	O	0.643805	-0.432698	0.589412
O13	O	0.129013	-1.191931	0.089442
O14	O	0.629013	-0.691931	0.589442
Cu15	Cu	0.137408	-1.061450	0.105738
Cu16	Cu	0.637408	-0.561450	0.605738
Cu17	Cu	0.124466	-1.072645	-0.105525
Cu18	Cu	0.624466	-0.572645	0.394475
O19	O	0.274397	-1.066206	0.089417
O20	O	0.774397	-0.566206	0.589417
C21	C	-0.042370	-1.059749	0.000117
C22	C	0.457630	-0.559749	0.500117
C23	C	-0.147607	-1.049588	0.000117
C24	C	0.352393	-0.549588	0.500117
C25	C	0.137671	-0.904054	0.000088
C26	C	0.637671	-0.404054	0.500088
C27	C	0.135688	-0.804602	0.000077
C28	C	0.635688	-0.304602	0.500077
C29	C	0.124203	-1.230041	0.000123
C30	C	0.624203	-0.730041	0.500123
C31	C	0.126186	-1.329494	0.000127
C32	C	0.626186	-0.829494	0.500127
C33	C	-0.340290	-1.031012	0.000100
C34	C	0.159710	-0.531012	0.500100
C35	C	-0.397842	-1.103079	0.000105
C36	C	0.102158	-0.603079	0.500105
C37	C	-0.505057	-1.092743	0.000095
C38	C	-0.005057	-0.592743	0.500095
C39	C	-0.233065	-1.041347	0.000109
C40	C	0.266935	-0.541347	0.500109
C41	C	0.304244	-1.074346	0.000094
C42	C	0.804244	-0.574346	0.500094
C43	C	0.409480	-1.084507	0.000087
C44	C	0.909480	-0.584507	0.500087
N45	N	0.146510	-1.053582	0.254330
N46	N	0.646510	-0.553582	0.754330
C47	C	0.221098	-0.754105	0.000073
C48	C	0.721098	-0.254105	0.500073
C49	C	0.219230	-0.660657	0.000089
C50	C	0.719230	-0.160657	0.500089
C51	C	0.131951	-0.617709	0.000102
C52	C	0.631951	-0.117709	0.500102
C53	C	0.046535	-0.668212	0.000110
C54	C	0.546535	-0.168212	0.500110
C55	C	0.048404	-0.761657	0.000101
C56	C	0.548404	-0.261657	0.500101
C57	C	0.042645	-0.473442	0.000125
C58	C	0.542645	0.026558	0.500125
C59	C	0.040776	-0.379990	0.000132
C60	C	0.540776	0.120010	0.500132
C61	C	0.213472	-0.372442	0.000112
C62	C	0.713472	0.127558	0.500112
C63	C	0.215341	-0.465888	0.000104
C64	C	0.715341	0.034112	0.500104
C65	C	0.129924	-0.516385	0.000110
C66	C	0.629924	-0.016385	0.500110
N67	N	0.115357	-1.080519	-0.254116
N68	N	0.615357	-0.580519	0.245884
C69	C	0.101964	-1.092088	0.526770
C70	C	0.601964	-0.592088	1.026770
C71	C	0.159899	-1.042016	0.473436
C72	C	0.659899	-0.542016	0.973436
C73	C	0.152447	-1.048453	0.351514
C74	C	0.652447	-0.548453	0.851514
C75	C	0.109415	-1.085652	0.648704
C76	C	0.609415	-0.585652	1.148704
H77	H	-0.371539	-0.961557	0.000089
H78	H	0.128461	-0.461557	0.500089
N79	N	-0.042628	-0.624359	0.000114
N80	N	0.457372	-0.124359	0.500114
N81	N	-0.118881	-0.669459	0.000117
N82	N	0.381119	-0.169459	0.500117
H83	H	-0.181857	-0.638491	0.000116
H84	H	0.318143	-0.138491	0.500116
H85	H	-0.021146	-0.802771	0.000105
H86	H	0.478854	-0.302771	0.500105
N87	N	-0.358662	-1.190226	0.000119
N88	N	0.141338	-0.690226	0.500119
N89	N	-0.381724	-1.247144	-0.075170
N90	N	0.118276	-0.747144	0.424830
H91	H	-0.354050	-1.308689	-0.075157
H92	H	0.145950	-0.808689	0.424843
H93	H	0.292171	-0.789067	0.000061
H94	H	0.792171	-0.289067	0.500061
H95	H	0.288780	-0.619547	0.000084
H96	H	0.788780	-0.119547	0.500084
N97	N	0.304499	-0.509747	0.000074
N98	N	0.804499	-0.009747	0.500074
N99	N	0.380756	-0.464654	0.000066
N100	N	0.880756	0.035346	0.500066
H101	H	0.443727	-0.495629	0.000046
H102	H	0.943727	0.004371	0.500046
N103	N	-0.048372	-0.336113	0.000173
N104	N	0.451628	0.163887	0.500173
N105	N	-0.064052	-0.280829	0.075484
N106	N	0.435948	0.219171	0.575484
H107	H	-0.127014	-0.249838	0.075516
H108	H	0.372986	0.250162	0.575516
N109	N	0.300717	-0.320852	0.000121
N110	N	0.800717	0.179148	0.500121
N111	N	0.299041	-0.237419	0.000145
N112	N	0.799041	0.262581	0.500145
H113	H	0.360655	-0.200978	0.000154
H114	H	0.860655	0.299022	0.500154
H115	H	0.046773	-1.139787	0.480869
H116	H	0.546773	-0.639787	0.980869
H117	H	-0.026910	-0.514554	0.000132
H118	H	0.473090	-0.014554	0.500132
N119	N	0.229136	-0.982176	0.531032
N120	N	0.729136	-0.482176	1.031032
N121	N	0.235171	-0.976963	0.631429
N122	N	0.735171	-0.476963	1.131429
H123	H	0.284069	-0.934704	0.672112
H124	H	0.784069	-0.434704	1.172112
