data_functionalizedCrystal
_audit_creation_method	'MofGen! by Chris Wilmer'
_symmetry_space_group_name_H-M	'P1'
_symmetry_Int_Tables_number	1
_symmetry_cell_setting	triclinic
loop_
_symmetry_equiv_pos_as_xyz
  x,y,z
_cell_length_a	18.426585
_cell_length_b	14.560438
_cell_length_c	14.560438
_cell_angle_alpha	60.000518
_cell_angle_beta	90.000138
_cell_angle_gamma	60.001046
loop_
_atom_site_label
_atom_site_type_symbol
_atom_site_fract_x
_atom_site_fract_y
_atom_site_fract_z
Zr1	Zr	0.699111	1.005314	-0.120530
O2	O	0.583233	1.196912	-0.267171
O3	O	0.734633	0.813715	-0.075579
O4	O	0.734631	1.005319	-0.267180
O5	O	0.583237	1.005305	0.075571
O6	O	0.854057	1.005325	-0.267183
O7	O	0.583235	1.005307	-0.075570
O8	O	0.854061	0.662581	0.075555
O9	O	0.583233	1.348050	-0.267168
O10	O	0.838910	0.892528	-0.056408
O11	O	0.749785	0.892521	0.056390
O12	O	0.749782	1.118111	-0.169195
O13	O	0.660658	1.118104	-0.056398
Zr14	Zr	0.889584	1.005320	0.120516
Zr15	Zr	0.889581	1.005325	-0.120536
Zr16	Zr	0.699114	1.005310	0.120523
Zr17	Zr	0.699111	1.246362	-0.120525
Zr18	Zr	0.889584	0.764273	0.120512
O19	O	0.854062	1.196920	0.075565
O20	O	0.854057	1.196926	-0.267180
O21	O	0.583237	1.196905	0.075574
O22	O	1.005462	0.813723	0.267158
O23	O	1.005458	0.813729	-0.075588
O24	O	0.734638	0.813709	0.267167
O25	O	1.005458	1.005330	-0.075584
O26	O	0.854064	1.005316	0.267166
O27	O	0.734638	1.005309	0.267170
O28	O	1.005460	1.005327	0.075557
O29	O	0.734632	1.348058	-0.267173
O30	O	0.854063	0.662577	0.267160
O31	O	1.005462	0.662585	0.267155
O32	O	1.005460	0.662589	0.075551
O33	O	0.583236	1.348046	-0.075564
O34	O	0.734634	1.348054	-0.075569
O35	O	0.838913	0.892524	0.169182
O36	O	0.928037	0.892531	0.056384
O37	O	0.838910	1.118113	-0.056403
O38	O	0.749785	1.118107	0.056394
C39	C	0.794347	0.703804	-0.000012
C40	C	0.794347	0.601473	-0.000014
C41	C	0.840867	0.553400	-0.058894
C42	C	0.840871	0.457241	-0.058883
C43	C	0.747826	0.457239	0.058888
C44	C	0.747829	0.553390	0.058883
C45	C	0.556098	1.005305	0.000001
C46	C	0.475238	1.005300	0.000004
C47	C	0.179123	1.005339	-0.000016
C48	C	0.261509	1.005334	-0.000014
C49	C	0.327178	1.005320	-0.000007
C50	C	0.409570	1.005314	-0.000003
C51	C	1.032597	1.005330	-0.000014
C52	C	1.113457	1.005334	-0.000017
C53	C	0.794344	1.005323	-0.301526
C54	C	0.794342	1.005325	-0.403859
C55	C	0.794348	1.306831	-0.000001
C56	C	0.794348	1.409162	0.000001
C57	C	0.747826	1.123067	-0.606964
C58	C	0.747819	1.123075	-0.510816
C59	C	0.840870	0.887559	-0.393052
C60	C	0.840872	0.887552	-0.489198
C61	C	0.794351	1.005312	0.301513
C62	C	0.794353	1.005310	0.403846
C63	C	1.032597	0.703816	-0.000020
C64	C	1.113456	0.601490	-0.000025
C65	C	0.794351	0.703798	0.301507
C66	C	0.794352	0.601465	0.403838
C67	C	1.032600	0.703811	0.301500
C68	C	1.113461	0.601482	0.403828
C69	C	0.556095	1.306824	-0.301513
C70	C	0.475234	1.409152	-0.403842
C71	C	0.556098	1.306818	0.000007
C72	C	0.475239	1.409145	0.000011
C73	C	0.794344	1.306837	-0.301521
C74	C	0.794343	1.409170	-0.403852
C75	C	1.104905	0.553434	-0.058913
C76	C	1.180874	0.457301	-0.058940
C77	C	1.265393	0.409218	-0.000071
C78	C	1.273942	0.457282	0.058819
C79	C	1.197974	0.553421	0.058839
C80	C	1.197965	0.553431	0.393003
C81	C	1.273949	0.457296	0.489143
C82	C	1.265429	0.409207	0.596106
C83	C	1.180916	0.457268	0.606928
C84	C	1.104934	0.553408	0.510790
C85	C	0.390730	1.457215	-0.393017
C86	C	0.314746	1.553380	-0.489156
C87	C	0.323266	1.601474	-0.596119
C88	C	0.407779	1.553408	-0.606941
C89	C	0.483761	1.457251	-0.510803
C90	C	0.483790	1.457210	0.058890
C91	C	0.407821	1.553370	0.058890
C92	C	0.323302	1.601457	0.000017
C93	C	0.314753	1.553388	-0.058868
C94	C	0.390721	1.457236	-0.058874
C95	C	0.840875	0.553388	0.510790
C96	C	0.840866	0.457245	0.606937
C97	C	0.747809	0.457259	0.489167
C98	C	0.747814	0.553408	0.393023
H99	H	0.878747	0.592545	-0.106849
H100	H	0.878759	0.791655	-0.480388
N101	N	0.574906	1.405387	-0.522479
H102	H	0.608522	1.422101	-0.485215
H103	H	0.568696	1.450465	-0.604848
N104	N	0.381518	1.405360	-0.277662
H105	H	0.347963	1.478719	-0.268654
H106	H	0.442498	1.337129	-0.218456
N107	N	1.347322	0.305526	-0.000102
H108	H	1.347345	0.225750	0.033399
H109	H	1.402123	0.282456	0.046107
H110	H	0.245927	1.592555	-0.106800
H111	H	1.036130	0.592518	0.519619
H112	H	0.383746	1.418104	-0.106817
N113	N	0.223601	1.605209	-0.477469
H114	H	0.229741	1.560134	-0.395119
H115	H	0.190045	1.588485	-0.514802
H116	H	1.342756	0.418175	0.480311
N117	N	0.241310	1.705185	-0.699806
H118	H	0.186487	1.728325	-0.676708
H119	H	0.241345	1.671655	-0.746046
N120	N	0.416962	1.605285	-0.722311
H121	H	0.356000	1.673487	-0.781563
H122	H	0.450547	1.531862	-0.731230
H123	H	1.036092	0.592583	-0.106865
N124	N	0.891054	0.760557	-0.277693
H125	H	0.956136	0.709085	-0.268696
H126	H	0.866585	0.709170	-0.268748
H127	H	0.709952	0.418079	0.106838
H128	H	0.878749	0.418107	0.694019
H129	H	1.204919	0.592571	0.305918
N130	N	0.574944	1.405358	0.122391
H131	H	0.568820	1.450415	0.159681
H132	H	0.608490	1.422092	0.068324
H133	H	1.342768	0.418119	0.106748
H134	H	0.709945	0.592529	0.106835
H135	H	0.709945	1.218953	-0.694048
H136	H	0.878766	0.592518	0.519603
N137	N	0.697623	0.405418	0.477504
H138	H	0.704682	0.337208	0.554640
H139	H	0.722053	0.365604	0.434982
N140	N	1.171641	0.405474	-0.122461
H141	H	1.106570	0.450519	-0.159738
H142	H	1.201140	0.308953	-0.068410
N143	N	0.417054	1.605202	0.122406
H144	H	0.482125	1.560134	0.159707
H145	H	0.387557	1.588475	0.181598
N146	N	0.241369	1.705163	0.000029
H147	H	0.259619	1.728306	0.046268
H148	H	0.204834	1.671628	0.033516
N149	N	0.697634	0.605310	0.277639
H150	H	0.650832	0.701826	0.235155
H151	H	0.668198	0.560209	0.285429
H152	H	1.327306	0.330924	0.674378
H153	H	0.709931	1.218964	-0.519628
N154	N	0.891048	0.405388	-0.122386
H155	H	0.920515	0.450441	-0.159695
H156	H	0.848328	0.422114	-0.181571
H157	H	1.173992	0.418099	0.694030
H158	H	1.204949	0.592535	0.106799
