data_functionalizedCrystal
_audit_creation_method	'MofGen! by Chris Wilmer'
_symmetry_space_group_name_H-M	'P1'
_symmetry_Int_Tables_number	1
_symmetry_cell_setting	triclinic
loop_
_symmetry_equiv_pos_as_xyz
  x,y,z
_cell_length_a	11.169417
_cell_length_b	12.645323
_cell_length_c	11.169416
_cell_angle_alpha	90.023467
_cell_angle_beta	89.988411
_cell_angle_gamma	89.981174
loop_
_atom_site_label
_atom_site_type_symbol
_atom_site_fract_x
_atom_site_fract_y
_atom_site_fract_z
Zn1	Zn	1.834954	-0.599348	0.477758
Zn2	Zn	2.334954	-0.099348	0.977758
Zn3	Zn	1.834846	-0.422092	0.678472
Zn4	Zn	2.334846	0.077908	1.178472
Zn5	Zn	1.634242	-0.422104	0.477806
Zn6	Zn	2.134242	0.077896	0.977806
Zn7	Zn	1.634248	-0.599319	0.678402
Zn8	Zn	2.134248	-0.099319	1.178402
O9	O	1.734573	-0.510716	0.578109
O10	O	2.234573	-0.010716	1.078109
O11	O	2.002889	-0.575841	0.504392
O12	O	2.502889	-0.075841	1.004392
O13	O	1.808188	-0.273746	0.651903
O14	O	2.308188	0.226254	1.151903
O15	O	1.660910	-0.445633	0.309850
O16	O	2.160910	0.054367	0.809850
O17	O	2.002810	-0.445612	0.651856
O18	O	2.502810	0.054388	1.151856
O19	O	1.808372	-0.575853	0.309814
O20	O	2.308372	-0.075853	0.809814
O21	O	1.660806	-0.273755	0.504475
O22	O	2.160806	0.226245	1.004475
O23	O	1.466293	-0.445605	0.504406
O24	O	1.966293	0.054395	1.004406
O25	O	1.660919	-0.747671	0.651736
O26	O	2.160919	-0.247671	1.151736
O27	O	1.466297	-0.575805	0.651783
O28	O	1.966297	-0.075805	1.151783
O29	O	1.808377	-0.747691	0.504324
O30	O	2.308377	-0.247691	1.004324
O31	O	1.808193	-0.445585	0.846413
O32	O	2.308193	0.054415	1.346413
O33	O	1.660814	-0.575793	0.846361
O34	O	2.160814	-0.075793	1.346361
C35	C	1.422748	-0.510704	0.578093
C36	C	1.922748	-0.010704	1.078093
C37	C	1.289348	-0.510724	0.578115
C38	C	1.789348	-0.010724	1.078115
C39	C	1.734661	-0.787221	0.578017
C40	C	2.234661	-0.287221	1.078017
C41	C	1.734699	-0.905051	0.577977
C42	C	2.234699	-0.405051	1.077977
C43	C	1.641646	-1.072602	0.670277
C44	C	2.141646	-0.572602	1.170277
C45	C	1.641890	-0.950043	0.670734
C46	C	2.141890	-0.450043	1.170734
C47	C	1.861163	-0.949565	0.612299
C48	C	2.361163	-0.449565	1.112299
C49	C	1.860652	-1.072163	0.612878
C50	C	2.360652	-0.572163	1.112878
C51	C	1.702483	-1.072248	0.450839
C52	C	2.202483	-0.572248	0.950839
C53	C	1.699661	-0.949642	0.451601
C54	C	2.199661	-0.449642	0.951601
C55	C	2.047615	-0.510729	0.578127
C56	C	2.547615	-0.010729	1.078127
C57	C	2.181015	-0.510734	0.578134
C58	C	2.681015	-0.010734	1.078134
C59	C	1.734525	-0.510708	0.889934
C60	C	2.234525	-0.010708	1.389934
C61	C	1.734614	-0.510740	1.023334
C62	C	2.234614	-0.010740	1.523334
C63	C	1.734554	-0.235286	0.578115
C64	C	2.234554	0.264714	1.078115
C65	C	1.734748	-0.117457	0.577817
C66	C	2.234748	0.382543	1.077817
C67	C	1.734653	-0.510747	0.265067
C68	C	2.234653	-0.010747	0.765067
C69	C	1.734687	-0.510761	0.131667
C70	C	2.234687	-0.010761	0.631667
H71	H	1.547592	-1.102081	0.649006
H72	H	2.047592	-0.602081	1.149006
H73	H	1.662740	-1.103422	0.763823
H74	H	2.162740	-0.603422	1.263823
O75	O	1.670105	-0.911128	0.795394
O76	O	2.170105	-0.411128	1.295394
H77	H	1.594492	-0.862403	0.828862
H78	H	2.094492	-0.362403	1.328862
O79	O	1.896856	-1.110076	0.735833
O80	O	2.396856	-0.610076	1.235833
H81	H	1.914558	-1.040845	0.794322
H82	H	2.414558	-0.540845	1.294322
O83	O	1.898006	-0.908918	0.733967
O84	O	2.398006	-0.408918	1.233967
H85	H	1.982382	-0.863175	0.725541
H86	H	2.482382	-0.363175	1.225541
H87	H	1.932373	-1.101836	0.548457
H88	H	2.432373	-0.601836	1.048457
O89	O	1.955530	-0.910954	0.525940
O90	O	2.455530	-0.410954	1.025940
H91	H	1.913194	-0.859503	0.457479
H92	H	2.413194	-0.359503	0.957479
H93	H	1.611870	-1.103157	0.419553
H94	H	2.111870	-0.603157	0.919553
O95	O	1.782940	-0.909092	0.355531
O96	O	2.282940	-0.409092	0.855531
H97	H	1.828364	-0.976906	0.311675
H98	H	2.328364	-0.476906	0.811675
H99	H	1.606595	-0.920548	0.425717
H100	H	2.106595	-0.420548	0.925717
O101	O	1.792296	-1.110667	0.359579
O102	O	2.292296	-0.610667	0.859579
H103	H	1.790685	-1.198383	0.356302
H104	H	2.290685	-0.698383	0.856302
O105	O	1.517685	-0.910162	0.642248
O106	O	2.017685	-0.410162	1.142248
H107	H	1.456902	-0.978442	0.628031
H108	H	1.956902	-0.478442	1.128031
