data_functionalizedCrystal
_audit_creation_method	'MofGen! by Chris Wilmer'
_symmetry_space_group_name_H-M	'P1'
_symmetry_Int_Tables_number	1
_symmetry_cell_setting	triclinic
loop_
_symmetry_equiv_pos_as_xyz
  x,y,z
_cell_length_a	11.295471
_cell_length_b	12.837939
_cell_length_c	17.699083
_cell_angle_alpha	89.055827
_cell_angle_beta	94.090036
_cell_angle_gamma	85.457499
loop_
_atom_site_label
_atom_site_type_symbol
_atom_site_fract_x
_atom_site_fract_y
_atom_site_fract_z
O1	O	0.098980	-1.381955	-0.192132
O2	O	0.098986	-1.080174	-0.182414
O3	O	0.098995	-1.239591	-0.077710
O4	O	0.098972	-1.222537	-0.296837
O5	O	-0.099057	-1.225579	-0.086884
O6	O	-0.099065	-1.066162	-0.191589
O7	O	-0.099072	-1.367943	-0.201306
Cu8	Cu	-0.117152	-1.215773	-0.197285
Cu9	Cu	0.117067	-1.232344	-0.186436
O10	O	-0.099080	-1.208525	-0.306011
C11	C	-0.000038	-1.034556	-0.183719
C12	C	-0.000035	-0.919503	-0.173928
C13	C	-0.000066	-0.678246	-0.291634
C14	C	-0.000064	-0.570144	-0.282438
C15	C	-0.000037	-0.595193	-0.146342
C16	C	-0.000039	-0.703296	-0.155537
C17	C	-0.000052	-0.744818	-0.228186
C18	C	-0.000046	-0.852923	-0.237381
C19	C	-0.000027	-0.877970	-0.101285
C20	C	-0.000025	-0.769867	-0.092089
N21	N	-0.281890	-1.204125	-0.204916
C22	C	-0.468916	-1.120342	-0.259930
C23	C	-0.344252	-1.129126	-0.254150
C24	C	-0.344201	-1.270344	-0.161457
C25	C	-0.468865	-1.261561	-0.167236
C26	C	-0.531218	-1.186558	-0.216475
C27	C	-0.655885	-1.177781	-0.222258
C28	C	-0.655832	-1.318993	-0.129562
C29	C	-0.531167	-1.327777	-0.123782
N30	N	0.281804	-1.243999	-0.178799
C31	C	-0.000046	-0.413561	-0.200002
C32	C	-0.000047	-0.528613	-0.209794
C33	C	-0.000057	-1.216142	-0.329666
C34	C	-0.000066	-1.217975	-0.413819
C35	C	-0.000064	-1.124401	-0.455565
C36	C	-0.000050	-1.126130	-0.534635
C37	C	-0.000047	-1.221434	-0.571957
C38	C	-0.000045	-1.315016	-0.530204
C39	C	-0.000050	-1.313286	-0.451136
C40	C	-0.000022	-1.321995	-0.849079
C41	C	-0.000020	-1.323717	-0.928153
C42	C	-0.000021	-1.134839	-0.932578
C43	C	-0.000027	-1.133109	-0.853510
C44	C	-0.000019	-1.226691	-0.811764
C45	C	-0.000032	-1.224814	-0.726027
C46	C	-0.000042	-1.223311	-0.657692
C47	C	-0.000026	-1.231975	-0.054055
C48	C	-0.000009	-1.230143	0.030099
H49	H	-0.000028	-0.736044	-0.032941
H50	H	-0.000124	-0.561359	-0.087199
C51	C	-0.275599	-1.352811	-0.107279
H52	H	-0.192431	-1.348550	-0.110059
H53	H	-0.296050	-1.340225	-0.056912
H54	H	-0.295980	-1.420537	-0.121448
C55	C	-0.000070	-0.723926	-0.371541
H56	H	-0.000080	-0.668794	-0.408012
H57	H	0.068994	-0.770463	-0.374755
H58	H	-0.069145	-0.760688	-0.381157
H59	H	-0.706652	-1.116713	-0.262353
H60	H	-0.000045	-1.049933	-0.568622
C61	C	-0.000011	-0.951197	-0.031487
H62	H	0.000006	-0.910981	0.013095
H63	H	-0.069072	-0.989009	-0.035439
H64	H	0.069067	-0.998768	-0.029050
C65	C	-0.000027	-1.028278	-0.812456
H66	H	-0.000039	-1.040650	-0.759387
H67	H	0.069040	-0.994645	-0.823120
H68	H	-0.069099	-0.984870	-0.829527
H69	H	-0.519685	-1.059279	-0.300027
C70	C	-0.724361	-1.391840	-0.081761
H71	H	-0.669366	-1.437770	-0.051615
H72	H	-0.773014	-1.351221	-0.049811
H73	H	-0.772967	-1.431489	-0.114376
H74	H	-0.000079	-0.515944	-0.334105
C75	C	-0.462572	-1.410274	-0.069625
H76	H	-0.379403	-1.406027	-0.072409
H77	H	-0.483009	-1.397716	-0.019251
H78	H	-0.482976	-1.477985	-0.083816
C79	C	-0.000011	-1.031901	-0.978500
H80	H	0.000007	-1.046576	-1.030935
H81	H	-0.069077	-0.987927	-0.969657
H82	H	0.069062	-0.997703	-0.963243
H83	H	-0.293529	-1.075205	-0.289534
C84	C	-0.000061	-1.019565	-0.414518
H85	H	-0.000044	-0.964085	-0.450708
H86	H	-0.069124	-1.010071	-0.386967
H87	H	0.069014	-1.019857	-0.380564
H88	H	-0.000015	-1.401330	-0.958538
H89	H	-0.000023	-1.398194	-0.815099
C90	C	-0.000044	-1.419848	-0.571257
H91	H	-0.000053	-1.407477	-0.624327
H92	H	0.069019	-1.463257	-0.554186
H93	H	-0.069120	-1.453478	-0.560591
H94	H	-0.000047	-1.389484	-0.417146
H95	H	-0.000058	-0.886729	-0.296535
