data_functionalizedCrystal
_audit_creation_method	'MofGen! by Chris Wilmer'
_symmetry_space_group_name_H-M	'P1'
_symmetry_Int_Tables_number	1
_symmetry_cell_setting	triclinic
loop_
_symmetry_equiv_pos_as_xyz
  x,y,z
_cell_length_a	10.540539
_cell_length_b	23.532407
_cell_length_c	9.016244
_cell_angle_alpha	89.989264
_cell_angle_beta	89.994699
_cell_angle_gamma	83.687119
loop_
_atom_site_label
_atom_site_type_symbol
_atom_site_fract_x
_atom_site_fract_y
_atom_site_fract_z
O1	O	1.683260	0.080251	-0.123301
O2	O	1.313598	0.087813	-0.123323
O3	O	1.509576	0.001174	-0.123270
O4	O	1.487282	0.166890	-0.123354
O5	O	1.509547	0.001176	0.123411
O6	O	1.313570	0.087815	0.123358
O7	O	1.683231	0.080253	0.123379
Cu8	Cu	1.498398	0.084034	0.145893
Cu9	Cu	1.498432	0.084032	-0.145836
O10	O	1.487253	0.166892	0.123326
C11	C	1.266300	0.087246	0.000016
C12	C	1.125407	0.085550	0.000010
C13	C	0.944114	0.020541	0.000618
C14	C	1.090676	0.022261	0.000046
C15	C	1.062752	0.116006	-0.140867
C16	C	0.916278	0.113846	-0.140969
C17	C	0.915715	0.115136	0.139553
C18	C	1.062678	0.115719	0.141399
C19	C	1.508994	-0.020045	0.000078
C20	C	1.507287	-0.083273	0.000100
C21	C	1.384272	-0.350253	0.000001
C22	C	1.385858	-0.290843	0.000012
O23	O	1.288272	-0.254743	-0.000040
N24	N	1.502367	-0.267447	0.000036
C25	C	1.617297	-0.303465	0.000033
O26	O	1.716543	-0.278110	0.000053
C27	C	1.615710	-0.362875	0.000011
C28	C	1.499194	-0.386267	0.000002
C29	C	1.267766	-0.373646	-0.000010
C30	C	1.266181	-0.433053	-0.000018
C31	C	1.381102	-0.469067	-0.000017
C32	C	1.497609	-0.445674	-0.000006
C33	C	1.730640	-0.398892	-0.000002
C34	C	1.729043	-0.458305	-0.000026
C35	C	1.612526	-0.481697	-0.000034
C36	C	1.610946	-0.541094	-0.000013
N37	N	1.494437	-0.564490	-0.000037
C38	C	1.379515	-0.528476	-0.000039
C39	C	1.620621	-0.178701	0.000077
C40	C	1.622209	-0.119292	0.000110
C41	C	1.390770	-0.106674	0.000086
C42	C	1.389183	-0.166083	0.000064
C43	C	1.504112	-0.202096	0.000053
C44	C	1.376196	-0.653235	-0.000056
C45	C	1.374621	-0.712647	-0.000058
C46	C	1.606060	-0.725261	-0.000043
C47	C	1.607635	-0.665853	-0.000032
C48	C	1.492693	-0.629841	-0.000044
O49	O	1.708481	-0.577229	0.000033
O50	O	1.280287	-0.553840	-0.000078
C51	C	1.730530	0.080819	0.000038
C52	C	1.871422	0.082516	0.000034
C53	C	1.487835	0.188111	-0.000025
C54	C	1.489542	0.251339	-0.000057
N55	N	1.498383	0.084035	0.351079
N56	N	1.498456	0.084026	-0.351022
C57	C	1.393236	0.130226	0.586083
C58	C	1.393460	0.130399	0.414192
C59	C	1.630663	0.097553	0.413417
C60	C	1.630086	0.097880	0.585361
C61	C	1.472574	0.024176	0.585651
C62	C	1.469516	0.024564	0.413697
H63	H	1.104358	0.093470	0.245619
H64	H	1.699626	-0.754594	-0.000034
H65	H	1.106046	0.094848	-0.245689
H66	H	1.653008	0.141545	0.625429
H67	H	1.282598	-0.623920	-0.000066
Br68	Br	0.870502	0.076326	-0.316448
Br69	Br	1.885028	-0.507177	-0.000050
H70	H	0.866988	0.160849	0.140481
Br71	Br	1.108043	-0.464790	-0.000046
Br72	Br	1.315349	0.002743	0.658016
Br73	Br	1.097503	0.193467	-0.149684
Br74	Br	1.600478	-0.033138	0.653438
Br75	Br	1.776613	-0.227571	0.000078
Br76	Br	0.864243	0.080998	0.317533
Br77	Br	1.100519	0.192628	0.155537
Br78	Br	1.216481	-0.744390	-0.000062
H79	H	1.654144	0.140724	0.370318
H80	H	1.174177	-0.344329	-0.000016
Br81	Br	1.231049	-0.197824	0.000052
Br82	Br	1.764310	0.043912	0.654712
H83	H	1.297194	-0.077340	0.000086
Br84	Br	1.780345	-0.087553	0.000150
Br85	Br	1.765765	-0.634105	0.000043
H86	H	0.916337	-0.004461	0.101651
H87	H	1.825519	-0.379857	0.000004
H88	H	1.295110	0.122265	0.372047
Br89	Br	1.420278	0.203820	0.658003
Br90	Br	1.163001	-0.017682	0.168366
H91	H	1.294574	0.122217	0.627476
H92	H	1.409902	0.174802	0.373024
Br93	Br	1.764223	0.042999	0.345289
H94	H	1.133225	-0.001874	-0.101092
H95	H	1.541225	-0.011468	0.370742
Br96	Br	0.895141	-0.020963	-0.166781
Br97	Br	0.833830	0.189707	-0.151663
H98	H	1.372214	0.014317	0.372955
