data_functionalizedCrystal
_audit_creation_method	'MofGen! by Chris Wilmer'
_symmetry_space_group_name_H-M	'P1'
_symmetry_Int_Tables_number	1
_symmetry_cell_setting	triclinic
loop_
_symmetry_equiv_pos_as_xyz
  x,y,z
_cell_length_a	15.995350
_cell_length_b	16.109301
_cell_length_c	15.186229
_cell_angle_alpha	89.995644
_cell_angle_beta	90.001965
_cell_angle_gamma	83.476927
loop_
_atom_site_label
_atom_site_type_symbol
_atom_site_fract_x
_atom_site_fract_y
_atom_site_fract_z
O1	O	1.110958	0.107161	0.073145
O2	O	1.610958	0.607161	0.573145
O3	O	0.867179	0.120395	0.073162
O4	O	1.367179	0.620395	0.573162
O5	O	0.995766	-0.007252	0.073157
O6	O	1.495766	0.492748	0.573157
O7	O	0.982372	0.234807	0.073149
O8	O	1.482372	0.734807	0.573149
O9	O	0.995751	-0.007244	-0.073300
O10	O	1.495751	0.492756	0.426700
O11	O	0.867164	0.120402	-0.073295
O12	O	1.367164	0.620402	0.426705
O13	O	1.110943	0.107168	-0.073312
O14	O	1.610943	0.607168	0.426688
Zn15	Zn	0.989051	0.113786	-0.096557
Zn16	Zn	1.489051	0.613786	0.403443
Zn17	Zn	0.989071	0.113777	0.096407
Zn18	Zn	1.489071	0.613777	0.596407
O19	O	0.982357	0.234814	-0.073308
O20	O	1.482357	0.734814	0.426692
C21	C	0.835977	0.119851	-0.000065
C22	C	1.335977	0.619851	0.499935
C23	C	0.743027	0.118211	-0.000058
C24	C	1.243027	0.618211	0.499942
C25	C	0.995216	-0.038223	-0.000068
C26	C	1.495216	0.461777	0.499932
C27	C	0.993589	-0.130519	-0.000059
C28	C	1.493589	0.369481	0.499941
N29	N	0.989044	0.113792	-0.228250
N30	N	1.489044	0.613792	0.271750
C31	C	0.405281	0.112320	-0.000076
C32	C	0.905281	0.612320	0.499924
C33	C	0.452740	0.021413	-0.000399
C34	C	0.952740	0.521413	0.499601
C35	C	0.549430	0.023054	-0.000063
C36	C	1.049430	0.523054	0.499937
C37	C	0.572841	0.115242	-0.000067
C38	C	1.072841	0.615242	0.499933
C39	C	0.531750	0.160077	0.083562
C40	C	1.031750	0.660077	0.583562
C41	C	0.435115	0.157793	0.083626
C42	C	0.935115	0.657793	0.583626
C43	C	0.434759	0.159679	-0.082923
C44	C	0.934759	0.659679	0.417077
C45	C	0.531704	0.159658	-0.084023
C46	C	1.031704	0.659658	0.415977
C47	C	0.667538	0.116898	-0.000059
C48	C	1.167538	0.616898	0.499941
C49	C	0.310584	0.110667	-0.000078
C50	C	0.810584	0.610667	0.499922
C51	C	1.142145	0.107712	-0.000084
C52	C	1.642145	0.607712	0.499916
C53	C	1.235095	0.109352	-0.000085
C54	C	1.735095	0.609352	0.499915
C55	C	0.982907	0.265786	-0.000081
C56	C	1.482907	0.765786	0.499919
C57	C	0.984534	0.358081	-0.000084
C58	C	1.484534	0.858081	0.499916
C59	C	0.912015	0.580334	-0.000066
C60	C	1.412015	1.080334	0.499934
C61	C	0.913550	0.667055	-0.000060
C62	C	1.413550	1.167055	0.499940
C63	C	1.066113	0.647222	-0.000074
C64	C	1.566113	1.147222	0.499926
C65	C	1.064577	0.560503	-0.000074
C66	C	1.564577	1.060503	0.499926
C67	C	0.987526	0.527061	-0.000075
C68	C	1.487526	1.027061	0.499925
C69	C	0.990597	0.700501	-0.000068
C70	C	1.490597	1.200501	0.499932
C71	C	0.992261	0.794528	-0.000061
C72	C	1.492261	1.294528	0.499939
C73	C	0.985861	0.433029	-0.000080
C74	C	1.485861	0.933029	0.499920
C75	C	1.039825	0.164234	-0.453978
C76	C	1.539825	0.664234	0.046022
C77	C	1.039834	0.164228	-0.546168
C78	C	1.539834	0.664228	-0.046168
C79	C	0.938302	0.063316	-0.546166
C80	C	1.438302	0.563316	-0.046166
C81	C	0.938298	0.063318	-0.453978
C82	C	1.438298	0.563318	0.046022
C83	C	0.989058	0.113782	-0.407887
C84	C	1.489058	0.613782	0.092113
C85	C	0.989071	0.113774	-0.592264
C86	C	1.489071	0.613774	-0.092264
C87	C	0.989081	0.113767	-0.692220
C88	C	1.489081	0.613767	-0.192220
C89	C	0.989050	0.113788	-0.307924
C90	C	1.489050	0.613788	0.192076
N91	N	0.989085	0.113764	0.228099
N92	N	1.489085	0.613764	0.728099
H93	H	0.577862	-0.012189	-0.060012
H94	H	1.077862	0.487811	0.439988
H95	H	0.402849	0.224535	0.087418
H96	H	0.902849	0.724535	0.587418
H97	H	0.896956	0.022230	-0.416449
H98	H	1.396956	0.522230	0.083551
H99	H	0.433163	-0.014760	0.059246
H100	H	0.933163	0.485240	0.559246
Br101	Br	0.807446	0.534952	-0.000065
Br102	Br	1.307446	1.034952	0.499935
Br103	Br	0.557274	0.271712	-0.092448
Br104	Br	1.057274	0.771712	0.407552
Br105	Br	0.869411	-0.005161	-0.608724
Br106	Br	1.369411	0.494839	-0.108724
H107	H	0.416822	0.125092	0.146144
H108	H	0.916822	0.625092	0.646144
Br109	Br	0.421872	-0.039149	-0.100361
Br110	Br	0.921872	0.460851	0.399639
Br111	Br	1.167064	0.488197	-0.000077
Br112	Br	1.667064	0.988197	0.499923
H113	H	1.081158	0.205325	-0.416453
H114	H	1.581158	0.705325	0.083547
H115	H	1.128846	0.674460	-0.000083
H116	H	1.628846	1.174460	0.499917
Br117	Br	0.595861	-0.035829	0.100209
Br118	Br	1.095861	0.464171	0.600209
H119	H	1.081175	0.205310	-0.583692
H120	H	1.581175	0.705310	-0.083692
H121	H	0.545857	0.227805	0.086669
H122	H	1.045857	0.727805	0.586669
H123	H	0.560140	0.128931	0.145803
H124	H	1.060140	0.628931	0.645803
Br125	Br	0.811066	0.739351	-0.000040
Br126	Br	1.311066	1.239351	0.499960
Br127	Br	0.577120	0.105014	-0.187142
Br128	Br	1.077120	0.605014	0.312858
Br129	Br	0.400539	0.110148	-0.188578
Br130	Br	0.900539	0.610148	0.311422
H131	H	0.402979	0.226705	-0.083492
H132	H	0.902979	0.726705	0.416508
