data_functionalizedCrystal
_audit_creation_method	'MofGen! by Chris Wilmer'
_symmetry_space_group_name_H-M	'P1'
_symmetry_Int_Tables_number	1
_symmetry_cell_setting	triclinic
loop_
_symmetry_equiv_pos_as_xyz
  x,y,z
_cell_length_a	15.500227
_cell_length_b	17.038272
_cell_length_c	17.038272
_cell_angle_alpha	91.111556
_cell_angle_beta	93.033254
_cell_angle_gamma	86.956295
loop_
_atom_site_label
_atom_site_type_symbol
_atom_site_fract_x
_atom_site_fract_y
_atom_site_fract_z
O1	O	0.071836	-1.052160	-0.167139
O2	O	0.071862	-0.824350	-0.164430
O3	O	0.071842	-0.936901	-0.051879
O4	O	0.071856	-0.939609	-0.279690
O5	O	-0.072045	-0.930069	-0.058680
O6	O	-0.072026	-0.817518	-0.171231
O7	O	-0.072051	-1.045328	-0.173940
Cu8	Cu	-0.085177	-0.930799	-0.173207
Cu9	Cu	0.084987	-0.938879	-0.165164
O10	O	-0.072032	-0.932777	-0.286491
C11	C	-0.000079	-0.791641	-0.165368
C12	C	-0.000069	-0.704358	-0.158019
C13	C	-0.000101	-0.931022	-0.025987
C14	C	-0.000100	-0.923674	0.061297
N15	N	-0.204861	-0.925122	-0.178864
C16	C	-0.250145	-0.972833	-0.131192
C17	C	-0.340718	-0.968547	-0.135478
C18	C	-0.386003	-0.916555	-0.187440
C19	C	-0.340712	-0.868839	-0.235114
C20	C	-0.250142	-0.873121	-0.230823
C21	C	-0.659467	-0.901128	-0.202884
C22	C	-0.750044	-0.896851	-0.207172
C23	C	-0.750044	-0.996559	-0.107535
C24	C	-0.659471	-1.000840	-0.103252
C25	C	-0.614188	-0.953121	-0.150923
C26	C	-0.478582	-0.912174	-0.191824
C27	C	-0.521610	-0.957498	-0.146534
N28	N	0.204671	-0.944561	-0.159501
C29	C	-0.000109	-1.078037	-0.173003
C30	C	-0.000113	-1.165320	-0.180351
C31	C	-0.000066	-0.658749	-0.225482
C32	C	-0.000078	-0.576737	-0.218574
C33	C	-0.000088	-0.540335	-0.144201
C34	C	-0.000094	-0.585950	-0.076733
C35	C	-0.000088	-0.667961	-0.083642
C36	C	-0.000112	-0.292946	-0.119792
C37	C	-0.000116	-0.210929	-0.112887
C38	C	-0.000102	-0.201721	-0.254729
C39	C	-0.000091	-0.283734	-0.261632
C40	C	-0.000101	-0.329342	-0.194164
C41	C	-0.000098	-0.456505	-0.137138
C42	C	-0.000098	-0.413170	-0.201228
C43	C	-0.000087	-0.938656	-0.312383
C44	C	-0.000082	-0.946004	-0.399667
C45	C	-0.000108	-0.991137	0.106906
C46	C	-0.000100	-0.984229	0.188918
C47	C	-0.000088	-0.909856	0.225320
C48	C	-0.000077	-0.842388	0.179705
C49	C	-0.000080	-0.849297	0.097694
C50	C	-0.000074	-0.885446	0.472708
C51	C	-0.000074	-0.878541	0.554725
C52	C	-0.000094	-1.020383	0.563932
C53	C	-0.000102	-1.027286	0.481919
C54	C	-0.000087	-0.959818	0.436312
C55	C	-0.000082	-0.902792	0.309149
C56	C	-0.000087	-0.966882	0.352484
H57	H	-0.213280	-1.015175	-0.088882
O58	O	0.000099	-0.694149	-0.297705
C59	C	0.074614	-0.744851	-0.302417
H60	H	0.126694	-0.725217	-0.257626
H61	H	0.099633	-0.742888	-0.364037
H62	H	0.057770	-0.807447	-0.289400
O63	O	-0.000003	-1.063346	0.071464
C64	C	0.074526	-1.075132	0.027834
H65	H	0.099376	-1.015772	0.012721
H66	H	0.057762	-1.109211	-0.028677
H67	H	0.126707	-1.109943	0.064177
H68	H	-0.000095	-0.442811	-0.261782
H69	H	-0.000063	-0.781832	0.209350
H70	H	-0.622605	-0.862274	-0.241701
O71	O	-0.206283	-0.826746	-0.277214
C72	C	-0.265672	-0.779924	-0.323985
H73	H	-0.330229	-0.809128	-0.330093
H74	H	-0.239492	-0.773347	-0.384658
H75	H	-0.275319	-0.719435	-0.295026
O76	O	0.000036	-0.830597	0.344608
C77	C	0.074571	-0.825890	0.395272
H78	H	0.099414	-0.887611	0.412720
H79	H	0.057815	-0.790231	0.450208
H80	H	0.126752	-0.796024	0.363860
O81	O	-0.000246	-0.175475	-0.040684
C82	C	-0.074779	-0.124796	-0.035967
H83	H	-0.099614	-0.107336	-0.097684
H84	H	-0.058025	-0.069869	-0.000301
H85	H	-0.126967	-0.156203	-0.006103
H86	H	-0.377589	-0.826501	-0.277420
H87	H	-0.000130	-0.426857	-0.076584
H88	H	-0.000108	-1.039164	0.226049
H89	H	-0.000090	-0.705095	-0.028706
O90	O	-0.477546	-1.007881	-0.095989
C91	C	-0.425213	-0.965053	-0.042225
H92	H	-0.411639	-0.906333	-0.068758
H93	H	-0.361524	-1.000009	-0.028948
H94	H	-0.460155	-0.954185	0.014504
H95	H	-0.000111	-1.087848	0.452287
O96	O	-0.522673	-0.861631	-0.242198
C97	C	-0.575060	-0.807900	-0.199365
H98	H	-0.588622	-0.834450	-0.140649
H99	H	-0.638751	-0.794652	-0.234320
H100	H	-0.540169	-0.751151	-0.188490
O101	O	-0.615252	-1.051117	-0.052696
C102	C	-0.562554	-1.104852	-0.095220
H103	H	-0.589834	-1.109509	-0.158500
H104	H	-0.561156	-1.165027	-0.066935
H105	H	-0.494059	-1.083474	-0.094612
O106	O	-0.000179	-0.819963	0.428321
C107	C	-0.074709	-0.816165	0.377100
H108	H	-0.099562	-0.877595	0.367639
H109	H	-0.057943	-0.791804	0.318273
H110	H	-0.126887	-0.776026	0.403968
O111	O	-0.000212	-0.806300	0.590113
C112	C	-0.074722	-0.794524	0.633770
H113	H	-0.126815	-0.834374	0.609207
H114	H	-0.099723	-0.730532	0.629446
H115	H	-0.057879	-0.809143	0.697957
H116	H	-0.000075	-0.539605	-0.273510
H117	H	-0.000073	-0.313367	-0.322194
H118	H	-0.000105	-1.075311	0.601074
H119	H	-0.000122	-0.330070	-0.064854
H120	H	-0.000073	-0.794361	0.060560
O121	O	0.000050	-0.550562	-0.004497
C122	C	0.074557	-0.506913	0.007259
H123	H	0.126647	-0.531481	-0.032605
H124	H	0.099567	-0.511240	0.071244
H125	H	0.057708	-0.442723	-0.007356
H126	H	-0.000077	-1.027437	0.322844
H127	H	-0.000096	-0.164579	-0.309658
H128	H	-0.786921	-1.035409	-0.068723
O129	O	-0.384573	-1.014983	-0.089148
C130	C	-0.325181	-1.061785	-0.042359
H131	H	-0.260612	-1.067854	-0.071557
H132	H	-0.351340	-1.122472	-0.035841
H133	H	-0.315567	-1.032877	0.018154
H134	H	-0.786912	-0.854510	-0.249490
