data_functionalizedCrystal
_audit_creation_method	'MofGen! by Chris Wilmer'
_symmetry_space_group_name_H-M	'P1'
_symmetry_Int_Tables_number	1
_symmetry_cell_setting	triclinic
loop_
_symmetry_equiv_pos_as_xyz
  x,y,z
_cell_length_a	13.032831
_cell_length_b	14.908579
_cell_length_c	13.033109
_cell_angle_alpha	79.167259
_cell_angle_beta	76.665514
_cell_angle_gamma	93.475351
loop_
_atom_site_label
_atom_site_type_symbol
_atom_site_fract_x
_atom_site_fract_y
_atom_site_fract_z
Zn1	Zn	1.662419	0.634198	-0.844013
Zn2	Zn	1.632088	0.763111	-0.674040
Zn3	Zn	1.464851	0.590320	-0.641305
Zn4	Zn	1.477108	0.763032	-0.829080
O5	O	1.559116	0.687665	-0.747110
O6	O	1.805938	0.669695	-0.841416
O7	O	1.592081	0.721860	-0.519979
O8	O	1.498622	0.469909	-0.660744
O9	O	1.783654	0.764407	-0.716537
O10	O	1.643775	0.502147	-0.809674
O11	O	1.469212	0.594911	-0.495929
O12	O	1.318934	0.594834	-0.646264
O13	O	1.519513	0.764272	-0.980779
O14	O	1.327939	0.721724	-0.784221
O15	O	1.655660	0.669618	-0.991751
O16	O	1.603966	0.889331	-0.702057
O17	O	1.490103	0.889273	-0.815963
C18	C	1.285181	0.653510	-0.710070
C19	C	1.167991	0.638923	-0.694252
C20	C	1.120211	0.695278	-0.755365
C21	C	0.999090	0.680203	-0.739017
C22	C	1.545105	0.922039	-0.760969
C23	C	1.539211	1.022321	-0.766947
C24	C	1.646854	1.210793	-0.659698
C25	C	1.641320	1.305018	-0.665312
C26	C	1.522615	1.304997	-0.783794
C27	C	1.528149	1.210773	-0.778180
C28	C	1.590270	1.163674	-0.716129
C29	C	1.595798	1.069447	-0.710510
C30	C	1.477099	1.069429	-0.828997
C31	C	1.471564	1.163654	-0.834611
C32	C	1.834122	0.721955	-0.784294
C33	C	1.951313	0.736567	-0.800140
C34	C	1.592337	0.721831	-1.026171
C35	C	1.606493	0.736390	-1.145090
C36	C	1.573209	1.452384	-0.733236
C37	C	1.579201	1.352123	-0.727357
C38	C	1.552012	0.680069	-1.186209
C39	C	1.566642	0.695116	-1.309118
C40	C	1.526090	0.653575	-0.469138
C41	C	1.512153	0.638787	-0.350232
H42	H	1.119229	0.579511	-0.629831
C43	C	1.260582	0.740938	-0.916621
C44	C	1.186032	0.775481	-0.842339
H45	H	1.301219	0.790454	-0.970311
H46	H	1.224853	0.701411	-0.949544
H47	H	1.306245	0.707534	-0.880384
H48	H	1.140364	0.808879	-0.878575
H49	H	1.221764	0.815023	-0.809413
H50	H	1.472047	1.343363	-0.834321
C51	C	1.722593	0.740620	-1.454804
C52	C	1.644245	0.775251	-1.384415
H53	H	1.770504	0.790091	-1.501283
H54	H	1.690305	0.707247	-1.496526
H55	H	1.760115	0.701045	-1.414336
H56	H	1.606718	0.814821	-1.424883
H57	H	1.676536	0.808639	-1.342689
C58	C	1.712582	1.078936	-0.593967
C59	C	1.664081	1.017673	-0.642307
H60	H	1.754745	1.046974	-0.551868
H61	H	1.659644	1.104996	-0.548989
H62	H	1.756267	1.126377	-0.648266
H63	H	1.620390	0.970235	-0.588007
H64	H	1.717027	0.991598	-0.687288
H65	H	0.950331	0.620788	-0.674592
C66	C	1.762440	0.781890	-1.290780
C67	C	1.684093	0.816522	-1.220391
H68	H	1.810352	0.831362	-1.337259
H69	H	1.730152	0.748517	-1.332502
H70	H	1.799962	0.742315	-1.250312
H71	H	1.646565	0.856091	-1.260858
H72	H	1.716383	0.849910	-1.178665
C73	C	1.354789	1.154170	-0.951164
C74	C	1.403286	1.215430	-0.902818
H75	H	1.312641	1.186135	-0.993277
H76	H	1.311102	1.106736	-0.896877
H77	H	1.407739	1.128104	-0.996141
H78	H	1.350336	1.241491	-0.857834
H79	H	1.446976	1.262880	-0.957112
C80	C	1.091672	0.782230	-0.961407
C81	C	1.017125	0.816773	-0.887122
H82	H	1.132304	0.831747	-1.015101
H83	H	1.055942	0.742699	-0.994324
H84	H	1.137341	0.748830	-0.925173
H85	H	0.971451	0.850167	-0.923355
H86	H	1.052858	0.856320	-0.854202
H87	H	1.697427	1.172443	-0.609165
C88	C	1.759202	1.295567	-0.547628
C89	C	1.703514	1.356811	-0.603276
H90	H	1.797594	1.327543	-0.509324
H91	H	1.807206	1.269508	-0.597534
H92	H	1.710568	1.248123	-0.498271
H93	H	1.752149	1.404251	-0.652638
H94	H	1.655505	1.382884	-0.553364
C95	C	1.432871	0.924983	-0.873006
C96	C	1.414899	1.017634	-0.891035
H97	H	1.394474	0.893010	-0.911309
H98	H	1.409846	0.898865	-0.798119
H99	H	1.506483	0.920242	-0.897383
H100	H	1.341287	1.022376	-0.866651
H101	H	1.437918	1.043761	-0.965938
H102	H	1.494533	0.620715	-1.130418
C103	C	1.435080	0.559251	-1.167749
C104	C	1.434556	0.558648	-1.274932
H105	H	1.387180	0.509774	-1.121265
H106	H	1.413858	0.615709	-1.150989
H107	H	1.504558	0.552662	-1.158300
H108	H	1.365080	0.565243	-1.284383
H109	H	1.455772	0.502176	-1.291698
