data_functionalizedCrystal
_audit_creation_method	'MofGen! by Chris Wilmer'
_symmetry_space_group_name_H-M	'P1'
_symmetry_Int_Tables_number	1
_symmetry_cell_setting	triclinic
loop_
_symmetry_equiv_pos_as_xyz
  x,y,z
_cell_length_a	14.971486
_cell_length_b	10.654550
_cell_length_c	9.730223
_cell_angle_alpha	90.003672
_cell_angle_beta	89.997637
_cell_angle_gamma	84.049530
loop_
_atom_site_label
_atom_site_type_symbol
_atom_site_fract_x
_atom_site_fract_y
_atom_site_fract_z
O1	O	-1.187833	-0.163655	-0.114131
O2	O	-0.927539	-0.183253	-0.114169
O3	O	-1.063671	0.009349	-0.114141
O4	O	-1.051702	-0.356258	-0.114160
O5	O	-1.063664	0.009353	0.114439
O6	O	-0.927532	-0.183250	0.114411
O7	O	-1.187826	-0.163652	0.114449
Zn8	Zn	-1.057678	-0.173450	0.150722
Zn9	Zn	-1.057687	-0.173455	-0.150442
O10	O	-1.051694	-0.356254	0.114420
C11	C	-0.894206	-0.182375	0.000117
C12	C	-0.794895	-0.179749	0.000102
C13	C	-1.062788	0.056139	0.000149
C14	C	-1.060159	0.195555	0.000146
C15	C	-1.221159	-0.164530	0.000160
C16	C	-1.320470	-0.167156	0.000165
C17	C	-0.738285	-0.292898	0.000099
C18	C	-0.644972	-0.290422	0.000119
C19	C	-0.608271	-0.174797	0.000134
C20	C	-0.664888	-0.061639	0.000142
C21	C	-0.758199	-0.064116	0.000131
C22	C	-0.470397	-0.056485	0.000161
C23	C	-0.377080	-0.054007	0.000169
C24	C	-0.357171	-0.282791	0.000149
C25	C	-0.450482	-0.285268	0.000138
C26	C	-0.507092	-0.172110	0.000144
C27	C	-1.052577	-0.403044	0.000128
C28	C	-1.055206	-0.542460	0.000122
N29	N	-1.057678	-0.173447	0.356258
C30	C	-1.140311	0.275900	0.000157
C31	C	-1.137835	0.406894	0.000140
C32	C	-0.975048	0.377185	0.000107
C33	C	-0.977525	0.246193	0.000114
N34	N	-1.057694	-0.173448	-0.355978
C35	C	-1.117982	-0.088194	0.572089
C36	C	-1.117976	-0.088195	0.428206
C37	C	-0.997387	-0.258710	0.428201
C38	C	-0.997398	-0.258714	0.572081
H39	H	-0.768160	-0.387053	0.000086
O40	O	-0.590111	-0.400452	0.000052
C41	C	-0.642513	-0.503035	0.000064
H42	H	-0.711943	-0.471263	-0.043222
H43	H	-0.649388	-0.538473	0.109719
C44	C	-0.511406	-0.649165	-0.036417
C45	C	-0.596678	-0.610144	-0.089592
H46	H	-0.483132	-0.715238	-0.091714
H47	H	-0.476100	-0.580054	-0.036419
H48	H	-0.517147	-0.678688	0.054962
H49	H	-0.590935	-0.580607	-0.180962
H50	H	-0.631982	-0.679253	-0.089607
H51	H	-0.480361	-0.379420	0.000113
H52	H	-1.167069	-0.018775	0.369642
O53	O	-0.938791	-0.341361	0.642117
C54	C	-0.883191	-0.273975	0.725334
H55	H	-0.918211	-0.175787	0.746890
H56	H	-0.817029	-0.265290	0.669896
C57	C	-0.821514	-0.465334	0.835527
C58	C	-0.864530	-0.344740	0.862013
H59	H	-0.809999	-0.508986	0.919835
H60	H	-0.858970	-0.510735	0.779460
H61	H	-0.766384	-0.458079	0.789327
H62	H	-0.919664	-0.351997	0.908197
H63	H	-0.827082	-0.299342	0.918092
H64	H	-1.207597	0.234675	0.000180
O65	O	-0.938903	-0.341698	0.358375
C66	C	-0.954195	-0.466053	0.393539
H67	H	-1.025812	-0.466839	0.433082
H68	H	-0.904853	-0.502827	0.477057
C69	C	-0.852849	-0.550191	0.217148
C70	C	-0.940812	-0.551157	0.265704
H71	H	-0.844590	-0.602690	0.138297
H72	H	-0.842543	-0.466411	0.193460
H73	H	-0.811741	-0.580833	0.286758
H74	H	-0.981918	-0.520501	0.196101
H75	H	-0.951124	-0.634935	0.289378
H76	H	-0.311074	-0.374929	0.000151
H77	H	-0.907770	0.418431	0.000083
O78	O	-1.176639	-0.005326	0.641760
C79	C	-1.229832	0.069943	0.547409
H80	H	-1.231155	0.018449	0.444843
H81	H	-1.200211	0.163302	0.532114
C82	C	-1.324538	0.158857	0.729529
C83	C	-1.326169	0.095606	0.603559
H84	H	-1.383963	0.174693	0.764166
H85	H	-1.288699	0.108150	0.793096
H86	H	-1.299850	0.236648	0.716766
H87	H	-1.350847	0.017810	0.616327
H88	H	-1.362015	0.146300	0.539995
H89	H	-0.347201	0.040145	0.000183
H90	H	-0.516488	0.035661	0.000168
H91	H	-0.634998	0.032505	0.000174
H92	H	-0.804290	0.028022	0.000134
H93	H	-1.203103	0.472307	0.000146
H94	H	-0.912251	0.180772	0.000101
