data_functionalizedCrystal
_audit_creation_method	'MofGen! by Chris Wilmer'
_symmetry_space_group_name_H-M	'P1'
_symmetry_Int_Tables_number	1
_symmetry_cell_setting	triclinic
loop_
_symmetry_equiv_pos_as_xyz
  x,y,z
_cell_length_a	10.723022
_cell_length_b	11.792241
_cell_length_c	9.198806
_cell_angle_alpha	89.996670
_cell_angle_beta	89.996352
_cell_angle_gamma	84.330321
loop_
_atom_site_label
_atom_site_type_symbol
_atom_site_fract_x
_atom_site_fract_y
_atom_site_fract_z
O1	O	1.656768	0.159184	-0.120884
O2	O	1.293575	0.174423	-0.120889
O3	O	1.483985	0.001652	-0.120876
O4	O	1.466358	0.331955	-0.120897
O5	O	1.483970	0.001652	0.120909
O6	O	1.293560	0.174423	0.120896
O7	O	1.656753	0.159183	0.120901
Cu8	Cu	1.475155	0.166803	0.142976
Cu9	Cu	1.475173	0.166804	-0.142963
O10	O	1.466342	0.331954	0.120889
C11	C	1.247070	0.173315	0.000003
C12	C	1.108525	0.169997	0.000002
C13	C	1.482870	-0.040641	0.000016
C14	C	1.479556	-0.166662	0.000015
C15	C	0.890100	0.263240	-0.000007
C16	C	1.033294	0.266671	-0.000005
C17	C	1.473462	-0.397388	-0.000010
C18	C	1.476848	-0.268995	0.000004
C19	C	1.703257	0.160292	0.000006
C20	C	1.841802	0.163609	-0.000002
C21	C	1.467457	0.374248	-0.000007
C22	C	1.470771	0.500269	-0.000015
N23	N	1.475151	0.166802	0.344090
N24	N	1.475186	0.166796	-0.344077
C25	C	1.555100	0.093940	0.416292
C26	C	1.555119	0.093936	0.583704
H27	H	0.825438	0.345998	-0.000022
H28	H	0.906464	0.080851	-0.000005
H29	H	1.623571	0.031561	0.645795
Cl30	Cl	1.097491	0.398380	-0.000001
Cl31	Cl	1.369506	0.263119	0.560075
Cl32	Cl	1.660477	-0.002625	0.320389
Cl33	Cl	1.369484	0.263106	0.439993
H34	H	1.066947	0.084690	-0.000032
