data_functionalizedCrystal
_audit_creation_method	'MofGen! by Chris Wilmer'
_symmetry_space_group_name_H-M	'P1'
_symmetry_Int_Tables_number	1
_symmetry_cell_setting	triclinic
loop_
_symmetry_equiv_pos_as_xyz
  x,y,z
_cell_length_a	12.594516
_cell_length_b	16.120566
_cell_length_c	16.120297
_cell_angle_alpha	89.874982
_cell_angle_beta	92.873262
_cell_angle_gamma	92.890314
loop_
_atom_site_label
_atom_site_type_symbol
_atom_site_fract_x
_atom_site_fract_y
_atom_site_fract_z
Zn1	Zn	-0.539236	-1.247510	-0.534637
Zn2	Zn	-0.289236	-0.997510	-0.284637
Zn3	Zn	-0.039236	-0.747510	-0.034637
Zn4	Zn	0.210764	-0.497510	0.215363
Zn5	Zn	-0.708679	-1.254484	-0.395581
Zn6	Zn	-0.458679	-1.004484	-0.145581
Zn7	Zn	-0.208679	-0.754484	0.104419
Zn8	Zn	0.041321	-0.504484	0.354419
Zn9	Zn	-0.521251	-1.115498	-0.388548
Zn10	Zn	-0.271251	-0.865498	-0.138548
Zn11	Zn	-0.021251	-0.615498	0.111452
Zn12	Zn	0.228749	-0.365498	0.361452
Zn13	Zn	-0.707700	-1.108441	-0.527543
Zn14	Zn	-0.457700	-0.858441	-0.277543
Zn15	Zn	-0.207700	-0.608441	-0.027543
Zn16	Zn	0.042300	-0.358441	0.222457
O17	O	-0.619216	-1.181483	-0.461577
O18	O	-0.369216	-0.931483	-0.211577
O19	O	-0.119216	-0.681483	0.038423
O20	O	0.130784	-0.431483	0.288423
O21	O	-0.569649	-1.364802	-0.522104
O22	O	-0.319649	-1.114802	-0.272104
O23	O	-0.069649	-0.864802	-0.022104
O24	O	0.180351	-0.614802	0.227896
O25	O	-0.676699	-1.241920	-0.278283
O26	O	-0.426699	-0.991920	-0.028283
O27	O	-0.176699	-0.741920	0.221717
O28	O	0.073301	-0.491920	0.471717
O29	O	-0.374695	-1.133045	-0.407952
O30	O	-0.124695	-0.883045	-0.157952
O31	O	0.125305	-0.633045	0.092048
O32	O	0.375305	-0.383045	0.342048
O33	O	-0.694138	-1.369926	-0.419940
O34	O	-0.444138	-1.119926	-0.169940
O35	O	-0.194138	-0.869926	0.080060
O36	O	0.055862	-0.619926	0.330060
O37	O	-0.387908	-1.230034	-0.515283
O38	O	-0.137908	-0.980034	-0.265283
O39	O	0.112092	-0.730034	-0.015283
O40	O	0.362092	-0.480034	0.234717
O41	O	-0.538997	-1.139807	-0.273116
O42	O	-0.288997	-0.889807	-0.023116
O43	O	-0.038997	-0.639807	0.226884
O44	O	0.211003	-0.389807	0.476884
O45	O	-0.538048	-0.998195	-0.401073
O46	O	-0.288048	-0.748195	-0.151073
O47	O	-0.038048	-0.498195	0.098927
O48	O	0.211952	-0.248195	0.348927
O49	O	-0.692470	-1.121016	-0.644849
O50	O	-0.442470	-0.871016	-0.394849
O51	O	-0.192470	-0.621016	-0.144849
O52	O	0.057530	-0.371016	0.105151
O53	O	-0.675031	-0.993010	-0.503192
O54	O	-0.425031	-0.743010	-0.253192
O55	O	-0.175031	-0.493010	-0.003192
O56	O	0.074969	-0.243010	0.246808
O57	O	-0.568700	-1.223190	-0.650061
O58	O	-0.318700	-0.973190	-0.400061
O59	O	-0.068700	-0.723190	-0.150061
O60	O	0.181300	-0.473190	0.099939
O61	O	-0.857491	-1.235076	-0.413061
O62	O	-0.607491	-0.985076	-0.163061
O63	O	-0.357491	-0.735076	0.086939
O64	O	-0.107491	-0.485076	0.336939
O65	O	-0.856772	-1.127778	-0.510012
O66	O	-0.606772	-0.877778	-0.260012
O67	O	-0.356772	-0.627778	-0.010012
O68	O	-0.106772	-0.377778	0.239988
C69	C	-0.604482	-0.965430	-0.450600
C70	C	-0.354482	-0.715430	-0.200600
C71	C	-0.104482	-0.465430	0.049400
C72	C	0.145518	-0.215430	0.299400
C73	C	-0.598206	-0.873000	-0.445924
C74	C	-0.348206	-0.623000	-0.195924
C75	C	-0.098206	-0.373000	0.054076
C76	C	0.151794	-0.123000	0.304076
C77	C	-0.895753	-1.181440	-0.461549
C78	C	-0.645753	-0.931440	-0.211549
C79	C	-0.395753	-0.681440	0.038451
C80	C	-0.145753	-0.431440	0.288451
C81	C	-1.014063	-1.181496	-0.461569
C82	C	-0.764063	-0.931496	-0.211569
C83	C	-0.514063	-0.681496	0.038431
C84	C	-0.264063	-0.431496	0.288431
C85	C	-0.586722	-0.703770	-0.437393
C86	C	-0.336722	-0.453770	-0.187393
C87	C	-0.086722	-0.203770	0.062607
C88	C	0.163278	0.046230	0.312607
C89	C	-0.651803	-0.660037	-0.485768
C90	C	-0.401803	-0.410037	-0.235768
C91	C	-0.151803	-0.160037	0.014232
C92	C	0.098197	0.089963	0.264232
C93	C	-0.645413	-0.565872	-0.481022
C94	C	-0.395413	-0.315872	-0.231022
C95	C	-0.145413	-0.065872	0.018978
C96	C	0.104587	0.184128	0.268978
C97	C	-0.593110	-0.797944	-0.442138
C98	C	-0.343110	-0.547944	-0.192138
C99	C	-0.093110	-0.297944	0.057862
C100	C	0.156890	-0.047944	0.307862
C101	C	-1.154445	-1.239952	-0.408939
C102	C	-0.904445	-0.989952	-0.158939
C103	C	-0.654445	-0.739952	0.091061
C104	C	-0.404445	-0.489952	0.341061
C105	C	-1.077335	-1.165103	-0.384656
C106	C	-0.827335	-0.915103	-0.134656
C107	C	-0.577335	-0.665103	0.115344
C108	C	-0.327335	-0.415103	0.365344
C109	C	-1.089599	-1.256337	-0.485814
C110	C	-0.839599	-1.006337	-0.235814
C111	C	-0.589599	-0.756337	0.014186
C112	C	-0.339599	-0.506337	0.264186
C113	C	-1.147744	-1.106691	-0.437321
C114	C	-0.897744	-0.856691	-0.187321
C115	C	-0.647744	-0.606691	0.062679
C116	C	-0.397744	-0.356691	0.312679
C117	C	-1.160019	-1.197974	-0.538517
C118	C	-0.910019	-0.947974	-0.288517
C119	C	-0.660019	-0.697974	-0.038517
C120	C	-0.410019	-0.447974	0.211483
C121	C	-1.082939	-1.123072	-0.514260
C122	C	-0.832939	-0.873072	-0.264260
C123	C	-0.582939	-0.623072	-0.014260
C124	C	-0.332939	-0.373072	0.235740
C125	C	-0.341603	-1.181549	-0.461625
C126	C	-0.091603	-0.931549	-0.211625
C127	C	0.158397	-0.681549	0.038375
C128	C	0.408397	-0.431549	0.288375
C129	C	-0.223301	-1.181577	-0.461645
C130	C	0.026699	-0.931577	-0.211645
C131	C	0.276699	-0.681577	0.038355
C132	C	0.526699	-0.431577	0.288355
C133	C	-0.632482	-1.170538	-0.678471
C134	C	-0.382482	-0.920538	-0.428471
C135	C	-0.132482	-0.670538	-0.178471
C136	C	0.117518	-0.420538	0.071529
C137	C	-0.638135	-1.165874	-0.770898
C138	C	-0.388135	-0.915874	-0.520898
C139	C	-0.138135	-0.665874	-0.270898
C140	C	0.111865	-0.415874	-0.020898
C141	C	-0.634012	-0.398381	-0.472584
C142	C	-0.384012	-0.148381	-0.222584
C143	C	-0.134012	0.101619	0.027416
C144	C	0.115988	0.351619	0.277416
C145	C	-0.640323	-0.490812	-0.477240
C146	C	-0.390323	-0.240812	-0.227240
C147	C	-0.140323	0.009188	0.022760
C148	C	0.109677	0.259188	0.272760
C149	C	-0.648430	-1.157327	-0.940122
C150	C	-0.398430	-0.907327	-0.690122
C151	C	-0.148430	-0.657327	-0.440122
C152	C	0.101570	-0.407327	-0.190122
C153	C	-0.589695	-1.205803	-0.983892
C154	C	-0.339695	-0.955803	-0.733892
C155	C	-0.089695	-0.705803	-0.483892
C156	C	0.160305	-0.455803	-0.233892
C157	C	-0.595423	-1.201048	-1.078054
C158	C	-0.345423	-0.951048	-0.828054
C159	C	-0.095423	-0.701048	-0.578054
C160	C	0.154577	-0.451048	-0.328054
C161	C	-0.642703	-1.162082	-0.845952
C162	C	-0.392703	-0.912082	-0.595952
C163	C	-0.142703	-0.662082	-0.345952
C164	C	0.107297	-0.412082	-0.095952
C165	C	-0.605929	-1.192434	-0.245530
C166	C	-0.355929	-0.942434	0.004470
C167	C	-0.105929	-0.692434	0.254470
C168	C	0.144071	-0.442434	0.504470
C169	C	-0.599987	-1.197259	-0.153111
C170	C	-0.349987	-0.947259	0.096889
C171	C	-0.099987	-0.697259	0.346889
C172	C	0.150013	-0.447259	0.596889
H173	H	-0.712318	-0.693318	-0.530749
H174	H	-0.462318	-0.443318	-0.280749
H175	H	-0.212318	-0.193318	-0.030749
H176	H	0.037682	0.056682	0.219251
N177	N	-1.181664	-1.022883	-0.410086
N178	N	-0.931664	-0.772883	-0.160086
N179	N	-0.681664	-0.522883	0.089914
N180	N	-0.431664	-0.272883	0.339914
H181	H	-1.116579	-0.984894	-0.397750
H182	H	-0.866579	-0.734894	-0.147750
H183	H	-0.616579	-0.484894	0.102250
H184	H	-0.366579	-0.234894	0.352250
H185	H	-1.227707	-0.998065	-0.455859
H186	H	-0.977707	-0.748065	-0.205859
H187	H	-0.727707	-0.498065	0.044141
H188	H	-0.477707	-0.248065	0.294141
H189	H	-1.196166	-1.211907	-0.603543
H190	H	-0.946166	-0.961907	-0.353543
H191	H	-0.696166	-0.711907	-0.103543
H192	H	-0.446166	-0.461907	0.146457
N193	N	-0.517389	-1.265515	-0.939869
N194	N	-0.267389	-1.015515	-0.689869
N195	N	-0.017389	-0.765515	-0.439869
N196	N	0.232611	-0.515515	-0.189869
H197	H	-0.463608	-1.233523	-0.902110
H198	H	-0.213608	-0.983523	-0.652110
H199	H	0.036392	-0.733523	-0.402110
H200	H	0.286392	-0.483523	-0.152110
H201	H	-0.561205	-1.305810	-0.905842
H202	H	-0.311205	-1.055810	-0.655842
H203	H	-0.061205	-0.805810	-0.405842
H204	H	0.188795	-0.555810	-0.155842
N205	N	-0.506588	-0.659696	-0.377795
N206	N	-0.256588	-0.409696	-0.127795
N207	N	-0.006588	-0.159696	0.122205
N208	N	0.243412	0.090304	0.372205
H209	H	-0.513342	-0.597701	-0.382803
H210	H	-0.263342	-0.347701	-0.132803
H211	H	-0.013342	-0.097701	0.117197
H212	H	0.236658	0.152299	0.367197
H213	H	-0.520440	-0.677814	-0.319138
H214	H	-0.270440	-0.427814	-0.069138
H215	H	-0.020440	-0.177814	0.180862
H216	H	0.229560	0.072186	0.430862
N217	N	-1.196013	-1.305317	-0.349899
N218	N	-0.946013	-1.055317	-0.099899
N219	N	-0.696013	-0.805317	0.150101
N220	N	-0.446013	-0.555317	0.400101
H221	H	-1.165762	-1.292787	-0.291811
H222	H	-0.915762	-1.042787	-0.041811
H223	H	-0.665762	-0.792787	0.208189
H224	H	-0.415762	-0.542787	0.458189
H225	H	-1.276246	-1.305213	-0.350808
H226	H	-1.026246	-1.055213	-0.100808
H227	H	-0.776246	-0.805213	0.149192
H228	H	-0.526246	-0.555213	0.399192
N229	N	-1.029478	-1.146671	-0.298504
N230	N	-0.779478	-0.896671	-0.048504
N231	N	-0.529478	-0.646671	0.201496
N232	N	-0.279478	-0.396671	0.451496
H233	H	-1.055495	-1.190826	-0.258758
H234	H	-0.805495	-0.940826	-0.008758
H235	H	-0.555495	-0.690826	0.241242
H236	H	-0.305495	-0.440826	0.491242
H237	H	-0.949319	-1.146224	-0.299300
H238	H	-0.699319	-0.896224	-0.049300
H239	H	-0.449319	-0.646224	0.200700
H240	H	-0.199319	-0.396224	0.450700
H241	H	-1.051749	-1.073617	-0.558797
H242	H	-0.801749	-0.823617	-0.308797
H243	H	-0.551749	-0.573617	-0.058797
H244	H	-0.301749	-0.323617	0.191203
N245	N	-0.720719	-1.097614	-0.984150
N246	N	-0.470719	-0.847614	-0.734150
N247	N	-0.220719	-0.597614	-0.484150
N248	N	0.029281	-0.347614	-0.234150
H249	H	-0.714605	-1.102638	-1.046150
H250	H	-0.464605	-0.852638	-0.796150
H251	H	-0.214605	-0.602638	-0.546150
H252	H	0.035395	-0.352638	-0.296150
H253	H	-0.796720	-1.111278	-0.969684
H254	H	-0.546720	-0.861278	-0.719684
H255	H	-0.296720	-0.611278	-0.469684
H256	H	-0.046720	-0.361278	-0.219684
H257	H	-1.063845	-1.319595	-0.506287
H258	H	-0.813845	-1.069595	-0.256287
H259	H	-0.563845	-0.819595	-0.006287
H260	H	-0.313845	-0.569595	0.243713
