data_functionalizedCrystal
_audit_creation_method	'MofGen! by Chris Wilmer'
_symmetry_space_group_name_H-M	'P1'
_symmetry_Int_Tables_number	1
_symmetry_cell_setting	triclinic
loop_
_symmetry_equiv_pos_as_xyz
  x,y,z
_cell_length_a	14.853567
_cell_length_b	23.532407
_cell_length_c	13.930277
_cell_angle_alpha	89.990782
_cell_angle_beta	89.995755
_cell_angle_gamma	83.241804
loop_
_atom_site_label
_atom_site_type_symbol
_atom_site_fract_x
_atom_site_fract_y
_atom_site_fract_z
O1	O	1.195555	0.074353	-0.079775
O2	O	1.695555	0.574353	0.420225
O3	O	0.932999	0.083210	-0.079793
O4	O	1.432999	0.583210	0.420207
O5	O	1.072194	-0.004116	-0.079766
O6	O	1.572194	0.495884	0.420234
O7	O	1.056360	0.161678	-0.079802
O8	O	1.556360	0.661678	0.420198
O9	O	1.072175	-0.004118	0.079896
O10	O	1.572175	0.495882	0.579896
O11	O	0.932980	0.083208	0.079869
O12	O	1.432980	0.583208	0.579869
O13	O	1.195536	0.074351	0.079887
O14	O	1.695536	0.574351	0.579887
Zn15	Zn	1.064255	0.078779	0.105228
Zn16	Zn	1.564255	0.578779	0.605228
Zn17	Zn	1.064280	0.078782	-0.105133
Zn18	Zn	1.564280	0.578782	0.394867
O19	O	1.056340	0.161677	0.079860
O20	O	1.556340	0.661677	0.579860
C21	C	0.899405	0.082808	0.000036
C22	C	1.399405	0.582808	0.500036
C23	C	0.799334	0.081605	0.000030
C24	C	1.299334	0.581605	0.500030
C25	C	1.071782	-0.025335	0.000068
C26	C	1.571782	0.474665	0.500068
C27	C	1.070569	-0.088557	0.000075
C28	C	1.570569	0.411443	0.500075
C29	C	0.387423	0.024648	0.000064
C30	C	0.887423	0.524648	0.500064
C31	C	0.365008	0.128393	0.000041
C32	C	0.865008	0.628393	0.500041
C33	C	0.459029	0.129524	0.000037
C34	C	0.959029	0.629524	0.500037
C35	C	0.517252	0.078216	0.000046
C36	C	1.017252	0.578216	0.500046
C37	C	0.481454	0.025777	0.000058
C38	C	0.981454	0.525777	0.500058
C39	C	0.494835	0.181961	0.000016
C40	C	0.994835	0.681961	0.500016
C41	C	0.588861	0.183094	0.000011
C42	C	1.088861	0.683094	0.500011
C43	C	0.647086	0.131786	0.000027
C44	C	1.147086	0.631786	0.500027
C45	C	0.611283	0.079345	0.000040
C46	C	1.111283	0.579345	0.500040
C47	C	0.669506	0.028037	0.000049
C48	C	1.169506	0.528037	0.500049
C49	C	0.633704	-0.024404	0.000069
C50	C	1.133704	0.475596	0.500069
C51	C	0.539679	-0.025531	0.000074
C52	C	1.039679	0.474469	0.500074
C53	C	0.741111	0.132913	0.000022
C54	C	1.241111	0.632913	0.500022
C55	C	0.763536	0.029166	0.000042
C56	C	1.263536	0.529166	0.500042
C57	C	1.145338	-0.487334	0.000027
C58	C	1.645338	0.012666	0.500027
C59	C	1.144212	-0.546739	0.000020
C60	C	1.644212	-0.046739	0.500020
O61	O	1.213524	-0.583181	-0.000011
O62	O	1.713524	-0.083181	0.499989
N63	N	1.061460	-0.569726	0.000015
N64	N	1.561460	-0.069726	0.500015
C65	C	0.979829	-0.533305	0.000008
C66	C	1.479829	-0.033305	0.500008
O67	O	0.909339	-0.558312	0.000002
O68	O	1.409339	-0.058312	0.500002
C69	C	0.980957	-0.473901	0.000008
C70	C	1.480957	0.026099	0.500008
C71	C	1.063714	-0.450917	0.000023
C72	C	1.563714	0.049083	0.500023
C73	C	1.228089	-0.464349	0.000041
C74	C	1.728089	0.035651	0.500041
C75	C	1.229214	-0.404948	0.000050
C76	C	1.729214	0.095052	0.500050
C77	C	1.147590	-0.368531	0.000046
C78	C	1.647590	0.131469	0.500046
C79	C	1.064839	-0.391516	0.000032
C80	C	1.564839	0.108484	0.500032
C81	C	0.899327	-0.437481	-0.000006
C82	C	1.399327	0.062519	0.499994
C83	C	0.900461	-0.378073	-0.000006
C84	C	1.400461	0.121927	0.499994
C85	C	0.983218	-0.355089	0.000009
C86	C	1.483218	0.144911	0.500009
C87	C	0.984341	-0.295698	0.000037
C88	C	1.484341	0.204302	0.500037
N89	N	1.067092	-0.272711	0.000042
N90	N	1.567092	0.227289	0.500042
C91	C	1.148717	-0.309128	0.000046
C92	C	1.648717	0.190872	0.500046
C93	C	0.977469	-0.658058	0.000005
C94	C	1.477469	-0.158058	0.500005
C95	C	0.976340	-0.717461	0.000012
C96	C	1.476340	-0.217461	0.500012
C97	C	1.140723	-0.730890	0.000022
C98	C	1.640723	-0.230890	0.500022
C99	C	1.141851	-0.671486	0.000022
C100	C	1.641851	-0.171486	0.500022
C101	C	1.060220	-0.635070	0.000010
C102	C	1.560220	-0.135070	0.500010
C103	C	1.151075	-0.184380	0.000066
C104	C	1.651075	0.315620	0.500066
C105	C	1.152194	-0.124974	0.000079
C106	C	1.652194	0.375026	0.500079
C107	C	0.987811	-0.111549	0.000064
C108	C	1.487811	0.388451	0.500064
C109	C	0.986692	-0.170951	0.000056
C110	C	1.486692	0.329049	0.500056
C111	C	1.068331	-0.207365	0.000054
C112	C	1.568331	0.292635	0.500054
O113	O	0.915065	-0.259221	0.000064
O114	O	1.415065	0.240779	0.500064
O115	O	1.219196	-0.284112	0.000039
O116	O	1.719196	0.215888	0.500039
C117	C	1.229130	0.074753	0.000056
C118	C	1.729130	0.574753	0.500056
C119	C	1.329200	0.075956	0.000056
C120	C	1.829200	0.575956	0.500056
C121	C	1.056753	0.182895	0.000025
C122	C	1.556753	0.682895	0.500025
C123	C	1.057966	0.246118	0.000011
C124	C	1.557966	0.746118	0.500011
N125	N	1.064244	0.078777	0.248794
N126	N	1.564244	0.578777	0.748794
N127	N	1.064298	0.078779	-0.248700
N128	N	1.564298	0.578779	0.251300
C129	C	1.002642	0.117434	0.701051
C130	C	1.502642	0.617434	1.201051
C131	C	1.125943	0.040125	0.701045
C132	C	1.625943	0.540125	1.201045
C133	C	1.125932	0.040123	0.600549
C134	C	1.625932	0.540123	1.100549
C135	C	1.064276	0.078778	0.550300
C136	C	1.564276	0.578778	1.050300
C137	C	1.002631	0.117435	0.600546
C138	C	1.502631	0.617435	1.100546
C139	C	1.187582	0.001470	0.550295
C140	C	1.687582	0.501470	1.050295
C141	C	1.187575	0.001467	0.449793
C142	C	1.687575	0.501467	0.949793
C143	C	1.125914	0.040120	0.399542
C144	C	1.625914	0.540120	0.899542
C145	C	1.064266	0.078778	0.449795
C146	C	1.564266	0.578778	0.949795
C147	C	1.002610	0.117433	0.399546
C148	C	1.502610	0.617433	0.899546
C149	C	0.940956	0.156089	0.449797
C150	C	1.440956	0.656089	0.949797
C151	C	0.940970	0.156088	0.550295
C152	C	1.440970	0.656088	1.050295
C153	C	1.125900	0.040122	0.299043
C154	C	1.625900	0.540122	0.799043
C155	C	1.002599	0.117434	0.299041
C156	C	1.502599	0.617434	0.799041
H157	H	0.810936	-0.012615	0.000053
H158	H	1.310936	0.487385	0.500053
H159	H	0.358269	-0.018049	0.000084
H160	H	0.858269	0.481951	0.500084
N161	N	1.254086	-0.040215	0.604488
N162	N	1.754086	0.459785	1.104488
H163	H	1.244734	-0.034350	0.675779
H164	H	1.744734	0.465650	1.175779
H165	H	1.244042	-0.080629	0.586935
H166	H	1.744042	0.419371	1.086935
H167	H	0.770257	0.175610	0.000007
H168	H	1.270257	0.675610	0.500007
N169	N	1.254064	-0.040230	0.395606
N170	N	1.754064	0.459770	0.895606
H171	H	1.219835	-0.065486	0.353927
H172	H	1.719835	0.434514	0.853927
H173	H	1.293763	-0.018383	0.353946
H174	H	1.793763	0.481617	0.853946
N175	N	1.231111	-0.646702	0.000035
N176	N	1.731111	-0.146702	0.500035
H177	H	1.235258	-0.622350	-0.059150
H178	H	1.735258	-0.122350	0.440850
H179	H	1.235182	-0.622389	0.059262
H180	H	1.735182	-0.122389	0.559262
H181	H	0.910991	-0.628410	0.000003
H182	H	1.410991	-0.128410	0.500003
N183	N	0.897437	-0.195746	0.000044
N184	N	1.397437	0.304254	0.500044
H185	H	0.893295	-0.220103	0.059223
H186	H	1.393295	0.279897	0.559223
H187	H	0.845952	-0.163628	0.000009
H188	H	1.345952	0.336372	0.500009
N189	N	0.936152	0.159125	0.755250
N190	N	1.436152	0.659125	1.255250
H191	H	0.946166	0.199557	0.737748
H192	H	1.446166	0.699557	1.237748
H193	H	0.872259	0.152441	0.737750
H194	H	1.372259	0.652441	1.237750
H195	H	0.831937	-0.456183	-0.000023
H196	H	1.331937	0.043817	0.499977
H197	H	0.890775	0.187560	0.591216
H198	H	1.390775	0.687560	1.091216
H199	H	0.447423	0.223733	-0.000001
H200	H	0.947423	0.723733	0.499999
H201	H	0.833986	-0.348425	-0.000017
H202	H	1.333986	0.151575	0.499983
N203	N	1.239126	-0.223651	0.000064
N204	N	1.739126	0.276349	0.500064
H205	H	1.291712	-0.200069	0.000076
H206	H	1.791712	0.299931	0.500076
H207	H	1.242235	-0.248598	0.059251
H208	H	1.742235	0.251402	0.559251
H209	H	1.176146	0.008655	0.741961
H210	H	1.676146	0.508655	1.241961
H211	H	0.618003	0.225795	-0.000005
H212	H	1.118003	0.725795	0.499995
H213	H	1.176101	0.008652	0.258133
H214	H	1.676101	0.508652	0.758133
H215	H	0.681121	-0.066179	0.000069
H216	H	1.181121	0.433821	0.500069
N217	N	0.874462	0.197784	0.395596
N218	N	1.374462	0.697784	0.895596
H219	H	0.883818	0.191917	0.324306
H220	H	1.383818	0.691917	0.824306
H221	H	0.810570	0.191129	0.413168
H222	H	1.310570	0.691129	0.913168
H223	H	1.207187	-0.760552	0.000022
H224	H	1.707187	-0.260552	0.500022
N225	N	0.899777	-0.072266	0.000085
N226	N	1.399777	0.427734	0.500085
H227	H	0.913055	-0.031147	0.000096
H228	H	1.413055	0.468853	0.500096
H229	H	0.863685	-0.079701	-0.059103
H230	H	1.363685	0.420299	0.440897
H231	H	0.317597	0.170165	0.000026
H232	H	0.817597	0.670165	0.500026
N233	N	0.501065	-0.082089	0.000102
N234	N	1.001065	0.417911	0.500102
H235	H	0.432666	-0.075017	0.000103
H236	H	0.932666	0.424983	0.500103
H237	H	0.522395	-0.104546	-0.059079
H238	H	1.022395	0.395454	0.440921
N239	N	0.887082	-0.742247	0.000022
N240	N	1.387082	-0.242247	0.500022
H241	H	0.835549	-0.710158	0.000024
H242	H	1.335549	-0.210158	0.500024
H243	H	0.883030	-0.766595	-0.059167
H244	H	1.383030	-0.266595	0.440833
H245	H	1.219587	-0.106264	0.000094
H246	H	1.719587	0.393736	0.500094
H247	H	1.296604	-0.386241	0.000058
H248	H	1.796604	0.113759	0.500058
H249	H	1.294561	-0.493994	0.000041
H250	H	1.794561	0.006006	0.500041
H251	H	0.952388	0.148910	0.258134
H252	H	1.452388	0.648910	0.758134
