data_functionalizedCrystal
_audit_creation_method	'MofGen! by Chris Wilmer'
_symmetry_space_group_name_H-M	'P1'
_symmetry_Int_Tables_number	1
_symmetry_cell_setting	triclinic
loop_
_symmetry_equiv_pos_as_xyz
  x,y,z
_cell_length_a	14.044191
_cell_length_b	14.044220
_cell_length_c	9.730217
_cell_angle_alpha	89.995579
_cell_angle_beta	90.000957
_cell_angle_gamma	93.190327
loop_
_atom_site_label
_atom_site_type_symbol
_atom_site_fract_x
_atom_site_fract_y
_atom_site_fract_z
O1	O	1.277168	0.230198	-0.114230
O2	O	1.000496	0.221885	-0.114247
O3	O	1.134679	0.087706	-0.114225
O4	O	1.142985	0.364377	-0.114252
O5	O	1.134675	0.087704	0.114355
O6	O	1.000491	0.221884	0.114333
O7	O	1.277164	0.230196	0.114350
Zn8	Zn	1.138827	0.226040	0.150634
Zn9	Zn	1.138833	0.226042	-0.150530
O10	O	1.142980	0.364376	0.114329
C11	C	0.964872	0.218248	0.000041
C12	C	0.858728	0.207401	0.000035
C13	C	0.613270	0.264501	0.000043
C14	C	0.664395	0.187585	0.000048
C15	C	0.772532	0.198613	0.000041
C16	C	0.505123	0.253474	0.000051
C17	C	1.131041	0.052083	0.000065
C18	C	1.120197	-0.054060	0.000066
C19	C	1.100370	-0.248398	0.000045
C20	C	1.177285	-0.299526	0.000046
C21	C	1.166253	-0.407663	0.000034
C22	C	1.111400	-0.140252	0.000057
C23	C	1.312788	0.233834	0.000059
C24	C	1.418931	0.244681	0.000057
C25	C	1.146618	0.399998	0.000035
C26	C	1.157463	0.506142	0.000025
N27	N	1.138830	0.226038	0.356170
N28	N	1.138837	0.226036	-0.356067
C29	C	1.257705	0.107264	0.356180
C30	C	1.317149	0.047880	0.428125
C31	C	1.317159	0.047880	0.572005
C32	C	1.257716	0.107269	0.643943
C33	C	1.198271	0.166652	0.571998
C34	C	1.198270	0.166648	0.428115
C35	C	1.079393	0.285420	0.571988
C36	C	1.079386	0.285426	0.428109
C37	C	1.019950	0.344809	0.643927
C38	C	0.960509	0.404199	0.571982
C39	C	0.960502	0.404197	0.428093
C40	C	1.019942	0.344810	0.356164
H41	H	0.650711	0.338628	0.000032
H42	H	1.251419	-0.262085	-0.000042
H43	H	1.026242	-0.285837	0.000038
H44	H	1.257711	0.107266	0.239026
H45	H	1.257719	0.107257	0.761098
H46	H	1.365545	-0.000475	0.369541
N47	N	0.617434	0.094582	0.000082
N48	N	0.562653	0.069784	0.096441
H49	H	0.529484	0.004103	0.096465
N50	N	0.899780	0.464845	0.354586
N51	N	0.837961	0.429501	0.274304
H52	H	0.795075	0.472334	0.222391
H53	H	1.019956	0.344802	0.761081
N54	N	1.377876	-0.012791	0.645481
N55	N	1.430938	-0.065815	0.581245
H56	H	1.473820	-0.108666	0.633136
H57	H	0.912110	0.452544	0.630563
H58	H	1.019946	0.344807	0.239009
