data_functionalizedCrystal
_audit_creation_method	'MofGen! by Chris Wilmer'
_symmetry_space_group_name_H-M	'P1'
_symmetry_Int_Tables_number	1
_symmetry_cell_setting	triclinic
loop_
_symmetry_equiv_pos_as_xyz
  x,y,z
_cell_length_a	15.624803
_cell_length_b	15.625429
_cell_length_c	9.482900
_cell_angle_alpha	81.570414
_cell_angle_beta	62.948901
_cell_angle_gamma	78.660423
loop_
_atom_site_label
_atom_site_type_symbol
_atom_site_fract_x
_atom_site_fract_y
_atom_site_fract_z
O1	O	1.290918	0.022739	-0.813609
O2	O	1.013231	0.052052	-0.682632
O3	O	1.151487	-0.086199	-0.682656
O4	O	1.152662	0.160989	-0.813586
O5	O	1.123411	-0.058011	-0.440918
O6	O	0.985155	0.080240	-0.440895
O7	O	1.262842	0.050926	-0.571871
Cu8	Cu	1.121435	0.068157	-0.484310
Cu9	Cu	1.154638	0.034821	-0.770193
O10	O	1.124586	0.189177	-0.571848
C11	C	0.963507	0.067617	-0.543721
C12	C	0.857173	0.071990	-0.489955
C13	C	0.584082	0.009484	-0.972100
C14	C	0.484167	0.013577	-0.921568
C15	C	0.453535	0.044307	-0.658023
C16	C	0.553451	0.040212	-0.708531
C17	C	0.618717	0.022802	-0.865572
C18	C	0.588085	0.053530	-0.602003
C19	C	0.687992	0.049441	-0.652510
C20	C	0.753264	0.032033	-0.809545
C21	C	0.718624	0.018712	-0.916079
C22	C	0.522817	0.070947	-0.444966
C23	C	0.557451	0.084265	-0.338438
C24	C	0.657360	0.080169	-0.388941
C25	C	0.722632	0.062762	-0.545976
C26	C	0.692000	0.093490	-0.282407
C27	C	0.791907	0.089401	-0.332914
C28	C	0.822538	0.058672	-0.596483
C29	C	1.134721	-0.103590	-0.543753
C30	C	1.126579	-0.197405	-0.490012
C31	C	1.176288	-0.582770	-0.972054
C32	C	1.168628	-0.670918	-0.921509
C33	C	1.138022	-0.640176	-0.657984
C34	C	1.145684	-0.552024	-0.708509
C35	C	1.164816	-0.523329	-0.865545
C36	C	1.134212	-0.492583	-0.602000
C37	C	1.141869	-0.404439	-0.652519
C38	C	1.160998	-0.375736	-0.809547
C39	C	1.172473	-0.435185	-0.916064
C40	C	1.115074	-0.521279	-0.444961
C41	C	1.103602	-0.461838	-0.338452
C42	C	1.111265	-0.373694	-0.388974
C43	C	1.130394	-0.344990	-0.546002
C44	C	1.099790	-0.314245	-0.282457
C45	C	1.107446	-0.226100	-0.332976
C46	C	1.138050	-0.256846	-0.596521
C47	C	1.312567	0.035361	-0.710786
C48	C	1.418902	0.030987	-0.764561
C49	C	1.141353	0.206568	-0.710754
C50	C	1.149496	0.300382	-0.764504
N51	N	1.098089	0.091602	-0.283239
N52	N	1.177992	0.011369	-0.971265
C53	C	1.147745	0.041733	-0.210935
C54	C	1.128328	0.061246	-0.043565
H55	H	0.771768	0.004532	-1.043956
C56	C	1.193354	-0.403871	-1.086549
C57	C	1.197652	-0.313963	-1.108006
C58	C	1.216923	-0.285092	-1.265042
H59	H	1.143120	-0.414910	-1.108568
H60	H	1.253761	-0.434227	-1.156503
H61	H	1.137252	-0.283616	-1.038073
H62	H	1.247886	-0.302901	-1.086020
H63	H	1.277330	-0.315449	-1.334997
H64	H	1.166687	-0.296137	-1.287048
H65	H	1.219850	-0.224089	-1.279625
C66	C	1.253857	-0.064896	-0.053624
C67	C	1.295887	-0.107133	0.045537
C68	C	1.365768	-0.177397	-0.030270
H69	H	1.302753	-0.043813	-0.149921
H70	H	1.223845	-0.105002	-0.075990
H71	H	1.325900	-0.067034	0.067882
H72	H	1.247016	-0.128235	0.141834
H73	H	1.335755	-0.217503	-0.052636
H74	H	1.414657	-0.156306	-0.126565
H75	H	1.394287	-0.206068	0.037004
H76	H	0.875683	0.044492	-0.724360
H77	H	0.504298	0.098444	-0.210576
H78	H	1.071433	0.118388	0.018437
C79	C	1.106600	-0.616970	-0.390212
C80	C	1.030776	-0.640293	-0.409775
C81	C	1.022934	-0.728433	-0.359359
H82	H	1.093499	-0.625639	-0.281428
H83	H	1.165819	-0.652273	-0.451555
H84	H	0.971571	-0.605001	-0.348431
H85	H	1.043859	-0.631645	-0.518547
H86	H	1.082153	-0.763737	-0.420702
H87	H	1.009835	-0.737094	-0.250576
H88	H	0.971494	-0.744272	-0.372639
H89	H	1.204629	-0.015412	-0.272934
C90	C	0.414345	0.075575	-0.390367
C91	C	0.383756	0.141925	-0.481050
C92	C	0.283836	0.146242	-0.430799
H93	H	0.380353	0.087919	-0.281640
H94	H	0.401309	0.021149	-0.403523
H95	H	0.396783	0.196339	-0.467880
H96	H	0.417722	0.129597	-0.589780
H97	H	0.270800	0.091816	-0.443955
H98	H	0.249853	0.158584	-0.322071
H99	H	0.263071	0.191254	-0.492328
C100	C	0.861740	0.027424	-0.864217
C101	C	0.892392	-0.038927	-0.773612
C102	C	0.992316	-0.043207	-0.823945
H103	H	0.874786	0.081835	-0.851066
H104	H	0.895688	0.015102	-0.972978
H105	H	0.858456	-0.026600	-0.664878
H106	H	0.879372	-0.093349	-0.786752
H107	H	1.026264	-0.055529	-0.932706
H108	H	1.005352	0.011207	-0.810792
H109	H	1.013128	-0.088231	-0.762488
H110	H	1.088021	-0.485214	-0.210591
H111	H	1.041198	0.148740	-0.221231
C112	C	0.654794	-0.009384	-1.142692
C113	C	0.603082	-0.020154	-1.225195
C114	C	0.668187	-0.037518	-1.382346
H115	H	0.698459	-0.061347	-1.144002
H116	H	0.690363	0.038120	-1.192030
H117	H	0.567530	-0.067653	-1.175870
H118	H	0.559421	0.031800	-1.223930
H119	H	0.703755	0.009985	-1.431684
H120	H	0.711848	-0.089481	-1.383640
H121	H	0.633109	-0.044820	-1.438347
H122	H	0.455973	0.002733	-1.008330
H123	H	0.400382	0.058486	-0.530161
H124	H	0.638845	0.107674	-0.154549
H125	H	0.820105	0.100250	-0.246170
C126	C	1.197023	-0.551769	-1.142600
C127	C	1.205416	-0.622686	-1.225068
C128	C	1.224502	-0.594158	-1.382163
H129	H	1.255988	-0.527664	-1.192083
H130	H	1.145297	-0.508421	-1.143739
H131	H	1.257138	-0.666018	-1.223938
H132	H	1.146461	-0.646799	-1.175634
H133	H	1.172776	-0.550810	-1.383301
H134	H	1.283466	-0.570053	-1.431630
H135	H	1.230190	-0.642268	-1.438132
H136	H	1.153638	-0.233483	-0.724399
C137	C	1.181204	-0.735557	-1.037082
C138	C	1.259322	-0.801283	-1.051364
C139	C	1.270919	-0.860839	-1.157805
H140	H	1.193742	-0.705938	-1.137909
H141	H	1.123541	-0.761004	-0.998750
H142	H	1.316972	-0.775838	-1.089703
H143	H	1.246803	-0.830924	-0.950567
H144	H	1.213256	-0.886287	-1.119473
H145	H	1.283454	-0.831213	-1.258624
H146	H	1.323916	-0.905446	-1.167498
H147	H	1.167221	-0.303961	-0.850673
H148	H	1.122441	-0.663552	-0.530123
H149	H	1.098085	-0.177698	-0.246236
H150	H	1.084203	-0.337621	-0.154593
