data_functionalizedCrystal
_audit_creation_method	'MofGen! by Chris Wilmer'
_symmetry_space_group_name_H-M	'P1'
_symmetry_Int_Tables_number	1
_symmetry_cell_setting	triclinic
loop_
_symmetry_equiv_pos_as_xyz
  x,y,z
_cell_length_a	19.902436
_cell_length_b	14.809374
_cell_length_c	14.809374
_cell_angle_alpha	60.797835
_cell_angle_beta	90.002005
_cell_angle_gamma	67.423257
loop_
_atom_site_label
_atom_site_type_symbol
_atom_site_fract_x
_atom_site_fract_y
_atom_site_fract_z
Zr1	Zr	0.742195	0.955101	-0.203589
O2	O	0.659884	1.113033	-0.350758
O3	O	0.755774	0.777332	-0.145511
O4	O	0.783260	0.926476	-0.332048
O5	O	0.623973	0.993386	-0.031824
O6	O	0.893836	0.926461	-0.332035
O7	O	0.632399	0.963889	-0.164221
O8	O	0.844670	0.659670	0.001645
O9	O	0.673140	1.260177	-0.365504
O10	O	0.858167	0.857787	-0.136394
O11	O	0.769357	0.879811	-0.037597
O12	O	0.801718	1.055409	-0.257220
O13	O	0.712908	1.077433	-0.158423
Zr14	Zr	0.905114	1.002121	0.007589
Zr15	Zr	0.918552	0.955077	-0.203570
Zr16	Zr	0.728757	1.002145	0.007569
Zr17	Zr	0.763336	1.189779	-0.227108
Zr18	Zr	0.883972	0.767443	0.031107
O19	O	0.891534	1.179890	-0.050490
O20	O	0.910641	1.112999	-0.350730
O21	O	0.640778	1.179923	-0.050518
O22	O	0.987424	0.844189	0.154757
O23	O	1.006531	0.777298	-0.145483
O24	O	0.736667	0.844223	0.154729
O25	O	1.023335	0.963836	-0.164177
O26	O	0.864049	1.030746	0.136047
O27	O	0.753472	1.030761	0.136034
O28	O	1.014910	0.993333	-0.031780
O29	O	0.813320	1.260158	-0.365488
O30	O	0.833988	0.697064	0.169488
O31	O	0.974169	0.697045	0.169503
O32	O	0.984850	0.659651	0.001661
O33	O	0.662459	1.297571	-0.197662
O34	O	0.802639	1.297552	-0.197646
O35	O	0.845591	0.901813	0.061219
O36	O	0.934401	0.879789	-0.037578
O37	O	0.877952	1.077411	-0.158404
O38	O	0.789142	1.099435	-0.059607
C39	C	0.797210	0.685065	-0.068582
C40	C	0.788235	0.585438	-0.058598
C41	C	0.828289	0.530095	-0.103157
C42	C	0.819014	0.427125	-0.092838
C43	C	0.603059	0.978641	-0.098025
C44	C	0.528191	0.978651	-0.098034
C45	C	0.256181	0.978597	-0.097989
C46	C	0.249043	1.103328	-0.173910
C47	C	0.326911	1.103338	-0.174263
C48	C	0.391128	0.978625	-0.098011
C49	C	0.385410	0.899691	-0.136568
C50	C	0.307292	0.900475	-0.137116
C51	C	0.298258	0.931815	0.016616
C52	C	0.375424	0.934382	0.016190
C53	C	0.467396	0.978633	-0.098023
C54	C	0.179914	0.978584	-0.097982
C55	C	1.044250	0.978581	-0.097976
C56	C	1.119118	0.978571	-0.097967
C57	C	0.840463	0.919766	-0.362127
C58	C	0.846167	0.899795	-0.451769
C59	C	0.850099	1.272157	-0.127419
C60	C	0.859074	1.371784	-0.137403
C61	C	0.820708	0.988925	-0.551672
C62	C	0.826604	0.968285	-0.644324
C63	C	0.806846	1.037456	0.166126
C64	C	0.801141	1.057427	0.255768
C65	C	1.017805	0.685035	-0.068557
C66	C	1.083698	0.585398	-0.058564
C67	C	0.780401	0.743910	0.195545
C68	C	0.765721	0.664254	0.295171
C69	C	1.000997	0.743880	0.195569
C70	C	1.061185	0.664214	0.295204
C71	C	0.646312	1.213342	-0.391570
C72	C	0.586123	1.293008	-0.491205
C73	C	0.629503	1.272187	-0.127444
C74	C	0.563610	1.371824	-0.137437
C75	C	0.866907	1.213312	-0.391545
C76	C	0.881587	1.292968	-0.491172
C77	C	1.074850	0.527120	-0.105461
C78	C	1.136759	0.433509	-0.096093
C79	C	1.207515	0.398172	-0.039821
C80	C	1.216363	0.456460	0.007077
C81	C	1.154455	0.550074	-0.002299
C82	C	0.798621	0.638334	0.393546
C83	C	0.784825	0.563504	0.487163
C84	C	0.738134	0.514589	0.482402
C85	C	0.705231	0.540517	0.384016
C86	C	0.719023	0.615352	0.290401
C87	C	1.135815	0.615306	0.290423
C88	C	1.192377	0.540463	0.384031
C89	C	1.174307	0.514523	0.482420
C90	C	1.099669	0.563440	0.487199
C91	C	1.043109	0.638288	0.393591
C92	C	0.511494	1.341927	-0.486425
C93	C	0.454935	1.416799	-0.580036
C94	C	0.473006	1.442744	-0.678426
C95	C	0.547643	1.393821	-0.683204
C96	C	0.604201	1.318957	-0.589594
C97	C	0.572460	1.430109	-0.090549
C98	C	0.510555	1.523741	-0.099943
C99	C	0.439799	1.559081	-0.156219
C100	C	0.430950	1.500790	-0.203112
C101	C	0.492856	1.407165	-0.193724
C102	C	0.928281	1.341860	-0.486377
C103	C	0.942089	1.416694	-0.579977
C104	C	0.909197	1.442641	-0.678372
C105	C	0.862501	1.393740	-0.683164
C106	C	0.848698	1.318901	-0.589565
H107	H	0.777854	0.398277	-0.047045
Br108	Br	1.124733	0.354422	-0.159744
H109	H	1.257918	0.321943	-0.032194
Br110	Br	0.522581	1.602828	-0.036293
H111	H	0.774980	1.149022	-0.761179
H112	H	0.835723	1.414878	-0.763290
Br113	Br	1.005461	1.483050	-0.573449
H114	H	0.630067	1.401346	-0.044718
Br115	Br	0.340519	1.164434	-0.315527
H116	H	0.810672	1.279100	-0.593484
Br117	Br	0.889781	0.747136	-0.423523
H118	H	0.811624	0.542404	0.567263
Br119	Br	1.166477	0.629150	0.061362
Br120	Br	0.719637	0.537353	0.017732
Br121	Br	0.334918	1.548763	-0.279479
Br122	Br	0.927690	0.419841	-0.213711
Br123	Br	1.293663	0.474087	0.377521
H124	H	0.328595	1.164338	-0.149450
H125	H	0.496765	1.320808	-0.406319
Br126	Br	0.861994	0.704697	0.400037
Br127	Br	0.240360	1.019797	0.072503
H128	H	0.726910	0.453656	0.558637
Br129	Br	0.927936	1.544214	-0.805392
Br130	Br	0.705483	1.252567	-0.596101
Br131	Br	0.896897	0.578166	-0.179469
H132	H	0.389398	1.635318	-0.163855
H133	H	1.273981	0.427674	0.052892
Br134	Br	0.188709	1.205240	-0.132445
Br135	Br	0.199009	1.164253	-0.314346
H136	H	0.485639	1.359711	-0.231903
H137	H	0.692233	0.636443	0.210304
H138	H	0.955068	1.320748	-0.406268
Br139	Br	0.777110	1.141583	-0.579918
Br140	Br	1.251076	0.412941	0.609452
H141	H	0.562349	1.414955	-0.763324
H142	H	1.017243	0.555887	-0.151296
H143	H	0.280189	0.931745	-0.221133
H144	H	0.667215	0.500679	0.380156
H145	H	0.377406	0.992117	0.045117
H146	H	0.314792	0.808237	-0.084666
H147	H	1.150543	0.636413	0.210319
H148	H	0.426945	1.503705	-0.754641
Br149	Br	0.403481	0.950234	-0.275163
Br150	Br	0.460235	0.745796	-0.047860
Br151	Br	1.075157	0.528225	0.620737
Br152	Br	0.870219	0.815620	-0.616070
H153	H	0.394166	1.456621	-0.576125
Br154	Br	0.450678	0.784426	0.116602
H155	H	0.982342	0.678100	0.397499
H156	H	0.306025	0.840098	0.073285
