data_functionalizedCrystal
_audit_creation_method	'MofGen! by Chris Wilmer'
_symmetry_space_group_name_H-M	'P1'
_symmetry_Int_Tables_number	1
_symmetry_cell_setting	triclinic
loop_
_symmetry_equiv_pos_as_xyz
  x,y,z
_cell_length_a	6.817900
_cell_length_b	11.102288
_cell_length_c	11.102228
_cell_angle_alpha	91.948013
_cell_angle_beta	108.604565
_cell_angle_gamma	108.605689
loop_
_atom_site_label
_atom_site_type_symbol
_atom_site_fract_x
_atom_site_fract_y
_atom_site_fract_z
V1	V	-4.111517	-0.175842	-0.396257
O2	O	-4.070550	0.008447	-0.388713
O3	O	-4.088294	-0.348662	-0.393547
O4	O	-4.088292	-0.173138	-0.569078
O5	O	-4.070552	-0.168292	-0.211967
V6	V	-4.588620	-0.153799	-0.374214
O7	O	-4.386857	-0.224195	-0.444609
O8	O	-4.763477	-0.105445	-0.325862
O9	O	-4.388636	0.019022	-0.376924
O10	O	-4.746984	-0.338088	-0.381757
O11	O	-4.746982	-0.161349	-0.558503
O12	O	-4.388639	-0.156502	-0.201393
C13	C	-3.938605	-0.390792	-0.387296
C14	C	-4.001072	-0.532075	-0.386232
C15	C	-3.938601	-0.166892	-0.611201
C16	C	-4.001062	-0.165825	-0.752483
C17	C	-4.214427	-0.604923	-0.392073
C18	C	-4.273115	-0.737674	-0.391083
C19	C	-3.905069	-0.724716	-0.378406
C20	C	-3.846389	-0.591969	-0.379405
C21	C	-4.090571	-0.281709	-0.837008
C22	C	-4.149272	-0.280704	-0.969758
C23	C	-4.028936	-0.047920	-0.933444
C24	C	-3.970251	-0.048927	-0.800698
C25	C	-4.201668	0.061145	-0.383172
C26	C	-4.118440	0.202426	-0.384244
C27	C	-4.201671	-0.162752	-0.159263
C28	C	-4.118447	-0.163813	-0.017979
H29	H	-4.340383	-0.556161	-0.397630
C30	C	-4.246312	-0.406654	-1.061315
C31	C	-4.260678	-0.509234	-0.990670
C32	C	-4.350039	-0.625283	-1.074968
H33	H	-4.389496	-0.415346	-1.118025
H34	H	-4.153965	-0.407107	-1.109698
H35	H	-4.353025	-0.508784	-0.942309
H36	H	-4.117524	-0.500585	-0.933964
H37	H	-4.257691	-0.625735	-1.123351
H38	H	-4.493217	-0.633961	-1.131674
H39	H	-4.359779	-0.694896	-1.027047
C40	C	-3.614896	-0.512839	-0.373324
C41	C	-3.627247	-0.453405	-0.483390
C42	C	-3.414051	-0.380514	-0.477844
H43	H	-3.545673	-0.449077	-0.299074
H44	H	-3.531126	-0.567485	-0.369172
H45	H	-3.710983	-0.398763	-0.487529
H46	H	-3.696429	-0.517137	-0.557656
H47	H	-3.330281	-0.435160	-0.473693
H48	H	-3.344846	-0.316759	-0.403591
H49	H	-3.422401	-0.340189	-0.552527
C50	C	-4.504573	-0.816884	-0.397201
C51	C	-4.492203	-0.876367	-0.287163
C52	C	-4.705382	-0.949355	-0.292758
H53	H	-4.588472	-0.762333	-0.401345
H54	H	-4.573663	-0.880618	-0.471492
H55	H	-4.423145	-0.812641	-0.212891
H56	H	-4.408345	-0.930940	-0.282997
H57	H	-4.774472	-1.013089	-0.367050
H58	H	-4.789264	-0.894794	-0.296905
H59	H	-4.697017	-0.989732	-0.218106
C60	C	-4.123770	-0.408487	-0.784406
C61	C	-4.053166	-0.384571	-0.650058
C62	C	-4.083699	-0.501330	-0.601561
H63	H	-4.275783	-0.460296	-0.817623
H64	H	-4.040320	-0.452097	-0.809409
H65	H	-4.136619	-0.340980	-0.625067
H66	H	-3.901156	-0.332781	-0.616807
H67	H	-4.000249	-0.544940	-0.626565
H68	H	-4.235713	-0.553130	-0.634787
H69	H	-4.035781	-0.485118	-0.510402
C70	C	-3.995533	0.078864	-0.986041
C71	C	-4.066023	0.054948	-1.120384
C72	C	-4.035249	0.171714	-1.168876
H73	H	-4.078900	0.122562	-0.961106
H74	H	-3.843450	0.130591	-0.952752
H75	H	-4.218079	0.003242	-1.153661
H76	H	-3.982672	0.011269	-1.145354
H77	H	-3.883166	0.223442	-1.135587
H78	H	-4.118617	0.215404	-1.143932
H79	H	-4.083052	0.155504	-1.260031
C80	C	-3.872989	0.077037	-0.709121
C81	C	-3.858494	0.179629	-0.779752
C82	C	-3.768892	0.295680	-0.695436
H83	H	-3.965192	0.077602	-0.660690
H84	H	-3.729804	0.085611	-0.652455
H85	H	-4.001656	0.171057	-0.836396
H86	H	-3.766279	0.179106	-0.828180
H87	H	-3.625708	0.304254	-0.638770
H88	H	-3.861105	0.296232	-0.647009
H89	H	-3.759027	0.365303	-0.743345
H90	H	-3.779139	-0.773498	-0.372845
