data_functionalizedCrystal
_audit_creation_method	'MofGen! by Chris Wilmer'
_symmetry_space_group_name_H-M	'P1'
_symmetry_Int_Tables_number	1
_symmetry_cell_setting	triclinic
loop_
_symmetry_equiv_pos_as_xyz
  x,y,z
_cell_length_a	10.723022
_cell_length_b	10.723024
_cell_length_c	7.681215
_cell_angle_alpha	96.377201
_cell_angle_beta	96.379557
_cell_angle_gamma	84.467548
loop_
_atom_site_label
_atom_site_type_symbol
_atom_site_fract_x
_atom_site_fract_y
_atom_site_fract_z
O1	O	1.667812	0.185637	0.146419
O2	O	1.304660	0.202393	0.146424
O3	O	1.494612	0.012438	0.146415
O4	O	1.477860	0.375592	0.146428
O5	O	1.473348	-0.008809	-0.146455
O6	O	1.283396	0.181146	-0.146446
O7	O	1.646548	0.164390	-0.146452
Zn8	Zn	1.461596	0.169395	-0.192948
Zn9	Zn	1.489612	0.197388	0.192921
O10	O	1.456596	0.354345	-0.146442
C11	C	1.247528	0.190551	-0.000010
C12	C	1.108974	0.186904	-0.000008
C13	C	1.482761	-0.044685	-0.000018
C14	C	1.479114	-0.183238	-0.000012
C15	C	1.060413	0.077364	-0.000011
C16	C	0.917210	0.073592	-0.000009
C17	C	1.585402	-0.258222	-0.000011
C18	C	1.581635	-0.401424	-0.000005
C19	C	1.703680	0.176233	-0.000013
C20	C	1.842235	0.179880	-0.000004
C21	C	1.468447	0.411468	-0.000005
C22	C	1.472095	0.550023	0.000000
N23	N	1.442484	0.150289	-0.456294
N24	N	1.508734	0.216484	0.456267
H25	H	0.875401	-0.020192	0.000033
H26	H	0.884038	0.273672	-0.000011
C27	C	1.598774	0.306771	-0.443643
C28	C	1.562297	0.428998	-0.488401
C29	C	1.645219	0.512198	-0.396253
H30	H	1.596747	0.304857	-0.320656
H31	H	1.681799	0.282220	-0.473792
H32	H	1.479293	0.453542	-0.458241
H33	H	1.564330	0.430952	-0.611373
H34	H	1.728244	0.487648	-0.426401
H35	H	1.643186	0.510274	-0.273270
H36	H	1.620488	0.595137	-0.426620
C37	C	1.022933	0.308160	0.000275
C38	C	0.958305	0.323644	0.150932
C39	C	0.879024	0.435325	0.151241
H40	H	1.071820	0.377481	0.000367
H41	H	0.964085	0.304081	-0.101800
H42	H	1.017145	0.327733	0.252980
H43	H	0.909394	0.254351	0.150872
H44	H	0.820177	0.431246	0.049166
H45	H	0.927921	0.504638	0.151328
H46	H	0.835156	0.445840	0.253451
H47	H	1.124856	-0.013625	-0.000006
H48	H	1.672625	-0.465858	-0.000012
C49	C	1.710524	-0.202512	0.000355
C50	C	1.789169	-0.231520	0.151055
C51	C	1.904438	-0.180209	0.151468
H52	H	1.749400	-0.236866	-0.101654
H53	H	1.696491	-0.113660	0.000450
H54	H	1.803205	-0.320353	0.150944
H55	H	1.750334	-0.197165	0.253089
H56	H	1.890405	-0.091357	0.151564
H57	H	1.943302	-0.214567	0.049453
H58	H	1.957808	-0.199873	0.253724
C59	C	1.350822	-0.363994	0.000365
C60	C	1.357179	-0.277529	0.151058
C61	C	1.245480	-0.198303	0.151467
H62	H	1.339975	-0.319921	-0.101649
H63	H	1.281582	-0.412982	0.000465
H64	H	1.426399	-0.228547	0.150942
H65	H	1.368007	-0.321567	0.253096
H66	H	1.176240	-0.247291	0.151568
H67	H	1.234642	-0.154239	0.049447
H68	H	1.249774	-0.139636	0.253718
H69	H	1.385329	-0.225059	0.000001
H70	H	1.374893	0.082725	-0.531533
