data_functionalizedCrystal
_audit_creation_method	'MofGen! by Chris Wilmer'
_symmetry_space_group_name_H-M	'P1'
_symmetry_Int_Tables_number	1
_symmetry_cell_setting	triclinic
loop_
_symmetry_equiv_pos_as_xyz
  x,y,z
_cell_length_a	17.699104
_cell_length_b	16.053802
_cell_length_c	17.699104
_cell_angle_alpha	87.440421
_cell_angle_beta	96.708483
_cell_angle_gamma	87.422075
loop_
_atom_site_label
_atom_site_type_symbol
_atom_site_fract_x
_atom_site_fract_y
_atom_site_fract_z
O1	O	-1.007273	0.069464	0.092591
O2	O	-0.673940	0.402797	0.425925
O3	O	-0.340607	0.736131	0.759258
O4	O	-0.786898	0.069459	0.105028
O5	O	-0.453564	0.402792	0.438361
O6	O	-0.120231	0.736125	0.771694
O7	O	-0.903303	0.069454	-0.011378
O8	O	-0.569970	0.402787	0.321956
O9	O	-0.236636	0.736121	0.655289
O10	O	-0.890868	0.069469	0.208997
O11	O	-0.557535	0.402802	0.542330
O12	O	-0.224201	0.736135	0.875663
O13	O	-0.896896	-0.069405	-0.004997
O14	O	-0.563562	0.263929	0.328336
O15	O	-0.230229	0.597262	0.661670
O16	O	-0.780490	-0.069400	0.111408
O17	O	-0.447157	0.263933	0.444742
O18	O	-0.113824	0.597267	0.778075
O19	O	-1.000866	-0.069395	0.098972
O20	O	-0.667533	0.263939	0.432306
O21	O	-0.334199	0.597272	0.765639
Zn22	Zn	-0.889661	-0.091444	0.106204
Zn23	Zn	-0.556328	0.241889	0.439537
Zn24	Zn	-0.222994	0.575223	0.772870
Zn25	Zn	-0.898103	0.091508	0.097796
Zn26	Zn	-0.564769	0.424842	0.431130
Zn27	Zn	-0.231436	0.758175	0.764463
O28	O	-0.884461	-0.069390	0.215378
O29	O	-0.551127	0.263943	0.548711
O30	O	-0.217794	0.597277	0.882044
C31	C	-0.755497	0.000029	0.107770
C32	C	-0.422164	0.333362	0.441103
C33	C	-0.088831	0.666695	0.774436
C34	C	-0.671480	0.000026	0.106425
C35	C	-0.338146	0.333360	0.439758
C36	C	-0.004813	0.666693	0.773092
N37	N	-0.883905	-0.216304	0.111941
N38	N	-0.550572	0.117029	0.445274
N39	N	-0.217239	0.450362	0.778607
C40	C	-0.146614	0.000031	0.167168
C41	C	0.186720	0.333364	0.500501
C42	C	0.520053	0.666697	0.833835
C43	C	-0.225558	0.000034	0.168427
C44	C	0.107776	0.333368	0.501760
C45	C	0.441109	0.666701	0.835094
C46	C	-0.274170	0.000030	0.100093
C47	C	0.059164	0.333364	0.433426
C48	C	0.392497	0.666697	0.766759
C49	C	-0.243835	0.000031	0.030494
C50	C	0.089498	0.333365	0.363828
C51	C	0.422832	0.666698	0.697161
C52	C	-0.164893	0.000033	0.029236
C53	C	0.168441	0.333367	0.362569
C54	C	0.501774	0.666700	0.695903
C55	C	-0.562201	0.000023	0.035568
C56	C	-0.228868	0.333357	0.368901
C57	C	0.104466	0.666690	0.702234
C58	C	-0.641148	0.000019	0.036832
C59	C	-0.307815	0.333352	0.370165
C60	C	0.025519	0.666685	0.703498
C61	C	-0.622866	0.000024	0.174759
C62	C	-0.289533	0.333358	0.508092
C63	C	0.043801	0.666691	0.841425
C64	C	-0.543924	0.000027	0.173500
C65	C	-0.210590	0.333360	0.506834
C66	C	0.122743	0.666693	0.840167
C67	C	-0.513596	0.000032	0.103903
C68	C	-0.180262	0.333365	0.437236
C69	C	0.153071	0.666698	0.770569
C70	C	-0.427996	0.000029	0.102538
C71	C	-0.094662	0.333363	0.435872
C72	C	0.238671	0.666696	0.769205
C73	C	-0.359768	0.000027	0.101456
C74	C	-0.026435	0.333360	0.434790
C75	C	0.306898	0.666694	0.768123
C76	C	-0.933454	-0.260000	0.062428
C77	C	-0.600121	0.073333	0.395761
C78	C	-0.266787	0.406667	0.729094
C79	C	-0.929435	-0.347407	0.066448
C80	C	-0.596101	-0.014073	0.399781
C81	C	-0.262768	0.319260	0.733115
C82	C	-0.875870	-0.391116	0.119986
C83	C	-0.542537	-0.057782	0.453319
C84	C	-0.209203	0.275551	0.786652
C85	C	-0.826316	-0.347414	0.169501
C86	C	-0.492983	-0.014080	0.502834
C87	C	-0.159649	0.319253	0.836168
C88	C	-0.830332	-0.260009	0.165476
C89	C	-0.496999	0.073325	0.498810
C90	C	-0.163665	0.406658	0.832143
C91	C	-0.858327	-0.652525	0.137544
C92	C	-0.524993	-0.319191	0.470877
C93	C	-0.191660	0.014142	0.804211
C94	C	-0.854316	-0.739936	0.141566
C95	C	-0.520983	-0.406603	0.474900
C96	C	-0.187649	-0.073269	0.808233
C97	C	-0.957434	-0.739923	0.038512
C98	C	-0.624101	-0.406589	0.371845
C99	C	-0.290767	-0.073256	0.705179
C100	C	-0.961449	-0.652516	0.034495
C101	C	-0.628115	-0.319183	0.367828
C102	C	-0.294782	0.014151	0.701162
C103	C	-0.911892	-0.608822	0.084008
C104	C	-0.578559	-0.275488	0.417341
C105	C	-0.245225	0.057845	0.750674
N106	N	-0.871762	-0.480459	0.124098
N107	N	-0.538429	-0.147126	0.457431
N108	N	-0.205095	0.186207	0.790765
N109	N	-0.915997	-0.519480	0.079891
N110	N	-0.582664	-0.186146	0.413225
N111	N	-0.249330	0.147187	0.746558
C112	C	-0.032266	0.000033	0.096230
C113	C	0.301067	0.333367	0.429564
C114	C	0.634400	0.666700	0.762897
C115	C	-0.116283	0.000029	0.097575
C116	C	0.217050	0.333362	0.430909
C117	C	0.550383	0.666696	0.764242
C118	C	-0.899651	0.000025	-0.036384
C119	C	-0.566318	0.333358	0.296949
C120	C	-0.232984	0.666691	0.630283
C121	C	-0.898306	0.000024	-0.120401
C122	C	-0.564973	0.333357	0.212932
C123	C	-0.231640	0.666691	0.546265
N124	N	-0.903865	0.216368	0.092053
N125	N	-0.570531	0.549702	0.425387
N126	N	-0.237198	0.883035	0.758720
C127	C	-0.959051	0.000049	-0.645269
C128	C	-0.625717	0.333383	-0.311936
C129	C	-0.292384	0.666716	0.021398
C130	C	-0.960309	0.000042	-0.566325
C131	C	-0.626976	0.333375	-0.232991
C132	C	-0.293643	0.666709	0.100342
C133	C	-0.891975	0.000038	-0.517712
C134	C	-0.558641	0.333372	-0.184379
C135	C	-0.225308	0.666705	0.148954
C136	C	-0.822376	0.000034	-0.548047
C137	C	-0.489043	0.333367	-0.214714
C138	C	-0.155710	0.666700	0.118620
C139	C	-0.821118	0.000035	-0.626990
C140	C	-0.487785	0.333369	-0.293656
C141	C	-0.154451	0.666702	0.039677
C142	C	-0.827449	0.000027	-0.229680
C143	C	-0.494116	0.333360	0.103653
C144	C	-0.160782	0.666694	0.436986
C145	C	-0.828713	0.000028	-0.150733
C146	C	-0.495379	0.333361	0.182600
C147	C	-0.162046	0.666695	0.515934
C148	C	-0.966640	0.000034	-0.169016
C149	C	-0.633307	0.333367	0.164318
C150	C	-0.299974	0.666700	0.497651
C151	C	-0.965382	0.000035	-0.247958
C152	C	-0.632049	0.333368	0.085375
C153	C	-0.298715	0.666702	0.418709
C154	C	-0.895784	0.000026	-0.278286
C155	C	-0.562451	0.333359	0.055048
C156	C	-0.229117	0.666693	0.388381
C157	C	-0.894420	0.000033	-0.363886
C158	C	-0.561087	0.333366	-0.030553
C159	C	-0.227753	0.666699	0.302781
C160	C	-0.893338	0.000038	-0.432114
C161	C	-0.560005	0.333371	-0.098780
C162	C	-0.226672	0.666705	0.234553
C163	C	-0.888113	0.000041	0.240384
C164	C	-0.554779	0.333375	0.573717
C165	C	-0.221446	0.666708	0.907051
C166	C	-0.889458	0.000047	0.324401
C167	C	-0.556124	0.333381	0.657734
C168	C	-0.222791	0.666714	0.991068
H169	H	-0.107038	0.000028	0.222814
H170	H	0.226295	0.333361	0.556148
H171	H	0.559629	0.666694	0.889481
F172	F	-0.257833	0.000040	0.242497
F173	F	0.075500	0.333374	0.575830
F174	F	0.408833	0.666707	0.909164
H175	H	-0.997780	-0.775507	-0.001800
H176	H	-0.664447	-0.442173	0.331534
H177	H	-0.331113	-0.108840	0.664867
H178	H	-1.021028	0.000042	-0.287536
H179	H	-0.687694	0.333376	0.045798
H180	H	-0.354361	0.666709	0.379131
H181	H	-0.504346	0.000026	0.229146
H182	H	-0.171013	0.333359	0.562479
H183	H	0.162320	0.666692	0.895812
F184	F	-0.132614	0.000032	-0.044834
F185	F	0.200720	0.333365	0.288499
F186	F	0.534053	0.666698	0.621833
F187	F	-0.755978	0.000023	-0.098996
F188	F	-0.422645	0.333357	0.234337
F189	F	-0.089311	0.666690	0.567670
F190	F	-0.295574	0.000030	-0.042233
F191	F	0.037759	0.333363	0.291101
F192	F	0.371093	0.666696	0.624434
F193	F	-0.692884	0.000015	-0.035903
F194	F	-0.359551	0.333349	0.297430
F195	F	-0.026218	0.666682	0.630764
F196	F	-0.797302	-0.786449	0.198553
F197	F	-0.463969	-0.453116	0.531887
F198	F	-0.130635	-0.119782	0.865220
H199	H	-0.537518	0.000025	-0.021103
H200	H	-0.204185	0.333359	0.312231
H201	H	0.129149	0.666692	0.645564
F202	F	-1.031784	0.000059	-0.697000
F203	F	-0.698450	0.333393	-0.363667
F204	F	-0.365117	0.666726	-0.030333
H205	H	-0.817977	-0.616956	0.177860
H206	H	-0.484644	-0.283622	0.511194
H207	H	-0.151310	0.049711	0.844527
F208	F	-0.990469	-0.213490	0.005448
F209	F	-0.657136	0.119844	0.338782
F210	F	-0.323802	0.453177	0.672115
F211	F	-0.753377	0.000023	-0.261947
F212	F	-0.420044	0.333357	0.071386
F213	F	-0.086710	0.666690	0.404719
F214	F	-0.655149	0.000024	0.248832
F215	F	-0.321816	0.333357	0.582165
F216	F	0.011517	0.666691	0.915498
F217	F	-0.749649	0.000026	-0.496308
F218	F	-0.416316	0.333359	-0.162974
F219	F	-0.082982	0.666693	0.170359
F220	F	-0.982169	-0.393911	0.013750
F221	F	-0.648836	-0.060578	0.347083
F222	F	-0.315502	0.272755	0.680417
H223	H	-1.005065	-0.616930	-0.009099
H224	H	-0.671732	-0.283596	0.324234
H225	H	-0.338399	0.049737	0.657567
F226	F	-0.747048	0.000029	-0.659268
F227	F	-0.413714	0.333362	-0.325935
F228	F	-0.080381	0.666696	0.007399
F229	F	-1.040714	0.000040	-0.136733
F230	F	-0.707380	0.333373	0.196601
F231	F	-0.374047	0.666706	0.529934
F232	F	-0.769304	-0.393933	0.226477
F233	F	-0.435970	-0.060600	0.559810
F234	F	-0.102637	0.272734	0.893144
F235	F	-1.034380	0.000061	-0.534050
F236	F	-0.701047	0.333394	-0.200717
F237	F	-0.367714	0.666727	0.132617
H238	H	-0.789983	-0.224432	0.205794
H239	H	-0.456650	0.108901	0.539128
H240	H	-0.123317	0.442234	0.872461
