data_functionalizedCrystal
_audit_creation_method	'MofGen! by Chris Wilmer'
_symmetry_space_group_name_H-M	'P1'
_symmetry_Int_Tables_number	1
_symmetry_cell_setting	triclinic
loop_
_symmetry_equiv_pos_as_xyz
  x,y,z
_cell_length_a	10.489711
_cell_length_b	10.489741
_cell_length_c	13.596369
_cell_angle_alpha	89.994306
_cell_angle_beta	89.993154
_cell_angle_gamma	84.533091
loop_
_atom_site_label
_atom_site_type_symbol
_atom_site_fract_x
_atom_site_fract_y
_atom_site_fract_z
O1	O	1.694077	0.179789	-0.081826
O2	O	1.322877	0.196722	-0.081821
O3	O	1.516923	0.002657	-0.081818
O4	O	1.500030	0.373854	-0.081829
O5	O	1.516904	0.002646	0.081765
O6	O	1.322857	0.196711	0.081762
O7	O	1.694057	0.179779	0.081756
Zn8	Zn	1.508454	0.188243	0.107732
Zn9	Zn	1.508480	0.188257	-0.107796
O10	O	1.500011	0.373844	0.081754
C11	C	1.275334	0.195446	-0.000028
C12	C	1.133703	0.191644	-0.000026
C13	C	1.515638	-0.044880	-0.000027
C14	C	1.511820	-0.186509	-0.000029
C15	C	0.951317	0.308348	-0.000041
C16	C	1.043472	0.250058	-0.080692
C17	C	1.043426	0.250016	0.080587
C18	C	0.973521	0.126515	-0.080765
C19	C	0.973465	0.126491	0.080587
C20	C	1.065593	0.068111	-0.000084
C21	C	1.388354	-0.254636	-0.000034
C22	C	1.446669	-0.346770	0.080620
C23	C	1.446717	-0.346734	-0.080660
C24	C	1.570186	-0.276778	0.080692
C25	C	1.570217	-0.276732	-0.080660
C26	C	1.628622	-0.368839	0.000013
C27	C	1.741600	0.181055	-0.000038
C28	C	1.883231	0.184857	-0.000047
C29	C	1.501296	0.421381	-0.000039
C30	C	1.505114	0.563010	-0.000044
N31	N	1.508446	0.188233	0.254824
N32	N	1.508498	0.188257	-0.254888
C33	C	1.508478	0.188259	0.656115
C34	C	1.508465	0.188256	0.544463
C35	C	1.508463	0.188247	0.455473
C36	C	1.508449	0.188242	0.343814
H37	H	1.074475	0.302318	-0.148878
H38	H	1.394469	-0.377688	-0.148853
H39	H	0.942720	0.074316	-0.149030
H40	H	1.074373	0.302285	0.148773
O41	O	1.124556	-0.053106	-0.000301
C42	C	1.088879	-0.117720	-0.085437
H43	H	1.056264	-0.044795	-0.144609
H44	H	1.174397	-0.182732	-0.113581
H45	H	1.007131	-0.177881	-0.066965
O46	O	0.891966	0.429408	0.000038
C47	C	0.815683	0.448047	0.085158
H48	H	0.853270	0.377299	0.144417
H49	H	0.819667	0.550019	0.113172
H50	H	0.712431	0.431895	0.066717
O51	O	0.936471	0.064385	0.162037
C52	C	0.971734	0.129797	0.246911
H53	H	0.982914	0.233897	0.227585
H54	H	0.894364	0.125944	0.305437
H55	H	1.066434	0.082445	0.276342
O56	O	1.267232	-0.195438	0.000233
C57	C	1.202593	-0.230949	0.085422
H58	H	1.275508	-0.263688	0.144563
H59	H	1.137762	-0.145307	0.113572
H60	H	1.142241	-0.312565	0.067019
O61	O	1.749820	-0.427847	-0.000132
C62	C	1.768605	-0.504108	-0.085242
H63	H	1.697700	-0.466741	-0.144457
H64	H	1.870506	-0.499808	-0.113337
H65	H	1.752801	-0.607438	-0.066755
O66	O	1.384219	-0.383914	0.161865
C67	C	1.277283	-0.446701	0.132914
H68	H	1.292975	-0.485870	0.055199
H69	H	1.264631	-0.529029	0.185669
H70	H	1.187773	-0.375977	0.134463
O71	O	1.632567	-0.239881	0.162030
C72	C	1.740240	-0.178112	0.133250
H73	H	1.725263	-0.139131	0.055414
H74	H	1.753287	-0.095758	0.185875
H75	H	1.829237	-0.249494	0.135190
H76	H	1.622422	-0.245689	-0.148853
