data_functionalizedCrystal
_audit_creation_method	'MofGen! by Chris Wilmer'
_symmetry_space_group_name_H-M	'P1'
_symmetry_Int_Tables_number	1
_symmetry_cell_setting	triclinic
loop_
_symmetry_equiv_pos_as_xyz
  x,y,z
_cell_length_a	11.169417
_cell_length_b	25.639240
_cell_length_c	11.169409
_cell_angle_alpha	90.046464
_cell_angle_beta	90.019824
_cell_angle_gamma	90.033637
loop_
_atom_site_label
_atom_site_type_symbol
_atom_site_fract_x
_atom_site_fract_y
_atom_site_fract_z
Zn1	Zn	1.834775	-0.208096	0.678425
Zn2	Zn	2.334775	0.291904	1.178425
Zn3	Zn	1.834586	-0.295546	0.477692
Zn4	Zn	2.334586	0.204454	0.977692
Zn5	Zn	1.634061	-0.208128	0.477759
Zn6	Zn	2.134061	0.291872	0.977759
Zn7	Zn	1.633990	-0.295504	0.678337
Zn8	Zn	2.133990	0.204496	1.178337
O9	O	1.734353	-0.251819	0.578053
O10	O	2.234353	0.248181	1.078053
O11	O	2.002700	-0.219701	0.651806
O12	O	2.502700	0.280299	1.151806
O13	O	1.807937	-0.283981	0.309751
O14	O	2.307937	0.216019	0.809751
O15	O	1.660795	-0.134959	0.504443
O16	O	2.160795	0.365041	1.004443
O17	O	2.002561	-0.283950	0.504329
O18	O	2.502561	0.216050	1.004329
O19	O	1.808259	-0.134935	0.651871
O20	O	2.308259	0.365065	1.151871
O21	O	1.660612	-0.219755	0.309801
O22	O	2.160612	0.280245	0.809801
O23	O	1.466102	-0.219714	0.504358
O24	O	1.966102	0.280286	1.004358
O25	O	1.660674	-0.283878	0.846299
O26	O	2.160674	0.216122	1.346299
O27	O	1.466050	-0.283909	0.651721
O28	O	1.966050	0.216091	1.151721
O29	O	1.808190	-0.219660	0.846363
O30	O	2.308190	0.280340	1.346363
O31	O	1.807868	-0.368706	0.504244
O32	O	2.307868	0.131294	1.004244
O33	O	1.660491	-0.368675	0.651656
O34	O	2.160491	0.131325	1.151656
C35	C	1.422529	-0.251811	0.578038
C36	C	1.922529	0.248189	1.078038
C37	C	1.289129	-0.251820	0.578060
C38	C	1.789129	0.248180	1.078060
C39	C	1.734184	-0.387661	0.577959
C40	C	2.234184	0.112339	1.077959
C41	C	1.734221	-0.445775	0.577959
C42	C	2.234221	0.054225	1.077959
C43	C	1.811176	-0.806088	0.654958
C44	C	2.311176	-0.306088	1.154958
C45	C	1.811211	-0.860692	0.654982
C46	C	2.311211	-0.360692	1.154982
O47	O	1.876439	-0.888886	0.720352
O48	O	2.376439	-0.388886	1.220352
N49	N	1.734520	-0.888058	0.578169
N50	N	2.234520	-0.388058	1.078169
C51	C	1.657779	-0.860816	0.501336
C52	C	2.157779	-0.360816	1.001336
O53	O	1.592550	-0.889107	0.436004
O54	O	2.092550	-0.389107	0.936004
C55	C	1.657739	-0.806213	0.501318
C56	C	2.157739	-0.306213	1.001318
C57	C	1.734444	-0.778850	0.578128
C58	C	2.234444	-0.278850	1.078128
C59	C	1.887874	-0.778725	0.731762
C60	C	2.387874	-0.278725	1.231762
C61	C	1.887839	-0.724124	0.731735
C62	C	2.387839	-0.224124	1.231735
C63	C	1.811108	-0.696887	0.654905
C64	C	2.311108	-0.196887	1.154905
C65	C	1.734410	-0.724249	0.578101
C66	C	2.234410	-0.224249	1.078101
C67	C	1.580993	-0.778973	0.424492
C68	C	2.080993	-0.278973	0.924492
C69	C	1.580959	-0.724366	0.424482
C70	C	2.080959	-0.224366	0.924482
C71	C	1.657664	-0.697003	0.501291
C72	C	2.157664	-0.197003	1.001291
C73	C	1.657644	-0.642411	0.501245
C74	C	2.157644	-0.142411	1.001245
N75	N	1.734335	-0.615046	0.578058
N76	N	2.234335	-0.115046	1.078058
C77	C	1.811067	-0.642283	0.654888
C78	C	2.311067	-0.142283	1.154888
C79	C	1.657869	-0.975487	0.501380
C80	C	2.157869	-0.475487	1.001380
C81	C	1.657915	-1.030089	0.501390
C82	C	2.157915	-0.530089	1.001390
C83	C	1.811345	-1.029961	0.655038
C84	C	2.311345	-0.529961	1.155038
C85	C	1.811305	-0.975358	0.655021
C86	C	2.311305	-0.475358	1.155021
C87	C	1.734560	-0.948121	0.578193
C88	C	2.234560	-0.448121	1.078193
C89	C	1.810990	-0.527618	0.654826
C90	C	2.310990	-0.027618	1.154826
C91	C	1.810953	-0.473013	0.654789
C92	C	2.310953	0.026987	1.154789
C93	C	1.657518	-0.473146	0.501146
C94	C	2.157518	0.026854	1.001146
C95	C	1.657560	-0.527746	0.501178
C96	C	2.157560	-0.027746	1.001178
C97	C	1.734300	-0.554981	0.578028
C98	C	2.234300	-0.054981	1.078028
O99	O	1.592445	-0.614183	0.435912
O100	O	2.092445	-0.114183	0.935912
O101	O	1.876274	-0.613986	0.720220
O102	O	2.376274	-0.113986	1.220220
C103	C	2.047396	-0.251827	0.578070
C104	C	2.547396	0.248173	1.078070
C105	C	2.180796	-0.251831	0.578077
C106	C	2.680796	0.248169	1.078077
C107	C	1.734445	-0.251761	0.891096
C108	C	2.234445	0.248239	1.391096
C109	C	1.734485	-0.251736	1.024496
C110	C	2.234485	0.248264	1.524496
C111	C	1.734556	-0.115446	0.578174
C112	C	2.234556	0.384554	1.078174
C113	C	1.734643	-0.057331	0.578225
C114	C	2.234643	0.442669	1.078225
C115	C	1.734330	-0.251839	0.266229
C116	C	2.234330	0.248161	0.766229
C117	C	1.734524	-0.251716	0.132829
C118	C	2.234524	0.248284	0.632829
H119	H	1.873419	-0.450736	0.717337
H120	H	2.373419	0.049264	1.217337
F121	F	1.575860	-0.444148	0.419381
F122	F	2.075860	0.055852	0.919381
H123	H	1.595110	-0.550026	0.438624
H124	H	2.095110	-0.050026	0.938624
H125	H	1.873471	-0.549786	0.717413
H126	H	2.373471	-0.049786	1.217413
H127	H	1.595378	-0.953313	0.438807
H128	H	2.095378	-0.453313	0.938807
F129	F	1.969473	-0.695009	0.813494
F130	F	2.469473	-0.195009	1.313494
F131	F	1.893010	-1.058959	0.736810
F132	F	2.393010	-0.558959	1.236810
H133	H	1.595467	-1.052363	0.438832
H134	H	2.095467	-0.552363	0.938832
F135	F	1.499349	-0.808083	0.342743
F136	F	1.999349	-0.308083	0.842743
F137	F	1.969545	-0.807705	0.813547
F138	F	2.469545	-0.307705	1.313547
F139	F	1.499274	-0.695382	0.342708
F140	F	1.999274	-0.195382	0.842708
F141	F	1.892942	-0.946241	0.736772
F142	F	2.392942	-0.446241	1.236772
