data_functionalizedCrystal
_audit_creation_method	'MofGen! by Chris Wilmer'
_symmetry_space_group_name_H-M	'P1'
_symmetry_Int_Tables_number	1
_symmetry_cell_setting	triclinic
loop_
_symmetry_equiv_pos_as_xyz
  x,y,z
_cell_length_a	12.777686
_cell_length_b	15.624803
_cell_length_c	15.625186
_cell_angle_alpha	140.974261
_cell_angle_beta	97.076928
_cell_angle_gamma	97.078956
loop_
_atom_site_label
_atom_site_type_symbol
_atom_site_fract_x
_atom_site_fract_y
_atom_site_fract_z
O1	O	-0.351495	0.482514	-0.711669
O2	O	-0.328269	0.351133	-0.580310
O3	O	-0.188415	0.421577	-0.650741
O4	O	-0.491349	0.412070	-0.641239
O5	O	-0.119331	0.650826	-0.421495
O6	O	-0.259185	0.580383	-0.351064
O7	O	-0.282411	0.711763	-0.482423
Cu8	Cu	-0.264490	0.667005	-0.395812
Cu9	Cu	-0.346190	0.395891	-0.666922
O10	O	-0.422265	0.641320	-0.411992
C11	C	-0.287931	0.448968	-0.448899
C12	C	-0.270647	0.398937	-0.398877
C13	C	-0.114740	0.536202	-0.536127
C14	C	0.004061	0.536200	-0.536126
C15	C	-0.495944	0.526684	-0.526618
C16	C	-0.614747	0.526679	-0.526625
C17	C	-0.402076	-0.390471	-0.859309
C18	C	-0.385814	-0.437478	-0.812305
C19	C	-0.310498	-0.187571	-0.562378
C20	C	-0.326748	-0.140540	-0.609362
C21	C	-0.372539	-0.241999	-0.757829
C22	C	-0.297211	0.007931	-0.507882
C23	C	-0.313466	0.054956	-0.554863
C24	C	-0.359258	-0.046490	-0.703323
C25	C	-0.388794	-0.194974	-0.804810
C26	C	-0.251428	0.109387	-0.359415
C27	C	-0.221890	0.257859	-0.257935
C28	C	-0.238138	0.304887	-0.304916
C29	C	-0.283930	0.203440	-0.453376
C30	C	-0.208602	0.453371	-0.203429
C31	C	-0.224857	0.500396	-0.250410
C32	C	-0.300184	0.250466	-0.500357
O33	O	0.311578	0.412060	-0.641239
O34	O	0.008651	0.421583	-0.650738
O35	O	0.148489	0.351140	-0.580301
O36	O	0.171740	0.482502	-0.711677
O37	O	0.217579	0.580393	-0.351058
O38	O	0.077741	0.650836	-0.421495
O39	O	0.380669	0.641313	-0.411996
Cu40	Cu	0.235513	0.667007	-0.395814
Cu41	Cu	0.153806	0.395889	-0.666921
O42	O	0.240831	0.711755	-0.482434
C43	C	-0.322750	0.613926	-0.613837
C44	C	-0.340037	0.663947	-0.663868
C45	C	0.177238	0.448990	-0.448878
C46	C	0.159954	0.399000	-0.398815
C47	C	0.212085	0.613915	-0.613847
C48	C	0.229377	0.663934	-0.663881
C49	C	0.291411	0.859393	0.390553
C50	C	0.275154	0.812376	0.437550
C51	C	0.199833	0.562449	0.187644
C52	C	0.216079	0.609445	0.140623
C53	C	0.261869	0.757919	0.242087
C54	C	0.186537	0.507970	-0.007842
C55	C	0.202787	0.554963	-0.054857
C56	C	0.248579	0.703430	0.046594
C57	C	0.278119	0.804911	0.195072
C58	C	0.140753	0.359497	-0.109303
C59	C	0.111212	0.258022	-0.257769
C60	C	0.127454	0.305015	-0.304786
C61	C	0.173246	0.453482	-0.203335
C62	C	0.097913	0.203534	-0.453264
C63	C	0.114163	0.250526	-0.500279
C64	C	0.189496	0.500475	-0.250350
N65	N	-0.207027	0.857696	-0.205130
N66	N	-0.403646	0.205204	-0.857606
N67	N	0.292992	0.857696	-0.205132
N68	N	0.096337	0.205195	-0.857598
C69	C	-0.123388	0.961013	-0.164218
C70	C	-0.079883	1.105327	-0.019925
C71	C	-0.120024	1.146324	0.083450
C72	C	-0.203668	1.042994	0.042530
C73	C	-0.247166	0.898680	-0.101758
C74	C	-0.363602	0.164345	-0.960966
C75	C	-0.407068	0.020051	-1.105278
C76	C	-0.490573	-0.083384	-1.146226
C77	C	-0.530622	-0.042517	-1.042855
C78	C	-0.487161	0.101778	-0.898548
C79	C	0.376496	0.898551	-0.101776
C80	C	0.420013	1.042847	0.042534
C81	C	0.380031	1.146289	0.083484
C82	C	0.296517	1.105425	-0.019883
C83	C	0.252996	0.961129	-0.164189
C84	C	0.136688	0.101949	-0.898567
C85	C	0.093218	-0.042370	-1.042855
C86	C	0.009392	-0.083443	-1.146169
C87	C	-0.030959	0.019815	-1.105192
C88	C	0.012517	0.164134	-0.960909
H89	H	-0.337468	0.167846	-0.621254
H90	H	0.415479	1.263779	0.200992
Br91	Br	-0.184777	0.701898	-0.112687
Br92	Br	0.340246	1.006416	0.332766
H93	H	0.204941	0.135367	-0.814463
Br94	Br	0.033629	1.245535	0.035575
Br95	Br	-0.352700	-0.035381	-1.245540
H96	H	-0.238201	0.071088	-0.321168
H97	H	0.263973	1.189669	0.013481
Br98	Br	0.139662	0.905705	-0.304442
Br99	Br	-0.144727	-0.035952	-1.245421
Br100	Br	-0.042266	0.304236	-0.905328
H101	H	0.299176	0.895023	0.558448
Br102	Br	-0.381328	0.017325	-0.767089
Br103	Br	-0.541515	0.157208	-0.758284
H104	H	0.060641	0.082646	-0.535861
Br105	Br	-0.643950	-0.182908	-1.098445
H106	H	0.261808	0.741689	0.008306
H107	H	0.226769	0.621377	-0.167727
H108	H	-0.084596	1.263838	0.200934
Br109	Br	0.430791	0.758198	-0.157319
Br110	Br	0.353538	1.060898	0.528246
H111	H	-0.426077	-0.277594	-0.925707
Br112	Br	0.533351	1.098270	0.182790
H113	H	0.126084	-0.126428	-1.076192
H114	H	-0.026000	-0.200962	-1.263648
H115	H	-0.439360	-0.473090	-0.980206
H116	H	0.162555	0.441560	0.105044
H117	H	-0.236344	1.076392	0.126716
Br118	Br	-0.360685	0.758478	-0.157265
Br119	Br	0.049130	0.056525	-0.395451
Br120	Br	-0.425914	-0.638992	-0.950044
H121	H	-0.295606	0.248548	-0.927649
H122	H	-0.273218	-0.104975	-0.441495
H123	H	-0.184611	0.340454	-0.137053
Br124	Br	-0.146481	0.591045	-0.001945
H125	H	0.127513	0.321241	-0.071013
H126	H	-0.525954	-0.200874	-1.263735
Br127	Br	-0.068891	0.905415	-0.304483
Br128	Br	0.074077	0.112811	-0.701773
