data_functionalizedCrystal
_audit_creation_method	'MofGen! by Chris Wilmer'
_symmetry_space_group_name_H-M	'P1'
_symmetry_Int_Tables_number	1
_symmetry_cell_setting	triclinic
loop_
_symmetry_equiv_pos_as_xyz
  x,y,z
_cell_length_a	15.624803
_cell_length_b	15.538191
_cell_length_c	13.448316
_cell_angle_alpha	89.995865
_cell_angle_beta	71.907267
_cell_angle_gamma	66.736403
loop_
_atom_site_label
_atom_site_type_symbol
_atom_site_fract_x
_atom_site_fract_y
_atom_site_fract_z
O1	O	1.156124	0.122868	-0.499680
O2	O	1.656124	0.622868	0.000320
O3	O	0.888824	0.137528	-0.403269
O4	O	1.388824	0.637528	0.096731
O5	O	1.074507	-0.006866	-0.470246
O6	O	1.574507	0.493134	0.029754
O7	O	0.970442	0.267263	-0.432703
O8	O	1.470442	0.767263	0.067297
O9	O	1.074492	-0.006875	-0.304857
O10	O	1.574492	0.493125	0.195143
O11	O	0.888810	0.137520	-0.237880
O12	O	1.388810	0.637520	0.262120
O13	O	1.156110	0.122859	-0.334291
O14	O	1.656110	0.622859	0.165709
Cu15	Cu	1.022459	0.130189	-0.270984
Cu16	Cu	1.522459	0.630189	0.229016
Cu17	Cu	1.022476	0.130199	-0.466576
Cu18	Cu	1.522476	0.630199	0.033424
O19	O	0.970428	0.267254	-0.267314
O20	O	1.470428	0.767254	0.232686
C21	C	0.855442	0.136862	-0.308537
C22	C	1.355442	0.636862	0.191463
C23	C	0.756000	0.134880	-0.272671
C24	C	1.256000	0.634880	0.227329
C25	C	0.429098	0.128332	-0.605583
C26	C	0.929098	0.628332	-0.105583
C27	C	0.335665	0.126451	-0.571882
C28	C	0.835665	0.626451	-0.071882
C29	C	0.335627	0.126441	-0.391574
C30	C	0.835627	0.626441	0.108426
C31	C	0.429063	0.128318	-0.425260
C32	C	0.929063	0.628318	0.074740
C33	C	0.475791	0.129264	-0.532266
C34	C	0.975791	0.629264	-0.032266
C35	C	0.475756	0.129250	-0.351943
C36	C	0.975756	0.629250	0.148057
C37	C	0.569183	0.131131	-0.385627
C38	C	1.069183	0.631131	0.114373
C39	C	0.615915	0.132081	-0.492627
C40	C	1.115915	0.632081	0.007373
C41	C	0.569217	0.131146	-0.565950
C42	C	1.069217	0.631146	-0.065950
C43	C	0.429024	0.128310	-0.244937
C44	C	0.929024	0.628310	0.255063
C45	C	0.475717	0.129242	-0.171619
C46	C	0.975717	0.629242	0.328381
C47	C	0.569148	0.131117	-0.205304
C48	C	1.069148	0.631117	0.294696
C49	C	0.615881	0.132066	-0.312304
C50	C	1.115881	0.632066	0.187696
C51	C	0.615846	0.132052	-0.131981
C52	C	1.115846	0.632052	0.368019
C53	C	0.709273	0.133933	-0.165665
C54	C	1.209273	0.633933	0.334335
C55	C	0.709307	0.133948	-0.345988
C56	C	1.209307	0.633948	0.154012
C57	C	1.085387	-0.041953	-0.391482
C58	C	1.585387	0.458047	0.108518
C59	C	1.117819	-0.146486	-0.403190
C60	C	1.617819	0.353514	0.096810
C61	C	0.795621	-0.434679	-0.286957
C62	C	1.295621	0.065321	0.213043
C63	C	0.826118	-0.532906	-0.297955
C64	C	1.326118	-0.032906	0.202045
C65	C	0.997656	-0.555135	-0.359826
C66	C	1.497656	-0.055135	0.140174
C67	C	0.967174	-0.456907	-0.348839
C68	C	1.467174	0.043093	0.151161
C69	C	0.866155	-0.396686	-0.312403
C70	C	1.366155	0.103314	0.187597
C71	C	1.037708	-0.418915	-0.374284
C72	C	1.537708	0.081085	0.125716
C73	C	1.007227	-0.320696	-0.363292
C74	C	1.507227	0.179304	0.136708
C75	C	0.906213	-0.260469	-0.326855
C76	C	1.406213	0.239531	0.173145
C77	C	0.835674	-0.298467	-0.301411
C78	C	1.335674	0.201533	0.198589
C79	C	1.138726	-0.479138	-0.410713
C80	C	1.638726	0.020862	0.089287
C81	C	1.209260	-0.441145	-0.436158
C82	C	1.709260	0.058855	0.063842
C83	C	1.178780	-0.342924	-0.425174
C84	C	1.678780	0.157076	0.074826
C85	C	1.077765	-0.282697	-0.388736
C86	C	1.577765	0.217303	0.111264
C87	C	1.249318	-0.304926	-0.450618
C88	C	1.749318	0.195074	0.049382
C89	C	1.218837	-0.206707	-0.439626
C90	C	1.718837	0.293293	0.060374
C91	C	1.047285	-0.184478	-0.377744
C92	C	1.547285	0.315522	0.122256
C93	C	1.189492	0.123525	-0.429025
C94	C	1.689492	0.623525	0.070975
C95	C	1.288934	0.125508	-0.464898
C96	C	1.788934	0.625508	0.035102
C97	C	0.959547	0.302340	-0.346080
C98	C	1.459547	0.802340	0.153920
C99	C	0.927116	0.406873	-0.334379
C100	C	1.427116	0.906873	0.165621
N101	N	1.022453	0.130181	-0.133418
N102	N	1.522453	0.630181	0.366582
N103	N	1.022490	0.130200	-0.604146
N104	N	1.522490	0.630200	-0.104146
C105	C	1.104684	0.066269	-0.111039
C106	C	1.604684	0.566269	0.388961
C107	C	1.104690	0.066268	-0.006938
C108	C	1.604690	0.566268	0.493062
C109	C	1.022467	0.130184	0.074782
C110	C	1.522467	0.630184	0.574782
C111	C	0.940229	0.194099	0.052398
C112	C	1.440229	0.694099	0.552398
C113	C	0.940221	0.194094	-0.051701
C114	C	1.440221	0.694094	0.448299
C115	C	0.940252	0.194105	0.269370
C116	C	1.440252	0.694105	0.769370
C117	C	0.940260	0.194111	0.373475
C118	C	1.440260	0.694111	0.873475
C119	C	1.104720	0.066279	0.314132
C120	C	1.604720	0.566279	0.814132
C121	C	1.104713	0.066275	0.210034
C122	C	1.604713	0.566275	0.710034
C123	C	1.022475	0.130191	0.187657
C124	C	1.522475	0.630191	0.687657
H125	H	0.352948	0.126783	-0.217514
H126	H	0.852948	0.626783	0.282486
H127	H	1.171681	0.014236	0.332357
H128	H	1.671681	0.514236	0.832357
H129	H	0.965025	-0.135442	-0.348082
H130	H	1.465025	0.364558	0.151918
H131	H	0.437657	0.128474	-0.084494
H132	H	0.937657	0.628474	0.415506
F133	F	1.192225	-0.001746	0.123060
F134	F	1.692225	0.498254	0.623060
H135	H	0.873305	0.246157	0.440009
H136	H	1.373305	0.746157	0.940009
F137	F	0.478839	0.129329	-0.719474
F138	F	0.978839	0.629329	-0.219474
H139	H	1.276273	-0.175773	-0.460345
H140	H	1.776273	0.324227	0.039655
F141	F	0.566098	0.131057	-0.018100
F142	F	1.066098	0.631057	0.481900
F143	F	1.192201	-0.001756	-0.198005
F144	F	1.692201	0.498244	0.301995
F145	F	0.852698	0.262116	-0.075514
F146	F	1.352698	0.762116	0.424486
F147	F	0.285884	0.125437	-0.277693
F148	F	0.785884	0.625437	0.222307
H149	H	0.768673	-0.563834	-0.277217
H150	H	1.268673	-0.063834	0.222783
H151	H	0.747289	0.134697	-0.105962
H152	H	1.247289	0.634697	0.394038
F153	F	0.285972	0.125462	-0.649925
F154	F	0.785972	0.625462	-0.149925
F155	F	0.852717	0.262120	0.139372
F156	F	1.352717	0.762120	0.639372
H157	H	0.881397	-0.180493	-0.317900
H158	H	1.381397	0.319507	0.182100
F159	F	0.715347	0.134088	-0.528476
F160	F	1.215347	0.634088	-0.028476
F161	F	0.688105	-0.370581	-0.248187
F162	F	1.188105	0.129419	0.251813
F163	F	0.759048	0.134944	-0.459878
F164	F	1.259048	0.634944	0.040122
F165	F	0.618958	0.132142	-0.679840
F166	F	1.118958	0.632142	-0.179840
H167	H	1.171647	0.014226	0.011281
H168	H	1.671647	0.514226	0.511281
F169	F	1.316768	-0.505246	-0.474927
F170	F	1.816768	-0.005246	0.025073
F171	F	1.105165	-0.619236	-0.398595
F172	F	1.605165	-0.119236	0.101405
F173	F	0.728158	-0.234370	-0.262641
F174	F	1.228158	0.265630	0.237359
F175	F	1.171164	-0.583672	-0.422404
F176	F	1.671164	-0.083672	0.077596
H177	H	1.331567	-0.353972	-0.480274
H178	H	1.831567	0.146028	0.019726
H179	H	0.873283	0.246150	0.251158
H180	H	1.373283	0.746150	0.751158
