data_functionalizedCrystal
_audit_creation_method	'MofGen! by Chris Wilmer'
_symmetry_space_group_name_H-M	'P1'
_symmetry_Int_Tables_number	1
_symmetry_cell_setting	triclinic
loop_
_symmetry_equiv_pos_as_xyz
  x,y,z
_cell_length_a	16.625546
_cell_length_b	12.594517
_cell_length_c	16.625539
_cell_angle_alpha	90.025391
_cell_angle_beta	89.969603
_cell_angle_gamma	89.982595
loop_
_atom_site_label
_atom_site_type_symbol
_atom_site_fract_x
_atom_site_fract_y
_atom_site_fract_z
Zn1	Zn	-0.321109	-1.627215	-0.456001
Zn2	Zn	0.178891	-1.127215	0.043999
Zn3	Zn	-0.455952	-1.627087	-0.321164
Zn4	Zn	0.044048	-1.127087	0.178836
Zn5	Zn	-0.321125	-1.449220	-0.321171
Zn6	Zn	0.178875	-0.949220	0.178829
Zn7	Zn	-0.455891	-1.449181	-0.455942
Zn8	Zn	0.044109	-0.949181	0.044058
O9	O	-0.388519	-1.538176	-0.388569
O10	O	0.111481	-1.038176	0.111431
O11	O	-0.339015	-1.776144	-0.438137
O12	O	0.160985	-1.276144	0.061863
O13	O	-0.438099	-1.603456	-0.208332
O14	O	0.061901	-1.103456	0.291668
O15	O	-0.208291	-1.472901	-0.339084
O16	O	0.291709	-0.972901	0.160916
O17	O	-0.438084	-1.776050	-0.339072
O18	O	0.061916	-1.276050	0.160928
O19	O	-0.208279	-1.603673	-0.438143
O20	O	0.291721	-1.103673	0.061857
O21	O	-0.339043	-1.472778	-0.208337
O22	O	0.160957	-0.972778	0.291663
O23	O	-0.338984	-1.300269	-0.339026
O24	O	0.161016	-0.800269	0.160974
O25	O	-0.437980	-1.472835	-0.568782
O26	O	0.062020	-0.972835	-0.068782
O27	O	-0.437996	-1.300241	-0.438043
O28	O	0.062004	-0.800241	0.061957
O29	O	-0.338956	-1.603636	-0.568826
O30	O	0.161044	-1.103636	-0.068826
O31	O	-0.568777	-1.603418	-0.339015
O32	O	-0.068777	-1.103418	0.160985
O33	O	-0.568732	-1.472711	-0.438036
O34	O	-0.068732	-0.972711	0.061964
C35	C	-0.598010	-1.538075	-0.388536
C36	C	-0.098010	-1.038075	0.111464
C37	C	-0.687631	-1.538129	-0.388548
C38	C	-0.187631	-1.038129	0.111452
C39	C	-0.388486	-1.261635	-0.388529
C40	C	0.111514	-0.761635	0.111471
C41	C	-0.388490	-1.143330	-0.388531
C42	C	0.111510	-0.643330	0.111469
C43	C	-1.015807	-1.538315	-0.388632
C44	C	-0.515807	-1.038315	0.111368
C45	C	-0.924499	-1.538260	-0.388611
C46	C	-0.424499	-1.038260	0.111389
C47	C	-0.851722	-1.538221	-0.388590
C48	C	-0.351722	-1.038221	0.111410
C49	C	-0.760408	-1.538168	-0.388569
C50	C	-0.260408	-1.038168	0.111431
C51	C	-0.334560	-1.074061	-0.334775
C52	C	0.165440	-0.574061	0.165225
C53	C	-0.408103	-1.003239	-0.314932
C54	C	0.091897	-0.503239	0.185068
C55	C	-0.314970	-1.003352	-0.408375
C56	C	0.185030	-0.503352	0.091625
C57	C	-0.462072	-1.074066	-0.368650
C58	C	0.037928	-0.574066	0.131350
C59	C	-0.368890	-1.074185	-0.462128
C60	C	0.131110	-0.574185	0.037872
C61	C	-0.442484	-1.003395	-0.442312
C62	C	0.057516	-0.503395	0.057688
C63	C	-0.178211	-1.538306	-0.388621
C64	C	0.321789	-1.038306	0.111379
C65	C	-0.088589	-1.538362	-0.388643
C66	C	0.411411	-1.038362	0.111357
C67	C	-0.388459	-1.538245	-0.598878
C68	C	0.111541	-1.038245	-0.098878
C69	C	-0.388434	-1.538275	-0.688500
C70	C	0.111566	-1.038275	-0.188500
C71	C	-0.388538	-0.815797	-0.388595
C72	C	0.111462	-0.315797	0.111405
C73	C	-0.388505	-0.934102	-0.388568
C74	C	0.111495	-0.434102	0.111432
C75	C	-0.388344	-1.538324	-1.016675
C76	C	0.111656	-1.038324	-0.516675
C77	C	-0.388371	-1.538307	-0.925367
C78	C	0.111629	-1.038307	-0.425367
C79	C	-0.388389	-1.538300	-0.852590
C80	C	0.111611	-1.038300	-0.352590
C81	C	-0.388416	-1.538282	-0.761276
C82	C	0.111584	-1.038282	-0.261276
C83	C	-0.388521	-1.538168	-0.179079
C84	C	0.111479	-1.038168	0.320921
C85	C	-0.388320	-1.538345	-0.089458
C86	C	0.111680	-1.038345	0.410542
H87	H	-0.289003	-1.105089	-0.289264
H88	H	0.210997	-0.605089	0.210736
Br89	Br	-0.341205	-1.126162	-0.565810
Br90	Br	0.158795	-0.626162	-0.065810
Br91	Br	-0.435757	-0.951301	-0.211224
Br92	Br	0.064243	-0.451301	0.288776
Br93	Br	-0.211334	-0.951567	-0.436322
Br94	Br	0.288666	-0.451567	0.063678
H95	H	-0.524272	-1.104999	-0.351812
H96	H	-0.024272	-0.604999	0.148188
Br97	Br	-0.518592	-0.952001	-0.518111
Br98	Br	-0.018592	-0.452001	-0.018111
