data_functionalizedCrystal
_audit_creation_method	'MofGen! by Chris Wilmer'
_symmetry_space_group_name_H-M	'P1'
_symmetry_Int_Tables_number	1
_symmetry_cell_setting	triclinic
loop_
_symmetry_equiv_pos_as_xyz
  x,y,z
_cell_length_a	12.759400
_cell_length_b	12.827893
_cell_length_c	12.827885
_cell_angle_alpha	90.021189
_cell_angle_beta	89.969506
_cell_angle_gamma	89.987296
loop_
_atom_site_label
_atom_site_type_symbol
_atom_site_fract_x
_atom_site_fract_y
_atom_site_fract_z
Zn1	Zn	-0.418271	-1.597675	-0.590897
Zn2	Zn	-0.593986	-1.597571	-0.416155
Zn3	Zn	-0.418316	-1.422916	-0.416165
Zn4	Zn	-0.593902	-1.422904	-0.590849
O5	O	-0.506119	-1.510266	-0.503517
O6	O	-0.441596	-1.743897	-0.567733
O7	O	-0.570738	-1.574365	-0.269920
O8	O	-0.271289	-1.446147	-0.439367
O9	O	-0.570694	-1.743821	-0.439351
O10	O	-0.271256	-1.574541	-0.567742
O11	O	-0.441673	-1.446046	-0.269927
O12	O	-0.441592	-1.276678	-0.439321
O13	O	-0.570550	-1.446125	-0.737092
O14	O	-0.570594	-1.276669	-0.567661
O15	O	-0.441515	-1.574529	-0.737127
O16	O	-0.740996	-1.574352	-0.439305
O17	O	-0.740935	-1.446025	-0.567652
C18	C	-0.506089	-1.238756	-0.503488
C19	C	-0.506102	-1.122603	-0.503500
C20	C	-0.779086	-1.510204	-0.503495
C21	C	-0.895863	-1.510273	-0.503520
C22	C	-0.442196	-0.950751	-0.440118
C23	C	-0.442181	-1.070802	-0.440104
C24	C	-0.950722	-1.577168	-0.436764
C25	C	-1.060446	-1.577232	-0.436796
C26	C	-1.060442	-1.443499	-0.570344
C27	C	-0.950720	-1.443440	-0.570316
C28	C	-0.895865	-1.644001	-0.369968
C29	C	-0.950725	-1.710899	-0.303205
C30	C	-1.060449	-1.710964	-0.303237
C31	C	-1.115313	-1.644129	-0.370032
C32	C	-0.232086	-1.510357	-0.503561
C33	C	-0.115309	-1.510396	-0.503580
C34	C	-0.506018	-1.510337	-0.776087
C35	C	-0.505975	-1.510368	-0.892240
C36	C	-0.506141	-0.782836	-0.503538
C37	C	-0.506128	-0.898990	-0.503525
C38	C	-0.442112	-1.573913	-0.944042
C39	C	-0.442066	-1.573946	-1.064093
C40	C	-0.506144	-1.510256	-0.232007
C41	C	-0.505891	-1.510428	-0.115854
H42	H	-0.387468	-0.906190	-0.385848
N43	N	-0.777522	-1.643941	-0.369928
H44	H	-0.751015	-1.663101	-0.441623
H45	H	-0.751250	-1.572232	-0.350606
N46	N	-0.369624	-1.646008	-1.123083
H47	H	-0.385935	-1.720681	-1.104148
H48	H	-0.379885	-1.635730	-1.200462
H49	H	-0.387466	-1.628288	-0.899515
H50	H	-0.387450	-1.115316	-0.385815
H51	H	-0.560843	-1.078096	-0.557785
H52	H	-0.560847	-0.943551	-0.557805
H53	H	-0.906048	-1.765320	-0.248829
H54	H	-1.105112	-1.765443	-0.248884
H55	H	-1.204658	-1.644195	-0.370061
H56	H	-1.105121	-1.389084	-0.624724
N57	N	-0.891541	-1.371297	-0.642320
H58	H	-0.942940	-1.328963	-0.684635
H59	H	-0.846084	-1.322936	-0.599729
N60	N	-0.578327	-1.438351	-1.056875
H61	H	-0.627000	-1.480826	-1.011585
H62	H	-0.535529	-1.389977	-1.011652
N63	N	-0.578353	-1.438337	-0.951222
H64	H	-0.653448	-1.454517	-0.932277
H65	H	-0.561963	-1.363682	-0.932257
