data_functionalizedCrystal
_audit_creation_method	'MofGen! by Chris Wilmer'
_symmetry_space_group_name_H-M	'P1'
_symmetry_Int_Tables_number	1
_symmetry_cell_setting	triclinic
loop_
_symmetry_equiv_pos_as_xyz
  x,y,z
_cell_length_a	11.026623
_cell_length_b	22.610064
_cell_length_c	23.532407
_cell_angle_alpha	90.000603
_cell_angle_beta	84.282310
_cell_angle_gamma	89.990492
loop_
_atom_site_label
_atom_site_type_symbol
_atom_site_fract_x
_atom_site_fract_y
_atom_site_fract_z
O1	O	-1.607299	0.049210	0.238183
O2	O	-1.254320	0.049207	0.211060
O3	O	-1.441454	0.049198	0.142809
O4	O	-1.420166	0.049219	0.306433
O5	O	-1.441421	-0.049171	0.142818
O6	O	-1.254287	-0.049162	0.211069
O7	O	-1.607266	-0.049160	0.238192
Zn8	Zn	-1.430772	-0.064779	0.224632
Zn9	Zn	-1.430815	0.064827	0.224620
O10	O	-1.420133	-0.049150	0.306443
C11	C	-1.209153	0.000022	0.206061
C12	C	-1.074619	0.000021	0.191144
N13	N	-1.430751	-0.153231	0.224641
C14	C	-1.000317	0.000027	0.232329
C15	C	-0.861269	0.000026	0.216914
C16	C	-1.513681	-0.561877	0.194405
C17	C	-1.513688	-0.623797	0.194401
O18	O	-1.584147	-0.655819	0.168696
N19	N	-1.430814	-0.654768	0.224608
C20	C	-1.347921	-0.623817	0.254815
O21	O	-1.277430	-0.655846	0.280507
C22	C	-1.347910	-0.561898	0.254815
C23	C	-1.430797	-0.530930	0.224611
C24	C	-1.596561	-0.530909	0.164203
C25	C	-1.596556	-0.468993	0.164207
C26	C	-1.513671	-0.438046	0.194413
C27	C	-1.430792	-0.469014	0.224615
C28	C	-1.265012	-0.530948	0.285019
C29	C	-1.265007	-0.469025	0.285015
C30	C	-1.347894	-0.438056	0.254812
C31	C	-1.347902	-0.376151	0.254826
N32	N	-1.430776	-0.345180	0.224620
C33	C	-1.513660	-0.376127	0.194413
C34	C	-1.347949	-0.753850	0.254812
C35	C	-1.347965	-0.815768	0.254816
C36	C	-1.513730	-0.815744	0.194401
C37	C	-1.513719	-0.753825	0.194401
C38	C	-1.430822	-0.722879	0.224606
C39	C	-1.513644	-0.246100	0.194425
C40	C	-1.513635	-0.184178	0.194434
C41	C	-1.347866	-0.184208	0.254847
C42	C	-1.347879	-0.246124	0.254840
C43	C	-1.430772	-0.277068	0.224625
O44	O	-1.277476	-0.344090	0.280516
O45	O	-1.584128	-0.344090	0.168719
C46	C	-0.652433	0.000027	0.243190
C47	C	-0.786968	0.000031	0.258104
C48	C	-1.440895	0.000012	0.121541
C49	C	-1.439265	0.000007	0.058152
N50	N	-1.430846	0.153279	0.224607
C51	C	-1.539784	0.000040	-0.330378
C52	C	-1.538270	0.000045	-0.389938
O53	O	-1.631452	0.000067	-0.416882
N54	N	-1.427019	0.000044	-0.424265
C55	C	-1.317276	0.000044	-0.399031
O56	O	-1.222509	0.000044	-0.433698
C57	C	-1.318791	0.000044	-0.339472
C58	C	-1.430049	0.000039	-0.305147
C59	C	-1.651033	0.000036	-0.296054
C60	C	-1.652547	0.000030	-0.236499
C61	C	-1.542811	0.000029	-0.211268
C62	C	-1.431562	0.000033	-0.245592
C63	C	-1.209048	0.000048	-0.314238
C64	C	-1.210573	0.000049	-0.254676
C65	C	-1.321831	0.000044	-0.220351
C66	C	-1.323341	0.000026	-0.160806
N67	N	-1.434591	0.000027	-0.126478
C68	C	-1.544327	0.000029	-0.151709
C69	C	-1.314102	0.000046	-0.524107
C70	C	-1.312585	0.000042	-0.583664
C71	C	-1.533580	0.000043	-0.574568
C72	C	-1.535096	0.000043	-0.515009
C73	C	-1.425352	0.000047	-0.489780
C74	C	-1.547497	0.000017	-0.026639
C75	C	-1.549001	0.000009	0.032921
C76	C	-1.328006	0.000010	0.023819
C77	C	-1.326502	0.000015	-0.035736
C78	C	-1.436257	0.000020	-0.060963
O79	O	-1.230207	0.000006	-0.133822
O80	O	-1.639078	0.000037	-0.117035
C81	C	-1.420691	0.000038	0.327711
C82	C	-1.422321	0.000046	0.391099
H83	H	-1.039646	0.000030	0.279001
H84	H	-1.197517	-0.556154	0.309613
H85	H	-1.581212	-0.728614	0.169806
H86	H	-1.235907	0.000002	-0.063685
F87	F	-1.259660	-0.151262	0.286995
F88	F	-0.809876	0.000014	0.155905
F89	F	-1.601869	-0.279024	0.162267
F90	F	-1.093766	0.000054	-0.227828
F91	F	-1.259761	-0.848721	0.286972
F92	F	-1.194169	0.000036	-0.620189
F93	F	-1.667422	0.000004	0.069449
H94	H	-1.238663	0.000007	0.044373
F95	F	-0.838358	0.000032	0.319113
F96	F	-1.023221	0.000009	0.130139
H97	H	-1.581136	-0.158966	0.169839
F98	F	-1.664311	0.000022	-0.053479
F99	F	-1.684769	-0.436040	0.132057
F100	F	-1.684784	-0.563836	0.132049
F101	F	-1.601941	-0.848692	0.162252
F102	F	-1.770964	0.000038	-0.199975
F103	F	-1.259721	-0.720920	0.286967
H104	H	-1.197499	-0.443831	0.309611
F105	F	-1.767840	0.000038	-0.322897
H106	H	-1.280396	-0.271339	0.279442
F107	F	-1.197290	0.000044	-0.497261
F108	F	-1.653510	0.000038	-0.478483
F109	F	-1.650371	0.000048	-0.601431
F110	F	-1.090630	0.000056	-0.350757
