data_functionalizedCrystal
_audit_creation_method	'MofGen! by Chris Wilmer'
_symmetry_space_group_name_H-M	'P1'
_symmetry_Int_Tables_number	1
_symmetry_cell_setting	triclinic
loop_
_symmetry_equiv_pos_as_xyz
  x,y,z
_cell_length_a	11.169417
_cell_length_b	16.120484
_cell_length_c	16.120297
_cell_angle_alpha	95.614431
_cell_angle_beta	92.881561
_cell_angle_gamma	92.926269
loop_
_atom_site_label
_atom_site_type_symbol
_atom_site_fract_x
_atom_site_fract_y
_atom_site_fract_z
Zn1	Zn	1.773031	-0.356726	-0.489383
Zn2	Zn	2.106364	-0.023392	-0.156049
Zn3	Zn	2.439697	0.309941	0.177284
Zn4	Zn	1.772879	-0.489415	-0.356693
Zn5	Zn	2.106213	-0.156082	-0.023360
Zn6	Zn	2.439546	0.177251	0.309974
Zn7	Zn	1.583045	-0.349664	-0.349636
Zn8	Zn	1.916379	-0.016331	-0.016303
Zn9	Zn	2.249712	0.317003	0.317030
Zn10	Zn	1.561557	-0.496459	-0.496424
Zn11	Zn	1.894890	-0.163126	-0.163091
Zn12	Zn	2.228223	0.170208	0.170243
O13	O	1.672628	-0.423066	-0.423034
O14	O	2.005961	-0.089733	-0.089701
O15	O	2.339295	0.243601	0.243633
O16	O	1.940959	-0.374335	-0.471788
O17	O	2.274292	-0.041001	-0.138454
O18	O	2.607626	0.292332	0.194879
O19	O	1.756627	-0.464974	-0.238795
O20	O	2.089961	-0.131640	0.094539
O21	O	2.423294	0.201693	0.427872
O22	O	1.617304	-0.233635	-0.362274
O23	O	1.950637	0.099698	-0.028940
O24	O	2.283970	0.433031	0.304393
O25	O	1.940848	-0.471821	-0.374301
O26	O	2.274181	-0.138488	-0.040968
O27	O	2.607515	0.194846	0.292366
O28	O	1.756885	-0.238823	-0.464945
O29	O	2.090218	0.094510	-0.131612
O30	O	2.423552	0.427843	0.201722
O31	O	1.617157	-0.362299	-0.233610
O32	O	1.950490	-0.028966	0.099723
O33	O	2.283824	0.304368	0.433056
O34	O	1.412246	-0.369129	-0.369102
O35	O	1.745580	-0.035796	-0.035768
O36	O	2.078913	0.297537	0.297565
O37	O	1.580679	-0.483826	-0.612452
O38	O	1.914013	-0.150493	-0.279119
O39	O	2.247346	0.182840	0.054214
O40	O	1.396459	-0.476979	-0.476946
O41	O	1.729792	-0.143646	-0.143613
O42	O	2.063125	0.189688	0.189721
O43	O	1.736048	-0.381165	-0.607279
O44	O	2.069382	-0.047831	-0.273946
O45	O	2.402715	0.285502	0.059388
O46	O	1.735791	-0.607315	-0.381129
O47	O	2.069124	-0.273982	-0.047796
O48	O	2.402457	0.059352	0.285538
O49	O	1.580533	-0.612490	-0.483789
O50	O	1.913866	-0.279157	-0.150455
O51	O	2.247199	0.054177	0.182878
C52	C	1.360805	-0.423053	-0.423023
C53	C	1.694138	-0.089719	-0.089689
C54	C	2.027472	0.243614	0.243644
C55	C	1.227403	-0.423068	-0.423039
C56	C	1.560736	-0.089735	-0.089705
C57	C	1.894069	0.243598	0.243628
C58	C	1.655845	-0.640231	-0.434007
C59	C	1.989178	-0.306898	-0.100674
C60	C	2.322511	0.026435	0.232660
C61	C	1.648772	-0.733137	-0.438729
C62	C	1.982106	-0.399804	-0.105396
C63	C	2.315439	-0.066470	0.227938
C64	C	1.635866	-0.903237	-0.447368
C65	C	1.969199	-0.569904	-0.114034
C66	C	2.302532	-0.236570	0.219299
C67	C	1.709604	-0.942055	-0.398714
C68	C	2.042938	-0.608722	-0.065381
C69	C	2.376271	-0.275388	0.267952
C70	C	1.702423	-1.036705	-0.403521
C71	C	2.035756	-0.703371	-0.070187
C72	C	2.369090	-0.370038	0.263146
C73	C	1.643045	-0.808579	-0.442562
C74	C	1.976379	-0.475246	-0.109229
C75	C	2.309712	-0.141912	0.224104
C76	C	1.985668	-0.423080	-0.423046
C77	C	2.319002	-0.089747	-0.089713
C78	C	2.652335	0.243587	0.243621
C79	C	2.119068	-0.423086	-0.423051
C80	C	2.452401	-0.089752	-0.089718
C81	C	2.785734	0.243581	0.243616
C82	C	1.655984	-0.434069	-0.641041
C83	C	1.989317	-0.100736	-0.307707
C84	C	2.322650	0.232598	0.025626
C85	C	1.648891	-0.438758	-0.733942
C86	C	1.982224	-0.105424	-0.400609
C87	C	2.315558	0.227909	-0.067275
C88	C	1.689508	-0.205054	-0.412037
C89	C	2.022842	0.128280	-0.078703
C90	C	2.356175	0.461613	0.254630
C91	C	1.696702	-0.112150	-0.407350
C92	C	2.030035	0.221184	-0.074017
C93	C	2.363368	0.554517	0.259316
C94	C	1.635899	-0.447300	-0.904033
C95	C	1.969232	-0.113966	-0.570699
C96	C	2.302565	0.219367	-0.237366
C97	C	1.709613	-0.398582	-0.942875
C98	C	2.042946	-0.065248	-0.609541
C99	C	2.376280	0.268085	-0.276208
C100	C	1.702384	-0.403335	-1.037519
C101	C	2.035717	-0.070001	-0.704186
C102	C	2.369051	0.263332	-0.370852
C103	C	1.643126	-0.442548	-0.809380
C104	C	1.976459	-0.109215	-0.476047
C105	C	2.309793	0.224119	-0.142713
C106	C	1.689281	-0.412046	-0.205873
C107	C	2.022615	-0.078712	0.127461
C108	C	2.355948	0.254621	0.460794
C109	C	1.696625	-0.407121	-0.112960
C110	C	2.029958	-0.073788	0.220374
C111	C	2.363291	0.259545	0.553707
H112	H	1.778126	-0.904204	-0.353450
H113	H	2.111460	-0.570870	-0.020117
H114	H	2.444793	-0.237537	0.313216
H115	H	1.778150	-0.353303	-0.905048
H116	H	2.111483	-0.019969	-0.571715
H117	H	2.444817	0.313364	-0.238381
H118	H	1.567347	-0.941086	-0.492627
H119	H	1.900681	-0.607752	-0.159293
H120	H	2.234014	-0.274419	0.174040
O121	O	1.554248	-0.501298	-0.949279
O122	O	1.887581	-0.167964	-0.615946
O123	O	2.220914	0.165369	-0.282612
C124	C	1.472443	-0.555265	-1.086240
C125	C	1.805777	-0.221931	-0.752907
C126	C	2.139110	0.111402	-0.419574
C127	C	1.564981	-0.494088	-1.035089
C128	C	1.898314	-0.160755	-0.701756
C129	C	2.231648	0.172579	-0.368422
H130	H	1.481073	-0.549444	-1.155626
H131	H	1.814406	-0.216111	-0.822293
H132	H	2.147739	0.117223	-0.488960
H133	H	1.489584	-0.621843	-1.072615
H134	H	1.822917	-0.288510	-0.739281
H135	H	2.156251	0.044824	-0.405948
H136	H	1.378097	-0.539755	-1.068337
H137	H	1.711430	-0.206422	-0.735004
H138	H	2.044764	0.126912	-0.401671
H139	H	1.659363	-0.509521	-1.052962
H140	H	1.992697	-0.176188	-0.719629
H141	H	2.326030	0.157145	-0.386296
H142	H	1.547736	-0.427528	-1.048720
H143	H	1.881069	-0.094194	-0.715386
H144	H	2.214402	0.239139	-0.382053
