data_functionalizedCrystal
_audit_creation_method	'MofGen! by Chris Wilmer'
_symmetry_space_group_name_H-M	'P1'
_symmetry_Int_Tables_number	1
_symmetry_cell_setting	triclinic
loop_
_symmetry_equiv_pos_as_xyz
  x,y,z
_cell_length_a	11.026607
_cell_length_b	8.559649
_cell_length_c	7.088929
_cell_angle_alpha	95.344185
_cell_angle_beta	97.578021
_cell_angle_gamma	90.817659
loop_
_atom_site_label
_atom_site_type_symbol
_atom_site_fract_x
_atom_site_fract_y
_atom_site_fract_z
O1	O	1.535816	-0.664136	-0.158933
O2	O	1.869149	-0.330802	0.174400
O3	O	2.202482	0.002531	0.507733
O4	O	1.189424	-0.589935	-0.158946
O5	O	1.522757	-0.256602	0.174387
O6	O	1.856090	0.076731	0.507720
O7	O	1.393137	-0.403211	-0.158937
O8	O	1.726471	-0.069878	0.174397
O9	O	2.059804	0.263455	0.507730
O10	O	1.332102	-0.850860	-0.158943
O11	O	1.665435	-0.517527	0.174390
O12	O	1.998769	-0.184193	0.507724
O13	O	1.420368	-0.378185	0.159040
O14	O	1.753702	-0.044852	0.492373
O15	O	2.087035	0.288481	0.825706
O16	O	1.216655	-0.564909	0.159030
O17	O	1.549988	-0.231576	0.492364
O18	O	1.883321	0.101757	0.825697
O19	O	1.563047	-0.639110	0.159043
O20	O	1.896380	-0.305776	0.492376
O21	O	2.229713	0.027557	0.825710
Cu22	Cu	1.392337	-0.599725	0.188070
Cu23	Cu	1.725670	-0.266391	0.521404
Cu24	Cu	2.059004	0.066942	0.854737
Cu25	Cu	1.360133	-0.629321	-0.187974
Cu26	Cu	1.693467	-0.295987	0.145360
Cu27	Cu	2.026800	0.037346	0.478693
O28	O	1.359333	-0.825834	0.159034
O29	O	1.692666	-0.492501	0.492367
O30	O	2.026000	-0.159167	0.825700
C31	C	1.159104	-0.563734	0.000040
C32	C	1.492437	-0.230400	0.333374
C33	C	1.825771	0.102933	0.666707
C34	C	1.028192	-0.522927	0.000035
C35	C	1.361526	-0.189594	0.333368
C36	C	1.694859	0.143739	0.666702
C37	C	1.411378	-0.332499	0.000048
C38	C	1.744711	0.000834	0.333381
C39	C	2.078045	0.334168	0.666715
C40	C	1.425145	-0.159080	0.000038
C41	C	1.758478	0.174253	0.333371
C42	C	2.091812	0.507587	0.666705
C43	C	1.593366	-0.665312	0.000052
C44	C	1.926699	-0.331978	0.333386
C45	C	2.260033	0.001355	0.666719
C46	C	1.724276	-0.706119	0.000045
C47	C	2.057610	-0.372786	0.333378
C48	C	2.390943	-0.039453	0.666712
C49	C	1.808583	-0.593445	0.000044
C50	C	2.141916	-0.260111	0.333377
C51	C	2.475249	0.073222	0.666711
C52	C	1.943886	-0.635618	0.000036
C53	C	2.277219	-0.302285	0.333370
C54	C	2.610553	0.031048	0.666703
C55	C	1.341092	-0.896546	0.000045
C56	C	1.674425	-0.563213	0.333378
C57	C	2.007759	-0.229880	0.666711
C58	C	1.327324	-1.069967	0.000042
C59	C	1.660657	-0.736633	0.333375
C60	C	1.993991	-0.403300	0.666709
N61	N	1.414996	-0.578910	0.452559
N62	N	1.748330	-0.245576	0.785893
N63	N	2.081663	0.087757	1.119226
N64	N	1.337485	-0.650126	-0.452463
N65	N	1.670818	-0.316793	-0.119129
N66	N	2.004151	0.016541	0.214204
H67	H	1.780594	-0.465755	0.000078
H68	H	2.113927	-0.132422	0.333411
H69	H	2.447261	0.200911	0.666745
H70	H	1.233042	-0.126344	0.000045
H71	H	1.566375	0.206989	0.333378
H72	H	1.899709	0.540323	0.666711
Br73	Br	1.981566	-0.310087	0.000067
Br74	Br	2.314899	0.023246	0.333401
Br75	Br	2.648233	0.356580	0.666734
H76	H	1.519435	-0.102693	0.000057
H77	H	1.852768	0.230640	0.333390
H78	H	2.186102	0.563973	0.666724
H79	H	1.495340	-0.505120	0.534219
H80	H	1.828673	-0.171786	0.867553
H81	H	2.162007	0.161547	1.200886
Br82	Br	1.203592	-0.773137	0.411453
Br83	Br	1.536925	-0.439803	0.744786
Br84	Br	1.870258	-0.106470	1.078119
H85	H	1.971872	-0.763313	0.000043
H86	H	2.305205	-0.429980	0.333376
H87	H	2.638538	-0.096646	0.666709
H88	H	1.752269	-0.833805	0.000051
H89	H	2.085602	-0.500472	0.333385
H90	H	2.418935	-0.167139	0.666718
