data_functionalizedCrystal
_audit_creation_method	'MofGen! by Chris Wilmer'
_symmetry_space_group_name_H-M	'P1'
_symmetry_Int_Tables_number	1
_symmetry_cell_setting	triclinic
loop_
_symmetry_equiv_pos_as_xyz
  x,y,z
_cell_length_a	19.188930
_cell_length_b	19.188930
_cell_length_c	13.101039
_cell_angle_alpha	93.345801
_cell_angle_beta	86.639939
_cell_angle_gamma	83.144779
loop_
_atom_site_label
_atom_site_type_symbol
_atom_site_fract_x
_atom_site_fract_y
_atom_site_fract_z
O1	O	0.930013	0.083287	-0.085556
O2	O	1.430013	0.583287	0.414444
O3	O	0.726699	0.095024	-0.085488
O4	O	1.226699	0.595024	0.414512
O5	O	0.834222	-0.012499	-0.085504
O6	O	1.334222	0.487501	0.414496
O7	O	0.822489	0.190810	-0.085540
O8	O	1.322489	0.690810	0.414460
O9	O	0.826507	-0.004772	0.084927
O10	O	1.326507	0.495228	0.584927
O11	O	0.718984	0.102752	0.084943
O12	O	1.218984	0.602752	0.584943
O13	O	0.922298	0.091014	0.084875
O14	O	1.422298	0.591014	0.584875
Zn15	Zn	0.819416	0.098110	0.111969
Zn16	Zn	1.319416	0.598110	0.611969
Zn17	Zn	0.829581	0.087929	-0.112582
Zn18	Zn	1.329581	0.587929	0.387418
O19	O	0.814775	0.198538	0.084891
O20	O	1.314775	0.698538	0.584891
C21	C	0.696830	0.098508	-0.000263
C22	C	1.196830	0.598508	0.499737
C23	C	0.619324	0.097369	-0.000236
C24	C	1.119324	0.597369	0.499764
C25	C	0.574401	0.160458	-0.000263
C26	C	1.074401	0.660458	0.499737
C27	C	0.501578	0.159386	-0.000274
C28	C	1.001578	0.659386	0.499726
C29	C	0.473682	0.095220	-0.000279
C30	C	0.973682	0.595220	0.499721
C31	C	0.518614	0.032122	-0.000246
C32	C	1.018614	0.532122	0.499754
C33	C	0.591435	0.033197	-0.000224
C34	C	1.091435	0.533197	0.499776
N35	N	0.368329	0.043542	-0.058316
N36	N	0.868329	0.543542	0.441684
N37	N	0.299151	0.042525	-0.058339
N38	N	0.799151	0.542525	0.441661
C39	C	0.254276	0.091979	-0.000341
C40	C	0.754276	0.591979	0.499659
N41	N	0.281191	0.142498	0.057668
N42	N	0.781191	0.642498	0.557668
N43	N	0.350375	0.143516	0.057686
N44	N	0.850375	0.643516	0.557686
C45	C	0.394720	0.094048	-0.000301
C46	C	0.894720	0.594048	0.499699
C47	C	0.130389	0.153911	-0.000379
C48	C	0.630389	0.653911	0.499621
C49	C	0.057565	0.152836	-0.000383
C50	C	0.557565	0.652836	0.499617
C51	C	0.074603	0.025570	-0.000365
C52	C	0.574603	0.525570	0.499635
C53	C	0.147425	0.026647	-0.000350
C54	C	0.647425	0.526647	0.499650
C55	C	0.175314	0.090819	-0.000362
C56	C	0.675314	0.590819	0.499638
C57	C	0.829985	-0.034646	-0.000285
C58	C	1.329985	0.465354	0.499715
C59	C	0.828843	-0.112151	-0.000276
C60	C	1.328843	0.387849	0.499724
C61	C	0.891935	-0.157075	-0.000293
C62	C	1.391935	0.342925	0.499707
C63	C	0.890864	-0.229900	-0.000309
C64	C	1.390864	0.270100	0.499691
C65	C	0.826697	-0.257795	-0.000288
C66	C	1.326697	0.242205	0.499712
C67	C	0.763597	-0.212861	-0.000277
C68	C	1.263597	0.287139	0.499723
C69	C	0.764671	-0.140039	-0.000271
C70	C	1.264671	0.359961	0.499729
N71	N	0.775024	-0.363170	0.057730
N72	N	1.275024	0.136830	0.557730
N73	N	0.774008	-0.432349	0.057727
N74	N	1.274008	0.067651	0.557727
C75	C	0.823460	-0.477205	-0.000307
C76	C	1.323460	0.022795	0.499693
N77	N	0.873975	-0.450270	-0.058325
N78	N	1.373975	0.049730	0.441675
N79	N	0.874992	-0.381085	-0.058317
N80	N	1.374992	0.118915	0.441683
C81	C	0.825526	-0.336758	-0.000295
C82	C	1.325526	0.163242	0.499705
C83	C	0.885395	-0.601095	-0.000343
C84	C	1.385395	-0.101095	0.499657
C85	C	0.884321	-0.673921	-0.000365
C86	C	1.384321	-0.173921	0.499635
C87	C	0.757052	-0.656880	-0.000323
C88	C	1.257052	-0.156880	0.499677
C89	C	0.758128	-0.584056	-0.000311
C90	C	1.258128	-0.084056	0.499689
C91	C	0.822301	-0.556168	-0.000316
C92	C	1.322301	-0.056168	0.499684
C93	C	0.952167	0.087530	-0.000352
C94	C	1.452167	0.587530	0.499648
C95	C	1.029673	0.088669	-0.000386
C96	C	1.529673	0.588669	0.499614
C97	C	0.819012	0.220685	-0.000330
C98	C	1.319012	0.720685	0.499670
C99	C	0.820154	0.298189	-0.000346
C100	C	1.320154	0.798189	0.499654
N101	N	0.812484	0.105058	0.265218
N102	N	1.312484	0.605058	0.765218
N103	N	0.836518	0.080975	-0.265831
N104	N	1.336518	0.580975	0.234169
C105	C	0.803053	0.114517	0.474262
C106	C	1.303053	0.614517	0.974262
C107	C	0.845947	0.071518	0.525131
C108	C	1.345947	0.571518	1.025131
C109	C	0.840699	0.076781	0.641451
C110	C	1.340699	0.576781	1.141451
C111	C	0.808300	0.109255	0.357933
C112	C	1.308300	0.609255	0.857933
H113	H	0.464995	0.210763	-0.000294
H114	H	0.964995	0.710763	0.499706
Br115	Br	0.669967	-0.694731	-0.000305
Br116	Br	1.169967	-0.194731	0.499695
Br117	Br	0.676513	-0.250718	-0.000262
Br118	Br	1.176513	0.249282	0.499738
H119	H	0.153097	0.206164	-0.000373
H120	H	0.653097	0.706164	0.499627
H121	H	0.706752	-0.547477	-0.000292
H122	H	1.206752	-0.047477	0.499708
Br123	Br	-0.003405	0.238466	-0.000411
Br124	Br	0.496595	0.738466	0.499589
Br125	Br	0.480756	-0.054961	-0.000241
Br126	Br	0.980756	0.445039	0.499759
H127	H	0.762393	0.155280	0.518066
H128	H	1.262393	0.655280	1.018066
H129	H	0.886611	0.030753	0.481323
H130	H	1.386611	0.530753	0.981323
H131	H	0.713292	-0.103460	-0.000258
H132	H	1.213292	0.396540	0.499742
H133	H	0.628012	-0.018180	-0.000203
H134	H	1.128012	0.481820	0.499797
H135	H	0.597103	0.212712	-0.000275
H136	H	1.097103	0.712712	0.499725
H137	H	0.937648	-0.578388	-0.000351
H138	H	1.437648	-0.078388	0.499649
H139	H	0.051893	-0.026679	-0.000432
H140	H	0.551893	0.473321	0.499568
H141	H	0.184003	-0.024728	-0.000333
H142	H	0.684003	0.475272	0.499667
H143	H	0.944190	-0.134374	-0.000300
H144	H	1.444190	0.365626	0.499700
H145	H	0.942243	-0.266485	-0.000326
H146	H	1.442243	0.233515	0.499674
H147	H	0.935701	-0.710499	-0.000384
H148	H	1.435701	-0.210499	0.499616
