data_functionalizedCrystal
_audit_creation_method	'MofGen! by Chris Wilmer'
_symmetry_space_group_name_H-M	'P1'
_symmetry_Int_Tables_number	1
_symmetry_cell_setting	triclinic
loop_
_symmetry_equiv_pos_as_xyz
  x,y,z
_cell_length_a	19.077105
_cell_length_b	17.640280
_cell_length_c	17.639306
_cell_angle_alpha	92.178650
_cell_angle_beta	103.007003
_cell_angle_gamma	76.093206
loop_
_atom_site_label
_atom_site_type_symbol
_atom_site_fract_x
_atom_site_fract_y
_atom_site_fract_z
Zn1	Zn	1.231600	-0.453380	0.410862
Zn2	Zn	1.222168	-0.554212	0.257907
Zn3	Zn	1.084136	-0.420043	0.278791
Zn4	Zn	1.130550	-0.575051	0.381699
O5	O	1.167114	-0.500671	0.332315
O6	O	1.330406	-0.471986	0.394037
O7	O	1.180486	-0.513742	0.153597
O8	O	1.088220	-0.317396	0.317255
O9	O	1.323476	-0.546067	0.281662
O10	O	1.196561	-0.341888	0.414287
O11	O	1.079074	-0.415169	0.168941
O12	O	0.990236	-0.435375	0.288977
O13	O	1.167326	-0.581583	0.492647
O14	O	1.024336	-0.549258	0.364583
O15	O	1.241567	-0.492192	0.514073
O16	O	1.225493	-0.664046	0.253384
O17	O	1.158181	-0.679356	0.344333
C18	C	0.981343	-0.490961	0.325882
C19	C	0.901876	-0.486829	0.323145
C20	C	0.882309	-0.544238	0.361131
C21	C	0.807640	-0.540347	0.358565
C22	C	0.752540	-0.479048	0.318007
C23	C	0.772111	-0.421633	0.280019
C24	C	0.846779	-0.425523	0.282590
C25	C	0.527322	-0.461049	0.306109
C26	C	0.452651	-0.457166	0.303538
C27	C	0.488185	-0.575879	0.382086
C28	C	0.562852	-0.579765	0.384650
C29	C	0.582417	-0.522348	0.346666
N30	N	0.676217	-0.475070	0.315380
N31	N	0.658740	-0.526324	0.349297
C32	C	1.195873	-0.699468	0.293445
C33	C	1.208247	-0.784522	0.276844
C34	C	1.073461	-1.104179	0.458718
C35	C	1.085085	-1.184096	0.443094
C36	C	1.155254	-1.168112	0.348490
C37	C	1.143640	-1.088193	0.364108
C38	C	1.102742	-1.056233	0.419222
C39	C	1.172920	-1.040247	0.324612
C40	C	1.161303	-0.960334	0.340226
C41	C	1.120405	-0.928368	0.395336
C42	C	1.091124	-0.976320	0.434836
C43	C	1.213814	-1.072208	0.269494
C44	C	1.243094	-1.024261	0.229998
C45	C	1.231482	-0.944348	0.245616
C46	C	1.190584	-0.912381	0.300726
C47	C	1.260763	-0.896395	0.206116
C48	C	1.249145	-0.816482	0.221730
C49	C	1.178967	-0.832469	0.316340
C50	C	1.353610	-0.510420	0.338773
C51	C	1.433084	-0.514575	0.341525
C52	C	1.210676	-0.542931	0.531901
C53	C	1.229240	-0.560939	0.616953
C54	C	1.138265	-0.301103	0.371354
C55	C	1.125972	-0.216059	0.387990
C56	C	1.123754	-0.458523	0.133517
C57	C	1.105297	-0.440307	0.048512
C58	C	1.026323	-0.363593	0.936638
C59	C	1.043785	-0.380531	1.016555
C60	C	1.149374	-0.483165	1.000560
C61	C	1.131923	-0.466232	0.920641
C62	C	1.070396	-0.406446	0.888686
C63	C	1.175996	-0.509086	0.872689
C64	C	1.158544	-0.492157	0.792776
C65	C	1.097019	-0.432375	0.760815
C66	C	1.052944	-0.389517	0.808774
C67	C	1.237520	-0.568875	0.904644
C68	C	1.281593	-0.611729	0.856692
C69	C	1.264144	-0.594797	0.776779
C70	C	1.202619	-0.535015	0.744818
C71	C	1.308219	-0.637654	0.728820
C72	C	1.290767	-0.620726	0.648908
C73	C	1.185167	-0.518086	0.664905
H74	H	0.543241	-0.414301	0.275172
C75	C	0.712180	-0.355159	0.235997
C76	C	0.642599	-0.364049	0.241857
C77	C	0.587374	-0.302833	0.201305
H78	H	0.719346	-0.306749	0.257708
H79	H	0.714745	-0.356022	0.182792
H80	H	0.640036	-0.363179	0.295051
H81	H	0.635409	-0.412447	0.220142
H82	H	0.589939	-0.303695	0.148100
H83	H	0.594547	-0.254427	0.223020
H84	H	0.540157	-0.308860	0.205270
H85	H	0.862708	-0.378771	0.251662
C86	C	0.786366	-0.602574	0.399924
C87	C	0.747993	-0.567508	0.456041
C88	C	0.728396	-0.624812	0.494166
H89	H	0.755611	-0.628171	0.363169
H90	H	0.829863	-0.639633	0.424487
H91	H	0.704502	-0.530463	0.431478
H92	H	0.778734	-0.541916	0.492812
H93	H	0.771893	-0.661871	0.518730
H94	H	0.697644	-0.650405	0.457405
H95	H	0.702364	-0.601029	0.532251
C96	C	1.348471	-0.676522	0.891459
C97	C	1.398061	-0.645308	0.947385
C98	C	1.459683	-0.704969	0.979419
H99	H	1.332847	-0.715069	0.915225
H100	H	1.372266	-0.699613	0.851482
H101	H	1.374269	-0.622229	0.987355
H102	H	1.413705	-0.606768	0.923638
H103	H	1.483478	-0.728060	0.939443
H104	H	1.444052	-0.743512	1.003182
H105	H	1.493340	-0.683798	1.017364
C106	C	0.466904	-0.638097	0.423450
C107	C	0.428527	-0.603015	0.479559
C108	C	0.408920	-0.660307	0.517690
H109	H	0.436149	-0.663696	0.386698
H110	H	0.510398	-0.675156	0.448022
H111	H	0.385039	-0.565970	0.454987
H112	H	0.459267	-0.577421	0.516326
H113	H	0.452413	-0.697366	0.542262
H114	H	0.378168	-0.685902	0.480932
H115	H	0.382885	-0.636513	0.555769
C116	C	1.287488	-1.058811	0.170108
C117	C	1.310631	-0.999711	0.138850
C118	C	1.351522	-1.031506	0.083671
H119	H	1.329584	-1.097772	0.194319
H120	H	1.257422	-1.081497	0.129660
H121	H	1.340696	-0.977038	0.179292
H122	H	1.268550	-0.960747	0.114625
H123	H	1.321456	-1.054192	0.043223
H124	H	1.393615	-1.070466	0.107888
H125	H	1.367224	-0.991411	0.062451
H126	H	1.145670	-0.806448	0.361226
H127	H	0.407788	-0.407241	0.270517
C128	C	1.053321	-1.236276	0.485871
C129	C	1.072230	-1.313098	0.460388
C130	C	1.042973	-1.361184	0.499765
H131	H	1.073034	-1.234690	0.540229
H132	H	1.000927	-1.218374	0.475496
H133	H	1.124614	-1.330995	0.470769
H134	H	1.052517	-1.314708	0.406035
H135	H	0.990578	-1.343282	0.489390
H136	H	1.062688	-1.359592	0.554121
H137	H	1.055793	-1.413312	0.482475
C138	C	1.107750	-0.841570	0.412129
C139	C	1.069838	-0.798777	0.343789
C140	C	1.058176	-0.718818	0.359227
H141	H	1.079176	-0.829292	0.450569
H142	H	1.154138	-0.828632	0.430506
H143	H	1.023458	-0.811709	0.325423
H144	H	1.098400	-0.811030	0.305340
H145	H	1.104564	-0.705881	0.377604
H146	H	1.029604	-0.706549	0.397669
H147	H	1.032458	-0.689773	0.312860
C148	C	0.996005	-0.334107	1.068743
C149	C	1.024446	-0.361737	1.145565
C150	C	0.980447	-0.318998	1.193660
H151	H	0.996150	-0.280459	1.066162
H152	H	0.946717	-0.340034	1.051842
H153	H	1.073720	-0.355803	1.162461
H154	H	1.024298	-0.415379	1.148170
H155	H	0.931159	-0.324925	1.176759
H156	H	0.980595	-0.265352	1.191072
H157	H	0.999734	-0.337744	1.245787
H158	H	1.188551	-1.194145	0.303613
C159	C	0.986089	-0.324602	0.774213
C160	C	0.951214	-0.290703	0.833307
C161	C	0.889621	-0.230913	0.801496
H162	H	1.001722	-0.286020	0.750511
H163	H	0.952324	-0.345629	0.736256
H164	H	0.984973	-0.269675	0.871250
H165	H	0.935564	-0.329265	0.857014
H166	H	0.855856	-0.251940	0.763540
H167	H	0.905261	-0.192337	0.777795
H168	H	0.865947	-0.207910	0.841585
C169	C	1.046682	-0.941756	0.494687
C170	C	1.023517	-1.000846	0.525932
C171	C	0.982573	-0.969033	0.581062
H172	H	1.076699	-0.919054	0.535153
H173	H	1.004595	-0.902800	0.470416
H174	H	1.065598	-1.039788	0.550204
H175	H	0.993490	-1.023554	0.485485
H176	H	0.940486	-0.930078	0.556790
H177	H	1.012595	-0.946332	0.621523
H178	H	0.966845	-1.009119	0.602263
H179	H	1.040164	-1.078158	0.503603
C180	C	1.216164	-0.548018	1.035410
C181	C	1.222025	-0.553662	1.115661
C182	C	1.283550	-0.613388	1.147790
H183	H	1.210343	-0.596157	1.011977
H184	H	1.259748	-0.536555	1.026211
H185	H	1.178451	-0.565129	1.124854
H186	H	1.227857	-0.505537	1.139114
H187	H	1.327135	-0.601925	1.138592
H188	H	1.277724	-0.661523	1.124352
H189	H	1.287539	-0.617220	1.202244
H190	H	1.294055	-0.922428	0.161236
H191	H	1.272988	-0.777443	0.189567
C192	C	1.375093	-0.702452	0.763587
C193	C	1.424685	-0.671245	0.819517
C194	C	1.486302	-0.730912	0.851552
H195	H	1.359463	-0.740996	0.787351
H196	H	1.398889	-0.725544	0.723612
H197	H	1.400893	-0.648164	0.859487
H198	H	1.440335	-0.632707	0.795773
H199	H	1.510097	-0.754005	0.811577
H200	H	1.470665	-0.769452	0.875312
H201	H	1.519960	-0.709745	0.889499
H202	H	0.927168	-0.594156	0.394155
C203	C	1.226540	-1.159006	0.252688
C204	C	1.264493	-1.201792	0.321020
C205	C	1.276241	-1.281752	0.305568
H206	H	1.180199	-1.172022	0.234310
H207	H	1.255122	-1.171209	0.214237
H208	H	1.235912	-1.189594	0.359458
H209	H	1.310841	-1.188800	0.339408
H210	H	1.304822	-1.293955	0.267116
H211	H	1.229896	-1.294760	0.287189
H212	H	1.301999	-1.310791	0.351926
C213	C	1.118269	-0.453271	0.630218
C214	C	1.054176	-0.470360	0.643935
C215	C	0.992538	-0.410681	0.611982
H216	H	1.124054	-0.405142	0.653701
H217	H	1.114143	-0.449336	0.575747
H218	H	1.058302	-0.474287	0.698396
H219	H	1.048367	-0.518479	0.620452
H220	H	0.988411	-0.406746	0.557511
H221	H	0.998330	-0.362556	0.635467
H222	H	0.949042	-0.422271	0.621278
C223	C	1.338610	-0.667393	0.596908
C224	C	1.338243	-0.746401	0.601008
C225	C	1.382312	-0.789420	0.553122
H226	H	1.319457	-0.648851	0.544709
H227	H	1.387916	-0.661531	0.613855
H228	H	1.288947	-0.752258	0.584057
H229	H	1.357402	-0.764966	0.653195
H230	H	1.431617	-0.783558	0.570069
H231	H	1.363154	-0.770872	0.500926
H232	H	1.382073	-0.843032	0.555903
H233	H	0.607712	-0.629682	0.417675
H234	H	1.082806	-0.418598	0.695744
H235	H	0.976228	-0.314901	0.910621
H236	H	1.251729	-0.582655	0.969715
