data_functionalizedCrystal
_audit_creation_method	'MofGen! by Chris Wilmer'
_symmetry_space_group_name_H-M	'P1'
_symmetry_Int_Tables_number	1
_symmetry_cell_setting	triclinic
loop_
_symmetry_equiv_pos_as_xyz
  x,y,z
_cell_length_a	16.992694
_cell_length_b	19.188930
_cell_length_c	18.266242
_cell_angle_alpha	90.011475
_cell_angle_beta	90.003271
_cell_angle_gamma	86.906503
loop_
_atom_site_label
_atom_site_type_symbol
_atom_site_fract_x
_atom_site_fract_y
_atom_site_fract_z
O1	O	1.039889	0.148019	0.060803
O2	O	1.539889	0.648019	0.560803
O3	O	0.811609	0.146396	0.060825
O4	O	1.311609	0.646396	0.560825
O5	O	0.932336	0.045937	0.060799
O6	O	1.432336	0.545937	0.560799
O7	O	0.919161	0.248478	0.060829
O8	O	1.419161	0.748478	0.560829
O9	O	0.932316	0.045931	-0.060963
O10	O	1.432316	0.545931	0.439037
O11	O	0.811589	0.146389	-0.060937
O12	O	1.311589	0.646389	0.439063
O13	O	1.039868	0.148013	-0.060959
O14	O	1.539868	0.648013	0.439041
Zn15	Zn	0.925725	0.147200	-0.080280
Zn16	Zn	1.425725	0.647200	0.419720
Zn17	Zn	0.925752	0.147209	0.080146
Zn18	Zn	1.425752	0.647209	0.580146
O19	O	0.919141	0.248471	-0.060933
O20	O	1.419141	0.748471	0.439067
C21	C	0.782393	0.144303	-0.000054
C22	C	1.282393	0.644303	0.499946
C23	C	0.695371	0.138070	-0.000046
C24	C	1.195371	0.638070	0.499954
C25	C	0.931900	0.019898	-0.000084
C26	C	1.431900	0.519898	0.499916
C27	C	0.930619	-0.057681	-0.000090
C28	C	1.430619	0.442319	0.499910
C29	C	0.644924	0.198210	-0.000038
C30	C	1.144924	0.698210	0.499962
C31	C	0.563157	0.192349	-0.000049
C32	C	1.063157	0.692349	0.499951
C33	C	0.531839	0.126348	-0.000063
C34	C	1.031839	0.626348	0.499937
C35	C	0.582292	0.066204	-0.000073
C36	C	1.082292	0.566204	0.499927
C37	C	0.664057	0.072066	-0.000068
C38	C	1.164057	0.572066	0.499932
C39	C	0.288325	0.102055	-0.000086
C40	C	0.788325	0.602055	0.499914
C41	C	0.206553	0.096199	-0.000090
C42	C	0.706553	0.596199	0.499910
C43	C	0.187424	0.222344	-0.000066
C44	C	0.687424	0.722344	0.499934
C45	C	0.269191	0.228200	-0.000056
C46	C	0.769191	0.728200	0.499944
C47	C	0.319637	0.168056	-0.000071
C48	C	0.819637	0.668056	0.499929
N49	N	0.448261	0.120356	-0.000072
N50	N	0.948261	0.620356	0.499928
N51	N	0.403214	0.174048	-0.000067
N52	N	0.903214	0.674048	0.499933
C53	C	1.001458	-0.098460	-0.000100
C54	C	1.501458	0.401540	0.499900
C55	C	1.000255	-0.171354	-0.000088
C56	C	1.500255	0.328646	0.499912
C57	C	0.928208	-0.203467	-0.000081
C58	C	1.428208	0.296533	0.499919
C59	C	0.857360	-0.162679	-0.000067
C60	C	1.357360	0.337321	0.499933
C61	C	0.858565	-0.089786	-0.000071
C62	C	1.358565	0.410214	0.499929
N63	N	0.873131	-0.314697	-0.041514
N64	N	1.373131	0.185303	0.458486
N65	N	0.871990	-0.383942	-0.041511
N66	N	1.371990	0.116058	0.458489
C67	C	0.924572	-0.423088	-0.000066
C68	C	1.424572	0.076912	0.499934
N69	N	0.978350	-0.390374	0.041367
N70	N	1.478350	0.109626	0.541367
N71	N	0.979492	-0.321122	0.041361
N72	N	1.479492	0.178878	0.541361
C73	C	0.926893	-0.282506	-0.000076
C74	C	1.426893	0.217494	0.499924
C75	C	0.994112	-0.542907	-0.000062
C76	C	1.494112	-0.042907	0.499938
C77	C	0.992905	-0.615803	-0.000046
C78	C	1.492905	-0.115803	0.499954
C79	C	0.850009	-0.607126	-0.000032
C80	C	1.350009	-0.107126	0.499968
C81	C	0.851217	-0.534232	-0.000041
C82	C	1.351217	-0.034232	0.499959
C83	C	0.923271	-0.502127	-0.000059
C84	C	1.423271	-0.002127	0.499941
C85	C	1.069084	0.150105	-0.000079
C86	C	1.569084	0.650105	0.499921
C87	C	1.156107	0.156338	-0.000081
C88	C	1.656107	0.656338	0.499919
C89	C	0.919578	0.274510	-0.000048
C90	C	1.419578	0.774510	0.499952
C91	C	0.920858	0.352090	-0.000037
C92	C	1.420858	0.852090	0.499963
N93	N	0.925713	0.147194	-0.189767
N94	N	1.425713	0.647194	0.310233
C95	C	0.979188	0.102735	-0.228087
C96	C	1.479188	0.602735	0.271913
C97	C	0.979193	0.102732	-0.304732
C98	C	1.479193	0.602732	0.195268
C99	C	0.925730	0.147200	-0.343054
C100	C	1.425730	0.647200	0.156946
C101	C	0.872244	0.191662	-0.304725
C102	C	1.372244	0.691662	0.195275
C103	C	0.872236	0.191659	-0.228081
C104	C	1.372236	0.691659	0.271919
N105	N	0.915540	0.208411	-0.463377
N106	N	1.415540	0.708411	0.036623
N107	N	0.915553	0.208413	-0.536185
N108	N	1.415553	0.708413	-0.036185
C109	C	0.925752	0.147212	-0.573977
C110	C	1.425752	0.647212	-0.073977
N111	N	0.935953	0.086008	-0.536210
N112	N	1.435953	0.586008	-0.036210
N113	N	0.935944	0.086008	-0.463395
N114	N	1.435944	0.586008	0.036605
C115	C	0.925733	0.147208	-0.426161
C116	C	1.425733	0.647208	0.073839
C117	C	0.979236	0.102746	-0.695404
C118	C	1.479236	0.602746	-0.195404
C119	C	0.979235	0.102742	-0.772050
C120	C	1.479235	0.602742	-0.272050
C121	C	0.872290	0.191678	-0.772041
C122	C	1.372290	0.691678	-0.272041
C123	C	0.872287	0.191676	-0.695396
C124	C	1.372287	0.691676	-0.195396
C125	C	0.925764	0.147211	-0.657082
C126	C	1.425764	0.647211	-0.157082
N127	N	0.925771	0.147210	0.189633
N128	N	1.425771	0.647210	0.689633
H129	H	0.670416	0.251955	-0.000026
H130	H	1.170416	0.751955	0.499974
H131	H	0.329389	0.053082	-0.000098
H132	H	0.829389	0.553082	0.499902
O133	O	1.031204	0.059484	-0.658294
O134	O	1.531204	0.559484	-0.158294
C135	C	1.137306	-0.028700	-0.666390
C136	C	1.637306	0.471300	-0.166390
C137	C	1.078484	0.020248	-0.708505
C138	C	1.578484	0.520248	-0.208505
H139	H	1.175558	-0.060424	-0.706968
H140	H	1.675558	0.439576	-0.206968
H141	H	1.103620	-0.065524	-0.630540
H142	H	1.603620	0.434476	-0.130540
H143	H	1.176325	0.003655	-0.630476
H144	H	1.676325	0.503655	-0.130476
H145	H	1.039450	-0.012051	-0.744459
H146	H	1.539450	0.487949	-0.244459
H147	H	1.112219	0.057074	-0.744309
H148	H	1.612219	0.557074	-0.244309
O149	O	0.820247	0.234800	-0.809224
O150	O	1.320247	0.734800	-0.309224
C151	C	0.683800	0.268056	-0.832648
C152	C	1.183800	0.768056	-0.332648
C153	C	0.742657	0.219167	-0.790502
C154	C	1.242657	0.719167	-0.290502
H155	H	0.621056	0.255445	-0.817515
H156	H	1.121056	0.755445	-0.317515
H157	H	0.692920	0.260419	-0.894019
H158	H	1.192920	0.760419	-0.394019
H159	H	0.693859	0.324539	-0.817571
H160	H	1.193859	0.824539	-0.317571
H161	H	0.732633	0.162666	-0.805518
H162	H	1.232633	0.662666	-0.305518
H163	H	0.733523	0.226865	-0.729141
H164	H	1.233523	0.726865	-0.229141
O165	O	0.551742	0.002144	-0.000056
O166	O	1.051742	0.502144	0.499944
C167	C	0.434260	-0.062793	-0.000116
C168	C	0.934260	0.437207	0.499884
C169	C	0.468750	0.009799	-0.000121
C170	C	0.968750	0.509799	0.499879
H171	H	0.367157	-0.056628	-0.000184
H172	H	0.867157	0.443372	0.499816
H173	H	0.454998	-0.092755	0.050849
H174	H	0.954998	0.407245	0.550849
H175	H	0.455100	-0.092740	-0.051066
H176	H	0.955100	0.407260	0.448934
H177	H	0.447925	0.039805	0.050795
H178	H	0.947925	0.539805	0.550795
H179	H	0.448015	0.039709	-0.051119
H180	H	0.948015	0.539709	0.448881
O181	O	0.514077	0.250720	0.000064
O182	O	1.014077	0.750720	0.500064
C183	C	0.410698	0.317335	0.063184
C184	C	0.910698	0.817335	0.563184
C185	C	0.466222	0.251190	0.063137
C186	C	0.966222	0.751190	0.563137
H187	H	0.372005	0.317744	0.114181
H188	H	0.872005	0.817744	0.614181
H189	H	0.371885	0.317760	0.012260
H190	H	0.871885	0.817760	0.512260
H191	H	0.447148	0.365501	0.063166
H192	H	0.947148	0.865501	0.563166
H193	H	0.429834	0.202989	0.063181
H194	H	0.929834	0.702989	0.563181
H195	H	0.505038	0.250827	0.114057
H196	H	1.005038	0.750827	0.614057
H197	H	0.146343	0.271310	-0.000056
H198	H	0.646343	0.771310	0.499944
H199	H	0.798699	-0.188829	-0.000059
H200	H	1.298699	0.311171	0.499941
H201	H	0.800878	-0.056584	-0.000063
H202	H	1.300878	0.443416	0.499937
H203	H	0.294684	0.281944	-0.000036
H204	H	0.794684	0.781944	0.499964
O205	O	0.782455	-0.494541	-0.000136
O206	O	1.282455	0.005459	0.499864
C207	C	0.700857	-0.407252	-0.063235
C208	C	1.200857	0.092748	0.436765
C209	C	0.778769	-0.452149	-0.063214
C210	C	1.278769	0.047851	0.436786
H211	H	0.697844	-0.372977	-0.114236
H212	H	1.197844	0.127023	0.385764
H213	H	0.697848	-0.372849	-0.012314
H214	H	1.197848	0.127151	0.487686
H215	H	0.649167	-0.442735	-0.063192
H216	H	1.149167	0.057265	0.436808
H217	H	0.830503	-0.416719	-0.063283
H218	H	1.330503	0.083281	0.436717
H219	H	0.781709	-0.486558	-0.114130
H220	H	1.281709	0.013442	0.385870
H221	H	0.791347	-0.633271	-0.000022
H222	H	1.291347	-0.133271	0.499978
O223	O	0.712952	0.013575	-0.000039
O224	O	1.212952	0.513575	0.499961
C225	C	0.723302	-0.112162	-0.000103
C226	C	1.223302	0.387838	0.499897
C227	C	0.667840	-0.045977	-0.000115
C228	C	1.167840	0.454023	0.499885
H229	H	0.686851	-0.160326	-0.000180
H230	H	1.186851	0.339674	0.499820
H231	H	0.762046	-0.112618	0.050868
H232	H	1.262046	0.387382	0.550868
H233	H	0.762076	-0.112533	-0.051046
H234	H	1.262076	0.387467	0.448954
H235	H	0.629016	-0.045562	0.050794
H236	H	1.129016	0.454438	0.550794
H237	H	0.629150	-0.045546	-0.051120
H238	H	1.129150	0.454454	0.448880
H239	H	1.052782	-0.516766	-0.000074
H240	H	1.552782	-0.016766	0.499926
H241	H	1.050593	-0.649004	-0.000050
H242	H	1.550593	-0.149004	0.499950
H243	H	1.022730	0.066527	-0.196894
H244	H	1.522730	0.566527	0.303106
O245	O	1.031214	0.059518	-0.341854
O246	O	1.531214	0.559518	0.158146
C247	C	1.137252	-0.028726	-0.333780
C248	C	1.637252	0.471274	0.166220
C249	C	1.078398	0.020193	-0.291652
C250	C	1.578398	0.520193	0.208348
H251	H	1.175405	-0.060543	-0.293211
H252	H	1.675405	0.439457	0.206789
H253	H	1.176365	0.003586	-0.369631
H254	H	1.676365	0.503586	0.130369
H255	H	1.103514	-0.065471	-0.369695
H256	H	1.603514	0.434529	0.130305
H257	H	1.112072	0.056948	-0.255698
H258	H	1.612072	0.556948	0.244302
H259	H	1.039287	-0.012163	-0.255848
H260	H	1.539287	0.487837	0.244152
H261	H	0.828688	0.227863	-0.196880
H262	H	1.328688	0.727863	0.303120
H263	H	1.022779	0.066534	-0.803251
H264	H	1.522779	0.566534	-0.303251
H265	H	0.828713	0.227867	-0.335930
H266	H	1.328713	0.727867	0.164070
H267	H	0.181058	0.042450	-0.000100
H268	H	0.681058	0.542450	0.499900
O269	O	0.820424	0.234972	-0.658202
O270	O	1.320424	0.734972	-0.158202
C271	C	0.774035	0.353765	-0.634767
C272	C	1.274035	0.853765	-0.134767
C273	C	0.832831	0.304812	-0.676920
C274	C	1.332831	0.804812	-0.176920
H275	H	0.784035	0.410240	-0.649896
H276	H	1.284035	0.910240	-0.149896
H277	H	0.783209	0.346188	-0.573397
H278	H	1.283209	0.846188	-0.073397
H279	H	0.711289	0.341098	-0.649841
H280	H	1.211289	0.841098	-0.149841
H281	H	0.895600	0.317448	-0.661907
H282	H	1.395600	0.817448	-0.161907
H283	H	0.823588	0.312398	-0.738280
H284	H	1.323588	0.812398	-0.238280
H285	H	1.060129	-0.072325	-0.000113
H286	H	1.560129	0.427675	0.499887
H287	H	1.057942	-0.204563	-0.000094
H288	H	1.557942	0.295437	0.499906
