data_functionalizedCrystal
_audit_creation_method	'MofGen! by Chris Wilmer'
_symmetry_space_group_name_H-M	'P1'
_symmetry_Int_Tables_number	1
_symmetry_cell_setting	triclinic
loop_
_symmetry_equiv_pos_as_xyz
  x,y,z
_cell_length_a	10.686220
_cell_length_b	10.686285
_cell_length_c	10.685314
_cell_angle_alpha	89.696502
_cell_angle_beta	81.642441
_cell_angle_gamma	90.345431
loop_
_atom_site_label
_atom_site_type_symbol
_atom_site_fract_x
_atom_site_fract_y
_atom_site_fract_z
Zn1	Zn	1.918443	-0.396007	0.536171
Zn2	Zn	1.950488	-0.587114	0.308092
Zn3	Zn	1.722462	-0.396110	0.340198
Zn4	Zn	1.724944	-0.621623	0.533668
O5	O	1.829084	-0.500213	0.429532
O6	O	2.099103	-0.406872	0.493527
O7	O	1.932612	-0.547377	0.135931
O8	O	1.734009	-0.221739	0.380678
O9	O	2.122647	-0.547278	0.325958
O10	O	1.877996	-0.221663	0.524659
O11	O	1.765082	-0.407047	0.159519
O12	O	1.546382	-0.440510	0.378251
O13	O	1.738241	-0.606094	0.710420
O14	O	1.548206	-0.606194	0.520393
O15	O	1.880403	-0.440334	0.712259
O16	O	1.935019	-0.766049	0.323531
O17	O	1.769313	-0.791402	0.489261
C18	C	1.501553	-0.527108	0.452535
C19	C	1.361433	-0.538647	0.462403
C20	C	1.855945	-0.823934	0.402665
C21	C	1.867549	-0.962417	0.391206
C22	C	2.157895	-0.473214	0.406440
C23	C	2.298015	-0.461708	0.396600
C24	C	1.806024	-0.527052	0.758362
C25	C	1.796197	-0.538489	0.898490
C26	C	1.802151	-0.175228	0.456529
C27	C	1.790674	-0.036739	0.468034
C28	C	1.852120	-0.473383	0.101984
C29	C	1.862162	-0.461575	-0.038131
H30	H	1.308528	-0.613356	0.526285
H31	H	1.350915	-0.387012	0.332713
N32	N	1.946934	-0.362751	0.891745
H33	H	1.989559	-0.313053	0.953945
H34	H	1.894627	-0.304891	0.845511
N35	N	1.691727	-0.980703	0.566778
H36	H	1.697187	-0.886401	0.561246
H37	H	1.706830	-1.009084	0.653609
H38	H	1.942238	-1.004736	0.316648
N39	N	1.711447	-0.637323	0.968606
H40	H	1.668823	-0.687025	0.906408
H41	H	1.645119	-0.595807	1.031557
