data_functionalizedCrystal
_audit_creation_method	'MofGen! by Chris Wilmer'
_symmetry_space_group_name_H-M	'P1'
_symmetry_Int_Tables_number	1
_symmetry_cell_setting	triclinic
loop_
_symmetry_equiv_pos_as_xyz
  x,y,z
_cell_length_a	14.908571
_cell_length_b	16.625546
_cell_length_c	16.625527
_cell_angle_alpha	89.912139
_cell_angle_beta	86.644199
_cell_angle_gamma	86.718495
loop_
_atom_site_label
_atom_site_type_symbol
_atom_site_fract_x
_atom_site_fract_y
_atom_site_fract_z
Zn1	Zn	1.379617	-0.391733	-0.526919
Zn2	Zn	1.879617	0.108267	-0.026919
Zn3	Zn	1.379405	-0.526701	-0.392070
Zn4	Zn	1.879405	-0.026701	0.107930
Zn5	Zn	1.228641	-0.384106	-0.384327
Zn6	Zn	1.728641	0.115894	0.115673
Zn7	Zn	1.228711	-0.518741	-0.519102
Zn8	Zn	1.728711	-0.018741	-0.019102
O9	O	1.304094	-0.455320	-0.455604
O10	O	1.804094	0.044680	0.044396
O11	O	1.505839	-0.416161	-0.515542
O12	O	2.005839	0.083839	-0.015542
O13	O	1.359288	-0.507925	-0.278204
O14	O	1.859288	-0.007925	0.221796
O15	O	1.248728	-0.272289	-0.403273
O16	O	1.748728	0.227711	0.096727
O17	O	1.505684	-0.515321	-0.416469
O18	O	2.005684	-0.015321	0.083531
O19	O	1.359649	-0.277892	-0.508034
O20	O	1.859649	0.222108	-0.008034
O21	O	1.248522	-0.403161	-0.272515
O22	O	1.748522	0.096839	0.227485
O23	O	1.102400	-0.395443	-0.395694
O24	O	1.602400	0.104557	0.104306
O25	O	1.248848	-0.501754	-0.632978
O26	O	1.748848	-0.001754	-0.132978
O27	O	1.102452	-0.494358	-0.494713
O28	O	1.602452	0.005642	0.005287
O29	O	1.359717	-0.408442	-0.638721
O30	O	1.859717	0.091558	-0.138721
O31	O	1.359356	-0.638474	-0.408890
O32	O	1.859356	-0.138474	0.091110
O33	O	1.248642	-0.632626	-0.502221
O34	O	1.748642	-0.132626	-0.002221
C35	C	1.069691	-0.443209	-0.443515
C36	C	1.569691	0.056791	0.056485
C37	C	0.969412	-0.438048	-0.438363
C38	C	1.469412	0.061952	0.061637
C39	C	0.781080	-0.531509	-0.531650
C40	C	1.281080	-0.031509	-0.031650
C41	C	0.686860	-0.526662	-0.526812
C42	C	1.186860	-0.026662	-0.026812
C43	C	0.686749	-0.423502	-0.423852
C44	C	1.186749	0.076498	0.076148
C45	C	0.780969	-0.428349	-0.428690
C46	C	1.280969	0.071651	0.071310
C47	C	0.828132	-0.482355	-0.482590
C48	C	1.328132	0.017645	0.017410
C49	C	0.922354	-0.487206	-0.487424
C50	C	1.422354	0.012794	0.012576
C51	C	0.922241	-0.384043	-0.384469
C52	C	1.422241	0.115957	0.115531
C53	C	0.828021	-0.379196	-0.379630
C54	C	1.328021	0.120804	0.120370
C55	C	1.304008	-0.664807	-0.455566
C56	C	1.804008	-0.164807	0.044434
C57	C	1.304054	-0.754430	-0.455581
C58	C	1.804054	-0.254430	0.044419
C59	C	1.304212	-1.082614	-0.455673
C60	C	1.804212	-0.582614	0.044327
C61	C	1.304165	-0.991303	-0.455650
C62	C	1.804165	-0.491303	0.044350
C63	C	1.304132	-0.918525	-0.455627
C64	C	1.804132	-0.418525	0.044373
C65	C	1.304087	-0.827208	-0.455604
C66	C	1.804087	-0.327208	0.044396
C67	C	1.539412	-0.467479	-0.467741
C68	C	2.039412	0.032521	0.032259
C69	C	1.639691	-0.472661	-0.472913
C70	C	2.139691	0.027339	0.027087
C71	C	1.304314	-0.455061	-0.665925
C72	C	1.804314	0.044939	-0.165925
C73	C	1.304408	-0.454950	-0.755551
C74	C	1.804408	0.045050	-0.255551
C75	C	1.304204	-0.245017	-0.455662
C76	C	1.804204	0.254983	0.044338
C77	C	1.304251	-0.155398	-0.455686
C78	C	1.804251	0.344602	0.044314
C79	C	1.303926	-0.455524	-0.246105
C80	C	1.803926	0.044476	0.253895
C81	C	1.304007	-0.455416	-0.156488
C82	C	1.804007	0.044584	0.343512
C83	C	1.304342	-0.455038	0.171670
C84	C	1.804342	0.044962	0.671670
C85	C	1.304252	-0.455146	0.080366
C86	C	1.804252	0.044854	0.580366
C87	C	1.304174	-0.455228	0.007594
C88	C	1.804174	0.044772	0.507594
C89	C	1.304085	-0.455334	-0.083716
C90	C	1.804085	0.044666	0.416284
H91	H	0.819481	-0.575487	-0.575534
H92	H	1.319481	-0.075487	-0.075534
O93	O	0.636107	-0.579747	-0.579654
O94	O	1.136107	-0.079747	-0.079654
H95	H	0.684734	-0.618142	-0.617915
H96	H	1.184734	-0.118142	-0.117915
H97	H	0.789608	-0.335224	-0.335749
H98	H	1.289608	0.164776	0.164251
H99	H	0.648333	-0.379528	-0.379974
H100	H	1.148333	0.120472	0.120026
O101	O	0.972987	-0.331019	-0.331551
O102	O	1.472987	0.168981	0.168449
H103	H	1.046429	-0.343458	-0.343972
H104	H	1.546429	0.156542	0.156028
H105	H	0.960753	-0.531182	-0.531311
H106	H	1.460753	-0.031182	-0.031311
