data_functionalizedCrystal
_audit_creation_method	'MofGen! by Chris Wilmer'
_symmetry_space_group_name_H-M	'P1'
_symmetry_Int_Tables_number	1
_symmetry_cell_setting	triclinic
loop_
_symmetry_equiv_pos_as_xyz
  x,y,z
_cell_length_a	13.033293
_cell_length_b	15.299816
_cell_length_c	13.032268
_cell_angle_alpha	107.904846
_cell_angle_beta	89.079182
_cell_angle_gamma	88.701182
loop_
_atom_site_label
_atom_site_type_symbol
_atom_site_fract_x
_atom_site_fract_y
_atom_site_fract_z
Zn1	Zn	1.547015	-0.282160	-0.844279
Zn2	Zn	1.591185	-0.412492	-0.701313
Zn3	Zn	1.396051	-0.277371	-0.649389
Zn4	Zn	1.403941	-0.450299	-0.859767
O5	O	1.484548	-0.355580	-0.763687
O6	O	1.694415	-0.285631	-0.840563
O7	O	1.580483	-0.376741	-0.546549
O8	O	1.394290	-0.151091	-0.647030
O9	O	1.726867	-0.381385	-0.735526
O10	O	1.505202	-0.154609	-0.790215
O11	O	1.437119	-0.277468	-0.508401
O12	O	1.255557	-0.314128	-0.662048
O13	O	1.407737	-0.445822	-1.005588
O14	O	1.261354	-0.441178	-0.816611
O15	O	1.512853	-0.322291	-0.994210
O16	O	1.588134	-0.544422	-0.750544
O17	O	1.450567	-0.572199	-0.866959
C18	C	1.221755	-0.381237	-0.735376
C19	C	1.109333	-0.392237	-0.723295
C20	C	1.043159	-0.349862	-0.769997
C21	C	0.926964	-0.361231	-0.757512
C22	C	1.525025	-0.591219	-0.816092
C23	C	1.542429	-0.692021	-0.838557
C24	C	1.360779	-0.969092	-0.603559
C25	C	1.344421	-0.874385	-0.582455
C26	C	1.393922	-0.828789	-0.646478
C27	C	1.459783	-0.877911	-0.731610
C28	C	1.476137	-0.972629	-0.752722
C29	C	1.509280	-0.832325	-0.795641
C30	C	1.575141	-0.881447	-0.880774
C31	C	1.591492	-0.976156	-0.901881
C32	C	1.541991	-1.021752	-0.837858
C33	C	1.492926	-0.737607	-0.774529
C34	C	1.608284	-0.741144	-0.923692
C35	C	1.624642	-0.835851	-0.944797
C36	C	1.748367	-0.329825	-0.792109
C37	C	1.860791	-0.318849	-0.804221
C38	C	1.456248	-0.388808	-1.039314
C39	C	1.444188	-0.402967	-1.156769
C40	C	1.443939	-0.119022	-0.711103
C41	C	1.426634	-0.018215	-0.688695
C42	C	1.490821	-0.348159	-1.203505
C43	C	1.478358	-0.362793	-1.324901
C44	C	1.512785	-0.322411	-0.489124
C45	C	1.524997	-0.307977	-0.371633
H46	H	1.072528	-0.305163	-0.819220
C47	C	1.469486	-0.680417	-0.599736
C48	C	1.375950	-0.724683	-0.623280
H49	H	1.458390	-0.616144	-0.585417
H50	H	1.497712	-0.691922	-0.538228
H51	H	1.515785	-0.703155	-0.659607
H52	H	1.329654	-0.701950	-0.563405
H53	H	1.347710	-0.713171	-0.684794
H54	H	0.897600	-0.405927	-0.708279
H55	H	0.890153	-0.274145	-0.853445
C56	C	1.417798	-0.565443	-1.219780
C57	C	1.377834	-0.480942	-1.224065
H58	H	1.376827	-0.613581	-1.261318
H59	H	1.486186	-0.574234	-1.248091
H60	H	1.417467	-0.565825	-1.147023
H61	H	1.378172	-0.480557	-1.296822
H62	H	1.309428	-0.472149	-1.195758
C63	C	0.962262	-0.452165	-0.657339
C64	C	1.069697	-0.452581	-0.656842
H65	H	0.937798	-0.489426	-0.616318
H66	H	0.936097	-0.391042	-0.626586
H67	H	0.940031	-0.475763	-0.729453
H68	H	1.091929	-0.428977	-0.584728
H69	H	1.095872	-0.513716	-0.687591
H70	H	1.678267	-0.875860	-1.014113
C71	C	1.412508	-0.440181	-1.499434
C72	C	1.412007	-0.440774	-1.392200
H73	H	1.371554	-0.488327	-1.540982
H74	H	1.385399	-0.382856	-1.502324
H75	H	1.480914	-0.448971	-1.527727
H76	H	1.343602	-0.431977	-1.363905
H77	H	1.439112	-0.498112	-1.389305
H78	H	1.320477	-1.006226	-0.551445
C79	C	1.496603	-0.209927	-1.053648
C80	C	1.557179	-0.270191	-1.136201
H81	H	1.537575	-0.161796	-1.012097
H82	H	1.442204	-0.184687	-1.084245
H83	H	1.468963	-0.242427	-1.008606
H84	H	1.584813	-0.237692	-1.181248
H85	H	1.611597	-0.295433	-1.105604
C86	C	1.232055	-0.880407	-0.437128
C87	C	1.272042	-0.820391	-0.488872
H88	H	1.187376	-0.847069	-0.379345
H89	H	1.194983	-0.926687	-0.487198
H90	H	1.286688	-0.908156	-0.409733
H91	H	1.217409	-0.792646	-0.516274
H92	H	1.309115	-0.774094	-0.438793
H93	H	1.555311	-1.098870	-0.855033
H94	H	1.439301	-0.697621	-0.705214
C95	C	1.703896	-0.970133	-1.047188
C96	C	1.663892	-1.030151	-0.995455
H97	H	1.748599	-1.003467	-1.104949
H98	H	1.649280	-0.942394	-1.074603
H99	H	1.740953	-0.923842	-0.997096
H100	H	1.626828	-1.076439	-1.045545
H101	H	1.718516	-1.057905	-0.968041
H102	H	1.648590	-0.704021	-0.975828
H103	H	1.574145	-0.250212	-1.321775
