data_functionalizedCrystal
_audit_creation_method	'MofGen! by Chris Wilmer'
_symmetry_space_group_name_H-M	'P1'
_symmetry_Int_Tables_number	1
_symmetry_cell_setting	triclinic
loop_
_symmetry_equiv_pos_as_xyz
  x,y,z
_cell_length_a	13.635800
_cell_length_b	27.923496
_cell_length_c	27.924317
_cell_angle_alpha	82.401569
_cell_angle_beta	98.979858
_cell_angle_gamma	81.036054
loop_
_atom_site_label
_atom_site_type_symbol
_atom_site_fract_x
_atom_site_fract_y
_atom_site_fract_z
V1	V	1.977261	-0.067876	0.151590
O2	O	1.983135	0.002491	0.148388
O3	O	1.942275	-0.133845	0.150856
O4	O	1.942323	-0.067170	0.217565
O5	O	1.983086	-0.064646	0.081218
V6	V	2.221865	-0.059419	0.143136
O7	O	2.101657	-0.086426	0.170134
O8	O	2.322567	-0.040869	0.124592
O9	O	2.145248	0.006550	0.143869
O10	O	2.274689	-0.129786	0.146337
O11	O	2.274738	-0.062650	0.213507
O12	O	2.145199	-0.060125	0.077161
V13	V	2.477261	-0.067876	0.151590
O14	O	2.483135	0.002491	0.148388
O15	O	2.442275	-0.133845	0.150856
O16	O	2.442323	-0.067170	0.217565
O17	O	2.483086	-0.064646	0.081218
V18	V	2.721865	-0.059419	0.143136
O19	O	2.601657	-0.086426	0.170134
O20	O	2.822567	-0.040869	0.124592
O21	O	2.645248	0.006550	0.143869
O22	O	2.774689	-0.129786	0.146337
O23	O	2.774738	-0.062650	0.213507
O24	O	2.645199	-0.060125	0.077161
C25	C	1.862498	-0.149917	0.148543
C26	C	1.874464	-0.203850	0.148384
C27	C	2.039036	-0.540785	0.149878
C28	C	2.084068	-0.743491	0.149301
O29	O	2.166647	-0.771817	0.151316
N30	N	1.999450	-0.766354	0.146794
C31	C	1.903567	-0.738537	0.144435
O32	O	1.832629	-0.762635	0.142295
C33	C	1.858537	-0.535832	0.145016
C34	C	1.943160	-0.512972	0.147518
C35	C	2.123652	-0.517924	0.152381
C36	C	2.112393	-0.467251	0.152522
C37	C	2.016517	-0.439437	0.150162
C38	C	1.931901	-0.462298	0.147660
C39	C	1.762656	-0.508017	0.142660
C40	C	1.751406	-0.457338	0.142807
C41	C	1.836030	-0.434477	0.145309
C42	C	1.824767	-0.383810	0.145441
N43	N	1.909385	-0.360948	0.147947
C44	C	2.005260	-0.388761	0.150308
C45	C	1.927215	-0.844960	0.144129
C46	C	1.938472	-0.895635	0.143983
C47	C	2.118973	-0.900587	0.148850
C48	C	2.107714	-0.849909	0.148993
C49	C	2.011833	-0.822097	0.146636
C50	C	1.981608	-0.282342	0.150605
C51	C	1.970340	-0.231663	0.150744
C52	C	1.789841	-0.226717	0.145880
C53	C	1.801107	-0.277391	0.145738
C54	C	1.896999	-0.305203	0.148102
O55	O	1.742223	-0.355455	0.143432
O56	O	2.076188	-0.364656	0.152459
C57	C	2.050295	-0.591459	0.149737
C58	C	1.965679	-0.614320	0.147235
C59	C	1.869803	-0.586506	0.144874
C60	C	1.976936	-0.664995	0.147088
C61	C	2.072811	-0.692809	0.149449
C62	C	2.157429	-0.669946	0.151956
C63	C	2.146170	-0.619272	0.152097
C64	C	1.785185	-0.609369	0.142367
C65	C	1.796451	-0.660043	0.142225
C66	C	1.892327	-0.687856	0.144586
C67	C	1.862560	-0.064865	0.233636
C68	C	1.874565	-0.064725	0.287573
C69	C	2.056695	0.022619	0.146181
C70	C	2.034348	0.076551	0.146344
C71	C	2.056634	-0.062432	0.061087
C72	C	2.034249	-0.062570	0.007150
C73	C	2.362498	-0.149917	0.148543
C74	C	2.374464	-0.203850	0.148384
C75	C	1.971622	-0.108042	0.679853
C76	C	1.926645	-0.108646	0.477152
O77	O	1.930659	-0.146538	0.457015
N78	N	1.909416	-0.064257	0.444664
C79	C	1.903424	-0.019712	0.462854
O80	O	1.887727	0.018030	0.430570
C81	C	1.948394	-0.019108	0.665554
C82	C	1.965634	-0.063501	0.698040
C83	C	1.988860	-0.152431	0.712338
C84	C	2.000109	-0.152280	0.763010
C85	C	1.994120	-0.107739	0.781197
C86	C	1.976883	-0.063349	0.748712
C87	C	1.942395	0.025436	0.683743
C88	C	1.953637	0.025584	0.734421
C89	C	1.970876	-0.018809	0.766907
C90	C	1.982143	-0.018657	0.817571
N91	N	1.999372	-0.063047	0.850059
C92	C	2.005361	-0.107588	0.831872
C93	C	1.879817	-0.020033	0.356434
C94	C	1.868576	-0.020184	0.305760
C95	C	1.891796	-0.109118	0.320061
C96	C	1.903044	-0.108967	0.370737
C97	C	1.897046	-0.064423	0.388922
C98	C	2.028985	-0.107266	0.938287
C99	C	2.040238	-0.107111	0.988963
C100	C	2.017011	-0.018177	0.974657
C101	C	2.005765	-0.018332	0.923985
C102	C	2.011749	-0.062880	0.905802
O103	O	1.978129	0.019216	0.837742
O104	O	2.021036	-0.145324	0.864163
C105	C	1.960373	-0.108193	0.629180
C106	C	1.943136	-0.063804	0.596695
C107	C	1.937147	-0.019263	0.614882
C108	C	1.931895	-0.063955	0.546020
C109	C	1.937884	-0.108496	0.527833
C110	C	1.955113	-0.152886	0.560321
C111	C	1.966362	-0.152734	0.610993
C112	C	1.919918	0.025127	0.582394
C113	C	1.908671	0.024972	0.531723
C114	C	1.914659	-0.019569	0.513536
C115	C	2.362560	-0.064865	0.233636
C116	C	2.374565	-0.064725	0.287573
C117	C	2.556695	0.022619	0.146181
C118	C	2.534348	0.076551	0.146344
C119	C	2.556634	-0.062432	0.061087
C120	C	2.534249	-0.062570	0.007150
C121	C	2.470340	-0.231663	0.150744
C122	C	2.481599	-0.282340	0.150602
C123	C	2.396981	-0.305203	0.148095
C124	C	2.301098	-0.277386	0.145736
C125	C	2.289841	-0.226710	0.145882
C126	C	2.470457	-0.067090	0.315386
C127	C	2.481749	-0.066951	0.366065
C128	C	2.397148	-0.064451	0.388930
C129	C	2.301248	-0.062084	0.361112
C130	C	2.289956	-0.062219	0.310434
C131	C	2.610966	0.104364	0.143984
C132	C	2.589978	0.155041	0.144129
C133	C	2.492373	0.177904	0.146637
C134	C	2.415749	0.150087	0.148995
C135	C	2.436736	0.099412	0.148847
C136	C	2.436618	-0.065065	-0.015702
C137	C	2.415569	-0.065189	-0.066383
C138	C	2.492153	-0.062821	-0.094210
C139	C	2.589791	-0.060325	-0.071354
C140	C	2.610838	-0.060197	-0.020675
H141	H	2.039254	-0.213053	0.152780
H142	H	2.475005	-0.062932	-0.135474
H143	H	2.232206	-0.296008	0.143695
H144	H	2.406161	-0.346467	0.147976
H145	H	2.181305	-0.448643	0.154563
H146	H	2.652140	-0.058396	-0.094019
H147	H	2.059691	-0.304981	0.152531
H148	H	2.211869	-0.060294	0.287792
H149	H	1.727532	-0.678650	0.140185
H150	H	2.211766	-0.204068	0.143957
H151	H	2.232370	-0.060049	0.379737
H152	H	2.652381	0.177683	0.142210
H153	H	2.336062	-0.067221	-0.084984
H154	H	2.690447	0.085757	0.141943
H155	H	1.693743	-0.526620	0.140619
H156	H	2.690341	-0.058169	-0.002073
H157	H	1.707112	-0.586728	0.140446
H158	H	2.539355	-0.069127	0.296777
H159	H	2.559843	-0.068881	0.388707
H160	H	2.559678	-0.304982	0.152522
H161	H	2.406357	-0.064342	0.430196
H162	H	2.475298	0.219167	0.146757
H163	H	2.336278	0.168709	0.151036
H164	H	2.054277	-0.143263	1.015412
H165	H	2.374247	-0.066992	0.006948
H166	H	2.201728	-0.540565	0.154305
H167	H	2.374341	0.076769	0.150772
H168	H	2.197039	-0.923240	0.150767
H169	H	2.176623	-0.831300	0.151029
H170	H	1.869560	-0.914243	0.141939
H171	H	1.673329	-0.434696	0.140890
H172	H	1.849135	-0.822319	0.142209
H173	H	1.732201	-0.296005	0.143704
H174	H	2.215081	-0.600664	0.154134
H175	H	2.235495	-0.692600	0.153873
H176	H	1.711779	-0.204062	0.143956
H177	H	2.014144	-0.188429	0.789456
H178	H	1.993735	-0.188703	0.697537
H179	H	1.917078	-0.145116	0.397184
H180	H	1.896671	-0.145385	0.305245
H181	H	1.854554	0.015965	0.279314
H182	H	1.874928	0.016243	0.371235
H183	H	1.928359	0.061586	0.657301
H184	H	1.948757	0.061858	0.749224
H185	H	1.991739	0.017816	0.897534
H186	H	2.012142	0.018087	0.989474
H187	H	1.980398	-0.188883	0.637440
H188	H	2.033856	-0.143542	0.923488
H189	H	1.959992	-0.189153	0.545505
H190	H	1.894641	0.061125	0.505276
H191	H	1.915034	0.061398	0.597196
H192	H	2.539251	-0.213055	0.152782
