data_functionalizedCrystal
_audit_creation_method	'MofGen! by Chris Wilmer'
_symmetry_space_group_name_H-M	'P1'
_symmetry_Int_Tables_number	1
_symmetry_cell_setting	triclinic
loop_
_symmetry_equiv_pos_as_xyz
  x,y,z
_cell_length_a	12.759401
_cell_length_b	12.594516
_cell_length_c	12.759393
_cell_angle_alpha	89.969200
_cell_angle_beta	89.980903
_cell_angle_gamma	90.011799
loop_
_atom_site_label
_atom_site_type_symbol
_atom_site_fract_x
_atom_site_fract_y
_atom_site_fract_z
Zn1	Zn	1.606276	-0.423680	-0.594004
Zn2	Zn	2.106276	0.076320	-0.094004
Zn3	Zn	1.606180	-0.601699	-0.418326
Zn4	Zn	2.106180	-0.101699	0.081674
Zn5	Zn	1.430578	-0.423735	-0.418341
Zn6	Zn	1.930578	0.076265	0.081659
Zn7	Zn	1.430576	-0.601617	-0.593966
Zn8	Zn	1.930576	-0.101617	-0.093966
O9	O	1.518403	-0.512683	-0.506159
O10	O	2.018403	-0.012683	-0.006159
O11	O	1.753285	-0.447306	-0.570709
O12	O	2.253285	0.052694	-0.070709
O13	O	1.582846	-0.578149	-0.271307
O14	O	2.082846	-0.078149	0.228693
O15	O	1.453927	-0.274782	-0.441666
O16	O	1.953927	0.225218	0.058334
O17	O	1.753213	-0.578096	-0.441640
O18	O	2.253213	-0.078096	0.058360
O19	O	1.583011	-0.274741	-0.570724
O20	O	2.083011	0.225259	-0.070724
O21	O	1.453833	-0.447400	-0.271318
O22	O	1.953833	0.052600	0.228682
O23	O	1.283557	-0.447320	-0.441629
O24	O	1.783557	0.052680	0.058371
O25	O	1.453922	-0.577955	-0.740992
O26	O	1.953922	-0.077955	-0.240992
O27	O	1.283555	-0.578009	-0.570659
O28	O	1.783555	-0.078009	-0.070659
O29	O	1.583009	-0.447226	-0.741020
O30	O	2.083009	0.052774	-0.241020
O31	O	1.582844	-0.750634	-0.441603
O32	O	2.082844	-0.250634	0.058397
O33	O	1.453829	-0.750573	-0.570645
O34	O	1.953829	-0.250573	-0.070645
C35	C	1.245435	-0.512662	-0.506142
C36	C	1.745435	-0.012662	-0.006142
C37	C	1.128659	-0.512679	-0.506160
C38	C	1.628659	-0.012679	-0.006160
C39	C	0.964104	-0.444713	-0.573479
C40	C	1.464104	0.055287	-0.073479
C41	C	1.073828	-0.444699	-0.573470
C42	C	1.573828	0.055301	-0.073470
C43	C	1.073760	-0.580686	-0.438862
C44	C	1.573760	-0.080686	0.061138
C45	C	0.964037	-0.580706	-0.438878
C46	C	1.464037	-0.080706	0.061122
C47	C	0.909279	-0.376721	-0.640786
C48	C	1.409279	0.123279	-0.140786
C49	C	0.964170	-0.308715	-0.708085
C50	C	1.464170	0.191285	-0.208085
C51	C	1.073894	-0.308700	-0.708076
C52	C	1.573894	0.191300	-0.208076
C53	C	1.128727	-0.376691	-0.640767
C54	C	1.628727	0.123309	-0.140767
C55	C	1.518354	-0.789224	-0.506141
C56	C	2.018354	-0.289224	-0.006141
C57	C	1.518429	-0.907529	-0.506168
C58	C	2.018429	-0.407529	-0.006168
C59	C	1.588682	-0.976776	-0.436057
C60	C	2.088682	-0.476776	0.063943
C61	C	1.614358	-1.047468	-0.531950
C62	C	2.114358	-0.547468	-0.031950
C63	C	1.492885	-1.047636	-0.410337
C64	C	1.992885	-0.547636	0.089663
C65	C	1.544154	-0.976662	-0.602111
C66	C	2.044154	-0.476662	-0.102111
C67	C	1.422637	-0.976824	-0.480433
C68	C	1.922637	-0.476824	0.019567
C69	C	1.448276	-1.047484	-0.576392
C70	C	1.948276	-0.547484	-0.076392
C71	C	1.792436	-0.512704	-0.506177
C72	C	2.292436	-0.012704	-0.006177
C73	C	1.909212	-0.512713	-0.506185
C74	C	2.409212	-0.012713	-0.006185
C75	C	1.518476	-0.512575	-0.780193
C76	C	2.018476	-0.012575	-0.280193
C77	C	1.518507	-0.512529	-0.896969
C78	C	2.018507	-0.012529	-0.396969
C79	C	1.518480	-0.235062	-0.506201
C80	C	2.018480	0.264938	-0.006201
C81	C	1.518513	-0.116756	-0.506218
C82	C	2.018513	0.383244	-0.006218
C83	C	1.585732	-0.444452	-0.951848
C84	C	2.085732	0.055548	-0.451848
C85	C	1.585757	-0.444414	-1.061572
C86	C	2.085757	0.055586	-0.561572
C87	C	1.451330	-0.580539	-1.061530
C88	C	1.951330	-0.080539	-0.561530
C89	C	1.451300	-0.580571	-0.951808
C90	C	1.951300	-0.080571	-0.451808
C91	C	1.652939	-0.376410	-0.897010
C92	C	2.152939	0.123590	-0.397010
C93	C	1.720170	-0.308328	-0.951888
C94	C	2.220170	0.191672	-0.451888
C95	C	1.720195	-0.308290	-1.061612
C96	C	2.220195	0.191710	-0.561612
C97	C	1.652989	-0.376333	-1.116458
C98	C	2.152989	0.123667	-0.616458
C99	C	1.518390	-0.512713	-0.233192
C100	C	2.018390	-0.012713	0.266808
C101	C	1.518562	-0.512459	-0.116416
C102	C	2.018562	-0.012459	0.383584
H103	H	1.118413	-0.636042	-0.384063
H104	H	1.618413	-0.136042	0.115937
H105	H	0.919518	-0.253364	-0.762891
H106	H	1.419518	0.246636	-0.262891
Cl107	Cl	1.266667	-0.376679	-0.640766
Cl108	Cl	1.766667	0.123321	-0.140766
H109	H	0.919344	-0.636079	-0.384083
H110	H	1.419344	-0.136079	0.115917
H111	H	1.648102	-0.945729	-0.376820
H112	H	2.148102	-0.445729	0.123180
Cl113	Cl	0.771340	-0.376731	-0.640799
Cl114	Cl	1.271340	0.123269	-0.140799
Cl115	Cl	1.142898	-0.223218	-0.792688
Cl116	Cl	1.642898	0.276782	-0.292688
Cl117	Cl	1.366853	-0.666077	-1.130480
Cl118	Cl	1.866853	-0.166077	-0.630480
H119	H	1.388901	-1.078335	-0.635772
H120	H	1.888901	-0.578335	-0.135772
H121	H	1.341614	-0.945768	-0.458609
H122	H	1.841614	-0.445768	0.041391
Cl123	Cl	1.577726	-0.928742	-0.727302
Cl124	Cl	2.077726	-0.428742	-0.227302
Cl125	Cl	1.652916	-0.376458	-0.759071
Cl126	Cl	2.152916	0.123542	-0.259071
H127	H	1.471245	-1.078811	-0.329272
H128	H	1.971245	-0.578811	0.170728
Cl129	Cl	1.739489	-1.095358	-0.565620
Cl130	Cl	2.239489	-0.595358	-0.065620
H131	H	1.774880	-0.252923	-0.907225
H132	H	2.274880	0.247077	-0.407225
Cl133	Cl	1.804715	-0.222706	-1.130599
Cl134	Cl	2.304715	0.277294	-0.630599
H135	H	1.653003	-0.376284	-1.205803
H136	H	2.153003	0.123716	-0.705803
Cl137	Cl	1.366786	-0.666154	-0.882813
Cl138	Cl	1.866786	-0.166154	-0.382813
