data_functionalizedCrystal
_audit_creation_method	'MofGen! by Chris Wilmer'
_symmetry_space_group_name_H-M	'P1'
_symmetry_Int_Tables_number	1
_symmetry_cell_setting	triclinic
loop_
_symmetry_equiv_pos_as_xyz
  x,y,z
_cell_length_a	11.026607
_cell_length_b	6.394989
_cell_length_c	10.065875
_cell_angle_alpha	80.951547
_cell_angle_beta	79.302338
_cell_angle_gamma	82.458136
loop_
_atom_site_label
_atom_site_type_symbol
_atom_site_fract_x
_atom_site_fract_y
_atom_site_fract_z
O1	O	1.641000	-0.855566	-0.113474
O2	O	1.286163	-0.755391	-0.113478
O3	O	1.468618	-0.503308	-0.113477
O4	O	1.458545	-1.107649	-0.113475
O5	O	1.433830	-0.551624	0.113511
O6	O	1.251375	-0.803707	0.113510
O7	O	1.606212	-0.903882	0.113514
Zn8	Zn	1.423270	-0.861465	0.149552
Zn9	Zn	1.469105	-0.797807	-0.149516
O10	O	1.423757	-1.155965	0.113513
C11	C	1.223275	-0.761068	0.000015
C12	C	1.087719	-0.705977	0.000013
C13	C	1.016240	-0.858092	0.000013
C14	C	0.876135	-0.801156	0.000011
C15	C	1.669100	-0.898204	0.000018
C16	C	1.804658	-0.953293	0.000011
C17	C	1.449233	-0.448894	0.000012
C18	C	1.443147	-0.210370	0.000011
N19	N	1.391998	-0.904912	0.353657
N20	N	1.500386	-0.754347	-0.353621
C21	C	1.458216	-0.812908	0.421436
C22	C	1.434158	-0.846365	0.578603
H23	H	1.045197	-0.533588	-0.000022
H24	H	0.847177	-1.125689	0.000020
C25	C	0.818703	-0.568267	0.000003
H26	H	0.732073	-0.560548	-0.000009
H27	H	0.832164	-0.517128	0.079154
H28	H	0.856429	-0.483453	-0.079167
H29	H	1.532715	-0.709360	0.363112
H30	H	1.359646	-0.949901	0.636924
C31	C	1.601070	-0.614527	0.567606
H32	H	1.604053	-0.610416	0.472306
H33	H	1.581924	-0.474274	0.590943
H34	H	1.679367	-0.672685	0.590957
C35	C	1.291351	-1.044789	0.432438
H36	H	1.288391	-1.048938	0.527738
H37	H	1.213043	-0.986710	0.409105
H38	H	1.310544	-1.185041	0.409087
H39	H	1.058766	-1.030475	0.000021
