data_functionalizedCrystal
_audit_creation_method	'MofGen! by Chris Wilmer'
_symmetry_space_group_name_H-M	'P1'
_symmetry_Int_Tables_number	1
_symmetry_cell_setting	triclinic
loop_
_symmetry_equiv_pos_as_xyz
  x,y,z
_cell_length_a	10.654550
_cell_length_b	9.065218
_cell_length_c	9.130313
_cell_angle_alpha	89.997322
_cell_angle_beta	89.999724
_cell_angle_gamma	84.750408
loop_
_atom_site_label
_atom_site_type_symbol
_atom_site_fract_x
_atom_site_fract_y
_atom_site_fract_z
O1	O	1.668660	0.207235	-0.121684
O2	O	1.303260	0.226979	-0.121710
O3	O	1.493513	0.002423	-0.121693
O4	O	1.478407	0.431791	-0.121700
O5	O	1.493500	0.002417	0.121906
O6	O	1.303247	0.226972	0.121889
O7	O	1.668647	0.207228	0.121915
Cu8	Cu	1.485946	0.217100	0.144145
Cu9	Cu	1.485961	0.217107	-0.143939
O10	O	1.478394	0.431784	0.121899
C11	C	1.256450	0.225526	0.000086
C12	C	1.116989	0.221188	0.000076
C13	C	1.038027	0.353403	0.000078
C14	C	0.906990	0.349319	0.000104
C15	C	0.933890	0.080794	0.000119
C16	C	1.064924	0.084879	0.000104
C17	C	1.492055	-0.052559	0.000104
C18	C	1.487714	-0.216378	0.000096
C19	C	1.715457	0.208681	0.000116
C20	C	1.854918	0.213019	0.000117
C21	C	1.479852	0.486766	0.000098
C22	C	1.484193	0.650585	0.000096
N23	N	1.485944	0.217093	0.346767
N24	N	1.485973	0.217102	-0.346562
C25	C	1.570217	0.117702	0.423427
C26	C	1.570229	0.117703	0.576763
C27	C	1.401691	0.316498	0.576768
C28	C	1.401674	0.316489	0.423434
H29	H	0.891482	-0.030185	0.000151
C30	C	1.185256	0.400747	0.624021
C31	C	1.309070	0.425751	0.661052
H32	H	1.128077	0.468193	0.676062
H33	H	1.173189	0.414976	0.521743
H34	H	1.170527	0.302119	0.649169
H35	H	1.323801	0.524377	0.635894
H36	H	1.321141	0.411535	0.763353
C37	C	1.227891	-0.066303	-0.125130
C38	C	1.151733	-0.060461	0.000098
H39	H	1.281488	-0.156022	-0.125122
H40	H	1.176209	-0.062328	-0.210058
H41	H	1.277644	0.015469	-0.125124
H42	H	1.101974	-0.142227	0.000086
H43	H	1.203422	-0.064450	0.085048
H44	H	1.638833	0.036766	0.361008
C45	C	0.843709	0.576924	-0.125146
C46	C	0.820194	0.494653	0.000095
H47	H	0.790118	0.666647	-0.125151
H48	H	0.929190	0.598857	-0.125150
H49	H	0.827745	0.521068	-0.210074
H50	H	0.836167	0.550506	0.085024
H51	H	0.734693	0.472724	0.000113
H52	H	1.080414	0.464395	0.000066
H53	H	1.333043	0.397426	0.361014
C54	C	1.736829	-0.078781	0.561346
C55	C	1.662870	0.008455	0.661027
H56	H	1.794027	-0.146223	0.613370
H57	H	1.683948	-0.132431	0.501556
H58	H	1.782686	-0.016849	0.501526
H59	H	1.617005	-0.053477	0.720840
H60	H	1.715758	0.062108	0.720842
