data_functionalizedCrystal
_audit_creation_method	'MofGen! by Chris Wilmer'
_symmetry_space_group_name_H-M	'P1'
_symmetry_Int_Tables_number	1
_symmetry_cell_setting	triclinic
loop_
_symmetry_equiv_pos_as_xyz
  x,y,z
_cell_length_a	29.839134
_cell_length_b	18.101395
_cell_length_c	18.101389
_cell_angle_alpha	90.016841
_cell_angle_beta	89.971270
_cell_angle_gamma	89.974035
loop_
_atom_site_label
_atom_site_type_symbol
_atom_site_fract_x
_atom_site_fract_y
_atom_site_fract_z
Zn1	Zn	0.686782	0.295009	-0.418934
Zn2	Zn	0.686719	0.418834	-0.295096
Zn3	Zn	0.611656	0.295000	-0.295085
Zn4	Zn	0.611626	0.418802	-0.418875
O5	O	0.649195	0.356911	-0.356997
O6	O	0.749640	0.311452	-0.402535
O7	O	0.676747	0.402418	-0.191461
O8	O	0.621660	0.191368	-0.311535
O9	O	0.749594	0.402426	-0.311552
O10	O	0.676855	0.191375	-0.402526
O11	O	0.621599	0.311437	-0.191454
O12	O	0.548785	0.311406	-0.311477
O13	O	0.621609	0.402370	-0.522516
O14	O	0.548763	0.402362	-0.402425
O15	O	0.676826	0.311420	-0.522559
O16	O	0.676718	0.522463	-0.311495
O17	O	0.621548	0.522439	-0.402435
C18	C	0.532473	0.356880	-0.356944
C19	C	0.482538	0.356884	-0.356939
C20	C	0.649135	0.549322	-0.356976
C21	C	0.649151	0.631636	-0.356991
C22	C	0.649221	0.356893	-0.550159
C23	C	0.649232	0.356885	-0.632474
C24	C	0.172893	0.404342	-0.404296
C25	C	-0.014780	0.404363	-0.404329
O26	O	-0.039046	0.444679	-0.444562
N27	N	-0.038247	0.356938	-0.357053
C28	C	-0.014792	0.309502	-0.309770
O29	O	-0.039058	0.269159	-0.269565
C30	C	0.172880	0.309478	-0.309741
C31	C	0.196344	0.356911	-0.357014
C32	C	0.196357	0.451771	-0.451566
C33	C	0.243273	0.451768	-0.451554
C34	C	0.266724	0.404337	-0.404273
C35	C	0.243260	0.356908	-0.357003
C36	C	0.196334	0.262038	-0.262462
C37	C	0.243255	0.262034	-0.262460
C38	C	0.266719	0.309468	-0.309733
C39	C	0.313626	0.309473	-0.309709
N40	N	0.337093	0.356898	-0.356985
C41	C	0.313642	0.404330	-0.404267
C42	C	-0.113323	0.309519	-0.309787
C43	C	-0.160241	0.309525	-0.309793
C44	C	-0.160225	0.404386	-0.404353
C45	C	-0.113306	0.404383	-0.404343
C46	C	-0.089856	0.356943	-0.357062
C47	C	0.412168	0.404321	-0.404238
C48	C	0.459087	0.404316	-0.404220
C49	C	0.459068	0.309453	-0.309663
C50	C	0.412152	0.309460	-0.309678
C51	C	0.388703	0.356896	-0.356971
O52	O	0.337922	0.269173	-0.269503
O53	O	0.337916	0.444655	-0.444477
C54	C	0.125978	0.404345	-0.404307
C55	C	0.102513	0.356917	-0.357037
C56	C	0.125965	0.309485	-0.309756
C57	C	0.055596	0.356923	-0.357043
C58	C	0.032144	0.404355	-0.404325
C59	C	0.055611	0.451780	-0.451600
C60	C	0.102527	0.451777	-0.451589
C61	C	0.102498	0.262060	-0.262480
C62	C	0.055582	0.262067	-0.262495
C63	C	0.032131	0.309499	-0.309777
C64	C	0.766374	0.356943	-0.357052
C65	C	0.816308	0.356957	-0.357075
C66	C	0.649268	0.163749	-0.357036
C67	C	0.649299	0.081435	-0.357052
C68	C	0.649249	0.930727	-0.357031
C69	C	0.614618	0.899418	-0.414390
C70	C	0.614454	0.813800	-0.414211
C71	C	0.649200	0.782344	-0.357012
C72	C	0.636383	0.813480	-0.278959
C73	C	0.636160	0.899125	-0.279302
C74	C	0.696774	0.899081	-0.377038
C75	C	0.696495	0.813430	-0.378750
C76	C	0.649174	0.698485	-0.356996
C77	C	0.649275	1.014586	-0.357041
C78	C	0.649259	0.356746	-0.931565
C79	C	0.614398	0.413787	-0.900212
C80	C	0.614492	0.414052	-0.814594
C81	C	0.649245	0.356815	-0.783182
C82	C	0.696578	0.378006	-0.814294
C83	C	0.696384	0.378380	-0.899939
C84	C	0.637198	0.278386	-0.899985
C85	C	0.636145	0.278839	-0.814334
C86	C	0.649241	0.356852	-0.699323
C87	C	0.649266	0.356710	-1.015424
C88	C	0.649195	0.356877	-0.164587
C89	C	0.649271	0.356676	-0.082273
H90	H	0.478190	0.442944	-0.442716
H91	H	0.603283	0.259081	-0.921566
H92	H	0.121627	0.490402	-0.490084
C93	C	0.625286	0.785357	-0.492398
N94	N	0.633442	0.763938	-0.551293
C95	C	0.029777	0.209881	-0.210489
N96	N	0.010342	0.170570	-0.171325
H97	H	0.706608	0.435662	-0.919926
H98	H	0.723238	0.338638	-0.920682
C99	C	0.170533	0.209848	-0.210464
N100	N	0.151102	0.170532	-0.171300
H101	H	0.706160	0.793079	-0.436193
C102	C	0.386381	0.456509	-0.456258
N103	N	0.366958	0.495822	-0.495435
H104	H	0.579227	0.793369	-0.400957
C105	C	0.386341	0.257287	-0.257670
N106	N	0.366903	0.217984	-0.218501
H107	H	0.662589	0.235888	-0.920263
C108	C	0.732612	0.323647	-0.786808
N109	N	0.759752	0.282703	-0.766102
C110	C	0.668752	0.927109	-0.219590
N111	N	0.693298	0.948183	-0.174612
C112	C	0.269047	0.209848	-0.210444
N113	N	0.288473	0.170544	-0.171263
C114	C	-0.087500	0.456558	-0.456351
N115	N	-0.068065	0.495857	-0.495527
C116	C	0.567316	0.928559	-0.396705
N117	N	0.531688	0.950507	-0.383380
H118	H	0.660813	0.793105	-0.235056
C119	C	0.625341	0.927198	-0.492831
N120	N	0.633417	0.948129	-0.551915
H121	H	0.706979	0.434679	-0.792855
H122	H	0.579193	0.400661	-0.920793
H123	H	0.262373	0.490392	-0.490051
C124	C	0.484873	0.257272	-0.257665
N125	N	0.504311	0.217962	-0.218506
C126	C	0.029806	0.503954	-0.503612
N127	N	0.010367	0.543245	-0.542788
H128	H	0.602010	0.792087	-0.261709
H129	H	0.601419	0.919160	-0.262356
H130	H	0.601312	0.262859	-0.793997
H131	H	0.121587	0.223435	-0.223977
H132	H	0.708460	0.920641	-0.432985
H133	H	0.723661	0.792015	-0.340018
H134	H	0.659683	0.234083	-0.792952
H135	H	0.722575	0.919327	-0.335262
H136	H	0.579393	0.400790	-0.793556
H137	H	0.622282	0.471515	-0.921740
C138	C	0.625242	0.492522	-0.786923
N139	N	0.633329	0.551633	-0.766083
H140	H	0.177268	0.490396	-0.490072
H141	H	-0.179341	0.270908	-0.271291
C142	C	-0.186030	0.456557	-0.456368
N143	N	-0.205469	0.495846	-0.495547
H144	H	-0.094234	0.270887	-0.271282
