data_functionalizedCrystal
_audit_creation_method	'MofGen! by Chris Wilmer'
_symmetry_space_group_name_H-M	'P1'
_symmetry_Int_Tables_number	1
_symmetry_cell_setting	triclinic
loop_
_symmetry_equiv_pos_as_xyz
  x,y,z
_cell_length_a	11.792241
_cell_length_b	17.019294
_cell_length_c	10.868271
_cell_angle_alpha	86.115896
_cell_angle_beta	89.999893
_cell_angle_gamma	83.793186
loop_
_atom_site_label
_atom_site_type_symbol
_atom_site_fract_x
_atom_site_fract_y
_atom_site_fract_z
O1	O	1.505776	0.108120	-0.113657
O2	O	1.839109	0.441453	0.219677
O3	O	2.172443	0.774787	0.553010
O4	O	1.175318	0.119263	-0.114866
O5	O	1.508652	0.452596	0.218468
O6	O	1.841985	0.785930	0.551801
O7	O	1.349766	-0.001102	-0.102092
O8	O	1.683099	0.332231	0.231242
O9	O	2.016433	0.665565	0.564575
O10	O	1.331329	0.228485	-0.126431
O11	O	1.664662	0.561818	0.206903
O12	O	1.997995	0.895152	0.540236
O13	O	1.349752	-0.001107	0.102554
O14	O	1.683085	0.332227	0.435887
O15	O	2.016418	0.665560	0.769220
O16	O	1.175304	0.119258	0.089779
O17	O	1.508637	0.452591	0.423113
O18	O	1.841971	0.785925	0.756446
O19	O	1.505762	0.108115	0.090989
O20	O	1.839095	0.441449	0.424322
O21	O	2.172428	0.774782	0.757655
Zn22	Zn	1.340531	0.113686	0.122876
Zn23	Zn	1.673864	0.447019	0.456209
Zn24	Zn	2.007197	0.780353	0.789542
Zn25	Zn	1.340549	0.113692	-0.146753
Zn26	Zn	1.673883	0.447026	0.186580
Zn27	Zn	2.007216	0.780359	0.519914
O28	O	1.331314	0.228480	0.078214
O29	O	1.664648	0.561813	0.411548
O30	O	1.997981	0.895147	0.744881
C31	C	1.133028	0.118561	-0.012473
C32	C	1.466361	0.451894	0.320861
C33	C	1.799694	0.785227	0.654194
C34	C	1.007036	0.116466	-0.012261
C35	C	1.340369	0.449799	0.321072
C36	C	1.673702	0.783132	0.654405
C37	C	1.349059	-0.030497	0.003344
C38	C	1.682393	0.302837	0.336677
C39	C	2.015726	0.636170	0.670011
C40	C	1.346962	-0.118076	0.012620
C41	C	1.680295	0.215257	0.345953
C42	C	2.013629	0.548591	0.679287
C43	C	0.776364	0.112613	-0.011818
C44	C	1.109697	0.445947	0.321516
C45	C	1.443031	0.779280	0.654849
C46	C	0.904727	0.114754	-0.012064
C47	C	1.238060	0.448087	0.321269
C48	C	1.571393	0.781420	0.654603
C49	C	1.345987	-0.159214	-0.094573
C50	C	1.679321	0.174119	0.238760
C51	C	2.012654	0.507453	0.572093
C52	C	1.344009	-0.241504	-0.085854
C53	C	1.677343	0.091830	0.247480
C54	C	2.010676	0.425163	0.580813
C55	C	1.343015	-0.282654	0.030060
C56	C	1.676348	0.050679	0.363394
C57	C	2.009681	0.384012	0.696727
C58	C	1.343986	-0.241510	0.137262
C59	C	1.677319	0.091823	0.470595
C60	C	2.010653	0.425156	0.803929
C61	C	1.345956	-0.159222	0.128541
C62	C	1.679289	0.174112	0.461874
C63	C	2.012622	0.507445	0.795208
C64	C	1.337059	-0.531113	0.061972
C65	C	1.670393	-0.197780	0.395306
C66	C	2.003726	0.135554	0.728639
C67	C	1.335093	-0.613408	0.070685
C68	C	1.668426	-0.280075	0.404019
C69	C	2.001760	0.053259	0.737352
C70	C	1.335114	-0.613395	-0.152431
C71	C	1.668447	-0.280062	0.180902
C72	C	2.001781	0.053271	0.514235
C73	C	1.337091	-0.531105	-0.161142
C74	C	1.670424	-0.197772	0.172191
C75	C	2.003757	0.135561	0.505525
C76	C	1.338056	-0.489968	-0.053941
C77	C	1.671389	-0.156635	0.279393
C78	C	2.004723	0.176699	0.612726
C79	C	1.340996	-0.366768	0.038976
C80	C	1.674330	-0.033435	0.372309
C81	C	2.007663	0.299899	0.705643
C82	C	1.340066	-0.405855	-0.062857
C83	C	1.673399	-0.072522	0.270476
C84	C	2.006733	0.260811	0.603809
C85	C	1.548053	0.108818	-0.011407
C86	C	1.881386	0.442151	0.321926
C87	C	2.214719	0.775484	0.655259
C88	C	1.674044	0.110913	-0.011627
C89	C	2.007378	0.444246	0.321707
C90	C	2.340711	0.777579	0.655040
C91	C	1.332021	0.257875	-0.027224
C92	C	1.665354	0.591208	0.306109
C93	C	1.998687	0.924541	0.639443
C94	C	1.334118	0.345454	-0.036508
C95	C	1.667451	0.678788	0.296825
C96	C	2.000785	1.012121	0.630159
N97	N	1.340526	0.113681	0.306890
N98	N	1.673859	0.447015	0.640224
N99	N	2.007193	0.780348	0.973557
N100	N	1.340563	0.113691	-0.330767
N101	N	1.673896	0.447024	0.002566
N102	N	2.007230	0.780357	0.335900
C103	C	1.340544	0.113691	0.557895
C104	C	1.673877	0.447024	0.891229
C105	C	2.007210	0.780357	1.224562
C106	C	1.340530	0.113688	0.418218
C107	C	1.673863	0.447021	0.751552
C108	C	2.007197	0.780354	1.084885
H109	H	1.346803	-0.125715	-0.188963
H110	H	1.680137	0.207618	0.144370
H111	H	2.013470	0.540951	0.477704
H112	H	1.343220	-0.274995	-0.173142
H113	H	1.676554	0.058339	0.160191
H114	H	2.009887	0.391672	0.493525
H115	H	1.334277	-0.646910	0.165081
H116	H	1.667610	-0.313577	0.498415
H117	H	2.000944	0.019757	0.831748
H118	H	1.337902	-0.497606	-0.255531
H119	H	1.671236	-0.164273	0.077802
H120	H	2.004569	0.169061	0.411135
H121	H	1.346734	-0.125727	0.215829
H122	H	1.680067	0.207607	0.549163
H123	H	2.013400	0.540940	0.882496
H124	H	1.334326	-0.646898	-0.239708
H125	H	1.667659	-0.313565	0.093625
H126	H	2.000992	0.019769	0.426958
H127	H	1.340868	-0.372346	-0.157234
H128	H	1.674202	-0.039013	0.176099
H129	H	2.007535	0.294320	0.509432
H130	H	1.340190	-0.400282	0.133354
H131	H	1.673523	-0.066949	0.466687
H132	H	2.006857	0.266384	0.800021
H133	H	1.337868	-0.497631	0.149264
H134	H	1.671201	-0.164298	0.482597
H135	H	2.004535	0.169036	0.815931
H136	H	1.343169	-0.275021	0.231642
H137	H	1.676502	0.058312	0.564975
H138	H	2.009836	0.391645	0.898308
