data_functionalizedCrystal
_audit_creation_method	'MofGen! by Chris Wilmer'
_symmetry_space_group_name_H-M	'P1'
_symmetry_Int_Tables_number	1
_symmetry_cell_setting	triclinic
loop_
_symmetry_equiv_pos_as_xyz
  x,y,z
_cell_length_a	14.044220
_cell_length_b	16.109302
_cell_length_c	15.186229
_cell_angle_alpha	89.994701
_cell_angle_beta	90.002599
_cell_angle_gamma	91.674671
loop_
_atom_site_label
_atom_site_type_symbol
_atom_site_fract_x
_atom_site_fract_y
_atom_site_fract_z
O1	O	-0.121838	1.112195	-0.073267
O2	O	0.211495	1.445528	0.260067
O3	O	0.544829	1.778862	0.593400
O4	O	-0.136999	0.871261	-0.073260
O5	O	0.196334	1.204595	0.260074
O6	O	0.529667	1.537928	0.593407
O7	O	0.008565	0.988112	-0.073259
O8	O	0.341898	1.321445	0.260074
O9	O	0.675232	1.654778	0.593408
O10	O	-0.267402	0.995345	-0.073267
O11	O	0.065931	1.328678	0.260066
O12	O	0.399265	1.662011	0.593399
O13	O	0.008567	0.988103	0.073198
O14	O	0.341900	1.321436	0.406531
O15	O	0.675234	1.654770	0.739865
O16	O	-0.136997	0.871253	0.073198
O17	O	0.196336	1.204586	0.406531
O18	O	0.529669	1.537919	0.739864
O19	O	-0.121836	1.112186	0.073191
O20	O	0.211498	1.445520	0.406524
O21	O	0.544831	1.778853	0.739857
Zn22	Zn	-0.129416	0.991718	0.096447
Zn23	Zn	0.203917	1.325051	0.429781
Zn24	Zn	0.537250	1.658385	0.763114
Zn25	Zn	-0.129419	0.991730	-0.096516
Zn26	Zn	0.203914	1.325063	0.236817
Zn27	Zn	0.537248	1.658396	0.570150
O28	O	-0.267400	0.995336	0.073190
O29	O	0.065933	1.328669	0.406523
O30	O	0.399267	1.662003	0.739857
C31	C	-0.136384	0.840236	-0.000030
C32	C	0.196949	1.173570	0.333303
C33	C	0.530283	1.506903	0.666637
C34	C	-0.134542	0.747804	-0.000027
C35	C	0.198791	1.081137	0.333306
C36	C	0.532124	1.414471	0.666639
C37	C	-0.130283	0.535142	0.079798
C38	C	0.203050	0.868475	0.413131
C39	C	0.536384	1.201808	0.746465
C40	C	-0.128542	0.448292	0.079795
C41	C	0.204791	0.781625	0.413128
C42	C	0.538124	1.114959	0.746462
C43	C	-0.128549	0.448312	-0.079881
C44	C	0.204784	0.781646	0.253452
C45	C	0.538117	1.114979	0.586786
C46	C	-0.130283	0.535160	-0.079877
C47	C	0.203050	0.868494	0.253456
C48	C	0.536384	1.201827	0.586790
C49	C	-0.131155	0.578573	-0.000035
C50	C	0.202179	0.911906	0.333298
C51	C	0.535512	1.245239	0.666632
C52	C	-0.127680	0.404875	-0.000042
C53	C	0.205653	0.738208	0.333291
C54	C	0.538986	1.071542	0.666625
C55	C	-0.125793	0.310709	-0.000046
C56	C	0.207540	0.644042	0.333288
C57	C	0.540874	0.977375	0.666621
C58	C	-0.133040	0.672745	-0.000031
C59	C	0.200293	1.006078	0.333303
C60	C	0.533626	1.339412	0.666636
C61	C	-0.302714	0.998506	-0.000040
C62	C	0.030619	1.331840	0.333294
C63	C	0.363952	1.665173	0.666627
C64	C	-0.407937	1.007950	-0.000043
C65	C	-0.074604	1.341283	0.333290
C66	C	0.258729	1.674617	0.666624
C67	C	-0.600593	1.025215	-0.000040
C68	C	-0.267260	1.358549	0.333294
C69	C	0.066073	1.691882	0.666627
C70	C	-0.658247	0.958236	-0.000037
C71	C	-0.324914	1.291569	0.333296
C72	C	0.008420	1.624903	0.666630
C73	C	-0.765448	0.967843	-0.000035
C74	C	-0.432114	1.301176	0.333298
C75	C	-0.098781	1.634509	0.666632
C76	C	-0.493383	1.015610	-0.000042
C77	C	-0.160050	1.348943	0.333292
C78	C	0.173284	1.682277	0.666625
C79	C	0.043879	0.984941	-0.000031
C80	C	0.377213	1.318275	0.333302
C81	C	0.710546	1.651608	0.666635
C82	C	0.149102	0.975498	-0.000034
C83	C	0.482436	1.308831	0.333300
C84	C	0.815769	1.642164	0.666633
C85	C	-0.122451	1.143211	-0.000041
C86	C	0.210882	1.476545	0.333292
C87	C	0.544216	1.809878	0.666626
C88	C	-0.124293	1.235644	-0.000049
C89	C	0.209041	1.568977	0.333284
C90	C	0.542374	1.902310	0.666617
N91	N	-0.129414	0.991716	0.228140
N92	N	0.203920	1.325050	0.561473
N93	N	0.537253	1.658383	0.894807
N94	N	-0.129414	0.991737	-0.228209
N95	N	0.203920	1.325071	0.105124
N96	N	0.537253	1.658404	0.438458
C97	C	-0.064980	1.043479	0.453863
C98	C	0.268354	1.376812	0.787196
C99	C	0.601687	1.710145	1.120530
C100	C	-0.064977	1.043481	0.546053
C101	C	0.268356	1.376814	0.879386
C102	C	0.601689	1.710148	1.212719
C103	C	-0.193851	0.939969	0.546061
C104	C	0.139482	1.273303	0.879395
C105	C	0.472816	1.606636	1.212728
C106	C	-0.193848	0.939963	0.453873
C107	C	0.139485	1.273296	0.787207
C108	C	0.472819	1.606630	1.120540
C109	C	-0.129413	0.991723	0.407777
C110	C	0.203920	1.325056	0.741110
C111	C	0.537253	1.658389	1.074443
C112	C	-0.129414	0.991731	0.592154
C113	C	0.203919	1.325064	0.925488
C114	C	0.537253	1.658398	1.258821
C115	C	-0.129412	0.991733	0.692110
C116	C	0.203921	1.325067	1.025444
C117	C	0.537254	1.658400	1.358777
C118	C	-0.129414	0.991719	0.307814
C119	C	0.203919	1.325053	0.641148
C120	C	0.537253	1.658386	0.974481
H121	H	-0.130993	0.570485	0.144810
H122	H	0.202341	0.903819	0.478144
H123	H	0.535674	1.237152	0.811477
H124	H	-0.627096	0.893678	-0.000035
H125	H	-0.293763	1.227012	0.333299
H126	H	0.039571	1.560345	0.666632
H127	H	-0.127833	0.412934	0.144803
H128	H	0.205501	0.746267	0.478136
H129	H	0.538834	1.079601	0.811469
C130	C	-0.131237	0.582938	-0.167704
C131	C	0.202097	0.916271	0.165629
C132	C	0.535430	1.249604	0.498963
N133	N	-0.131951	0.618924	-0.233852
N134	N	0.201383	0.952257	0.099481
N135	N	0.534716	1.285591	0.432814
C136	C	0.005908	1.100408	0.403160
C137	C	0.339241	1.433741	0.736493
C138	C	0.672574	1.767075	1.069827
N139	N	0.059305	1.143286	0.364973
N140	N	0.392639	1.476620	0.698306
N141	N	0.725972	1.809953	1.031639
H142	H	-0.631743	1.089768	-0.000038
H143	H	-0.298410	1.423101	0.333295
H144	H	0.034924	1.756434	0.666628
C145	C	0.005913	1.100410	0.596744
C146	C	0.339246	1.433743	0.930077
C147	C	0.672579	1.767076	1.263410
N148	N	0.059314	1.143288	0.634923
N149	N	0.392647	1.476621	0.968257
N150	N	0.725980	1.809954	1.301590
C151	C	-0.264723	0.883035	0.596776
C152	C	0.068610	1.216369	0.930110
C153	C	0.401943	1.549702	1.263443
N154	N	-0.318106	0.840151	0.634974
N155	N	0.015228	1.173484	0.968308
N156	N	0.348561	1.506818	1.301641
H157	H	-0.246318	0.897813	0.416347
H158	H	0.087015	1.231146	0.749681
H159	H	0.420349	1.564480	1.083014
H160	H	-0.127841	0.412955	-0.144885
H161	H	0.205492	0.746289	0.188448
H162	H	0.538826	1.079622	0.521781
