data_functionalizedCrystal
_audit_creation_method	'MofGen! by Chris Wilmer'
_symmetry_space_group_name_H-M	'P1'
_symmetry_Int_Tables_number	1
_symmetry_cell_setting	triclinic
loop_
_symmetry_equiv_pos_as_xyz
  x,y,z
_cell_length_a	14.908783
_cell_length_b	12.594516
_cell_length_c	14.908803
_cell_angle_alpha	86.710476
_cell_angle_beta	90.199445
_cell_angle_gamma	93.302904
loop_
_atom_site_label
_atom_site_type_symbol
_atom_site_fract_x
_atom_site_fract_y
_atom_site_fract_z
Zn1	Zn	1.345228	-0.372521	0.587842
Zn2	Zn	1.845228	0.127479	1.087842
Zn3	Zn	1.353863	-0.539644	0.437493
Zn4	Zn	1.853863	-0.039644	0.937493
Zn5	Zn	1.203577	-0.371303	0.428815
Zn6	Zn	1.703577	0.128697	0.928815
Zn7	Zn	1.194859	-0.560084	0.579114
Zn8	Zn	1.694859	-0.060084	1.079114
O9	O	1.274382	-0.460888	0.508316
O10	O	1.774382	0.039112	1.008316
O11	O	1.472198	-0.386646	0.575182
O12	O	1.972198	0.113354	1.075182
O13	O	1.341190	-0.508249	0.310520
O14	O	1.841190	-0.008249	0.810520
O15	O	1.222402	-0.222518	0.449931
O16	O	1.722402	0.277482	0.949931
O17	O	1.478543	-0.509430	0.464721
O18	O	1.978543	-0.009430	0.964721
O19	O	1.326472	-0.223413	0.566767
O20	O	1.826472	0.276587	1.066767
O21	O	1.230775	-0.384570	0.304144
O22	O	1.730775	0.115430	0.804144
O23	O	1.076595	-0.404390	0.441468
O24	O	1.576595	0.095610	0.941468
O25	O	1.207543	-0.544268	0.706093
O26	O	1.707543	-0.044268	1.206093
O27	O	1.070190	-0.543086	0.551892
O28	O	1.570190	-0.043086	1.051892
O29	O	1.318018	-0.406466	0.712506
O30	O	1.818018	0.093534	1.212506
O31	O	1.332736	-0.691302	0.456258
O32	O	1.832736	-0.191302	0.956258
O33	O	1.215917	-0.706319	0.560306
O34	O	1.715917	-0.206319	1.060306
C35	C	1.040768	-0.475825	0.494792
C36	C	1.540768	0.024175	0.994792
C37	C	0.940825	-0.482242	0.489027
C38	C	1.440825	0.017758	0.989027
C39	C	0.746405	-0.366645	0.593394
C40	C	1.246405	0.133355	1.093394
C41	C	0.652500	-0.372671	0.587981
C42	C	1.152500	0.127329	1.087981
C43	C	0.659109	-0.500314	0.472784
C44	C	1.159109	-0.000314	0.972784
C45	C	0.753014	-0.494288	0.478197
C46	C	1.253014	0.005712	0.978197
C47	C	0.796658	-0.427452	0.538505
C48	C	1.296658	0.072548	1.038505
C49	C	0.890565	-0.421432	0.543922
C50	C	1.390565	0.078568	1.043922
C51	C	0.897173	-0.549069	0.428722
C52	C	1.397173	-0.049069	0.928722
C53	C	0.803268	-0.555095	0.423308
C54	C	1.303268	-0.055095	0.923308
C55	C	1.274341	-0.737431	0.508298
C56	C	1.774341	-0.237431	1.008298
C57	C	1.274404	-0.855734	0.508325
C58	C	1.774404	-0.355734	1.008325
C59	C	1.338008	-0.916780	0.451801
C60	C	1.838008	-0.416780	0.951801
C61	C	1.355223	-0.992016	0.535136
C62	C	1.855223	-0.492016	1.035136
C63	C	1.257298	-0.991293	0.425048
C64	C	1.757298	-0.491293	0.925048
C65	C	1.291659	-0.929411	0.591706
C66	C	1.791659	-0.429411	1.091706
C67	C	1.193698	-0.928681	0.481560
C68	C	1.693698	-0.428681	0.981560
C69	C	1.210879	-1.003891	0.564950
C70	C	1.710879	-0.503891	1.064950
C71	C	1.508908	-0.445894	0.521893
C72	C	2.008908	0.054106	1.021893
C73	C	1.608849	-0.439504	0.527679
C74	C	2.108849	0.060496	1.027679
C75	C	1.260845	-0.477783	0.742836
C76	C	1.760845	0.022217	1.242836
C77	C	1.255077	-0.484983	0.842775
C78	C	1.755077	0.015017	1.342775
C79	C	1.274446	-0.183266	0.508355
C80	C	1.774446	0.316734	1.008355
C81	C	1.274473	-0.064959	0.508372
C82	C	1.774473	0.435041	1.008372
C83	C	1.359273	-0.354994	1.037249
C84	C	1.859273	0.145006	1.537249
C85	C	1.353855	-0.361755	1.131150
C86	C	1.853855	0.138245	1.631150
C87	C	1.238821	-0.505259	1.124480
C88	C	1.738821	-0.005259	1.624480
C89	C	1.244239	-0.498499	1.030579
C90	C	1.744239	0.001501	1.530579
C91	C	1.304467	-0.423364	0.986966
C92	C	1.804467	0.076636	1.486966
C93	C	1.309888	-0.416609	0.893064
C94	C	1.809888	0.083391	1.393064
C95	C	1.194850	-0.560108	0.886395
C96	C	1.694850	-0.060108	1.386395
C97	C	1.189433	-0.566869	0.980297
C98	C	1.689433	-0.066869	1.480297
C99	C	1.287860	-0.444084	1.274707
C100	C	1.787860	0.055916	1.774707
C101	C	1.293633	-0.436886	1.174769
C102	C	1.793633	0.063114	1.674769
H103	H	0.623558	-0.554715	0.423675
H104	H	1.123558	-0.054715	0.923675
Br105	Br	1.107696	-0.668828	1.039493
Br106	Br	1.607696	-0.168828	1.539493
H107	H	1.150226	-0.615783	0.845446
H108	H	1.650226	-0.115783	1.345446
H109	H	0.767720	-0.609507	0.374205
H110	H	1.267720	-0.109507	0.874205
Br111	Br	0.584300	-0.290137	0.662472
Br112	Br	1.084300	0.209863	1.162472
Br113	Br	0.965379	-0.631610	0.354234
Br114	Br	1.465379	-0.131610	0.854234
H115	H	1.391802	-0.878800	0.404047
H116	H	1.891802	-0.378800	0.904047
H117	H	1.398481	-0.306078	1.172086
H118	H	1.898481	0.193922	1.672086
Br119	Br	0.949796	-0.330734	0.625771
Br120	Br	1.449796	0.169266	1.125771
H121	H	1.306084	-0.902222	0.662207
H122	H	1.806084	-0.402222	1.162207
Br123	Br	1.233135	-1.036850	0.307637
Br124	Br	1.733135	-0.536850	0.807637
H125	H	1.408317	-0.293822	1.001739
H126	H	1.908317	0.206178	1.501739
Br127	Br	0.805640	-0.275957	0.675249
Br128	Br	1.305640	0.224043	1.175249
Br129	Br	1.121271	-1.066882	0.644746
Br130	Br	1.621271	-0.566882	1.144746
H131	H	1.125440	-0.900710	0.458873
H132	H	1.625440	-0.400710	0.958873
Br133	Br	1.391630	-0.314649	0.833876
Br134	Br	1.891630	0.185351	1.333876
H135	H	1.423503	-1.019961	0.557800
H136	H	1.923503	-0.519961	1.057800
Br137	Br	1.157081	-0.607208	1.183683
Br138	Br	1.657081	-0.107208	1.683683
