data_functionalizedCrystal
_audit_creation_method	'MofGen! by Chris Wilmer'
_symmetry_space_group_name_H-M	'P1'
_symmetry_Int_Tables_number	1
_symmetry_cell_setting	triclinic
loop_
_symmetry_equiv_pos_as_xyz
  x,y,z
_cell_length_a	8.965430
_cell_length_b	11.792241
_cell_length_c	11.792241
_cell_angle_alpha	84.193416
_cell_angle_beta	90.000275
_cell_angle_gamma	90.000368
loop_
_atom_site_label
_atom_site_type_symbol
_atom_site_fract_x
_atom_site_fract_y
_atom_site_fract_z
O1	O	0.123895	-1.506909	-0.155559
O2	O	0.457228	-1.173575	0.177774
O3	O	0.790562	-0.840242	0.511107
O4	O	0.123930	-1.176567	-0.171592
O5	O	0.457263	-0.843234	0.161741
O6	O	0.790597	-0.509901	0.495074
O7	O	0.123901	-1.349754	0.001595
O8	O	0.457235	-1.016421	0.334928
O9	O	0.790568	-0.683088	0.668261
O10	O	0.123924	-1.333722	-0.328746
O11	O	0.457257	-1.000388	0.004587
O12	O	0.790590	-0.667055	0.337920
O13	O	-0.124178	-1.349740	0.001583
O14	O	0.209156	-1.016406	0.334917
O15	O	0.542489	-0.683073	0.668250
O16	O	-0.124149	-1.176553	-0.171604
O17	O	0.209184	-0.843219	0.161730
O18	O	0.542518	-0.509886	0.495063
O19	O	-0.124184	-1.506894	-0.155571
O20	O	0.209150	-1.173561	0.177762
O21	O	0.542483	-0.840227	0.511096
Cu22	Cu	-0.146818	-1.341722	-0.163588
Cu23	Cu	0.186515	-1.008389	0.169745
Cu24	Cu	0.519849	-0.675055	0.503078
Cu25	Cu	0.146564	-1.341739	-0.163575
Cu26	Cu	0.479897	-1.008406	0.169759
Cu27	Cu	0.813231	-0.675073	0.503092
O28	O	-0.124155	-1.333707	-0.328758
O29	O	0.209178	-1.000374	0.004576
O30	O	0.542512	-0.667040	0.337909
C31	C	-0.000105	-1.134269	-0.170591
C32	C	0.333228	-0.800936	0.162742
C33	C	0.666562	-0.467603	0.496076
C34	C	-0.000092	-1.008255	-0.167576
C35	C	0.333241	-0.674922	0.165757
C36	C	0.666575	-0.341589	0.499090
N37	N	-0.353167	-1.341718	-0.163597
N38	N	-0.019834	-1.008385	0.169736
N39	N	0.313500	-0.675051	0.503069
C40	C	-0.000138	-1.348740	0.043880
C41	C	0.333196	-1.015407	0.377213
C42	C	0.666529	-0.682073	0.710547
C43	C	-0.000136	-1.345726	0.169894
C44	C	0.333197	-1.012392	0.503227
C45	C	0.666531	-0.679059	0.836560
C46	C	-0.450460	-1.261600	-0.243664
C47	C	-0.117126	-0.928267	0.089669
C48	C	0.216207	-0.594933	0.423003
C49	C	-0.549883	-1.364301	-0.266319
C50	C	-0.216549	-1.030968	0.067014
C51	C	0.116784	-0.697634	0.400348
C52	C	-0.549872	-1.239061	-0.140952
C53	C	-0.216538	-0.905727	0.192382
C54	C	0.116795	-0.572394	0.525715
C55	C	-0.450401	-1.444471	-0.186304
C56	C	-0.117068	-1.111138	0.147029
C57	C	0.216266	-0.777804	0.480363
C58	C	-0.450381	-1.319163	-0.060892
C59	C	-0.117048	-0.985829	0.272442
C60	C	0.216285	-0.652496	0.605775
C61	C	-0.549759	-1.421938	-0.083504
C62	C	-0.216426	-1.088604	0.249830
C63	C	0.116907	-0.755271	0.583163
N64	N	0.352913	-1.341752	-0.163557
N65	N	0.686247	-1.008419	0.169776
N66	N	1.019580	-0.675085	0.503110
C67	C	-0.000145	-1.549192	-0.156572
C68	C	0.333188	-1.215859	0.176761
C69	C	0.666521	-0.882525	0.510094
C70	C	-0.000149	-1.675206	-0.159587
C71	C	0.333185	-1.341873	0.173747
C72	C	0.666518	-1.008539	0.507080
C73	C	-0.000135	-0.777543	-0.162034
C74	C	0.333198	-0.444210	0.171300
C75	C	0.666531	-0.110877	0.504633
C76	C	-0.000112	-0.905928	-0.165113
C77	C	0.333222	-0.572595	0.168220
C78	C	0.666555	-0.239262	0.501553
C79	C	-0.000113	-1.334721	-0.371043
C80	C	0.333220	-1.001388	-0.037710
C81	C	0.666554	-0.668055	0.295624
C82	C	-0.000105	-1.337736	-0.497057
C83	C	0.333228	-1.004402	-0.163723
C84	C	0.666562	-0.671069	0.169610
C85	C	-0.000110	-1.340183	0.400606
C86	C	0.333223	-1.006849	0.733939
C87	C	0.666556	-0.673516	1.067272
C88	C	-0.000124	-1.343262	0.272221
C89	C	0.333209	-1.009929	0.605554
C90	C	0.666542	-0.676596	0.938887
H91	H	-0.406860	-1.193909	-0.311436
H92	H	-0.073526	-0.860576	0.021897
H93	H	0.259807	-0.527243	0.355231
H94	H	-0.593587	-1.383402	-0.353157
H95	H	-0.260254	-1.050069	-0.019824
H96	H	0.073079	-0.716735	0.313509
H97	H	-0.406891	-1.531321	-0.205544
H98	H	-0.073558	-1.197987	0.127789
H99	H	0.259775	-0.864654	0.461123
O100	O	-0.607759	-1.124052	-0.115591
O101	O	-0.274426	-0.790718	0.217742
O102	O	0.058907	-0.457385	0.551076
H103	H	-0.512269	-1.066503	-0.103778
H104	H	-0.178936	-0.733170	0.229555
H105	H	0.154397	-0.399837	0.562889
H106	H	-0.406642	-1.300030	0.025919
H107	H	-0.073308	-0.966697	0.359252
H108	H	0.260025	-0.633363	0.692586
O109	O	-0.607182	-1.511792	0.006210
O110	O	-0.273849	-1.178459	0.339543
O111	O	0.059484	-0.845125	0.672876
H112	H	-0.567132	-1.596886	-0.012848
H113	H	-0.233798	-1.263552	0.320485
H114	H	0.099535	-0.930219	0.653819
