data_functionalizedCrystal
_audit_creation_method	'MofGen! by Chris Wilmer'
_symmetry_space_group_name_H-M	'P1'
_symmetry_Int_Tables_number	1
_symmetry_cell_setting	triclinic
loop_
_symmetry_equiv_pos_as_xyz
  x,y,z
_cell_length_a	12.645331
_cell_length_b	14.908520
_cell_length_c	14.908308
_cell_angle_alpha	83.639235
_cell_angle_beta	93.277876
_cell_angle_gamma	86.680290
loop_
_atom_site_label
_atom_site_type_symbol
_atom_site_fract_x
_atom_site_fract_y
_atom_site_fract_z
Zn1	Zn	1.558096	0.389900	-0.532580
Zn2	Zn	2.058096	0.889900	-0.032580
Zn3	Zn	1.557976	0.532545	-0.389950
Zn4	Zn	2.057976	1.032545	0.110050
Zn5	Zn	1.391677	0.381200	-0.381236
Zn6	Zn	1.891677	0.881200	0.118764
Zn7	Zn	1.369928	0.541215	-0.541257
Zn8	Zn	1.869928	1.041215	-0.041257
O9	O	1.469419	0.461215	-0.461256
O10	O	1.969419	0.961215	0.038744
O11	O	1.706425	0.408835	-0.513674
O12	O	2.206425	0.908835	-0.013674
O13	O	1.544967	0.505200	-0.262134
O14	O	2.044967	1.005200	0.237866
O15	O	1.422905	0.255689	-0.394034
O16	O	1.922905	0.755689	0.105966
O17	O	1.706337	0.513636	-0.408885
O18	O	2.206337	1.013636	0.091115
O19	O	1.545172	0.262081	-0.505225
O20	O	2.045172	0.762081	-0.005225
O21	O	1.422788	0.394007	-0.255731
O22	O	1.922788	0.894007	0.244269
O23	O	1.240447	0.402413	-0.402448
O24	O	1.740447	0.902413	0.097552
O25	O	1.385838	0.528412	-0.666767
O26	O	1.885838	1.028412	-0.166767
O27	O	1.224468	0.519976	-0.520015
O28	O	1.724468	1.019976	-0.020015
O29	O	1.524084	0.417242	-0.660391
O30	O	2.024084	0.917242	-0.160391
O31	O	1.523879	0.660360	-0.417300
O32	O	2.023879	1.160360	0.082700
O33	O	1.385721	0.666730	-0.528465
O34	O	1.885721	1.166730	-0.028465
C35	C	1.452454	0.696389	-0.474789
C36	C	1.952454	1.196389	0.025211
C37	C	1.445291	0.796999	-0.480609
C38	C	1.945291	1.296999	0.019391
C39	C	1.193993	0.461192	-0.461228
C40	C	1.693993	0.961192	0.038772
C41	C	1.076161	0.461205	-0.461239
C42	C	1.576161	0.961205	0.038761
C43	C	1.452548	0.474765	-0.697339
C44	C	1.952548	0.974765	-0.197339
C45	C	1.445359	0.480539	-0.797943
C46	C	1.945359	0.980539	-0.297943
C47	C	0.918609	0.386947	-0.387645
C48	C	1.418609	0.886947	0.112355
C49	C	1.041178	0.387111	-0.387349
C50	C	1.541178	0.887111	0.112651
C51	C	1.026664	0.555055	-0.440677
C52	C	1.526664	1.055055	0.059323
C53	C	0.904128	0.554643	-0.440181
C54	C	1.404128	1.054643	0.059819
C55	C	0.903865	0.442537	-0.555716
C56	C	1.403865	0.942537	-0.055716
C57	C	1.026662	0.440376	-0.555061
C58	C	1.526662	0.940376	-0.055061
C59	C	1.745921	0.461239	-0.461284
C60	C	2.245921	0.961239	0.038716
C61	C	1.863750	0.461249	-0.461296
C62	C	2.363750	0.961249	0.038704
C63	C	1.486478	0.225124	-0.447689
C64	C	1.986478	0.725124	0.052311
C65	C	1.493748	0.124517	-0.441908
C66	C	1.993748	0.624517	0.058092
C67	C	1.575827	0.979367	-0.375882
C68	C	2.075827	1.479367	0.124118
C69	C	1.569101	1.073899	-0.381348
C70	C	2.069101	1.573899	0.118652
C71	C	1.425118	1.080596	-0.497009
C72	C	1.925118	1.580596	0.002991
C73	C	1.431844	0.986064	-0.491544
C74	C	1.931844	1.486064	0.008456
C75	C	1.507200	0.935453	-0.430977
C76	C	2.007200	1.435453	0.069023
C77	C	1.513921	0.840919	-0.425508
C78	C	2.013921	1.340919	0.074492
C79	C	1.369944	0.847618	-0.541173
C80	C	1.869944	1.347618	-0.041173
C81	C	1.363217	0.942150	-0.546639
C82	C	1.863217	1.442150	-0.046639
C83	C	1.575803	0.375606	-0.980352
C84	C	2.075803	0.875606	-0.480352
C85	C	1.569051	0.381028	-1.074879
C86	C	2.069051	0.881028	-0.574879
C87	C	1.425100	0.496800	-1.081525
C88	C	1.925100	0.996800	-0.581525
C89	C	1.431851	0.491378	-0.986998
C90	C	1.931851	0.991378	-0.486998
C91	C	1.507207	0.430780	-0.936415
C92	C	2.007207	0.930780	-0.436415
C93	C	1.513962	0.425363	-0.841887
C94	C	2.013962	0.925363	-0.341887
C95	C	1.370007	0.541130	-0.848535
C96	C	1.870007	1.041130	-0.348535
C97	C	1.363255	0.546552	-0.943062
C98	C	1.863255	1.046552	-0.443062
C99	C	1.486290	0.447653	-0.226087
C100	C	1.986290	0.947653	0.273913
C101	C	1.493703	0.441624	-0.125469
C102	C	1.993703	0.941624	0.374531
H103	H	1.075184	0.317346	-0.399607
H104	H	1.575184	0.817346	0.100393
H105	H	1.363749	0.546135	-1.122726
H106	H	1.863749	1.046135	-0.622726
Br107	Br	1.616182	0.772232	-0.343307
Br108	Br	2.116182	1.272232	0.156693
H109	H	1.363773	1.121820	-0.546325
H110	H	1.863773	1.621820	-0.046325
H111	H	1.637179	0.938158	-0.326561
H112	H	2.137179	1.438158	0.173439
Br113	Br	1.096568	0.406979	-0.270539
Br114	Br	1.596568	0.906979	0.229461
H115	H	0.876173	0.375587	-0.575476
H116	H	1.376173	0.875587	-0.075476
Br117	Br	0.843233	0.532848	-0.647068
Br118	Br	1.343233	1.032848	-0.147068
H119	H	1.301867	0.983371	-0.595952
H120	H	1.801867	1.483371	-0.095952
H121	H	1.048446	0.611656	-0.492878
H122	H	1.548446	1.111656	0.007122
Br123	Br	1.662246	1.133495	-0.306578
Br124	Br	2.162246	1.633495	0.193422
Br125	Br	1.616233	0.343128	-0.773238
Br126	Br	2.116233	0.843128	-0.273238
Br127	Br	0.876060	0.270289	-0.407759
Br128	Br	1.376060	0.770289	0.092241
Br129	Br	0.873724	0.406544	-0.271518
Br130	Br	1.373724	0.906544	0.228482
Br131	Br	1.083544	0.583246	-0.327188
Br132	Br	1.583544	1.083246	0.172812
H133	H	1.314060	0.811853	-0.586033
H134	H	1.814060	1.311853	-0.086033
H135	H	1.059394	0.371341	-0.570666
H136	H	1.559394	0.871341	-0.070666
H137	H	1.301901	0.595887	-0.984259
H138	H	1.801901	1.095887	-0.484259
Br139	Br	1.678081	0.293382	-0.911699
Br140	Br	2.178081	0.793382	-0.411699
H141	H	1.314153	0.586059	-0.812752
H142	H	1.814153	1.086059	-0.312752
Br143	Br	0.862300	0.582168	-0.325405
Br144	Br	1.362300	1.082168	0.174595
Br145	Br	0.842428	0.649546	-0.526182
Br146	Br	1.342428	1.149546	-0.026182
H147	H	1.049988	0.490987	-0.612427
H148	H	1.549988	0.990987	-0.112427
Br149	Br	1.662147	0.306143	-1.134505
Br150	Br	2.162147	0.806143	-0.634505
