data_functionalizedCrystal
_audit_creation_method	'MofGen! by Chris Wilmer'
_symmetry_space_group_name_H-M	'P1'
_symmetry_Int_Tables_number	1
_symmetry_cell_setting	triclinic
loop_
_symmetry_equiv_pos_as_xyz
  x,y,z
_cell_length_a	16.625547
_cell_length_b	18.101395
_cell_length_c	16.625539
_cell_angle_alpha	90.027648
_cell_angle_beta	90.024822
_cell_angle_gamma	90.031041
loop_
_atom_site_label
_atom_site_type_symbol
_atom_site_fract_x
_atom_site_fract_y
_atom_site_fract_z
Zn1	Zn	1.232632	-0.294829	0.456005
Zn2	Zn	1.232515	-0.418679	0.321173
Zn3	Zn	1.097794	-0.294855	0.321175
Zn4	Zn	1.097744	-0.418634	0.455953
O5	O	1.165171	-0.356749	0.388576
O6	O	1.345449	-0.311266	0.438140
O7	O	1.214616	-0.402283	0.208341
O8	O	1.115750	-0.191219	0.339083
O9	O	1.345363	-0.402258	0.339080
O10	O	1.214815	-0.191200	0.438141
O11	O	1.115637	-0.311310	0.208342
O12	O	0.984955	-0.311267	0.339033
O13	O	1.115665	-0.402181	0.568792
O14	O	0.984918	-0.402206	0.438054
O15	O	1.214767	-0.311223	0.568830
O16	O	1.214567	-0.522305	0.339030
O17	O	1.115552	-0.522272	0.438052
C18	C	0.955680	-0.356735	0.388538
C19	C	0.866059	-0.356747	0.388541
C20	C	0.793277	-0.356748	0.388551
C21	C	0.701968	-0.356752	0.388571
C22	C	0.629192	-0.356759	0.388592
C23	C	0.537878	-0.356764	0.388611
C24	C	1.165063	-0.549160	0.388553
C25	C	1.165091	-0.631474	0.388570
C26	C	1.165268	-0.930565	0.388613
C27	C	1.103114	-0.899250	0.451070
C28	C	1.102819	-0.813632	0.450874
C29	C	1.165180	-0.782182	0.388592
C30	C	1.142173	-0.813334	0.303613
C31	C	1.141772	-0.898979	0.303986
C32	C	1.250565	-0.898908	0.410388
C33	C	1.250063	-0.813257	0.412252
C34	C	1.165132	-0.698323	0.388575
C35	C	1.165314	-1.014424	0.388624
C36	C	1.375480	-0.356764	0.388615
C37	C	1.465101	-0.356771	0.388632
C38	C	1.165224	-0.356694	0.598885
C39	C	1.165246	-0.356671	0.688507
C40	C	1.165302	-0.163587	0.388618
C41	C	1.165357	-0.081273	0.388636
C42	C	1.165165	-0.356751	0.179086
C43	C	1.165299	-0.356566	0.089465
C44	C	1.165283	-0.356588	1.016683
C45	C	1.165271	-0.356613	0.925374
C46	C	1.165265	-0.356630	0.852597
C47	C	1.165252	-0.356654	0.761283
H48	H	1.117366	-0.919797	0.514285
C49	C	1.315911	-0.784336	0.355250
C50	C	1.386579	-0.738808	0.388951
C51	C	1.452412	-0.709887	0.331928
C52	C	1.447579	-0.726493	0.241202
C53	C	1.376909	-0.772023	0.207496
C54	C	1.311075	-0.800944	0.264520
H55	H	1.390159	-0.726513	0.456116
H56	H	1.504727	-0.676182	0.356880
H57	H	1.496313	-0.705084	0.198990
H58	H	1.373328	-0.784318	0.140332
H59	H	1.258761	-0.834649	0.239568
C60	C	1.273514	-0.785741	0.496734
C61	C	1.215885	-0.735292	0.544040
C62	C	1.239335	-0.707768	0.628521
C63	C	1.320414	-0.730694	0.665696
C64	C	1.378048	-0.781146	0.618390
C65	C	1.354599	-0.808669	0.533908
H66	H	1.155861	-0.718318	0.516521
H67	H	1.196670	-0.670420	0.663540
H68	H	1.337773	-0.710320	0.728234
H69	H	1.438072	-0.798119	0.645908
H70	H	1.397264	-0.846017	0.498889
C71	C	1.058829	-0.784456	0.278246
C72	C	1.049867	-0.738158	0.201081
C73	C	0.966521	-0.709281	0.175720
C74	C	0.892136	-0.726702	0.227524
C75	C	0.901095	-0.773002	0.304694
C76	C	0.984441	-0.801879	0.330055
H77	H	1.104934	-0.725260	0.162728
H78	H	0.959890	-0.675007	0.118593
H79	H	0.830438	-0.705326	0.208750
H80	H	0.846029	-0.785900	0.343046
H81	H	0.991073	-0.836153	0.387181
C82	C	1.313126	-0.926264	0.348940
C83	C	1.286997	-0.977072	0.279345
C84	C	1.349550	-1.004431	0.217894
C85	C	1.438232	-0.980983	0.226038
C86	C	1.464366	-0.930173	0.295635
C87	C	1.401812	-0.902814	0.357086
H88	H	1.221346	-0.994431	0.273314
H89	H	1.330204	-1.042044	0.166374
H90	H	1.484538	-1.001237	0.180548
H91	H	1.530017	-0.912813	0.301666
H92	H	1.421159	-0.865201	0.408607
C93	C	1.278905	-0.928011	0.492677
C94	C	1.288913	-1.011653	0.506239
C95	C	1.317244	-1.040756	0.588531
C96	C	1.335567	-0.986217	0.657260
C97	C	1.325559	-0.902570	0.643700
C98	C	1.297229	-0.873467	0.561408
H99	H	1.275349	-1.052030	0.455359
H100	H	1.324652	-1.102677	0.598568
H101	H	1.356539	-1.007760	0.718177
H102	H	1.339123	-0.862192	0.694580
H103	H	1.289820	-0.811546	0.551371
H104	H	1.039595	-0.793209	0.436450
H105	H	1.117214	-0.792567	0.513886
H106	H	1.040275	-0.920836	0.436827
H107	H	1.079421	-0.919022	0.285542
H108	H	1.185078	-0.919697	0.255864
H109	H	1.186018	-0.792964	0.255808
