data_functionalizedCrystal
_audit_creation_method	'MofGen! by Chris Wilmer'
_symmetry_space_group_name_H-M	'P1'
_symmetry_Int_Tables_number	1
_symmetry_cell_setting	triclinic
loop_
_symmetry_equiv_pos_as_xyz
  x,y,z
_cell_length_a	17.640112
_cell_length_b	21.395363
_cell_length_c	21.395355
_cell_angle_alpha	89.996048
_cell_angle_beta	101.169017
_cell_angle_gamma	101.224970
loop_
_atom_site_label
_atom_site_type_symbol
_atom_site_fract_x
_atom_site_fract_y
_atom_site_fract_z
Zn1	Zn	1.208374	-0.055622	-0.160944
Zn2	Zn	1.541708	0.277712	0.172390
Zn3	Zn	1.875041	0.611045	0.505723
Zn4	Zn	1.208317	-0.160391	-0.056202
Zn5	Zn	1.541651	0.172943	0.277131
Zn6	Zn	1.874984	0.506276	0.610465
Zn7	Zn	1.076201	-0.076830	-0.077333
Zn8	Zn	1.409535	0.256504	0.256001
Zn9	Zn	1.742868	0.589837	0.589334
Zn10	Zn	1.076228	-0.181569	-0.182081
Zn11	Zn	1.409562	0.151765	0.151253
Zn12	Zn	1.742895	0.485098	0.484586
O13	O	1.142280	-0.118603	-0.119140
O14	O	1.475614	0.214731	0.214194
O15	O	1.808947	0.548064	0.547527
O16	O	1.318961	-0.051781	-0.129360
O17	O	1.652295	0.281553	0.203973
O18	O	1.985628	0.614886	0.537307
O19	O	1.190757	-0.149319	0.028667
O20	O	1.524090	0.184015	0.362001
O21	O	1.857423	0.517348	0.695334
O22	O	1.093747	0.013664	-0.088421
O23	O	1.427080	0.346997	0.244912
O24	O	1.760414	0.680330	0.578246
O25	O	1.318919	-0.128754	-0.052407
O26	O	1.652253	0.204579	0.280926
O27	O	1.985586	0.537913	0.614260
O28	O	1.190854	0.029245	-0.149850
O29	O	1.524187	0.362578	0.183484
O30	O	1.857521	0.695912	0.516817
O31	O	1.093692	-0.087927	0.013143
O32	O	1.427025	0.245407	0.346476
O33	O	1.760358	0.578740	0.679809
O34	O	0.965611	-0.108462	-0.108917
O35	O	1.298944	0.224871	0.224417
O36	O	1.632277	0.558205	0.557750
O37	O	1.093793	-0.164849	-0.266949
O38	O	1.427126	0.168484	0.066384
O39	O	1.760460	0.501817	0.399717
O40	O	0.965630	-0.185414	-0.185875
O41	O	1.298964	0.147920	0.147458
O42	O	1.632297	0.481253	0.480792
O43	O	1.190880	-0.072316	-0.251420
O44	O	1.524214	0.261017	0.081914
O45	O	1.857547	0.594350	0.415247
O46	O	1.190783	-0.250880	-0.072903
O47	O	1.524116	0.082453	0.260431
O48	O	1.857450	0.415787	0.593764
O49	O	1.093738	-0.266439	-0.165385
O50	O	1.427071	0.066894	0.167948
O51	O	1.760404	0.400227	0.501281
C52	C	0.936945	-0.151538	-0.151983
C53	C	1.270278	0.181796	0.181350
C54	C	1.603611	0.515129	0.514684
C55	C	0.849101	-0.165643	-0.166048
C56	C	1.182434	0.167691	0.167285
C57	C	1.515768	0.501024	0.500618
C58	C	1.142278	-0.281391	-0.119155
C59	C	1.475612	0.051943	0.214178
C60	C	1.808945	0.385276	0.547512
C61	C	1.142350	-0.351020	-0.119171
C62	C	1.475683	-0.017687	0.214162
C63	C	1.809017	0.315646	0.547496
C64	C	1.142346	-0.118579	-0.282553
C65	C	1.475679	0.214754	0.050781
C66	C	1.809013	0.548087	0.384114
C67	C	1.142374	-0.118570	-0.352189
C68	C	1.475707	0.214764	-0.018856
C69	C	1.809041	0.548097	0.314477
C70	C	0.560033	-0.011439	-0.012292
C71	C	0.893366	0.321895	0.321041
C72	C	1.226700	0.655228	0.654375
C73	C	0.477491	-0.024705	-0.025517
C74	C	0.810824	0.308628	0.307816
C75	C	1.144157	0.641962	0.641150
C76	C	0.477566	-0.104945	-0.105515
C77	C	0.810899	0.228389	0.227818
C78	C	1.144232	0.561722	0.561151
C79	C	0.560110	-0.091683	-0.092299
C80	C	0.893443	0.241650	0.241034
C81	C	1.226776	0.574984	0.574367
C82	C	0.601337	-0.044930	-0.045687
C83	C	0.934670	0.288404	0.287647
C84	C	1.268004	0.621737	0.620980
C85	C	0.601414	-0.125174	-0.125694
C86	C	0.934747	0.208159	0.207640
C87	C	1.268080	0.541493	0.540973
C88	C	0.683951	-0.111915	-0.112476
C89	C	1.017284	0.221418	0.220857
C90	C	1.350617	0.554751	0.554191
C91	C	0.725183	-0.065166	-0.065864
C92	C	1.058517	0.268168	0.267469
C93	C	1.391850	0.601501	0.600802
C94	C	0.683874	-0.031671	-0.032469
C95	C	1.017207	0.301662	0.300864
C96	C	1.350540	0.634996	0.634198
C97	C	0.560185	-0.171930	-0.172303
C98	C	0.893518	0.161403	0.161030
C99	C	1.226852	0.494736	0.494363
C100	C	0.601489	-0.205421	-0.205698
C101	C	0.934822	0.127912	0.127636
C102	C	1.268155	0.461245	0.460969
C103	C	0.684027	-0.192160	-0.192483
C104	C	1.017361	0.141173	0.140850
C105	C	1.350694	0.474507	0.474183
C106	C	0.725260	-0.145410	-0.145871
C107	C	1.058594	0.187923	0.187462
C108	C	1.391927	0.521257	0.520795
C109	C	0.725337	-0.225654	-0.225879
C110	C	1.058670	0.107679	0.107455
C111	C	1.392004	0.441012	0.440788
C112	C	0.807874	-0.212396	-0.212661
C113	C	1.141207	0.120937	0.120672
C114	C	1.474540	0.454271	0.454006
C115	C	0.807797	-0.132152	-0.132654
C116	C	1.141130	0.201182	0.200680
C117	C	1.474464	0.534515	0.534013
C118	C	1.348418	-0.085539	-0.086169
C119	C	1.681751	0.247794	0.247165
C120	C	2.015085	0.581127	0.580498
C121	C	1.436262	-0.071450	-0.072118
C122	C	1.769595	0.261884	0.261215
C123	C	2.102928	0.595217	0.594548
C124	C	1.142304	0.044824	-0.119135
C125	C	1.475637	0.378158	0.214199
C126	C	1.808971	0.711491	0.547532
C127	C	1.142314	0.114467	-0.119132
C128	C	1.475647	0.447801	0.214201
C129	C	1.808981	0.781134	0.547534
C130	C	1.091765	0.139070	-0.087149
C131	C	1.425098	0.472404	0.246184
C132	C	1.758431	0.805737	0.579518
C133	C	1.091764	0.204506	-0.087157
C134	C	1.425097	0.537839	0.246177
C135	C	1.758430	0.871172	0.579510
C136	C	1.142326	0.245338	-0.119139
C137	C	1.475660	0.578671	0.214195
C138	C	1.808993	0.912004	0.547528
C139	C	1.192879	0.220727	-0.151129
C140	C	1.526212	0.554060	0.182204
C141	C	1.859546	0.887394	0.515538
C142	C	1.192873	0.155292	-0.151126
C143	C	1.526206	0.488625	0.182207
C144	C	1.859539	0.821958	0.515541
C145	C	1.213542	0.360430	-0.112700
C146	C	1.546875	0.693763	0.220634
C147	C	1.880208	1.027096	0.553967
C148	C	1.213549	0.425864	-0.112698
C149	C	1.546883	0.759197	0.220635
C150	C	1.880216	1.092530	0.553968
C151	C	1.142345	0.447161	-0.119152
C152	C	1.475678	0.780495	0.214181
C153	C	1.809011	1.113828	0.547515
C154	C	1.071130	0.403016	-0.125595
C155	C	1.404464	0.736350	0.207739
C156	C	1.737797	1.069683	0.541072
C157	C	1.071124	0.337581	-0.125591
C158	C	1.404458	0.670914	0.207742
C159	C	1.737791	1.004248	0.541075
C160	C	1.142338	0.316292	-0.119146
C161	C	1.475671	0.649625	0.214187
C162	C	1.809005	0.982958	0.547521
C163	C	1.091790	0.542716	-0.087176
C164	C	1.425124	0.876050	0.246158
C165	C	1.758457	1.209383	0.579491
C166	C	1.091788	0.608152	-0.087188
C167	C	1.425121	0.941486	0.246145
C168	C	1.758455	1.274819	0.579479
C169	C	1.192910	0.624374	-0.151156
C170	C	1.526243	0.957707	0.182178
C171	C	1.859577	1.291040	0.515511
C172	C	1.192905	0.558937	-0.151148
C173	C	1.526239	0.892271	0.182185
C174	C	1.859572	1.225604	0.515519
C175	C	1.142346	0.518113	-0.119154
C176	C	1.475680	0.851446	0.214179
C177	C	1.809013	1.184780	0.547512
C178	C	1.192925	-0.070386	-0.376818
C179	C	1.526258	0.262947	-0.043484
C180	C	1.859592	0.596280	0.289849
C181	C	1.192924	-0.070360	-0.442253
C182	C	1.526257	0.262974	-0.108920
C183	C	1.859591	0.596307	0.224413
C184	C	1.142380	-0.118526	-0.483057
C185	C	1.475713	0.214807	-0.149723
C186	C	1.809047	0.548141	0.183610
C187	C	1.091819	-0.166713	-0.458422
C188	C	1.425153	0.166620	-0.125089
C189	C	1.758486	0.499953	0.208245
C190	C	1.091816	-0.166735	-0.392988
C191	C	1.425149	0.166598	-0.059655
C192	C	1.758483	0.499931	0.273678
C193	C	1.136139	-0.175943	-0.587735
C194	C	1.469472	0.157391	-0.254402
C195	C	1.802806	0.490724	0.078931
C196	C	1.136148	-0.175921	-0.653167
C197	C	1.469481	0.157412	-0.319834
C198	C	1.802814	0.490746	0.013500
C199	C	1.142385	-0.118459	-0.684877
C200	C	1.475718	0.214874	-0.351543
C201	C	1.809052	0.548208	-0.018210
C202	C	1.148630	-0.061014	-0.651144
C203	C	1.481964	0.272319	-0.317811
C204	C	1.815297	0.605652	0.015522
C205	C	1.148627	-0.061036	-0.585711
C206	C	1.481960	0.272297	-0.252377
C207	C	1.815294	0.605631	0.080956
C208	C	1.142377	-0.118507	-0.554010
C209	C	1.475711	0.214826	-0.220676
C210	C	1.809044	0.548159	0.112657
C211	C	1.192938	-0.070243	-0.780457
C212	C	1.526271	0.263090	-0.447124
C213	C	1.859604	0.596424	-0.113791
C214	C	1.192931	-0.070216	-0.845895
C215	C	1.526264	0.263117	-0.512562
C216	C	1.859598	0.596451	-0.179228
C217	C	1.091830	-0.166575	-0.862062
C218	C	1.425164	0.166759	-0.528729
C219	C	1.758497	0.500092	-0.195395
C220	C	1.091833	-0.166597	-0.796626
C221	C	1.425166	0.166737	-0.463293
C222	C	1.758499	0.500070	-0.129960
C223	C	1.142391	-0.118431	-0.755827
C224	C	1.475724	0.214902	-0.422494
C225	C	1.809057	0.548236	-0.089161
C226	C	1.142261	-0.118573	0.043645
C227	C	1.475594	0.214760	0.376978
C228	C	1.808927	0.548093	0.710311
C229	C	1.142386	-0.118382	0.113306
C230	C	1.475719	0.214951	0.446639
C231	C	1.809052	0.548285	0.779972
H232	H	0.841367	-0.094071	-0.094706
H233	H	1.174700	0.239262	0.238627
H234	H	1.508033	0.572596	0.571960
H235	H	0.443864	0.002576	0.001676
H236	H	0.777197	0.335909	0.335009
H237	H	1.110531	0.669242	0.668342
Cl238	Cl	0.859803	-0.254501	-0.254641
Cl239	Cl	1.193136	0.078832	0.078692
Cl240	Cl	1.526469	0.412166	0.412025
Cl241	Cl	1.028275	-0.227263	-0.509717
Cl242	Cl	1.361609	0.106070	-0.176384
Cl243	Cl	1.694942	0.439403	0.156949
H244	H	1.234100	-0.031021	-0.747238
H245	H	1.567434	0.302313	-0.413904
H246	H	1.900767	0.635646	-0.080571
H247	H	1.234094	-0.030976	-0.865946
H248	H	1.567428	0.302357	-0.532612
H249	H	1.900761	0.635691	-0.199279
Cl250	Cl	0.425730	-0.163725	-0.164105
Cl251	Cl	0.759063	0.169608	0.169229
Cl252	Cl	1.092396	0.502941	0.502562
H253	H	1.050594	0.105834	-0.061099
H254	H	1.383928	0.439168	0.272235
H255	H	1.717261	0.772501	0.605568
Cl256	Cl	1.028217	0.235444	-0.046941
Cl257	Cl	1.361550	0.568778	0.286392
Cl258	Cl	1.694883	0.902111	0.619725
H259	H	0.691757	-0.263725	-0.263826
H260	H	1.025091	0.069608	0.069507
H261	H	1.358424	0.402941	0.402841
H262	H	1.050669	-0.205788	-0.895285
H263	H	1.384002	0.127546	-0.561952
H264	H	1.717335	0.460879	-0.228618
Cl265	Cl	1.256425	0.124361	-0.191337
Cl266	Cl	1.589759	0.457694	0.141996
Cl267	Cl	1.923092	0.791027	0.475329
Cl268	Cl	0.456423	-0.188606	-0.188912
Cl269	Cl	0.789756	0.144727	0.144422
Cl270	Cl	1.123089	0.478061	0.477755
H271	H	0.792390	-0.054373	-0.055102
H272	H	1.125724	0.278961	0.278231
H273	H	1.459057	0.612294	0.611565
H274	H	1.153710	-0.014223	-0.676961
H275	H	1.487044	0.319110	-0.343627
H276	H	1.820377	0.652444	-0.010294
Cl277	Cl	1.256479	-0.009832	-0.325532
Cl278	Cl	1.589812	0.323501	0.007802
Cl279	Cl	1.923145	0.656834	0.341135
Cl280	Cl	0.549653	-0.264202	-0.264287
Cl281	Cl	0.882986	0.069131	0.069046
Cl282	Cl	1.216320	0.402465	0.402380
Cl283	Cl	0.735709	0.027110	0.026127
Cl284	Cl	1.069042	0.360443	0.359460
Cl285	Cl	1.402375	0.693776	0.692794
H286	H	1.153710	-0.014263	-0.558249
H287	H	1.487043	0.319070	-0.224915
H288	H	1.820377	0.652404	0.108418
H289	H	1.050648	-0.205972	-0.372938
H290	H	1.383981	0.127362	-0.039605
H291	H	1.717314	0.460695	0.293729
H292	H	0.593603	0.026642	0.025655
H293	H	0.926936	0.359975	0.358989
H294	H	1.260269	0.693309	0.692322
Cl295	Cl	1.028225	0.639080	-0.046986
Cl296	Cl	1.361558	0.972414	0.286348
Cl297	Cl	1.694891	1.305747	0.619681
H298	H	1.050673	-0.205836	-0.776574
H299	H	1.384007	0.127498	-0.443240
H300	H	1.717340	0.460831	-0.109907
H301	H	1.013139	0.301640	-0.130839
H302	H	1.346473	0.634974	0.202494
H303	H	1.679806	0.968307	0.535828
H304	H	1.013150	0.420355	-0.130849
H305	H	1.346483	0.753688	0.202485
H306	H	1.679816	1.087022	0.535818
Cl307	Cl	1.028229	0.491391	-0.046960
Cl308	Cl	1.361562	0.824724	0.286374
Cl309	Cl	1.694895	1.158057	0.619707
Cl310	Cl	1.256473	0.675699	-0.191364
Cl311	Cl	1.589806	1.009032	0.141969
Cl312	Cl	1.923140	1.342365	0.475302
H313	H	1.234072	0.538907	-0.177188
H314	H	1.567406	0.872240	0.156145
H315	H	1.900739	1.205573	0.489479
H316	H	1.271535	0.461804	-0.107449
H317	H	1.604868	0.795138	0.225885
H318	H	1.938201	1.128471	0.559218
Cl319	Cl	1.303065	0.333664	-0.104585
Cl320	Cl	1.636399	0.666997	0.228748
Cl321	Cl	1.969732	1.000331	0.562082
H322	H	1.234046	0.253975	-0.177171
H323	H	1.567380	0.587309	0.156163
H324	H	1.900713	0.920642	0.489496
H325	H	1.234087	-0.031120	-0.462310
H326	H	1.567420	0.302213	-0.128977
H327	H	1.900754	0.635547	0.204357
H328	H	1.131067	-0.222695	-0.680626
H329	H	1.464401	0.110638	-0.347293
H330	H	1.797734	0.443971	-0.013960
Cl331	Cl	1.128321	-0.248186	-0.547875
Cl332	Cl	1.461654	0.085148	-0.214542
Cl333	Cl	1.794988	0.418481	0.118792
