data_functionalizedCrystal
_audit_creation_method	'MofGen! by Chris Wilmer'
_symmetry_space_group_name_H-M	'P1'
_symmetry_Int_Tables_number	1
_symmetry_cell_setting	triclinic
loop_
_symmetry_equiv_pos_as_xyz
  x,y,z
_cell_length_a	11.792241
_cell_length_b	10.489741
_cell_length_c	10.268362
_cell_angle_alpha	90.001054
_cell_angle_beta	90.000426
_cell_angle_gamma	84.366295
loop_
_atom_site_label
_atom_site_type_symbol
_atom_site_fract_x
_atom_site_fract_y
_atom_site_fract_z
O1	O	1.507381	0.174825	0.108173
O2	O	2.007381	0.674825	0.608173
O3	O	1.177089	0.192844	0.108203
O4	O	1.677089	0.692844	0.608203
O5	O	1.349751	-0.001789	0.108180
O6	O	1.849751	0.498211	0.608180
O7	O	1.334719	0.369458	0.108197
O8	O	1.834719	0.869458	0.608197
O9	O	1.349734	-0.001782	-0.108421
O10	O	1.849734	0.498218	0.391579
O11	O	1.177072	0.192850	-0.108397
O12	O	1.677072	0.692850	0.391603
O13	O	1.507365	0.174832	-0.108428
O14	O	2.007365	0.674832	0.391572
Cu15	Cu	1.342217	0.183842	-0.128190
Cu16	Cu	1.842217	0.683842	0.371810
Cu17	Cu	1.342236	0.183834	0.127965
Cu18	Cu	1.842236	0.683834	0.627965
O19	O	1.334703	0.369464	-0.108404
O20	O	1.834703	0.869464	0.391596
C21	C	1.134786	0.191715	-0.000093
C22	C	1.634786	0.691715	0.499907
C23	C	1.008764	0.188327	-0.000082
C24	C	1.508764	0.688327	0.499918
C25	C	1.348607	-0.049314	-0.000120
C26	C	1.848607	0.450686	0.499880
C27	C	1.345210	-0.190931	-0.000117
C28	C	1.845210	0.309069	0.499883
C29	C	0.778035	0.182098	-0.000120
C30	C	1.278035	0.682098	0.499880
C31	C	0.906429	0.185559	-0.000099
C32	C	1.406429	0.685559	0.499901
C33	C	1.235351	-0.258697	-0.000098
C34	C	1.735351	0.241303	0.499902
C35	C	1.287239	-0.350993	-0.106898
C36	C	1.787239	0.149007	0.393102
C37	C	1.287282	-0.350975	0.106654
C38	C	1.787282	0.149025	0.606654
C39	C	1.397144	-0.281362	-0.107005
C40	C	1.897144	0.218638	0.392995
C41	C	1.397171	-0.281334	0.106642
C42	C	1.897171	0.218666	0.606642
C43	C	1.449140	-0.373603	-0.000184
C44	C	1.949140	0.126397	0.499816
C45	C	1.549667	0.175960	-0.000128
C46	C	2.049667	0.675960	0.499872
C47	C	1.675690	0.179348	-0.000131
C48	C	2.175690	0.679348	0.499869
C49	C	1.335846	0.416989	-0.000102
C50	C	1.835846	0.916989	0.499898
C51	C	1.339243	0.558607	-0.000096
C52	C	1.839243	1.058607	0.499904
N53	N	1.342211	0.183846	-0.308356
N54	N	1.842211	0.683846	0.191644
C55	C	1.342220	0.183847	-0.426198
C56	C	1.842220	0.683847	0.073802
C57	C	1.342234	0.183836	-0.574036
C58	C	1.842234	0.683836	-0.074036
N59	N	1.342251	0.183819	0.308131
N60	N	1.842251	0.683819	0.808131
H61	H	1.145025	-0.208738	-0.000197
H62	H	1.645025	0.291262	0.499803
H63	H	1.240791	-0.381783	0.196954
H64	H	1.740791	0.118217	0.696954
H65	H	1.443581	-0.250686	-0.197398
H66	H	1.943581	0.249314	0.302602
H67	H	1.240748	-0.381844	-0.197181
H68	H	1.740748	0.118156	0.302819
H69	H	1.539547	-0.423335	-0.000252
H70	H	2.039547	0.076665	0.499748
H71	H	1.443623	-0.250450	0.196930
H72	H	1.943623	0.249550	0.696930
