data_functionalizedCrystal
_audit_creation_method	'MofGen! by Chris Wilmer'
_symmetry_space_group_name_H-M	'P1'
_symmetry_Int_Tables_number	1
_symmetry_cell_setting	triclinic
loop_
_symmetry_equiv_pos_as_xyz
  x,y,z
_cell_length_a	10.723023
_cell_length_b	9.198806
_cell_length_c	16.109301
_cell_angle_alpha	89.995394
_cell_angle_beta	96.035486
_cell_angle_gamma	90.003487
loop_
_atom_site_label
_atom_site_type_symbol
_atom_site_fract_x
_atom_site_fract_y
_atom_site_fract_z
O1	O	1.655643	0.120883	-0.116604
O2	O	1.292342	0.120889	-0.127766
O3	O	1.483973	0.120871	-0.001213
O4	O	1.464012	0.120901	-0.243158
O5	O	1.483958	-0.120914	-0.001213
O6	O	1.292327	-0.120896	-0.127766
O7	O	1.655628	-0.120902	-0.116604
Cu8	Cu	1.473976	-0.142976	-0.122185
Cu9	Cu	1.473994	0.142963	-0.122185
O10	O	1.463997	-0.120884	-0.243157
C11	C	1.245846	-0.000002	-0.126954
C12	C	1.107324	-0.000000	-0.124524
C13	C	1.045558	-0.125251	-0.123441
C14	C	0.902388	-0.125252	-0.120929
N15	N	1.473972	-0.344090	-0.122184
C16	C	1.554436	-0.416295	-0.068814
C17	C	1.554455	-0.583707	-0.068811
C18	C	1.702124	-0.000007	-0.117416
C19	C	1.840646	0.000000	-0.119846
C20	C	1.483157	-0.000022	0.029767
C21	C	1.480733	-0.000024	0.122076
N22	N	1.474007	0.344077	-0.122180
C23	C	1.464813	0.000012	-0.274137
C24	C	1.467237	0.000024	-0.366447
C25	C	1.588806	-0.000003	0.343713
C26	C	1.586518	0.000009	0.430447
C27	C	1.359155	0.000007	0.411910
C28	C	1.361444	0.000006	0.325178
C29	C	1.476273	-0.000007	0.291082
C30	C	1.471697	0.000007	0.464548
C31	C	1.469216	0.000020	0.558588
C32	C	1.478755	-0.000017	0.197035
H33	H	1.054211	0.107231	-0.123590
H34	H	0.849271	-0.232484	-0.120002
H35	H	1.405094	-0.406211	-0.167872
H36	H	1.623305	-0.354175	-0.023120
C37	C	1.715834	-0.124270	0.538751
C38	C	1.710215	0.000012	0.488303
H39	H	1.792200	-0.124257	0.574472
H40	H	1.712005	-0.208574	0.504538
H41	H	1.647117	-0.124250	0.571467
H42	H	1.778928	-0.000013	0.455582
H43	H	1.714056	0.084339	0.522520
C44	C	1.254692	-0.000009	0.536634
C45	C	1.232940	-0.000000	0.449392
H46	H	1.176768	-0.000027	0.559770
H47	H	1.301015	0.084304	0.554649
H48	H	1.301028	-0.084328	0.554650
H49	H	1.186611	0.084325	0.431376
H50	H	1.186597	-0.084322	0.431370
C51	C	1.136466	-0.000011	0.315559
C52	C	1.237738	-0.000004	0.267318
H53	H	1.060101	-0.000021	0.279837
H54	H	1.140301	0.084300	0.349767
H55	H	1.140305	-0.084332	0.349779
H56	H	1.233904	0.084324	0.233102
H57	H	1.233901	-0.084323	0.233095
C58	C	1.813313	0.000027	0.370751
C59	C	1.715023	0.000009	0.306234
H60	H	1.891235	0.000049	0.347613
H61	H	1.807696	-0.084286	0.404195
H62	H	1.807675	0.084346	0.404192
H63	H	1.720656	-0.084316	0.272796
H64	H	1.720643	0.084331	0.272776
C65	C	0.973127	0.152715	-0.193762
C66	C	0.912336	0.144773	-0.121104
H67	H	1.017397	0.242088	-0.194535
H68	H	0.912810	0.147327	-0.241259
H69	H	1.030416	0.074126	-0.194759
H70	H	0.855039	0.223356	-0.120111
H71	H	0.972659	0.150175	-0.073595
H72	H	1.098672	-0.232482	-0.124368
C73	C	1.627175	-0.630844	0.074744
C74	C	1.647454	-0.667518	-0.007121
H75	H	1.684596	-0.682583	0.112828
H76	H	1.543832	-0.655744	0.084100
H77	H	1.639366	-0.529334	0.082824
H78	H	1.635254	-0.769027	-0.015204
H79	H	1.730818	-0.642628	-0.016481
H80	H	1.405120	-0.593840	-0.167878
