data_functionalizedCrystal
_audit_creation_method	'MofGen! by Chris Wilmer'
_symmetry_space_group_name_H-M	'P1'
_symmetry_Int_Tables_number	1
_symmetry_cell_setting	triclinic
loop_
_symmetry_equiv_pos_as_xyz
  x,y,z
_cell_length_a	8.634740
_cell_length_b	15.995292
_cell_length_c	7.088929
_cell_angle_alpha	83.780829
_cell_angle_beta	97.174953
_cell_angle_gamma	92.019462
loop_
_atom_site_label
_atom_site_type_symbol
_atom_site_fract_x
_atom_site_fract_y
_atom_site_fract_z
O1	O	2.030127	0.280319	-0.158951
O2	O	1.581183	0.257428	-0.158958
O3	O	1.817974	0.147977	-0.158957
O4	O	1.793337	0.389771	-0.158952
O5	O	1.849619	0.133311	0.159018
O6	O	1.612828	0.242762	0.159017
O7	O	2.061772	0.265653	0.159024
Cu8	Cu	1.840189	0.252869	0.188054
Cu9	Cu	1.802766	0.270213	-0.187988
O10	O	1.824981	0.375105	0.159023
C11	C	1.539557	0.244909	0.000028
C12	C	1.368380	0.229448	0.000025
C13	C	1.832793	0.109367	0.000025
C14	C	1.829785	0.016173	0.000011
C15	C	1.818735	-0.322458	0.000028
C16	C	1.989715	-0.285391	0.000741
C17	C	1.992891	-0.188419	0.000018
C18	C	1.824218	-0.154460	0.000021
C19	C	1.720702	-0.182079	-0.181554
C20	C	1.718630	-0.279029	-0.181699
C21	C	1.751126	-0.295846	0.179898
C22	C	1.757697	-0.198953	0.182291
C23	C	1.827308	-0.059514	0.000010
C24	C	1.815640	-0.417404	0.000026
C25	C	2.103397	0.278172	0.000033
C26	C	2.274574	0.293634	0.000024
C27	C	1.810162	0.413714	0.000036
C28	C	1.813168	0.506909	0.000038
N29	N	1.866522	0.240670	0.452542
N30	N	1.776445	0.282406	-0.452476
H31	H	1.325227	0.360420	0.000038
H32	H	1.766590	-0.150999	-0.316683
Cl33	Cl	1.632308	0.349181	0.421470
H34	H	2.047230	-0.158570	-0.130368
Cl35	Cl	1.290195	0.126338	0.000035
H36	H	2.072764	-0.169999	0.130175
Cl37	Cl	2.010682	0.173901	0.578603
H38	H	2.068550	-0.314079	0.130957
H39	H	2.042339	-0.303151	-0.128741
H40	H	1.764298	-0.294811	-0.317432
H41	H	1.833284	-0.181563	0.316619
Cl42	Cl	1.523898	-0.316519	-0.194435
Cl43	Cl	1.854824	-0.342675	0.392381
Cl44	Cl	1.569296	-0.164171	0.199228
Cl45	Cl	1.528031	-0.147854	-0.191993
H46	H	1.625446	-0.320042	0.181123
