data_functionalizedCrystal
_audit_creation_method	'MofGen! by Chris Wilmer'
_symmetry_space_group_name_H-M	'P1'
_symmetry_Int_Tables_number	1
_symmetry_cell_setting	triclinic
loop_
_symmetry_equiv_pos_as_xyz
  x,y,z
_cell_length_a	21.395362
_cell_length_b	16.959454
_cell_length_c	21.395356
_cell_angle_alpha	90.022667
_cell_angle_beta	90.035878
_cell_angle_gamma	90.035955
loop_
_atom_site_label
_atom_site_type_symbol
_atom_site_fract_x
_atom_site_fract_y
_atom_site_fract_z
Zn1	Zn	0.957856	-0.314363	0.354610
Zn2	Zn	0.957793	-0.446546	0.249842
Zn3	Zn	0.853086	-0.314422	0.249811
Zn4	Zn	0.853059	-0.446540	0.354547
O5	O	0.905448	-0.380467	0.302202
O6	O	1.045525	-0.331875	0.340751
O7	O	0.943887	-0.429046	0.162160
O8	O	0.867021	-0.203803	0.263726
O9	O	1.045479	-0.428989	0.263779
O10	O	0.943995	-0.203760	0.340721
O11	O	0.866960	-0.331975	0.162137
O12	O	0.765404	-0.331970	0.263665
O13	O	0.866977	-0.428979	0.442233
O14	O	0.765385	-0.429036	0.340614
O15	O	0.943970	-0.331869	0.442279
O16	O	0.943862	-0.557156	0.263718
O17	O	0.866915	-0.557151	0.340645
C18	C	0.742661	-0.380509	0.302130
C19	C	0.673019	-0.380546	0.302114
C20	C	0.640313	-0.431156	0.342121
C21	C	0.574877	-0.431136	0.342149
C22	C	0.542151	-0.380516	0.302158
C23	C	0.574866	-0.329896	0.262148
C24	C	0.640300	-0.329912	0.262126
C25	C	0.438433	-0.374160	0.245752
C26	C	0.373000	-0.374150	0.245774
C27	C	0.340330	-0.380464	0.302227
C28	C	0.373101	-0.386804	0.358661
C29	C	0.438536	-0.386819	0.358639
C30	C	0.471199	-0.380493	0.302178
C31	C	0.236671	-0.431055	0.342268
C32	C	0.171235	-0.431030	0.342297
C33	C	0.171224	-0.329795	0.262291
C34	C	0.236660	-0.329815	0.262267
C35	C	0.269379	-0.380450	0.302255
C36	C	0.905396	-0.585834	0.302192
C37	C	0.905431	-0.673690	0.302208
C38	C	0.865440	-1.045193	0.342254
C39	C	0.945631	-1.045138	0.262215
C40	C	0.945609	-0.962592	0.262209
C41	C	0.905502	-0.921343	0.302226
C42	C	0.865416	-0.962640	0.342248
C43	C	0.985690	-0.921289	0.222184
C44	C	0.985669	-0.838738	0.222176
C45	C	0.945564	-0.797488	0.262196
C46	C	0.905477	-0.838790	0.302220
C47	C	0.865369	-0.797541	0.342236
C48	C	0.825285	-0.838841	0.382264
C49	C	0.825311	-0.921389	0.382268
C50	C	0.945538	-0.714939	0.262192
C51	C	0.865345	-0.714987	0.342230
C52	C	1.068872	-0.380426	0.302276
C53	C	1.138513	-0.380408	0.302307
C54	C	0.905477	-0.380417	0.465626
C55	C	0.905490	-0.380395	0.535267
C56	C	0.905518	-0.174299	0.302227
C57	C	0.905548	-0.086443	0.302237
C58	C	0.905456	-0.380461	0.139415
C59	C	0.905565	-0.380260	0.069774
C60	C	0.945639	-0.329704	1.037088
C61	C	0.945634	-0.329723	0.971653
C62	C	0.905543	-0.380290	0.938906
C63	C	0.865466	-0.430856	0.971599
C64	C	0.865477	-0.430841	1.037033
C65	C	0.849075	-0.386569	0.835211
C66	C	0.849064	-0.386578	0.769778
C67	C	0.905511	-0.380340	0.737085
C68	C	0.961972	-0.374076	0.769833
C69	C	0.961983	-0.374061	0.835267
C70	C	0.905528	-0.380312	0.867953
C71	C	0.945584	-0.329802	0.633447
C72	C	0.945580	-0.329827	0.568010
C73	C	0.865406	-0.430955	0.567957
C74	C	0.865416	-0.430935	0.633393
C75	C	0.905504	-0.380354	0.666133
H76	H	0.465028	-0.369015	0.199778
H77	H	0.792626	-0.805246	0.414843
H78	H	0.978171	-0.681316	0.229599
H79	H	0.978281	-1.078728	0.229632
H80	H	0.548242	-0.472348	0.374730
H81	H	0.792676	-0.955023	0.414855
C82	C	0.821385	-0.486454	1.072988
N83	N	0.788173	-0.528340	1.100071
C84	C	0.272638	-0.274147	0.218250
N85	N	0.299737	-0.232215	0.185094
C86	C	0.821230	-0.669620	0.386260
N87	N	0.788004	-0.635449	0.419425
C88	C	0.538866	-0.274214	0.218158
N89	N	0.511750	-0.232270	0.185025
H90	H	0.832780	-0.472100	0.660006
C91	C	1.029796	-0.966668	0.178160
N92	N	1.063016	-1.000851	0.144998
C93	C	0.676278	-0.274239	0.218109
N94	N	0.703378	-0.232307	0.184953
H95	H	0.803106	-0.391650	0.861824
H96	H	1.018308	-0.805117	0.189584
C97	C	0.821364	-0.486477	0.935576
N98	N	0.788146	-0.528374	0.908443
H99	H	0.978285	-0.288521	1.063742
H100	H	0.832766	-0.472131	0.541295
H101	H	0.666949	-0.472385	0.374683
H102	H	0.832806	-1.078824	0.374845
H103	H	0.978268	-0.288551	0.945035
C104	C	1.024089	-0.367181	0.871287
N105	N	1.070869	-0.362003	0.898417
H106	H	1.007937	-0.368994	0.743215
H107	H	0.465215	-0.391979	0.404590
C108	C	0.786956	-0.393464	0.733762
N109	N	0.740174	-0.398649	0.706636
C110	C	0.337169	-0.393747	0.420766
N111	N	0.310103	-0.398976	0.467541
C112	C	0.989688	-0.274171	0.669464
N113	N	1.022908	-0.232271	0.696590
H114	H	0.144606	-0.472241	0.374880
H115	H	0.263313	-0.472281	0.374832
C116	C	0.135229	-0.274110	0.218301
N117	N	0.108115	-0.232167	0.185167
H118	H	0.346323	-0.368993	0.199822
C119	C	0.989667	-0.274206	0.532056
N120	N	1.022872	-0.232310	0.504975
