data_functionalizedCrystal
_audit_creation_method	'MofGen! by Chris Wilmer'
_symmetry_space_group_name_H-M	'P1'
_symmetry_Int_Tables_number	1
_symmetry_cell_setting	triclinic
loop_
_symmetry_equiv_pos_as_xyz
  x,y,z
_cell_length_a	17.699083
_cell_length_b	9.065218
_cell_length_c	8.140239
_cell_angle_alpha	90.001686
_cell_angle_beta	89.998958
_cell_angle_gamma	95.850550
loop_
_atom_site_label
_atom_site_type_symbol
_atom_site_fract_x
_atom_site_fract_y
_atom_site_fract_z
O1	O	1.005529	-0.186555	-0.136542
O2	O	0.785340	-0.210827	-0.136559
O3	O	0.899986	0.016086	-0.136547
O4	O	0.890883	-0.413468	-0.136554
O5	O	0.899979	0.016089	0.136680
O6	O	0.785333	-0.210824	0.136668
O7	O	1.005522	-0.186553	0.136685
Zn8	Zn	0.895427	-0.198688	0.180057
Zn9	Zn	0.895435	-0.198691	-0.179931
O10	O	0.890877	-0.413466	0.136673
C11	C	0.899108	0.071048	0.000064
C12	C	0.896492	0.234814	0.000056
C13	C	1.033729	-0.187423	0.000070
C14	C	1.117768	-0.190033	0.000065
C15	C	0.757133	-0.209956	0.000052
C16	C	0.673094	-0.207347	0.000046
C17	C	1.165350	-0.056839	0.000062
C18	C	1.244313	-0.059300	0.000067
C19	C	1.275691	-0.194955	0.000064
C20	C	1.228103	-0.328158	0.000073
C21	C	1.149142	-0.325697	0.000079
C22	C	1.546543	-0.338090	0.000049
C23	C	1.625511	-0.340542	0.000038
C24	C	1.641714	-0.071693	0.000037
C25	C	1.562753	-0.069231	0.000043
C26	C	1.515172	-0.202434	0.000061
C27	C	1.429552	-0.199765	0.000058
C28	C	1.361310	-0.197626	0.000055
C29	C	0.891755	-0.468428	0.000058
C30	C	0.894370	-0.632193	0.000056
N31	N	0.895427	-0.198685	0.425740
N32	N	0.895441	-0.198683	-0.425614
H33	H	1.139808	0.053627	0.000054
F34	F	1.294950	0.082463	0.000072
H35	H	1.253658	-0.438611	0.000080
F36	F	1.658904	-0.484932	0.000036
F37	F	1.692360	0.070075	0.000028
H38	H	1.537209	0.041233	0.000038
F39	F	1.495914	-0.479857	0.000050
F40	F	1.098501	-0.467459	0.000092
