data_functionalizedCrystal
_audit_creation_method	'MofGen! by Chris Wilmer'
_symmetry_space_group_name_H-M	'P1'
_symmetry_Int_Tables_number	1
_symmetry_cell_setting	triclinic
loop_
_symmetry_equiv_pos_as_xyz
  x,y,z
_cell_length_a	23.532407
_cell_length_b	23.532407
_cell_length_c	9.016244
_cell_angle_alpha	89.993097
_cell_angle_beta	89.995357
_cell_angle_gamma	82.848712
loop_
_atom_site_label
_atom_site_type_symbol
_atom_site_fract_x
_atom_site_fract_y
_atom_site_fract_z
O1	O	0.755262	0.069133	-0.123262
O2	O	0.589399	0.079136	-0.123287
O3	O	0.677332	-0.008797	-0.123246
O4	O	0.667329	0.157066	-0.123302
O5	O	0.677319	-0.008795	0.123434
O6	O	0.589386	0.079138	0.123394
O7	O	0.755249	0.069135	0.123419
Cu8	Cu	0.672316	0.074137	0.145930
Cu9	Cu	0.672332	0.074134	-0.145798
O10	O	0.667316	0.157068	0.123378
C11	C	0.568176	0.078882	0.000050
C12	C	0.504959	0.078116	0.000042
C13	C	0.677071	-0.030012	0.000098
C14	C	0.676305	-0.093229	0.000109
C15	C	0.238792	0.022921	0.000101
C16	C	0.298192	0.023632	0.000100
O17	O	0.334937	-0.020153	0.000166
N18	N	0.320818	0.075909	0.000072
C19	C	0.284041	0.127477	0.000060
O20	O	0.308740	0.172007	0.000038
C21	C	0.224642	0.126765	0.000072
C22	C	0.202019	0.074485	0.000084
C23	C	0.216168	-0.029354	0.000115
C24	C	0.156772	-0.030066	0.000113
C25	C	0.119999	0.021499	0.000096
C26	C	0.142623	0.073774	0.000082
C27	C	0.187865	0.178333	0.000070
C28	C	0.128463	0.177616	0.000083
C29	C	0.105840	0.125336	0.000095
C30	C	0.046454	0.124627	0.000064
N31	N	0.023828	0.072351	0.000091
C32	C	0.060600	0.020787	0.000108
C33	C	0.408783	0.128968	0.000039
C34	C	0.468181	0.129681	0.000017
C35	C	0.482328	0.025836	0.000060
C36	C	0.422929	0.025124	0.000071
C37	C	0.386157	0.076692	0.000067
C38	C	-0.064136	0.019297	0.000102
C39	C	-0.123538	0.018590	0.000094
C40	C	-0.137680	0.122435	0.000059
C41	C	-0.078284	0.123142	0.000059
C42	C	-0.041512	0.071568	0.000086
O43	O	0.009675	0.168390	0.000003
O44	O	0.035892	-0.023737	0.000149
C45	C	0.723538	-0.492332	0.000035
C46	C	0.722827	-0.551733	0.000024
O47	O	0.766613	-0.588477	-0.000024
N48	N	0.670551	-0.574359	0.000017
C49	C	0.618982	-0.537581	0.000006
O50	O	0.574452	-0.562281	-0.000003
C51	C	0.619695	-0.478182	0.000007
C52	C	0.671974	-0.455559	0.000029
C53	C	0.775814	-0.469709	0.000055
C54	C	0.776525	-0.410313	0.000069
C55	C	0.724961	-0.373540	0.000063
C56	C	0.672685	-0.396163	0.000043
C57	C	0.568127	-0.441406	-0.000015
C58	C	0.568843	-0.382003	-0.000015
C59	C	0.621123	-0.359381	0.000007
C60	C	0.621832	-0.299994	0.000051
N61	N	0.674109	-0.277368	0.000058
C62	C	0.725673	-0.314141	0.000064
C63	C	0.617491	-0.662324	0.000002
C64	C	0.616778	-0.721722	0.000012
C65	C	0.720623	-0.735869	0.000026
C66	C	0.721335	-0.676470	0.000027
C67	C	0.669767	-0.639698	0.000009
C68	C	0.727163	-0.189404	0.000095
C69	C	0.727869	-0.130002	0.000115
C70	C	0.624025	-0.115860	0.000092
C71	C	0.623318	-0.175257	0.000080
C72	C	0.674891	-0.212028	0.000076
O73	O	0.578069	-0.263215	0.000093
O74	O	0.770196	-0.289433	0.000053
C75	C	0.776472	0.069389	0.000078
C76	C	0.839689	0.070155	0.000077
C77	C	0.667577	0.178283	0.000031
C78	C	0.668343	0.241500	0.000010
N79	N	0.672310	0.074138	0.351116
N80	N	0.672343	0.074128	-0.350984
C81	C	0.625131	0.121023	0.586127
C82	C	0.625232	0.121195	0.414236
C83	C	0.731662	0.086782	0.413459
C84	C	0.731404	0.087113	0.585403
C85	C	0.660730	0.014449	0.585678
C86	C	0.659357	0.014857	0.413724
H87	H	-0.141954	-0.023984	0.000100
H88	H	0.618411	0.002207	0.629124
H89	H	0.632609	0.165490	0.373076
H90	H	0.098525	0.219610	0.000086
H91	H	0.525555	-0.459814	-0.000042
H92	H	-0.059864	0.165712	0.000047
H93	H	0.770443	-0.111587	0.000137
H94	H	0.695162	-0.020445	0.626346
H95	H	0.769159	-0.219337	0.000086
H96	H	0.819097	-0.391900	0.000081
H97	H	0.138359	-0.072637	0.000129
H98	H	-0.167631	0.164417	0.000038
H99	H	0.763906	-0.658055	0.000044
H100	H	0.404515	-0.017447	0.000083
H101	H	0.817806	-0.499644	0.000055
H102	H	0.512280	-0.016150	0.000074
H103	H	0.762610	-0.765821	0.000026
H104	H	0.574207	-0.740135	0.000019
H105	H	0.486595	0.172252	-0.000014
H106	H	0.767614	0.054286	0.627001
H107	H	0.575496	-0.632386	-0.000001
H108	H	0.767616	0.053522	0.372570
H109	H	-0.034204	-0.022699	0.000123
H110	H	0.378846	0.170964	0.000025
H111	H	0.526850	-0.352065	-0.000032
H112	H	0.580747	-0.193677	0.000103
H113	H	0.742198	0.129798	0.370368
H114	H	0.582043	-0.085909	0.000093
H115	H	0.246104	-0.071347	0.000133
H116	H	0.632408	0.165068	0.629307
H117	H	0.615699	0.005254	0.372979
H118	H	0.581103	0.113711	0.372088
H119	H	0.580863	0.113666	0.627517
H120	H	0.206274	0.220904	0.000053
H121	H	0.691533	-0.021648	0.370764
H122	H	0.741688	0.130627	0.625479
