data_functionalizedCrystal
_audit_creation_method	'MofGen! by Chris Wilmer'
_symmetry_space_group_name_H-M	'P1'
_symmetry_Int_Tables_number	1
_symmetry_cell_setting	triclinic
loop_
_symmetry_equiv_pos_as_xyz
  x,y,z
_cell_length_a	10.654549
_cell_length_b	14.853559
_cell_length_c	9.130307
_cell_angle_alpha	89.998895
_cell_angle_beta	89.997449
_cell_angle_gamma	84.059186
loop_
_atom_site_label
_atom_site_type_symbol
_atom_site_fract_x
_atom_site_fract_y
_atom_site_fract_z
O1	O	1.666512	0.126646	-0.121827
O2	O	1.300909	0.138706	-0.121822
O3	O	1.493482	0.001498	-0.121823
O4	O	1.473939	0.263854	-0.121826
O5	O	1.493476	0.001497	0.121776
O6	O	1.300902	0.138704	0.121777
O7	O	1.666506	0.126645	0.121772
Cu8	Cu	1.483704	0.132674	0.144017
Cu9	Cu	1.483711	0.132676	-0.144067
O10	O	1.473933	0.263852	0.121773
C11	C	1.254117	0.137819	-0.000022
C12	C	1.114701	0.135167	-0.000020
C13	C	0.823057	0.294257	-0.000063
C14	C	0.873726	0.377540	-0.000057
C15	C	1.004718	0.380035	-0.000038
C16	C	1.085046	0.299238	-0.000029
C17	C	1.034378	0.215955	-0.000034
C18	C	0.903381	0.213469	-0.000049
C19	C	1.064033	0.051883	-0.000025
C20	C	0.933042	0.049387	-0.000034
C21	C	1.144362	-0.028914	-0.000015
C22	C	1.093694	-0.112199	-0.000010
C23	C	0.962693	-0.114690	-0.000027
C24	C	0.882373	-0.033896	-0.000039
C25	C	1.492595	-0.032096	-0.000026
C26	C	1.489947	-0.132195	-0.000034
C27	C	1.478718	-0.555429	-0.132820
C28	C	1.478711	-0.555425	0.132761
C29	C	1.481209	-0.461379	0.132762
C30	C	1.482460	-0.414353	-0.000030
C31	C	1.481213	-0.461373	-0.132823
C32	C	1.482444	-0.414350	0.265553
C33	C	1.484941	-0.320297	0.265559
C34	C	1.486201	-0.273270	0.132766
C35	C	1.484955	-0.320297	-0.000033
C36	C	1.486205	-0.273271	-0.132825
C37	C	1.484968	-0.320297	-0.265625
C38	C	1.482472	-0.414347	-0.265617
C39	C	1.488697	-0.179221	0.132758
C40	C	1.488700	-0.179215	-0.132828
C41	C	1.713298	0.127532	-0.000032
C42	C	1.852713	0.130184	-0.000043
C43	C	1.474819	0.297447	-0.000027
C44	C	1.477467	0.397545	-0.000028
N45	N	1.483708	0.132673	0.346640
N46	N	1.483717	0.132670	-0.346690
C47	C	1.654300	0.011211	0.346629
C48	C	1.739605	-0.049517	0.423290
C49	C	1.739618	-0.049518	0.576623
C50	C	1.654314	0.011215	0.653299
C51	C	1.569009	0.071943	0.576638
C52	C	1.569008	0.071939	0.423301
C53	C	1.398412	0.193399	0.576649
C54	C	1.398404	0.193405	0.423316
C55	C	1.313108	0.254131	0.653325
C56	C	1.227808	0.314865	0.576664
C57	C	1.227799	0.314864	0.423321
C58	C	1.313099	0.254133	0.346655
H59	H	1.191705	0.301276	-0.000030
C60	C	0.906962	-0.206301	-0.000040
H61	H	0.817443	-0.196219	-0.000062
H62	H	0.934515	-0.239604	0.084907
H63	H	0.934535	-0.239593	-0.085000
C64	C	1.833447	-0.116318	0.660953
H65	H	1.884253	-0.152485	0.593334
H66	H	1.788219	-0.154149	0.720780
H67	H	1.885776	-0.083525	0.720757
C68	C	1.477352	-0.607151	-0.278889
H69	H	1.475681	-0.669899	-0.259877
H70	H	1.550935	-0.598152	-0.333454
H71	H	1.404574	-0.585318	-0.333443
H72	H	1.158354	0.364305	0.639103
H73	H	1.654309	0.011213	0.221776
C74	C	1.486346	-0.268562	-0.411687
H75	H	1.488014	-0.205816	-0.392659
H76	H	1.412769	-0.277557	-0.466257
H77	H	1.559130	-0.290388	-0.466243
H78	H	1.251021	-0.026876	-0.000007
C79	C	1.481095	-0.466074	-0.411679
H80	H	1.479414	-0.528820	-0.392655
H81	H	1.554678	-0.457086	-0.466252
H82	H	1.408318	-0.444238	-0.466231
H83	H	1.489675	-0.140934	0.240881
C84	C	1.833432	-0.116318	0.338945
H85	H	1.821219	-0.107618	0.236645
H86	H	1.819708	-0.176581	0.364081
H87	H	1.917260	-0.105953	0.364063
H88	H	1.313104	0.254130	0.221802
C89	C	0.678970	0.291512	-0.000066
H90	H	0.660299	0.230340	-0.000056
H91	H	0.643861	0.321248	-0.085012
H92	H	0.643860	0.321243	0.084895
C93	C	1.477340	-0.607151	0.278819
H94	H	1.475683	-0.669900	0.259801
H95	H	1.404578	-0.585320	0.333391
H96	H	1.550938	-0.598160	0.333368
C97	C	1.182046	-0.201065	-0.000012
H98	H	1.133113	-0.251024	-0.000023
H99	H	1.233764	-0.203504	0.084933
H100	H	1.233761	-0.203498	-0.084974
C101	C	1.313123	0.254133	0.821987
H102	H	1.376152	0.209275	0.856665
H103	H	1.232849	0.241253	0.856693
H104	H	1.330403	0.311879	0.856658
H105	H	1.654319	0.011203	0.778151
H106	H	1.158329	0.364313	0.360912
C107	C	0.738285	-0.036633	-0.000069
H108	H	0.697706	0.023413	-0.000088
H109	H	0.714103	-0.067496	0.084870
H110	H	0.714148	-0.067491	-0.085037
H111	H	1.489724	-0.140934	-0.240964
H112	H	1.045970	0.447851	-0.000032
C113	C	0.785365	0.466410	-0.000060
H114	H	0.700093	0.453000	-0.000057
H115	H	0.800749	0.500529	-0.085004
H116	H	0.800732	0.500521	0.084904
H117	H	1.481419	-0.452645	0.373665
H118	H	1.485953	-0.282017	0.373693
