data_functionalizedCrystal
_audit_creation_method	'MofGen! by Chris Wilmer'
_symmetry_space_group_name_H-M	'P1'
_symmetry_Int_Tables_number	1
_symmetry_cell_setting	triclinic
loop_
_symmetry_equiv_pos_as_xyz
  x,y,z
_cell_length_a	19.121414
_cell_length_b	13.897447
_cell_length_c	13.897433
_cell_angle_alpha	90.067446
_cell_angle_beta	92.388631
_cell_angle_gamma	87.537521
loop_
_atom_site_label
_atom_site_type_symbol
_atom_site_fract_x
_atom_site_fract_y
_atom_site_fract_z
Zn1	Zn	1.073912	0.320729	-0.482652
Zn2	Zn	1.073771	0.482174	-0.321373
Zn3	Zn	0.956404	0.327765	-0.328237
Zn4	Zn	0.956441	0.488861	-0.489483
O5	O	1.015132	0.404882	-0.405436
O6	O	1.172174	0.336402	-0.455527
O7	O	1.058128	0.461838	-0.187306
O8	O	0.972036	0.191848	-0.348735
O9	O	1.172070	0.455015	-0.337036
O10	O	1.058369	0.186678	-0.462183
O11	O	0.971899	0.348395	-0.192349
O12	O	0.858129	0.354878	-0.355358
O13	O	0.972098	0.466411	-0.623554
O14	O	0.858155	0.473234	-0.473824
O15	O	1.058404	0.342886	-0.618536
O16	O	1.058163	0.618046	-0.343659
O17	O	0.971961	0.622958	-0.467168
C18	C	0.832659	0.415546	-0.416078
C19	C	0.754596	0.420131	-0.420653
C20	C	1.015070	0.655500	-0.405430
C21	C	1.015107	0.762712	-0.405456
C22	C	0.717887	0.360570	-0.361225
C23	C	0.644539	0.364887	-0.365524
C24	C	0.607901	0.428759	-0.429256
C25	C	0.644614	0.488326	-0.488686
C26	C	0.717961	0.484014	-0.484382
C27	C	0.386442	0.444872	-0.445328
C28	C	0.313090	0.449177	-0.449630
C29	C	0.313019	0.325738	-0.326465
C30	C	0.386368	0.321427	-0.322171
C31	C	0.423075	0.380998	-0.381598
C32	C	0.532927	0.433171	-0.433654
C33	C	0.498047	0.376591	-0.377195
C34	C	1.015139	0.849780	-0.405480
C35	C	1.015186	0.959010	-0.405507
C36	C	1.198318	0.394178	-0.394754
C37	C	1.276381	0.389617	-0.390202
C38	C	1.015271	0.404609	-0.657022
C39	C	1.015330	0.404493	-0.764232
C40	C	1.015209	1.153285	-0.405475
C41	C	1.015228	1.046070	-0.405524
C42	C	1.015034	0.405082	-0.154827
C43	C	1.015111	0.404919	-0.047609
C44	C	1.015268	0.404627	0.148694
C45	C	1.015183	0.404792	0.039457
H46	H	0.614654	0.316392	-0.317125
C47	C	0.710668	0.606450	-0.606567
C48	C	0.758314	0.549480	-0.549713
H49	H	0.735582	0.646864	-0.646902
H50	H	0.682026	0.645009	-0.566160
H51	H	0.682092	0.566111	-0.645208
H52	H	0.786887	0.589819	-0.511066
H53	H	0.786969	0.510918	-0.590124
C54	C	0.540357	0.554727	-0.554995
C55	C	0.492652	0.503362	-0.503726
H56	H	0.515490	0.598061	-0.598252
H57	H	0.569001	0.511031	-0.590269
H58	H	0.568927	0.589938	-0.511230
H59	H	0.464085	0.468145	-0.547491
H60	H	0.463996	0.547064	-0.468450
C61	C	0.580442	0.358285	-0.242643
C62	C	0.538321	0.306384	-0.307143
H63	H	0.605313	0.314938	-0.199403
H64	H	0.551794	0.401959	-0.207352
H65	H	0.612794	0.393145	-0.277435
H66	H	0.505966	0.271530	-0.272352
H67	H	0.566972	0.262692	-0.342437
C68	C	0.320522	0.570754	-0.570958
C69	C	0.272815	0.519380	-0.519701
H70	H	0.295657	0.614089	-0.614215
H71	H	0.349170	0.527063	-0.606231
H72	H	0.349087	0.605964	-0.527186
H73	H	0.244253	0.484164	-0.563473
H74	H	0.244155	0.563077	-0.484426
H75	H	0.416194	0.269422	-0.270266
C76	C	0.710443	0.239005	-0.239902
C77	C	0.758157	0.290364	-0.291161
H78	H	0.735304	0.195669	-0.196640
H79	H	0.681875	0.203805	-0.283665
H80	H	0.681798	0.282711	-0.204624
H81	H	0.786798	0.246658	-0.326444
H82	H	0.786736	0.325566	-0.247392
H83	H	0.416320	0.493378	-0.493718
C84	C	0.290422	0.163708	-0.281078
C85	C	0.272667	0.260269	-0.261140
H86	H	0.265506	0.123293	-0.240748
H87	H	0.339341	0.152006	-0.269390
H88	H	0.278447	0.150338	-0.346615
H89	H	0.284647	0.273642	-0.195604
H90	H	0.223736	0.271976	-0.272820
H91	H	0.614778	0.540338	-0.540574
