data_functionalizedCrystal
_audit_creation_method	'MofGen! by Chris Wilmer'
_symmetry_space_group_name_H-M	'P1'
_symmetry_Int_Tables_number	1
_symmetry_cell_setting	triclinic
loop_
_symmetry_equiv_pos_as_xyz
  x,y,z
_cell_length_a	16.974800
_cell_length_b	9.065218
_cell_length_c	7.540329
_cell_angle_alpha	89.998243
_cell_angle_beta	93.653857
_cell_angle_gamma	84.201147
loop_
_atom_site_label
_atom_site_type_symbol
_atom_site_fract_x
_atom_site_fract_y
_atom_site_fract_z
O1	O	1.050494	0.187924	0.003357
O2	O	0.820459	0.211896	-0.029675
O3	O	0.940231	-0.014861	-0.012472
O4	O	0.930722	0.414681	-0.013845
O5	O	0.940224	-0.014864	0.282492
O6	O	0.820452	0.211893	0.265289
O7	O	1.050487	0.187921	0.298321
Cu8	Cu	0.935469	0.199907	0.308738
Cu9	Cu	0.935477	0.199910	-0.040091
O10	O	0.930715	0.414678	0.281119
C11	C	0.790990	0.210986	0.113576
C12	C	0.703194	0.208263	0.100969
C13	C	0.939314	-0.069825	0.134876
C14	C	0.936581	-0.233594	0.134475
C15	C	0.661948	0.206978	0.255835
C16	C	0.579455	0.204396	0.243995
C17	C	0.538209	0.203108	0.077286
C18	C	0.579462	0.204389	-0.077592
C19	C	0.661953	0.206961	-0.065749
C20	C	0.291496	0.195406	0.024627
C21	C	0.208998	0.192838	0.012796
C22	C	0.208998	0.192843	0.334383
C23	C	0.291490	0.195424	0.346211
C24	C	0.332736	0.196696	0.191334
N25	N	0.453888	0.200473	0.065179
N26	N	0.417056	0.199321	0.203443
C27	C	1.079956	0.188830	0.155066
C28	C	1.167752	0.191554	0.167662
C29	C	0.931632	0.469641	0.133767
C30	C	0.934365	0.633410	0.134156
N31	N	0.935468	0.199904	0.554086
N32	N	0.935484	0.199901	-0.285439
H33	H	0.695523	0.208039	0.391587
H34	H	0.695535	0.208009	-0.191858
H35	H	0.545878	0.203325	0.370103
F36	F	0.535565	0.202973	-0.255016
H37	H	0.175407	0.191804	0.460476
F38	F	0.335381	0.196802	0.523645
H39	H	0.175418	0.191795	-0.122965
F40	F	0.335382	0.196762	-0.140210
