data_functionalizedCrystal
_audit_creation_method	'MofGen! by Chris Wilmer'
_symmetry_space_group_name_H-M	'P1'
_symmetry_Int_Tables_number	1
_symmetry_cell_setting	triclinic
loop_
_symmetry_equiv_pos_as_xyz
  x,y,z
_cell_length_a	14.908520
_cell_length_b	13.033652
_cell_length_c	13.032268
_cell_angle_alpha	76.703346
_cell_angle_beta	99.985811
_cell_angle_gamma	79.942611
loop_
_atom_site_label
_atom_site_type_symbol
_atom_site_fract_x
_atom_site_fract_y
_atom_site_fract_z
Zn1	Zn	-0.236503	-1.529309	-0.412723
Zn2	Zn	-0.367653	-1.541709	-0.245170
Zn3	Zn	-0.236564	-1.374257	-0.257665
Zn4	Zn	-0.412235	-1.338210	-0.448640
O5	O	-0.313239	-1.445871	-0.341049
O6	O	-0.235218	-1.681009	-0.370237
O7	O	-0.331632	-1.539772	-0.096782
O8	O	-0.108150	-1.404722	-0.268431
O9	O	-0.331573	-1.690119	-0.247136
O10	O	-0.108106	-1.518638	-0.382352
O11	O	-0.235321	-1.416746	-0.105962
O12	O	-0.278550	-1.219421	-0.303258
O13	O	-0.407556	-1.343284	-0.593921
O14	O	-0.407615	-1.192937	-0.443567
O15	O	-0.278447	-1.483684	-0.567533
O16	O	-0.501972	-1.504818	-0.281963
O17	O	-0.534726	-1.355307	-0.431451
C18	C	-0.347927	-1.167271	-0.378666
C19	C	-0.362793	-1.048079	-0.394786
C20	C	-0.305491	-1.008009	-0.332649
C21	C	-0.320854	-0.884818	-0.349308
C22	C	-0.551643	-1.427522	-0.359268
C23	C	-0.653625	-1.419766	-0.367085
C24	C	-0.811089	-1.561001	-0.226203
C25	C	-0.906910	-1.553718	-0.233543
C26	C	-0.941089	-1.397920	-0.389110
C27	C	-0.845268	-1.405204	-0.381770
C28	C	-0.780271	-1.486746	-0.300312
C29	C	-0.684449	-1.494025	-0.292968
C30	C	-0.718629	-1.338232	-0.448539
C31	C	-0.814450	-1.330948	-0.455880
C32	C	-0.073903	-1.464318	-0.322779
C33	C	0.028087	-1.472179	-0.314993
C34	C	-0.347967	-1.408080	-0.620720
C35	C	-0.362767	-1.391975	-0.739899
C36	C	-0.278407	-0.725561	-0.303278
C37	C	-0.263544	-0.844752	-0.287163
C38	C	-0.305484	-1.454262	-0.779977
C39	C	-0.320778	-1.437619	-0.903154
C40	C	-0.278571	-1.483583	-0.062453
C41	C	-0.263488	-1.499915	0.056773
H42	H	-0.381291	-0.827926	-0.414841
Cl43	Cl	-0.170292	-1.601293	-0.855422
Cl44	Cl	-0.945650	-1.647073	-0.140374
Cl45	Cl	-0.456101	-0.960246	-0.495959
Cl46	Cl	-0.602740	-1.596530	-0.190562
Cl47	Cl	-0.212263	-1.555596	-0.692169
Cl48	Cl	-0.413980	-1.336250	-0.990961
H49	H	-0.994025	-1.331538	-0.455435
Cl50	Cl	-0.896168	-1.228447	-0.558280
Cl51	Cl	-0.212189	-1.095843	-0.231467
Cl52	Cl	-0.170240	-0.932580	-0.185972
Cl53	Cl	-0.679882	-1.244865	-0.541699
H54	H	-0.423126	-1.326321	-0.796779
H55	H	-0.758167	-1.627390	-0.159870
