data_functionalizedCrystal
_audit_creation_method	'MofGen! by Chris Wilmer'
_symmetry_space_group_name_H-M	'P1'
_symmetry_Int_Tables_number	1
_symmetry_cell_setting	triclinic
loop_
_symmetry_equiv_pos_as_xyz
  x,y,z
_cell_length_a	19.805407
_cell_length_b	14.908178
_cell_length_c	19.805399
_cell_angle_alpha	86.674164
_cell_angle_beta	89.984884
_cell_angle_gamma	93.311253
loop_
_atom_site_label
_atom_site_type_symbol
_atom_site_fract_x
_atom_site_fract_y
_atom_site_fract_z
Zn1	Zn	1.019205	-0.359259	-0.367131
Zn2	Zn	1.012611	-0.510139	-0.247410
Zn3	Zn	0.906024	-0.359280	-0.253959
Zn4	Zn	0.899471	-0.510080	-0.360563
O5	O	0.959328	-0.434689	-0.307266
O6	O	1.113046	-0.379289	-0.351258
O7	O	0.998454	-0.490161	-0.153560
O8	O	0.926541	-0.233023	-0.274461
O9	O	1.108201	-0.490140	-0.263300
O10	O	1.009694	-0.233007	-0.357608
O11	O	0.920146	-0.379326	-0.158372
O12	O	0.810439	-0.379269	-0.268091
O13	O	0.915372	-0.490040	-0.456152
O14	O	0.805625	-0.490061	-0.346413
O15	O	1.003340	-0.379232	-0.460978
O16	O	0.992100	-0.636385	-0.256930
O17	O	0.908977	-0.636342	-0.340063
C18	C	0.783473	-0.434661	-0.307250
C19	C	0.708241	-0.434671	-0.307259
C20	C	0.949130	-0.669100	-0.297088
C21	C	0.944830	-0.769382	-0.292757
C22	C	0.675416	-0.377053	-0.353121
C23	C	0.604727	-0.377058	-0.353123
C24	C	0.566865	-0.434686	-0.307267
C25	C	0.599694	-0.492306	-0.261400
C26	C	0.670382	-0.492296	-0.261395
C27	C	0.314619	-0.492347	-0.261419
C28	C	0.243927	-0.492354	-0.261429
C29	C	0.248964	-0.377108	-0.353147
C30	C	0.319652	-0.377098	-0.353142
C31	C	0.352476	-0.434715	-0.307273
C32	C	0.429125	-0.434708	-0.307271
C33	C	0.490217	-0.434698	-0.307272
C34	C	1.023270	-0.957655	-0.371292
C35	C	1.019232	-1.051879	-0.367224
C36	C	0.932711	-1.052054	-0.280558
C37	C	0.936750	-0.957831	-0.284625
C38	C	0.982031	-0.910635	-0.329993
C39	C	0.986073	-0.816409	-0.334057
C40	C	0.899549	-0.816586	-0.247394
C41	C	0.895511	-0.910810	-0.243327
C42	C	1.135869	-0.434719	-0.307281
C43	C	1.211101	-0.434731	-0.307288
C44	C	0.959360	-0.434627	-0.483811
C45	C	0.959374	-0.434600	-0.559044
C46	C	0.969584	-0.199364	-0.317498
C47	C	0.973954	-0.099082	-0.321858
C48	C	0.918611	-0.376883	-0.596893
C49	C	0.918622	-0.376865	-0.667583
C50	C	0.959398	-0.434561	-0.700422
C51	C	1.000163	-0.492285	-0.662567
C52	C	1.000149	-0.492306	-0.591879
C53	C	1.000220	-0.492201	-0.947644
C54	C	1.000233	-0.492173	-1.018338
C55	C	0.918693	-0.376760	-1.023348
C56	C	0.918679	-0.376781	-0.952660
C57	C	0.959440	-0.434508	-0.914811
C58	C	0.959428	-0.434527	-0.838162
C59	C	0.959415	-0.434538	-0.777070
C60	C	0.959337	-0.434687	-0.131410
C61	C	0.959466	-0.434459	-0.056188
H62	H	0.706238	-0.330128	-0.390464
C63	C	1.044557	-0.554894	-0.906679
C64	C	1.080288	-0.605390	-0.950572
C65	C	1.121150	-0.663142	-0.912856
H66	H	1.017026	-0.594295	-0.877383
H67	H	1.075581	-0.520408	-0.880624
H68	H	1.049267	-0.639873	-0.976616
H69	H	1.107832	-0.566013	-0.979868
H70	H	1.152174	-0.628657	-0.886801
H71	H	1.093613	-0.702537	-0.883562
H72	H	1.145402	-0.697405	-0.942632
C73	C	0.569212	-0.314466	-0.402992
C74	C	0.617499	-0.264017	-0.443164
C75	C	0.584808	-0.206353	-0.489118
H76	H	0.543340	-0.275032	-0.378939
H77	H	0.540160	-0.349013	-0.430978
H78	H	0.646539	-0.229473	-0.415182
H79	H	0.643374	-0.303428	-0.467232
H80	H	0.555756	-0.240900	-0.517104
H81	H	0.558937	-0.166924	-0.465059
H82	H	0.617565	-0.172122	-0.516384
H83	H	0.568861	-0.539223	-0.224060
H84	H	0.895842	-1.090498	-0.243625
H85	H	1.022945	-0.777983	-0.370996
H86	H	1.060145	-0.919228	-0.408227
H87	H	1.033360	-0.539267	-0.689310
H88	H	1.052809	-1.090160	-0.400857
H89	H	0.350476	-0.330175	-0.390485
C90	C	0.213233	-0.314689	-0.402977
C91	C	0.170430	-0.365854	-0.444065
C92	C	0.137499	-0.308389	-0.489970
H93	H	0.245830	-0.280350	-0.430353
H94	H	0.187319	-0.275348	-0.378864
H95	H	0.196342	-0.405179	-0.468176
H96	H	0.137821	-0.400191	-0.416707
H97	H	0.111585	-0.269048	-0.465857
H98	H	0.170100	-0.274052	-0.517342
H99	H	0.108449	-0.343095	-0.517850
C100	C	0.846419	-0.962218	-0.194089
C101	C	0.851719	-1.054800	-0.199353
C102	C	0.806514	-1.102183	-0.153997
H103	H	0.801562	-0.946927	-0.204563
H104	H	0.857027	-0.946859	-0.149271
H105	H	0.841107	-1.070153	-0.244162
H106	H	0.896566	-1.070118	-0.188873
H107	H	0.817122	-1.086823	-0.109179
H108	H	0.761660	-1.086884	-0.164475
H109	H	0.810108	-1.165004	-0.157558
C110	C	0.706150	-0.554758	-0.211633
C111	C	0.776159	-0.542397	-0.221430
C112	C	0.809129	-0.599911	-0.175593
H113	H	0.692018	-0.615433	-0.218786
H114	H	0.695165	-0.541466	-0.166736
H115	H	0.787139	-0.555695	-0.266316
H116	H	0.790311	-0.481734	-0.214271
H117	H	0.798144	-0.586619	-0.130695
H118	H	0.794992	-0.660583	-0.182750
H119	H	0.856634	-0.591526	-0.182229
H120	H	0.213101	-0.539284	-0.224084
C121	C	0.874333	-0.314106	-0.917130
C122	C	0.838622	-0.263572	-0.965407
C123	C	0.797754	-0.205837	-0.932703
H124	H	0.901859	-0.274728	-0.891267
H125	H	0.843298	-0.348606	-0.888067
H126	H	0.869653	-0.229075	-0.994458
H127	H	0.811083	-0.302926	-0.991273
H128	H	0.766719	-0.240336	-0.903640
H129	H	0.825285	-0.166465	-0.906841
H130	H	0.773514	-0.171549	-0.965453
C131	C	0.350332	-0.554963	-0.211732
C132	C	0.388427	-0.612837	-0.247467
C133	C	0.421343	-0.670529	-0.201717
H134	H	0.317728	-0.589371	-0.184409
H135	H	0.379434	-0.520426	-0.183787
H136	H	0.359327	-0.647371	-0.275401
H137	H	0.421042	-0.578454	-0.274788
H138	H	0.450445	-0.635992	-0.173772
H139	H	0.388734	-0.704931	-0.174396
H140	H	0.447199	-0.709798	-0.225956
H141	H	1.033347	-0.539299	-0.561063
C142	C	1.044597	-0.554670	-1.054033
C143	C	1.090229	-0.503578	-1.096824
C144	C	1.131113	-0.561113	-1.129710
H145	H	1.017076	-0.593982	-1.079954
H146	H	1.068911	-0.589037	-1.021389
H147	H	1.065917	-0.469226	-1.129463
H148	H	1.117765	-0.464269	-1.070919
H149	H	1.155426	-0.595480	-1.097066
H150	H	1.103586	-0.600421	-1.155627
H151	H	1.162083	-0.526455	-1.158742
H152	H	0.865972	-0.778291	-0.213764
C153	C	0.874264	-0.314207	-0.561366
C154	C	0.838553	-0.263677	-0.609646
C155	C	0.797683	-0.205942	-0.576946
H156	H	0.901788	-0.274827	-0.535503
H157	H	0.843228	-0.348707	-0.532304
H158	H	0.869585	-0.229180	-0.638697
H159	H	0.811016	-0.303033	-0.635512
H160	H	0.766648	-0.240441	-0.547883
H161	H	0.825213	-0.166567	-0.551083
H162	H	0.773444	-0.171656	-0.609698
C163	C	0.874264	-0.314355	-0.708698
C164	C	0.828646	-0.365429	-0.747030
C165	C	0.787760	-0.307879	-0.784903
H166	H	0.901785	-0.275017	-0.738048
H167	H	0.849940	-0.280018	-0.679030
H168	H	0.852968	-0.399751	-0.776694
H169	H	0.801110	-0.404765	-0.717697
H170	H	0.763436	-0.273541	-0.755236
H171	H	0.815286	-0.268543	-0.814249
H172	H	0.756799	-0.342524	-0.810911
C173	C	0.874450	-0.314190	-1.064559
C174	C	0.883170	-0.326535	-1.133493
C175	C	0.842420	-0.268922	-1.171474
H176	H	0.886955	-0.253539	-1.055697
H177	H	0.828381	-0.327399	-1.052432
H178	H	0.929229	-0.313320	-1.145616
H179	H	0.870661	-0.387175	-1.142376
H180	H	0.796351	-0.282130	-1.159347
H181	H	0.854929	-0.208274	-1.162606
H182	H	0.848326	-0.277296	-1.218250
