data_functionalizedCrystal
_audit_creation_method	'MofGen! by Chris Wilmer'
_symmetry_space_group_name_H-M	'P1'
_symmetry_Int_Tables_number	1
_symmetry_cell_setting	triclinic
loop_
_symmetry_equiv_pos_as_xyz
  x,y,z
_cell_length_a	10.654550
_cell_length_b	13.339070
_cell_length_c	9.130313
_cell_angle_alpha	90.000439
_cell_angle_beta	90.000488
_cell_angle_gamma	100.057112
loop_
_atom_site_label
_atom_site_type_symbol
_atom_site_fract_x
_atom_site_fract_y
_atom_site_fract_z
O1	O	1.715933	0.142432	0.121681
O2	O	1.355037	0.156002	0.121708
O3	O	1.494065	0.001663	0.121693
O4	O	1.576904	0.296771	0.121696
O5	O	1.494051	0.001663	-0.121906
O6	O	1.355022	0.156002	-0.121891
O7	O	1.715918	0.142432	-0.121917
Cu8	Cu	1.535469	0.149217	-0.144147
Cu9	Cu	1.535486	0.149217	0.143937
O10	O	1.576890	0.296771	-0.121903
C11	C	1.307895	0.155006	-0.000088
C12	C	1.167445	0.152025	-0.000078
C13	C	1.118643	0.242897	-0.000082
C14	C	0.986674	0.240090	-0.000107
C15	C	0.952320	0.055530	-0.000120
C16	C	1.084286	0.058338	-0.000105
C17	C	1.480065	-0.036124	-0.000103
C18	C	1.438355	-0.148719	-0.000094
C19	C	1.762670	-0.511236	-0.000119
C20	C	1.801862	-0.405448	-0.000135
C21	C	1.710989	-0.341261	-0.000124
C22	C	1.580916	-0.382871	-0.000098
C23	C	1.541720	-0.488669	-0.000093
C24	C	1.490039	-0.318694	-0.000099
C25	C	1.359966	-0.360304	-0.000073
C26	C	1.320776	-0.466092	-0.000066
C27	C	1.411650	-0.530280	-0.000077
C28	C	1.529235	-0.212896	-0.000104
C29	C	1.308285	-0.190329	-0.000078
C30	C	1.269093	-0.296117	-0.000062
C31	C	1.763060	0.143429	-0.000118
C32	C	1.903510	0.146410	-0.000119
C33	C	1.590890	0.334559	-0.000103
C34	C	1.632600	0.447153	-0.000103
N35	N	1.535466	0.149217	-0.346770
C36	C	1.633258	0.211296	-0.423421
C37	C	1.633277	0.211290	-0.576758
C38	C	1.437698	0.087124	-0.576778
C39	C	1.437686	0.087125	-0.423444
N40	N	1.535496	0.149210	0.346560
H41	H	1.124020	-0.015666	-0.000106
C42	C	1.672301	-0.167131	-0.000128
H43	H	1.682636	-0.094932	-0.000142
H44	H	1.711280	-0.189105	0.084813
H45	H	1.711253	-0.189110	-0.085094
H46	H	0.946947	0.314088	-0.000113
H47	H	1.712910	0.261840	-0.639161
H48	H	1.234288	-0.138067	-0.000077
C49	C	1.944928	-0.359683	-0.000148
H50	H	1.993436	-0.413060	-0.000137
H51	H	1.964808	-0.318883	-0.085096
H52	H	1.964811	-0.318883	0.084811
C53	C	1.177703	-0.511867	-0.000046
H54	H	1.167376	-0.584065	-0.000056
H55	H	1.138743	-0.489891	0.084906
H56	H	1.138728	-0.489895	-0.085001
H57	H	1.712877	0.261855	-0.360997
C58	C	1.330091	0.018859	-0.339114
H59	H	1.344092	0.027753	-0.236814
H60	H	1.250523	0.037071	-0.364264
H61	H	1.329298	-0.050363	-0.364224
H62	H	0.884597	-0.020746	-0.000150
H63	H	1.836644	-0.563506	-0.000139
H64	H	1.742907	-0.255124	-0.000138
H65	H	1.379745	-0.616422	-0.000058
C66	C	1.330125	0.018851	-0.661118
H67	H	1.271883	-0.018123	-0.593501
H68	H	1.286673	0.059987	-0.720927
H69	H	1.365453	-0.027444	-0.720939
C70	C	1.126021	-0.341896	-0.000047
H71	H	1.115700	-0.414094	-0.000056
H72	H	1.087055	-0.319922	0.084902
H73	H	1.087047	-0.319927	-0.085005
H74	H	1.186348	0.319183	-0.000071
