data_functionalizedCrystal
_audit_creation_method	'MofGen! by Chris Wilmer'
_symmetry_space_group_name_H-M	'P1'
_symmetry_Int_Tables_number	1
_symmetry_cell_setting	triclinic
loop_
_symmetry_equiv_pos_as_xyz
  x,y,z
_cell_length_a	11.792254
_cell_length_b	11.792254
_cell_length_c	16.776229
_cell_angle_alpha	89.993192
_cell_angle_beta	89.992926
_cell_angle_gamma	84.198598
loop_
_atom_site_label
_atom_site_type_symbol
_atom_site_fract_x
_atom_site_fract_y
_atom_site_fract_z
O1	O	1.506911	0.155638	-0.066288
O2	O	1.840245	0.488971	0.267045
O3	O	2.173578	0.822305	0.600379
O4	O	1.176573	0.171656	-0.066290
O5	O	1.509906	0.504989	0.267044
O6	O	1.843240	0.838323	0.600377
O7	O	1.349751	-0.001522	-0.066283
O8	O	1.683084	0.331811	0.267050
O9	O	2.016418	0.665144	0.600384
O10	O	1.333733	0.328816	-0.066295
O11	O	1.667067	0.662150	0.267039
O12	O	2.000400	0.995483	0.600372
O13	O	1.349728	-0.001533	0.066293
O14	O	1.683061	0.331800	0.399627
O15	O	2.016394	0.665134	0.732960
O16	O	1.176550	0.171645	0.066287
O17	O	1.509883	0.504978	0.399620
O18	O	1.843216	0.838312	0.732953
O19	O	1.506888	0.155627	0.066289
O20	O	1.840221	0.488961	0.399622
O21	O	2.173555	0.822294	0.732955
Zn22	Zn	1.341715	0.163634	0.087337
Zn23	Zn	1.675049	0.496968	0.420670
Zn24	Zn	2.008382	0.830301	0.754004
Zn25	Zn	1.341746	0.163649	-0.087338
Zn26	Zn	1.675079	0.496982	0.245995
Zn27	Zn	2.008412	0.830315	0.579328
O28	O	1.333710	0.328805	0.066282
O29	O	1.667043	0.662139	0.399615
O30	O	2.000377	0.995472	0.732949
C31	C	1.134271	0.170642	-0.000002
C32	C	1.467604	0.503975	0.333332
C33	C	1.800937	0.837308	0.666665
C34	C	1.008257	0.167621	-0.000002
C35	C	1.341591	0.500955	0.333331
C36	C	1.674924	0.834288	0.666664
C37	C	0.905921	0.165168	-0.000006
C38	C	1.239254	0.498501	0.333328
C39	C	1.572587	0.831834	0.666661
C40	C	0.777534	0.162099	-0.000006
C41	C	1.110867	0.495432	0.333327
C42	C	1.444201	0.828766	0.666661
C43	C	1.348730	-0.043818	0.000005
C44	C	1.682064	0.289515	0.333338
C45	C	2.015397	0.622848	0.666672
C46	C	1.345710	-0.169832	0.000004
C47	C	1.679044	0.163502	0.333337
C48	C	2.012377	0.496835	0.666671
C49	C	1.343256	-0.272168	0.000001
C50	C	1.676590	0.061165	0.333335
C51	C	2.009923	0.394498	0.666668
C52	C	1.340188	-0.400555	-0.000006
C53	C	1.673521	-0.067222	0.333327
C54	C	2.006855	0.266112	0.666661
C55	C	1.549190	0.156642	-0.000001
C56	C	1.882524	0.489975	0.333332
C57	C	2.215857	0.823308	0.666665
C58	C	1.675204	0.159662	-0.000006
C59	C	2.008537	0.492995	0.333327
C60	C	2.341870	0.826329	0.666661
C61	C	1.334731	0.371102	-0.000008
C62	C	1.668064	0.704435	0.333326
C63	C	2.001397	1.037768	0.666659
C64	C	1.337751	0.497115	-0.000012
C65	C	1.671084	0.830448	0.333321
C66	C	2.004417	1.163781	0.666654
N67	N	1.341703	0.163624	0.206548
N68	N	1.675036	0.496957	0.539882
N69	N	2.008369	0.830291	0.873215
N70	N	1.341767	0.163650	-0.206549
N71	N	1.675101	0.496984	0.126784
N72	N	2.008434	0.830317	0.460117
C73	C	1.418410	0.086973	0.248268
C74	C	1.751743	0.420306	0.581602
C75	C	2.085076	0.753639	0.914935
C76	C	1.418416	0.086972	0.331720
C77	C	1.751749	0.420305	0.665054
C78	C	2.085083	0.753638	0.998387
C79	C	1.341720	0.163629	0.373451
C80	C	1.675053	0.496962	0.706785
C81	C	2.008386	0.830295	1.040118
C82	C	1.265005	0.240284	0.331725
C83	C	1.598338	0.573617	0.665059
C84	C	1.931671	0.906950	0.998392
C85	C	1.264994	0.240278	0.248275
C86	C	1.598327	0.573611	0.581608
C87	C	1.931660	0.906945	0.914941
C88	C	1.265046	0.240306	0.668273
C89	C	1.598379	0.573640	1.001606
C90	C	1.931712	0.906973	1.334939
C91	C	1.265065	0.240308	0.751729
C92	C	1.598398	0.573641	1.085062
C93	C	1.931732	0.906975	1.418396
C94	C	1.418468	0.087000	0.751718
C95	C	1.751801	0.420333	1.085052
C96	C	2.085135	0.753666	1.418385
C97	C	1.418457	0.086994	0.668268
C98	C	1.751790	0.420328	1.001601
C99	C	2.085124	0.753661	1.334934
C100	C	1.341738	0.163645	0.626549
C101	C	1.675072	0.496978	0.959882
C102	C	2.008405	0.830311	1.293216
C103	C	1.341731	0.163643	0.536061
C104	C	1.675064	0.496977	0.869394
C105	C	2.008398	0.830310	1.202727
C106	C	1.341732	0.163636	0.463938
C107	C	1.675065	0.496970	0.797271
C108	C	2.008398	0.830303	1.130605
H109	H	1.480869	0.024555	0.214297
H110	H	1.814202	0.357888	0.547630
H111	H	2.147536	0.691221	0.880963
N112	N	1.501189	0.004337	0.376719
N113	N	1.834522	0.337671	0.710053
N114	N	2.167855	0.671004	1.043386
H115	H	1.549791	-0.044206	0.337620
H116	H	1.883125	0.289127	0.670954
H117	H	2.216458	0.622460	1.004287
H118	H	1.551612	0.048181	0.411315
H119	H	1.884945	0.381514	0.744649
H120	H	2.218279	0.714848	1.077982
N121	N	1.182258	0.322958	0.203280
N122	N	1.515592	0.656292	0.536613
N123	N	1.848925	0.989625	0.869946
H124	H	1.225928	0.373506	0.168640
H125	H	1.559262	0.706840	0.501974
H126	H	1.892595	1.040173	0.835307
H127	H	1.131754	0.279157	0.168718
H128	H	1.465087	0.612491	0.502051
H129	H	1.798420	0.945824	0.835384
N130	N	1.182279	0.322956	0.376737
N131	N	1.515612	0.656289	0.710070
N132	N	1.848945	0.989623	1.043404
H133	H	1.225963	0.373510	0.411346
H134	H	1.559296	0.706843	0.744679
H135	H	1.892629	1.040176	1.078013
H136	H	1.133698	0.371436	0.337595
H137	H	1.467031	0.704770	0.670928
H138	H	1.800365	1.038103	1.004261
H139	H	1.480933	0.024583	0.785695
H140	H	1.814267	0.357916	1.119028
H141	H	2.147600	0.691250	1.452361
N142	N	1.501183	0.004320	0.623258
N143	N	1.834517	0.337653	0.956591
N144	N	2.167850	0.670987	1.289925
H145	H	1.549778	-0.044242	0.662351
H146	H	1.883111	0.289092	0.995685
H147	H	2.216445	0.622425	1.329018
H148	H	1.457418	-0.046153	0.588647
H149	H	1.790751	0.287180	0.921980
H150	H	2.124084	0.620513	1.255313
N151	N	1.182332	0.322985	0.796742
N152	N	1.515666	0.656318	1.130075
N153	N	1.848999	0.989651	1.463408
H154	H	1.133725	0.371538	0.757651
H155	H	1.467058	0.704872	1.090984
H156	H	1.800391	1.038205	1.424318
H157	H	1.131908	0.279179	0.831379
H158	H	1.465241	0.612512	1.164712
H159	H	1.798575	0.945845	1.498046
H160	H	1.202581	0.302720	0.634312
H161	H	1.535914	0.636053	0.967645
H162	H	1.869248	0.969386	1.300978
