data_functionalizedCrystal
_audit_creation_method	'MofGen! by Chris Wilmer'
_symmetry_space_group_name_H-M	'P1'
_symmetry_Int_Tables_number	1
_symmetry_cell_setting	triclinic
loop_
_symmetry_equiv_pos_as_xyz
  x,y,z
_cell_length_a	12.759401
_cell_length_b	18.215405
_cell_length_c	12.759393
_cell_angle_alpha	89.965237
_cell_angle_beta	89.982549
_cell_angle_gamma	90.021776
loop_
_atom_site_label
_atom_site_type_symbol
_atom_site_fract_x
_atom_site_fract_y
_atom_site_fract_z
Zn1	Zn	1.606185	-0.292958	-0.593961
Zn2	Zn	1.606058	-0.416045	-0.418272
Zn3	Zn	1.430491	-0.292995	-0.418301
Zn4	Zn	1.430451	-0.415985	-0.593914
O5	O	1.518296	-0.354496	-0.506112
O6	O	1.753189	-0.309295	-0.570664
O7	O	1.582732	-0.399762	-0.271255
O8	O	1.453866	-0.190006	-0.441634
O9	O	1.753096	-0.399727	-0.441586
O10	O	1.582948	-0.189979	-0.570691
O11	O	1.453743	-0.309358	-0.271276
O12	O	1.283464	-0.309300	-0.441588
O13	O	1.453799	-0.399625	-0.740941
O14	O	1.283435	-0.399661	-0.570610
O15	O	1.582910	-0.309238	-0.740976
O16	O	1.582694	-0.519021	-0.441540
O17	O	1.453676	-0.518978	-0.570583
C18	C	1.245329	-0.354479	-0.506097
C19	C	1.128552	-0.354489	-0.506116
C20	C	1.073732	-0.307490	-0.573431
C21	C	0.964008	-0.307504	-0.573438
C22	C	0.963934	-0.401522	-0.438811
C23	C	1.073656	-0.401504	-0.438800
C24	C	1.073773	-0.253212	-0.651160
C25	C	0.964049	-0.253226	-0.651167
C26	C	1.518196	-0.545702	-0.506076
C27	C	1.518249	-0.627501	-0.506095
C28	C	1.585494	-0.815620	-0.573387
C29	C	1.585532	-0.892479	-0.573406
C30	C	1.451229	-0.892620	-0.438903
C31	C	1.451186	-0.815762	-0.438889
C32	C	1.518325	-0.777264	-0.506129
C33	C	1.518405	-0.930981	-0.506163
C34	C	1.518446	-1.014314	-0.506184
C35	C	1.518283	-0.693925	-0.506110
C36	C	1.792330	-0.354514	-0.506127
C37	C	1.909106	-0.354521	-0.506134
C38	C	1.518365	-0.354421	-0.780145
C39	C	1.518394	-0.354389	-0.896922
C40	C	1.518426	-0.162543	-0.506171
C41	C	1.518481	-0.080744	-0.506197
C42	C	1.451258	-0.307307	-0.951801
C43	C	1.451289	-0.307285	-1.061525
C44	C	1.585602	-0.401429	-1.061482
C45	C	1.585564	-0.401455	-0.951760
C46	C	1.373716	-0.252951	-0.951827
C47	C	1.373748	-0.252929	-1.061551
C48	C	1.518289	-0.354517	-0.233145
C49	C	1.518463	-0.354342	-0.116369
H50	H	1.118287	-0.439768	-0.383976
O51	O	1.650731	-0.929656	-0.638883
C52	C	1.701599	-0.953081	-0.817649
C53	C	1.627711	-0.910920	-0.743610
H54	H	1.683000	-0.937961	-0.902337
H55	H	1.786335	-0.937921	-0.799356
H56	H	1.690115	-1.014623	-0.806061
H57	H	1.639101	-0.849369	-0.755157
H58	H	1.543003	-0.926142	-0.761921
O59	O	1.650887	-0.447213	-1.114591
C60	C	1.784151	-0.540560	-1.102966
C61	C	1.710250	-0.488760	-1.042694
H62	H	1.832181	-0.574154	-1.044863
H63	H	1.735956	-0.579076	-1.154290
H64	H	1.839081	-0.506754	-1.154378
H65	H	1.655305	-0.522507	-0.991224
H66	H	1.758511	-0.450242	-0.991436
H67	H	1.296447	-0.273329	-1.095575
O68	O	1.408497	-0.188316	-0.911414
C69	C	1.474042	-0.066873	-0.947874
C70	C	1.434647	-0.140025	-0.993782
H71	H	1.495216	-0.027815	-1.014446
H72	H	1.409853	-0.041259	-0.897636
H73	H	1.546300	-0.077411	-0.897541
H74	H	1.362409	-0.129549	-1.044162
H75	H	1.498901	-0.165616	-1.043960
O76	O	0.910444	-0.447170	-0.373528
C77	C	0.741379	-0.488832	-0.313829
C78	C	0.801822	-0.437109	-0.387833
H79	H	0.653548	-0.480705	-0.325354
H80	H	0.762866	-0.548201	-0.332127
H81	H	0.762988	-0.475843	-0.229156
H82	H	0.780246	-0.450032	-0.472531
H83	H	0.780330	-0.377754	-0.369445
O84	O	1.399633	-0.184909	-1.097167
C85	C	1.346461	-0.079849	-1.198916
C86	C	1.317003	-0.156861	-1.158631
H87	H	1.279681	-0.057156	-1.248636
H88	H	1.360958	-0.041817	-1.129487
H89	H	1.420600	-0.083586	-1.248511
H90	H	1.242851	-0.153195	-1.109054
H91	H	1.302575	-0.194864	-1.228107
H92	H	1.396484	-0.784531	-0.384120
O93	O	1.385922	-0.929904	-0.373549
C94	C	1.252755	-0.921931	-0.240090
C95	C	1.326643	-0.879618	-0.314071
H96	H	1.204825	-0.881293	-0.191968
H97	H	1.197740	-0.957900	-0.288230
H98	H	1.301062	-0.957935	-0.185250
H99	H	1.278420	-0.843575	-0.368927
H100	H	1.381661	-0.843695	-0.265867
O101	O	1.109132	-0.185158	-0.625262
C102	C	1.063320	-0.061154	-0.578218
C103	C	1.023134	-0.138190	-0.607516
H104	H	0.993812	-0.023155	-0.563885
H105	H	1.112884	-0.064761	-0.504069
H106	H	1.113028	-0.038502	-0.645093
H107	H	0.973383	-0.160886	-0.540710
H108	H	0.973627	-0.134536	-0.681698
O109	O	1.650624	-0.447274	-0.898405
C110	C	1.664633	-0.546639	-0.774445
C111	C	1.590832	-0.494802	-0.834819
H112	H	1.616323	-0.585068	-0.723004
H113	H	1.712627	-0.580323	-0.832444
H114	H	1.719603	-0.512858	-0.723133
H115	H	1.535799	-0.528526	-0.886133
H116	H	1.542912	-0.461115	-0.776763
O117	O	1.276655	-0.271294	-0.916341
C118	C	1.139753	-0.362429	-0.913021
C119	C	1.249688	-0.341754	-0.953260
H120	H	1.117907	-0.419390	-0.942872
H121	H	1.139679	-0.362505	-0.823672
H122	H	1.080250	-0.320667	-0.942790
H123	H	1.309252	-0.383496	-0.923568
H124	H	1.249675	-0.341655	-1.042608
O125	O	0.923350	-0.188586	-0.616775
C126	C	0.815335	-0.083881	-0.657364
C127	C	0.861318	-0.157090	-0.696405
H128	H	0.765190	-0.058387	-0.721733
H129	H	0.764929	-0.094223	-0.585055
H130	H	0.881915	-0.044806	-0.636418
H131	H	0.794804	-0.196202	-0.717409
H132	H	0.911751	-0.146692	-0.768677
H133	H	1.107833	-0.273688	-0.728396
H134	H	0.934300	-0.268563	-0.732501
H135	H	1.640160	-0.784277	-0.628139
