data_functionalizedCrystal
_audit_creation_method	'MofGen! by Chris Wilmer'
_symmetry_space_group_name_H-M	'P1'
_symmetry_Int_Tables_number	1
_symmetry_cell_setting	triclinic
loop_
_symmetry_equiv_pos_as_xyz
  x,y,z
_cell_length_a	23.196402
_cell_length_b	18.426585
_cell_length_c	23.196401
_cell_angle_alpha	90.005428
_cell_angle_beta	59.997774
_cell_angle_gamma	60.005651
loop_
_atom_site_label
_atom_site_type_symbol
_atom_site_fract_x
_atom_site_fract_y
_atom_site_fract_z
Zr1	Zr	0.631013	0.699173	-0.075651
O2	O	0.751286	0.583291	-0.167703
O3	O	0.510748	0.734687	-0.047435
O4	O	0.631030	0.734674	-0.167710
O5	O	0.630988	0.583326	0.047451
O6	O	0.631034	0.854100	-0.167713
O7	O	0.631004	0.583304	-0.047428
O8	O	0.415872	0.854123	0.047438
O9	O	0.846150	0.583303	-0.167699
O10	O	0.560215	0.838972	-0.035399
O11	O	0.560199	0.749862	0.035409
O12	O	0.701816	0.749847	-0.106199
O13	O	0.701801	0.660738	-0.035391
Zr14	Zr	0.630993	0.889679	0.075666
Zr15	Zr	0.631019	0.889644	-0.075655
Zr16	Zr	0.630987	0.699209	0.075670
Zr17	Zr	0.782310	0.699193	-0.075645
Zr18	Zr	0.479696	0.889660	0.075660
O19	O	0.751258	0.854165	0.047450
O20	O	0.751295	0.854115	-0.167708
O21	O	0.751249	0.583341	0.047456
O22	O	0.510720	1.005561	0.167718
O23	O	0.510757	1.005511	-0.047441
O24	O	0.510711	0.734737	0.167723
O25	O	0.631018	1.005527	-0.047436
O26	O	0.630976	0.854178	0.167726
O27	O	0.630972	0.734752	0.167728
O28	O	0.631002	1.005549	0.047443
O29	O	0.846155	0.734702	-0.167702
O30	O	0.415851	0.854151	0.167718
O31	O	0.415856	1.005549	0.167714
O32	O	0.415877	1.005521	0.047435
O33	O	0.846129	0.583331	-0.047420
O34	O	0.846134	0.734730	-0.047423
O35	O	0.560190	0.839005	0.106214
O36	O	0.560205	0.928115	0.035406
O37	O	0.701807	0.838990	-0.035394
O38	O	0.701791	0.749880	0.035415
C39	C	0.441753	0.794402	0.000000
C40	C	0.377524	0.794394	-0.000002
C41	C	0.295088	0.860199	0.052261
C42	C	0.234728	0.860206	0.052268
C43	C	0.256808	0.794413	0.000000
C44	C	0.339257	0.728596	-0.052268
C45	C	0.399615	0.728586	-0.052269
C46	C	0.201231	0.773912	-0.063796
C47	C	0.140872	0.773928	-0.063796
C48	C	0.070646	0.794437	0.000003
C49	C	0.060777	0.814949	0.063806
C50	C	0.121135	0.814940	0.063805
C51	C	0.191366	0.794415	-0.000004
C52	C	-0.077243	0.860253	0.052278
C53	C	-0.137602	0.860253	0.052285
C54	C	-0.033070	0.728646	-0.052257
C55	C	0.027287	0.728643	-0.052258
C56	C	0.005195	0.794450	0.000009
C57	C	0.630995	0.556177	0.000012
C58	C	0.630992	0.475317	0.000014
C59	C	0.631017	0.179202	0.000002
C60	C	0.631013	0.261588	0.000003
C61	C	0.631005	0.327257	0.000007
C62	C	0.631001	0.409648	0.000010
C63	C	0.820253	0.794450	0.000015
C64	C	0.884483	0.794458	0.000017
C65	C	0.631036	0.794382	-0.189272
C66	C	0.631047	0.794367	-0.253511
C67	C	0.631011	1.032676	0.000003
C68	C	0.631014	1.113535	0.000001
C69	C	0.631050	0.860162	-0.283676
C70	C	0.631034	0.860182	-0.344022
C71	C	0.631030	0.794393	-0.374210
C72	C	0.631022	0.728592	-0.344036
C73	C	0.631030	0.728579	-0.283687
C74	C	0.678521	0.714107	-0.493589
C75	C	0.678517	0.714120	-0.553940
C76	C	0.631001	0.794432	-0.560347
C77	C	0.583499	0.874738	-0.506401
C78	C	0.583507	0.874725	-0.446051
C79	C	0.631021	0.794400	-0.439649
C80	C	0.630986	0.860254	-0.655945
C81	C	0.630965	0.860274	-0.716290
C82	C	0.630961	0.728677	-0.716307
C83	C	0.630974	0.728664	-0.655959
C84	C	0.630990	0.794452	-0.625784
C85	C	0.630971	0.794470	0.189287
C86	C	0.630959	0.794485	0.253526
C87	C	0.441761	1.032652	-0.000004
C88	C	0.377534	1.113503	-0.000008
C89	C	0.441721	0.794446	0.189280
C90	C	0.377480	0.794453	0.253517
C91	C	0.441729	1.032696	0.189275
C92	C	0.377491	1.113562	0.253510
C93	C	0.820277	0.556157	-0.189260
C94	C	0.884515	0.475290	-0.253495
C95	C	0.820245	0.556201	0.000019
C96	C	0.884472	0.475349	0.000023
C97	C	0.820285	0.794406	-0.189265
C98	C	0.884526	0.794399	-0.253502
C99	C	0.347377	1.104940	-0.036976
C100	C	0.287038	1.180902	-0.036994
C101	C	0.256852	1.265425	-0.000040
C102	C	0.287015	1.273986	0.036929
C103	C	0.347357	1.198026	0.036943
C104	C	0.347307	0.840988	0.320649
C105	C	0.286955	0.840991	0.381013
C106	C	0.256772	0.794464	0.374242
C107	C	0.286951	0.747923	0.307103
C108	C	0.347306	0.747915	0.246741
C109	C	0.347332	1.198060	0.246715
C110	C	0.286982	1.274050	0.307065
C111	C	0.256788	1.265540	0.374211
C112	C	0.286953	1.181033	0.381005
C113	C	0.347306	1.105045	0.320655
C114	C	0.914682	0.390792	-0.246700
C115	C	0.975050	0.314802	-0.307050
C116	C	1.005248	0.323312	-0.374195
C117	C	0.975079	0.407819	-0.380990
C118	C	0.914715	0.483807	-0.320640
C119	C	0.914635	0.483912	0.036985
C120	C	0.974991	0.407951	0.036986
C121	C	1.005179	0.323427	0.000030
C122	C	0.975014	0.314866	-0.036936
C123	C	0.914662	0.390827	-0.036941
C124	C	0.914690	0.840935	-0.246709
C125	C	0.975043	0.840946	-0.307061
C126	C	1.005235	0.794416	-0.374205
C127	C	0.975066	0.747878	-0.380997
C128	C	0.914710	0.747873	-0.320645
H129	H	0.003600	0.831643	0.115756
H130	H	0.371865	0.710024	0.192081
H131	H	-0.095231	0.913833	0.094840
H132	H	0.262487	1.173914	-0.067098
H133	H	0.999673	0.414738	-0.435667
C134	C	0.110293	0.837483	0.133977
H135	H	0.156297	0.834542	0.124836
H136	H	0.105433	0.796055	0.156809
H137	H	0.062463	0.895769	0.163575
H138	H	0.890105	0.383842	-0.067038
H139	H	0.371903	1.205010	0.067050
H140	H	0.371907	1.205006	0.192047
C141	C	0.531251	0.963050	-0.386709
H142	H	0.503039	1.010899	-0.399206
H143	H	0.565488	0.970574	-0.380215
H144	H	0.492971	0.962170	-0.344092
H145	H	0.890157	0.709974	-0.326186
C146	C	1.008227	0.892128	-0.299577
H147	H	0.981610	0.919822	-0.250944
H148	H	0.998339	0.936159	-0.321577
H149	H	1.065210	0.851967	-0.321585
C150	C	0.380503	0.892166	0.328107
H151	H	0.420767	0.885509	0.282547
H152	H	0.404044	0.869194	0.353184
H153	H	0.337172	0.953377	0.353187
C154	C	0.270787	0.932578	0.109758
H155	H	0.213043	0.971766	0.140889
H156	H	0.292170	0.965067	0.088288
H157	H	0.292148	0.905547	0.135580
H158	H	0.262367	0.710042	0.301601
C159	C	0.881529	0.576750	-0.328124
H160	H	0.908156	0.570927	-0.376758
H161	H	0.891406	0.608348	-0.306117
H162	H	0.824548	0.608311	-0.306126
H163	H	0.371954	1.036124	-0.067078
H164	H	0.630953	0.675114	-0.740884
H165	H	0.371853	1.036246	0.326198
H166	H	-0.204728	0.913839	0.094848
C167	C	0.144040	0.932595	0.109759
H168	H	0.139529	0.971788	0.140884
H169	H	0.118309	0.905580	0.135579
H170	H	0.118337	0.965090	0.088278
H171	H	0.717201	0.648731	-0.597861
H172	H	0.999604	0.246000	-0.301504
C173	C	1.008330	0.696635	-0.454856
H174	H	0.981736	0.668901	-0.450265
H175	H	1.065307	0.652630	-0.479891
H176	H	0.998470	0.736749	-0.479974
H177	H	0.207627	0.794477	0.423399
C178	C	0.190469	1.348974	-0.000053
H179	H	0.176830	1.331760	-0.027358
H180	H	0.210244	1.383350	-0.019841
H181	H	0.143368	1.383345	0.047038
C182	C	0.881484	0.381413	-0.172848
H183	H	0.908111	0.320201	-0.177454
H184	H	0.824505	0.409107	-0.147761
H185	H	0.891378	0.409129	-0.147771
H186	H	0.357231	0.675026	-0.094824
C187	C	0.881486	0.892127	-0.172858
H188	H	0.908095	0.919848	-0.177466
H189	H	0.891373	0.851982	-0.147771
H190	H	0.824503	0.936152	-0.147781
C191	C	0.253798	1.366964	0.077582
H192	H	0.213535	1.410970	0.072283
H193	H	0.297114	1.373648	0.059342
H194	H	0.230233	1.373640	0.126213
H195	H	0.094412	0.675061	-0.094820
H196	H	1.054399	0.261430	-0.423330
C197	C	0.630963	0.932653	-0.749472
H198	H	0.630945	0.923247	-0.789731
H199	H	0.678254	0.929921	-0.763232
H200	H	0.583676	0.989450	-0.715922
H201	H	0.262390	0.878893	0.435675
C202	C	-0.008776	0.656272	-0.109748
H203	H	-0.056529	0.665703	-0.102264
H204	H	0.022582	0.599478	-0.107577
H205	H	0.022598	0.658994	-0.154873
H206	H	0.262428	1.342853	0.301520
C207	C	0.190394	1.349132	0.440589
H208	H	0.176755	1.400672	0.426919
H209	H	0.210161	1.349158	0.467901
H210	H	0.143295	1.349144	0.467891
C211	C	0.151731	0.751364	-0.133974
H212	H	0.202205	0.739132	-0.171971
H213	H	0.108371	0.800366	-0.133254
H214	H	0.151333	0.700658	-0.139998
C215	C	1.008220	0.221888	-0.077579
H216	H	1.048475	0.177882	-0.072271
H217	H	1.031776	0.215198	-0.126207
H218	H	0.964890	0.215218	-0.059318
C219	C	0.881438	0.576878	0.077641
H220	H	0.908059	0.571085	0.099646
H221	H	0.824458	0.608450	0.112618
H222	H	0.891338	0.608444	0.045735
H223	H	0.999542	0.414939	0.067091
C224	C	0.278426	0.751466	-0.133972
H225	H	0.275639	0.739300	-0.171965
H226	H	0.325173	0.700773	-0.140063
H227	H	0.282066	0.800525	-0.133180
C228	C	0.253726	1.171684	0.454867
H229	H	0.213456	1.229046	0.489830
H230	H	0.297037	1.140124	0.460179
H231	H	0.230167	1.140125	0.460163
C232	C	0.490298	0.656202	-0.109765
H233	H	0.494807	0.617019	-0.140896
H234	H	0.516010	0.623707	-0.088294
H235	H	0.516020	0.683228	-0.135587
C236	C	0.631056	0.932533	-0.250479
H237	H	0.631048	0.971726	-0.277087
H238	H	0.678342	0.905506	-0.250583
H239	H	0.583764	0.965030	-0.203286
C240	C	1.071562	0.239879	0.000043
H241	H	1.085193	0.257092	0.027356
H242	H	1.118660	0.205499	-0.047042
H243	H	1.051775	0.205510	0.019840
H244	H	1.054381	0.794427	-0.423341
H245	H	0.631037	0.913762	-0.368587
H246	H	0.630996	0.913824	-0.631374
C247	C	0.531223	0.963086	-0.513436
H248	H	0.538011	0.951594	-0.557098
H249	H	0.547925	1.000339	-0.511894
H250	H	0.475476	0.991819	-0.475660
H251	H	0.631027	0.675000	-0.259126
C252	C	0.630983	0.656281	-0.622783
H253	H	0.630986	0.617096	-0.649407
H254	H	0.583702	0.683299	-0.575590
H255	H	0.678280	0.623776	-0.622898
H256	H	0.631017	0.675027	-0.368617
C257	C	0.730797	0.625758	-0.486551
H258	H	0.759095	0.577937	-0.527325
H259	H	0.696556	0.618154	-0.445884
H260	H	0.769002	0.626678	-0.482114
