data_functionalizedCrystal
_audit_creation_method	'MofGen! by Chris Wilmer'
_symmetry_space_group_name_H-M	'P1'
_symmetry_Int_Tables_number	1
_symmetry_cell_setting	triclinic
loop_
_symmetry_equiv_pos_as_xyz
  x,y,z
_cell_length_a	10.654549
_cell_length_b	10.654555
_cell_length_c	14.586319
_cell_angle_alpha	89.998746
_cell_angle_beta	89.995465
_cell_angle_gamma	84.488236
loop_
_atom_site_label
_atom_site_type_symbol
_atom_site_fract_x
_atom_site_fract_y
_atom_site_fract_z
O1	O	1.667844	0.176426	-0.076257
O2	O	1.302367	0.193225	-0.076253
O3	O	1.493501	0.002087	-0.076255
O4	O	1.476710	0.367564	-0.076255
O5	O	1.493488	0.002084	0.076226
O6	O	1.302353	0.193222	0.076227
O7	O	1.667831	0.176423	0.076224
Cu8	Cu	1.485091	0.184822	0.090148
Cu9	Cu	1.485107	0.184826	-0.090178
O10	O	1.476696	0.367561	0.076225
C11	C	1.255562	0.191989	-0.000013
C12	C	1.116119	0.188295	-0.000012
C13	C	1.492259	-0.044712	-0.000017
C14	C	1.488561	-0.184155	-0.000022
C15	C	0.826143	0.409917	-0.000038
C16	C	0.877685	0.525935	-0.000034
C17	C	1.008703	0.529410	-0.000022
C18	C	1.088184	0.416855	-0.000016
C19	C	1.036643	0.300837	-0.000020
C20	C	0.905620	0.297374	-0.000029
C21	C	1.064577	0.072277	-0.000015
C22	C	0.933559	0.068798	-0.000021
C23	C	1.144058	-0.040278	-0.000010
C24	C	1.092517	-0.156299	-0.000007
C25	C	0.961490	-0.159770	-0.000018
C26	C	0.882018	-0.047220	-0.000024
C27	C	1.481607	-0.446189	0.166224
C28	C	1.483331	-0.380676	0.249342
C29	C	1.486799	-0.249657	0.249343
C30	C	1.488540	-0.184148	0.166215
C31	C	1.486816	-0.249661	0.083096
C32	C	1.483351	-0.380683	0.083105
C33	C	1.486837	-0.249668	-0.083141
C34	C	1.483378	-0.380688	-0.083143
C35	C	1.488578	-0.184158	-0.166269
C36	C	1.486863	-0.249672	-0.249389
C37	C	1.483396	-0.380699	-0.249386
C38	C	1.481654	-0.446201	-0.166262
C39	C	1.714635	0.177659	-0.000019
C40	C	1.854079	0.181353	-0.000026
C41	C	1.477939	0.414360	-0.000015
C42	C	1.481637	0.553803	-0.000016
N43	N	1.485089	0.184819	0.216980
N44	N	1.485119	0.184819	-0.217010
C45	C	1.569752	0.100212	0.451986
C46	C	1.569755	0.100209	0.547967
C47	C	1.400447	0.269430	0.547978
C48	C	1.400438	0.269426	0.451998
C49	C	1.485098	0.184819	0.404005
C50	C	1.485110	0.184820	0.595965
C51	C	1.485113	0.184817	0.700033
C52	C	1.485093	0.184819	0.299931
H53	H	0.812958	0.617574	-0.000041
O54	O	1.169901	-0.265505	0.000038
C55	C	1.384129	-0.361445	-0.000012
C56	C	1.296632	-0.237674	-0.000042
H57	H	1.486609	-0.338987	-0.000095
H58	H	1.365348	-0.418497	0.063818
H59	H	1.365194	-0.418490	-0.063808
H60	H	1.315516	-0.180528	0.063711
H61	H	1.315431	-0.180717	-0.063914
H62	H	1.488272	-0.196323	-0.317065
H63	H	1.478836	-0.552884	-0.166251
O64	O	1.481423	-0.444233	0.330112
C65	C	1.371781	-0.471001	0.472225
C66	C	1.373774	-0.398952	0.380780
H67	H	1.284770	-0.434401	0.513225
H68	H	1.368929	-0.575902	0.458003
H69	H	1.460236	-0.455980	0.513174
H70	H	1.285337	-0.413870	0.339785
H71	H	1.376692	-0.294077	0.395066
O72	O	0.911367	-0.272442	-0.000185
C73	C	0.779621	-0.408984	-0.079163
C74	C	0.836318	-0.281352	-0.079098
H75	H	0.718910	-0.416219	-0.142948
H76	H	0.858886	-0.488875	-0.079218
H77	H	0.719019	-0.416310	-0.015325
H78	H	0.896906	-0.273903	-0.142925
H79	H	0.756992	-0.201523	-0.078996
H80	H	1.481982	-0.434031	-0.317072
O81	O	1.488248	-0.185921	0.330055
C82	C	1.383573	-0.024643	0.426483
C83	C	1.381764	-0.096751	0.335056
H84	H	1.297505	0.047485	0.430547
H85	H	1.381649	-0.093888	0.485938
H86	H	1.472971	0.025916	0.430620
H87	H	1.292381	-0.147314	0.330829
H88	H	1.383757	-0.027447	0.275644
H89	H	0.775334	-0.050035	-0.000025
H90	H	1.638686	0.031313	0.587030
H91	H	1.638685	0.031318	0.412912
O92	O	1.318342	0.351576	0.594743
C93	C	1.243274	0.426536	0.742609
C94	C	1.336343	0.333454	0.689765
H95	H	1.257777	0.411899	0.819443
H96	H	1.260518	0.527307	0.723797
H97	H	1.142553	0.409251	0.723696
H98	H	1.437098	0.350624	0.708650
H99	H	1.318989	0.232714	0.708581
H100	H	1.478796	-0.552873	0.166232
O101	O	1.318252	0.351503	0.405242
C102	C	1.243270	0.426543	0.257380
C103	C	1.336388	0.333513	0.310218
H104	H	1.257918	0.412049	0.180545
H105	H	1.142510	0.409251	0.276191
H106	H	1.260505	0.527276	0.276299
H107	H	1.319267	0.232745	0.291327
H108	H	1.437116	0.350915	0.291403
H109	H	1.491349	-0.077463	0.166223
H110	H	1.491396	-0.077475	-0.166263
H111	H	0.719460	0.407098	-0.000031
H112	H	1.194865	0.419695	-0.000017
H113	H	1.050667	0.623882	-0.000017
H114	H	1.250739	-0.037440	-0.000004
