data_functionalizedCrystal
_audit_creation_method	'MofGen! by Chris Wilmer'
_symmetry_space_group_name_H-M	'P1'
_symmetry_Int_Tables_number	1
_symmetry_cell_setting	triclinic
loop_
_symmetry_equiv_pos_as_xyz
  x,y,z
_cell_length_a	18.101395
_cell_length_b	18.101398
_cell_length_c	15.296720
_cell_angle_alpha	99.666182
_cell_angle_beta	99.643705
_cell_angle_gamma	90.029256
loop_
_atom_site_label
_atom_site_type_symbol
_atom_site_fract_x
_atom_site_fract_y
_atom_site_fract_z
Zn1	Zn	-0.367298	1.059619	-0.509969
Zn2	Zn	0.132702	1.559619	-0.009969
Zn3	Zn	-0.469721	1.080961	-0.359118
Zn4	Zn	0.030279	1.580961	0.140882
Zn5	Zn	-0.345897	0.957221	-0.359144
Zn6	Zn	0.154103	1.457221	0.140856
Zn7	Zn	-0.491093	0.935733	-0.509935
Zn8	Zn	0.008907	1.435733	-0.009935
O9	O	-0.418502	1.008384	-0.434542
O10	O	0.081498	1.508384	0.065458
O11	O	-0.380896	1.166082	-0.489962
O12	O	0.119104	1.666082	0.010038
O13	O	-0.435395	1.082471	-0.232883
O14	O	0.064605	1.582471	0.267117
O15	O	-0.245107	0.970865	-0.379176
O16	O	0.254893	1.470865	0.120824
O17	O	-0.456146	1.181762	-0.379133
O18	O	0.043854	1.681762	0.120867
O19	O	-0.260829	1.046096	-0.489987
O20	O	0.239171	1.546096	0.010013
O21	O	-0.344422	0.991559	-0.232902
O22	O	0.155578	1.491559	0.267098
O23	O	-0.365146	0.850738	-0.379143
O24	O	0.134854	1.350738	0.120857
O25	O	-0.492572	0.934243	-0.636178
O26	O	0.007428	1.434243	-0.136178
O27	O	-0.471821	0.834951	-0.489929
O28	O	0.028179	1.334951	0.010071
O29	O	-0.401620	1.025261	-0.636203
O30	O	0.098380	1.525261	-0.136203
O31	O	-0.576185	1.061636	-0.379100
O32	O	-0.076185	1.561636	0.120900
O33	O	-0.591887	0.954938	-0.489904
O34	O	-0.091887	1.454938	0.010096
C35	C	-0.418481	0.815974	-0.434535
C36	C	0.081519	1.315974	0.065465
C37	C	-0.418493	0.733657	-0.434554
C38	C	0.081507	1.233657	0.065446
C39	C	-0.418506	0.582949	-0.434553
C40	C	0.081494	1.082949	0.065447
C41	C	-0.485696	0.541703	-0.504148
C42	C	0.014304	1.041703	-0.004148
C43	C	-0.485898	0.456114	-0.503942
C44	C	0.014102	0.956114	-0.003942
C45	C	-0.418520	0.434566	-0.434553
C46	C	0.081480	0.934566	0.065447
C47	C	-0.425828	0.479152	-0.339366
C48	C	0.074172	0.979152	0.160634
C49	C	-0.426293	0.564739	-0.339769
C50	C	0.073707	1.064739	0.160231
C51	C	-0.343748	0.547908	-0.459312
C52	C	0.156252	1.047908	0.040688
C53	C	-0.344475	0.461959	-0.461409
C54	C	0.155525	0.961959	0.038591
C55	C	-0.418525	0.350708	-0.434547
C56	C	0.081475	0.850708	0.065453
C57	C	-0.418501	0.666808	-0.434552
C58	C	0.081499	1.166808	0.065448
C59	C	-0.610909	1.008288	-0.434515
C60	C	-0.110909	1.508288	0.065485
C61	C	-0.693226	1.008311	-0.434534
C62	C	-0.193226	1.508311	0.065466
C63	C	-0.992323	1.008466	-0.434582
C64	C	-0.492323	1.508466	0.065418
C65	C	-0.970933	0.941443	-0.504470
C66	C	-0.470933	1.441443	-0.004470
C67	C	-0.885284	0.941203	-0.504252
C68	C	-0.385284	1.441203	-0.004252
C69	C	-0.843938	1.008389	-0.434559
C70	C	-0.343938	1.508389	0.065441
C71	C	-0.861585	1.000776	-0.339487
C72	C	-0.361585	1.500776	0.160513
C73	C	-0.947290	1.000349	-0.339905
C74	C	-0.447290	1.500349	0.160095
C75	C	-0.964128	1.083347	-0.458930
C76	C	-0.464128	1.583347	0.041070
C77	C	-0.878773	1.082590	-0.461015
C78	C	-0.378773	1.582590	0.038985
C79	C	-0.760075	1.008348	-0.434540
C80	C	-0.260075	1.508348	0.065460
C81	C	-1.076185	1.008507	-0.434595
C82	C	-0.576185	1.508507	0.065405
C83	C	-0.225347	1.008497	-0.434588
C84	C	0.274653	1.508497	0.065412
C85	C	-0.143035	1.008545	-0.434608
C86	C	0.356965	1.508545	0.065392
C87	C	-0.451867	0.974974	-0.669838
C88	C	0.048133	1.474974	-0.169838
C89	C	-0.466085	0.960737	-0.770107
C90	C	0.033915	1.460737	-0.270107
C91	C	-0.418524	1.201544	-0.434548
C92	C	0.081476	1.701544	0.065452
C93	C	-0.418533	1.283858	-0.434551
C94	C	0.081467	1.783858	0.065449
C95	C	-0.316754	1.110165	-1.052801
C96	C	0.183246	1.610165	-0.552801
C97	C	-0.303396	1.123546	-0.958593
C98	C	0.196604	1.623546	-0.458593
C99	C	-0.344067	1.082845	-0.911467
C100	C	0.155933	1.582845	-0.411467
C101	C	-0.398098	1.028761	-0.958558
C102	C	0.101902	1.528761	-0.458558
C103	C	-0.411461	1.015383	-1.052775
C104	C	0.088539	1.515383	-0.552775
C105	C	-0.438774	0.988062	-0.911441
C106	C	0.061226	1.488062	-0.411441
C107	C	-0.492805	0.933978	-0.958532
C108	C	0.007195	1.433978	-0.458532
C109	C	-0.506165	0.920602	-1.052740
C110	C	-0.006165	1.420602	-0.552740
C111	C	-0.465494	0.961303	-1.099866
C112	C	0.034506	1.461303	-0.599866
C113	C	-0.425411	1.001441	-0.817224
C114	C	0.074589	1.501441	-0.317224
C115	C	-0.520118	0.906658	-0.817198
C116	C	-0.020118	1.406658	-0.317198
C117	C	-0.533476	0.893277	-0.911406
C118	C	-0.033476	1.393277	-0.411406
C119	C	-0.385214	1.041705	-0.200161
C120	C	0.114786	1.541705	0.299839
C121	C	-0.370787	1.056086	-0.099892
C122	C	0.129213	1.556086	0.400108
H123	H	-0.293858	0.575391	-0.408627
H124	H	0.206142	1.075391	0.091373
C125	C	-0.498181	0.454228	-0.310606
C126	C	0.001819	0.954228	0.189394
H127	H	-0.502099	0.481528	-0.252915
H128	H	-0.002099	0.981528	0.247085
H129	H	-0.540277	0.463627	-0.353036
H130	H	-0.040277	0.963627	0.146964
H131	H	-0.496796	0.402151	-0.308110
H132	H	0.003204	0.902151	0.191890
C133	C	-0.970412	0.926946	-0.312051
C134	C	-0.470412	1.426946	0.187949
H135	H	-0.927442	0.897667	-0.300592
H136	H	-0.427442	1.397667	0.199408
H137	H	-0.992153	0.938256	-0.259166
H138	H	-0.492153	1.438256	0.240834
H139	H	-1.005896	0.899621	-0.359228
H140	H	-0.505896	1.399621	0.140772
C141	C	-0.854590	0.865860	-0.482454
C142	C	-0.354590	1.365860	0.017546
H143	H	-0.894477	0.835283	-0.473689
H144	H	-0.394477	1.335283	0.026311
H145	H	-0.832335	0.841168	-0.530996
H146	H	-0.332335	1.341168	-0.030996
H147	H	-0.818027	0.874649	-0.429208
H148	H	-0.318027	1.374649	0.070792
C149	C	-0.360957	0.461900	-0.267384
C150	C	0.139043	0.961900	0.232616
H151	H	-0.366472	0.489439	-0.210359
H152	H	0.133528	0.989439	0.289641
H153	H	-0.361775	0.409784	-0.265143
H154	H	0.138225	0.909784	0.234857
H155	H	-0.314598	0.475849	-0.282239
H156	H	0.185402	0.975849	0.217761
C157	C	-0.243966	1.183031	-0.906800
C158	C	0.256034	1.683031	-0.406800
H159	H	-0.221653	1.205351	-0.948357
H160	H	0.278347	1.705351	-0.448357
H161	H	-0.267087	1.220499	-0.870042
H162	H	0.232913	1.720499	-0.370042
H163	H	-0.206480	1.159937	-0.870056
H164	H	0.293520	1.659937	-0.370056
H165	H	-0.960361	1.047781	-0.286058
H166	H	-0.460361	1.547781	0.213942
H167	H	-0.334412	0.559832	-0.527552
H168	H	0.165588	1.059832	-0.027552
H169	H	-0.541063	0.565498	-0.487920
H170	H	-0.041063	1.065498	0.012080
H171	H	-0.850659	1.134082	-0.413821
H172	H	-0.350659	1.634082	0.086179
C173	C	-0.565608	0.861124	-1.104542
C174	C	-0.065608	1.361124	-0.604542
H175	H	-0.567747	0.858993	-1.167399
H176	H	-0.067747	1.358993	-0.667399
H177	H	-0.552582	0.813562	-1.089109
H178	H	-0.052582	1.313562	-0.589109
H179	H	-0.613175	0.874137	-1.089084
H180	H	-0.113175	1.374137	-0.589084
C181	C	-0.272021	1.154927	-1.104640
C182	C	0.227979	1.654927	-0.604640
H183	H	-0.287716	1.139209	-1.167493
H184	H	0.212284	1.639209	-0.667493
H185	H	-0.280673	1.206871	-1.089202
H186	H	0.219327	1.706871	-0.589202
H187	H	-0.220071	1.146304	-1.089216
H188	H	0.279929	1.646304	-0.589216
H189	H	-0.476367	0.950411	-1.176578
H190	H	0.023633	1.450411	-0.676578
C191	C	-0.828680	0.928260	-0.311126
C192	C	-0.328680	1.428260	0.188874
H193	H	-0.804177	0.902541	-0.357089
H194	H	-0.304177	1.402541	0.142911
H195	H	-0.793636	0.940408	-0.256839
H196	H	-0.293636	1.440408	0.243161
H197	H	-0.867937	0.897084	-0.301973
H198	H	-0.367937	1.397084	0.198027
C199	C	-0.336679	0.421085	-0.556034
C200	C	0.163321	0.921085	-0.056034
H201	H	-0.378370	0.387462	-0.579084
H202	H	0.121630	0.887462	-0.079084
H203	H	-0.335101	0.456749	-0.594752
H204	H	0.164899	0.956749	-0.094752
H205	H	-0.291759	0.393809	-0.552638
H206	H	0.208241	0.893809	-0.052638
H207	H	-0.874233	0.944400	-0.574747
H208	H	-0.374233	1.444400	-0.074747
H209	H	-0.577468	0.849241	-0.949760
H210	H	-0.077468	1.349241	-0.449760
C211	C	-0.274738	0.442099	-0.397983
C212	C	0.225262	0.942099	0.102017
H213	H	-0.230862	0.459297	-0.415788
H214	H	0.269138	0.959297	0.084212
H215	H	-0.276851	0.465463	-0.338050
H216	H	0.223149	0.965463	0.161950
H217	H	-0.273472	0.389276	-0.400991
H218	H	0.226528	0.889276	0.099009
C219	C	-0.564864	0.861886	-0.765373
C220	C	-0.064864	1.361886	-0.265373
H221	H	-0.598965	0.827769	-0.806911
H222	H	-0.098965	1.327769	-0.306911
H223	H	-0.531324	0.834854	-0.728624
H224	H	-0.031324	1.334854	-0.228624
H225	H	-0.591923	0.895424	-0.728617
H226	H	-0.091923	1.395424	-0.228617
C227	C	-0.481886	0.414195	-0.599269
C228	C	0.018114	0.914195	-0.099269
H229	H	-0.480121	0.449441	-0.638472
H230	H	0.019879	0.949441	-0.138472
H231	H	-0.438109	0.385193	-0.597640
H232	H	0.061891	0.885193	-0.097640
H233	H	-0.524967	0.382099	-0.620516
H234	H	-0.024967	0.882099	-0.120516
H235	H	-0.333188	1.093743	-0.834759
H236	H	0.166812	1.593743	-0.334759
C237	C	-0.481934	0.555961	-0.599777
C238	C	0.018066	1.055961	-0.099777
H239	H	-0.439358	0.587199	-0.598120
H240	H	0.060642	1.087199	-0.098120
H241	H	-0.478051	0.509551	-0.638070
H242	H	0.021949	1.009551	-0.138070
H243	H	-0.526073	0.579946	-0.622136
H244	H	-0.026073	1.079946	-0.122136
C245	C	-0.823803	1.065447	-0.267219
C246	C	-0.323803	1.565447	0.232781
H247	H	-0.796862	1.097739	-0.294451
H248	H	-0.296862	1.597739	0.205549
H249	H	-0.861010	1.092899	-0.239734
H250	H	-0.361010	1.592899	0.260266
H251	H	-0.790211	1.045595	-0.222894
H252	H	-0.290211	1.545595	0.277106
H253	H	-0.480528	0.587657	-0.318842
H254	H	0.019472	1.087657	0.181158
C255	C	-0.561101	0.431541	-0.481741
C256	C	-0.061101	0.931541	0.018259
H257	H	-0.591644	0.473890	-0.472804
H258	H	-0.091644	0.973890	0.027196
H259	H	-0.585922	0.395511	-0.530195
H260	H	-0.085922	0.895511	-0.030195
H261	H	-0.552132	0.410073	-0.428506
H262	H	-0.052132	0.910073	0.071494
C263	C	-1.006306	1.096283	-0.550988
C264	C	-0.506306	1.596283	-0.050988
H265	H	-1.041509	1.056131	-0.575438
H266	H	-0.541509	1.556131	-0.075438
H267	H	-1.031905	1.142124	-0.543682
H268	H	-0.531905	1.642124	-0.043682
H269	H	-0.971522	1.098552	-0.590649
H270	H	-0.471522	1.598552	-0.090649
C271	C	-1.012349	0.945471	-0.599993
C272	C	-0.512349	1.445471	-0.099993
H273	H	-1.043051	0.988067	-0.598114
H274	H	-0.543051	1.488067	-0.098114
H275	H	-0.976840	0.949450	-0.638317
H276	H	-0.476840	1.449450	-0.138317
H277	H	-1.042749	0.901362	-0.622469
H278	H	-0.542749	1.401362	-0.122469
C279	C	-0.997036	0.866529	-0.482971
C280	C	-0.497036	1.366529	0.017029
H281	H	-0.983898	0.826331	-0.525516
H282	H	-0.483898	1.326331	-0.025516
H283	H	-0.973441	0.860999	-0.424196
H284	H	-0.473441	1.360999	0.075804
H285	H	-1.049884	0.866038	-0.485954
H286	H	-0.549884	1.366038	0.014046
C287	C	-0.362039	0.603063	-0.267308
C288	C	0.137961	1.103063	0.232692
H289	H	-0.335773	0.566304	-0.237749
H290	H	0.164227	1.066304	0.262251
H291	H	-0.328605	0.628333	-0.294822
H292	H	0.171395	1.128333	0.205178
H293	H	-0.382107	0.638185	-0.224637
H294	H	0.117893	1.138185	0.275363
C295	C	-0.864680	1.090688	-0.555527
C296	C	-0.364680	1.590688	-0.055527
H297	H	-0.837676	1.049030	-0.578772
H298	H	-0.337676	1.549030	-0.078772
H299	H	-0.911306	1.092411	-0.594211
H300	H	-0.411306	1.592411	-0.094211
H301	H	-0.836343	1.135618	-0.551899
H302	H	-0.336343	1.635618	-0.051899
H303	H	-0.977149	1.133116	-0.408027
H304	H	-0.477149	1.633116	0.091973
C305	C	-0.365980	1.060924	-0.765430
C306	C	0.134020	1.560924	-0.265430
H307	H	-0.363848	1.063069	-0.702572
H308	H	0.136152	1.563069	-0.202572
H309	H	-0.318412	1.047925	-0.780886
H310	H	0.181588	1.547925	-0.280886
H311	H	-0.379021	1.108485	-0.780871
H312	H	0.120979	1.608485	-0.280871
