data_functionalizedCrystal
_audit_creation_method	'MofGen! by Chris Wilmer'
_symmetry_space_group_name_H-M	'P1'
_symmetry_Int_Tables_number	1
_symmetry_cell_setting	triclinic
loop_
_symmetry_equiv_pos_as_xyz
  x,y,z
_cell_length_a	18.101398
_cell_length_b	18.101397
_cell_length_c	16.625539
_cell_angle_alpha	89.968146
_cell_angle_beta	89.988670
_cell_angle_gamma	90.016023
loop_
_atom_site_label
_atom_site_type_symbol
_atom_site_fract_x
_atom_site_fract_y
_atom_site_fract_z
Zn1	Zn	1.132187	-0.294916	-0.455691
Zn2	Zn	1.382187	-0.044916	-0.205691
Zn3	Zn	1.632187	0.205084	0.044309
Zn4	Zn	1.882187	0.455084	0.294309
Zn5	Zn	1.132103	-0.418765	-0.320850
Zn6	Zn	1.382103	-0.168765	-0.070850
Zn7	Zn	1.632103	0.081235	0.179150
Zn8	Zn	1.882103	0.331235	0.429150
Zn9	Zn	1.008343	-0.294932	-0.320893
Zn10	Zn	1.258343	-0.044932	-0.070893
Zn11	Zn	1.508343	0.205068	0.179107
Zn12	Zn	1.758343	0.455068	0.429107
Zn13	Zn	1.008320	-0.418711	-0.455661
Zn14	Zn	1.258320	-0.168711	-0.205661
Zn15	Zn	1.508320	0.081289	0.044339
Zn16	Zn	1.758320	0.331289	0.294339
O17	O	1.070238	-0.356831	-0.388274
O18	O	1.320238	-0.106831	-0.138274
O19	O	1.570238	0.143169	0.111726
O20	O	1.820238	0.393169	0.361726
O21	O	1.235809	-0.311361	-0.437798
O22	O	1.485809	-0.061361	-0.187798
O23	O	1.735809	0.188639	0.062202
O24	O	1.985809	0.438639	0.312202
O25	O	1.115660	-0.402368	-0.208023
O26	O	1.365660	-0.152368	0.041977
O27	O	1.615660	0.097632	0.291977
O28	O	1.865660	0.347632	0.541977
O29	O	1.024816	-0.191297	-0.338805
O30	O	1.274816	0.058703	-0.088805
O31	O	1.524816	0.308703	0.161195
O32	O	1.774816	0.558703	0.411195
O33	O	1.235747	-0.402352	-0.338731
O34	O	1.485747	-0.152352	-0.088731
O35	O	1.735747	0.097648	0.161269
O36	O	1.985747	0.347648	0.411269
O37	O	1.115804	-0.191285	-0.437840
O38	O	1.365804	0.058715	-0.187840
O39	O	1.615804	0.308715	0.062160
O40	O	1.865804	0.558715	0.312160
O41	O	1.024734	-0.311389	-0.208055
O42	O	1.274734	-0.061389	0.041945
O43	O	1.524734	0.188611	0.291945
O44	O	1.774734	0.438611	0.541945
O45	O	0.904707	-0.311336	-0.338776
O46	O	1.154707	-0.061336	-0.088776
O47	O	1.404707	0.188664	0.161224
O48	O	1.654707	0.438664	0.411224
O49	O	1.024777	-0.402260	-0.568497
O50	O	1.274777	-0.152260	-0.318497
O51	O	1.524777	0.097740	-0.068497
O52	O	1.774777	0.347740	0.181503
O53	O	0.904690	-0.402275	-0.437790
O54	O	1.154690	-0.152275	-0.187790
O55	O	1.404690	0.097725	0.062210
O56	O	1.654690	0.347725	0.312210
O57	O	1.115782	-0.311308	-0.568519
O58	O	1.365782	-0.061308	-0.318519
O59	O	1.615782	0.188692	-0.068519
O60	O	1.865782	0.438692	0.181481
O61	O	1.115638	-0.522391	-0.338702
O62	O	1.365638	-0.272391	-0.088702
O63	O	1.615638	-0.022391	0.161298
O64	O	1.865638	0.227609	0.411298
O65	O	1.024695	-0.522351	-0.437748
O66	O	1.274695	-0.272351	-0.187748
O67	O	1.524695	-0.022351	0.062252
O68	O	1.774695	0.227649	0.312252
C69	C	0.877828	-0.356802	-0.388285
C70	C	1.127828	-0.106802	-0.138285
C71	C	1.377828	0.143198	0.111715
C72	C	1.627828	0.393198	0.361715
C73	C	0.795514	-0.356807	-0.388309
C74	C	1.045514	-0.106807	-0.138309
C75	C	1.295514	0.143193	0.111691
C76	C	1.545514	0.393193	0.361691
C77	C	0.496423	-0.356851	-0.388275
C78	C	0.746423	-0.106851	-0.138275
C79	C	0.996423	0.143149	0.111725
C80	C	1.246423	0.393149	0.361725
C81	C	0.527762	-0.414344	-0.450264
C82	C	0.777762	-0.164344	-0.200264
C83	C	1.027762	0.085656	0.049736
C84	C	1.277762	0.335656	0.299736
C85	C	0.613380	-0.414164	-0.450519
C86	C	0.863380	-0.164164	-0.200519
C87	C	1.113380	0.085836	0.049481
C88	C	1.363380	0.335836	0.299481
C89	C	0.644805	-0.356830	-0.388292
C90	C	0.894805	-0.106830	-0.138292
C91	C	1.144805	0.143170	0.111708
C92	C	1.394805	0.393170	0.361708
C93	C	0.613737	-0.278827	-0.411517
C94	C	0.863737	-0.028827	-0.161517
C95	C	1.113737	0.221173	0.088483
C96	C	1.363737	0.471173	0.338483
C97	C	0.528092	-0.279173	-0.411957
C98	C	0.778092	-0.029173	-0.161957
C99	C	1.028092	0.220827	0.088043
C100	C	1.278092	0.470827	0.338043
C101	C	0.527971	-0.376673	-0.302912
C102	C	0.777971	-0.126673	-0.052912
C103	C	1.027971	0.123327	0.197088
C104	C	1.277971	0.373327	0.447088
C105	C	0.613622	-0.378384	-0.303368
C106	C	0.863622	-0.128384	-0.053368
C107	C	1.113622	0.121616	0.196632
C108	C	1.363622	0.371616	0.446632
C109	C	0.728665	-0.356813	-0.388300
C110	C	0.978665	-0.106813	-0.138300
C111	C	1.228665	0.143187	0.111700
C112	C	1.478665	0.393187	0.361700
C113	C	0.412563	-0.356862	-0.388269
C114	C	0.662563	-0.106862	-0.138269
C115	C	0.912563	0.143138	0.111731
C116	C	1.162563	0.393138	0.361731
C117	C	1.070175	-0.549242	-0.388234
C118	C	1.320175	-0.299242	-0.138234
C119	C	1.570175	-0.049242	0.111766
C120	C	1.820175	0.200758	0.361766
C121	C	1.070215	-0.631556	-0.388245
C122	C	1.320215	-0.381556	-0.138245
C123	C	1.570215	-0.131556	0.111755
C124	C	1.820215	0.118444	0.361755
C125	C	1.070310	-0.930647	-0.388318
C126	C	1.320310	-0.680647	-0.138318
C127	C	1.570310	-0.430647	0.111682
C128	C	1.820310	-0.180647	0.361682
C129	C	1.127369	-0.899316	-0.325835
C130	C	1.377369	-0.649316	-0.075835
C131	C	1.627369	-0.399316	0.174165
C132	C	1.877369	-0.149316	0.424165
C133	C	1.127567	-0.813697	-0.325996
C134	C	1.377567	-0.563697	-0.075996
C135	C	1.627567	-0.313697	0.174004
C136	C	1.877567	-0.063697	0.424004
C137	C	1.070263	-0.782264	-0.388281
C138	C	1.320263	-0.532264	-0.138281
C139	C	1.570263	-0.282264	0.111719
C140	C	1.820263	-0.032264	0.361719
C141	C	1.091421	-0.813271	-0.473267
C142	C	1.341421	-0.563271	-0.223267
C143	C	1.591421	-0.313271	0.026733
C144	C	1.841421	-0.063271	0.276733
C145	C	1.091863	-0.898916	-0.472927
C146	C	1.341863	-0.648916	-0.222927
C147	C	1.591863	-0.398916	0.027073
C148	C	1.841863	-0.148916	0.277073
C149	C	0.991941	-0.899150	-0.366551
C150	C	1.241941	-0.649150	-0.116551
C151	C	1.491941	-0.399150	0.133449
C152	C	1.741941	-0.149150	0.383449
C153	C	0.992328	-0.813501	-0.364654
C154	C	1.242328	-0.563501	-0.114654
C155	C	1.492328	-0.313501	0.135346
C156	C	1.742328	-0.063501	0.385346
C157	C	1.070235	-0.698405	-0.388265
C158	C	1.320235	-0.448405	-0.138265
C159	C	1.570235	-0.198405	0.111735
C160	C	1.820235	0.051595	0.361735
C161	C	1.070340	-1.014506	-0.388340
C162	C	1.320340	-0.764506	-0.138340
C163	C	1.570340	-0.514506	0.111660
C164	C	1.820340	-0.264506	0.361660
C165	C	1.263400	-0.356861	-0.388263
C166	C	1.513400	-0.106861	-0.138263
C167	C	1.763400	0.143139	0.111737
C168	C	2.013400	0.393139	0.361737
C169	C	1.345714	-0.356874	-0.388258
C170	C	1.595714	-0.106874	-0.138258
C171	C	1.845714	0.143126	0.111742
C172	C	2.095714	0.393126	0.361742
C173	C	1.070286	-0.356776	-0.598583
C174	C	1.320286	-0.106776	-0.348583
C175	C	1.570286	0.143224	-0.098583
C176	C	1.820286	0.393224	0.151417
C177	C	1.070307	-0.356752	-0.688204
C178	C	1.320307	-0.106752	-0.438204
C179	C	1.570307	0.143248	-0.188204
C180	C	1.820307	0.393248	0.061796
C181	C	1.070322	-0.163669	-0.388330
C182	C	1.320322	0.086331	-0.138330
C183	C	1.570322	0.336331	0.111670
C184	C	1.820322	0.586331	0.361670
C185	C	1.070358	-0.081355	-0.388355
C186	C	1.320358	0.168645	-0.138355
C187	C	1.570358	0.418645	0.111645
C188	C	1.820358	0.668645	0.361645
C189	C	1.070341	-0.356670	-1.016380
C190	C	1.320341	-0.106670	-0.766380
C191	C	1.570341	0.143330	-0.516380
C192	C	1.820341	0.393330	-0.266380
C193	C	1.070329	-0.356695	-0.925071
C194	C	1.320329	-0.106695	-0.675071
C195	C	1.570329	0.143305	-0.425071
C196	C	1.820329	0.393305	-0.175071
C197	C	1.070324	-0.356712	-0.852295
C198	C	1.320324	-0.106712	-0.602295
C199	C	1.570324	0.143288	-0.352295
C200	C	1.820324	0.393288	-0.102295
C201	C	1.070312	-0.356736	-0.760980
C202	C	1.320312	-0.106736	-0.510980
C203	C	1.570312	0.143264	-0.260980
C204	C	1.820312	0.393264	-0.010980
C205	C	1.070233	-0.356833	-0.178783
C206	C	1.320233	-0.106833	0.071217
C207	C	1.570233	0.143167	0.321217
C208	C	1.820233	0.393167	0.571217
C209	C	1.070356	-0.356648	-0.089162
C210	C	1.320356	-0.106648	0.160838
C211	C	1.570356	0.143352	0.410838
C212	C	1.820356	0.393352	0.660838
H213	H	0.506251	-0.401396	-0.513147
H214	H	0.756251	-0.151396	-0.263147
H215	H	1.006251	0.098604	-0.013147
H216	H	1.256251	0.348604	0.236853
H217	H	0.976374	-0.793242	-0.302111
H218	H	1.226374	-0.543242	-0.052111
H219	H	1.476374	-0.293242	0.197889
H220	H	1.726374	-0.043242	0.447889
H221	H	0.634386	-0.472007	-0.435962
H222	H	0.884386	-0.222007	-0.185962
H223	H	1.134386	0.027993	0.064038
H224	H	1.384386	0.277993	0.314038
H225	H	0.635200	-0.261712	-0.473243
H226	H	0.885200	-0.011712	-0.223243
H227	H	1.135200	0.238288	0.026757
H228	H	1.385200	0.488288	0.276757
H229	H	0.633882	-0.401049	-0.513768
H230	H	0.883882	-0.151049	-0.263768
H231	H	1.133882	0.098951	-0.013768
H232	H	1.383882	0.348951	0.236232
H233	H	1.148064	-0.791768	-0.492019
H234	H	1.398064	-0.541768	-0.242019
H235	H	1.648064	-0.291768	0.007981
H236	H	1.898064	-0.041768	0.257981
H237	H	1.185103	-0.920788	-0.340070
H238	H	1.435103	-0.670788	-0.090070
H239	H	1.685103	-0.420788	0.159930
H240	H	1.935103	-0.170788	0.409930
H241	H	0.635013	-0.339549	-0.254700
H242	H	0.885013	-0.089549	-0.004700
H243	H	1.135013	0.160451	0.245300
H244	H	1.385013	0.410451	0.495300
H245	H	0.972693	-0.920810	-0.305654
H246	H	1.222693	-0.670810	-0.055654
H247	H	1.472693	-0.420810	0.194346
H248	H	1.722693	-0.170810	0.444346
H249	H	1.185618	-0.793158	-0.340397
H250	H	1.435618	-0.543158	-0.090397
H251	H	1.685618	-0.293158	0.159603
H252	H	1.935618	-0.043158	0.409603
H253	H	0.507157	-0.472376	-0.435870
H254	H	0.757157	-0.222376	-0.185870
H255	H	1.007157	0.027624	0.064130
H256	H	1.257157	0.277624	0.314130
H257	H	1.051133	-0.792908	-0.521074
H258	H	1.301133	-0.542908	-0.271074
H259	H	1.551133	-0.292908	-0.021074
H260	H	1.801133	-0.042908	0.228926
H261	H	0.506368	-0.432579	-0.281806
H262	H	0.756368	-0.182579	-0.031806
H263	H	1.006368	0.067421	0.218194
H264	H	1.256368	0.317421	0.468194
H265	H	0.633936	-0.435783	-0.285851
H266	H	0.883936	-0.185783	-0.035851
H267	H	1.133936	0.064217	0.214149
H268	H	1.383936	0.314217	0.464149
H269	H	0.947527	-0.792111	-0.406832
H270	H	1.197527	-0.542111	-0.156832
H271	H	1.447527	-0.292111	0.093168
H272	H	1.697527	-0.042111	0.343168
H273	H	1.149147	-0.918839	-0.491367
H274	H	1.399147	-0.668839	-0.241367
H275	H	1.649147	-0.418839	0.008633
H276	H	1.899147	-0.168839	0.258633
H277	H	0.508129	-0.262361	-0.474362
H278	H	0.758129	-0.012361	-0.224362
H279	H	1.008129	0.237639	0.025638
H280	H	1.258129	0.487639	0.275638
H281	H	1.052124	-0.919639	-0.521086
H282	H	1.302124	-0.669639	-0.271086
H283	H	1.552124	-0.419639	-0.021086
H284	H	1.802124	-0.169639	0.228914
H285	H	0.507704	-0.334795	-0.256724
H286	H	0.757704	-0.084795	-0.006724
H287	H	1.007704	0.165205	0.243276
H288	H	1.257704	0.415205	0.493276
H289	H	0.507361	-0.234801	-0.368878
H290	H	0.757361	0.015199	-0.118878
H291	H	1.007361	0.265199	0.131122
H292	H	1.257361	0.515199	0.381122
H293	H	0.634092	-0.234829	-0.367775
H294	H	0.884092	0.015171	-0.117775
H295	H	1.134092	0.265171	0.132225
H296	H	1.384092	0.515171	0.382225
H297	H	0.949427	-0.919412	-0.412061
H298	H	1.199427	-0.669412	-0.162061
H299	H	1.449427	-0.419412	0.087939
H300	H	1.699427	-0.169412	0.337939
H301	H	1.114329	-0.792736	-0.262980
H302	H	1.364329	-0.542736	-0.012980
H303	H	1.614329	-0.292736	0.237020
H304	H	1.864329	-0.042736	0.487020
H305	H	1.114292	-0.919959	-0.262629
H306	H	1.364292	-0.669959	-0.012629
H307	H	1.614292	-0.419959	0.237371
H308	H	1.864292	-0.169959	0.487371
