data_functionalizedCrystal
_audit_creation_method	'MofGen! by Chris Wilmer'
_symmetry_space_group_name_H-M	'P1'
_symmetry_Int_Tables_number	1
_symmetry_cell_setting	triclinic
loop_
_symmetry_equiv_pos_as_xyz
  x,y,z
_cell_length_a	19.077409
_cell_length_b	19.076808
_cell_length_c	11.169409
_cell_angle_alpha	87.662578
_cell_angle_beta	92.269021
_cell_angle_gamma	94.713771
loop_
_atom_site_label
_atom_site_type_symbol
_atom_site_fract_x
_atom_site_fract_y
_atom_site_fract_z
Zn1	Zn	1.066455	-0.237284	-0.589532
Zn2	Zn	1.061621	-0.355207	-0.381075
Zn3	Zn	0.948560	-0.242065	-0.396576
Zn4	Zn	0.943799	-0.359885	-0.589431
O5	O	1.005109	-0.298610	-0.489154
O6	O	1.164462	-0.248968	-0.555436
O7	O	1.046593	-0.340241	-0.215181
O8	O	0.968214	-0.142773	-0.428701
O9	O	1.160911	-0.335605	-0.402283
O10	O	1.054831	-0.139260	-0.570466
O11	O	0.963527	-0.257117	-0.226569
O12	O	0.849280	-0.261653	-0.428603
O13	O	0.960101	-0.343578	-0.757395
O14	O	0.845783	-0.348214	-0.570293
O15	O	1.050215	-0.253504	-0.757470
O16	O	1.041977	-0.454486	-0.402185
O17	O	0.955414	-0.457923	-0.555263
C18	C	0.821953	-0.305961	-0.501119
C19	C	0.743597	-0.309122	-0.506266
C20	C	0.302345	-0.331741	-0.543238
C21	C	0.375968	-0.328776	-0.538379
C22	C	0.414580	-0.282153	-0.462312
C23	C	0.379566	-0.238497	-0.391089
C24	C	0.305944	-0.241467	-0.395942
C25	C	0.634960	-0.268436	-0.439896
C26	C	0.708587	-0.265468	-0.435051
C27	C	0.704985	-0.355748	-0.582340
C28	C	0.631361	-0.358710	-0.587192
C29	C	0.596353	-0.315057	-0.515964
N30	N	0.489835	-0.279119	-0.457347
N31	N	0.521099	-0.318095	-0.520924
C32	C	0.997673	-0.481784	-0.477056
C33	C	0.994557	-0.560144	-0.471916
C34	C	1.038156	-0.595070	-0.543375
C35	C	1.035225	-0.668698	-0.538548
C36	C	0.988698	-0.707398	-0.462255
C37	C	0.945094	-0.672468	-0.390794
C38	C	0.948022	-0.598842	-0.395628
C39	C	0.975106	-0.927800	-0.439882
C40	C	0.972182	-1.001431	-0.435051
C41	C	1.062313	-0.997656	-0.582808
C42	C	1.065240	-0.924029	-0.587630
C43	C	1.021633	-0.889105	-0.516173
N44	N	0.985702	-0.782658	-0.457317
N45	N	1.024626	-0.813847	-0.521118
C46	C	1.188980	-0.291232	-0.477142
C47	C	1.267335	-0.288087	-0.472023
C48	C	1.005166	-0.298530	-0.802198
C49	C	1.005191	-0.298495	-0.935599
C50	C	1.012592	-0.114720	-0.501324
C51	C	1.015782	-0.036357	-0.506510
C52	C	1.005094	-0.298638	-0.177328
C53	C	1.005215	-0.298468	-0.043932
H54	H	0.740024	-0.227493	-0.373117
C55	C	0.927144	-0.889394	-0.361266
C56	C	0.932540	-0.899349	-0.223790
C57	C	0.884577	-0.860942	-0.145166
C58	C	0.831218	-0.812580	-0.204017
C59	C	0.825819	-0.802623	-0.341499
C60	C	0.873783	-0.841030	-0.420124
H61	H	0.972042	-0.935151	-0.180219
H62	H	0.888574	-0.868313	-0.043392
H63	H	0.795712	-0.784149	-0.145814
H64	H	0.786318	-0.766821	-0.385071
H65	H	0.869786	-0.833660	-0.521898
C66	C	1.083195	-0.707111	-0.617144
C67	C	1.136543	-0.755475	-0.558265
C68	C	1.184518	-0.793886	-0.636863
C69	C	1.179144	-0.783933	-0.774340
C70	C	1.125794	-0.735567	-0.833226
C71	C	1.077819	-0.697156	-0.754628
H72	H	1.140522	-0.762845	-0.456489
H73	H	1.224011	-0.829690	-0.593270
H74	H	1.214658	-0.812367	-0.832522
H75	H	1.121815	-0.728197	-0.935002
H76	H	1.038326	-0.661352	-0.798221
H77	H	1.103126	-0.892520	-0.649753
C78	C	0.422040	-0.187211	-0.307417
C79	C	0.474910	-0.129855	-0.359908
C80	C	0.517384	-0.078565	-0.276239
C81	C	0.506988	-0.084632	-0.140079
C82	C	0.454116	-0.141990	-0.087581
C83	C	0.411642	-0.193280	-0.171250
H84	H	0.482608	-0.125362	-0.460708
H85	H	0.556524	-0.036104	-0.315103
H86	H	0.538430	-0.046664	-0.078143
H87	H	0.446418	-0.146483	0.013219
H88	H	0.372502	-0.235741	-0.132387
C89	C	0.900064	-0.560420	-0.317019
C90	C	0.848886	-0.602986	-0.233094
C91	C	0.800924	-0.564566	-0.154487
C92	C	0.804140	-0.483580	-0.159805
C93	C	0.855320	-0.441010	-0.243733
C94	C	0.903282	-0.479430	-0.322340
H95	H	0.846504	-0.662940	-0.229155
H96	H	0.763037	-0.596079	-0.092358
H97	H	0.768635	-0.455139	-0.101616
H98	H	0.857702	-0.381055	-0.247673
H99	H	0.941169	-0.447916	-0.384469
H100	H	0.270912	-0.369703	-0.605187
H101	H	0.404469	-0.364325	-0.596367
C102	C	1.110270	-1.036075	-0.661417
C103	C	1.163621	-1.084444	-0.602560
C104	C	1.211578	-1.122863	-0.681178
C105	C	1.206185	-1.112912	-0.818654
C106	C	1.152832	-1.064541	-0.877519
C107	C	1.104875	-1.026122	-0.798901
H108	H	1.167615	-1.091812	-0.500785
H109	H	1.251073	-1.158671	-0.637602
H110	H	1.241685	-1.141352	-0.876852
H111	H	1.148838	-1.057173	-0.979294
H112	H	1.065380	-0.990314	-0.842478
C113	C	0.588893	-0.410003	-0.670860
C114	C	0.536022	-0.467360	-0.618375
C115	C	0.493556	-0.518654	-0.702046
C116	C	0.503961	-0.512591	-0.838204
C117	C	0.556835	-0.455232	-0.890696
C118	C	0.599301	-0.403938	-0.807025
H119	H	0.528317	-0.471850	-0.517577
H120	H	0.454415	-0.561115	-0.663187
H121	H	0.472525	-0.550562	-0.900143
H122	H	0.564540	-0.450742	-0.991495
H123	H	0.638442	-0.361477	-0.845884
H124	H	0.733496	-0.391288	-0.640329
H125	H	1.076046	-0.563565	-0.605495
C126	C	0.267430	-0.193443	-0.317612
C127	C	0.309899	-0.142154	-0.233944
C128	C	0.271386	-0.094130	-0.155609
C129	C	0.190405	-0.097395	-0.160942
C130	C	0.147932	-0.148685	-0.244613
C131	C	0.186444	-0.196709	-0.322948
H132	H	0.369850	-0.139736	-0.229993
H133	H	0.302828	-0.056162	-0.093670
H134	H	0.161896	-0.061845	-0.102953
H135	H	0.087980	-0.151103	-0.248563
H136	H	0.155002	-0.234678	-0.384887
C137	C	0.921003	-1.044008	-0.351122
C138	C	0.927197	-1.033710	-0.214974
C139	C	0.876025	-1.076288	-0.131045
C140	C	0.818659	-1.129165	-0.183264
C141	C	0.812464	-1.139466	-0.319419
C142	C	0.863635	-1.096887	-0.403348
H143	H	0.969664	-0.994565	-0.176312
H144	H	0.880612	-1.068663	-0.030254
H145	H	0.780779	-1.160684	-0.121135
H146	H	0.769996	-1.178610	-0.358082
H147	H	0.859049	-1.104513	-0.504139
H148	H	0.606465	-0.232893	-0.381893
H149	H	0.907208	-0.703984	-0.328679
