data_functionalizedCrystal
_audit_creation_method	'MofGen! by Chris Wilmer'
_symmetry_space_group_name_H-M	'P1'
_symmetry_Int_Tables_number	1
_symmetry_cell_setting	triclinic
loop_
_symmetry_equiv_pos_as_xyz
  x,y,z
_cell_length_a	13.339070
_cell_length_b	10.868271
_cell_length_c	11.792241
_cell_angle_alpha	90.005281
_cell_angle_beta	80.088642
_cell_angle_gamma	89.994460
loop_
_atom_site_label
_atom_site_type_symbol
_atom_site_fract_x
_atom_site_fract_y
_atom_site_fract_z
O1	O	-1.345408	0.102401	0.569978
O2	O	-0.845408	0.602401	1.069978
O3	O	-1.050471	0.102387	0.495165
O4	O	-0.550471	0.602387	0.995165
O5	O	-1.205097	0.102386	0.369605
O6	O	-0.705097	0.602386	0.869605
O7	O	-1.190782	0.102402	0.695537
O8	O	-0.690782	0.602402	1.195537
O9	O	-1.205084	-0.102259	0.369595
O10	O	-0.705084	0.397741	0.869595
O11	O	-1.050458	-0.102258	0.495154
O12	O	-0.550458	0.397742	0.995154
O13	O	-1.345396	-0.102243	0.569967
O14	O	-0.845396	0.397757	1.069967
Zn15	Zn	-1.197925	-0.134742	0.532559
Zn16	Zn	-0.697925	0.365258	1.032559
Zn17	Zn	-1.197942	0.134886	0.532573
Zn18	Zn	-0.697942	0.634886	1.032573
O19	O	-1.190770	-0.102242	0.695527
O20	O	-0.690770	0.397758	1.195527
C21	C	-1.012706	0.000062	0.482522
C22	C	-0.512706	0.500062	0.982522
C23	C	-0.900198	0.000057	0.444853
C24	C	-0.400198	0.500057	0.944853
N25	N	-1.197921	-0.318757	0.532551
N26	N	-0.697921	0.181243	1.032551
C27	C	-0.537011	0.000082	0.737747
C28	C	-0.037011	0.500082	1.237747
C29	C	-0.642718	0.000092	0.773143
C30	C	-0.142718	0.500092	1.273143
C31	C	-0.707093	0.000083	0.691073
C32	C	-0.207093	0.500083	1.191073
C33	C	-0.665751	0.000065	0.573602
C34	C	-0.165751	0.500065	1.073602
C35	C	-0.560034	0.000065	0.538203
C36	C	-0.060034	0.500065	1.038203
C37	C	-0.730116	0.000065	0.491529
C38	C	-0.230116	0.500065	0.991529
C39	C	-0.688774	0.000047	0.374059
C40	C	-0.188774	0.500047	0.874059
C41	C	-0.583067	0.000047	0.338666
C42	C	-0.083067	0.500047	0.838666
C43	C	-0.518692	0.000056	0.420735
C44	C	-0.018692	0.500056	0.920735
C45	C	-0.835833	0.000065	0.526928
C46	C	-0.335833	0.500065	1.026928
C47	C	-0.858855	0.000048	0.327385
C48	C	-0.358855	0.500048	0.827385
C49	C	-0.753149	0.000038	0.291989
C50	C	-0.253149	0.500038	0.791989
C51	C	-1.197937	-0.569763	0.532569
C52	C	-0.697937	-0.069763	1.032569
C53	C	-1.197925	-0.430085	0.532561
C54	C	-0.697925	0.069915	1.032561
C55	C	-0.383161	0.000078	0.582610
C56	C	0.116839	0.500078	1.082610
C57	C	-0.495669	0.000073	0.620279
C58	C	0.004331	0.500073	1.120279
C59	C	-1.204192	0.000064	0.327032
C60	C	-0.704192	0.500064	0.827032
C61	C	-1.201500	0.000065	0.200189
C62	C	-0.701500	0.500065	0.700189
N63	N	-1.197954	0.318900	0.532575
N64	N	-0.697954	0.818900	1.032575
C65	C	-1.196551	0.000085	-0.032047
C66	C	-0.696551	0.500085	0.467953
C67	C	-1.199301	0.000074	0.097185
C68	C	-0.699301	0.500074	0.597185
C69	C	-1.191675	0.000082	0.738100
C70	C	-0.691675	0.500082	1.238100
C71	C	-1.194367	0.000089	0.864942
C72	C	-0.694367	0.500089	1.364942
H73	H	-0.869483	0.000074	0.622574
H74	H	-0.369483	0.500074	1.122574
H75	H	-0.676371	0.000116	0.868787
H76	H	-0.176371	0.500116	1.368787
H77	H	-0.793164	0.000093	0.719899
H78	H	-0.293164	0.500093	1.219899
O79	O	-0.928277	0.000022	0.238856
O80	O	-0.428277	0.500022	0.738856
H81	H	-0.977009	0.083423	0.250217
H82	H	-0.477009	0.583423	0.750217
O83	O	-0.467584	0.000082	0.826258
O84	O	0.032416	0.500082	1.326258
H85	H	-0.387133	0.000070	0.781905
H86	H	0.112867	0.500070	1.281905
O87	O	-0.538478	0.000023	0.211965
O88	O	-0.038478	0.500023	0.711965
H89	H	-0.564304	0.083420	0.170913
H90	H	-0.064304	0.583420	0.670913
H91	H	-0.432615	0.000048	0.391922
H92	H	0.067385	0.500048	0.891922
O93	O	-0.708556	0.000026	0.165290
O94	O	-0.208556	0.500026	0.665290
H95	H	-0.624235	0.000034	0.154471
H96	H	-0.124235	0.500034	0.654471
