data_functionalizedCrystal
_audit_creation_method	'MofGen! by Chris Wilmer'
_symmetry_space_group_name_H-M	'P1'
_symmetry_Int_Tables_number	1
_symmetry_cell_setting	triclinic
loop_
_symmetry_equiv_pos_as_xyz
  x,y,z
_cell_length_a	16.625548
_cell_length_b	16.625546
_cell_length_c	16.625539
_cell_angle_alpha	89.971468
_cell_angle_beta	89.982945
_cell_angle_gamma	90.023536
loop_
_atom_site_label
_atom_site_type_symbol
_atom_site_fract_x
_atom_site_fract_y
_atom_site_fract_z
Zn1	Zn	-1.232652	0.320992	0.455898
Zn2	Zn	-1.232564	0.455831	0.321060
Zn3	Zn	-1.097823	0.321018	0.321078
Zn4	Zn	-1.097785	0.455789	0.455850
O5	O	-1.165206	0.388408	0.388471
O6	O	-1.345473	0.338885	0.438024
O7	O	-1.214669	0.437976	0.208230
O8	O	-1.115761	0.208182	0.338990
O9	O	-1.345408	0.437951	0.338959
O10	O	-1.214820	0.208163	0.438041
O11	O	-1.115675	0.338930	0.208243
O12	O	-0.984985	0.338889	0.338944
O13	O	-1.115696	0.437879	0.568689
O14	O	-0.984957	0.437905	0.437960
O15	O	-1.214783	0.338845	0.568724
O16	O	-1.214632	0.568658	0.338912
O17	O	-1.115611	0.568627	0.437942
C18	C	-0.955715	0.388396	0.388449
C19	C	-0.866094	0.388410	0.388458
C20	C	-1.165130	0.597898	0.388438
C21	C	-1.165171	0.687519	0.388450
C22	C	-1.165245	0.388354	0.598780
C23	C	-1.165262	0.388332	0.688402
C24	C	-1.375515	0.388420	0.388494
C25	C	-1.465136	0.388425	0.388504
C26	C	-0.537918	0.388416	0.388493
C27	C	-0.629227	0.388412	0.388481
C28	C	-0.702003	0.388414	0.388475
C29	C	-0.793318	0.388409	0.388464
C30	C	-1.165305	0.178099	0.388523
C31	C	-1.165347	0.088477	0.388545
C32	C	-1.165311	1.015695	0.388534
C33	C	-1.165270	0.924387	0.388513
C34	C	-1.165240	0.851610	0.388492
C35	C	-1.165200	0.760296	0.388471
C36	C	-1.165213	0.388402	0.178981
C37	C	-1.165352	0.388198	0.089360
C38	C	-1.165275	0.388314	0.761184
C39	C	-1.165294	0.388284	0.852493
C40	C	-1.165313	0.388255	0.925269
C41	C	-1.165333	0.388226	1.016583
