data_functionalizedCrystal
_audit_creation_method	'MofGen! by Chris Wilmer'
_symmetry_space_group_name_H-M	'P1'
_symmetry_Int_Tables_number	1
_symmetry_cell_setting	triclinic
loop_
_symmetry_equiv_pos_as_xyz
  x,y,z
_cell_length_a	6.817900
_cell_length_b	11.102233
_cell_length_c	12.200875
_cell_angle_alpha	92.494437
_cell_angle_beta	107.143593
_cell_angle_gamma	108.604738
loop_
_atom_site_label
_atom_site_type_symbol
_atom_site_fract_x
_atom_site_fract_y
_atom_site_fract_z
V1	V	-4.094467	-0.176128	-0.357665
O2	O	-4.053827	0.008167	-0.350852
O3	O	-4.071358	-0.348947	-0.355223
O4	O	-4.063807	-0.173549	-0.513653
O5	O	-4.061430	-0.168445	-0.191325
V6	V	-4.572519	-0.154069	-0.337769
O7	O	-4.367726	-0.224517	-0.401309
O8	O	-4.749457	-0.105680	-0.294125
O9	O	-4.372421	0.018750	-0.340211
O10	O	-4.730556	-0.338364	-0.344582
O11	O	-4.722953	-0.161752	-0.504109
O12	O	-4.379972	-0.156648	-0.181781
C13	C	-3.921938	-0.391073	-0.349582
C14	C	-3.984448	-0.532355	-0.348625
C15	C	-3.912304	-0.167334	-0.551674
C16	C	-3.968687	-0.166369	-0.679195
C17	C	-3.888806	-0.725004	-0.341538
C18	C	-3.830074	-0.592256	-0.342448
C19	C	-4.197575	-0.605211	-0.353904
C20	C	-4.256308	-0.737959	-0.353003
C21	C	-3.676629	-0.717523	-0.334919
C22	C	-3.617897	-0.584775	-0.335828
C23	C	-4.071877	-0.164604	-0.912669
C24	C	-4.014446	-0.165585	-0.782747
C25	C	-4.185184	0.060868	-0.345849
C26	C	-4.101913	0.202150	-0.346814
C27	C	-4.194817	-0.162868	-0.143754
C28	C	-4.117671	-0.163826	-0.016232
H29	H	-4.323271	-0.556431	-0.358944
O30	O	-3.451457	-0.521701	-0.236766
C31	C	-3.519869	-0.552647	-0.139977
H32	H	-3.706093	-0.585965	-0.167661
H33	H	-3.462409	-0.632908	-0.103539
C34	C	-3.191940	-0.392102	-0.012075
C35	C	-3.420662	-0.433013	-0.046074
H36	H	-3.130738	-0.318310	0.045852
H37	H	-3.145843	-0.371256	-0.077282
H38	H	-3.144086	-0.458998	0.018283
H39	H	-3.468513	-0.366125	-0.076444
H40	H	-3.466764	-0.453846	0.019130
O41	O	-4.463173	-0.808820	-0.357962
C42	C	-4.455736	-0.868629	-0.257953
H43	H	-4.287536	-0.877128	-0.219575
H44	H	-4.487052	-0.808517	-0.191235
C45	C	-4.839106	-0.993246	-0.337810
C46	C	-4.632525	-1.003694	-0.290680
H47	H	-4.948163	-1.076557	-0.357995
H48	H	-4.844120	-0.952948	-0.405187
H49	H	-4.865172	-0.943147	-0.282205
H50	H	-4.606451	-1.053778	-0.346290
H51	H	-4.627511	-1.044003	-0.223313
O52	O	-3.649331	-0.773760	-0.427941
C53	C	-3.782813	-0.749924	-0.531023
H54	H	-3.924287	-0.728159	-0.513558
H55	H	-3.681759	-0.664071	-0.562512
C56	C	-3.700259	-0.895990	-0.646132
C57	C	-3.874030	-0.869269	-0.624683
H58	H	-3.756519	-0.969605	-0.703908
H59	H	-3.610323	-0.912046	-0.576684
H60	H	-3.616062	-0.824437	-0.672367
H61	H	-3.958206	-0.940815	-0.598435
H62	H	-3.963983	-0.853228	-0.694129
O63	O	-3.570122	-0.550090	-0.433069
C64	C	-3.713745	-0.489687	-0.493443
H65	H	-3.869210	-0.521124	-0.468611
H66	H	-3.630815	-0.380895	-0.469701
C67	C	-3.581704	-0.489590	-0.655506
C68	C	-3.772657	-0.528210	-0.625014
H69	H	-3.618038	-0.513347	-0.736665
H70	H	-3.484936	-0.530280	-0.614830
H71	H	-3.512614	-0.398931	-0.635712
H72	H	-3.841728	-0.618868	-0.644794
H73	H	-3.869439	-0.487536	-0.665696
H74	H	-3.585325	-0.741932	-0.249376
