data_functionalizedCrystal
_audit_creation_method	'MofGen! by Chris Wilmer'
_symmetry_space_group_name_H-M	'P1'
_symmetry_Int_Tables_number	1
_symmetry_cell_setting	triclinic
loop_
_symmetry_equiv_pos_as_xyz
  x,y,z
_cell_length_a	14.519709
_cell_length_b	15.538191
_cell_length_c	14.750779
_cell_angle_alpha	97.569385
_cell_angle_beta	102.671093
_cell_angle_gamma	114.523881
loop_
_atom_site_label
_atom_site_type_symbol
_atom_site_fract_x
_atom_site_fract_y
_atom_site_fract_z
O1	O	1.155554	-0.143774	-0.079697
O2	O	0.882179	-0.158315	-0.079726
O3	O	1.072080	-0.014004	-0.079710
O4	O	0.965653	-0.288084	-0.079712
O5	O	1.125761	0.026786	0.079945
O6	O	0.935860	-0.117524	0.079929
O7	O	1.209235	-0.102983	0.079958
Zn8	Zn	1.081071	-0.103777	0.105292
Zn9	Zn	1.010343	-0.157520	-0.105060
O10	O	1.019334	-0.247294	0.079942
C11	C	0.874886	-0.137243	0.000098
C12	C	0.773184	-0.135216	0.000087
C13	C	0.400816	-0.127733	0.000131
C14	C	0.504422	-0.129811	0.000118
C15	C	0.586997	-0.131474	0.000108
C16	C	0.690609	-0.133553	0.000097
C17	C	1.110054	0.041467	0.000115
C18	C	1.143220	0.145984	0.000109
C19	C	1.216527	-0.124055	0.000132
C20	C	1.318227	-0.126084	0.000137
C21	C	0.981359	-0.302766	0.000115
C22	C	0.948191	-0.407284	0.000115
N23	N	1.129347	-0.067098	0.248852
C24	C	0.813707	0.434326	0.000095
C25	C	0.844897	0.532540	0.000100
C26	C	1.020334	0.554692	0.000118
C27	C	0.989156	0.456476	0.000108
C28	C	0.885842	0.396301	0.000098
C29	C	1.061292	0.418451	0.000111
C30	C	1.030118	0.320245	0.000106
C31	C	0.926809	0.260064	0.000098
C32	C	0.854668	0.298095	0.000093
C33	C	1.164608	0.478631	0.000129
C34	C	1.236743	0.440606	0.000131
C35	C	1.205568	0.342396	0.000119
C36	C	1.102258	0.282215	0.000112
C37	C	1.277708	0.304366	0.000125
C38	C	1.246534	0.206159	0.000120
C39	C	1.071085	0.184009	0.000106
N40	N	0.962077	-0.194192	-0.248619
C41	C	0.827262	-0.296589	0.600645
C42	C	0.861095	-0.270893	0.701147
C43	C	1.029263	-0.143153	0.701124
C44	C	0.995441	-0.168835	0.600620
C45	C	0.894440	-0.245555	0.550388
C46	C	1.062619	-0.117801	0.550363
C47	C	1.028802	-0.143485	0.449868
C48	C	0.927807	-0.220203	0.399629
C49	C	0.860623	-0.271238	0.449893
C50	C	1.163623	-0.041086	0.600596
C51	C	1.230801	0.009948	0.550339
C52	C	1.196981	-0.015731	0.449842
C53	C	1.095986	-0.092449	0.399604
C54	C	1.264165	0.035304	0.399578
C55	C	1.230348	0.009621	0.299083
C56	C	1.062169	-0.118133	0.299109
H57	H	0.986953	0.135008	0.000091
C58	C	1.325885	0.164328	0.000118
N59	N	1.385655	0.132821	0.000117
H60	H	0.901431	0.180100	0.000100
H61	H	1.104454	0.603701	0.000131
H62	H	0.979919	-0.180599	0.258208
C63	C	1.198897	0.586660	0.000132
N64	N	1.224721	0.668027	0.000131
C65	C	1.375265	0.119690	0.454846
N66	N	1.458947	0.183252	0.496474
C67	C	1.200820	-0.012835	0.711144
N68	N	1.228834	0.008444	0.794410
H69	H	1.111500	-0.080690	0.742033
C70	C	0.765532	0.574361	0.000092
N71	N	0.705755	0.605861	0.000085
C72	C	0.741016	0.231895	0.000080
N73	N	0.655418	0.182035	0.000074
H74	H	0.806382	-0.312459	0.742061
H75	H	0.729575	0.385325	0.000079
C76	C	1.350386	0.506809	0.000142
N77	N	1.435983	0.556672	0.000146
H78	H	1.313039	0.072411	0.591249
C79	C	1.391354	0.370573	0.000145
N80	N	1.476953	0.420441	0.000160
C81	C	0.749492	-0.355596	0.394633
N82	N	0.665784	-0.419120	0.353011
H83	H	1.285053	0.051178	0.258163
H84	H	0.900276	-0.241116	0.317800
C85	C	0.716130	-0.380946	0.545385
N86	N	0.632423	-0.444471	0.503763
