data_functionalizedCrystal
_audit_creation_method	'MofGen! by Chris Wilmer'
_symmetry_space_group_name_H-M	'P1'
_symmetry_Int_Tables_number	1
_symmetry_cell_setting	triclinic
loop_
_symmetry_equiv_pos_as_xyz
  x,y,z
_cell_length_a	10.654534
_cell_length_b	9.130313
_cell_length_c	10.654551
_cell_angle_alpha	90.000991
_cell_angle_beta	84.481833
_cell_angle_gamma	89.998954
loop_
_atom_site_label
_atom_site_type_symbol
_atom_site_fract_x
_atom_site_fract_y
_atom_site_fract_z
O1	O	-1.667846	0.121819	-0.176298
O2	O	-1.302365	0.121815	-0.193125
O3	O	-1.493508	0.121816	-0.001972
O4	O	-1.476703	0.121818	-0.367451
O5	O	-1.493506	-0.121783	-0.001977
O6	O	-1.302363	-0.121784	-0.193130
O7	O	-1.667844	-0.121780	-0.176303
Cu8	Cu	-1.485103	-0.144024	-0.184717
Cu9	Cu	-1.485106	0.144060	-0.184711
O10	O	-1.476701	-0.121781	-0.367456
C11	C	-1.255566	0.000015	-0.191896
C12	C	-1.116122	0.000014	-0.188212
C13	C	-1.050615	-0.132774	-0.186481
C14	C	-0.919595	-0.132778	-0.182999
C15	C	-0.919598	0.132807	-0.182985
C16	C	-1.050617	0.132809	-0.186458
N17	N	-1.485110	-0.346647	-0.184721
C18	C	-1.569770	-0.423299	-0.100107
C19	C	-1.569767	-0.576635	-0.100092
C20	C	-1.400439	-0.576655	-0.269315
C21	C	-1.400438	-0.423321	-0.269323
C22	C	-1.667534	-0.423288	-0.002411
C23	C	-1.667531	-0.576625	-0.002396
C24	C	-0.714642	0.000017	-0.177542
C25	C	-0.854083	0.000009	-0.181257
C26	C	-1.492273	0.000019	0.044824
C27	C	-1.488581	0.000027	0.184267
N28	N	-1.485109	0.346682	-0.184697
C29	C	-1.486849	0.132815	0.249773
C30	C	-1.483369	0.132818	0.380793
C31	C	-1.483358	-0.132767	0.380789
C32	C	-1.486829	-0.132768	0.249771
C33	C	-1.477936	0.000022	0.585749
C34	C	-1.481630	0.000031	0.446306
H35	H	-1.103945	-0.240905	-0.187909
H36	H	-1.764043	-0.618241	-0.023909
H37	H	-1.488272	0.240946	0.196443
H38	H	-1.331490	-0.360913	-0.338211
H39	H	-0.866266	-0.240907	-0.181589
H40	H	-1.103954	0.240948	-0.187864
Cl41	Cl	-1.293999	-0.673055	-0.375667
H42	H	-1.758719	-0.375729	-0.032994
Cl43	Cl	-1.481156	-0.299700	0.463146
Cl44	Cl	-1.488991	-0.299715	0.167411
Cl45	Cl	-1.634427	-0.359020	0.146620
Cl46	Cl	-0.837245	0.299740	-0.180748
H47	H	-1.637017	-0.624173	0.088825
Cl48	Cl	-1.481189	0.299759	0.463139
