data_functionalizedCrystal
_audit_creation_method	'MofGen! by Chris Wilmer'
_symmetry_space_group_name_H-M	'P1'
_symmetry_Int_Tables_number	1
_symmetry_cell_setting	triclinic
loop_
_symmetry_equiv_pos_as_xyz
  x,y,z
_cell_length_a	6.817900
_cell_length_b	11.353959
_cell_length_c	10.773894
_cell_angle_alpha	107.082425
_cell_angle_beta	96.645922
_cell_angle_gamma	107.526623
loop_
_atom_site_label
_atom_site_type_symbol
_atom_site_fract_x
_atom_site_fract_y
_atom_site_fract_z
V1	V	-3.980486	-0.175628	-0.427091
O2	O	-3.935538	0.013371	-0.378636
O3	O	-3.964386	-0.352984	-0.462954
O4	O	-3.897273	-0.170763	-0.595667
O5	O	-4.003116	-0.170112	-0.245004
V6	V	-4.464439	-0.153278	-0.400601
O7	O	-4.240800	-0.224657	-0.485200
O8	O	-4.654322	-0.104249	-0.342492
O9	O	-4.257332	0.024078	-0.364739
O10	O	-4.626784	-0.342277	-0.449056
O11	O	-4.559206	-0.158794	-0.582688
O12	O	-4.324446	-0.158143	-0.232026
C13	C	-3.818372	-0.396287	-0.466224
C14	C	-3.886263	-0.541264	-0.496669
C15	C	-3.897067	-0.589539	-0.398124
C16	C	-3.967236	-0.739380	-0.429589
C17	C	-3.732760	-0.163845	-0.635510
C18	C	-3.746222	-0.161040	-0.773576
C19	C	-3.925181	-0.165901	-0.842494
C20	C	-3.939098	-0.163002	-0.985193
C21	C	-4.066691	0.067374	-0.361467
C22	C	-3.978036	0.212350	-0.331030
C23	C	-4.152302	-0.165066	-0.192177
C24	C	-4.118079	-0.167863	-0.054108
H25	H	-4.009940	-0.808977	-0.537258
H26	H	-3.603307	-0.154725	-0.820214
Br27	Br	-3.957450	-0.657257	-0.676121
H28	H	-4.261007	-0.174175	-1.007476
H29	H	-3.854380	-0.519939	-0.290463
Br30	Br	-4.163394	-0.176415	-0.764771
H31	H	-3.935346	-0.718056	-0.223361
H32	H	-3.796170	-0.156687	-1.031825
