data_functionalizedCrystal
_audit_creation_method	'MofGen! by Chris Wilmer'
_symmetry_space_group_name_H-M	'P1'
_symmetry_Int_Tables_number	1
_symmetry_cell_setting	triclinic
loop_
_symmetry_equiv_pos_as_xyz
  x,y,z
_cell_length_a	15.995355
_cell_length_b	10.066323
_cell_length_c	15.995343
_cell_angle_alpha	98.799771
_cell_angle_beta	96.508305
_cell_angle_gamma	98.744057
loop_
_atom_site_label
_atom_site_type_symbol
_atom_site_fract_x
_atom_site_fract_y
_atom_site_fract_z
O1	O	-1.098740	0.113373	0.120236
O2	O	-0.854961	0.113407	0.133563
O3	O	-0.983521	0.113364	0.005009
O4	O	-0.970181	0.113416	0.248790
O5	O	-1.008015	-0.113618	-0.019603
O6	O	-0.879456	-0.113575	0.108952
O7	O	-1.123235	-0.113609	0.095624
Zn8	Zn	-1.005234	-0.149630	0.098380
Zn9	Zn	-0.972962	0.149428	0.130807
O10	O	-0.994675	-0.113566	0.224179
C11	C	-0.836014	-0.000080	0.120706
C12	C	-0.743062	-0.000069	0.119054
C13	C	-0.572879	-0.000088	0.116051
C14	C	-0.549538	-0.000108	0.023250
C15	C	-0.452917	-0.000632	0.021443
C16	C	-0.405322	-0.000106	0.113093
C17	C	-0.448371	-0.129456	0.145729
C18	C	-0.545173	-0.129556	0.146823
C19	C	-0.517228	0.128574	0.176171
C20	C	-0.420551	0.130265	0.172924
C21	C	-0.310626	-0.000121	0.111426
C22	C	-0.667576	-0.000083	0.117720
C23	C	-0.142184	-0.000120	0.108470
C24	C	-0.235139	-0.000126	0.110090
N25	N	-1.027265	-0.353730	0.076249
C26	C	-0.980616	-0.421522	0.123108
C27	C	-0.997594	-0.578684	0.106066
C28	C	-0.995218	-0.000131	-0.038492
C29	C	-0.993570	-0.000141	-0.131444
N30	N	-0.950937	0.353528	0.152931
C31	C	-0.990573	-0.000110	-0.301627
C32	C	-0.897775	-0.000094	-0.324973
C33	C	-0.895971	0.000436	-0.421593
C34	C	-0.987622	-0.000080	-0.469184
C35	C	-1.020323	0.129270	-0.426059
C36	C	-1.021413	0.129363	-0.329256
C37	C	-1.050627	-0.128767	-0.357349
C38	C	-1.047383	-0.130451	-0.454027
C39	C	-0.985958	-0.000059	-0.563880
C40	C	-0.992239	-0.000122	-0.206931
C41	C	-0.982977	-0.000068	0.267680
C42	C	-0.984625	-0.000049	0.360633
H43	H	-0.588520	-0.092743	-0.022176
H44	H	-1.079776	-0.412041	0.023519
H45	H	-1.023732	-0.226147	-0.482969
H46	H	-0.423895	0.092072	-0.005031
C47	C	-0.414466	-0.018768	0.292360
C48	C	-0.406023	-0.135455	0.236078
H49	H	-0.388316	-0.022469	0.348136
H50	H	-0.473325	-0.014891	0.293261
H51	H	-0.387470	0.060192	0.273859
H52	H	-0.433025	-0.214415	0.254576
H53	H	-0.347153	-0.139346	0.235180
C54	C	-0.538311	-0.338267	0.054493
C55	C	-0.595482	-0.260591	0.089497
H56	H	-0.569369	-0.419158	0.019096
H57	H	-0.502086	-0.361674	0.099218
H58	H	-0.504715	-0.286652	0.021413
H59	H	-0.629074	-0.312203	0.122582
H60	H	-0.631722	-0.237186	0.044765
H61	H	-0.852396	0.092537	-0.285940
H62	H	-0.567538	0.092635	-0.002661
H63	H	-0.444548	-0.093913	-0.025026
H64	H	-1.088870	0.134867	-0.314084
C65	C	-1.012984	0.336445	-0.229317
C66	C	-0.964162	0.260404	-0.278879
H67	H	-0.977638	0.417350	-0.198225
H68	H	-1.036694	0.283737	-0.190570
H69	H	-1.057724	0.359837	-0.265548
H70	H	-0.919425	0.237003	-0.242647
H71	H	-0.940439	0.313123	-0.317630
H72	H	-0.928111	-0.363212	0.175844
H73	H	-1.087254	0.133710	-0.457422
C74	C	-0.293625	0.262924	0.141693
C75	C	-0.381542	0.259449	0.141067
H76	H	-0.269537	0.342676	0.122028
H77	H	-0.284225	0.184405	0.105250
H78	H	-0.267487	0.264070	0.198231
H79	H	-0.407681	0.258292	0.084528
H80	H	-0.390949	0.337988	0.177511
H81	H	-0.869442	-0.092260	-0.450668
H82	H	-0.898429	-0.588166	0.205671
C83	C	-0.992957	0.374301	-0.400206
C84	C	-0.963024	0.259741	-0.439015
H85	H	-0.957582	0.454844	-0.408208
H86	H	-0.991666	0.372951	-0.340832
H87	H	-1.049922	0.372809	-0.425272
H88	H	-0.906061	0.261227	-0.413944
H89	H	-0.964307	0.261092	-0.498401
C90	C	-1.051138	-0.622964	-0.043728
C91	C	-1.068481	-0.657383	0.034870
H92	H	-1.094903	-0.671547	-0.087679
H93	H	-0.997734	-0.646332	-0.055207
H94	H	-1.049030	-0.527671	-0.041605
H95	H	-1.070582	-0.752676	0.032749
H96	H	-1.121899	-0.634025	0.046351
H97	H	-0.386705	0.138491	0.240647
H98	H	-0.871814	-0.092841	-0.307027
H99	H	-0.849555	0.093720	-0.429911
C100	C	-0.955510	-0.228871	-0.268489
C101	C	-1.025387	-0.261175	-0.333564
H102	H	-0.939919	-0.310610	-0.253809
H103	H	-0.970540	-0.176091	-0.219762
H104	H	-0.908678	-0.178020	-0.287771
H105	H	-1.072222	-0.312017	-0.314280
H106	H	-1.010361	-0.313977	-0.382301
H107	H	-1.115106	-0.138660	-0.487865
H108	H	-1.119066	-0.130033	-0.343465
C109	C	-0.627366	0.263454	0.157839
C110	C	-0.541095	0.260977	0.151003
H111	H	-0.642101	0.345186	0.142289
H112	H	-0.636834	0.259813	0.215065
H113	H	-0.661673	0.187051	0.120785
H114	H	-0.506787	0.337376	0.188061
H115	H	-0.531619	0.264631	0.093767
C116	C	-0.625413	-0.254730	0.236391
C117	C	-0.565661	-0.136985	0.237879
H118	H	-0.638063	-0.259313	0.292603
H119	H	-0.602489	-0.332948	0.215374
H120	H	-0.676216	-0.251767	0.200198
H121	H	-0.514855	-0.139952	0.274068
H122	H	-0.588583	-0.058746	0.258908
H123	H	-0.438709	-0.226098	0.103235
H124	H	-0.531103	0.129836	0.244613
