data_functionalizedCrystal
_audit_creation_method	'MofGen! by Chris Wilmer'
_symmetry_space_group_name_H-M	'P1'
_symmetry_Int_Tables_number	1
_symmetry_cell_setting	triclinic
loop_
_symmetry_equiv_pos_as_xyz
  x,y,z
_cell_length_a	12.811442
_cell_length_b	10.967819
_cell_length_c	9.482900
_cell_angle_alpha	68.706355
_cell_angle_beta	94.040336
_cell_angle_gamma	83.239310
loop_
_atom_site_label
_atom_site_type_symbol
_atom_site_fract_x
_atom_site_fract_y
_atom_site_fract_z
O1	O	0.070689	1.747471	-0.568010
O2	O	0.097063	1.369638	-0.476830
O3	O	-0.066389	1.564761	-0.504160
O4	O	0.234141	1.552347	-0.540680
O5	O	-0.033059	1.525131	-0.256834
O6	O	0.130393	1.330007	-0.229504
O7	O	0.104018	1.707841	-0.320684
Cu8	Cu	0.120249	1.515305	-0.252511
Cu9	Cu	0.080833	1.562173	-0.545003
O10	O	0.267470	1.512717	-0.293354
C11	C	0.114326	1.301396	-0.341114
C12	C	0.116097	1.157102	-0.305198
C13	C	-0.088089	1.543034	-0.374962
C14	C	-0.202406	1.537320	-0.358465
C15	C	-0.345365	1.507670	-0.200400
C16	C	-0.237954	1.513033	-0.215896
C17	C	-0.274277	1.556241	-0.485546
C18	C	-0.381689	1.550877	-0.470050
C19	C	-0.417228	1.526593	-0.327473
C20	C	-0.524643	1.521240	-0.311981
C21	C	-0.560963	1.564438	-0.581628
C22	C	-0.453552	1.569801	-0.597123
C23	C	0.101457	0.964175	-0.380216
C24	C	0.099621	1.113311	-0.417327
C25	C	0.289170	1.534445	-0.422555
C26	C	0.403485	1.540160	-0.439062
C27	C	0.086755	1.776082	-0.456404
C28	C	0.084983	1.920378	-0.492330
N29	N	0.147971	1.482350	-0.046791
N30	N	0.053102	1.595138	-0.750725
C31	C	0.089004	1.552444	0.015624
C32	C	0.112078	1.525034	0.186866
H33	H	-0.553577	1.501469	-0.195888
Br34	Br	-0.140425	1.487340	-0.043430
H35	H	0.084163	1.186219	-0.540795
H36	H	0.131567	1.084193	-0.181730
H37	H	0.021435	1.632740	-0.057710
H38	H	-0.619487	1.579850	-0.685101
H39	H	-0.424599	1.589568	-0.713205
H40	H	0.069526	0.993291	-0.615789
H41	H	0.179644	1.444723	0.260201
Br42	Br	0.127245	0.842659	-0.174435
Br43	Br	-0.059288	1.729301	0.126953
Br44	Br	0.260581	1.348495	0.075436
H45	H	-0.245320	1.576008	-0.601625
Br46	Br	-0.393608	1.474743	-0.006916
