data_functionalizedCrystal
_audit_creation_method	'MofGen! by Chris Wilmer'
_symmetry_space_group_name_H-M	'P1'
_symmetry_Int_Tables_number	1
_symmetry_cell_setting	triclinic
loop_
_symmetry_equiv_pos_as_xyz
  x,y,z
_cell_length_a	17.038272
_cell_length_b	14.044191
_cell_length_c	13.101039
_cell_angle_alpha	86.337551
_cell_angle_beta	86.388703
_cell_angle_gamma	87.848334
loop_
_atom_site_label
_atom_site_type_symbol
_atom_site_fract_x
_atom_site_fract_y
_atom_site_fract_z
O1	O	-0.185617	1.277886	-0.085138
O2	O	0.064383	1.527886	0.164862
O3	O	0.314383	1.777886	0.414862
O4	O	0.564383	2.027886	0.664862
O5	O	-0.178770	1.001365	-0.085152
O6	O	0.071230	1.251365	0.164848
O7	O	0.321230	1.501365	0.414848
O8	O	0.571230	1.751365	0.664848
O9	O	-0.068263	1.137983	-0.085154
O10	O	0.181737	1.387983	0.164846
O11	O	0.431737	1.637983	0.414846
O12	O	0.681737	1.887983	0.664846
O13	O	-0.296125	1.141269	-0.085136
O14	O	-0.046125	1.391269	0.164864
O15	O	0.203875	1.641269	0.414864
O16	O	0.453875	1.891269	0.664864
O17	O	-0.076206	1.128182	0.085276
O18	O	0.173794	1.378182	0.335276
O19	O	0.423794	1.628182	0.585276
O20	O	0.673794	1.878182	0.835276
O21	O	-0.186714	0.991564	0.085278
O22	O	0.063286	1.241564	0.335278
O23	O	0.313286	1.491564	0.585278
O24	O	0.563286	1.741564	0.835278
O25	O	-0.193560	1.268085	0.085292
O26	O	0.056440	1.518085	0.335292
O27	O	0.306440	1.768085	0.585292
O28	O	0.556440	2.018085	0.835292
Zn29	Zn	-0.191398	1.128269	0.112344
Zn30	Zn	0.058602	1.378269	0.362344
Zn31	Zn	0.308602	1.628269	0.612344
Zn32	Zn	0.558602	1.878269	0.862344
Zn33	Zn	-0.180933	1.141182	-0.112205
Zn34	Zn	0.069067	1.391182	0.137795
Zn35	Zn	0.319067	1.641182	0.387795
Zn36	Zn	0.569067	1.891182	0.637795
O37	O	-0.304068	1.131468	0.085294
O38	O	-0.054068	1.381468	0.335294
O39	O	0.195932	1.631468	0.585294
O40	O	0.445932	1.881468	0.835294
C41	C	-0.179747	0.960909	0.000061
C42	C	0.070253	1.210909	0.250061
C43	C	0.320253	1.460909	0.500061
C44	C	0.570253	1.710909	0.750061
C45	C	-0.170813	0.854963	0.000055
C46	C	0.079187	1.104963	0.250055
C47	C	0.329187	1.354963	0.500055
C48	C	0.579187	1.604963	0.750055
C49	C	-0.217840	0.608468	0.000069
C50	C	0.032160	0.858468	0.250069
C51	C	0.282160	1.108468	0.500069
C52	C	0.532160	1.358468	0.750069
C53	C	-0.154494	0.660989	0.000062
C54	C	0.095506	0.910989	0.250062
C55	C	0.345506	1.160989	0.500062
C56	C	0.595506	1.410989	0.750062
C57	C	-0.163576	0.768926	0.000058
C58	C	0.086424	1.018926	0.250058
C59	C	0.336424	1.268926	0.500058
C60	C	0.586424	1.518926	0.750058
C61	C	-0.208759	0.500521	0.000073
C62	C	0.041241	0.750521	0.250073
C63	C	0.291241	1.000521	0.500073
C64	C	0.541241	1.250521	0.750073
C65	C	-0.329434	1.139358	0.000081
C66	C	-0.079434	1.389358	0.250081
C67	C	0.170566	1.639358	0.500081
C68	C	0.420566	1.889358	0.750081
C69	C	-0.416851	1.148276	0.000088
C70	C	-0.166851	1.398276	0.250088
C71	C	0.083149	1.648276	0.500088
C72	C	0.333149	1.898276	0.750088
C73	C	-0.461235	1.066388	0.000084
C74	C	-0.211235	1.316388	0.250084
C75	C	0.038765	1.566388	0.500084
C76	C	0.288765	1.816388	0.750084
C77	C	-0.543372	1.074775	0.000071
C78	C	-0.293372	1.324775	0.250071
C79	C	-0.043372	1.574775	0.500071
C80	C	0.206628	1.824775	0.750071
C81	C	-0.581124	1.165051	0.000071
C82	C	-0.331124	1.415051	0.250071
C83	C	-0.081124	1.665051	0.500071
C84	C	0.168876	1.915051	0.750071
C85	C	-0.536734	1.246945	0.000072
C86	C	-0.286734	1.496945	0.250072
C87	C	-0.036734	1.746945	0.500072
C88	C	0.213266	1.996945	0.750072
C89	C	-0.454598	1.238558	0.000077
C90	C	-0.204598	1.488558	0.250077
C91	C	0.045402	1.738558	0.500077
C92	C	0.295402	1.988558	0.750077
C93	C	-0.828954	1.194682	0.000049
C94	C	-0.578954	1.444682	0.250049
C95	C	-0.328954	1.694682	0.500049
C96	C	-0.078954	1.944682	0.750049
C97	C	-0.911096	1.203063	0.000047
C98	C	-0.661096	1.453063	0.250047
C99	C	-0.411096	1.703063	0.500047
C100	C	-0.161096	1.953063	0.750047
C101	C	-0.917728	1.030892	0.000044
C102	C	-0.667728	1.280892	0.250044
C103	C	-0.417728	1.530892	0.500044
C104	C	-0.167728	1.780892	0.750044
C105	C	-0.835590	1.022512	0.000055
C106	C	-0.585590	1.272512	0.250055
C107	C	-0.335590	1.522512	0.500055
C108	C	-0.085590	1.772512	0.750055
C109	C	-0.791208	1.104407	0.000051
C110	C	-0.541208	1.354407	0.250051
C111	C	-0.291208	1.604407	0.500051
C112	C	-0.041208	1.854407	0.750051
C113	C	-0.665081	1.173625	0.000061
C114	C	-0.415081	1.423625	0.250061
C115	C	-0.165081	1.673625	0.500061
C116	C	0.084919	1.923625	0.750061
C117	C	-0.707252	1.095832	0.000053
C118	C	-0.457252	1.345832	0.250053
C119	C	-0.207252	1.595832	0.500053
C120	C	0.042748	1.845832	0.750053
C121	C	-0.042897	1.130093	0.000056
C122	C	0.207103	1.380093	0.250056
C123	C	0.457103	1.630093	0.500056
C124	C	0.707103	1.880093	0.750056
C125	C	0.044521	1.121175	0.000042
C126	C	0.294521	1.371175	0.250042
C127	C	0.544521	1.621175	0.500042
C128	C	0.794521	1.871175	0.750042
C129	C	-0.192584	1.308542	0.000076
C130	C	0.057416	1.558542	0.250076
C131	C	0.307416	1.808542	0.500076
C132	C	0.557416	2.058542	0.750076
C133	C	-0.201517	1.414488	0.000076
C134	C	0.048483	1.664488	0.250076
C135	C	0.298483	1.914488	0.500076
C136	C	0.548483	2.164488	0.750076
N137	N	-0.198540	1.119463	0.265593
N138	N	0.051460	1.369463	0.515593
N139	N	0.301460	1.619463	0.765593
N140	N	0.551460	1.869463	1.015593
N141	N	-0.173785	1.149995	-0.265453
N142	N	0.076215	1.399995	-0.015453
N143	N	0.326215	1.649995	0.234547
N144	N	0.576215	1.899995	0.484547
C145	C	-0.208265	1.107482	0.474636
C146	C	0.041735	1.357482	0.724636
C147	C	0.291735	1.607482	0.974636
C148	C	0.541735	1.857482	1.224636
C149	C	-0.164062	1.161973	0.525510
C150	C	0.085938	1.411973	0.775510
C151	C	0.335938	1.661973	1.025510
C152	C	0.585938	1.911973	1.275510
C153	C	-0.169473	1.155307	0.641829
C154	C	0.080527	1.405307	0.891829
C155	C	0.330527	1.655307	1.141829
C156	C	0.580527	1.905307	1.391829
C157	C	-0.202855	1.114147	0.358306
C158	C	0.047145	1.364147	0.608306
C159	C	0.297145	1.614147	0.858306
C160	C	0.547145	1.864147	1.108306
H161	H	-0.430504	0.992875	0.000096
H162	H	-0.180504	1.242875	0.250096
H163	H	0.069496	1.492875	0.500096
H164	H	0.319496	1.742875	0.750096
H165	H	-0.093436	0.624895	-0.000015
H166	H	0.156564	0.874895	0.249985
H167	H	0.406564	1.124895	0.499985
H168	H	0.656564	1.374895	0.749985
H169	H	-0.278890	0.644564	0.000070
H170	H	-0.028890	0.894564	0.250070
H171	H	0.221110	1.144564	0.500070
H172	H	0.471110	1.394564	0.750070
H173	H	-0.579505	1.008093	0.000064
H174	H	-0.329505	1.258093	0.250064
H175	H	-0.079505	1.508093	0.500064
H176	H	0.170495	1.758093	0.750064
H177	H	-0.804858	0.949001	0.000044
H178	H	-0.554858	1.199001	0.250044
H179	H	-0.304858	1.449001	0.500044
H180	H	-0.054858	1.699001	0.750044
H181	H	-0.953873	0.964218	0.000046
H182	H	-0.703873	1.214218	0.250046
H183	H	-0.453873	1.464218	0.500046
H184	H	-0.203873	1.714218	0.750046
H185	H	-0.941831	1.276580	0.000047
H186	H	-0.691831	1.526580	0.250047
H187	H	-0.441831	1.776580	0.500047
H188	H	-0.191831	2.026580	0.750047
H189	H	-0.676510	1.022330	0.000048
H190	H	-0.426510	1.272330	0.250048
H191	H	-0.176510	1.522330	0.500048
H192	H	0.073490	1.772330	0.750048
H193	H	-0.792828	1.261367	0.000052
H194	H	-0.542828	1.511367	0.250052
H195	H	-0.292828	1.761367	0.500052
H196	H	-0.042828	2.011367	0.750052
H197	H	-0.695829	1.247126	0.000095
H198	H	-0.445829	1.497126	0.250095
H199	H	-0.195829	1.747126	0.500095
H200	H	0.054171	1.997126	0.750095
H201	H	-0.122156	1.213630	0.481707
H202	H	0.127844	1.463630	0.731707
H203	H	0.377844	1.713630	0.981707
H204	H	0.627844	1.963630	1.231707
H205	H	-0.567478	1.320450	0.000074
H206	H	-0.317478	1.570450	0.250074
H207	H	-0.067478	1.820450	0.500074
H208	H	0.182522	2.070450	0.750074
H209	H	-0.418462	1.305241	0.000077
H210	H	-0.168462	1.555241	0.250077
H211	H	0.081538	1.805241	0.500077
H212	H	0.331538	2.055241	0.750077
H213	H	-0.250170	1.055830	0.518433
H214	H	-0.000170	1.305830	0.768433
H215	H	0.249830	1.555830	1.018433
H216	H	0.499830	1.805830	1.268433
