data_functionalizedCrystal
_audit_creation_method	'MofGen! by Chris Wilmer'
_symmetry_space_group_name_H-M	'P1'
_symmetry_Int_Tables_number	1
_symmetry_cell_setting	triclinic
loop_
_symmetry_equiv_pos_as_xyz
  x,y,z
_cell_length_a	6.817900
_cell_length_b	10.992723
_cell_length_c	16.305550
_cell_angle_alpha	93.824391
_cell_angle_beta	103.455250
_cell_angle_gamma	108.770285
loop_
_atom_site_label
_atom_site_type_symbol
_atom_site_fract_x
_atom_site_fract_y
_atom_site_fract_z
V1	V	-4.053454	-0.178847	-0.263024
O2	O	-4.012703	0.007479	-0.258025
O3	O	-4.031483	-0.353550	-0.261218
O4	O	-4.004516	-0.176585	-0.377741
O5	O	-4.039857	-0.170711	-0.140695
V6	V	-4.533727	-0.156502	-0.248393
O7	O	-4.321842	-0.227861	-0.295118
O8	O	-4.715537	-0.107488	-0.216300
O9	O	-4.332492	0.018201	-0.250199
O10	O	-4.691875	-0.342828	-0.253393
O11	O	-4.664721	-0.164638	-0.370723
O12	O	-4.359459	-0.158764	-0.133676
C13	C	-3.882931	-0.396124	-0.257067
C14	C	-3.946250	-0.538949	-0.256354
C15	C	-4.257314	-0.749906	-0.260105
C16	C	-4.191791	-0.601430	-0.261172
C17	C	-3.905254	-0.608483	-0.334491
C18	C	-3.972567	-0.757154	-0.333847
C19	C	-3.878486	-0.718215	-0.172572
C20	C	-3.816186	-0.569493	-0.172342
C21	C	-3.848530	-0.170386	-0.405703
C22	C	-3.889977	-0.169693	-0.499484
C23	C	-4.040655	-0.167008	-0.840230
C24	C	-3.803394	-0.159035	-0.799302
C25	C	-3.760391	-0.160288	-0.701807
C26	C	-3.965900	-0.168339	-0.671182
C27	C	-4.152237	-0.295228	-0.721803
C28	C	-4.193991	-0.294510	-0.819353
C29	C	-4.077474	-0.049105	-0.794392
C30	C	-4.029391	-0.048101	-0.696549
C31	C	-3.923666	-0.169096	-0.575644
C32	C	-4.082900	-0.166260	-0.935769
C33	C	-4.144387	0.060768	-0.254348
C34	C	-4.060306	0.203592	-0.255066
C35	C	-4.178787	-0.164967	-0.105710
C36	C	-4.116578	-0.165654	-0.011928
H37	H	-3.828212	-0.788185	-0.333631
H38	H	-3.931811	-0.743425	-0.112670
C39	C	-4.361290	-0.309414	-0.696248
H40	H	-4.471822	-0.386756	-0.727609
H41	H	-4.338017	-0.313630	-0.636922
H42	H	-4.403020	-0.236612	-0.708462
H43	H	-3.728505	-0.568044	-0.333934
C44	C	-3.858328	-0.506214	-0.094182
H45	H	-3.954772	-0.461358	-0.112663
H46	H	-3.919709	-0.571652	-0.063133
H47	H	-3.726485	-0.446559	-0.058538
H48	H	-3.635511	-0.525379	-0.163921
C49	C	-4.163504	-0.415078	-0.860399
H50	H	-4.188713	-0.415707	-0.920260
H51	H	-4.020741	-0.412436	-0.836793
H52	H	-4.262288	-0.491481	-0.849473
H53	H	-4.369521	-0.305638	-0.847344
C54	C	-3.641159	-0.035218	-0.816017
H55	H	-3.716659	0.012724	-0.848110
H56	H	-3.553110	0.016680	-0.763138
H57	H	-3.553640	-0.058677	-0.847136
H58	H	-4.176439	-0.046522	-0.675201
C59	C	-3.678910	-0.757627	-0.166526
H60	H	-3.569595	-0.710049	-0.116557
H61	H	-3.716328	-0.848057	-0.163952
H62	H	-3.627666	-0.739070	-0.215344
C63	C	-4.144266	-0.827519	-0.417758
H64	H	-4.186830	-0.918819	-0.418107
H65	H	-4.265632	-0.801203	-0.422268
H66	H	-4.086239	-0.805955	-0.464671
H67	H	-3.998565	-0.588554	-0.396659
C68	C	-3.846596	0.078694	-0.650117
H69	H	-3.885963	0.151076	-0.665726
H70	H	-3.821950	0.080394	-0.590195
H71	H	-3.719099	0.082844	-0.665795
H72	H	-3.971446	0.047037	-0.807763
C73	C	-3.570735	-0.037055	-0.654494
H74	H	-3.519330	0.014224	-0.694824
H75	H	-3.617425	0.011797	-0.617855
H76	H	-3.458408	-0.061165	-0.621629
C77	C	-4.095707	-0.415840	-0.699095
H78	H	-3.958699	-0.389132	-0.658803
H79	H	-4.201211	-0.469299	-0.675258
H80	H	-4.092288	-0.463485	-0.749221
C81	C	-4.352477	-0.783461	-0.184162
H82	H	-4.272929	-0.826140	-0.148702
H83	H	-4.344816	-0.705832	-0.152166
H84	H	-4.498404	-0.839145	-0.204767
H85	H	-4.392369	-0.804288	-0.319620
H86	H	-3.771191	-0.243743	-0.830810
H87	H	-3.707001	-0.245973	-0.685510
H88	H	-4.250255	-0.053817	-0.821207
H89	H	-4.295097	-0.583033	-0.321461
C90	C	-4.242828	-0.537413	-0.185717
H91	H	-4.303901	-0.602125	-0.154138
H92	H	-4.114098	-0.475256	-0.149733
H93	H	-4.342013	-0.495384	-0.206731
