data_functionalizedCrystal
_audit_creation_method	'MofGen! by Chris Wilmer'
_symmetry_space_group_name_H-M	'P1'
_symmetry_Int_Tables_number	1
_symmetry_cell_setting	triclinic
loop_
_symmetry_equiv_pos_as_xyz
  x,y,z
_cell_length_a	15.625950
_cell_length_b	15.995292
_cell_length_c	14.185569
_cell_angle_alpha	76.851103
_cell_angle_beta	120.545593
_cell_angle_gamma	83.874922
loop_
_atom_site_label
_atom_site_type_symbol
_atom_site_fract_x
_atom_site_fract_y
_atom_site_fract_z
O1	O	1.290658	0.021680	0.385915
O2	O	1.002523	0.058501	0.281138
O3	O	1.154497	-0.082445	0.336400
O4	O	1.138685	0.162625	0.330653
O5	O	1.199391	-0.124078	0.519559
O6	O	1.047417	0.016868	0.464298
O7	O	1.335553	-0.019953	0.569074
Cu8	Cu	1.195584	-0.005344	0.533410
Cu9	Cu	1.142491	0.043892	0.316803
O10	O	1.183579	0.120993	0.513813
C11	C	0.988099	0.040140	0.359310
C12	C	0.878236	0.047445	0.319360
C13	C	0.639143	-0.041919	0.687033
C14	C	0.535895	-0.035026	0.649442
C15	C	0.487004	0.010357	0.449788
C16	C	0.590249	0.003471	0.487362
C17	C	0.666312	-0.022668	0.605986
C18	C	0.617418	0.022723	0.406315
C19	C	0.720656	0.015833	0.443887
C20	C	0.796724	-0.010307	0.562506
C21	C	0.769549	-0.029557	0.643558
C22	C	0.541355	0.048856	0.287692
C23	C	0.568524	0.068107	0.206645
C24	C	0.671762	0.061224	0.244216
C25	C	0.747830	0.035083	0.362835
C26	C	0.698937	0.080474	0.163164
C27	C	0.802174	0.073585	0.200736
C28	C	0.851067	0.028194	0.400407
C29	C	1.176299	-0.134404	0.427743
C30	C	1.174368	-0.227198	0.427033
C31	C	1.167277	-0.564360	0.424464
C32	C	1.277068	-0.550084	0.464760
C33	C	1.279051	-0.453484	0.465102
C34	C	1.170796	-0.397090	0.425739
C35	C	1.090320	-0.397946	0.301208
C36	C	1.088979	-0.494610	0.300644
C37	C	1.137792	-0.541629	0.508116
C38	C	1.142195	-0.445781	0.510972
C39	C	1.172778	-0.302554	0.426454
C40	C	1.165290	-0.658893	0.423740
C41	C	1.349976	-0.001591	0.490900
C42	C	1.459837	-0.008895	0.530843
C43	C	1.161775	0.172952	0.422467
C44	C	1.163705	0.265748	0.423170
N45	N	1.232934	-0.039974	0.685762
N46	N	1.105150	0.078515	0.164453
C47	C	0.995416	0.180223	0.967044
C48	C	1.023714	0.153996	1.082356
C49	C	1.158314	0.029228	1.131261
C50	C	1.130024	0.055443	1.015950
C51	C	1.048574	0.130941	0.933850
C52	C	1.183182	0.006161	0.982756
C53	C	1.154897	0.032376	0.867456
C54	C	1.073453	0.107873	0.785350
C55	C	1.020289	0.157156	0.818550
C56	C	1.264636	-0.069334	1.064859
C57	C	1.317794	-0.118615	1.031665
C58	C	1.289505	-0.092404	0.916362
C59	C	1.208061	-0.016907	0.834256
C60	C	1.342669	-0.141688	0.883162
C61	C	1.314383	-0.115473	0.767862
C62	C	1.179775	0.009308	0.718956
H63	H	0.636994	0.101748	0.066580
H64	H	1.340377	-0.455002	0.555692
H65	H	1.057224	-0.549197	0.479463
H66	H	1.224634	-0.032241	1.198120
H67	H	0.457294	0.054469	0.257104
O68	O	0.966376	0.207150	1.118165
H69	H	0.883812	0.207755	1.068012
O70	O	1.295155	-0.097616	1.189224
H71	H	1.228703	-0.111949	1.192770
H72	H	0.880785	-0.015917	0.593095
O73	O	0.721195	-0.070109	0.814979
H74	H	0.684962	-0.082341	0.865031
O75	O	1.371688	-0.168624	0.732023
H76	H	1.454260	-0.169253	0.782172
H77	H	1.191768	-0.590554	0.599956
O78	O	0.404970	0.038548	0.321845
H79	H	0.347947	0.100529	0.296741
O80	O	0.933119	0.000010	0.528352
H81	H	0.933861	-0.067305	0.572228
O82	O	0.506586	-0.055783	0.736861
H83	H	0.576823	-0.075109	0.825656
O84	O	0.851601	-0.057747	0.771504
H85	H	0.815368	-0.069979	0.821555
H86	H	1.303845	-0.421530	0.405707
H87	H	0.506582	0.089386	0.110061
H88	H	0.929085	0.241696	0.900191
O89	O	0.831482	0.094336	0.113321
H90	H	0.916051	0.085139	0.159380
H91	H	1.337733	-0.598578	0.555141
H92	H	1.009705	-0.358700	0.268354
H93	H	1.109323	-0.363298	0.237219
H94	H	1.201092	-0.448059	0.602868
H95	H	1.300832	-0.565577	0.405465
O96	O	1.042942	0.136148	0.660989
H97	H	0.977381	0.196928	0.609481
H98	H	1.064727	-0.407805	0.488558
O99	O	1.405638	-0.200046	1.120214
H100	H	1.416374	-0.210000	1.205966
H101	H	1.107795	-0.506752	0.236270
H102	H	0.953958	0.218629	0.751697
H103	H	1.007392	-0.501526	0.266662
O104	O	1.091917	0.090729	0.630374
H105	H	1.109920	0.149965	0.657056
H106	H	1.408992	-0.203154	0.950024
