data_functionalizedCrystal
_audit_creation_method	'MofGen! by Chris Wilmer'
_symmetry_space_group_name_H-M	'P1'
_symmetry_Int_Tables_number	1
_symmetry_cell_setting	triclinic
loop_
_symmetry_equiv_pos_as_xyz
  x,y,z
_cell_length_a	11.792241
_cell_length_b	10.868271
_cell_length_c	11.792241
_cell_angle_alpha	89.996428
_cell_angle_beta	95.806585
_cell_angle_gamma	90.000490
loop_
_atom_site_label
_atom_site_type_symbol
_atom_site_fract_x
_atom_site_fract_y
_atom_site_fract_z
O1	O	-1.506909	0.102170	0.155562
O2	O	-1.173576	0.435503	0.488896
O3	O	-0.840242	0.768836	0.822229
O4	O	-1.176568	0.102201	0.171595
O5	O	-0.843235	0.435534	0.504929
O6	O	-0.509901	0.768868	0.838262
O7	O	-1.349755	0.102192	-0.001592
O8	O	-1.016422	0.435525	0.331742
O9	O	-0.683088	0.768859	0.665075
O10	O	-1.333722	0.102179	0.328749
O11	O	-1.000389	0.435512	0.662083
O12	O	-0.667055	0.768845	0.995416
O13	O	-1.349739	-0.102453	-0.001586
O14	O	-1.016406	0.230881	0.331747
O15	O	-0.683073	0.564214	0.665080
O16	O	-1.176552	-0.102444	0.171601
O17	O	-0.843219	0.230890	0.504934
O18	O	-0.509886	0.564223	0.838267
O19	O	-1.506893	-0.102475	0.155568
O20	O	-1.173560	0.230858	0.488901
O21	O	-0.840227	0.564192	0.822235
Zn22	Zn	-1.341720	-0.134951	0.163585
Zn23	Zn	-1.008387	0.198382	0.496919
Zn24	Zn	-0.675054	0.531716	0.830252
Zn25	Zn	-1.341741	0.134677	0.163578
Zn26	Zn	-1.008408	0.468010	0.496911
Zn27	Zn	-0.675074	0.801344	0.830245
O28	O	-1.333706	-0.102466	0.328755
O29	O	-1.000373	0.230867	0.662088
O30	O	-0.667040	0.564201	0.995422
C31	C	-1.134269	-0.000117	0.170591
C32	C	-0.800936	0.333216	0.503924
C33	C	-0.467603	0.666549	0.837258
C34	C	-1.008255	-0.000105	0.167576
C35	C	-0.674922	0.333229	0.500910
C36	C	-0.341589	0.666562	0.834243
N37	N	-1.341714	-0.318965	0.163590
N38	N	-1.008381	0.014368	0.496923
N39	N	-0.675048	0.347702	0.830256
C40	C	-1.348740	-0.000126	-0.043880
C41	C	-1.015407	0.333208	0.289453
C42	C	-0.682073	0.666541	0.622787
C43	C	-1.345726	-0.000112	-0.169894
C44	C	-1.012392	0.333221	0.163440
C45	C	-0.679059	0.666555	0.496773
C46	C	-0.777543	-0.000137	0.162034
C47	C	-0.444210	0.333196	0.495367
C48	C	-0.110877	0.666530	0.828700
C49	C	-0.905928	-0.000119	0.165113
C50	C	-0.572595	0.333214	0.498447
C51	C	-0.239262	0.666547	0.831780
C52	C	-0.549192	-0.000151	0.156572
C53	C	-0.215859	0.333182	0.489906
C54	C	0.117475	0.666516	0.823239
C55	C	-0.675206	-0.000146	0.159587
C56	C	-0.341873	0.333187	0.492920
C57	C	-0.008539	0.666520	0.826253
C58	C	-1.341723	-0.430303	0.163590
C59	C	-1.008390	-0.096969	0.496923
C60	C	-0.675057	0.236364	0.830257
C61	C	-1.341738	-0.569980	0.163579
C62	C	-1.008405	-0.236647	0.496913
C63	C	-0.675071	0.096686	0.830246
N64	N	-1.341756	0.318691	0.163565
N65	N	-1.008423	0.652024	0.496898
N66	N	-0.675089	0.985358	0.830231
C67	C	-1.334721	-0.000146	0.371043
C68	C	-1.001388	0.333188	0.704376
C69	C	-0.668055	0.666521	1.037710
C70	C	-1.337736	-0.000151	0.497057
C71	C	-1.004402	0.333182	0.830390
C72	C	-0.671069	0.666515	1.163723
C73	C	-1.343279	-0.000121	0.727769
C74	C	-1.009945	0.333213	1.061102
C75	C	-0.676612	0.666546	1.394436
C76	C	-1.340199	-0.000137	0.599384
C77	C	-1.006866	0.333196	0.932717
C78	C	-0.673532	0.666529	1.266050
