data_functionalizedCrystal
_audit_creation_method	'MofGen! by Chris Wilmer'
_symmetry_space_group_name_H-M	'P1'
_symmetry_Int_Tables_number	1
_symmetry_cell_setting	triclinic
loop_
_symmetry_equiv_pos_as_xyz
  x,y,z
_cell_length_a	10.654559
_cell_length_b	19.188924
_cell_length_c	9.130313
_cell_angle_alpha	89.996698
_cell_angle_beta	89.999532
_cell_angle_gamma	83.815324
loop_
_atom_site_label
_atom_site_type_symbol
_atom_site_fract_x
_atom_site_fract_y
_atom_site_fract_z
O1	O	1.665747	0.098090	-0.121815
O2	O	1.300072	0.107426	-0.121817
O3	O	1.493467	0.001171	-0.121798
O4	O	1.472353	0.204344	-0.121833
O5	O	1.493465	0.001174	0.121800
O6	O	1.300070	0.107429	0.121782
O7	O	1.665745	0.098093	0.121784
Cu8	Cu	1.482907	0.102761	0.144026
Cu9	Cu	1.482910	0.102757	-0.144058
O10	O	1.472350	0.204347	0.121766
C11	C	1.253288	0.106740	-0.000017
C12	C	1.113889	0.104685	-0.000017
C13	C	1.063717	0.040193	-0.000003
C14	C	0.932735	0.038266	-0.000013
C15	C	0.902109	0.165331	-0.000047
C16	C	1.033088	0.167256	-0.000047
C17	C	1.081398	-0.033167	0.000023
C18	C	0.950416	-0.035094	0.000013
C19	C	1.492783	-0.024843	0.000002
C20	C	1.490735	-0.102361	0.000006
C21	C	1.489781	-0.138768	-0.132780
C22	C	1.487838	-0.211604	-0.132791
C23	C	1.486876	-0.248031	-0.000008
C24	C	1.487824	-0.211615	0.132795
C25	C	1.489753	-0.138780	0.132802
N26	N	1.555307	-0.367244	0.098819
N27	N	1.553477	-0.436435	0.098803
C28	C	1.481059	-0.467479	-0.000023
N29	N	1.410557	-0.426719	-0.098854
N30	N	1.412393	-0.357523	-0.098842
C31	C	1.484783	-0.327008	-0.000002
C32	C	1.477997	-0.582862	-0.132830
C33	C	1.476046	-0.655698	-0.132836
C34	C	1.476044	-0.655709	0.132754
C35	C	1.477982	-0.582873	0.132756
C36	C	1.478964	-0.546454	-0.000040
C37	C	1.712529	0.098778	-0.000019
C38	C	1.851928	0.100833	-0.000028
C39	C	1.473034	0.230361	-0.000038
C40	C	1.475082	0.307880	-0.000052
N41	N	1.482914	0.102763	0.346648
N42	N	1.482913	0.102750	-0.346681
C43	C	1.568571	0.055729	0.423308
C44	C	1.568568	0.055721	0.576645
C45	C	1.397247	0.149786	0.576648
C46	C	1.397245	0.149790	0.423314
C47	C	1.667486	0.001424	0.423308
C48	C	1.667482	0.001415	0.576645
H49	H	0.921654	-0.063778	0.101964
C50	C	1.143698	-0.063109	0.142120
N51	N	1.190623	-0.085661	0.249148
C52	C	1.490811	-0.098732	0.278884
N53	N	1.491612	-0.068567	0.388915
C54	C	1.797487	0.017632	0.632871
N55	N	1.895391	0.029866	0.675220
H56	H	1.647181	-0.052240	0.381697
C57	C	1.474986	-0.695775	0.278818
N58	N	1.474186	-0.725956	0.388836
H59	H	1.478789	-0.553207	-0.240961
H60	H	0.915283	-0.058460	-0.105165
H61	H	1.475263	-0.685339	-0.240970
C62	C	1.479046	-0.542825	0.278833
N63	N	1.479844	-0.512661	0.388866
H64	H	1.490577	-0.109120	-0.240913
H65	H	1.487053	-0.241251	-0.240925
H66	H	1.327486	0.188082	0.360899
C67	C	1.486762	-0.251687	0.278856
N68	N	1.485958	-0.281868	0.388874
H69	H	1.327497	0.188074	0.639086
H70	H	1.758308	0.018430	0.375747
H71	H	1.638045	-0.049297	0.624200
C72	C	1.088272	0.238203	-0.000070
N73	N	1.129835	0.291643	-0.000083
H74	H	1.123733	-0.060814	-0.101911
C75	C	0.813216	0.234155	-0.000069
N76	N	0.746263	0.285995	-0.000081
