data_functionalizedCrystal
_audit_creation_method	'MofGen! by Chris Wilmer'
_symmetry_space_group_name_H-M	'P1'
_symmetry_Int_Tables_number	1
_symmetry_cell_setting	triclinic
loop_
_symmetry_equiv_pos_as_xyz
  x,y,z
_cell_length_a	17.077404
_cell_length_b	19.805405
_cell_length_c	17.077396
_cell_angle_alpha	90.028963
_cell_angle_beta	90.019501
_cell_angle_gamma	90.026951
loop_
_atom_site_label
_atom_site_type_symbol
_atom_site_fract_x
_atom_site_fract_y
_atom_site_fract_z
Zn1	Zn	1.200034	-0.269459	0.443840
Zn2	Zn	1.700034	0.230541	0.943840
Zn3	Zn	1.199932	-0.382652	0.312573
Zn4	Zn	1.699932	0.117348	0.812573
Zn5	Zn	1.068765	-0.269483	0.312588
Zn6	Zn	1.568765	0.230517	0.812588
Zn7	Zn	1.068725	-0.382612	0.443797
Zn8	Zn	1.568725	0.117388	0.943797
O9	O	1.134364	-0.326052	0.378199
O10	O	1.634364	0.173948	0.878199
O11	O	1.309867	-0.284481	0.426439
O12	O	1.809867	0.215519	0.926439
O13	O	1.182507	-0.367667	0.202728
O14	O	1.682507	0.132333	0.702728
O15	O	1.086238	-0.174763	0.330023
O16	O	1.586238	0.325237	0.830023
O17	O	1.309792	-0.367644	0.329998
O18	O	1.809792	0.132356	0.829998
O19	O	1.182680	-0.174746	0.426454
O20	O	1.682680	0.325254	0.926454
O21	O	1.086140	-0.284522	0.202739
O22	O	1.586140	0.215478	0.702739
O23	O	0.958913	-0.284483	0.329981
O24	O	1.458913	0.215517	0.829981
O25	O	1.086169	-0.367575	0.553649
O26	O	1.586169	0.132425	1.053649
O27	O	0.958883	-0.367598	0.426380
O28	O	1.458883	0.132402	0.926380
O29	O	1.182641	-0.284442	0.553681
O30	O	1.682641	0.215558	1.053681
O31	O	1.182467	-0.477363	0.329956
O32	O	1.682467	0.022637	0.829956
O33	O	1.086070	-0.477334	0.426365
O34	O	1.586070	0.022666	0.926365
C35	C	0.930416	-0.326039	0.378178
C36	C	1.430416	0.173961	0.878178
C37	C	0.843166	-0.326050	0.378187
C38	C	1.343166	0.173950	0.878187
C39	C	0.802181	-0.369394	0.428301
C40	C	1.302181	0.130606	0.928301
C41	C	0.720201	-0.369395	0.428314
C42	C	1.220201	0.130605	0.928314
C43	C	0.679207	-0.326056	0.378208
C44	C	1.179207	0.173944	0.878208
C45	C	0.720198	-0.282708	0.328091
C46	C	1.220198	0.217292	0.828091
C47	C	0.802177	-0.282703	0.328083
C48	C	1.302177	0.217297	0.828083
C49	C	0.549328	-0.282721	0.328110
C50	C	1.049328	0.217279	0.828110
C51	C	0.467343	-0.282726	0.328117
C52	C	0.967343	0.217274	0.828117
C53	C	0.467352	-0.369413	0.428341
C54	C	0.967352	0.130587	0.928341
C55	C	0.549331	-0.369409	0.428333
C56	C	1.049331	0.130591	0.928333
C57	C	0.590316	-0.326061	0.378215
C58	C	1.090316	0.173939	0.878215
C59	C	1.134275	-0.501908	0.378171
C60	C	1.634275	-0.001908	0.878171
C61	C	1.134308	-0.577140	0.378185
C62	C	1.634308	-0.077140	0.878185
C63	C	1.184496	-0.612416	0.428436
C64	C	1.684496	-0.112416	0.928436
C65	C	1.184524	-0.683105	0.428450
C66	C	1.684524	-0.183105	0.928450
C67	C	1.134368	-0.718515	0.378210
C68	C	1.634368	-0.218515	0.878210
C69	C	1.084175	-0.683233	0.327957
C70	C	1.584175	-0.183233	0.827957
C71	C	1.084143	-0.612546	0.327947
C72	C	1.584143	-0.112546	0.827947
C73	C	1.084301	-0.968307	0.327997
C74	C	1.584301	-0.468307	0.827997
C75	C	1.084338	-1.038999	0.328009
C76	C	1.584338	-0.538999	0.828009
C77	C	1.184682	-1.038865	0.428501
C78	C	1.684682	-0.538865	0.928501
C79	C	1.184650	-0.968178	0.428491
C80	C	1.684650	-0.468178	0.928491
C81	C	1.134454	-0.932902	0.378241
C82	C	1.634454	-0.432902	0.878241
C83	C	1.134423	-0.856254	0.378227
C84	C	1.634423	-0.356254	0.878227
C85	C	1.134403	-0.795162	0.378219
C86	C	1.634403	-0.295162	0.878219
C87	C	1.339108	-0.326064	0.378222
C88	C	1.839108	0.173936	0.878222
C89	C	1.426358	-0.326070	0.378231
C90	C	1.926358	0.173930	0.878231
C91	C	1.134411	-0.326002	0.582944
C92	C	1.634411	0.173998	1.082944
C93	C	1.134432	-0.325980	0.670194
C94	C	1.634432	0.174020	1.170194
C95	C	1.134475	-0.149509	0.378245
C96	C	1.634475	0.350491	0.878245
C97	C	1.134523	-0.074277	0.378265
C98	C	1.634523	0.425723	0.878265
C99	C	1.134362	-0.326052	0.174252
C100	C	1.634362	0.173948	0.674252
C101	C	1.134494	-0.325883	0.087002
C102	C	1.634494	0.174117	0.587002
C103	C	1.184667	-0.282689	0.711202
C104	C	1.684667	0.217311	1.211202
C105	C	1.184676	-0.282667	0.793182
C106	C	1.684676	0.217333	1.293182
C107	C	1.134454	-0.325939	0.834153
C108	C	1.634454	0.174061	1.334153
C109	C	1.084214	-0.369232	0.793139
C110	C	1.584214	0.130768	1.293139
C111	C	1.084201	-0.369251	0.711160
C112	C	1.584201	0.130749	1.211160
C113	C	1.084245	-0.369191	0.964009
C114	C	1.584245	0.130809	1.464009
C115	C	1.084259	-0.369174	1.045994
C116	C	1.584259	0.130826	1.545994
C117	C	1.184720	-0.282608	1.046031
C118	C	1.684720	0.217392	1.546031
C119	C	1.184708	-0.282626	0.964052
C120	C	1.684708	0.217374	1.464052
C121	C	1.134468	-0.325920	0.923044
C122	C	1.634468	0.174080	1.423044
H123	H	0.582696	-0.247417	0.287306
H124	H	1.082696	0.252583	0.787306
H125	H	0.686834	-0.404691	0.469121
H126	H	1.186834	0.095309	0.969121
C127	C	0.951285	-0.705124	0.289606
C128	C	1.451285	-0.205124	0.789606
C129	C	1.029041	-0.722156	0.272733
C130	C	1.529041	-0.222156	0.772733
H131	H	0.917249	-0.729156	0.255513
H132	H	1.417249	-0.229156	0.755513
H133	H	0.944086	-0.657982	0.282405
H134	H	1.444086	-0.157982	0.782405
H135	H	0.939783	-0.716692	0.342340
H136	H	1.439783	-0.216692	0.842340
H137	H	1.040545	-0.710583	0.220000
H138	H	1.540545	-0.210583	0.720000
H139	H	1.036243	-0.769308	0.279927
H140	H	1.536243	-0.269308	0.779927
H141	H	0.835552	-0.404688	0.469101
H142	H	1.335552	0.095312	0.969101
H143	H	1.043362	-0.404408	1.079350
H144	H	1.543362	0.095592	1.579350
C145	C	1.290051	-0.532844	0.439433
C146	C	1.790051	-0.032844	0.939433
C147	C	1.239631	-0.573499	0.483664
C148	C	1.739631	-0.073499	0.983664
H149	H	1.324091	-0.508823	0.473532
H150	H	1.824091	-0.008823	0.973532
H151	H	1.260159	-0.501717	0.409512
H152	H	1.760159	-0.001717	0.909512
H153	H	1.320106	-0.560423	0.405266
H154	H	1.820106	-0.060423	0.905266
H155	H	1.209571	-0.545919	0.517827
H156	H	1.709571	-0.045919	1.017827
H157	H	1.269526	-0.604629	0.513597
H158	H	1.769526	-0.104629	1.013597
C159	C	0.978524	-0.533140	0.316939
C160	C	1.478524	-0.033140	0.816939
C161	C	1.028975	-0.573766	0.272711
C162	C	1.528975	-0.073766	0.772711
H163	H	0.944460	-0.509203	0.282838
H164	H	1.444460	-0.009203	0.782838
H165	H	1.008392	-0.501940	0.346851
H166	H	1.508392	-0.001940	0.846851
H167	H	0.948496	-0.560729	0.351113
H168	H	1.448496	-0.060729	0.851113
H169	H	1.059008	-0.546177	0.238540
H170	H	1.559008	-0.046177	0.738540
H171	H	0.999104	-0.604970	0.242785
H172	H	1.499104	-0.104970	0.742785
H173	H	1.043286	-0.404496	0.677773
H174	H	1.543286	0.095504	1.177773
H175	H	1.043491	-1.067828	0.287096
H176	H	1.543491	-0.567828	0.787096
C177	C	1.229157	-0.859761	0.473094
C178	C	1.729157	-0.359761	0.973094
C179	C	1.239782	-0.929255	0.483717
C180	C	1.739782	-0.429255	0.983717
H181	H	1.263196	-0.835733	0.507188
H182	H	1.763196	-0.335733	1.007188
H183	H	1.176408	-0.848215	0.484532
H184	H	1.676408	-0.348215	0.984532
H185	H	1.240673	-0.848203	0.420359
H186	H	1.740673	-0.348203	0.920359
H187	H	1.228260	-0.940813	0.536450
H188	H	1.728260	-0.440813	1.036450
H189	H	1.292542	-0.940806	0.472285
H190	H	1.792542	-0.440806	0.972285
C191	C	0.984971	-0.454784	0.972203
C192	C	1.484971	0.045216	1.472203
C193	C	1.029039	-0.416796	0.918932
C194	C	1.529039	0.083204	1.418932
H195	H	0.950901	-0.484180	0.944372
H196	H	1.450901	0.015820	1.444372
H197	H	0.954953	-0.425291	1.004169
H198	H	1.454953	0.074709	1.504169
H199	H	1.019175	-0.480653	1.004188
H200	H	1.519175	0.019347	1.504188
H201	H	0.994835	-0.390923	0.886951
H202	H	1.494835	0.109077	1.386951
H203	H	1.059060	-0.446293	0.886952
H204	H	1.559060	0.053707	1.386952
C205	C	1.229287	-1.147165	0.473154
C206	C	1.729287	-0.647165	0.973154
C207	C	1.239852	-1.077642	0.483746
C208	C	1.739852	-0.577642	0.983746
H209	H	1.263344	-1.171101	0.507262
H210	H	1.763344	-0.671101	1.007262
H211	H	1.240812	-1.158769	0.420432
H212	H	1.740812	-0.658769	0.920432
H213	H	1.176542	-1.158774	0.484599
H214	H	1.676542	-0.658774	0.984599
H215	H	1.292596	-1.066032	0.472295
H216	H	1.792596	-0.566032	0.972295
H217	H	1.228333	-1.066034	0.536481
H218	H	1.728333	-0.566034	1.036481
C219	C	0.985134	-0.975549	0.228649
C220	C	1.485134	-0.475549	0.728649
C221	C	1.029140	-0.929538	0.272750
C222	C	1.529140	-0.429538	0.772750
H223	H	0.951084	-0.951611	0.194535
H224	H	1.451084	-0.451611	0.694535
H225	H	0.955096	-1.003119	0.262824
H226	H	1.455096	-0.503119	0.762824
H227	H	1.019378	-1.003114	0.198669
H228	H	1.519378	-0.503114	0.698669
H229	H	0.994895	-0.901976	0.302735
H230	H	1.494895	-0.401976	0.802735
H231	H	1.059180	-0.901956	0.238571
H232	H	1.559180	-0.401956	0.738571
H233	H	1.225566	-0.247454	0.677849
H234	H	1.725566	0.252546	1.177849
H235	H	0.582705	-0.404703	0.469129
H236	H	1.082705	0.095297	0.969129
C237	C	1.283986	-0.197114	0.784985
C238	C	1.783986	0.302886	1.284985
C239	C	1.239901	-0.235085	0.838258
C240	C	1.739901	0.264915	1.338258
H241	H	1.318085	-0.167741	0.812814
H242	H	1.818085	0.332259	1.312814
H243	H	1.249800	-0.171227	0.753012
H244	H	1.749800	0.328773	1.253012
H245	H	1.313983	-0.226624	0.753006
H246	H	1.813983	0.273376	1.253006
H247	H	1.209900	-0.205574	0.870233
H248	H	1.709900	0.294426	1.370233
H249	H	1.274092	-0.260973	0.870244
H250	H	1.774092	0.239027	1.370244
H251	H	0.433977	-0.404706	0.469150
H252	H	0.933977	0.095294	0.969150
H253	H	0.433968	-0.247428	0.287326
H254	H	0.933968	0.252572	0.787326
C255	C	1.195426	-0.762520	0.534072
C256	C	1.695426	-0.262520	1.034072
C257	C	1.239700	-0.721874	0.483686
C258	C	1.739700	-0.221874	0.983686
H259	H	1.229493	-0.786449	0.568177
H260	H	1.729493	-0.286449	1.068177
H261	H	1.165568	-0.793728	0.504159
H262	H	1.665568	-0.293728	1.004159
H263	H	1.161198	-0.734946	0.564060
H264	H	1.661198	-0.234946	1.064060
H265	H	1.273924	-0.749449	0.453694
H266	H	1.773924	-0.249449	0.953694
H267	H	1.269571	-0.690663	0.513602
H268	H	1.769571	-0.190663	1.013602
C269	C	1.229331	-0.244117	1.171712
C270	C	1.729331	0.255883	1.671712
C271	C	1.239932	-0.235006	1.091104
C272	C	1.739932	0.264994	1.591104
H273	H	1.263411	-0.214727	1.199539
H274	H	1.763411	0.285273	1.699539
H275	H	1.240800	-0.289583	1.185140
H276	H	1.740800	0.210417	1.685140
H277	H	1.176592	-0.234208	1.185125
H278	H	1.676592	0.265792	1.685125
H279	H	1.292670	-0.244919	1.077690
H280	H	1.792670	0.255081	1.577690
H281	H	1.228468	-0.189529	1.077671
H282	H	1.728468	0.310471	1.577671
H283	H	0.686814	-0.247417	0.287297
H284	H	1.186814	0.252583	0.787297
H285	H	0.835546	-0.247405	0.287279
H286	H	1.335546	0.252595	0.787279
H287	H	1.225607	-0.247394	0.930696
H288	H	1.725607	0.252606	1.430696
H289	H	1.043319	-0.404463	0.826504
H290	H	1.543319	0.095537	1.326504
