data_functionalizedCrystal
_audit_creation_method	'MofGen! by Chris Wilmer'
_symmetry_space_group_name_H-M	'P1'
_symmetry_Int_Tables_number	1
_symmetry_cell_setting	triclinic
loop_
_symmetry_equiv_pos_as_xyz
  x,y,z
_cell_length_a	14.908795
_cell_length_b	18.101397
_cell_length_c	14.908854
_cell_angle_alpha	86.667946
_cell_angle_beta	90.167392
_cell_angle_gamma	93.310645
loop_
_atom_site_label
_atom_site_type_symbol
_atom_site_fract_x
_atom_site_fract_y
_atom_site_fract_z
Zn1	Zn	1.345333	-0.203336	-0.587831
Zn2	Zn	1.353909	-0.333906	-0.437457
Zn3	Zn	1.203642	-0.217601	-0.428797
Zn4	Zn	1.194940	-0.334668	-0.579082
O5	O	1.274456	-0.272378	-0.508292
O6	O	1.472299	-0.214367	-0.575169
O7	O	1.341207	-0.324130	-0.310481
O8	O	1.222490	-0.112072	-0.449930
O9	O	1.478600	-0.310297	-0.464690
O10	O	1.326590	-0.101591	-0.566772
O11	O	1.230806	-0.238681	-0.304119
O12	O	1.076659	-0.239419	-0.441447
O13	O	1.207659	-0.311595	-0.706069
O14	O	1.070266	-0.325427	-0.551861
O15	O	1.318153	-0.215106	-0.712497
O16	O	1.332769	-0.437645	-0.456207
O17	O	1.215975	-0.438204	-0.560258
C18	C	1.040837	-0.284054	-0.494765
C19	C	0.940893	-0.289066	-0.489000
C20	C	0.803313	-0.346001	-0.423264
C21	C	0.897219	-0.341295	-0.428681
C22	C	0.890653	-0.241539	-0.543904
C23	C	0.796746	-0.246245	-0.538487
C24	C	0.753079	-0.298479	-0.478166
C25	C	0.659171	-0.303188	-0.472755
C26	C	0.652606	-0.203430	-0.587972
C27	C	0.746512	-0.198723	-0.593389
C28	C	1.274382	-0.464794	-0.508244
C29	C	1.274430	-0.547105	-0.508258
C30	C	1.274540	-0.846187	-0.508347
C31	C	1.347841	-0.814497	-0.442683
C32	C	1.348071	-0.728858	-0.442877
C33	C	1.274486	-0.697809	-0.508302
C34	C	1.294705	-0.723295	-0.604563
C35	C	1.295263	-0.808931	-0.604215
C36	C	1.180788	-0.820542	-0.478558
C37	C	1.181380	-0.734964	-0.476470
C38	C	1.274453	-0.613952	-0.508282
C39	C	1.274575	-0.930043	-0.508373
C40	C	1.508987	-0.260656	-0.521872
C41	C	1.608930	-0.255661	-0.527659
C42	C	1.260979	-0.261844	-0.742821
C43	C	1.255235	-0.257355	-0.842764
C44	C	1.274554	-0.079208	-0.508361
C45	C	1.274596	0.003110	-0.508391
C46	C	1.359425	-0.337895	-1.037194
C47	C	1.354031	-0.333679	-1.131099
C48	C	1.239060	-0.244704	-1.124481
C49	C	1.244454	-0.248920	-1.030576
C50	C	1.304637	-0.295517	-0.986936
C51	C	1.310025	-0.299737	-0.893029
C52	C	1.195060	-0.210759	-0.886412
C53	C	1.189666	-0.206543	-0.980317
C54	C	1.287933	-0.282815	-0.274678
C55	C	1.293850	-0.287086	-0.174746
H56	H	1.336054	-0.711841	-0.371673
H57	H	0.938116	-0.379992	-0.383973
H58	H	1.166035	-0.718791	-0.405602
H59	H	1.140669	-0.168603	-1.015862
H60	H	1.408432	-0.375832	-1.001663
H61	H	0.782079	-0.156195	-0.642498
H62	H	0.623619	-0.345722	-0.423641
H63	H	1.417628	-0.704070	-0.463022
H64	H	0.926223	-0.199009	-0.593009
H65	H	0.767758	-0.388537	-0.374156
H66	H	0.611695	-0.164734	-0.632679
H67	H	1.363629	-0.824450	-0.628809
H68	H	1.417024	-0.831747	-0.462620
H69	H	1.150447	-0.176253	-0.845481
H70	H	1.336031	-0.839084	-0.371279
H71	H	1.243914	-0.829672	-0.655123
H72	H	1.398646	-0.368186	-1.172017
H73	H	1.190068	-0.206763	-1.160029
H74	H	1.242712	-0.703002	-0.655040
H75	H	1.362273	-0.697412	-0.629460
H76	H	1.161337	-0.846407	-0.409295
H77	H	1.124270	-0.714199	-0.520353
H78	H	1.359034	-0.337675	-0.857499
H79	H	1.126241	-0.841123	-0.526317
