data_functionalizedCrystal
_audit_creation_method	'MofGen! by Chris Wilmer'
_symmetry_space_group_name_H-M	'P1'
_symmetry_Int_Tables_number	1
_symmetry_cell_setting	triclinic
loop_
_symmetry_equiv_pos_as_xyz
  x,y,z
_cell_length_a	10.723024
_cell_length_b	17.666332
_cell_length_c	10.723024
_cell_angle_alpha	90.005257
_cell_angle_beta	84.467869
_cell_angle_gamma	90.009033
loop_
_atom_site_label
_atom_site_type_symbol
_atom_site_fract_x
_atom_site_fract_y
_atom_site_fract_z
O1	O	1.657197	0.062941	0.175029
O2	O	2.157197	0.562941	0.675029
O3	O	1.294045	0.062944	0.191783
O4	O	1.794045	0.562944	0.691783
O5	O	1.483998	0.062940	0.001830
O6	O	1.983998	0.562940	0.501830
O7	O	1.467244	0.062945	0.364982
O8	O	1.967244	0.562945	0.864982
O9	O	1.483964	-0.062957	0.001819
O10	O	1.983964	0.437043	0.501819
O11	O	1.294011	-0.062953	0.191772
O12	O	1.794011	0.437047	0.691772
O13	O	1.657163	-0.062955	0.175019
O14	O	2.157163	0.437045	0.675019
Cu15	Cu	1.475584	-0.074450	0.183395
Cu16	Cu	1.975584	0.425550	0.683395
Cu17	Cu	1.475624	0.074438	0.183407
Cu18	Cu	1.975624	0.574438	0.683407
O19	O	1.467211	-0.062951	0.364972
O20	O	1.967211	0.437049	0.864972
C21	C	1.247528	-0.000004	0.190558
C22	C	1.747528	0.499996	0.690558
C23	C	1.108974	-0.000003	0.186911
C24	C	1.608974	0.499997	0.686911
N25	N	1.475565	-0.179169	0.183385
N26	N	1.975565	0.320831	0.683385
C27	C	1.033991	-0.000001	0.293198
C28	C	1.533991	0.499999	0.793198
C29	C	0.890788	-0.000000	0.289431
C30	C	1.390788	0.500000	0.789431
C31	C	1.559704	-0.218781	0.099316
C32	C	2.059704	0.281219	0.599316
C33	C	1.559711	-0.298028	0.099310
C34	C	2.059711	0.201972	0.599310
C35	C	1.475592	-0.337661	0.183395
C36	C	1.975592	0.162339	0.683395
C37	C	1.391437	-0.298040	0.267471
C38	C	1.891437	0.201960	0.767471
C39	C	1.391424	-0.218794	0.267466
C40	C	1.891424	0.281206	0.767466
N41	N	1.460652	-0.462078	0.293680
N42	N	1.960652	0.037922	0.793680
N43	N	1.460672	-0.537358	0.293681
N44	N	1.960672	-0.037358	0.793681
C45	C	1.475625	-0.576425	0.183413
C46	C	1.975625	-0.076425	0.683413
N47	N	1.490581	-0.537368	0.073140
N48	N	1.990581	-0.037368	0.573140
N49	N	1.490568	-0.462080	0.073141
N50	N	1.990568	0.037920	0.573141
C51	C	1.475596	-0.423590	0.183409
C52	C	1.975596	0.076410	0.683409
C53	C	1.559776	-0.701966	0.099330
C54	C	2.059776	-0.201966	0.599330
C55	C	1.559775	-0.781215	0.099322
C56	C	2.059775	-0.281215	0.599322
C57	C	1.391506	-0.781226	0.267494
C58	C	1.891506	-0.281226	0.767494
C59	C	1.391502	-0.701978	0.267491
C60	C	1.891502	-0.201978	0.767491
C61	C	1.475643	-0.662353	0.183410
C62	C	1.975643	-0.162353	0.683410
C63	C	1.703680	-0.000006	0.176243
C64	C	2.203680	0.499994	0.676243
C65	C	1.842234	-0.000002	0.179891
C66	C	2.342234	0.499998	0.679891
C67	C	1.482762	-0.000008	-0.044675
C68	C	1.982762	0.499992	0.455325
C69	C	1.479114	-0.000005	-0.183229
C70	C	1.979114	0.499995	0.316771
N71	N	1.475653	0.179157	0.183407
N72	N	1.975653	0.679157	0.683407
C73	C	1.585401	-0.000005	-0.258212
C74	C	2.085401	0.499995	0.241788
C75	C	1.581634	-0.000002	-0.401415
C76	C	2.081634	0.499998	0.098585
C77	C	1.468447	-0.000002	0.411477
C78	C	1.968447	0.499998	0.911477
C79	C	1.472094	0.000000	0.550031
C80	C	1.972094	0.500000	1.050031
H81	H	1.075814	-0.000004	0.386984
H82	H	1.575814	0.499996	0.886984
O83	O	1.650481	-0.340763	0.008644
O84	O	2.150481	0.159237	0.508644
H85	H	1.633778	-0.325565	-0.088793
H86	H	2.133778	0.174435	0.411207
O87	O	1.354878	-0.000003	-0.238618
O88	O	1.854878	0.499997	0.261382
H89	H	1.277593	0.000001	-0.161909
H90	H	1.777593	0.500001	0.338091
H91	H	1.679187	-0.000010	-0.216390
H92	H	2.179187	0.499990	0.283610
H93	H	0.826355	0.000005	0.380421
H94	H	1.326355	0.500005	0.880421
O95	O	1.300753	-0.659255	0.358180
O96	O	1.800753	-0.159255	0.858180
H97	H	1.239644	-0.623171	0.305089
H98	H	1.739644	-0.123171	0.805089
H99	H	1.381099	-0.000005	-0.385544
H100	H	1.881099	0.499995	0.114456
O101	O	1.650436	-0.176040	0.008618
O102	O	2.150436	0.323960	0.508618
H103	H	1.708936	-0.216904	-0.049852
H104	H	2.208936	0.283096	0.450148
O105	O	1.053597	-0.000010	0.062669
O106	O	1.553597	0.499990	0.562669
H107	H	0.994953	0.051305	0.055747
H108	H	1.494953	0.551305	0.555747
H109	H	1.322943	-0.330313	0.335932
H110	H	1.822943	0.169687	0.835932
O111	O	1.300775	-0.823959	0.358193
O112	O	1.800775	-0.323959	0.858193
H113	H	1.314923	-0.885720	0.344080
H114	H	1.814923	-0.385720	0.844080
O115	O	1.702173	-0.000003	-0.486748
O116	O	2.202173	0.499997	0.013252
H117	H	1.680298	0.000003	-0.585834
H118	H	2.180298	0.500003	-0.085834
H119	H	1.322906	-0.186542	0.335926
H120	H	1.822906	0.313458	0.835926
H121	H	1.628286	-0.669702	0.030863
H122	H	2.128286	-0.169702	0.530863
O123	O	1.650542	-0.823945	0.008657
O124	O	2.150542	-0.323945	0.508657
H125	H	1.709057	-0.783075	-0.049793
H126	H	2.209057	-0.283075	0.450207
H127	H	0.906659	0.000001	0.088896
H128	H	1.406659	0.500001	0.588896
