data_functionalizedCrystal
_audit_creation_method	'MofGen! by Chris Wilmer'
_symmetry_space_group_name_H-M	'P1'
_symmetry_Int_Tables_number	1
_symmetry_cell_setting	triclinic
loop_
_symmetry_equiv_pos_as_xyz
  x,y,z
_cell_length_a	14.044220
_cell_length_b	14.044220
_cell_length_c	11.804365
_cell_angle_alpha	102.927057
_cell_angle_beta	77.060035
_cell_angle_gamma	93.188878
loop_
_atom_site_label
_atom_site_type_symbol
_atom_site_fract_x
_atom_site_fract_y
_atom_site_fract_z
O1	O	1.294803	0.212544	-0.098903
O2	O	1.794803	0.712544	0.401097
O3	O	1.018137	0.204233	-0.098932
O4	O	1.518137	0.704233	0.401068
O5	O	1.152315	0.070055	-0.098906
O6	O	1.652315	0.570055	0.401094
O7	O	1.160625	0.346722	-0.098929
O8	O	1.660625	0.846722	0.401071
O9	O	1.116988	0.105340	0.099143
O10	O	1.616988	0.605340	0.599143
O11	O	0.982810	0.239518	0.099117
O12	O	1.482810	0.739518	0.599117
O13	O	1.259476	0.247829	0.099146
O14	O	1.759476	0.747829	0.599146
Cu15	Cu	1.117917	0.246895	0.117215
Cu16	Cu	1.617917	0.746895	0.617215
Cu17	Cu	1.159696	0.205167	-0.117001
Cu18	Cu	1.659696	0.705167	0.382999
O19	O	1.125298	0.382007	0.099120
O20	O	1.625298	0.882007	0.599120
C21	C	0.964852	0.218239	0.000088
C22	C	1.464852	0.718239	0.500088
C23	C	0.858712	0.207393	0.000077
C24	C	1.358712	0.707393	0.500077
C25	C	0.664369	0.187571	0.000102
C26	C	1.164369	0.687571	0.500102
C27	C	0.613240	0.264485	0.000101
C28	C	1.113240	0.764485	0.500101
C29	C	0.505101	0.253456	0.000115
C30	C	1.005101	0.753456	0.500115
C31	C	0.772518	0.198598	0.000088
C32	C	1.272518	0.698598	0.500088
C33	C	1.131016	0.052075	0.000118
C34	C	1.631016	0.552075	0.500118
C35	C	1.120171	-0.054067	0.000119
C36	C	1.620171	0.445933	0.500119
C37	C	1.100349	-0.248408	0.000099
C38	C	1.600349	0.251592	0.500099
C39	C	1.177262	-0.299537	0.000104
C40	C	1.677262	0.200463	0.500104
C41	C	1.166233	-0.407676	0.000093
C42	C	1.666233	0.092324	0.500093
C43	C	1.111377	-0.140260	0.000110
C44	C	1.611377	0.359740	0.500110
C45	C	1.312761	0.233822	0.000123
C46	C	1.812761	0.733822	0.500123
C47	C	1.418903	0.244667	0.000126
C48	C	1.918903	0.744667	0.500126
C49	C	1.146598	0.399986	0.000093
C50	C	1.646598	0.899986	0.500093
C51	C	1.157444	0.506127	0.000085
C52	C	1.657444	1.006127	0.500085
N53	N	1.088539	0.276245	0.281950
N54	N	1.588539	0.776245	0.781950
N55	N	1.189081	0.175810	-0.281736
N56	N	1.689081	0.675810	0.218264
C57	C	1.259626	0.105312	0.655932
C58	C	1.759626	0.605312	1.155932
C59	C	1.281849	0.083105	0.531275
C60	C	1.781849	0.583105	1.031275
C61	C	1.233523	0.131388	0.468937
C62	C	1.733523	0.631388	0.968937
C63	C	1.162971	0.201882	0.531270
C64	C	1.662971	0.701882	1.031270
C65	C	1.140752	0.224097	0.655939
C66	C	1.640752	0.724097	1.155939
C67	C	1.114649	0.250173	0.468944
C68	C	1.614649	0.750173	0.968944
C69	C	1.044097	0.320667	0.531277
C70	C	1.544097	0.820667	1.031277
C71	C	1.021880	0.342878	0.655934
C72	C	1.521880	0.842878	1.155934
C73	C	1.070206	0.294595	0.718271
C74	C	1.570206	0.794595	1.218271
C75	C	1.136868	0.227958	0.344275
C76	C	1.636868	0.727958	0.844275
C77	C	1.017994	0.346743	0.344282
C78	C	1.517994	0.846743	0.844282
C79	C	0.995771	0.368950	0.468939
C80	C	1.495771	0.868950	0.968939
H81	H	1.251408	-0.262111	0.000032
H82	H	1.751408	0.237889	0.500032
N83	N	0.617393	0.094585	0.000119
N84	N	1.117393	0.594585	0.500119
N85	N	0.528340	0.085647	0.000128
N86	N	1.028340	0.585647	0.500128
H87	H	0.495152	0.019976	0.000137
H88	H	0.995152	0.519976	0.500137
N89	N	1.007363	-0.295385	0.000081
N90	N	1.507363	0.204615	0.500081
N91	N	0.998424	-0.384438	0.000074
N92	N	1.498424	0.115562	0.500074
H93	H	0.932754	-0.417626	0.000064
H94	H	1.432754	0.082374	0.500064
H95	H	1.194312	0.170562	0.293535
H96	H	1.694312	0.670562	0.793535
N97	N	1.256239	0.108700	0.341604
N98	N	1.756239	0.608700	0.841604
N99	N	1.319233	0.045760	0.285965
N100	N	1.819233	0.545760	0.785965
H101	H	1.335279	0.029732	0.196030
H102	H	1.835279	0.529732	0.696030
H103	H	1.339293	0.025710	0.480528
H104	H	1.839293	0.525710	0.980528
H105	H	0.964441	0.400286	0.706685
H106	H	1.464441	0.900286	1.206685
H107	H	0.650681	0.338616	0.000089
H108	H	1.150681	0.838616	0.500089
N109	N	1.047480	0.317278	0.845610
N110	N	1.547480	0.817278	1.345610
N111	N	0.984480	0.380212	0.901252
N112	N	1.484480	0.880212	1.401252
H113	H	0.968422	0.396223	0.991187
H114	H	1.468422	0.896223	1.491187
H115	H	1.298972	0.066012	0.706695
H116	H	1.798972	0.566012	1.206695
H117	H	0.938326	0.426349	0.519706
H118	H	1.438326	0.926349	1.019706
N119	N	0.968641	0.396068	0.280602
N120	N	1.468641	0.896068	0.780602
N121	N	0.988490	0.376227	0.169297
N122	N	1.488490	0.876227	0.669297
H123	H	0.953642	0.411062	0.124314
H124	H	1.453642	0.911062	0.624314
