data_functionalizedCrystal
_audit_creation_method	'MofGen! by Chris Wilmer'
_symmetry_space_group_name_H-M	'P1'
_symmetry_Int_Tables_number	1
_symmetry_cell_setting	triclinic
loop_
_symmetry_equiv_pos_as_xyz
  x,y,z
_cell_length_a	23.532355
_cell_length_b	26.809956
_cell_length_c	23.532357
_cell_angle_alpha	90.001214
_cell_angle_beta	97.172118
_cell_angle_gamma	89.995073
loop_
_atom_site_label
_atom_site_type_symbol
_atom_site_fract_x
_atom_site_fract_y
_atom_site_fract_z
O1	O	-0.755271	0.041441	0.068988
O2	O	-0.589401	0.041452	0.079022
O3	O	-0.677353	0.041436	-0.008930
O4	O	-0.667320	0.041457	0.156939
O5	O	-0.677336	-0.041523	-0.008916
O6	O	-0.589385	-0.041507	0.079035
O7	O	-0.755254	-0.041519	0.069001
Zn8	Zn	-0.672317	-0.054684	0.074020
Zn9	Zn	-0.672339	0.054618	0.074003
O10	O	-0.667303	-0.041502	0.156953
C11	C	-0.568177	-0.000026	0.078778
C12	C	-0.504958	-0.000022	0.078024
N13	N	-0.672306	-0.129280	0.074032
C14	C	-0.231723	0.045194	0.074718
C15	C	-0.291123	0.045196	0.075432
O16	O	-0.321857	0.083654	0.075775
N17	N	-0.320820	-0.000025	0.075800
C18	C	-0.291114	-0.045251	0.075448
O19	O	-0.321828	-0.083715	0.075826
C20	C	-0.231716	-0.045252	0.074730
C21	C	-0.202022	-0.000028	0.074368
C22	C	-0.202029	0.090414	0.074356
C23	C	-0.142633	0.090412	0.073643
C24	C	-0.112932	0.045190	0.073293
C25	C	-0.142626	-0.000030	0.073656
C26	C	-0.202012	-0.090478	0.074374
C27	C	-0.142610	-0.090475	0.073656
C28	C	-0.112916	-0.045251	0.073294
C29	C	-0.053529	-0.045254	0.072593
N30	N	-0.023832	-0.000033	0.072225
C31	C	-0.053534	0.045189	0.072575
C32	C	-0.415855	-0.045245	0.076955
C33	C	-0.475251	-0.045245	0.077677
C34	C	-0.475256	0.045202	0.077660
C35	C	-0.415858	0.045201	0.076942
C36	C	-0.386158	-0.000024	0.076587
C37	C	0.071202	0.045181	0.071079
C38	C	0.130604	0.045176	0.070368
C39	C	0.130603	-0.045271	0.070383
C40	C	0.071207	-0.045265	0.071096
C41	C	0.041508	-0.000035	0.071442
O42	O	-0.022758	-0.083693	0.072247
O43	O	-0.022814	0.083646	0.072189
C44	C	-0.711279	-0.473914	0.035067
C45	C	-0.711292	-0.682791	0.035058
O46	O	-0.744405	-0.709801	0.001933
N47	N	-0.672342	-0.708907	0.073990
C48	C	-0.633383	-0.682801	0.112924
O49	O	-0.600250	-0.709807	0.146034
C50	C	-0.633367	-0.473924	0.112930
C51	C	-0.672324	-0.447811	0.073999
C52	C	-0.750232	-0.447800	-0.003860
C53	C	-0.750230	-0.395584	-0.003856
C54	C	-0.711275	-0.369481	0.035076
C55	C	-0.672322	-0.395595	0.074004
C56	C	-0.594406	-0.447819	0.151861
C57	C	-0.594405	-0.395596	0.151858
C58	C	-0.633361	-0.369483	0.112927
C59	C	-0.633366	-0.317275	0.112941
N60	N	-0.672316	-0.291159	0.074009
C61	C	-0.711271	-0.317262	0.035077
C62	C	-0.633395	-0.792464	0.112919
C63	C	-0.633399	-0.844683	0.112919
C64	C	-0.711308	-0.844670	0.035052
C65	C	-0.711306	-0.792450	0.035056
C66	C	-0.672345	-0.766348	0.073988
C67	C	-0.711265	-0.207604	0.035090
C68	C	-0.711261	-0.155383	0.035100
C69	C	-0.633351	-0.155401	0.112964
C70	C	-0.633356	-0.207617	0.112957
C71	C	-0.672315	-0.233718	0.074015
O72	O	-0.600266	-0.290233	0.146045
O73	O	-0.744390	-0.290247	0.001964
C74	C	-0.711280	-0.526130	0.035063
C75	C	-0.672327	-0.552243	0.073990
C76	C	-0.633373	-0.526141	0.112922
C77	C	-0.672332	-0.604462	0.073990
C78	C	-0.711287	-0.630565	0.035057
C79	C	-0.750237	-0.604449	-0.003874
C80	C	-0.750235	-0.552233	-0.003870
C81	C	-0.594422	-0.552257	0.151854
C82	C	-0.594428	-0.604473	0.151847
C83	C	-0.633382	-0.630576	0.112914
C84	C	0.223522	-0.000041	0.069250
C85	C	0.160305	-0.000047	0.070018
C86	C	-0.677094	-0.000045	-0.030140
C87	C	-0.676339	-0.000050	-0.093358
N88	N	-0.672354	0.129214	0.073986
C89	C	-0.671611	0.045198	-0.485376
C90	C	-0.670894	0.045201	-0.544775
O91	O	-0.670511	0.083660	-0.575498
N92	N	-0.670529	-0.000019	-0.574479
C93	C	-0.670876	-0.045245	-0.544780
O94	O	-0.670499	-0.083709	-0.575499
C95	C	-0.671589	-0.045248	-0.485381
C96	C	-0.671960	-0.000024	-0.455681
C97	C	-0.671981	0.090418	-0.455676
C98	C	-0.672699	0.090415	-0.396281
C99	C	-0.673048	0.045192	-0.366586
C100	C	-0.672678	-0.000028	-0.396286
C101	C	-0.671932	-0.090474	-0.455682
C102	C	-0.672645	-0.090472	-0.396279
C103	C	-0.673015	-0.045249	-0.366579
C104	C	-0.673745	-0.045253	-0.307196
N105	N	-0.674109	-0.000033	-0.277492
C106	C	-0.673761	0.045190	-0.307187
C107	C	-0.669377	-0.045237	-0.669521
C108	C	-0.668668	-0.045235	-0.728919
C109	C	-0.668685	0.045212	-0.728910
C110	C	-0.669398	0.045209	-0.669512
C111	C	-0.669742	-0.000017	-0.639817
C112	C	-0.675270	0.045180	-0.182453
C113	C	-0.675991	0.045173	-0.123053
C114	C	-0.675971	-0.045274	-0.123067
C115	C	-0.675253	-0.045267	-0.182462
C116	C	-0.674901	-0.000036	-0.212153
O117	O	-0.674125	-0.083693	-0.276435
O118	O	-0.674130	0.083647	-0.276459
C119	C	-0.667562	-0.000020	0.178163
C120	C	-0.668317	-0.000012	0.241381
H121	H	0.047028	0.082012	0.071361
O122	O	-0.669796	-0.089142	-0.640628
C123	C	-0.719548	-0.091862	-0.613024
H124	H	-0.736108	-0.052601	-0.606363
H125	H	-0.708953	-0.111010	-0.569744
H126	H	-0.753814	-0.114176	-0.640643
H127	H	-0.781950	-0.374326	-0.035558
H128	H	0.154778	0.082004	0.070075
O129	O	-0.676203	-0.089186	-0.094170
C130	C	-0.627289	-0.091868	-0.053061
H131	H	-0.592605	-0.066200	-0.066258
H132	H	-0.610722	-0.131860	-0.050113
H133	H	-0.638987	-0.079711	-0.009571
H134	H	0.154797	-0.082090	0.070100
O135	O	-0.787960	-0.526852	-0.041787
C136	C	-0.757600	-0.496713	-0.076767
H137	H	-0.712940	-0.488853	-0.053781
H138	H	-0.781424	-0.460007	-0.086026
H139	H	-0.753886	-0.516906	-0.118779
H140	H	-0.672999	0.127241	-0.372104
O141	O	-0.113885	0.134388	0.073258
C142	C	-0.152846	0.174297	0.073731
H143	H	-0.197649	0.161029	0.056216
H144	H	-0.139476	0.205920	0.045858
H145	H	-0.152917	0.188213	0.119501
O146	O	-0.672997	-0.134451	-0.367525
C147	C	-0.672498	-0.174361	-0.406479
H148	H	-0.690030	-0.161103	-0.451283
H149	H	-0.700343	-0.205999	-0.393099
H150	H	-0.626718	-0.188252	-0.406554
O151	O	-0.671475	-0.134377	-0.484564
C152	C	-0.621710	-0.137074	-0.512152
H153	H	-0.605185	-0.097805	-0.518819
H154	H	-0.632275	-0.156235	-0.555428
H155	H	-0.587430	-0.159364	-0.484517
O156	O	-0.674799	-0.089207	-0.211281
C157	C	-0.625647	-0.116723	-0.190014
H158	H	-0.591369	-0.090263	-0.168964
H159	H	-0.608610	-0.137231	-0.226814
H160	H	-0.637214	-0.144925	-0.157066
O161	O	-0.230927	0.134315	0.074775
C162	C	-0.258525	0.137037	0.124532
H163	H	-0.265181	0.097776	0.141089
H164	H	-0.301807	0.156186	0.113943
H165	H	-0.230903	0.159350	0.158797
H166	H	-0.391685	0.082027	0.076647
H167	H	-0.391676	-0.082075	0.076673
O168	O	-0.504075	0.089146	0.078096
C169	C	-0.482816	0.116674	0.127239
H170	H	-0.461769	0.090223	0.161530
H171	H	-0.519621	0.137188	0.144261
H172	H	-0.449868	0.144873	0.115664
H173	H	-0.226180	-0.127304	0.074668
O174	O	-0.504007	-0.089220	0.078008
C175	C	-0.465045	-0.129131	0.077562
H176	H	-0.425171	-0.115872	0.059018
H177	H	-0.485979	-0.160765	0.050120
H178	H	-0.452480	-0.143028	0.123186
O179	O	-0.556503	-0.370219	0.189601
C180	C	-0.521556	-0.340006	0.159288
H181	H	-0.520862	-0.355739	0.114374
H182	H	-0.476152	-0.339422	0.182762
H183	H	-0.539393	-0.300428	0.156216
H184	H	-0.118431	-0.127304	0.073372
H185	H	0.047030	-0.082091	0.071402
H186	H	-0.742986	-0.134123	0.003398
H187	H	-0.742988	-0.228849	0.003379
H188	H	-0.781953	-0.469049	-0.035566
H189	H	-0.743027	-0.771192	0.003355
H190	H	-0.743027	-0.865932	0.003353
O191	O	-0.595506	-0.869969	0.150761
C192	C	-0.561134	-0.835726	0.185130
H193	H	-0.560631	-0.798504	0.161780
H194	H	-0.515601	-0.850816	0.194057
H195	H	-0.579375	-0.830169	0.227342
O196	O	-0.671720	0.134320	-0.484589
C197	C	-0.720650	0.137032	-0.525676
H198	H	-0.736978	0.097767	-0.536833
H199	H	-0.709062	0.156183	-0.565925
H200	H	-0.755475	0.159337	-0.507496
O201	O	-0.595628	-0.767059	0.150770
C202	C	-0.625919	-0.736861	0.185759
H203	H	-0.670612	-0.729024	0.162837
H204	H	-0.602087	-0.700148	0.194907
H205	H	-0.629551	-0.756992	0.227825
O206	O	-0.556507	-0.473100	0.189699
C207	C	-0.522137	-0.438853	0.224063
H208	H	-0.521638	-0.401631	0.200711
H209	H	-0.476602	-0.453938	0.232988
H210	H	-0.540375	-0.433295	0.266277
O211	O	-0.676425	0.089086	-0.094175
C212	C	-0.726151	0.091798	-0.066530
H213	H	-0.760435	0.066158	-0.089148
H214	H	-0.742698	0.131802	-0.068094
H215	H	-0.715533	0.079628	-0.019997
H216	H	-0.674980	0.082011	-0.206621
H217	H	-0.601640	-0.228879	0.144663
H218	H	-0.601636	-0.134140	0.144664
H219	H	-0.781957	-0.625711	-0.035573
H220	H	-0.562706	-0.625731	0.183553
H221	H	-0.562700	-0.531008	0.183557
O222	O	-0.669728	0.089183	-0.640747
C223	C	-0.669284	0.129095	-0.679704
H224	H	-0.650742	0.115836	-0.719581
H225	H	-0.641842	0.160727	-0.658767
H226	H	-0.714909	0.142996	-0.692265
H227	H	-0.668400	0.082035	-0.753099
H228	H	-0.668375	-0.082061	-0.753097
