data_functionalizedCrystal
_audit_creation_method	'MofGen! by Chris Wilmer'
_symmetry_space_group_name_H-M	'P1'
_symmetry_Int_Tables_number	1
_symmetry_cell_setting	triclinic
loop_
_symmetry_equiv_pos_as_xyz
  x,y,z
_cell_length_a	12.376457
_cell_length_b	16.109301
_cell_length_c	16.109301
_cell_angle_alpha	83.461481
_cell_angle_beta	101.271640
_cell_angle_gamma	78.712882
loop_
_atom_site_label
_atom_site_type_symbol
_atom_site_fract_x
_atom_site_fract_y
_atom_site_fract_z
O1	O	0.093935	-1.119069	-0.090939
O2	O	0.093954	-0.877010	-0.104235
O3	O	0.093933	-1.004687	0.023442
O4	O	0.093957	-0.991392	-0.218616
O5	O	-0.094074	-0.972779	-0.008434
O6	O	-0.094053	-0.845102	-0.136111
O7	O	-0.094071	-1.087161	-0.122815
Zn8	Zn	-0.123912	-0.961065	-0.134524
Zn9	Zn	0.123795	-1.003105	-0.092526
O10	O	-0.094050	-0.959484	-0.250492
C11	C	-0.000047	-0.830081	-0.119634
C12	C	-0.000041	-0.737787	-0.118018
N13	N	-0.292966	-0.932380	-0.163185
C14	C	-0.000068	-1.134090	-0.107415
C15	C	-0.000067	-1.226385	-0.109030
C16	C	-0.647978	-1.098385	0.002692
C17	C	-0.529642	-1.118457	0.022753
C18	C	-0.470467	-1.071939	-0.023730
C19	C	-0.529640	-1.005346	-0.090277
C20	C	-0.647988	-0.985277	-0.110344
C21	C	-0.470477	-0.958831	-0.136766
C22	C	-0.529650	-0.892238	-0.203313
C23	C	-0.647987	-0.872172	-0.223376
C24	C	-0.707162	-0.918689	-0.176894
C25	C	-0.352129	-0.978901	-0.116699
C26	C	-0.352139	-0.865793	-0.229735
C27	C	-0.470476	-0.845721	-0.249796
N28	N	0.292848	-1.031797	-0.063858
C29	C	-0.000071	-0.988194	0.038479
C30	C	-0.000073	-0.986579	0.130774
C31	C	-0.000047	-0.515514	-0.190026
C32	C	-0.000054	-0.428792	-0.188503
C33	C	-0.000064	-0.448665	-0.037016
C34	C	-0.000065	-0.535383	-0.038541
C35	C	-0.000050	-0.568806	-0.115048
C36	C	-0.000057	-0.395366	-0.112000
C37	C	-0.000065	-0.301339	-0.110348
C38	C	-0.000045	-0.662839	-0.116700
C39	C	-0.000044	-0.975977	-0.265528
C40	C	-0.000035	-0.977594	-0.357822
C41	C	-0.000060	-1.058589	0.353049
C42	C	-0.000051	-1.057066	0.439771
C43	C	-0.000044	-0.905579	0.419897
C44	C	-0.000045	-0.907103	0.333178
C45	C	-0.000059	-0.983610	0.299756
C46	C	-0.000048	-0.980563	0.473197
C47	C	-0.000038	-0.978911	0.567224
C48	C	-0.000067	-0.985262	0.205722
H49	H	-0.303961	-1.033121	-0.062517
C50	C	-0.000050	-0.821422	0.456667
N51	N	-0.000064	-0.758032	0.484360
H52	H	-0.000041	-0.846043	0.289785
H53	H	-0.374112	-1.088285	-0.007393
H54	H	-0.481467	-1.172676	0.076934
H55	H	-0.696166	-1.136258	0.040528
C56	C	-0.000063	-1.142750	0.316289
N57	N	-0.000060	-1.206144	0.288605
H58	H	-0.000053	-0.385404	-0.249559
C59	C	-0.837340	-0.896596	-0.198941
N60	N	-0.935392	-0.879952	-0.215540
H61	H	-0.696166	-0.817954	-0.277569
C62	C	-0.000070	-0.411893	0.047138
N63	N	-0.000070	-0.384198	0.110526
C64	C	-0.535581	-0.772468	-0.322995
N65	N	-0.584621	-0.717293	-0.378128
C66	C	-0.287052	-0.814618	-0.280868
N67	N	-0.238021	-0.776078	-0.319379
H68	H	-0.000049	-1.118122	0.483159
H69	H	-0.000043	-0.542722	-0.252324
C70	C	-0.000070	-0.594009	0.043945
N71	N	-0.000076	-0.638165	0.106071
