data_functionalizedCrystal
_audit_creation_method	'MofGen! by Chris Wilmer'
_symmetry_space_group_name_H-M	'P1'
_symmetry_Int_Tables_number	1
_symmetry_cell_setting	triclinic
loop_
_symmetry_equiv_pos_as_xyz
  x,y,z
_cell_length_a	9.065218
_cell_length_b	9.065218
_cell_length_c	8.140239
_cell_angle_alpha	90.003526
_cell_angle_beta	90.000461
_cell_angle_gamma	85.015885
loop_
_atom_site_label
_atom_site_type_symbol
_atom_site_fract_x
_atom_site_fract_y
_atom_site_fract_z
O1	O	-1.960393	-0.216359	-0.136610
O2	O	-1.460393	0.283641	0.363390
O3	O	-1.531108	-0.234105	-0.136612
O4	O	-1.031108	0.265895	0.363388
O5	O	-1.754623	-0.010590	-0.136608
O6	O	-1.254623	0.489410	0.363392
O7	O	-1.736877	-0.439875	-0.136615
O8	O	-1.236877	0.060125	0.363385
O9	O	-1.754622	-0.010578	0.136619
O10	O	-1.254622	0.489422	0.636619
O11	O	-1.531106	-0.234094	0.136615
O12	O	-1.031106	0.265906	0.636615
O13	O	-1.960391	-0.216347	0.136617
O14	O	-1.460391	0.283653	0.636617
Zn15	Zn	-1.745748	-0.225219	0.179997
Zn16	Zn	-1.245748	0.274781	0.679997
Zn17	Zn	-1.745750	-0.225234	-0.179992
Zn18	Zn	-1.245750	0.274766	0.320008
O19	O	-1.736875	-0.439863	0.136613
O20	O	-1.236875	0.060137	0.636613
C21	C	-1.476120	-0.232394	0.000001
C22	C	-0.976120	0.267606	0.500001
C23	C	-1.312277	-0.227294	0.000000
C24	C	-0.812277	0.272706	0.500000
C25	C	-1.752917	0.044403	0.000003
C26	C	-1.252917	0.544403	0.500003
C27	C	-1.747817	0.208245	-0.000005
C28	C	-1.247817	0.708245	0.499995
N29	N	-1.745753	-0.225234	-0.425674
N30	N	-1.245753	0.274766	0.074326
C31	C	-2.015378	-0.218059	-0.000000
C32	C	-1.515378	0.281941	0.500000
C33	C	-2.179221	-0.223158	-0.000010
C34	C	-1.679221	0.276842	0.499990
C35	C	-1.738582	-0.494855	-0.000002
C36	C	-1.238582	0.005145	0.499998
C37	C	-1.743681	-0.658698	-0.000005
C38	C	-1.243681	-0.158698	0.499995
N39	N	-1.745757	-0.225208	0.425679
N40	N	-1.245757	0.274792	0.925679
