data_functionalizedCrystal
_audit_creation_method	'MofGen! by Chris Wilmer'
_symmetry_space_group_name_H-M	'P1'
_symmetry_Int_Tables_number	1
_symmetry_cell_setting	triclinic
loop_
_symmetry_equiv_pos_as_xyz
  x,y,z
_cell_length_a	6.817900
_cell_length_b	10.773890
_cell_length_c	10.773894
_cell_angle_alpha	96.485539
_cell_angle_beta	96.645922
_cell_angle_gamma	96.645716
loop_
_atom_site_label
_atom_site_type_symbol
_atom_site_fract_x
_atom_site_fract_y
_atom_site_fract_z
V1	V	-3.915798	-0.168034	-0.386966
O2	O	-3.940463	0.012792	-0.381691
O3	O	-3.834375	-0.337720	-0.382308
O4	O	-3.834377	-0.163379	-0.556653
O5	O	-3.940461	-0.162756	-0.206139
V6	V	-4.407984	-0.146649	-0.365582
O7	O	-4.158054	-0.214942	-0.433873
O8	O	-4.615925	-0.099741	-0.318674
O9	O	-4.266200	0.023037	-0.370240
O10	O	-4.500717	-0.327476	-0.370857
O11	O	-4.500718	-0.151928	-0.546408
O12	O	-4.266199	-0.151304	-0.195895
C13	C	-3.672411	-0.379151	-0.375684
C14	C	-3.686905	-0.517858	-0.373007
C15	C	-3.672413	-0.156760	-0.598077
C16	C	-3.686907	-0.154077	-0.736783
C17	C	-3.864075	-0.585666	-0.377659
C18	C	-3.879059	-0.729028	-0.374892
C19	C	-3.864077	-0.158727	-0.804591
C20	C	-3.879061	-0.155954	-0.947951
C21	C	-4.091506	0.064461	-0.376860
C22	C	-4.056249	0.203167	-0.379545
C23	C	-4.091506	-0.157928	-0.154464
C24	C	-4.056251	-0.160604	-0.015757
H25	H	-3.738458	-0.777105	-0.368867
H26	H	-3.738459	-0.149911	-0.996027
H27	H	-4.004664	-0.537585	-0.383698
O28	O	-4.223913	-0.739404	-0.386518
C29	C	-4.213175	-0.648707	-0.279998
H30	H	-4.106036	-0.673563	-0.200015
H31	H	-4.367371	-0.647404	-0.249097
H32	H	-4.157440	-0.551816	-0.304744
O33	O	-4.031840	-0.165705	-0.747270
C34	C	-4.131103	-0.060499	-0.767226
H35	H	-4.020436	0.019529	-0.788526
H36	H	-4.198940	-0.028574	-0.679042
H37	H	-4.254196	-0.087380	-0.850246
O38	O	-3.518982	-0.575015	-0.365862
C39	C	-3.351335	-0.484128	-0.362038
H40	H	-3.399002	-0.398736	-0.405239
H41	H	-3.237251	-0.526268	-0.417747
H42	H	-3.282190	-0.453886	-0.260039
H43	H	-4.196855	-0.166643	-0.967683
O44	O	-3.519295	-0.146711	-0.794249
C45	C	-3.503118	-0.036517	-0.853592
H46	H	-3.656670	-0.005359	-0.873223
H47	H	-3.439886	-0.056513	-0.946170
H48	H	-3.399717	0.041426	-0.789373
