data_functionalizedCrystal
_audit_creation_method	'MofGen! by Chris Wilmer'
_symmetry_space_group_name_H-M	'P1'
_symmetry_Int_Tables_number	1
_symmetry_cell_setting	triclinic
loop_
_symmetry_equiv_pos_as_xyz
  x,y,z
_cell_length_a	14.853567
_cell_length_b	8.597366
_cell_length_c	13.330367
_cell_angle_alpha	82.303102
_cell_angle_beta	89.997850
_cell_angle_gamma	84.488410
loop_
_atom_site_label
_atom_site_type_symbol
_atom_site_fract_x
_atom_site_fract_y
_atom_site_fract_z
O1	O	0.134556	2.082686	-0.096604
O2	O	0.144880	1.625785	-0.057110
O3	O	0.008587	1.866440	-0.077909
O4	O	0.270849	1.842031	-0.075805
O5	O	0.008591	1.866415	-0.244754
O6	O	0.144884	1.625760	-0.223955
O7	O	0.134560	2.082661	-0.263449
Cu8	Cu	0.139722	1.854208	-0.258936
Cu9	Cu	0.139718	1.854237	-0.061623
O10	O	0.270853	1.842006	-0.242650
C11	C	0.143773	1.567300	-0.135478
C12	C	0.140459	1.393070	-0.120418
C13	C	-0.025009	1.865321	-0.161233
C14	C	-0.125119	1.862007	-0.160938
C15	C	-0.538923	1.705043	-0.147389
C16	C	-0.557890	1.990946	-0.172102
C17	C	-0.463831	1.994062	-0.172365
C18	C	-0.407314	1.852667	-0.160142
C19	C	-0.444855	1.708155	-0.147655
C20	C	-0.426283	2.138572	-0.184862
C21	C	-0.332218	2.141694	-0.185127
C22	C	-0.275699	2.000297	-0.172897
C23	C	-0.313246	1.855779	-0.160408
C24	C	-0.256728	1.714383	-0.148185
C25	C	-0.294274	1.569863	-0.135689
C26	C	-0.388336	1.566757	-0.135425
C27	C	-0.181637	2.003403	-0.173161
C28	C	-0.162661	1.717495	-0.148451
C29	C	0.304449	1.843124	-0.159324
C30	C	0.404559	1.846438	-0.159612
C31	C	0.135667	2.141146	-0.185078
C32	C	0.138981	2.315376	-0.200132
N33	N	0.139725	1.854199	-0.397717
C34	C	0.200057	1.747622	-0.441031
C35	C	0.079390	1.960785	-0.459431
C36	C	0.079387	1.960801	-0.564451
C37	C	0.139718	1.854224	-0.607766
C38	C	0.200053	1.747631	-0.546060
C39	C	0.019047	2.067381	-0.626163
C40	C	0.019040	2.067400	-0.731190
C41	C	0.079377	1.960829	-0.774507
C42	C	0.139715	1.854234	-0.712794
C43	C	0.200046	1.747657	-0.756109
C44	C	0.260390	1.641067	-0.694399
C45	C	0.260390	1.641061	-0.589377
C46	C	0.079376	1.960836	-0.879529
C47	C	0.200043	1.747666	-0.861138
N48	N	0.139708	1.854259	0.077157
H49	H	0.140251	1.382158	-0.279912
O50	O	-0.107855	1.580035	-0.136433
C51	C	-0.062826	1.336686	-0.028922
C52	C	-0.124959	1.492280	-0.042414
H53	H	-0.076619	1.265707	0.047098
H54	H	-0.076652	1.265455	-0.092541
H55	H	0.010846	1.363766	-0.031314
H56	H	-0.198652	1.465343	-0.039999
H57	H	-0.111055	1.563466	0.021202
O58	O	-0.239460	1.432412	-0.123673
C59	C	-0.194408	1.189071	-0.016164
C60	C	-0.256554	1.344651	-0.029652
H61	H	-0.208192	1.118088	0.059857
H62	H	-0.208228	1.117835	-0.079781
H63	H	-0.120739	1.216173	-0.018559
H64	H	-0.330244	1.317692	-0.027234
H65	H	-0.242655	1.415841	0.033963
O66	O	0.318909	1.537575	-0.529282
C67	C	0.372411	1.443139	-0.359335
C68	C	0.306082	1.560399	-0.427277
H69	H	0.362077	1.461573	-0.276852
H70	H	0.359512	1.317385	-0.369054
H71	H	0.444802	1.463722	-0.381818
H72	H	0.233667	1.539960	-0.404837
H73	H	0.319060	1.686112	-0.417549
H74	H	-0.418914	1.449097	-0.125252
H75	H	-0.569497	1.587378	-0.137211
O76	O	-0.612826	2.128246	-0.183797
C77	C	-0.730090	2.290616	-0.111433
C78	C	-0.667907	2.135077	-0.098049
H79	H	-0.774652	2.296175	-0.042127
H80	H	-0.687145	2.394500	-0.120343
H81	H	-0.774552	2.296272	-0.181783
H82	H	-0.623433	2.129267	-0.027698
H83	H	-0.710905	2.031266	-0.089198
O84	O	0.138907	1.313673	-0.025175
C85	C	0.139288	1.330628	0.153798
C86	C	0.141028	1.420757	0.045990
H87	H	0.141022	1.417162	0.211365
H88	H	0.074887	1.268256	0.163753
H89	H	0.200739	1.239708	0.166085
H90	H	0.079621	1.511752	0.033629
H91	H	0.205469	1.483021	0.036087
H92	H	0.030265	2.047549	-0.424161
H93	H	-0.301658	2.259370	-0.195301
H94	H	-0.030078	2.154145	-0.590893
H95	H	0.030242	2.047612	-0.929767
H96	H	-0.151071	2.121068	-0.183341
O97	O	0.258682	1.643981	-0.903041
C98	C	0.378407	1.432614	-0.873712
C99	C	0.312034	1.549927	-0.826123
H100	H	0.421572	1.356564	-0.811548
H101	H	0.338811	1.354019	-0.916058
H102	H	0.424019	1.500500	-0.928778
H103	H	0.266406	1.482170	-0.771013
H104	H	0.351687	1.628521	-0.783840
H105	H	-0.472306	2.253688	-0.194823
H106	H	0.309508	1.554285	-0.729677
H107	H	0.249190	1.660842	-0.390785
O108	O	-0.039600	2.171098	-0.790988
C109	C	-0.159315	2.382478	-0.798141
C110	C	-0.092944	2.265144	-0.730303
H111	H	-0.202474	2.458522	-0.749104
H112	H	-0.119718	2.461077	-0.854065
H113	H	-0.204934	2.314610	-0.841481
H114	H	-0.047310	2.332884	-0.686898
H115	H	-0.132598	2.186546	-0.674443
