data_functionalizedCrystal
_audit_creation_method	'MofGen! by Chris Wilmer'
_symmetry_space_group_name_H-M	'P1'
_symmetry_Int_Tables_number	1
_symmetry_cell_setting	triclinic
loop_
_symmetry_equiv_pos_as_xyz
  x,y,z
_cell_length_a	27.732048
_cell_length_b	16.109293
_cell_length_c	14.586319
_cell_angle_alpha	90.006918
_cell_angle_beta	89.991275
_cell_angle_gamma	96.949538
loop_
_atom_site_label
_atom_site_type_symbol
_atom_site_fract_x
_atom_site_fract_y
_atom_site_fract_z
O1	O	0.062112	-1.102366	-0.076323
O2	O	0.069848	-0.860207	-0.076310
O3	O	-0.004385	-0.988807	-0.076299
O4	O	0.136345	-0.973766	-0.076333
O5	O	-0.004387	-0.988799	0.076181
O6	O	0.069847	-0.860198	0.076171
O7	O	0.062111	-1.102357	0.076158
Cu8	Cu	0.065979	-0.981277	0.090087
Cu9	Cu	0.065980	-0.981287	-0.090239
O10	O	0.136344	-0.973757	0.076147
C11	C	0.069535	-0.829232	-0.000068
C12	C	0.068597	-0.736948	-0.000062
C13	C	0.066429	-0.524628	0.083053
C14	C	0.065543	-0.437918	0.083052
C15	C	0.065546	-0.437938	-0.083191
C16	C	0.066429	-0.524647	-0.083189
C17	C	0.066873	-0.567989	-0.000065
C18	C	0.065104	-0.394571	-0.000067
C19	C	0.064143	-0.300557	-0.000068
C20	C	0.067833	-0.662009	-0.000063
C21	C	-0.022394	-0.988487	-0.000056
C22	C	-0.076053	-0.987537	-0.000049
C23	C	-0.414576	-1.057545	-0.000100
C24	C	-0.616251	-1.054018	-0.000112
O25	O	-0.647239	-1.118036	-0.000156
N26	N	-0.635692	-0.977763	-0.000107
C27	C	-0.604712	-0.902385	-0.000105
O28	O	-0.625876	-0.837445	-0.000111
C29	C	-0.403038	-0.905913	-0.000099
C30	C	-0.383600	-0.982173	-0.000095
C31	C	-0.395137	-1.133799	-0.000096
C32	C	-0.344721	-1.134680	-0.000088
C33	C	-0.313745	-1.059307	-0.000083
C34	C	-0.333184	-0.983054	-0.000087
C35	C	-0.372059	-0.830536	-0.000104
C36	C	-0.321638	-0.831425	-0.000105
C37	C	-0.302199	-0.907685	-0.000100
C38	C	-0.251792	-0.908563	-0.000074
N39	N	-0.232351	-0.984817	-0.000079
C40	C	-0.263327	-1.060190	-0.000083
C41	C	-0.710594	-0.900538	-0.000107
C42	C	-0.761012	-0.899655	-0.000106
C43	C	-0.772547	-1.051288	-0.000115
C44	C	-0.722128	-1.052170	-0.000109
C45	C	-0.691152	-0.976792	-0.000112
C46	C	-0.157450	-1.062034	-0.000066
C47	C	-0.107029	-1.062909	-0.000054
C48	C	-0.095499	-0.911276	-0.000050
C49	C	-0.145915	-0.910401	-0.000057
C50	C	-0.176890	-0.985787	-0.000068
O51	O	-0.220775	-0.844579	-0.000041
O52	O	-0.242154	-1.125120	-0.000098
C53	C	-0.464992	-1.056664	-0.000108
C54	C	-0.484431	-0.980411	-0.000111
C55	C	-0.453455	-0.905038	-0.000106
C56	C	-0.534849	-0.979528	-0.000111
C57	C	-0.565826	-1.054901	-0.000116
C58	C	-0.546384	-1.131155	-0.000121
C59	C	-0.495968	-1.132036	-0.000113
C60	C	-0.472896	-0.828784	-0.000101
C61	C	-0.523312	-0.827909	-0.000109
C62	C	-0.554289	-0.903281	-0.000113
C63	C	0.154353	-0.974077	-0.000098
C64	C	0.208012	-0.975028	-0.000111
C65	C	0.062429	-0.133331	-0.000079
C66	C	0.063380	-0.225612	-0.000070
N67	N	0.065978	-0.981276	0.216919
N68	N	0.065977	-0.981295	-0.217071
C69	C	0.033118	-1.038238	0.451930
C70	C	0.033117	-1.038241	0.547911
C71	C	0.098839	-0.924326	0.547911
C72	C	0.098837	-0.924321	0.451932
C73	C	0.065977	-0.981281	0.403944
C74	C	0.065978	-0.981289	0.595904
C75	C	0.065977	-0.981292	0.699971
C76	C	0.065978	-0.981278	0.299870
H77	H	-0.091206	-1.125011	-0.000048
H78	H	-0.182665	-1.123421	-0.000078
H79	H	0.006361	-1.084618	0.412860
C80	C	-0.445961	-1.221009	-0.078498
C81	C	-0.474605	-1.215863	-0.000116
H82	H	-0.432772	-1.272761	-0.078497
H83	H	-0.465385	-1.217513	-0.131662
H84	H	-0.420293	-1.176249	-0.078483
H85	H	-0.500274	-1.260620	-0.000134
H86	H	-0.455179	-1.219367	0.053061
H87	H	-0.296419	-0.770042	-0.000108
C88	C	0.025165	-0.561193	0.224748
C89	C	0.066909	-0.572274	0.174420
H90	H	0.025459	-0.590612	0.281153
H91	H	0.024579	-0.503353	0.236641
H92	H	-0.002855	-0.582114	0.190587
H93	H	0.094929	-0.551348	0.208579
H94	H	0.067499	-0.630126	0.162530
H95	H	0.006359	-1.084619	0.586979
C96	C	-0.195914	-0.821452	-0.078445
C97	C	-0.167288	-0.826580	-0.000053
H98	H	-0.209109	-0.769705	-0.078444
H99	H	-0.176476	-0.824946	-0.131602
H100	H	-0.221577	-0.866220	-0.078443
H101	H	-0.141623	-0.781815	-0.000058
H102	H	-0.186728	-0.823078	0.053118
C103	C	0.023754	-0.421134	-0.224885
C104	C	0.065066	-0.390294	-0.174559
H105	H	0.023459	-0.391717	-0.281291
H106	H	0.024345	-0.478973	-0.236776
H107	H	-0.004559	-0.413613	-0.190723
H108	H	0.093380	-0.397820	-0.208719
H109	H	0.064479	-0.332441	-0.162671
H110	H	0.065182	-0.402618	0.150735
H111	H	0.125593	-0.877951	0.586993
C112	C	-0.013086	-0.845317	-0.000051
C113	C	-0.061443	-0.828429	-0.000050
H114	H	0.007939	-0.794169	-0.000062
H115	H	-0.007202	-0.876599	0.053122
H116	H	-0.007198	-0.876624	-0.053225
H117	H	-0.067332	-0.797127	0.053127
H118	H	-0.067329	-0.797134	-0.053229
H119	H	0.125595	-0.877936	0.412859
H120	H	0.066789	-0.559953	-0.150878
H121	H	-0.328900	-1.196778	-0.000088
C122	C	-0.628797	-1.197117	-0.000143
C123	C	-0.580440	-1.214006	-0.000132
H124	H	-0.649822	-1.248263	-0.000161
H125	H	-0.634691	-1.165827	0.053030
H126	H	-0.634673	-1.165816	-0.053317
H127	H	-0.574563	-1.245302	0.053045
H128	H	-0.574544	-1.245310	-0.053311
H129	H	-0.420354	-1.195179	-0.000103
C130	C	-0.797901	-1.180258	-0.078519
C131	C	-0.806601	-1.134142	-0.000128
H132	H	-0.818924	-1.231408	-0.078528
H133	H	-0.803788	-1.148957	-0.131677
H134	H	-0.765091	-1.191697	-0.078508
H135	H	-0.839410	-1.122698	-0.000142
H136	H	-0.800718	-1.165450	0.053043
H137	H	-0.706305	-1.114267	-0.000106
C138	C	-0.744533	-0.749864	-0.000106
C139	C	-0.782375	-0.815829	-0.000104
H140	H	-0.757721	-0.698112	-0.000114
H141	H	-0.725115	-0.753360	0.053066
H142	H	-0.725103	-0.753378	-0.053281
H143	H	-0.801803	-0.812318	0.053075
H144	H	-0.801801	-0.812331	-0.053281
H145	H	-0.685377	-0.839153	-0.000109
H146	H	-0.387877	-0.768438	-0.000113
H147	H	-0.539134	-0.765805	-0.000104
C148	C	-0.466569	-0.678819	-0.000080
C149	C	-0.438851	-0.745927	-0.000086
H150	H	-0.445551	-0.627664	-0.000060
H151	H	-0.486464	-0.681631	-0.053256
H152	H	-0.486484	-0.681643	0.053091
H153	H	-0.418939	-0.743106	-0.053261
H154	H	-0.418948	-0.743114	0.053096
