data_functionalizedCrystal
_audit_creation_method	'MofGen! by Chris Wilmer'
_symmetry_space_group_name_H-M	'P1'
_symmetry_Int_Tables_number	1
_symmetry_cell_setting	triclinic
loop_
_symmetry_equiv_pos_as_xyz
  x,y,z
_cell_length_a	8.559649
_cell_length_b	14.971486
_cell_length_c	14.048226
_cell_angle_alpha	90.006640
_cell_angle_beta	89.993357
_cell_angle_gamma	103.303604
loop_
_atom_site_label
_atom_site_type_symbol
_atom_site_fract_x
_atom_site_fract_y
_atom_site_fract_z
O1	O	2.120074	0.030338	-0.079150
O2	O	1.654959	-0.015849	-0.079154
O3	O	1.899983	0.138309	-0.079145
O4	O	1.875050	-0.123819	-0.079159
O5	O	1.899953	0.138315	0.079176
O6	O	1.654929	-0.015843	0.079167
O7	O	2.120045	0.030344	0.079171
Zn8	Zn	1.887482	0.007252	0.104306
Zn9	Zn	1.887521	0.007244	-0.104289
O10	O	1.875021	-0.123813	0.079162
C11	C	1.595421	-0.019346	0.000006
C12	C	1.418060	-0.029765	0.000004
C13	C	2.179583	0.033842	0.000009
C14	C	2.356943	0.044260	0.000004
C15	C	1.898853	0.171559	0.000015
C16	C	1.895512	0.270625	0.000014
C17	C	1.876150	-0.157064	-0.000000
C18	C	1.879492	-0.256129	-0.000006
N19	N	1.887467	0.007259	0.246667
C20	C	2.039457	0.337824	0.000016
C21	C	2.036307	0.430905	0.000007
C22	C	1.889211	0.456785	0.000002
C23	C	1.745255	0.389578	-0.000003
C24	C	1.748406	0.296498	-0.000000
C25	C	1.738698	0.583586	-0.000007
C26	C	1.735547	0.676671	-0.000008
C27	C	2.026599	0.717993	0.000000
C28	C	2.029750	0.624913	0.000003
C29	C	1.885793	0.557712	-0.000000
N30	N	1.887549	0.007245	-0.246650
C31	C	1.995998	0.075497	0.296489
C32	C	1.996009	0.075498	0.396146
C33	C	1.887495	0.007256	0.445980
C34	C	1.778953	-0.060985	0.396151
C35	C	1.778936	-0.060982	0.296495
C36	C	1.778999	-0.060989	0.603865
C37	C	1.779018	-0.060993	0.703528
C38	C	1.996072	0.075491	0.703516
C39	C	1.996055	0.075495	0.603861
C40	C	1.887514	0.007251	0.554038
H41	H	2.334700	-0.101112	-0.000007
Br42	Br	1.553045	0.205297	-0.000011
H43	H	1.625487	0.410656	-0.000013
H44	H	2.159239	0.316762	0.000026
Br45	Br	2.231670	0.522103	0.000009
H46	H	1.690608	-0.116557	0.563303
H47	H	2.440312	0.115612	0.000005
H48	H	1.621473	0.528871	-0.000012
H49	H	2.084369	0.131064	0.255921
H50	H	2.149529	0.603846	0.000014
Br51	Br	2.143297	0.168111	0.463765
H52	H	2.143814	0.772713	-0.000000
Br53	Br	1.535915	0.711794	-0.000010
Br54	Br	2.143336	0.168101	0.536226
Br55	Br	2.143382	0.168102	0.771135
H56	H	1.690653	-0.116562	0.744098
H57	H	1.690591	-0.116547	0.436731
H58	H	1.690557	-0.116548	0.255931
