data_functionalizedCrystal
_audit_creation_method	'MofGen! by Chris Wilmer'
_symmetry_space_group_name_H-M	'P1'
_symmetry_Int_Tables_number	1
_symmetry_cell_setting	triclinic
loop_
_symmetry_equiv_pos_as_xyz
  x,y,z
_cell_length_a	19.121102
_cell_length_b	19.121725
_cell_length_c	16.120297
_cell_angle_alpha	95.429393
_cell_angle_beta	90.563713
_cell_angle_gamma	85.251956
loop_
_atom_site_label
_atom_site_type_symbol
_atom_site_fract_x
_atom_site_fract_y
_atom_site_fract_z
Zn1	Zn	1.065372	-0.348321	-0.542902
Zn2	Zn	1.075753	-0.460518	-0.409697
Zn3	Zn	0.953673	-0.337348	-0.397301
Zn4	Zn	0.952686	-0.460911	-0.542859
O5	O	1.011871	-0.401775	-0.473190
O6	O	1.165000	-0.367632	-0.530438
O7	O	1.064317	-0.439423	-0.291390
O8	O	0.964559	-0.240138	-0.411446
O9	O	1.172627	-0.450063	-0.432573
O10	O	1.046623	-0.248199	-0.518419
O11	O	0.974626	-0.348930	-0.282283
O12	O	0.855292	-0.349311	-0.411404
O13	O	0.962875	-0.450732	-0.659527
O14	O	0.854566	-0.440092	-0.518344
O15	O	1.045666	-0.368013	-0.659560
O16	O	1.063360	-0.559236	-0.432531
O17	O	0.972942	-0.559525	-0.530364
C18	C	0.829453	-0.393554	-0.463524
C19	C	0.751414	-0.390055	-0.459410
C20	C	0.714398	-0.435741	-0.513075
C21	C	0.641071	-0.432444	-0.509213
C22	C	0.604763	-0.383465	-0.451681
C23	C	0.641784	-0.337774	-0.398014
C24	C	0.715109	-0.341068	-0.401881
C25	C	0.383386	-0.371148	-0.437228
C26	C	0.310056	-0.367859	-0.433363
C27	C	0.309349	-0.462528	-0.544564
C28	C	0.382675	-0.465821	-0.548423
C29	C	0.419690	-0.420128	-0.494758
C30	C	0.529811	-0.380095	-0.447730
C31	C	0.494640	-0.423495	-0.498714
C32	C	1.019189	-0.584965	-0.482807
C33	C	1.022382	-0.663339	-0.486952
C34	C	0.981198	-0.696025	-0.433173
C35	C	0.984206	-0.769666	-0.437072
C36	C	1.028394	-0.810620	-0.494755
C37	C	1.069583	-0.777929	-0.548537
C38	C	1.066578	-0.704289	-0.544634
C39	C	1.039605	-1.033171	-0.509327
C40	C	1.042604	-1.106815	-0.513228
C41	C	0.957228	-1.098547	-0.401761
C42	C	0.954224	-1.024906	-0.397866
C43	C	0.995416	-0.992222	-0.451645
C44	C	1.031468	-0.885893	-0.498744
C45	C	0.992345	-0.916950	-0.447651
C46	C	1.195001	-0.410028	-0.482893
C47	C	1.273040	-0.413545	-0.487029
C48	C	1.003002	-0.410640	-0.690639
C49	C	0.999223	-0.414418	-0.783302
C50	C	1.004543	-0.217870	-0.463554
C51	C	1.001420	-0.139501	-0.459448
C52	C	0.992297	-0.421299	-0.952958
C53	C	1.031575	-0.382045	-0.994270
C54	C	1.027721	-0.385873	-1.088672
C55	C	0.996150	-0.417472	-0.858547
C56	C	1.020744	-0.392894	-0.256586
C57	C	1.024651	-0.388924	-0.163920
H58	H	0.412233	-0.505707	-0.595269
Cl59	Cl	0.540286	-0.485066	-0.571037
Cl60	Cl	0.761644	-0.283631	-0.334415
H61	H	1.105565	-0.811279	-0.595501
H62	H	1.078578	-1.140158	-0.560216
H63	H	1.068097	-0.345562	-0.958739
Cl64	Cl	0.936798	-0.865465	-0.375135
H65	H	0.500241	-0.340217	-0.400886
Cl66	Cl	0.594540	-0.489880	-0.576681
Cl67	Cl	0.935916	-0.477626	-1.007811
Cl68	Cl	0.264412	-0.306285	-0.361026
Cl69	Cl	0.262812	-0.519968	-0.612023
H70	H	0.918243	-0.991563	-0.350895
Cl71	Cl	1.087015	-0.937383	-0.571261
Cl72	Cl	0.760036	-0.497321	-0.585401
Cl73	Cl	0.429909	-0.313703	-0.369766
H74	H	1.100116	-0.677677	-0.588426
Cl75	Cl	0.596138	-0.276195	-0.325693
Cl76	Cl	0.932428	-0.810754	-0.369461
H77	H	0.945212	-0.662685	-0.386204
H78	H	0.923693	-1.125167	-0.357977
H79	H	1.073143	-1.006565	-0.553117
