data_functionalizedCrystal
_audit_creation_method	'MofGen! by Chris Wilmer'
_symmetry_space_group_name_H-M	'P1'
_symmetry_Int_Tables_number	1
_symmetry_cell_setting	triclinic
loop_
_symmetry_equiv_pos_as_xyz
  x,y,z
_cell_length_a	11.792241
_cell_length_b	11.792254
_cell_length_c	7.540329
_cell_angle_alpha	89.996229
_cell_angle_beta	90.001242
_cell_angle_gamma	84.196007
loop_
_atom_site_label
_atom_site_type_symbol
_atom_site_fract_x
_atom_site_fract_y
_atom_site_fract_z
O1	O	1.506913	0.155565	-0.147311
O2	O	1.176573	0.171598	-0.147352
O3	O	1.349752	-0.001588	-0.147318
O4	O	1.333734	0.328751	-0.147345
O5	O	1.349742	-0.001590	0.147647
O6	O	1.176563	0.171596	0.147613
O7	O	1.506903	0.155563	0.147654
Cu8	Cu	1.341732	0.163579	0.174566
Cu9	Cu	1.341744	0.163582	-0.174264
O10	O	1.333724	0.328749	0.147620
C11	C	1.134277	0.170590	0.000125
C12	C	1.008263	0.167576	0.000109
C13	C	1.348738	-0.043880	0.000164
C14	C	1.345718	-0.169893	0.000162
C15	C	0.777551	0.162033	0.000161
C16	C	0.905936	0.165112	0.000133
C17	C	1.343264	-0.272229	0.000155
C18	C	1.340196	-0.400616	0.000138
C19	C	1.549199	0.156571	0.000173
C20	C	1.675213	0.159586	0.000177
C21	C	1.334738	0.371041	0.000134
C22	C	1.337758	0.497054	0.000124
N23	N	1.341732	0.163577	0.419914
N24	N	1.341754	0.163575	-0.419613
