data_functionalizedCrystal
_audit_creation_method	'MofGen! by Chris Wilmer'
_symmetry_space_group_name_H-M	'P1'
_symmetry_Int_Tables_number	1
_symmetry_cell_setting	triclinic
loop_
_symmetry_equiv_pos_as_xyz
  x,y,z
_cell_length_a	23.532407
_cell_length_b	17.038272
_cell_length_c	15.500227
_cell_angle_alpha	86.952609
_cell_angle_beta	92.805592
_cell_angle_gamma	86.980117
loop_
_atom_site_label
_atom_site_type_symbol
_atom_site_fract_x
_atom_site_fract_y
_atom_site_fract_z
O1	O	0.121157	1.040106	-0.071925
O2	O	0.621157	1.540106	0.428075
O3	O	0.119194	0.812491	-0.071934
O4	O	0.619194	1.312491	0.428066
O5	O	0.037605	0.933161	-0.071913
O6	O	0.537605	1.433161	0.428087
O7	O	0.202746	0.919435	-0.071945
O8	O	0.702746	1.419435	0.428055
O9	O	0.042535	0.925839	0.071974
O10	O	0.542535	1.425839	0.571974
O11	O	0.124124	0.805168	0.071954
O12	O	0.624124	1.305168	0.571954
O13	O	0.126087	1.032784	0.071963
O14	O	0.626087	1.532784	0.571963
Cu15	Cu	0.125556	0.918307	0.085096
Cu16	Cu	0.625556	1.418307	0.585096
Cu17	Cu	0.119725	0.926967	-0.085067
Cu18	Cu	0.619725	1.426967	0.414933
O19	O	0.207676	0.912113	0.071942
O20	O	0.707676	1.412113	0.571942
C21	C	0.119873	0.779714	0.000009
C22	C	0.619873	1.279714	0.500009
C23	C	0.114547	0.692961	0.000006
C24	C	0.614547	1.192961	0.500006
C25	C	0.018836	0.929150	0.000033
C26	C	0.518836	1.429150	0.500033
C27	C	-0.044436	0.928099	0.000040
C28	C	0.455564	1.428099	0.500040
N29	N	0.129656	0.912222	0.204780
N30	N	0.629656	1.412222	0.704780
C31	C	-0.440133	0.992920	-0.000005
C32	C	0.059867	1.492920	0.499995
C33	C	-0.499585	0.991944	-0.000012
C34	C	0.000415	1.491944	0.499988
O35	O	-0.533172	1.052034	-0.000042
O36	O	-0.033172	1.552034	0.499958
N37	N	-0.525983	0.920205	-0.000014
N38	N	-0.025983	1.420205	0.499986
C39	C	-0.492926	0.849438	-0.000019
C40	C	0.007074	1.349438	0.499981
O41	O	-0.520838	0.788328	-0.000022
O42	O	-0.020838	1.288328	0.499978
C43	C	-0.433475	0.850415	-0.000018
C44	C	0.066525	1.350415	0.499982
C45	C	-0.407081	0.922158	-0.000007
C46	C	0.092919	1.422158	0.499993
C47	C	-0.413738	1.064658	0.000005
C48	C	0.086262	1.564658	0.500005
C49	C	-0.354291	1.065634	0.000013
C50	C	0.145709	1.565634	0.500013
C51	C	-0.321238	0.994872	0.000011
C52	C	0.178762	1.494872	0.500011
C53	C	-0.347633	0.923134	0.000001
C54	C	0.152367	1.423134	0.500001
C55	C	-0.400420	0.779649	-0.000029
C56	C	0.099580	1.279649	0.499971
C57	C	-0.340965	0.780632	-0.000029
C58	C	0.159035	1.280632	0.499971
C59	C	-0.314571	0.852375	-0.000018
C60	C	0.185429	1.352375	0.499982
C61	C	-0.255132	0.853347	0.000007
C62	C	0.244868	1.353347	0.500007
N63	N	-0.228735	0.925087	0.000010
N64	N	0.271265	1.425087	0.500010
C65	C	-0.261787	0.995849	0.000011
C66	C	0.238213	1.495849	0.500011
C67	C	-0.617776	0.847391	-0.000021
C68	C	-0.117776	1.347391	0.499979
C69	C	-0.677225	0.846413	-0.000015
C70	C	-0.177225	1.346413	0.499985
C71	C	-0.683880	0.988920	-0.000010
C72	C	-0.183880	1.488920	0.499990
C73	C	-0.624430	0.989897	-0.000010
C74	C	-0.124430	1.489897	0.499990
C75	C	-0.591378	0.919130	-0.000019
C76	C	-0.091378	1.419130	0.499981
C77	C	-0.136943	0.997892	0.000030
C78	C	0.363057	1.497892	0.500030
C79	C	-0.077489	0.998861	0.000041
C80	C	0.422511	1.498861	0.500041
C81	C	-0.070839	0.856355	0.000032
C82	C	0.429161	1.356355	0.500032
C83	C	-0.130287	0.855385	0.000025
C84	C	0.369713	1.355385	0.500025
C85	C	-0.163338	0.926160	0.000020
C86	C	0.336662	1.426160	0.500020
O87	O	-0.221510	0.793290	0.000033
O88	O	0.278490	1.293290	0.500033
O89	O	-0.233868	1.056949	0.000003
O90	O	0.266132	1.556949	0.500003
C91	C	0.226445	0.916124	-0.000006
C92	C	0.726445	1.416124	0.499994
C93	C	0.289717	0.917176	-0.000018
C94	C	0.789717	1.417176	0.499982
C95	C	0.125407	1.065560	0.000018
C96	C	0.625407	1.565560	0.500018
C97	C	0.130734	1.152314	0.000015
C98	C	0.630734	1.652314	0.500015
C99	C	0.081829	1.202790	0.000022
C100	C	0.581829	1.702790	0.500022
C101	C	0.086838	1.284303	0.000024
C102	C	0.586838	1.784303	0.500024
C103	C	0.140751	1.315339	0.000013
C104	C	0.640751	1.815339	0.500013
C105	C	0.189659	1.264857	0.000009
C106	C	0.689659	1.764857	0.500009
C107	C	0.184650	1.183344	0.000013
C108	C	0.684650	1.683344	0.500013
C109	C	0.158446	1.560966	0.000006
C110	C	0.658446	2.060966	0.500006
C111	C	0.163451	1.642485	-0.000000
C112	C	0.663451	2.142485	0.500000
C113	C	0.060629	1.661926	0.000016
C114	C	0.560629	2.161926	0.500016
C115	C	0.055625	1.580412	0.000015
C116	C	0.555625	2.080412	0.500015
C117	C	0.104533	1.529936	0.000015
C118	C	0.604533	2.029936	0.500015
C119	C	0.145872	1.398659	0.000013
C120	C	0.645872	1.898659	0.500013
C121	C	0.099413	1.446618	0.000022
C122	C	0.599413	1.946618	0.500022
N123	N	0.115620	0.933058	-0.204751
N124	N	0.615620	1.433058	0.295249
C125	C	0.095099	0.963372	0.250066
C126	C	0.595099	1.463372	0.750066
C127	C	0.098206	0.958777	0.340638
C128	C	0.598206	1.458777	0.840638
C129	C	0.135874	0.903036	0.385923
C130	C	0.635874	1.403036	0.885923
C131	C	0.170432	0.851880	0.340631
C132	C	0.670432	1.351880	0.840631
C133	C	0.167322	0.856472	0.250061
C134	C	0.667322	1.356472	0.750061
C135	C	0.147069	0.886495	0.659387
C136	C	0.647069	1.386495	1.159387
C137	C	0.150178	0.881908	0.749964
C138	C	0.650178	1.381908	1.249964
C139	C	0.077950	0.988805	0.749964
C140	C	0.577950	1.488805	1.249964
C141	C	0.074845	0.993395	0.659392
C142	C	0.574845	1.493395	1.159392
C143	C	0.109402	0.942237	0.614108
C144	C	0.609402	1.442237	1.114108
C145	C	0.139052	0.898339	0.478502
C146	C	0.639052	1.398339	0.978502
C147	C	0.106221	0.946930	0.521530
C148	C	0.606221	1.446930	1.021530
H149	H	-0.056002	1.057286	0.000052
H150	H	0.443998	1.557286	0.500052
H151	H	0.055516	1.421345	0.000021
H152	H	0.555516	1.921345	0.500021
H153	H	0.011723	1.555149	0.000024
H154	H	0.511723	2.055149	0.500024
H155	H	0.037927	1.177528	0.000025
H156	H	0.537927	1.677528	0.500025
H157	H	0.075549	0.992312	0.484657
H158	H	0.575549	1.492312	0.984657
H159	H	0.180853	0.836514	0.786830
H160	H	0.680853	1.336514	1.286830
O161	O	0.184344	0.831327	0.610549
O162	O	0.684344	1.331327	1.110549
H163	H	0.211064	0.791804	0.657257
H164	H	0.711064	1.291804	1.157257
H165	H	0.201100	0.806490	0.377507
H166	H	0.701100	1.306490	0.877507
H167	H	0.207356	1.667750	0.000004
H168	H	0.707356	2.167750	0.500004
O169	O	-0.035185	0.780034	0.000029
O170	O	0.464815	1.280034	0.500029
H171	H	0.010588	0.792773	0.000026
H172	H	0.510588	1.292773	0.500026
H173	H	0.195462	0.814819	0.213190
H174	H	0.695462	1.314819	0.713190
H175	H	0.049815	1.030455	0.786842
H176	H	0.549815	1.530455	1.286842
H177	H	0.169723	0.852955	0.515380
H178	H	0.669723	1.352955	1.015380
O179	O	-0.158761	0.778007	0.000030
O180	O	0.341239	1.278007	0.500030
H181	H	-0.187691	0.777138	-0.058618
H182	H	0.312309	1.277138	0.441382
H183	H	-0.314057	0.723004	-0.000038
H184	H	0.185943	1.223004	0.499962
H185	H	0.047014	1.325398	0.000033
H186	H	0.547014	1.825398	0.500033
H187	H	-0.163846	1.055524	0.000023
H188	H	0.336154	1.555524	0.500023
O189	O	-0.428879	0.702267	-0.000040
O190	O	0.071121	1.202267	0.499960
H191	H	-0.417873	0.671284	-0.058694
H192	H	0.082127	1.171284	0.441306
O193	O	-0.595966	1.067279	-0.000015
O194	O	-0.095966	1.567279	0.499985
H195	H	-0.606973	1.098279	0.058627
H196	H	-0.106973	1.598279	0.558627
O197	O	-0.582127	0.771059	-0.000008
O198	O	-0.082127	1.271059	0.499992
H199	H	-0.610475	0.721015	0.000002
H200	H	-0.110475	1.221015	0.500002
H201	H	0.198271	1.519878	0.000002
H202	H	0.698271	2.019878	0.500002
O203	O	-0.325831	1.143019	0.000000
O204	O	0.174169	1.643019	0.500000
H205	H	-0.336841	1.174024	0.058638
H206	H	0.163159	1.674024	0.558638
O207	O	-0.449384	1.140986	0.000019
O208	O	0.050616	1.640986	0.500019
H209	H	-0.421032	1.191025	0.000035
H210	H	0.078968	1.691025	0.500035
H211	H	0.020811	1.703031	0.000017
H212	H	0.520811	2.203031	0.500017
O213	O	0.247811	1.298325	-0.000002
O214	O	0.747811	1.798325	0.499998
H215	H	0.243078	1.363486	-0.000013
H216	H	0.743078	1.863486	0.499987
H217	H	-0.710803	1.046539	-0.000012
H218	H	-0.210803	1.546539	0.499988
H219	H	0.224474	1.142247	0.000011
H220	H	0.724474	1.642247	0.500011
H221	H	0.189768	1.423938	0.000002
H222	H	0.689768	1.923938	0.500002
H223	H	0.070066	1.000427	0.377509
H224	H	0.570066	1.500427	0.877509
H225	H	0.044173	1.038784	0.622523
H226	H	0.544173	1.538784	1.122523
O227	O	-0.705692	0.769033	-0.000016
O228	O	-0.205692	1.269033	0.499984
H229	H	-0.672715	0.719996	-0.000020
H230	H	-0.172715	1.219996	0.499980
O231	O	0.054469	1.023491	0.201223
O232	O	0.554469	1.523491	0.701223
H233	H	0.030957	1.058280	0.247933
H234	H	0.530957	1.558280	0.747933
