data_functionalizedCrystal
_audit_creation_method	'MofGen! by Chris Wilmer'
_symmetry_space_group_name_H-M	'P1'
_symmetry_Int_Tables_number	1
_symmetry_cell_setting	triclinic
loop_
_symmetry_equiv_pos_as_xyz
  x,y,z
_cell_length_a	10.654550
_cell_length_b	16.109301
_cell_length_c	9.130313
_cell_angle_alpha	89.994060
_cell_angle_beta	89.999724
_cell_angle_gamma	83.973206
loop_
_atom_site_label
_atom_site_type_symbol
_atom_site_fract_x
_atom_site_fract_y
_atom_site_fract_z
O1	O	1.666255	0.116774	-0.121695
O2	O	1.300626	0.127899	-0.121723
O3	O	1.493485	0.001365	-0.121693
O4	O	1.473396	0.243308	-0.121725
O5	O	1.493472	0.001362	0.121906
O6	O	1.300613	0.127896	0.121876
O7	O	1.666242	0.116770	0.121904
Cu8	Cu	1.483426	0.122333	0.144132
Cu9	Cu	1.483442	0.122337	-0.143951
O10	O	1.473383	0.243304	0.121874
C11	C	1.253832	0.127081	0.000073
C12	C	1.114422	0.124637	0.000063
C13	C	1.492664	-0.029616	0.000107
C14	C	1.490225	-0.121926	0.000109
C15	C	1.033926	0.199138	0.000058
C16	C	0.902936	0.196836	0.000084
C17	C	0.932952	0.045526	0.000114
C18	C	1.063939	0.047828	0.000099
C19	C	1.598991	-0.343552	0.000094
C20	C	1.596689	-0.430286	0.000081
C21	C	1.367868	-0.411772	0.000070
C22	C	1.370172	-0.325039	0.000072
C23	C	1.485737	-0.290932	0.000091
C24	C	1.481131	-0.464398	0.000077
C25	C	1.478634	-0.558439	0.000064
C26	C	1.488234	-0.196885	0.000101
C27	C	1.713036	0.117589	0.000104
C28	C	1.852446	0.120033	0.000105
C29	C	1.474203	0.274286	0.000071
C30	C	1.476643	0.366596	0.000059
N31	N	1.483424	0.122329	0.346755
N32	N	1.483453	0.122334	-0.346574
C33	C	1.568851	0.066324	0.423420
C34	C	1.568863	0.066324	0.576757
C35	C	1.398018	0.178342	0.576750
C36	C	1.398001	0.178337	0.423416
H37	H	1.075024	0.261680	0.000040
N38	N	1.661012	0.005926	0.659447
H39	H	1.716591	0.038050	0.723047
H40	H	1.612968	-0.031171	0.723000
N41	N	1.150779	-0.032527	0.000096
H42	H	1.205798	-0.034940	0.090395
H43	H	1.098841	-0.081491	0.000054
H44	H	1.277941	-0.282194	0.000065
H45	H	1.688912	-0.473126	0.000080
N46	N	1.243228	-0.448560	0.000056
H47	H	1.258952	-0.511489	0.000060
H48	H	1.193671	-0.429361	0.090359
N49	N	1.660979	0.005917	0.340732
H50	H	1.715096	-0.029563	0.412572
H51	H	1.612917	-0.031138	0.277130
N52	N	0.816118	0.277193	0.000058
H53	H	0.725477	0.264083	0.000077
H54	H	0.832471	0.310636	0.090350
H55	H	1.328470	0.223944	0.639183
H56	H	0.891833	-0.017009	0.000152
N57	N	1.305848	0.238739	0.340714
H58	H	1.251739	0.274224	0.412543
H59	H	1.353891	0.275790	0.277069
N60	N	1.723629	-0.306762	0.000112
H61	H	1.795025	-0.353261	0.000110
H62	H	1.729571	-0.271172	-0.090190
