data_functionalizedCrystal
_audit_creation_method	'MofGen! by Chris Wilmer'
_symmetry_space_group_name_H-M	'P1'
_symmetry_Int_Tables_number	1
_symmetry_cell_setting	triclinic
loop_
_symmetry_equiv_pos_as_xyz
  x,y,z
_cell_length_a	21.295418
_cell_length_b	16.625547
_cell_length_c	16.625539
_cell_angle_alpha	90.017150
_cell_angle_beta	90.039782
_cell_angle_gamma	90.016959
loop_
_atom_site_label
_atom_site_type_symbol
_atom_site_fract_x
_atom_site_fract_y
_atom_site_fract_z
Zn1	Zn	0.962460	-0.320660	0.456385
Zn2	Zn	1.462460	0.179340	0.956385
Zn3	Zn	0.962423	-0.455503	0.321579
Zn4	Zn	1.462423	0.044497	0.821579
Zn5	Zn	0.857190	-0.320725	0.321521
Zn6	Zn	1.357190	0.179275	0.821521
Zn7	Zn	0.857206	-0.455491	0.456324
Zn8	Zn	1.357206	0.044509	0.956324
O9	O	0.909820	-0.388095	0.388952
O10	O	1.409820	0.111905	0.888952
O11	O	1.050544	-0.338524	0.438553
O12	O	1.550544	0.161476	0.938553
O13	O	0.948442	-0.437656	0.208739
O14	O	1.448442	0.062344	0.708739
O15	O	0.871163	-0.207884	0.339412
O16	O	1.371163	0.292116	0.839412
O17	O	1.050517	-0.437593	0.339511
O18	O	1.550517	0.062407	0.839511
O19	O	0.948504	-0.207836	0.438497
O20	O	1.448504	0.292164	0.938497
O21	O	0.871127	-0.338636	0.208696
O22	O	1.371127	0.161364	0.708696
O23	O	0.769103	-0.338625	0.339352
O24	O	1.269103	0.161375	0.839352
O25	O	0.871190	-0.437573	0.569164
O26	O	1.371190	0.062427	1.069164
O27	O	0.769115	-0.437637	0.438391
O28	O	1.269115	0.062363	0.938391
O29	O	0.948519	-0.338513	0.569210
O30	O	1.448519	0.161487	1.069210
O31	O	0.948457	-0.568334	0.339451
O32	O	1.448457	-0.068334	0.839451
O33	O	0.871155	-0.568325	0.438448
O34	O	1.371155	-0.068325	0.938448
C35	C	0.746268	-0.388137	0.388859
C36	C	1.246268	0.111863	0.888859
C37	C	0.676300	-0.388175	0.388839
C38	C	1.176300	0.111825	0.888839
C39	C	0.909836	-0.177786	0.388955
C40	C	1.409836	0.322214	0.888955
C41	C	0.909842	-0.088165	0.388956
C42	C	1.409842	0.411835	0.888956
C43	C	0.909821	-0.597585	0.388967
C44	C	1.409821	-0.097585	0.888967
C45	C	0.909879	-0.687207	0.389000
C46	C	1.409879	-0.187207	0.889000
C47	C	0.643456	-0.439798	0.440331
C48	C	1.143456	0.060202	0.940331
C49	C	0.577713	-0.439779	0.440367
C50	C	1.077713	0.060221	0.940367
C51	C	0.544817	-0.388143	0.388897
C52	C	1.044817	0.111857	0.888897
C53	C	0.577669	-0.336509	0.337401
C54	C	1.077669	0.163491	0.837401
C55	C	0.643411	-0.336525	0.337372
C56	C	1.143411	0.163475	0.837372
N57	N	0.441543	-0.381847	0.318372
N58	N	0.941543	0.118153	0.818372
N59	N	0.379091	-0.381837	0.318402
N60	N	0.879091	0.118163	0.818402
C61	C	0.346743	-0.388092	0.388982
C62	C	0.846743	0.111908	0.888982
N63	N	0.379205	-0.394373	0.459533
N64	N	0.879205	0.105627	0.959533
N65	N	0.441662	-0.394388	0.459502
N66	N	0.941662	0.105612	0.959502
C67	C	0.473532	-0.388120	0.388923
C68	C	0.973532	0.111880	0.888923
C69	C	0.242613	-0.439697	0.440518
C70	C	0.742613	0.060303	0.940518
C71	C	0.176870	-0.439671	0.440556
C72	C	0.676870	0.060329	0.940556
C73	C	0.176827	-0.336407	0.337582
C74	C	0.676827	0.163593	0.837582
C75	C	0.242569	-0.336428	0.337551
C76	C	0.742569	0.163572	0.837551
C77	C	0.275459	-0.388077	0.389019
C78	C	0.775459	0.111923	0.889019
C79	C	1.074010	-0.388053	0.389046
C80	C	1.574010	0.111947	0.889046
C81	C	1.143978	-0.388035	0.389086
C82	C	1.643978	0.111965	0.889086
C83	C	0.909861	-0.388035	0.599261
C84	C	1.409861	0.111965	1.099261
C85	C	0.909878	-0.388009	0.688882
C86	C	1.409878	0.111991	1.188882
C87	C	0.909875	0.240011	0.388999
C88	C	1.409875	0.740011	0.888999
C89	C	0.909868	0.148703	0.388989
C90	C	1.409868	0.648703	0.888989
C91	C	0.909859	0.075926	0.388977
C92	C	1.409859	0.575926	0.888977
C93	C	0.909851	-0.015388	0.388968
C94	C	1.409851	0.484612	0.888968
C95	C	0.909815	-0.388096	0.179461
C96	C	1.409815	0.111904	0.679461
C97	C	0.909920	-0.387895	0.089841
C98	C	1.409920	0.112105	0.589841
C99	C	0.909907	-0.387919	1.017058
C100	C	1.409907	0.112081	1.517058
C101	C	0.909897	-0.387946	0.925750
C102	C	1.409897	0.112054	1.425750
C103	C	0.909893	-0.387964	0.852973
C104	C	1.409893	0.112036	1.352973
C105	C	0.909882	-0.387991	0.761659
C106	C	1.409882	0.112009	1.261659
H107	H	0.670230	-0.481854	0.482241
H108	H	1.170230	0.018146	0.982241
H109	H	0.269393	-0.481749	0.482430
H110	H	0.769393	0.018251	0.982430
C111	C	0.663556	-0.297085	0.200890
C112	C	1.163556	0.202915	0.700890
C113	C	0.679518	-0.279783	0.280761
C114	C	1.179518	0.220217	0.780761
H115	H	0.685852	-0.262058	0.165941
H116	H	1.185852	0.237942	0.665941
H117	H	0.619701	-0.289677	0.193548
H118	H	1.119701	0.210323	0.693548
H119	H	0.674300	-0.351251	0.189012
H120	H	1.174300	0.148749	0.689012
H121	H	0.668771	-0.225619	0.292641
H122	H	1.168771	0.274381	0.792641
H123	H	0.723383	-0.287184	0.288107
H124	H	1.223383	0.212816	0.788107
H125	H	0.150129	-0.481708	0.482492
H126	H	0.650129	0.018292	0.982492
H127	H	0.150044	-0.294360	0.295677
H128	H	0.650044	0.205640	0.795677
C129	C	0.235921	-0.234363	0.235767
C130	C	0.735921	0.265637	0.735767
C131	C	0.278676	-0.279689	0.280940
C132	C	0.778676	0.220311	0.780940
H133	H	0.258213	-0.199335	0.200814
H134	H	0.758213	0.300665	0.700814
H135	H	0.210322	-0.203559	0.270956
H136	H	0.710322	0.296441	0.770956
H137	H	0.210240	-0.269457	0.204883
H138	H	0.710240	0.230543	0.704883
H139	H	0.304354	-0.244595	0.311828
H140	H	0.804354	0.255405	0.811828
H141	H	0.304286	-0.310494	0.245746
H142	H	0.804286	0.189506	0.745746
H143	H	0.550881	-0.294466	0.295494
H144	H	1.050881	0.205534	0.795494
C145	C	0.584353	-0.541858	0.542145
C146	C	1.084353	-0.041858	1.042145
C147	C	0.541601	-0.496525	0.496975
C148	C	1.041601	0.003475	0.996975
H149	H	0.562058	-0.576892	0.577089
H150	H	1.062058	-0.076892	1.077089
H151	H	0.610032	-0.506775	0.573030
H152	H	1.110032	-0.006775	1.073030
H153	H	0.609954	-0.572663	0.506947
H154	H	1.109954	-0.072663	1.006947
H155	H	0.516003	-0.465715	0.532172
H156	H	1.016003	0.034285	1.032172
H157	H	0.515911	-0.531612	0.466088
H158	H	1.015911	-0.031612	0.966088
