data_functionalizedCrystal
_audit_creation_method	'MofGen! by Chris Wilmer'
_symmetry_space_group_name_H-M	'P1'
_symmetry_Int_Tables_number	1
_symmetry_cell_setting	triclinic
loop_
_symmetry_equiv_pos_as_xyz
  x,y,z
_cell_length_a	17.699083
_cell_length_b	9.065218
_cell_length_c	8.140239
_cell_angle_alpha	90.002802
_cell_angle_beta	89.995596
_cell_angle_gamma	95.850550
loop_
_atom_site_label
_atom_site_type_symbol
_atom_site_fract_x
_atom_site_fract_y
_atom_site_fract_z
O1	O	0.110973	-1.957109	-0.136622
O2	O	0.120075	-1.527555	-0.136624
O3	O	0.005429	-1.754468	-0.136608
O4	O	0.225619	-1.730196	-0.136637
O5	O	0.005428	-1.754455	0.136619
O6	O	0.120074	-1.527542	0.136603
O7	O	0.110971	-1.957097	0.136605
Zn8	Zn	0.115522	-1.742317	0.179985
Zn9	Zn	0.115524	-1.742334	-0.180004
O10	O	0.225617	-1.730183	0.136590
C11	C	-0.022775	-1.753592	0.000005
C12	C	-0.106813	-1.750983	0.000006
C13	C	0.119200	-1.472588	-0.000011
C14	C	0.116584	-1.308822	-0.000011
C15	C	0.111847	-2.012064	-0.000012
C16	C	0.114463	-2.175829	-0.000022
C17	C	-0.154396	-1.884176	0.000009
C18	C	-0.233358	-1.881716	-0.000005
C19	C	-0.264737	-1.746060	-0.000011
C20	C	-0.217149	-1.612857	-0.000019
C21	C	-0.138188	-1.615319	-0.000017
C22	C	-0.535589	-1.602925	-0.000033
C23	C	-0.614556	-1.600474	-0.000031
C24	C	-0.630760	-1.869322	-0.000022
C25	C	-0.551799	-1.871784	-0.000019
C26	C	-0.504217	-1.738581	-0.000036
C27	C	-0.418597	-1.741251	-0.000023
C28	C	-0.350355	-1.743390	-0.000012
C29	C	0.253822	-1.731059	-0.000028
C30	C	0.337860	-1.733669	-0.000039
N31	N	0.115521	-1.742317	0.425667
N32	N	0.115520	-1.742346	-0.425686
H33	H	-0.272097	-1.990175	0.000001
H34	H	-0.669510	-1.977782	-0.000016
H35	H	-0.526255	-1.982248	-0.000006
C36	C	-0.590611	-1.334952	-0.000085
C37	C	-0.649049	-1.451350	-0.000059
H38	H	-0.611908	-1.242897	-0.000112
H39	H	-0.560155	-1.341480	0.095190
H40	H	-0.560147	-1.341527	-0.095371
H41	H	-0.679510	-1.444781	0.095234
H42	H	-0.679518	-1.444818	-0.095344
C43	C	-0.009948	-1.499716	-0.000028
C44	C	-0.085881	-1.468910	-0.000021
H45	H	0.022342	-1.409324	-0.000047
H46	H	-0.000344	-1.555333	0.095249
H47	H	-0.000344	-1.555363	-0.095312
H48	H	-0.095486	-1.413271	0.095270
H49	H	-0.095489	-1.413269	-0.095308
C50	C	-0.330993	-1.489703	-0.000009
C51	C	-0.251638	-1.463740	-0.000020
H52	H	-0.352283	-1.397640	0.000005
H53	H	-0.347257	-1.544524	-0.095283
H54	H	-0.347258	-1.544532	0.095278
H55	H	-0.235373	-1.408920	-0.095314
H56	H	-0.235368	-1.408895	0.095264
H57	H	-0.128854	-1.994642	0.000024
C58	C	-0.437393	-1.449717	0.140407
C59	C	-0.483289	-1.456518	-0.000041
H60	H	-0.405099	-1.359331	0.140393
H61	H	-0.468535	-1.454331	0.235672
H62	H	-0.407410	-1.530869	0.140389
H63	H	-0.513277	-1.375372	-0.000016
H64	H	-0.452143	-1.451889	-0.095330
