data_functionalizedCrystal
_audit_creation_method	'MofGen! by Chris Wilmer'
_symmetry_space_group_name_H-M	'P1'
_symmetry_Int_Tables_number	1
_symmetry_cell_setting	triclinic
loop_
_symmetry_equiv_pos_as_xyz
  x,y,z
_cell_length_a	12.759400
_cell_length_b	12.759401
_cell_length_c	12.759393
_cell_angle_alpha	89.980387
_cell_angle_beta	89.968436
_cell_angle_gamma	90.014916
loop_
_atom_site_label
_atom_site_type_symbol
_atom_site_fract_x
_atom_site_fract_y
_atom_site_fract_z
Zn1	Zn	-0.418198	1.606256	-0.594013
Zn2	Zn	0.081802	2.106256	-0.094013
Zn3	Zn	-0.593917	1.606150	-0.418333
Zn4	Zn	-0.093917	2.106150	0.081667
Zn5	Zn	-0.418253	1.430557	-0.418349
Zn6	Zn	0.081747	1.930557	0.081651
Zn7	Zn	-0.593836	1.430546	-0.593971
Zn8	Zn	-0.093836	1.930546	-0.093971
O9	O	-0.506051	1.518377	-0.506166
O10	O	-0.006051	2.018377	-0.006166
O11	O	-0.441518	1.753263	-0.570719
O12	O	0.058482	2.253263	-0.070719
O13	O	-0.570671	1.582818	-0.271314
O14	O	-0.070671	2.082818	0.228686
O15	O	-0.271225	1.453913	-0.441675
O16	O	0.228775	1.953913	0.058325
O17	O	-0.570618	1.753185	-0.441648
O18	O	-0.070618	2.253185	0.058352
O19	O	-0.271184	1.582998	-0.570735
O20	O	0.228816	2.082998	-0.070735
O21	O	-0.441612	1.453811	-0.271325
O22	O	0.058388	1.953811	0.228675
O23	O	-0.441534	1.283535	-0.441634
O24	O	0.058466	1.783535	0.058366
O25	O	-0.570480	1.453894	-0.740998
O26	O	-0.070480	1.953894	-0.240998
O27	O	-0.570534	1.283527	-0.570663
O28	O	-0.070534	1.783527	-0.070663
O29	O	-0.441440	1.582987	-0.741028
O30	O	0.058560	2.082987	-0.241028
O31	O	-0.740927	1.582807	-0.441607
O32	O	-0.240927	2.082807	0.058393
O33	O	-0.740868	1.453791	-0.570648
O34	O	-0.240868	1.953791	-0.070648
C35	C	-0.506032	1.245410	-0.506147
C36	C	-0.006032	1.745410	-0.006147
C37	C	-0.506049	1.128633	-0.506163
C38	C	-0.006049	1.628633	-0.006163
C39	C	-0.573164	1.073734	-0.438864
C40	C	-0.073164	1.573734	0.061136
C41	C	-0.573182	0.964010	-0.438882
C42	C	-0.073182	1.464010	0.061118
C43	C	-0.438962	0.964094	-0.573502
C44	C	0.061038	1.464094	-0.073502
C45	C	-0.438950	1.073816	-0.573488
C46	C	0.061050	1.573816	-0.073488
C47	C	-0.640263	1.128552	-0.371539
C48	C	-0.140263	1.628552	0.128461
C49	C	-0.707382	1.073653	-0.304234
C50	C	-0.207382	1.573653	0.195766
C51	C	-0.707400	0.963929	-0.304252
C52	C	-0.207400	1.463929	0.195748
C53	C	-0.640299	0.909104	-0.371576
C54	C	-0.140299	1.409104	0.128424
C55	C	-0.779018	1.518315	-0.506144
C56	C	-0.279018	2.018315	-0.006144
C57	C	-0.895795	1.518384	-0.506170
C58	C	-0.395795	2.018384	-0.006170
C59	C	-0.950653	1.585637	-0.439053
C60	C	-0.450653	2.085637	0.060947
C61	C	-1.060377	1.585702	-0.439085
C62	C	-0.560377	2.085702	0.060915
C63	C	-1.060375	1.451252	-0.573355
C64	C	-0.560375	1.951252	-0.073355
C65	C	-0.950653	1.451193	-0.573327
C66	C	-0.450653	1.951193	-0.073327
C67	C	-0.895795	1.652828	-0.371896
C68	C	-0.395795	2.152828	0.128104
C69	C	-0.950653	1.720086	-0.304773
C70	C	-0.450653	2.220086	0.195227
C71	C	-1.060377	1.720150	-0.304805
C72	C	-0.560377	2.220150	0.195195
C73	C	-1.115243	1.652957	-0.371961
C74	C	-0.615243	2.152957	0.128039
C75	C	-0.232018	1.518468	-0.506211
C76	C	0.267982	2.018468	-0.006211
C77	C	-0.115241	1.518507	-0.506230
C78	C	0.384759	2.018507	-0.006230
C79	C	-0.505945	1.518451	-0.780200
C80	C	-0.005945	2.018451	-0.280200
C81	C	-0.505900	1.518482	-0.896976
C82	C	-0.005900	2.018482	-0.396976
C83	C	-0.506071	1.792411	-0.506187
C84	C	-0.006071	2.292411	-0.006187
C85	C	-0.506079	1.909187	-0.506195
C86	C	-0.006079	2.409187	-0.006195
C87	C	-0.438702	1.585710	-0.951856
C88	C	0.061298	2.085710	-0.451856
C89	C	-0.438664	1.585735	-1.061580
C90	C	0.061336	2.085735	-0.561580
C91	C	-0.573031	1.451301	-1.061535
C92	C	-0.073031	1.951301	-0.561535
C93	C	-0.573063	1.451272	-0.951813
C94	C	-0.073063	1.951272	-0.451813
C95	C	-0.371539	1.652920	-0.897019
C96	C	0.128461	2.152920	-0.397019
C97	C	-0.304337	1.720155	-0.951899
C98	C	0.195663	2.220155	-0.451899
C99	C	-0.304299	1.720180	-1.061623
C100	C	0.195701	2.220180	-0.561623
C101	C	-0.371463	1.652970	-1.116468
C102	C	0.128537	2.152970	-0.616468
C103	C	-0.506081	1.518364	-0.233199
C104	C	-0.006081	2.018364	0.266801
C105	C	-0.505830	1.518537	-0.116423
C106	C	-0.005830	2.018537	0.383577
H107	H	-0.384297	1.118515	-0.628286
H108	H	0.115703	1.618515	-0.128286
H109	H	-0.371565	1.652910	-0.807677
H110	H	0.128435	2.152910	-0.307677
F111	F	-0.232846	1.791665	-0.893529
F112	F	0.267154	2.291665	-0.393529
H113	H	-0.806452	1.652780	-0.371859
H114	H	-0.306452	2.152780	0.128141
F115	F	-0.778837	0.905504	-0.232625
F116	F	-0.278837	1.405504	0.267375
H117	H	-0.640327	0.819759	-0.371592
H118	H	-0.140327	1.319759	0.128408
F119	F	-1.118771	1.379744	-0.644820
F120	F	-0.618771	1.879744	-0.144820
F121	F	-0.778800	1.132003	-0.232596
F122	F	-0.278800	1.632003	0.267404
H123	H	-0.627765	1.396513	-0.907129
H124	H	-0.127765	1.896513	-0.407129
H125	H	-1.105039	1.774922	-0.250158
H126	H	-0.605039	2.274922	0.249842
F127	F	-0.367552	0.905741	-0.645146
F128	F	0.132448	1.405741	-0.145146
F129	F	-0.892266	1.379617	-0.644762
F130	F	-0.392266	1.879617	-0.144762
F131	F	-0.232778	1.791735	-1.120028
F132	F	0.267222	2.291735	-0.620028
F133	F	-0.892259	1.791602	-0.233314
F134	F	-0.392259	2.291602	0.266686
H135	H	-0.371415	1.652984	-1.205813
H136	H	0.128585	2.152984	-0.705813
F137	F	-1.232021	1.652690	-0.371652
F138	F	-0.732021	2.152690	0.128348
H139	H	-0.640254	1.217895	-0.371515
H140	H	-0.140254	1.717895	0.128485
F141	F	-0.644509	1.379780	-1.119908
F142	F	-0.144509	1.879780	-0.619908
