data_functionalizedCrystal
_audit_creation_method	'MofGen! by Chris Wilmer'
_symmetry_space_group_name_H-M	'P1'
_symmetry_Int_Tables_number	1
_symmetry_cell_setting	triclinic
loop_
_symmetry_equiv_pos_as_xyz
  x,y,z
_cell_length_a	17.077404
_cell_length_b	17.637651
_cell_length_c	17.077396
_cell_angle_alpha	101.244719
_cell_angle_beta	90.019777
_cell_angle_gamma	101.214193
loop_
_atom_site_label
_atom_site_type_symbol
_atom_site_fract_x
_atom_site_fract_y
_atom_site_fract_z
Zn1	Zn	1.136891	-0.314855	0.380571
Zn2	Zn	1.110274	-0.447075	0.222732
Zn3	Zn	1.005620	-0.314872	0.249315
Zn4	Zn	0.979078	-0.447017	0.353967
O5	O	1.057966	-0.380955	0.301646
O6	O	1.243204	-0.332412	0.359642
O7	O	1.096360	-0.429569	0.116405
O8	O	1.045281	-0.204232	0.288985
O9	O	1.223648	-0.429553	0.243679
O10	O	1.141725	-0.204220	0.385418
O11	O	1.019471	-0.332440	0.135936
O12	O	0.892256	-0.332384	0.263188
O13	O	1.000044	-0.429454	0.467349
O14	O	0.872756	-0.429470	0.340076
O15	O	1.115989	-0.332355	0.486895
O16	O	1.070623	-0.557705	0.217882
O17	O	0.974234	-0.557662	0.314300
C18	C	0.854024	-0.380923	0.301630
C19	C	0.766774	-0.380928	0.301638
C20	C	0.380798	-0.431621	0.341603
C21	C	0.462781	-0.431610	0.341593
C22	C	0.513915	-0.380976	0.301655
C23	C	0.483062	-0.330353	0.261717
C24	C	0.401081	-0.330368	0.261723
C25	C	0.653938	-0.330325	0.261710
C26	C	0.735926	-0.330309	0.261706
C27	C	0.715638	-0.431567	0.341580
C28	C	0.633656	-0.431582	0.341585
C29	C	0.602810	-0.380958	0.301649
C30	C	1.016682	-0.586371	0.260337
C31	C	0.999092	-0.674248	0.242690
C32	C	1.192104	-0.962941	0.435950
C33	C	1.175550	-1.045516	0.419355
C34	C	1.075190	-1.045636	0.318842
C35	C	1.091737	-0.963060	0.335426
C36	C	1.150194	-0.921719	0.393982
C37	C	1.049828	-0.921837	0.293458
C38	C	1.066371	-0.839268	0.310043
C39	C	1.124824	-0.797922	0.368598
C40	C	1.166738	-0.839150	0.410567
C41	C	0.991367	-0.963180	0.234906
C42	C	0.949457	-0.921957	0.192938
C43	C	0.966005	-0.839387	0.209519
C44	C	1.024458	-0.798040	0.268073
C45	C	0.924091	-0.798158	0.167549
C46	C	0.940634	-0.715589	0.184135
C47	C	1.041001	-0.715471	0.284659
C48	C	1.262704	-0.380987	0.301663
C49	C	1.349951	-0.381001	0.301670
C50	C	1.058025	-0.380896	0.506403
C51	C	1.058050	-0.380872	0.593657
C52	C	1.099433	-0.174736	0.343135
C53	C	1.117104	-0.086859	0.360815
C54	C	1.057964	-0.380956	0.097698
C55	C	1.058135	-0.380758	0.010489
C56	C	1.118425	-0.330308	0.644827
C57	C	1.118440	-0.330282	0.726813
C58	C	1.058082	-0.380823	0.757627
C59	C	0.997701	-0.431389	0.706451
C60	C	0.997684	-0.431411	0.624467
C61	C	0.997742	-0.431342	0.877330
C62	C	0.997760	-0.431321	0.959319
C63	C	1.118498	-0.330212	0.979676
C64	C	1.118481	-0.330234	0.897693
C65	C	1.058101	-0.380801	0.846522
H66	H	0.524702	-0.289129	0.229195
H67	H	1.167578	-0.289153	0.619745
H68	H	0.977892	-1.030413	0.221412
H69	H	1.167661	-0.289038	1.021344
H70	H	0.948564	-0.472506	0.835671
O71	O	0.867361	-0.838234	0.110583
C72	C	0.888605	-0.818118	0.036401
H73	H	0.930800	-0.758153	0.046842
H74	H	0.832528	-0.815346	0.001708
H75	H	0.919664	-0.864586	0.000669
H76	H	1.167605	-0.289110	0.768472
O77	O	0.745704	-0.480635	0.380435
C78	C	0.802158	-0.435678	0.440256
H79	H	0.826467	-0.375727	0.424721
H80	H	0.853342	-0.467888	0.444245
H81	H	0.772317	-0.427066	0.500176
H82	H	0.375967	-0.289146	0.229208
O83	O	0.892726	-0.962241	0.136058
C84	C	0.887094	-1.043959	0.130432
H85	H	0.945406	-1.055186	0.153949
H86	H	0.875515	-1.075378	0.065318
H87	H	0.835809	-1.067391	0.167479
H88	H	0.906507	-0.682026	0.149960
O89	O	1.177153	-0.281066	0.867895
C90	C	1.230460	-0.236442	0.930634
H91	H	1.198877	-0.233680	0.989623
H92	H	1.251354	-0.174159	0.919477
H93	H	1.284256	-0.265403	0.933535
H94	H	0.487891	-0.472832	0.374107
O95	O	0.939048	-0.480438	0.989127
C96	C	0.885758	-0.525084	0.926383
H97	H	0.889537	-0.492717	0.874457
H98	H	0.822224	-0.533494	0.948372
H99	H	0.902418	-0.585140	0.905586
O100	O	0.939086	-0.480595	0.736273
C101	C	0.940403	-0.559403	0.700401
H102	H	0.970233	-0.561062	0.640549
H103	H	0.876623	-0.594846	0.690456
H104	H	0.975415	-0.586027	0.741189
H105	H	1.088609	-0.681810	0.332335
H106	H	0.948514	-0.472577	0.582806
O107	O	1.140753	-0.717714	0.384718
C108	C	1.071037	-0.690157	0.410362
H109	H	1.016288	-0.737771	0.387340
H110	H	1.068170	-0.634943	0.386039
H111	H	1.072276	-0.675475	0.478444
O112	O	0.583888	-0.480804	0.380264
C113	C	0.526219	-0.531828	0.325227
H114	H	0.519532	-0.503866	0.271409
H115	H	0.466446	-0.542471	0.355043
H116	H	0.546046	-0.590404	0.304724
H117	H	1.214346	-0.805489	0.458243
O118	O	0.331115	-0.480693	0.380506
C119	C	0.292725	-0.435757	0.440310
H120	H	0.329934	-0.373490	0.457783
H121	H	0.286065	-0.464432	0.494905
H122	H	0.231135	-0.433011	0.416603
O123	O	0.785550	-0.281221	0.222769
C124	C	0.762023	-0.298406	0.141055
H125	H	0.726794	-0.361563	0.124304
H126	H	0.817298	-0.291557	0.103661
H127	H	0.722953	-0.255996	0.129124
O128	O	0.623897	-0.281106	0.223037
C129	C	0.586755	-0.230098	0.278083
H130	H	0.568884	-0.258070	0.331897
H131	H	0.531229	-0.219463	0.248273
H132	H	0.630118	-0.171517	0.298589
O133	O	1.248888	-0.922898	0.492883
C134	C	1.282351	-0.976985	0.526358
H135	H	1.238408	-1.035864	0.517216
H136	H	1.295470	-0.953085	0.593014
H137	H	1.340234	-0.985742	0.495912
H138	H	1.209671	-1.079076	0.453547
O139	O	1.018353	-1.085885	0.262054
C140	C	0.958042	-1.133633	0.297103
H141	H	0.983218	-1.145950	0.354146
H142	H	0.935906	-1.191722	0.253451
H143	H	0.906235	-1.101840	0.312053
