data_functionalizedCrystal
_audit_creation_method	'MofGen! by Chris Wilmer'
_symmetry_space_group_name_H-M	'P1'
_symmetry_Int_Tables_number	1
_symmetry_cell_setting	triclinic
loop_
_symmetry_equiv_pos_as_xyz
  x,y,z
_cell_length_a	11.792241
_cell_length_b	19.188930
_cell_length_c	10.268362
_cell_angle_alpha	89.989600
_cell_angle_beta	89.999626
_cell_angle_gamma	83.669099
loop_
_atom_site_label
_atom_site_type_symbol
_atom_site_fract_x
_atom_site_fract_y
_atom_site_fract_z
O1	O	1.505476	0.095695	-0.108190
O2	O	1.838810	0.429029	0.225144
O3	O	2.172143	0.762362	0.558477
O4	O	1.174988	0.105558	-0.108222
O5	O	1.508321	0.438891	0.225112
O6	O	1.841654	0.772224	0.558445
O7	O	1.349769	-0.000975	-0.108179
O8	O	1.683103	0.332358	0.225154
O9	O	2.016436	0.665691	0.558487
O10	O	1.330695	0.202228	-0.108232
O11	O	1.664028	0.535561	0.225101
O12	O	1.997362	0.868895	0.558434
O13	O	1.349754	-0.000980	0.108421
O14	O	1.683088	0.332354	0.441754
O15	O	2.016421	0.665687	0.775088
O16	O	1.174973	0.105553	0.108379
O17	O	1.508306	0.438886	0.441712
O18	O	1.841639	0.772220	0.775045
O19	O	1.505461	0.095691	0.108411
O20	O	1.838795	0.429024	0.441744
O21	O	2.172128	0.762357	0.775077
Cu22	Cu	1.340216	0.100622	0.128172
Cu23	Cu	1.673549	0.433955	0.461505
Cu24	Cu	2.006882	0.767288	0.794839
Cu25	Cu	1.340233	0.100627	-0.127983
Cu26	Cu	1.673567	0.433960	0.205350
Cu27	Cu	2.006900	0.767293	0.538683
O28	O	1.330680	0.202224	0.108368
O29	O	1.664013	0.535557	0.441702
O30	O	1.997346	0.868890	0.775035
C31	C	1.132699	0.104936	0.000075
C32	C	1.466032	0.438269	0.333408
C33	C	1.799365	0.771603	0.666741
C34	C	1.006713	0.103082	0.000064
C35	C	1.340046	0.436415	0.333397
C36	C	1.673379	0.769748	0.666730
C37	C	0.776051	0.099672	0.000102
C38	C	1.109385	0.433005	0.333435
C39	C	1.442718	0.766339	0.666769
C40	C	0.904408	0.101566	0.000081
C41	C	1.237742	0.434900	0.333414
C42	C	1.571075	0.768233	0.666748
C43	C	1.349144	-0.026992	0.000125
C44	C	1.682477	0.306341	0.333458
C45	C	2.015811	0.639675	0.666791
C46	C	1.347290	-0.104507	0.000136
C47	C	1.680623	0.228826	0.333469
C48	C	2.013956	0.562160	0.666802
C49	C	1.449846	-0.148850	0.000152
C50	C	1.783179	0.184483	0.333485
C51	C	2.116513	0.517817	0.666818
C52	C	1.448104	-0.221684	0.000131
C53	C	1.781437	0.111650	0.333464
C54	C	2.114771	0.444983	0.666797
C55	C	1.343800	-0.250171	0.000120
C56	C	1.677133	0.083162	0.333453
C57	C	2.010467	0.416496	0.666786
C58	C	1.241230	-0.205818	0.000096
C59	C	1.574564	0.127515	0.333429
C60	C	1.907897	0.460848	0.666763
C61	C	1.242975	-0.132986	0.000104
C62	C	1.576309	0.200347	0.333437
C63	C	1.909642	0.533681	0.666771
N64	N	1.264067	-0.358629	0.073825
N65	N	1.597400	-0.025296	0.407159
N66	N	1.930734	0.308038	0.740492
N67	N	1.262416	-0.427817	0.073820
N68	N	1.595750	-0.094484	0.407154
N69	N	1.929083	0.238850	0.740487
C70	C	1.338536	-0.469609	0.000093
C71	C	1.671870	-0.136276	0.333426
C72	C	2.005203	0.197057	0.666759
N73	N	1.416387	-0.439602	-0.073614
N74	N	1.749720	-0.106268	0.259720
N75	N	2.083053	0.227065	0.593053
N76	N	1.418041	-0.370407	-0.073603
N77	N	1.751374	-0.037074	0.259730
N78	N	2.084707	0.296259	0.593064
C79	C	1.341896	-0.329144	0.000110
C80	C	1.675230	0.004189	0.333443
C81	C	2.008563	0.337522	0.666777
C82	C	1.439211	-0.592928	0.000084
C83	C	1.772544	-0.259594	0.333418
C84	C	2.105877	0.073739	0.666751
C85	C	1.437464	-0.665762	0.000055
C86	C	1.770798	-0.332429	0.333389
C87	C	2.104131	0.000904	0.666722
C88	C	1.230588	-0.649895	0.000034
C89	C	1.563921	-0.316562	0.333367
C90	C	1.897254	0.016771	0.666700
C91	C	1.232337	-0.577062	0.000050
C92	C	1.565670	-0.243729	0.333383
C93	C	1.899004	0.089604	0.666716
C94	C	1.336652	-0.548583	0.000081
C95	C	1.669985	-0.215250	0.333415
C96	C	2.003318	0.118084	0.666748
C97	C	1.547751	0.096313	0.000111
C98	C	1.881084	0.429646	0.333445
C99	C	2.214417	0.762979	0.666778
C100	C	1.673737	0.098167	0.000114
C101	C	2.007070	0.431500	0.333447
C102	C	2.340403	0.764833	0.666781
C103	C	1.331305	0.228240	0.000062
C104	C	1.664638	0.561574	0.333395
C105	C	1.997972	0.894907	0.666728
C106	C	1.333159	0.305755	0.000042
C107	C	1.666493	0.639089	0.333375
C108	C	1.999826	0.972422	0.666709
N109	N	1.340211	0.100617	0.308338
N110	N	1.673545	0.433951	0.641671
N111	N	2.006878	0.767284	0.975005
N112	N	1.340247	0.100625	-0.308149
N113	N	1.673580	0.433959	0.025184
N114	N	2.006913	0.767292	0.358518
C115	C	1.340228	0.100625	0.574009
C116	C	1.673561	0.433959	0.907342
C117	C	2.006894	0.767292	1.240675
C118	C	1.340215	0.100623	0.426171
C119	C	1.673548	0.433956	0.759504
C120	C	2.006882	0.767290	1.092837
H121	H	1.534787	-0.125667	0.000173
H122	H	1.868120	0.207666	0.333506
H123	H	2.201453	0.540999	0.666840
F124	F	1.123181	-0.529867	0.000038
F125	F	1.456515	-0.196534	0.333371
F126	F	1.789848	0.136800	0.666704
F127	F	1.550229	-0.562615	0.000124
F128	F	1.883563	-0.229282	0.333457
F129	F	2.216896	0.104051	0.666791
H130	H	1.145661	-0.673089	0.000018
H131	H	1.478995	-0.339755	0.333352
H132	H	1.812328	-0.006422	0.666685
H133	H	1.156305	-0.229017	0.000084
H134	H	1.489639	0.104316	0.333418
H135	H	1.822972	0.437649	0.666751
H136	H	1.520981	-0.701866	0.000061
H137	H	1.854315	-0.368533	0.333394
H138	H	2.187648	-0.035200	0.666728
H139	H	1.531620	-0.257795	0.000139
H140	H	1.864953	0.075539	0.333472
H141	H	2.198287	0.408872	0.666805
H142	H	1.159459	-0.096881	0.000091
H143	H	1.492792	0.236452	0.333425
H144	H	1.826126	0.569785	0.666758
