data_functionalizedCrystal
_audit_creation_method	'MofGen! by Chris Wilmer'
_symmetry_space_group_name_H-M	'P1'
_symmetry_Int_Tables_number	1
_symmetry_cell_setting	triclinic
loop_
_symmetry_equiv_pos_as_xyz
  x,y,z
_cell_length_a	19.188905
_cell_length_b	19.188930
_cell_length_c	18.266242
_cell_angle_alpha	89.993204
_cell_angle_beta	89.986531
_cell_angle_gamma	83.139668
loop_
_atom_site_label
_atom_site_type_symbol
_atom_site_fract_x
_atom_site_fract_y
_atom_site_fract_z
O1	O	0.926158	0.087081	-0.061010
O2	O	1.259492	0.420414	0.272324
O3	O	1.592825	0.753748	0.605657
O4	O	0.722844	0.098834	-0.060986
O5	O	1.056178	0.432167	0.272348
O6	O	1.389511	0.765500	0.605681
O7	O	0.830369	-0.008699	-0.060984
O8	O	1.163702	0.324634	0.272349
O9	O	1.497035	0.657968	0.605682
O10	O	0.818634	0.194613	-0.061011
O11	O	1.151967	0.527947	0.272322
O12	O	1.485301	0.861280	0.605655
O13	O	0.830355	-0.008695	0.060778
O14	O	1.163688	0.324638	0.394111
O15	O	1.497021	0.657971	0.727444
O16	O	0.722831	0.098837	0.060776
O17	O	1.056164	0.432170	0.394109
O18	O	1.389497	0.765504	0.727443
O19	O	0.926144	0.087084	0.060752
O20	O	1.259478	0.420418	0.394086
O21	O	1.592811	0.753751	0.727419
Zn22	Zn	0.824485	0.092961	0.080097
Zn23	Zn	1.157819	0.426295	0.413430
Zn24	Zn	1.491152	0.759628	0.746763
Zn25	Zn	0.824504	0.092957	-0.080330
Zn26	Zn	1.157837	0.426290	0.253003
Zn27	Zn	1.491170	0.759623	0.586337
O28	O	0.818620	0.194617	0.060751
O29	O	1.151954	0.527950	0.394084
O30	O	1.485287	0.861284	0.727417
C31	C	0.696826	0.098458	-0.000102
C32	C	1.030160	0.431791	0.333232
C33	C	1.363493	0.765124	0.666565
C34	C	0.619321	0.097324	-0.000092
C35	C	0.952654	0.430657	0.333242
C36	C	1.285987	0.763991	0.666575
C37	C	0.582937	0.096777	-0.066466
C38	C	0.916270	0.430111	0.266867
C39	C	1.249603	0.763444	0.600201
C40	C	0.510113	0.095704	-0.066475
C41	C	0.843446	0.429038	0.266858
C42	C	1.176780	0.762371	0.600192
C43	C	0.473678	0.095164	-0.000106
C44	C	0.807012	0.428497	0.333227
C45	C	1.140345	0.761830	0.666561
C46	C	0.510071	0.095714	0.066277
C47	C	0.843404	0.429048	0.399610
C48	C	1.176737	0.762381	0.732944
C49	C	0.582892	0.096794	0.066284
C50	C	0.916225	0.430128	0.399618
C51	C	1.249559	0.763461	0.732951
N52	N	0.364652	0.053737	0.049292
N53	N	0.697986	0.387070	0.382625
N54	N	1.031319	0.720403	0.715958
N55	N	0.295475	0.052709	0.049280
N56	N	0.628809	0.386042	0.382614
N57	N	0.962142	0.719376	0.715947
C58	C	0.254272	0.091911	-0.000123
C59	C	0.587605	0.425244	0.333210
C60	C	0.920938	0.758578	0.666543
N61	N	0.284859	0.132171	-0.049526
N62	N	0.618193	0.465504	0.283807
N63	N	0.951526	0.798837	0.617140
N64	N	0.354043	0.133195	-0.049517
N65	N	0.687376	0.466529	0.283816
N66	N	1.020710	0.799862	0.617149
C67	C	0.394716	0.093993	-0.000106
C68	C	0.728049	0.427326	0.333227
C69	C	1.061382	0.760660	0.666560
C70	C	0.138923	0.090202	-0.066512
C71	C	0.472257	0.423536	0.266822
C72	C	0.805590	0.756869	0.600155
C73	C	0.066098	0.089133	-0.066518
C74	C	0.399431	0.422467	0.266815
C75	C	0.732765	0.755800	0.600149
C76	C	0.066058	0.089136	0.066236
C77	C	0.399391	0.422470	0.399569
C78	C	0.732725	0.755803	0.732903
C79	C	0.138881	0.090212	0.066240
C80	C	0.472215	0.423545	0.399574
C81	C	0.805548	0.756879	0.732907
C82	C	0.175310	0.090742	-0.000136
C83	C	0.508643	0.424075	0.333198
C84	C	0.841977	0.757408	0.666531
C85	C	0.829982	-0.034708	-0.000101
C86	C	1.163315	0.298625	0.333232
C87	C	1.496648	0.631959	0.666566
C88	C	0.828841	-0.112213	-0.000095
C89	C	1.162174	0.221121	0.333239
C90	C	1.495508	0.554454	0.666572
C91	C	0.891933	-0.157142	-0.000099
C92	C	1.225266	0.176191	0.333235
C93	C	1.558599	0.509525	0.666568
C94	C	0.890861	-0.229966	-0.000110
C95	C	1.224194	0.103367	0.333223
C96	C	1.557528	0.436701	0.666557
C97	C	0.826694	-0.257857	-0.000103
C98	C	1.160027	0.075477	0.333230
C99	C	1.493361	0.408810	0.666564
C100	C	0.763594	-0.212917	-0.000103
C101	C	1.096927	0.120416	0.333230
C102	C	1.430261	0.453749	0.666563
C103	C	0.764668	-0.140095	-0.000099
C104	C	1.098001	0.193238	0.333234
C105	C	1.431334	0.526572	0.666568
N106	N	0.777641	-0.365856	0.041341
N107	N	1.110975	-0.032523	0.374674
N108	N	1.444308	0.300811	0.708007
N109	N	0.776626	-0.435035	0.041338
N110	N	1.109959	-0.101701	0.374671
N111	N	1.443293	0.231632	0.708005
C112	C	0.823456	-0.477265	-0.000118
C113	C	1.156789	-0.143932	0.333216
C114	C	1.490122	0.189402	0.666549
N115	N	0.871350	-0.447705	-0.041561
N116	N	1.204684	-0.114372	0.291772
N117	N	1.538017	0.218962	0.625105
N118	N	0.872368	-0.378520	-0.041556
N119	N	1.205701	-0.045187	0.291778
N120	N	1.539034	0.288146	0.625111
C121	C	0.825523	-0.336819	-0.000108
C122	C	1.158856	-0.003486	0.333225
C123	C	1.492190	0.329848	0.666558
C124	C	0.885390	-0.601159	-0.000135
C125	C	1.218723	-0.267826	0.333198
C126	C	1.552056	0.065508	0.666532
C127	C	0.884315	-0.673984	-0.000151
C128	C	1.217649	-0.340650	0.333182
C129	C	1.550982	-0.007317	0.666515
C130	C	0.757047	-0.656933	-0.000137
C131	C	1.090380	-0.323600	0.333196
C132	C	1.423713	0.009733	0.666530
C133	C	0.758123	-0.584110	-0.000128
C134	C	1.091456	-0.250777	0.333205
C135	C	1.424790	0.082556	0.666538
C136	C	0.822296	-0.556228	-0.000124
C137	C	1.155630	-0.222894	0.333210
C138	C	1.488963	0.110439	0.666543
C139	C	0.952163	0.087460	-0.000134
C140	C	1.285496	0.420794	0.333200
C141	C	1.618829	0.754127	0.666533
C142	C	1.029668	0.088594	-0.000148
C143	C	1.363001	0.421927	0.333185
C144	C	1.696335	0.755261	0.666518
C145	C	0.819007	0.220626	-0.000134
C146	C	1.152341	0.553959	0.333199
C147	C	1.485674	0.887293	0.666532
C148	C	0.820148	0.298131	-0.000145
C149	C	1.153481	0.631464	0.333188
C150	C	1.486815	0.964797	0.666521
N151	N	0.824478	0.092964	0.189583
N152	N	1.157811	0.426297	0.522917
N153	N	1.491145	0.759631	0.856250
N154	N	0.824516	0.092948	-0.189817
N155	N	1.157850	0.426282	0.143516
N156	N	1.491183	0.759615	0.476850
C157	C	0.866731	0.135180	0.771849
C158	C	1.200064	0.468514	1.105182
C159	C	1.533398	0.801847	1.438515
C160	C	0.866724	0.135187	0.695204
C161	C	1.200057	0.468521	1.028537
C162	C	1.533390	0.801854	1.361870
C163	C	0.824510	0.092950	0.656896
C164	C	1.157843	0.426283	0.990229
C165	C	1.491177	0.759616	1.323563
C166	C	0.782287	0.050715	0.695240
C167	C	1.115620	0.384048	1.028573
C168	C	1.448953	0.717382	1.361906
C169	C	0.782290	0.050715	0.771883
C170	C	1.115623	0.384048	1.105216
C171	C	1.448957	0.717381	1.438550
N172	N	0.822819	0.031789	0.536567
N173	N	1.156152	0.365123	0.869900
N174	N	1.489486	0.698456	1.203233
N175	N	0.822820	0.031792	0.463759
N176	N	1.156153	0.365125	0.797092
N177	N	1.489486	0.698458	1.130425
C178	C	0.824497	0.092950	0.425974
C179	C	1.157830	0.426283	0.759307
C180	C	1.491163	0.759616	1.092640
N181	N	0.826186	0.154106	0.463747
N182	N	1.159519	0.487439	0.797081
N183	N	1.492853	0.820773	1.130414
N184	N	0.826189	0.154103	0.536562
N185	N	1.159522	0.487436	0.869895
N186	N	1.492855	0.820769	1.203229
C187	C	0.824501	0.092946	0.573789
C188	C	1.157835	0.426279	0.907122
C189	C	1.491168	0.759612	1.240456
C190	C	0.866705	0.135193	0.304532
C191	C	1.200039	0.468526	0.637866
C192	C	1.533372	0.801859	0.971199
C193	C	0.866693	0.135201	0.227886
C194	C	1.200026	0.468535	0.561219
C195	C	1.533360	0.801868	0.894553
C196	C	0.782260	0.050723	0.227923
C197	C	1.115594	0.384056	0.561256
C198	C	1.448927	0.717389	0.894590
C199	C	0.782269	0.050721	0.304568
C200	C	1.115602	0.384054	0.637901
C201	C	1.448935	0.717387	0.971235
C202	C	0.824495	0.092954	0.342868
C203	C	1.157828	0.426288	0.676201
C204	C	1.491162	0.759621	1.009535
H205	H	0.168506	0.090652	0.120290
H206	H	0.501840	0.423986	0.453623
H207	H	0.835173	0.757319	0.786956
H208	H	0.942239	-0.266555	-0.000116
H209	H	1.275573	0.066779	0.333217
H210	H	1.608906	0.400112	0.666550
H211	H	0.747885	0.016336	0.196734
H212	H	1.081218	0.349669	0.530067
H213	H	1.414551	0.683003	0.863400
H214	H	0.480401	0.095276	0.120315
H215	H	0.813734	0.428609	0.453649
H216	H	1.147067	0.761942	0.786982
H217	H	0.704801	-0.679641	-0.000135
H218	H	1.038134	-0.346308	0.333198
H219	H	1.371468	-0.012975	0.666532
H220	H	0.901099	0.169581	0.663986
H221	H	1.234432	0.502914	0.997319
H222	H	1.567766	0.836247	1.330653
H223	H	0.711349	-0.235631	-0.000099
H224	H	1.044682	0.097703	0.333234
H225	H	1.378016	0.431036	0.666567
H226	H	0.747896	0.016327	0.335780
H227	H	1.081229	0.349661	0.669113
H228	H	1.414563	0.682994	1.002447
H229	H	0.713289	-0.103513	-0.000096
H230	H	1.046622	0.229821	0.333238
H231	H	1.379956	0.563154	0.666571
H232	H	0.944187	-0.134445	-0.000097
H233	H	1.277521	0.198888	0.333236
H234	H	1.610854	0.532221	0.666569
H235	H	0.901114	0.169572	0.803028
H236	H	1.234447	0.502905	1.136361
H237	H	1.567780	0.836239	1.469694
H238	H	0.937644	-0.578456	-0.000135
H239	H	1.270977	-0.245123	0.333199
H240	H	1.604310	0.088211	0.666532
H241	H	0.935694	-0.710565	-0.000158
H242	H	1.269028	-0.377232	0.333175
H243	H	1.602361	-0.043899	0.666508
H244	H	0.612592	0.097209	-0.120515
H245	H	0.945926	0.430542	0.212819
H246	H	1.279259	0.763875	0.546152
H247	H	0.706747	-0.547527	-0.000121
H248	H	1.040080	-0.214194	0.333212
H249	H	1.373413	0.119139	0.666546
H250	H	0.747915	0.016326	0.664044
H251	H	1.081248	0.349660	0.997378
H252	H	1.414581	0.682993	1.330711
H253	H	0.747912	0.016324	0.803094
H254	H	1.081246	0.349657	1.136428
H255	H	1.414579	0.682990	1.469761
H256	H	0.901085	0.169586	0.335718
H257	H	1.234419	0.502919	0.669051
H258	H	1.567752	0.836252	1.002384
H259	H	0.901068	0.169596	0.196675
H260	H	1.234401	0.502929	0.530009
H261	H	1.567734	0.836263	0.863342
H262	H	0.480483	0.095260	-0.120527
H263	H	0.813816	0.428594	0.212807
H264	H	1.147150	0.761927	0.546140
H265	H	0.168584	0.090641	-0.120559
H266	H	0.501918	0.423974	0.212774
H267	H	0.835251	0.757307	0.546108
H268	H	0.612516	0.097240	0.120336
H269	H	0.945849	0.430573	0.453669
H270	H	1.279182	0.763907	0.787003
H271	H	0.036474	0.088693	-0.120570
H272	H	0.369808	0.422026	0.212763
H273	H	0.703141	0.755360	0.546097
H274	H	0.036393	0.088701	0.120275
H275	H	0.369726	0.422034	0.453609
H276	H	0.703060	0.755367	0.786942
