data_functionalizedCrystal
_audit_creation_method	'MofGen! by Chris Wilmer'
_symmetry_space_group_name_H-M	'P1'
_symmetry_Int_Tables_number	1
_symmetry_cell_setting	triclinic
loop_
_symmetry_equiv_pos_as_xyz
  x,y,z
_cell_length_a	10.489741
_cell_length_b	10.489716
_cell_length_c	13.448316
_cell_angle_alpha	89.997460
_cell_angle_beta	89.995953
_cell_angle_gamma	84.534155
loop_
_atom_site_label
_atom_site_type_symbol
_atom_site_fract_x
_atom_site_fract_y
_atom_site_fract_z
O1	O	1.694042	0.179973	-0.082621
O2	O	1.322845	0.196866	-0.082635
O3	O	1.516906	0.002820	-0.082631
O4	O	1.499980	0.374019	-0.082625
O5	O	1.516881	0.002807	0.082753
O6	O	1.322820	0.196854	0.082749
O7	O	1.694017	0.179961	0.082763
Cu8	Cu	1.508416	0.188406	0.097857
Cu9	Cu	1.508445	0.188421	-0.097729
O10	O	1.499956	0.374007	0.082759
C11	C	1.275301	0.195584	0.000055
C12	C	1.133672	0.191767	0.000049
C13	C	1.065542	0.068301	0.000056
C14	C	0.973423	0.126631	-0.081484
C15	C	0.973432	0.126648	0.081572
C16	C	1.043417	0.250148	-0.081558
C17	C	1.043436	0.250148	0.081570
C18	C	0.951344	0.308568	0.000011
C19	C	1.515622	-0.044719	0.000058
C20	C	1.511817	-0.186350	0.000049
C21	C	1.630822	-0.284024	0.000062
C22	C	1.567949	-0.361378	-0.081480
C23	C	1.567897	-0.361354	0.081575
C24	C	1.448994	-0.261839	-0.081562
C25	C	1.448960	-0.261810	0.081567
C26	C	1.386000	-0.339115	0.000005
C27	C	1.741561	0.181243	0.000071
C28	C	1.883190	0.185060	0.000071
C29	C	1.501240	0.421545	0.000068
C30	C	1.505044	0.563176	0.000071
N31	N	1.508405	0.188395	0.235421
N32	N	1.508467	0.188421	-0.235293
C33	C	1.594363	0.102507	0.287463
C34	C	1.594370	0.102506	0.391567
C35	C	1.508426	0.188400	0.443626
C36	C	1.422459	0.274292	0.391576
C37	C	1.422446	0.274286	0.287475
C38	C	1.422495	0.274301	0.608556
C39	C	1.422509	0.274309	0.712665
C40	C	1.594419	0.102521	0.712648
C41	C	1.594406	0.102515	0.608547
C42	C	1.508440	0.188409	0.556504
H43	H	0.942423	0.074395	-0.150423
H44	H	1.352475	0.344225	0.433969
H45	H	1.664354	0.032568	0.245084
O46	O	1.080648	0.312243	0.163840
C47	C	1.208564	0.299639	0.312967
C48	C	1.166545	0.229189	0.219815
H49	H	1.277998	0.232512	0.358259
H50	H	1.257800	0.387184	0.289530
H51	H	1.120915	0.331360	0.360110
H52	H	1.254127	0.197383	0.172631
H53	H	1.117265	0.141703	0.243321
O54	O	1.338944	0.357863	0.558155
C55	C	1.168397	0.528215	0.569152
C56	C	1.262958	0.433668	0.626355
H57	H	1.106918	0.589509	0.624266
H58	H	1.223977	0.592561	0.520431
H59	H	1.104227	0.472496	0.520398
H60	H	1.327150	0.489283	0.675163
H61	H	1.207297	0.369322	0.675013
O62	O	1.627835	-0.413430	0.163748
C63	C	1.690215	-0.606006	0.256312
C64	C	1.622314	-0.547206	0.163206
H65	H	1.685751	-0.714168	0.255915
H66	H	1.794547	-0.583926	0.256208
H67	H	1.640532	-0.563429	0.325786
H68	H	1.671892	-0.589749	0.093682
H69	H	1.517980	-0.569275	0.163398
O70	O	1.339078	0.357898	0.236962
C71	C	1.266280	0.578971	0.205145
C72	C	1.360794	0.484425	0.262393
H73	H	1.283786	0.681288	0.225701
H74	H	1.281030	0.564322	0.121788
H75	H	1.163981	0.561282	0.225618
H76	H	1.463130	0.502056	0.242003
H77	H	1.345932	0.499096	0.345737
H78	H	1.074251	0.302353	-0.150572
O79	O	0.892417	0.429798	-0.000211
C80	C	0.861334	0.631802	-0.086352
C81	C	0.928128	0.494538	-0.086230
H82	H	0.890202	0.684193	-0.155880
H83	H	0.753072	0.628088	-0.085752
H84	H	0.891349	0.684776	-0.017462
H85	H	0.898217	0.441484	-0.155109
H86	H	1.036378	0.498344	-0.086778
H87	H	1.398757	-0.218297	0.150506
O88	O	1.678007	0.019042	0.441966
C89	C	1.848497	-0.151366	0.430963
C90	C	1.753858	-0.056894	0.373763
H91	H	1.909829	-0.212804	0.375846
H92	H	1.912799	-0.095713	0.479656
H93	H	1.792854	-0.215584	0.479744
H94	H	1.809397	0.007347	0.324928
H95	H	1.689557	-0.112627	0.325133
H96	H	1.664394	0.032580	0.566160
H97	H	1.664414	0.032584	0.755027
H98	H	1.115241	-0.033196	-0.000048
H99	H	0.942448	0.074379	0.150507
H100	H	1.734335	-0.259347	-0.000016
O101	O	1.627674	-0.413300	-0.163795
C102	C	1.607871	-0.535415	-0.313837
C103	C	1.540060	-0.476663	-0.220674
H104	H	1.537072	-0.586681	-0.359839
H105	H	1.645680	-0.456277	-0.360311
H106	H	1.691104	-0.606864	-0.290288
H107	H	1.456778	-0.405228	-0.244134
H108	H	1.502343	-0.555871	-0.174222
H109	H	1.398795	-0.218530	-0.150576
H110	H	1.282408	-0.363546	-0.000043
H111	H	1.352523	0.344252	0.755046
