data_functionalizedCrystal
_audit_creation_method	'MofGen! by Chris Wilmer'
_symmetry_space_group_name_H-M	'P1'
_symmetry_Int_Tables_number	1
_symmetry_cell_setting	triclinic
loop_
_symmetry_equiv_pos_as_xyz
  x,y,z
_cell_length_a	18.050591
_cell_length_b	13.032721
_cell_length_c	13.034356
_cell_angle_alpha	90.866507
_cell_angle_beta	82.790456
_cell_angle_gamma	97.201340
loop_
_atom_site_label
_atom_site_type_symbol
_atom_site_fract_x
_atom_site_fract_y
_atom_site_fract_z
Zn1	Zn	1.162315	-0.335610	-0.633683
Zn2	Zn	1.131172	-0.529457	-0.483537
Zn3	Zn	1.020613	-0.357492	-0.461703
Zn4	Zn	1.024545	-0.507535	-0.655437
O5	O	1.084661	-0.432523	-0.558590
O6	O	1.262110	-0.361341	-0.613799
O7	O	1.101827	-0.524978	-0.336725
O8	O	1.050798	-0.210670	-0.466275
O9	O	1.239229	-0.503760	-0.503487
O10	O	1.154906	-0.194593	-0.592628
O11	O	1.020600	-0.398636	-0.320684
O12	O	0.917209	-0.377378	-0.487368
O13	O	1.057499	-0.466396	-0.796466
O14	O	0.920097	-0.487614	-0.629704
O15	O	1.158718	-0.340084	-0.780484
O16	O	1.105639	-0.670469	-0.524581
O17	O	1.027301	-0.654362	-0.650875
C18	C	1.063540	-0.699729	-0.592480
C19	C	1.054576	-0.814036	-0.607013
C20	C	0.891706	-0.432492	-0.558528
C21	C	0.809160	-0.432501	-0.558529
C22	C	1.089384	-0.872927	-0.551051
C23	C	1.080120	-0.991070	-0.566070
C24	C	0.608139	-0.372455	-0.481275
C25	C	0.548759	-0.469475	-0.467876
C26	C	0.658032	-0.432526	-0.558580
C27	C	0.570327	-0.335538	-0.571980
C28	C	0.512049	-0.432542	-0.558625
C29	C	0.599730	-0.529602	-0.545138
C30	C	0.621312	-0.395596	-0.649277
C31	C	0.561953	-0.492677	-0.635922
C32	C	0.742128	-0.432516	-0.558550
C33	C	0.427954	-0.432563	-0.558656
C34	C	1.278370	-0.432555	-0.558652
C35	C	1.360916	-0.432569	-0.558679
C36	C	1.112021	-0.398353	-0.826834
C37	C	1.123680	-0.383792	-0.941144
C38	C	1.105887	-0.164272	-0.524589
C39	C	1.114933	-0.049959	-0.510101
C40	C	1.090845	-0.424754	-1.118160
C41	C	1.078793	-0.439804	-1.000015
C42	C	1.057456	-0.466486	-0.291380
C43	C	1.045964	-0.480758	-0.177034
H44	H	1.126047	-0.835883	-0.492024
O45	O	0.658879	-0.358116	-0.740670
C46	C	0.644250	-0.255794	-0.754479
H47	H	0.626441	-0.220586	-0.676037
H48	H	0.697308	-0.208040	-0.793353
H49	H	0.597175	-0.256013	-0.805211
O50	O	0.554468	-0.237675	-0.585306
C51	C	0.505157	-0.209767	-0.499749
H52	H	0.510462	-0.258985	-0.430102
H53	H	0.520320	-0.124597	-0.480932
H54	H	0.444815	-0.223151	-0.519030
H55	H	1.031445	-0.498901	-0.962958
H56	H	0.628457	-0.321725	-0.415847
O57	O	1.147277	-0.354273	-1.162528
C58	C	1.146756	-0.354951	-1.270615
H59	H	1.088253	-0.386781	-1.289437
H60	H	1.162034	-0.272745	-1.301755
H61	H	1.189561	-0.405874	-1.308055
H62	H	0.517272	-0.500723	-0.391196
H63	H	1.171033	-0.324702	-0.978200
H64	H	0.998619	-0.539850	-1.139972
H65	H	1.043461	-1.028111	-0.625109
O66	O	1.158557	-1.005749	-0.439554
C67	C	1.114370	-0.952127	-0.365251
H68	H	1.052695	-0.985448	-0.362919
H69	H	1.133309	-0.960884	-0.285976
H70	H	1.121375	-0.866692	-0.386771
O71	O	0.537971	-0.553440	-0.713966
C72	C	0.599408	-0.596483	-0.767959
H73	H	0.645375	-0.597585	-0.715613
H74	H	0.580042	-0.678848	-0.792410
H75	H	0.622487	-0.547822	-0.839512
O76	O	1.010940	-0.858328	-0.677504
C77	C	1.055138	-0.911903	-0.751837
H78	H	1.106508	-0.932453	-0.717658
H79	H	1.020396	-0.985766	-0.775121
H80	H	1.074247	-0.860817	-0.822839
O81	O	0.615535	-0.627435	-0.531491
C82	C	0.693760	-0.626243	-0.531616
H83	H	0.719518	-0.545709	-0.509906
H84	H	0.704706	-0.684898	-0.473046
H85	H	0.720310	-0.647158	-0.611994
