data_functionalizedCrystal
_audit_creation_method	'MofGen! by Chris Wilmer'
_symmetry_space_group_name_H-M	'P1'
_symmetry_Int_Tables_number	1
_symmetry_cell_setting	triclinic
loop_
_symmetry_equiv_pos_as_xyz
  x,y,z
_cell_length_a	19.288864
_cell_length_b	19.288865
_cell_length_c	17.766277
_cell_angle_alpha	89.988397
_cell_angle_beta	89.976791
_cell_angle_gamma	83.136245
loop_
_atom_site_label
_atom_site_type_symbol
_atom_site_fract_x
_atom_site_fract_y
_atom_site_fract_z
O1	O	0.921353	0.086649	-0.062844
O2	O	1.421353	0.586649	0.437156
O3	O	0.719092	0.098337	-0.062794
O4	O	1.219092	0.598337	0.437206
O5	O	0.826067	-0.008637	-0.062806
O6	O	1.326067	0.491363	0.437194
O7	O	0.814378	0.193623	-0.062832
O8	O	1.314378	0.693623	0.437168
O9	O	0.826048	-0.008643	0.062383
O10	O	1.326048	0.491357	0.562383
O11	O	0.719074	0.098332	0.062395
O12	O	1.219074	0.598332	0.562395
O13	O	0.921334	0.086643	0.062344
O14	O	1.421334	0.586643	0.562344
Cu15	Cu	0.820202	0.092487	0.073800
Cu16	Cu	1.320202	0.592487	0.573800
Cu17	Cu	0.820224	0.092494	-0.074250
Cu18	Cu	1.320224	0.592494	0.425750
O19	O	0.814360	0.193618	0.062356
O20	O	1.314360	0.693618	0.562356
C21	C	0.693207	0.097959	-0.000193
C22	C	1.193207	0.597959	0.499807
C23	C	0.616103	0.096830	-0.000173
C24	C	1.116103	0.596830	0.499827
C25	C	0.571407	0.159598	-0.000193
C26	C	1.071407	0.659598	0.499807
C27	C	0.498960	0.158537	-0.000201
C28	C	0.998960	0.658537	0.499799
C29	C	0.471212	0.094705	-0.000205
C30	C	0.971212	0.594705	0.499795
C31	C	0.515918	0.031929	-0.000180
C32	C	1.015918	0.531929	0.499820
C33	C	0.588364	0.032991	-0.000164
C34	C	1.088364	0.532991	0.499836
C35	C	0.362957	0.044527	-0.044082
C36	C	0.862957	0.544527	0.455918
C37	C	0.290512	0.043468	-0.044103
C38	C	0.790512	0.543468	0.455897
C39	C	0.247767	0.091425	-0.000250
C40	C	0.747767	0.591425	0.499750
C41	C	0.277473	0.140454	0.043614
C42	C	0.777473	0.640454	0.543614
C43	C	0.349918	0.141517	0.043630
C44	C	0.849918	0.641517	0.543630
C45	C	0.392658	0.093546	-0.000221
C46	C	0.892658	0.593546	0.499779
C47	C	0.124514	0.153047	-0.000278
C48	C	0.624514	0.653047	0.499722
C49	C	0.052066	0.151984	-0.000281
C50	C	0.552066	0.651984	0.499719
C51	C	0.069026	0.025374	-0.000267
C52	C	0.569026	0.525374	0.499733
C53	C	0.141473	0.026439	-0.000256
C54	C	0.641473	0.526439	0.499744
C55	C	0.169212	0.090278	-0.000265
C56	C	0.669212	0.590278	0.499735
C57	C	0.825682	-0.034516	-0.000209
C58	C	1.325682	0.465484	0.499791
C59	C	0.824553	-0.111620	-0.000202
C60	C	1.324553	0.388380	0.499798
C61	C	0.887321	-0.156316	-0.000214
C62	C	1.387321	0.343684	0.499786
C63	C	0.886260	-0.228763	-0.000226
C64	C	1.386260	0.271237	0.499774
C65	C	0.822428	-0.256511	-0.000210
C66	C	1.322428	0.243489	0.499790
C67	C	0.759652	-0.211805	-0.000203
C68	C	1.259652	0.288195	0.499797
C69	C	0.760714	-0.139359	-0.000198
C70	C	1.260714	0.360641	0.499802
C71	C	0.772242	-0.364800	0.043653
C72	C	1.272242	0.135200	0.543653
C73	C	0.771182	-0.437245	0.043654
C74	C	1.271182	0.062755	0.543654
C75	C	0.819148	-0.479956	-0.000226
C76	C	1.319148	0.020044	0.499774
C77	C	0.868186	-0.450216	-0.044097
C78	C	1.368186	0.049784	0.455903
C79	C	0.869249	-0.377771	-0.044093
C80	C	1.369249	0.122229	0.455907
C81	C	0.821269	-0.335065	-0.000215
C82	C	1.321269	0.164935	0.499785
C83	C	0.880770	-0.603209	-0.000252
C84	C	1.380770	-0.103209	0.499748
C85	C	0.879707	-0.675657	-0.000268
C86	C	1.379707	-0.175657	0.499732
C87	C	0.753097	-0.658697	-0.000238
C88	C	1.253097	-0.158697	0.499762
C89	C	0.754162	-0.586250	-0.000229
C90	C	1.254162	-0.086250	0.499771
C91	C	0.818001	-0.558511	-0.000232
C92	C	1.318001	-0.058511	0.499768
C93	C	0.947220	0.087022	-0.000258
C94	C	1.447220	0.587022	0.499742
C95	C	1.024324	0.088151	-0.000283
C96	C	1.524324	0.588151	0.499717
C97	C	0.814745	0.219497	-0.000242
C98	C	1.314745	0.719497	0.499758
C99	C	0.815874	0.296601	-0.000254
C100	C	1.315874	0.796601	0.499746
N101	N	0.820192	0.092482	0.177931
N102	N	1.320192	0.592482	0.677931
N103	N	0.820241	0.092493	-0.178380
N104	N	1.320241	0.592493	0.321620
C105	C	0.867575	0.045137	0.217312
C106	C	1.367575	0.545137	0.717312
C107	C	0.867579	0.045134	0.296114
C108	C	1.367579	0.545134	0.796114
C109	C	0.820206	0.092488	0.335531
C110	C	1.320206	0.592488	0.835531
C111	C	0.772814	0.139837	0.296140
C112	C	1.272814	0.639837	0.796140
C113	C	0.772807	0.139834	0.217340
C114	C	1.272807	0.639834	0.717340
C115	C	0.810908	0.155775	0.460362
C116	C	1.310908	0.655775	0.960362
C117	C	0.810920	0.155779	0.539161
C118	C	1.310920	0.655779	1.039161
C119	C	0.820225	0.092496	0.578577
C120	C	1.320225	0.592496	1.078577
C121	C	0.829533	0.029207	0.539185
C122	C	1.329533	0.529207	1.039185
C123	C	0.829525	0.029204	0.460385
C124	C	1.329525	0.529204	0.960385
C125	C	0.820209	0.092496	0.420977
C126	C	1.320209	0.592496	0.920977
C127	C	0.867616	0.045143	0.703405
C128	C	1.367616	0.545143	1.203405
C129	C	0.867615	0.045139	0.782208
C130	C	1.367615	0.545139	1.282208
C131	C	0.772853	0.139848	0.782233
C132	C	1.272853	0.639848	1.282233
C133	C	0.772850	0.139846	0.703431
C134	C	1.272850	0.639846	1.203431
C135	C	0.820235	0.092495	0.664022
C136	C	1.320235	0.592495	1.164022
H137	H	0.462561	0.209652	-0.000216
H138	H	0.962561	0.709652	0.499784
H139	H	0.932751	-0.580622	-0.000258
H140	H	1.432751	-0.080622	0.499742
O141	O	0.918695	-0.005926	0.338605
O142	O	1.418695	0.494074	0.838605
H143	H	0.951646	-0.038848	0.297963
H144	H	1.451646	0.461152	0.797963
H145	H	0.837102	-0.022328	0.428315
H146	H	1.337102	0.477672	0.928315
O147	O	0.918678	-0.005942	0.174813
O148	O	1.418678	0.494058	0.674813
H149	H	0.952343	0.023208	0.138888
H150	H	1.452343	0.523208	0.638888
H151	H	0.374102	0.181436	0.079347
H152	H	0.874102	0.681436	0.579347
O153	O	0.039105	-0.043474	-0.000262
O154	O	0.539105	0.456526	0.499738
H155	H	0.082361	-0.086944	-0.000240
H156	H	0.582361	0.413056	0.499760
H157	H	0.907245	-0.484991	-0.079829
H158	H	1.407245	0.015009	0.420171
H159	H	0.242670	0.179505	0.079324
H160	H	0.742670	0.679505	0.579324
O161	O	0.947409	-0.723871	-0.000275
O162	O	1.447409	-0.223871	0.499725
H163	H	0.991975	-0.692408	-0.000267
H164	H	1.491975	-0.192408	0.499733
H165	H	0.493322	-0.020044	-0.000193
H166	H	0.993322	0.479956	0.499807
H167	H	0.731249	-0.461453	0.079371
H168	H	1.231249	0.038547	0.579371
O169	O	0.953962	-0.276984	-0.000225
O170	O	1.453962	0.223016	0.499775
H171	H	0.984542	-0.267139	-0.051247
H172	H	1.484542	0.232861	0.448753
O173	O	0.690805	-0.241733	-0.000180
O174	O	1.190805	0.258267	0.499820
H175	H	0.660663	-0.223761	-0.051200
H176	H	1.160663	0.276239	0.448800
O177	O	0.721691	0.190899	0.174862
O178	O	1.221691	0.690899	0.674862
H179	H	0.729641	0.182937	0.113446
H180	H	1.229641	0.682937	0.613446
H181	H	0.147101	0.205028	-0.000274
H182	H	0.647101	0.705028	0.499726
O183	O	0.003852	0.219686	-0.000300
O184	O	0.503852	0.719686	0.499700
H185	H	0.035315	0.264252	-0.000310
H186	H	0.535315	0.764252	0.499690
H187	H	0.177866	-0.024674	-0.000244
H188	H	0.677866	0.475326	0.499756
H189	H	0.734269	0.178402	0.671364
H190	H	1.234269	0.678402	1.171364
H191	H	0.733180	-0.330029	0.079389
H192	H	1.233180	0.169971	0.579389
O193	O	0.693008	-0.091150	-0.000175
O194	O	1.193008	0.408850	0.499825
H195	H	0.690466	-0.057727	-0.051198
H196	H	1.190466	0.442273	0.448802
O197	O	0.800895	0.224040	0.581642
O198	O	1.300895	0.724040	1.081642
H199	H	0.749607	0.253074	0.566547
H200	H	1.249607	0.753074	1.066547
H201	H	0.266331	0.003548	-0.079822
H202	H	0.766331	0.503548	0.420178
H203	H	0.703049	-0.549857	-0.000215
H204	H	1.203049	-0.049857	0.499785
O205	O	0.956171	-0.126395	-0.000239
O206	O	1.456171	0.373605	0.499761
H207	H	0.999640	-0.169652	-0.000260
H208	H	1.499640	0.330348	0.499740
O209	O	0.839564	-0.039057	0.581684
O210	O	1.339564	0.460943	1.081684
H211	H	0.837996	-0.028426	0.643097
H212	H	1.337996	0.471574	1.143097
O213	O	0.409060	-0.007198	-0.091388
O214	O	0.909060	0.492802	0.408612
H215	H	0.376233	-0.041459	-0.121901
H216	H	0.876233	0.458541	0.378099
O217	O	0.601329	0.228448	-0.000196
O218	O	1.101329	0.728448	0.499804
H219	H	0.633905	0.231953	0.050834
H220	H	1.133905	0.731953	0.550834
O221	O	0.684249	-0.688618	-0.000220
O222	O	1.184249	-0.188618	0.499780
H223	H	0.640779	-0.645362	-0.000212
H224	H	1.140779	-0.145362	0.499788
O225	O	0.721756	0.190927	0.824734
O226	O	1.221756	0.690927	1.324734
H227	H	0.729724	0.182979	0.886146
H228	H	1.229724	0.682979	1.386146
O229	O	0.636579	-0.034711	-0.000146
O230	O	1.136579	0.465289	0.499854
H231	H	0.605117	-0.079278	-0.000152
H232	H	1.105117	0.420722	0.499848
H233	H	0.909176	-0.353560	-0.079815
H234	H	1.409176	0.146440	0.420185
O235	O	0.918711	-0.005933	0.660890
O236	O	1.418711	0.494067	1.160890
H237	H	0.951654	-0.038866	0.701518
H238	H	1.451654	0.461134	1.201518
O239	O	0.918731	-0.005921	0.824691
O240	O	1.418731	0.494079	1.324691
H241	H	0.951684	-0.038838	0.784045
H242	H	1.451684	0.461162	1.284045
H243	H	0.803318	0.207311	0.428276
H244	H	1.303318	0.707311	0.928276
H245	H	0.734241	0.178392	0.328237
H246	H	1.234241	0.678392	0.828237
