data_functionalizedCrystal
_audit_creation_method	'MofGen! by Chris Wilmer'
_symmetry_space_group_name_H-M	'P1'
_symmetry_Int_Tables_number	1
_symmetry_cell_setting	triclinic
loop_
_symmetry_equiv_pos_as_xyz
  x,y,z
_cell_length_a	6.817900
_cell_length_b	16.142996
_cell_length_c	10.773890
_cell_angle_alpha	83.291214
_cell_angle_beta	96.645716
_cell_angle_gamma	79.215221
loop_
_atom_site_label
_atom_site_type_symbol
_atom_site_fract_x
_atom_site_fract_y
_atom_site_fract_z
V1	V	-3.961947	0.261638	-0.173502
O2	O	-3.985982	0.258071	0.007399
O3	O	-3.879968	0.258488	-0.343123
O4	O	-3.900762	0.376367	-0.171245
O5	O	-3.965044	0.139376	-0.165669
V6	V	-4.451582	0.247179	-0.151816
O7	O	-4.209797	0.293353	-0.221073
O8	O	-4.653930	0.215464	-0.104245
O9	O	-4.310354	0.250329	0.017805
O10	O	-4.544944	0.250746	-0.332716
O11	O	-4.565882	0.369441	-0.159649
O12	O	-4.289561	0.132450	-0.154072
C13	C	-3.717214	0.254010	-0.384460
C14	C	-3.731389	0.252200	-0.523129
C15	C	-3.909113	0.255345	-0.591003
C16	C	-3.923767	0.253474	-0.734325
C17	C	-4.109926	0.104437	-0.160110
C18	C	-4.058130	0.010653	-0.160827
C19	C	-3.869714	-0.330127	-0.163262
C20	C	-4.099974	-0.299608	-0.155002
C21	C	-4.154162	-0.202012	-0.154775
C22	C	-3.963190	-0.161062	-0.162053
C23	C	-3.876227	-0.182281	-0.285763
C24	C	-3.823679	-0.279888	-0.286510
C25	C	-3.745148	-0.303070	-0.048261
C26	C	-3.802545	-0.205731	-0.045842
C27	C	-4.016010	-0.065513	-0.161375
C28	C	-3.816891	-0.425675	-0.163949
C29	C	-3.743738	0.404375	-0.165211
C30	C	-3.774774	0.498158	-0.164488
C31	C	-4.136449	0.254805	0.059135
C32	C	-4.101512	0.256620	0.197804
H33	H	-4.222773	-0.188417	-0.065845
F34	F	-3.616222	-0.169892	-0.043350
H35	H	-3.913285	-0.295758	-0.373504
F36	F	-3.606792	-0.305144	-0.301049
F37	F	-4.286237	0.261958	-0.739478
H38	H	-4.050422	0.259428	-0.543007
F39	F	-3.739049	0.248150	-0.797050
H40	H	-3.735463	-0.154874	-0.295589
H41	H	-3.590083	0.248126	-0.571127
F42	F	-3.778612	-0.348924	0.073264
F43	F	-4.313942	-0.163201	-0.263058
F44	F	-4.156219	-0.343833	-0.039144
F45	F	-4.025069	-0.141330	-0.398590
F46	F	-4.224519	-0.323437	-0.262962
F47	F	-3.882903	-0.189109	0.073703
H48	H	-3.576936	-0.322452	-0.053169
