data_functionalizedCrystal
_audit_creation_method	'MofGen! by Chris Wilmer'
_symmetry_space_group_name_H-M	'P1'
_symmetry_Int_Tables_number	1
_symmetry_cell_setting	triclinic
loop_
_symmetry_equiv_pos_as_xyz
  x,y,z
_cell_length_a	23.532407
_cell_length_b	10.654550
_cell_length_c	9.130313
_cell_angle_alpha	89.999890
_cell_angle_beta	90.005122
_cell_angle_gamma	83.666790
loop_
_atom_site_label
_atom_site_type_symbol
_atom_site_fract_x
_atom_site_fract_y
_atom_site_fract_z
O1	O	0.756249	0.152433	-0.121613
O2	O	0.590530	0.174490	-0.121656
O3	O	0.677200	-0.019399	-0.121628
O4	O	0.669579	0.346321	-0.121641
O5	O	0.677199	-0.019393	0.121971
O6	O	0.590529	0.174495	0.121943
O7	O	0.756248	0.152438	0.121986
Cu8	Cu	0.673388	0.163467	0.144207
Cu9	Cu	0.673390	0.163461	-0.143877
O10	O	0.669578	0.346326	0.121958
C11	C	0.676640	-0.066176	0.000170
C12	C	0.674966	-0.205567	0.000164
C13	C	0.569310	0.173931	0.000138
C14	C	0.506081	0.172242	0.000122
C15	C	0.725996	-0.286669	0.000181
C16	C	0.724419	-0.417640	0.000171
C17	C	0.620779	-0.386393	0.000131
C18	C	0.622356	-0.255425	0.000132
C19	C	0.778606	-0.236811	0.000214
C20	C	0.829640	-0.317915	0.000233
C21	C	0.828064	-0.448886	0.000223
C22	C	0.775453	-0.498753	0.000193
C23	C	0.107657	0.276389	0.000185
C24	C	0.048247	0.274820	0.000194
O25	O	0.012131	0.371366	0.000244
N26	N	0.024869	0.159554	0.000195
C27	C	0.060906	0.045849	0.000203
O28	O	0.035567	-0.052339	0.000207
C29	C	0.120315	0.047419	0.000204
C30	C	0.143689	0.162693	0.000188
C31	C	0.131031	0.391654	0.000170
C32	C	0.190438	0.393222	0.000158
C33	C	0.226470	0.279525	0.000161
C34	C	0.203095	0.164261	0.000176
C35	C	0.156351	-0.066285	0.000222
C36	C	0.215764	-0.064705	0.000225
C37	C	0.239138	0.050569	0.000208
C38	C	0.298534	0.052133	0.000168
N39	N	0.321911	0.167399	0.000166
C40	C	0.285879	0.281096	0.000163
C41	C	-0.063858	0.042560	0.000202
C42	C	-0.123266	0.040989	0.000190
C43	C	-0.135922	0.269961	0.000184
C44	C	-0.076512	0.271531	0.000186
C45	C	-0.040481	0.157827	0.000201
C46	C	0.410637	0.284380	0.000137
C47	C	0.470049	0.285938	0.000119
C48	C	0.482700	0.056967	0.000133
C49	C	0.423293	0.055408	0.000143
C50	C	0.387262	0.169125	0.000150
O51	O	0.334684	-0.044362	0.000124
O52	O	0.311227	0.379267	0.000179
C53	C	0.777469	0.152997	0.000189
C54	C	0.840697	0.154686	0.000195
C55	C	0.670138	0.393104	0.000157
C56	C	0.671812	0.532494	0.000153
N57	N	0.673392	0.163470	0.346830
N58	N	0.673391	0.163447	-0.346500
C59	C	0.711779	0.077645	0.423494
C60	C	0.711778	0.077630	0.576831
C61	C	0.634999	0.249276	0.576826
C62	C	0.634999	0.249285	0.423492
C63	C	0.750172	-0.008169	0.346832
C64	C	0.788563	-0.094000	0.423496
C65	C	0.788562	-0.094015	0.576833
C66	C	0.750169	-0.008199	0.653506
H67	H	0.872474	-0.277304	0.000221
O68	O	-0.051302	0.395859	0.000196
H69	H	-0.086344	0.474649	0.000205
H70	H	0.774174	-0.605399	0.000168
H71	H	0.779895	-0.130170	0.000227
O72	O	0.750170	-0.008216	0.818892
H73	H	0.717025	0.065874	0.859322
O74	O	0.564036	-0.440169	0.000128
H75	H	0.571513	-0.544866	0.000150
H76	H	0.489077	0.379812	0.000105
H77	H	-0.034524	-0.050038	0.000202
H78	H	0.603742	0.319146	0.639262
H79	H	0.819818	-0.163876	0.361062
O80	O	0.567318	-0.167935	0.000127
H81	H	0.530470	-0.224605	0.000130
O82	O	-0.174792	0.392595	0.000210
H83	H	-0.202173	0.397354	-0.099063
H84	H	0.869618	-0.514918	0.000223
O85	O	0.750170	-0.008169	0.181448
H86	H	0.792788	0.011443	0.141027
H87	H	0.381308	0.376980	0.000147
O88	O	0.215645	0.517553	0.000184
H89	H	0.180601	0.596338	0.000208
H90	H	0.101699	0.484244	0.000173
O91	O	0.593600	0.341857	0.340786
H92	H	0.566909	0.401542	0.419851
O93	O	0.521568	-0.065660	0.000137
H94	H	0.513202	-0.120852	0.099429
O95	O	0.254626	-0.187348	0.000251
H96	H	0.281996	-0.192121	-0.099031
H97	H	-0.142291	-0.052879	0.000181
O98	O	0.131149	-0.190617	0.000271
H99	H	0.166194	-0.269400	0.000301
H100	H	0.404261	-0.038457	0.000135
O101	O	0.829970	-0.186574	0.659530
H102	H	0.856669	-0.246230	0.580456
