data_functionalizedCrystal
_audit_creation_method	'MofGen! by Chris Wilmer'
_symmetry_space_group_name_H-M	'P1'
_symmetry_Int_Tables_number	1
_symmetry_cell_setting	triclinic
loop_
_symmetry_equiv_pos_as_xyz
  x,y,z
_cell_length_a	21.395362
_cell_length_b	18.215405
_cell_length_c	21.395355
_cell_angle_alpha	89.980149
_cell_angle_beta	89.956060
_cell_angle_gamma	90.040762
loop_
_atom_site_label
_atom_site_type_symbol
_atom_site_fract_x
_atom_site_fract_y
_atom_site_fract_z
Zn1	Zn	0.957885	-0.292758	-0.354580
Zn2	Zn	1.457885	0.207242	0.145420
Zn3	Zn	0.957798	-0.415806	-0.249800
Zn4	Zn	1.457798	0.084194	0.250200
Zn5	Zn	0.853100	-0.292792	-0.249781
Zn6	Zn	1.353100	0.207208	0.250219
Zn7	Zn	0.853080	-0.415821	-0.354505
Zn8	Zn	1.353080	0.084179	0.145495
O9	O	0.905466	-0.354294	-0.302166
O10	O	1.405466	0.145706	0.197834
O11	O	1.045551	-0.309060	-0.340720
O12	O	1.545551	0.190940	0.159280
O13	O	0.943882	-0.399496	-0.162119
O14	O	1.443882	0.100504	0.337881
O15	O	0.867045	-0.189803	-0.263706
O16	O	1.367045	0.310197	0.236294
O17	O	1.045487	-0.399463	-0.263739
O18	O	1.545487	0.100537	0.236261
O19	O	0.944030	-0.189778	-0.340702
O20	O	1.444030	0.310222	0.159298
O21	O	0.866960	-0.309118	-0.162106
O22	O	1.366960	0.190882	0.337894
O23	O	0.765419	-0.309133	-0.263634
O24	O	1.265419	0.190867	0.236366
O25	O	0.867010	-0.399488	-0.442193
O26	O	1.367010	0.100512	0.057807
O27	O	0.765404	-0.399522	-0.340573
O28	O	1.265404	0.100478	0.159427
O29	O	0.944010	-0.309074	-0.442248
O30	O	1.444010	0.190926	0.057752
O31	O	0.943862	-0.518792	-0.263666
O32	O	1.443862	-0.018792	0.236334
O33	O	0.866926	-0.518803	-0.340592
O34	O	1.366926	-0.018803	0.159408
C35	C	0.742678	-0.354333	-0.302094
C36	C	1.242678	0.145667	0.197906
C37	C	0.673037	-0.354367	-0.302077
C38	C	1.173037	0.145633	0.197923
C39	C	0.640332	-0.401495	-0.342080
C40	C	1.140332	0.098505	0.157920
C41	C	0.574897	-0.401477	-0.342108
C42	C	1.074897	0.098523	0.157892
C43	C	0.542168	-0.354339	-0.302122
C44	C	1.042168	0.145661	0.197878
C45	C	0.574881	-0.307202	-0.262117
C46	C	1.074881	0.192798	0.237883
C47	C	0.640315	-0.307216	-0.262094
C48	C	1.140315	0.192784	0.237906
C49	C	0.438443	-0.348410	-0.245717
C50	C	0.938443	0.151590	0.254283
C51	C	0.373010	-0.348401	-0.245738
C52	C	0.873010	0.151599	0.254262
C53	C	0.340348	-0.354291	-0.302191
C54	C	0.840348	0.145709	0.197809
C55	C	0.373126	-0.360205	-0.358625
C56	C	0.873126	0.139795	0.141375
C57	C	0.438560	-0.360219	-0.358602
C58	C	0.938560	0.139781	0.141398
C59	C	0.471216	-0.354318	-0.302142
C60	C	0.971216	0.145682	0.197858
C61	C	0.236691	-0.401402	-0.342228
C62	C	0.736691	0.098598	0.157772
C63	C	0.171254	-0.401379	-0.342256
C64	C	0.671254	0.098621	0.157744
C65	C	0.171239	-0.307107	-0.262260
C66	C	0.671239	0.192893	0.237740
C67	C	0.236675	-0.307127	-0.262236
C68	C	0.736675	0.192873	0.237764
C69	C	0.269396	-0.354278	-0.302219
C70	C	0.769396	0.145722	0.197781
C71	C	0.905399	-0.545500	-0.302136
C72	C	1.405399	-0.045500	0.197864
C73	C	0.905428	-0.627299	-0.302144
C74	C	1.405428	-0.127299	0.197856
C75	C	0.945583	-0.815463	-0.262163
C76	C	1.445583	-0.315463	0.237837
C77	C	0.945611	-0.892322	-0.262178
C78	C	1.445611	-0.392322	0.237822
C79	C	0.865428	-0.892373	-0.342215
C80	C	1.365428	-0.392373	0.157785
C81	C	0.865404	-0.815516	-0.342203
C82	C	1.365404	-0.315516	0.157797
C83	C	0.905480	-0.777063	-0.302173
C84	C	1.405480	-0.277063	0.197827
C85	C	0.905533	-0.930779	-0.302200
C86	C	1.405533	-0.430779	0.197800
C87	C	0.905563	-1.014112	-0.302217
C88	C	1.405563	-0.514112	0.197783
C89	C	0.905451	-0.693724	-0.302157
C90	C	1.405451	-0.193724	0.197843
C91	C	1.068889	-0.354256	-0.302240
C92	C	1.568889	0.145744	0.197760
C93	C	1.138530	-0.354239	-0.302271
C94	C	1.638530	0.145761	0.197729
C95	C	0.905518	-0.354279	-0.465590
C96	C	1.405518	0.145721	0.034410
C97	C	0.905540	-0.354273	-0.535231
C98	C	1.405540	0.145727	-0.035231
C99	C	0.905549	-0.162341	-0.302210
C100	C	1.405549	0.337659	0.197790
C101	C	0.905585	-0.080542	-0.302229
C102	C	1.405585	0.419458	0.197771
C103	C	0.945632	-0.307192	-0.567974
C104	C	1.445632	0.192808	-0.067974
C105	C	0.945631	-0.307161	-0.633409
C106	C	1.445631	0.192839	-0.133409
C107	C	0.905545	-0.354223	-0.666099
C108	C	1.405545	0.145777	-0.166099
C109	C	0.865445	-0.401307	-0.633349
C110	C	1.365445	0.098693	-0.133349
C111	C	0.865442	-0.401332	-0.567914
C112	C	1.365442	0.098668	-0.067914
C113	C	0.900574	-0.420488	-0.769762
C114	C	1.400574	0.079512	-0.269762
C115	C	0.900581	-0.420465	-0.835195
C116	C	1.400581	0.079535	-0.335195
C117	C	0.905548	-0.354145	-0.867920
C118	C	1.405548	0.145855	-0.367920
C119	C	0.910522	-0.287847	-0.835205
C120	C	1.410522	0.212153	-0.335205
C121	C	0.910520	-0.287872	-0.769770
C122	C	1.410520	0.212128	-0.269770
C123	C	0.905542	-0.354200	-0.737052
C124	C	1.405542	0.145800	-0.237052
C125	C	0.945642	-0.307026	-0.971616
C126	C	1.445642	0.192974	-0.471616
C127	C	0.945637	-0.306993	-1.037052
C128	C	1.445637	0.193007	-0.537052
C129	C	0.865454	-0.401146	-1.036990
C130	C	1.365454	0.098854	-0.536990
C131	C	0.865455	-0.401172	-0.971555
C132	C	1.365455	0.098828	-0.471555
C133	C	0.905553	-0.354113	-0.938872
C134	C	1.405553	0.145887	-0.438872
C135	C	0.905450	-0.354256	-0.139379
C136	C	1.405450	0.145744	0.360621
C137	C	0.905549	-0.354055	-0.069738
C138	C	1.405549	0.145945	0.430262
H139	H	0.263334	-0.439792	-0.374787
H140	H	0.763334	0.060208	0.125213
H141	H	0.832747	-0.784248	-0.374787
H142	H	1.332747	-0.284248	0.125213
H143	H	0.832812	-0.439515	-0.944895
H144	H	1.332812	0.060485	-0.444895
H145	H	0.978278	-0.268818	-0.660074
H146	H	1.478278	0.231182	-0.160074
H147	H	0.978217	-0.784156	-0.229569
H148	H	1.478217	-0.284156	0.270431
H149	H	0.548264	-0.439854	-0.374685
H150	H	1.048264	0.060146	0.125315
F151	F	0.822780	-0.451391	-0.668140
F152	F	1.322780	0.048609	-0.168140
F153	F	0.822777	-0.933304	-0.384814
F154	F	1.322777	-0.433304	0.115186
H155	H	0.346534	-0.365000	-0.404594
H156	H	0.846534	0.135000	0.095406
F157	F	0.988296	-0.933187	-0.219595
F158	F	1.488296	-0.433187	0.280405
H159	H	0.914568	-0.233843	-0.861848
H160	H	1.414568	0.266157	-0.361848
F161	F	0.540048	-0.257031	-0.219563
F162	F	1.040048	0.242969	0.280437
H163	H	0.914568	-0.233890	-0.743136
H164	H	1.414568	0.266110	-0.243136
H165	H	0.978288	-0.268704	-0.945003
H166	H	1.478288	0.231296	-0.445003
H167	H	0.978282	-0.268872	-0.541367
H168	H	1.478282	0.231128	-0.041367
F169	F	0.675122	-0.257054	-0.219516
F170	F	1.175122	0.242946	0.280484
H171	H	0.978283	-0.268650	-1.063711
H172	H	1.478283	0.231350	-0.563711
F173	F	0.822785	-0.451228	-1.071777
F174	F	1.322785	0.048772	-0.571777
H175	H	0.896362	-0.474480	-0.743122
H176	H	1.396362	0.025520	-0.243122
H177	H	0.666970	-0.439889	-0.374638
H178	H	1.166970	0.060111	0.125362
F179	F	0.895293	-0.491024	-0.870007
F180	F	1.395293	0.008976	-0.370007
H181	H	0.832791	-0.439669	-0.541255
H182	H	1.332791	0.060331	-0.041255
H183	H	0.465246	-0.365033	-0.404553
H184	H	0.965246	0.134967	0.095447
H185	H	0.144592	-0.268723	-0.229705
H186	H	0.644592	0.231277	0.270295
F187	F	0.136448	-0.451538	-0.384839
F188	F	0.636448	0.048462	0.115161
H189	H	0.263303	-0.268754	-0.229659
H190	H	0.763303	0.231246	0.270341
H191	H	0.346327	-0.343590	-0.199787
H192	H	0.846327	0.156410	0.300213
H193	H	0.465031	-0.343611	-0.199743
H194	H	0.965031	0.156389	0.300257
