data_functionalizedCrystal
_audit_creation_method	'MofGen! by Chris Wilmer'
_symmetry_space_group_name_H-M	'P1'
_symmetry_Int_Tables_number	1
_symmetry_cell_setting	triclinic
loop_
_symmetry_equiv_pos_as_xyz
  x,y,z
_cell_length_a	21.295420
_cell_length_b	21.295417
_cell_length_c	12.594509
_cell_angle_alpha	90.035198
_cell_angle_beta	90.021067
_cell_angle_gamma	90.025484
loop_
_atom_site_label
_atom_site_type_symbol
_atom_site_fract_x
_atom_site_fract_y
_atom_site_fract_z
Zn1	Zn	0.962337	-0.250661	0.601801
Zn2	Zn	0.962247	-0.355940	0.423801
Zn3	Zn	0.857067	-0.250681	0.423831
Zn4	Zn	0.857031	-0.355889	0.601732
O5	O	0.909671	-0.303293	0.512791
O6	O	1.050414	-0.264640	0.578205
O7	O	0.948272	-0.342006	0.274859
O8	O	0.871083	-0.162589	0.447480
O9	O	1.050349	-0.341988	0.447429
O10	O	0.948425	-0.162574	0.578234
O11	O	0.870996	-0.264673	0.274881
O12	O	0.768973	-0.264623	0.447413
O13	O	0.871023	-0.341900	0.750687
O14	O	0.768946	-0.341919	0.578116
O15	O	0.948391	-0.264590	0.750738
O16	O	0.948238	-0.444022	0.447362
O17	O	0.870936	-0.443985	0.578087
C18	C	0.746119	-0.303268	0.512761
C19	C	0.676151	-0.303273	0.512773
C20	C	0.176726	-0.263112	0.581013
C21	C	0.242469	-0.263108	0.581013
C22	C	0.275311	-0.303312	0.512816
C23	C	0.242406	-0.343535	0.444633
C24	C	0.176665	-0.343543	0.444643
N25	N	0.378505	-0.308061	0.419617
N26	N	0.440956	-0.308050	0.419611
C27	C	0.473386	-0.303291	0.512785
N28	N	0.441005	-0.298531	0.605967
N29	N	0.378548	-0.298539	0.605971
C30	C	0.346597	-0.303308	0.512798
C31	C	0.577569	-0.263069	0.580968
C32	C	0.643313	-0.263068	0.580970
C33	C	0.643249	-0.343492	0.444581
C34	C	0.577506	-0.343495	0.444589
C35	C	0.544670	-0.303280	0.512781
C36	C	0.909590	-0.466844	0.512737
C37	C	0.909614	-0.536812	0.512750
C38	C	0.949862	-0.569614	0.580882
C39	C	0.949885	-0.635357	0.580908
C40	C	0.909665	-0.668295	0.512783
C41	C	0.869408	-0.635485	0.444646
C42	C	0.869382	-0.569744	0.444629
N43	N	0.904909	-0.771561	0.419633
N44	N	0.904936	-0.834012	0.419652
C45	C	0.909738	-0.866369	0.512831
N46	N	0.914523	-0.833916	0.605993
N47	N	0.914498	-0.771459	0.605973
C48	C	0.909688	-0.739580	0.512794
C49	C	0.950013	-0.970457	0.580998
C50	C	0.950031	-1.036201	0.581026
C51	C	0.869558	-1.036327	0.444754
C52	C	0.869537	-0.970585	0.444736
C53	C	0.909768	-0.937654	0.512856
C54	C	1.073861	-0.303317	0.512822
C55	C	1.143829	-0.303328	0.512835
C56	C	0.909713	-0.303237	0.790412
C57	C	0.909731	-0.303214	0.908718
C58	C	0.909768	-0.139102	0.512868
C59	C	0.909810	-0.069134	0.512901
C60	C	0.909665	-0.303302	0.236250
C61	C	0.909769	-0.303148	0.117945
C62	C	0.867664	-0.345239	0.977943
C63	C	0.925099	-0.360624	1.048730
C64	C	0.852340	-0.287791	1.048730
C65	C	0.967196	-0.318629	0.977946
C66	C	0.894399	-0.245769	0.977940
C67	C	0.951874	-0.261132	1.048695
H68	H	0.550833	-0.230323	0.636494
C69	C	0.140611	-0.218880	0.656035
N70	N	0.113408	-0.185565	0.712546
H71	H	0.832117	-0.380834	0.946879
H72	H	0.550720	-0.376240	0.389066
C73	C	0.825306	-1.072555	0.369830
N74	N	0.791971	-1.099846	0.313402
C75	C	0.942645	-0.426214	1.090744
N76	N	0.955856	-0.475617	1.122386
C77	C	1.032803	-0.336295	0.936122
N78	N	1.082217	-0.349604	0.904617
H79	H	0.987506	-0.225565	1.079564
C80	C	0.876827	-0.180199	0.935892
N81	N	0.863585	-0.130811	0.904218
C82	C	0.825190	-0.671718	0.369667
N83	N	0.791892	-0.699009	0.313178
H84	H	0.803790	-0.274774	1.079823
C85	C	0.825101	-0.533660	0.369679
N86	N	0.791748	-0.506481	0.313226
H87	H	0.982770	-0.943643	0.636469
H88	H	0.269259	-0.230357	0.636530
C89	C	0.140476	-0.387779	0.369630
N90	N	0.113218	-0.421097	0.313125
C91	C	0.278534	-0.387757	0.369612
N92	N	0.305745	-0.421066	0.313105
H93	H	0.670097	-0.230322	0.636496
H94	H	0.669988	-0.376232	0.389062
H95	H	0.836765	-0.943876	0.389251
H96	H	0.982655	-0.662069	0.636402
C97	C	0.994121	-0.533394	0.655811
N98	N	1.027459	-0.506111	0.712245
C99	C	0.994313	-1.072283	0.655976
N100	N	1.027670	-1.099460	0.712426
