data_functionalizedCrystal
_audit_creation_method	'MofGen! by Chris Wilmer'
_symmetry_space_group_name_H-M	'P1'
_symmetry_Int_Tables_number	1
_symmetry_cell_setting	triclinic
loop_
_symmetry_equiv_pos_as_xyz
  x,y,z
_cell_length_a	12.827892
_cell_length_b	17.077404
_cell_length_c	17.077396
_cell_angle_alpha	89.976781
_cell_angle_beta	90.024877
_cell_angle_gamma	89.988384
loop_
_atom_site_label
_atom_site_type_symbol
_atom_site_fract_x
_atom_site_fract_y
_atom_site_fract_z
Zn1	Zn	-0.416133	-1.200097	0.443940
Zn2	Zn	-0.590895	-1.200021	0.312682
Zn3	Zn	-0.416158	-1.068828	0.312680
Zn4	Zn	-0.590822	-1.068814	0.443898
O5	O	-0.503502	-1.134440	0.378300
O6	O	-0.439336	-1.309933	0.426548
O7	O	-0.567757	-1.182593	0.202835
O8	O	-0.269919	-1.086279	0.330108
O9	O	-0.567733	-1.309878	0.330113
O10	O	-0.269900	-1.182721	0.426545
O11	O	-0.439379	-1.086206	0.202833
O12	O	-0.439307	-0.958980	0.330067
O13	O	-0.567608	-1.086254	0.553750
O14	O	-0.567632	-0.958969	0.426472
O15	O	-0.439265	-1.182707	0.553782
O16	O	-0.737122	-1.182579	0.330072
O17	O	-0.737068	-1.086181	0.426475
C18	C	-0.503465	-0.930492	0.378265
C19	C	-0.503474	-0.843242	0.378269
C20	C	-0.436766	-0.467454	0.428602
C21	C	-0.436762	-0.549434	0.428595
C22	C	-0.503501	-0.590393	0.378303
C23	C	-0.570256	-0.549368	0.328019
C24	C	-0.570264	-0.467389	0.328029
C25	C	-0.570231	-0.720238	0.327999
C26	C	-0.570222	-0.802223	0.327987
C27	C	-0.436729	-0.802283	0.428565
C28	C	-0.436738	-0.720304	0.428575
C29	C	-0.503491	-0.679284	0.378290
C30	C	-0.775012	-1.134392	0.378286
C31	C	-0.891165	-1.134443	0.378306
C32	C	-1.062902	-1.182196	0.426089
C33	C	-0.942851	-1.182144	0.426069
C34	C	-0.230932	-1.134510	0.378331
C35	C	-0.114779	-1.134540	0.378344
C36	C	-0.503425	-1.134488	0.583044
C37	C	-0.503392	-1.134508	0.670294
C38	C	-0.503529	-0.339184	0.378328
C39	C	-0.503513	-0.426434	0.378320
C40	C	-0.503503	-1.134438	0.174352
C41	C	-0.503242	-1.134570	0.087103
C42	C	-0.436558	-1.184733	0.711302
C43	C	-0.436524	-1.184742	0.793282
C44	C	-0.503329	-1.134530	0.834254
C45	C	-0.570165	-1.084300	0.793240
C46	C	-0.570194	-1.084287	0.711261
C47	C	-0.570103	-1.084331	0.964110
C48	C	-0.570076	-1.084345	1.046095
C49	C	-0.436432	-1.184786	1.046132
C50	C	-0.436461	-1.184774	0.964153
C51	C	-0.503299	-1.134544	0.923145
H52	H	-0.624600	-0.582723	0.287073
H53	H	-0.382068	-1.225665	0.930796
C54	C	-0.363819	-1.239139	0.837840
C55	C	-0.296789	-1.194713	0.884876
C56	C	-0.229780	-1.244795	0.925922
H57	H	-0.403654	-1.273355	0.869893
H58	H	-0.323981	-1.269025	0.801717
H59	H	-0.336623	-1.164840	0.920995
H60	H	-0.256931	-1.160499	0.852842
H61	H	-0.189942	-1.274680	0.889799
H62	H	-0.269624	-1.279008	0.957971
H63	H	-0.184286	-1.214658	0.957835
H64	H	-0.935771	-1.093637	0.337432
H65	H	-1.070317	-1.093704	0.337450
H66	H	-0.624594	-0.686842	0.287054
H67	H	-0.382161	-1.225623	0.677949
C68	C	-0.363887	-1.239225	1.090792
C69	C	-0.378127	-1.228470	1.171355
C70	C	-0.311309	-1.278595	1.212523
H71	H	-0.379122	-1.291996	1.077469
H72	H	-0.293657	-1.227740	1.077400
H73	H	-0.448341	-1.239961	1.184741
H74	H	-0.362885	-1.175710	1.184701
H75	H	-0.241079	-1.267109	1.199131
H76	H	-0.326550	-1.331362	1.199194
H77	H	-0.320955	-1.271300	1.267189
H78	H	-0.624472	-1.043456	1.079452
H79	H	-0.382375	-0.835686	0.469508
C80	C	-0.642902	-0.422950	0.273481
C81	C	-0.746322	-0.442908	0.290424
C82	C	-0.813269	-0.401995	0.240186
H83	H	-0.633494	-0.368249	0.280642
H84	H	-0.627579	-0.436373	0.220744
H85	H	-0.761639	-0.429479	0.343149
H86	H	-0.755763	-0.497602	0.283259
H87	H	-0.797947	-0.415418	0.187448
H88	H	-0.803852	-0.347296	0.247350
H89	H	-0.883446	-0.415536	0.251670
C90	C	-0.642739	-1.029698	0.837579
C91	C	-0.701256	-0.985695	0.784117
C92	C	-0.768116	-0.935381	0.824931
H93	H	-0.688359	-1.059632	0.869562
H94	H	-0.602771	-0.995469	0.869541
H95	H	-0.741222	-1.019919	0.752169
H96	H	-0.655664	-0.955744	0.752132
H97	H	-0.728148	-0.901152	0.856892
H98	H	-0.813730	-0.965322	0.856912
H99	H	-0.807821	-0.905514	0.788663
C100	C	-0.642821	-1.029890	0.666630
C101	C	-0.709801	-1.074315	0.619552
C102	C	-0.776708	-1.024229	0.578417
H103	H	-0.682709	-0.999968	0.702675
H104	H	-0.602876	-0.995707	0.634600
H105	H	-0.749742	-1.108484	0.651578
H106	H	-0.669941	-1.104236	0.583492
H107	H	-0.736763	-0.990047	0.546388
H108	H	-0.816589	-0.994309	0.614469
H109	H	-0.822155	-1.054364	0.546465
C110	C	-0.642810	-0.846553	0.273366
C111	C	-0.701303	-0.793086	0.229353
C112	C	-0.768196	-0.833894	0.179038
H113	H	-0.602899	-0.878524	0.239138
H114	H	-0.688436	-0.878526	0.303325
H115	H	-0.655682	-0.761127	0.199396
H116	H	-0.741234	-0.761113	0.263560
H117	H	-0.813822	-0.865867	0.208998
H118	H	-0.728277	-0.865864	0.144816
H119	H	-0.807898	-0.797623	0.149175
H120	H	-0.382413	-0.434111	0.469551
H121	H	-0.382413	-0.582829	0.469543
H122	H	-0.624513	-1.043417	0.930724
H123	H	-1.107364	-1.223037	0.466977
C124	C	-0.364449	-0.675734	0.483225
C125	C	-0.423716	-0.628677	0.533450
C126	C	-0.357161	-0.587600	0.583799
H127	H	-0.324671	-0.711814	0.513247
H128	H	-0.318885	-0.643695	0.453282
H129	H	-0.469261	-0.660712	0.563390
H130	H	-0.463492	-0.592582	0.503449
H131	H	-0.311597	-0.555562	0.553857
H132	H	-0.317386	-0.623687	0.613816
H133	H	-0.397363	-0.555662	0.617878
C134	C	-0.883187	-1.236520	0.480491
C135	C	-0.775977	-1.225677	0.469633
C136	C	-0.720980	-1.275762	0.519748
H137	H	-0.900864	-1.225071	0.533269
H138	H	-0.900916	-1.289305	0.469062
H139	H	-0.758254	-1.172903	0.481069
H140	H	-0.758269	-1.237131	0.416866
H141	H	-0.738710	-1.328548	0.508318
H142	H	-0.738665	-1.264310	0.572522
H143	H	-0.648233	-1.268417	0.512382
