data_functionalizedCrystal
_audit_creation_method	'MofGen! by Chris Wilmer'
_symmetry_space_group_name_H-M	'P1'
_symmetry_Int_Tables_number	1
_symmetry_cell_setting	triclinic
loop_
_symmetry_equiv_pos_as_xyz
  x,y,z
_cell_length_a	19.805407
_cell_length_b	19.805404
_cell_length_c	19.805399
_cell_angle_alpha	89.972890
_cell_angle_beta	89.979591
_cell_angle_gamma	90.031534
loop_
_atom_site_label
_atom_site_type_symbol
_atom_site_fract_x
_atom_site_fract_y
_atom_site_fract_z
Zn1	Zn	1.034721	-0.269444	-0.382737
Zn2	Zn	1.534721	0.230556	0.117263
Zn3	Zn	1.034629	-0.382632	-0.269550
Zn4	Zn	1.534629	0.117368	0.230450
Zn5	Zn	0.921535	-0.269466	-0.269560
Zn6	Zn	1.421535	0.230534	0.230440
Zn7	Zn	0.921493	-0.382600	-0.382695
Zn8	Zn	1.421493	0.117400	0.117305
O9	O	0.978094	-0.326036	-0.326135
O10	O	1.478094	0.173964	0.173865
O11	O	1.129425	-0.284463	-0.367736
O12	O	1.629425	0.215537	0.132264
O13	O	1.019607	-0.367643	-0.174834
O14	O	1.519607	0.132357	0.325166
O15	O	0.936606	-0.174747	-0.284595
O16	O	1.436606	0.325253	0.215405
O17	O	1.129358	-0.367622	-0.284578
O18	O	1.629358	0.132378	0.215422
O19	O	1.019763	-0.174730	-0.367746
O20	O	1.519763	0.325270	0.132254
O21	O	0.936517	-0.284501	-0.174842
O22	O	1.436517	0.215499	0.325158
O23	O	0.826813	-0.284470	-0.284554
O24	O	1.326813	0.215530	0.215446
O25	O	0.936533	-0.367567	-0.477417
O26	O	1.436533	0.132433	0.022583
O27	O	0.826782	-0.367589	-0.367674
O28	O	1.326782	0.132411	0.132326
O29	O	1.019721	-0.284431	-0.477448
O30	O	1.519721	0.215569	0.022552
O31	O	1.019565	-0.477345	-0.284537
O32	O	1.519565	0.022655	0.215463
O33	O	0.936444	-0.477321	-0.367664
O34	O	1.436444	0.022679	0.132336
C35	C	0.802238	-0.326029	-0.326111
C36	C	1.302238	0.173971	0.173889
C37	C	0.727006	-0.326042	-0.326116
C38	C	1.227006	0.173958	0.173884
C39	C	0.265254	-0.282816	-0.369528
C40	C	0.765254	0.217184	0.130472
C41	C	0.335942	-0.282817	-0.369523
C42	C	0.835942	0.217183	0.130477
C43	C	0.371245	-0.326046	-0.326157
C44	C	0.871245	0.173954	0.173843
C45	C	0.335855	-0.369281	-0.282798
C46	C	0.835855	0.130719	0.217202
C47	C	0.265168	-0.369283	-0.282807
C48	C	0.765168	0.130717	0.217193
C49	C	0.620928	-0.369276	-0.282762
C50	C	1.120928	0.130724	0.217238
C51	C	0.691620	-0.369270	-0.282755
C52	C	1.191620	0.130730	0.217245
C53	C	0.691703	-0.282810	-0.369479
C54	C	1.191703	0.217190	0.130521
C55	C	0.621016	-0.282812	-0.369488
C56	C	1.121016	0.217188	0.130512
C57	C	0.585632	-0.326049	-0.326131
C58	C	1.085632	0.173951	0.173869
C59	C	0.508984	-0.326048	-0.326138
C60	C	1.008984	0.173952	0.173862
C61	C	0.447892	-0.326044	-0.326147
C62	C	0.947892	0.173956	0.173853
C63	C	0.978009	-0.501892	-0.326109
C64	C	1.478009	-0.001892	0.173891
C65	C	0.978034	-0.577124	-0.326121
C66	C	1.478034	-0.077124	0.173879
C67	C	1.021542	-1.038904	-0.282946
C68	C	1.521542	-0.538904	0.217054
C69	C	1.021510	-0.968216	-0.282933
C70	C	1.521510	-0.468216	0.217067
C71	C	0.978183	-0.932885	-0.326171
C72	C	1.478183	-0.432885	0.173829
C73	C	0.934880	-0.968247	-0.369421
C74	C	1.434880	-0.468247	0.130579
C75	C	0.934909	-1.038934	-0.369430
C76	C	1.434909	-0.538934	0.130570
C77	C	0.934763	-0.683173	-0.369384
C78	C	1.434763	-0.183173	0.130616
C79	C	0.934739	-0.612481	-0.369373
C80	C	1.434739	-0.112481	0.130627
C81	C	1.021364	-0.612456	-0.282886
C82	C	1.521364	-0.112456	0.217114
C83	C	1.021392	-0.683143	-0.282895
C84	C	1.521392	-0.183143	0.217105
C85	C	0.978087	-0.718498	-0.326142
C86	C	1.478087	-0.218498	0.173858
C87	C	0.978121	-0.795146	-0.326155
C88	C	1.478121	-0.295146	0.173845
C89	C	0.978152	-0.856238	-0.326162
C90	C	1.478152	-0.356238	0.173838
C91	C	1.154637	-0.326043	-0.326160
C92	C	1.654637	0.173957	0.173840
C93	C	1.229869	-0.326046	-0.326171
C94	C	1.729869	0.173954	0.173829
C95	C	0.978132	-0.325993	-0.502678
C96	C	1.478132	0.174007	-0.002678
C97	C	0.978149	-0.325975	-0.577910
C98	C	1.478149	0.174025	-0.077910
C99	C	0.978199	-0.149493	-0.326176
C100	C	1.478199	0.350507	0.173824
C101	C	0.978244	-0.074261	-0.326194
C102	C	1.478244	0.425739	0.173806
C103	C	1.021466	-0.282684	-0.613272
C104	C	1.521466	0.217316	-0.113272
C105	C	1.021473	-0.282664	-0.683960
C106	C	1.521473	0.217336	-0.183960
C107	C	0.978165	-0.325939	-0.719286
C108	C	1.478165	0.174061	-0.219286
C109	C	0.934844	-0.369232	-0.683919
C110	C	1.434844	0.130768	-0.183919
C111	C	0.934834	-0.369248	-0.613232
C112	C	1.434834	0.130752	-0.113232
C113	C	0.934882	-0.369169	-0.968993
C114	C	1.434882	0.130831	-0.468993
C115	C	0.934896	-0.369151	-1.039685
C116	C	1.434896	0.130849	-0.539685
C117	C	1.021521	-0.282586	-1.039721
C118	C	1.521521	0.217414	-0.539721
C119	C	1.021511	-0.282601	-0.969033
C120	C	1.521511	0.217399	-0.469033
C121	C	0.978187	-0.325891	-0.933673
C122	C	1.478187	0.174109	-0.433673
C123	C	0.978179	-0.325911	-0.857025
C124	C	1.478179	0.174089	-0.357025
C125	C	0.978176	-0.325924	-0.795933
C126	C	1.478176	0.174076	-0.295933
C127	C	0.978096	-0.326029	-0.150279
C128	C	1.478096	0.173971	0.349721
C129	C	0.978211	-0.325857	-0.075048
C130	C	1.478211	0.174143	0.424952
H131	H	0.236359	-0.404487	-0.247502
H132	H	0.736359	0.095513	0.252498
H133	H	0.899599	-0.939476	-0.404624
H134	H	1.399599	-0.439476	0.095376
C135	C	1.069147	-0.234997	-0.930175
C136	C	1.569147	0.265003	-0.430175
C137	C	1.122262	-0.264336	-0.881582
C138	C	1.622262	0.235664	-0.381582
C139	C	1.169897	-0.216728	-0.842724
C140	C	1.669897	0.283272	-0.342724
C141	C	1.164416	-0.139780	-0.852459
C142	C	1.664416	0.360220	-0.352459
C143	C	1.111298	-0.110437	-0.901054
C144	C	1.611298	0.389563	-0.401054
C145	C	1.063664	-0.158045	-0.939912
C146	C	1.563664	0.341955	-0.439912
H147	H	1.126322	-0.321301	-0.874373
H148	H	1.626322	0.178699	-0.374373
H149	H	1.209218	-0.238451	-0.806750
H150	H	1.709218	0.261549	-0.306750
H151	H	1.199678	-0.104538	-0.823694
H152	H	1.699678	0.395462	-0.323694
H153	H	1.107239	-0.053472	-0.908262
H154	H	1.607239	0.446528	-0.408262
H155	H	1.024343	-0.136323	-0.975886
H156	H	1.524343	0.363677	-0.475886
H157	H	1.056766	-0.939429	-0.247716
H158	H	1.556766	-0.439429	0.252284
H159	H	1.056676	-0.711905	-0.247688
H160	H	1.556676	-0.211905	0.252312
H161	H	0.899454	-0.583716	-0.404584
H162	H	1.399454	-0.083716	0.095416
C163	C	0.887188	-0.416870	-0.574329
C164	C	1.387188	0.083130	-0.074329
C165	C	0.810247	-0.411343	-0.584031
C166	C	1.310247	0.088657	-0.084031
C167	C	0.762598	-0.458964	-0.545128
C168	C	1.262598	0.041036	-0.045128
C169	C	0.791890	-0.512112	-0.496522
C170	C	1.291890	-0.012112	0.003478
C171	C	0.868835	-0.517641	-0.486818
C172	C	1.368835	-0.017641	0.013182
C173	C	0.916484	-0.470020	-0.525721
C174	C	1.416484	0.029980	-0.025721
H175	H	0.788560	-0.371997	-0.620014
H176	H	1.288560	0.128003	-0.120014
H177	H	0.705638	-0.454870	-0.552312
H178	H	1.205638	0.045130	-0.052312
H179	H	0.756618	-0.547364	-0.467723
H180	H	1.256618	-0.047364	0.032277
H181	H	0.890522	-0.556987	-0.450835
H182	H	1.390522	-0.056987	0.049165
H183	H	0.973444	-0.474114	-0.518537
H184	H	1.473444	0.025886	-0.018537
H185	H	1.056795	-0.247335	-1.068519
H186	H	1.556795	0.252665	-0.568519
H187	H	0.364750	-0.247616	-0.404832
H188	H	0.864750	0.252384	0.095168
H189	H	0.899496	-0.711951	-0.404593
H190	H	1.399496	-0.211951	0.095407
H191	H	0.592276	-0.247608	-0.404798
H192	H	1.092276	0.252392	0.095202
C193	C	0.374687	-0.416834	-0.235094
C194	C	0.874687	0.083166	0.264906
C195	C	0.423270	-0.387433	-0.182000
C196	C	0.923270	0.112567	0.318000
C197	C	0.462100	-0.434985	-0.134294
C198	C	0.962100	0.065015	0.365706
C199	C	0.452348	-0.511939	-0.139682
C200	C	0.952348	-0.011939	0.360318
C201	C	0.403762	-0.541343	-0.192780
C202	C	0.903762	-0.041343	0.307220
C203	C	0.364932	-0.493791	-0.240486
C204	C	0.864932	0.006209	0.259514
H205	H	0.430491	-0.330464	-0.178008
H206	H	0.930491	0.169536	0.321992
H207	H	0.498066	-0.413217	-0.094988
H208	H	0.998066	0.086783	0.405012
H209	H	0.481092	-0.547139	-0.104368
H210	H	0.981092	-0.047139	0.395632
H211	H	0.396541	-0.598312	-0.196771
H212	H	0.896541	-0.098312	0.303229
H213	H	0.328966	-0.515559	-0.279792
H214	H	0.828966	-0.015559	0.220208
H215	H	1.056827	-1.067665	-0.247739
H216	H	1.556827	-0.567665	0.252261
C217	C	0.887205	-0.416765	-0.930103
C218	C	1.387205	0.083235	-0.430103
C219	C	0.887165	-0.416767	-0.852349
C220	C	1.387165	0.083233	-0.352349
C221	C	0.839473	-0.464353	-0.813456
C222	C	1.339473	0.035647	-0.313456
C223	C	0.791822	-0.511937	-0.852315
C224	C	1.291822	-0.011937	-0.352315
C225	C	0.791860	-0.511937	-0.930073
C226	C	1.291860	-0.011937	-0.430073
C227	C	0.839552	-0.464351	-0.968966
C228	C	1.339552	0.035649	-0.468966
H229	H	0.922441	-0.381540	-0.823580
H230	H	1.422441	0.118460	-0.323580
H231	H	0.839445	-0.464353	-0.755894
H232	H	1.339445	0.035647	-0.255894
H233	H	0.756517	-0.547163	-0.823524
H234	H	1.256517	-0.047163	-0.323524
H235	H	0.756584	-0.547163	-0.958843
H236	H	1.256584	-0.047163	-0.458843
H237	H	0.839580	-0.464351	-1.026528
H238	H	1.339580	0.035649	-0.526528
C239	C	0.730627	-0.235251	-0.417177
C240	C	1.230627	0.264749	0.082823
C241	C	0.779230	-0.264644	-0.470264
C242	C	1.279230	0.235356	0.029736
C243	C	0.818152	-0.217085	-0.517958
C244	C	1.318152	0.282915	-0.017958
C245	C	0.808472	-0.140133	-0.512566
C246	C	1.308472	0.359867	-0.012566
C247	C	0.759867	-0.110736	-0.459477
C248	C	1.259867	0.389264	0.040523
C249	C	0.720944	-0.158296	-0.411783
C250	C	1.220944	0.341704	0.088217
H251	H	0.786398	-0.321612	-0.474257
H252	H	1.286398	0.178388	0.025743
H253	H	0.854133	-0.238846	-0.557258
H254	H	1.354133	0.261154	-0.057258
H255	H	0.837285	-0.104927	-0.547872
H256	H	1.337285	0.395073	-0.047872
H257	H	0.752699	-0.053768	-0.455484
H258	H	1.252699	0.446232	0.044516
H259	H	0.684964	-0.136534	-0.372483
H260	H	1.184964	0.363466	0.127517
C261	C	0.887250	-0.416752	-1.078545
C262	C	1.387250	0.083248	-0.578545
C263	C	0.892714	-0.493701	-1.068809
C264	C	1.392714	0.006299	-0.568809
C265	C	0.845070	-0.541299	-1.107668
C266	C	1.345070	-0.041299	-0.607668
C267	C	0.791963	-0.511948	-1.156264
C268	C	1.291963	-0.011948	-0.656264
C269	C	0.786498	-0.434995	-1.166002
C270	C	1.286498	0.065005	-0.666002
C271	C	0.834141	-0.387397	-1.127142
C272	C	1.334141	0.112603	-0.627142
H273	H	0.932029	-0.515432	-1.032834
H274	H	1.432029	-0.015432	-0.532834
H275	H	0.849117	-0.598265	-1.100459
H276	H	1.349117	-0.098265	-0.600459
H277	H	0.756695	-0.547183	-1.185030
H278	H	1.256695	-0.047183	-0.685030
H279	H	0.747183	-0.413264	-1.201977
H280	H	1.247183	0.086736	-0.701977
H281	H	0.830094	-0.330432	-1.134351
H282	H	1.330094	0.169568	-0.634351
C283	C	1.068996	-0.573563	-0.235307
C284	C	1.568996	-0.073563	0.264693
C285	C	1.039683	-0.525031	-0.182128
C286	C	1.539683	-0.025031	0.317872
C287	C	1.087316	-0.486140	-0.134553
C288	C	1.587316	0.013860	0.365447
C289	C	1.164261	-0.495781	-0.140157
C290	C	1.664261	0.004219	0.359843
C291	C	1.193578	-0.544315	-0.193339
C292	C	1.693578	-0.044315	0.306661
C293	C	1.145945	-0.583206	-0.240914
C294	C	1.645945	-0.083206	0.259086
H295	H	0.982720	-0.517892	-0.177977
H296	H	1.482720	-0.017892	0.322023
H297	H	1.065613	-0.450212	-0.095184
H298	H	1.565613	0.049788	0.404816
H299	H	1.199522	-0.466992	-0.104939
H300	H	1.699522	0.033008	0.395061
H301	H	1.250541	-0.551454	-0.197490
H302	H	1.750541	-0.051454	0.302510
H303	H	1.167648	-0.619134	-0.280282
H304	H	1.667648	-0.119134	0.219718
C305	C	0.226424	-0.235262	-0.417232
C306	C	0.726424	0.264738	0.082768
C307	C	0.236175	-0.240888	-0.494166
C308	C	0.736175	0.259112	0.005834
C309	C	0.197347	-0.193335	-0.541873
C310	C	0.697347	0.306665	-0.041873
C311	C	0.148767	-0.140156	-0.512646
C312	C	0.648767	0.359844	-0.012646
C313	C	0.139013	-0.134528	-0.435708
C314	C	0.639013	0.365472	0.064292
C315	C	0.177841	-0.182081	-0.388001
C316	C	0.677841	0.317919	0.111999
H317	H	0.272139	-0.280256	-0.515806
H318	H	0.772139	0.219744	-0.015806
H319	H	0.204568	-0.197501	-0.598828
H320	H	0.704568	0.302499	-0.098828
H321	H	0.120024	-0.104955	-0.547961
H322	H	0.620024	0.395045	-0.047961
H323	H	0.103049	-0.095160	-0.414068
H324	H	0.603049	0.404840	0.085932
H325	H	0.170621	-0.177915	-0.331046
H326	H	0.670621	0.322085	0.168954
H327	H	0.720362	-0.404475	-0.247440
H328	H	1.220362	0.095525	0.252560
H329	H	0.899655	-1.067720	-0.404651
H330	H	1.399655	-0.567720	0.095349
H331	H	0.592128	-0.404481	-0.247457
H332	H	1.092128	0.095519	0.252543
H333	H	1.056734	-0.247446	-0.584514
H334	H	1.556734	0.252554	-0.084514
H335	H	0.899580	-0.404465	-0.712687
H336	H	1.399580	0.095535	-0.212687
H337	H	1.056747	-0.247414	-0.712748
H338	H	1.556747	0.252586	-0.212748
