data_functionalizedCrystal
_audit_creation_method	'MofGen! by Chris Wilmer'
_symmetry_space_group_name_H-M	'P1'
_symmetry_Int_Tables_number	1
_symmetry_cell_setting	triclinic
loop_
_symmetry_equiv_pos_as_xyz
  x,y,z
_cell_length_a	16.109301
_cell_length_b	19.188930
_cell_length_c	15.186229
_cell_angle_alpha	89.991143
_cell_angle_beta	89.999362
_cell_angle_gamma	83.303131
loop_
_atom_site_label
_atom_site_type_symbol
_atom_site_fract_x
_atom_site_fract_y
_atom_site_fract_z
O1	O	1.102833	0.089744	-0.073183
O2	O	0.860734	0.100912	-0.073198
O3	O	0.988770	-0.006311	-0.073173
O4	O	0.974797	0.196967	-0.073208
O5	O	0.988762	-0.006313	0.073284
O6	O	0.860726	0.100911	0.073259
O7	O	1.102825	0.089742	0.073274
Zn8	Zn	0.981774	0.095326	0.096520
Zn9	Zn	0.981785	0.095328	-0.096444
O10	O	0.974789	0.196966	0.073249
C11	C	0.829757	0.100459	0.000029
C12	C	0.737466	0.099103	0.000024
C13	C	0.514993	0.159573	0.000023
C14	C	0.428277	0.158294	0.000029
C15	C	0.448573	0.031076	0.000048
C16	C	0.535287	0.032357	0.000048
C17	C	0.568495	0.096608	0.000031
C18	C	0.395064	0.094047	0.000037
C19	C	0.301043	0.092659	0.000043
C20	C	0.662522	0.097996	0.000027
C21	C	0.988313	-0.032324	0.000058
C22	C	0.986955	-0.109832	0.000066
C23	C	1.062082	-0.154580	0.000075
C24	C	1.060806	-0.227407	0.000060
C25	C	0.984399	-0.255482	0.000055
C26	C	0.909261	-0.210724	0.000041
C27	C	0.910540	-0.137899	0.000046
N28	N	0.925991	-0.363624	0.049893
N29	N	0.924782	-0.432805	0.049890
C30	C	0.980543	-0.474900	0.000037
N31	N	1.037571	-0.445200	-0.049802
N32	N	1.038783	-0.376013	-0.049795
C33	C	0.983004	-0.334448	0.000049
C34	C	1.054292	-0.598616	0.000029
C35	C	1.053012	-0.671443	0.000010
C36	C	0.901465	-0.654759	-0.000001
C37	C	0.902747	-0.581933	0.000010
C38	C	0.979162	-0.553866	0.000029
C39	C	1.133802	0.090196	0.000045
C40	C	1.226093	0.091552	0.000045
C41	C	0.975246	0.222979	0.000016
C42	C	0.976604	0.300486	0.000003
N43	N	0.981772	0.095325	0.228213
N44	N	0.981793	0.095325	-0.228137
C45	C	1.038486	0.047862	0.453947
C46	C	1.038488	0.047860	0.546136
C47	C	0.925074	0.142790	0.546123
C48	C	0.925068	0.142787	0.453935
C49	C	0.981779	0.095324	0.407849
C50	C	0.981787	0.095325	0.592227
C51	C	0.981790	0.095323	0.692183
C52	C	0.981775	0.095325	0.307887
H53	H	0.384719	0.209567	0.000024
C54	C	0.412042	-0.039596	0.000055
C55	C	0.316660	-0.041009	0.000048
C56	C	0.280132	-0.111684	0.000051
C57	C	0.338985	-0.180946	0.000061
C58	C	0.434373	-0.179536	0.000068
C59	C	0.470901	-0.108861	0.000065
H60	H	0.273088	0.010265	0.000040
H61	H	0.209519	-0.112727	0.000046
H62	H	0.311945	-0.233263	0.000063
H63	H	0.477945	-0.230810	0.000076
H64	H	0.541514	-0.107817	0.000070
C65	C	1.100870	-0.004347	0.596845
C66	C	1.163254	-0.056546	0.546150
C67	C	1.225637	-0.108756	0.596858
C68	C	1.225635	-0.108767	0.698261
C69	C	1.163249	-0.056566	0.748962
C70	C	1.100866	-0.004356	0.698253
H71	H	1.163257	-0.056540	0.471080
H72	H	1.271819	-0.147399	0.559326
H73	H	1.271815	-0.147416	0.735799
H74	H	1.163246	-0.056572	0.824032
H75	H	1.054683	0.034287	0.735786
C76	C	0.862687	0.195000	0.403220
C77	C	0.800337	0.247234	0.453906
C78	C	0.737957	0.299441	0.403190
C79	C	0.737926	0.299414	0.301787
C80	C	0.800278	0.247178	0.251094
C81	C	0.862658	0.194971	0.301811
H82	H	0.800358	0.247255	0.528976
H83	H	0.691800	0.338109	0.440717
H84	H	0.691749	0.338061	0.264244
H85	H	0.800258	0.247156	0.176025
H86	H	0.908815	0.156302	0.264284
H87	H	1.121986	-0.263848	0.000064
C88	C	0.594146	-0.036910	0.000055
C89	C	0.590595	-0.089566	0.076113
C90	C	0.649453	-0.158830	0.076124
C91	C	0.711862	-0.175438	0.000078
C92	C	0.715416	-0.122781	-0.075985
C93	C	0.656558	-0.053517	-0.075997
H94	H	0.544393	-0.077273	0.132412
H95	H	0.646822	-0.197810	0.132431
H96	H	0.755433	-0.226711	0.000086
H97	H	0.761617	-0.135075	-0.132284
H98	H	0.659189	-0.014538	-0.132304
H99	H	0.542027	0.211890	0.000016
C100	C	1.138345	-0.567736	0.000043
C101	C	1.220988	-0.616963	0.000042
C102	C	1.305041	-0.586085	0.000057
C103	C	1.306451	-0.505981	0.000074
C104	C	1.223805	-0.456749	0.000076
C105	C	1.139752	-0.487627	0.000060
H106	H	1.219946	-0.676265	0.000029
H107	H	1.366221	-0.622530	0.000056
H108	H	1.368672	-0.483123	0.000086
H109	H	1.224846	-0.397447	0.000089
H110	H	1.078572	-0.451182	0.000062
H111	H	1.124306	-0.131733	0.000087
H112	H	0.847050	-0.233587	0.000035
H113	H	0.849360	-0.101464	0.000039
C114	C	0.820104	-0.532704	0.000016
C115	C	0.736055	-0.563581	0.000013
C116	C	0.653408	-0.514352	0.000017
C117	C	0.654811	-0.434247	0.000026
C118	C	0.738863	-0.403366	0.000029
C119	C	0.821510	-0.452595	0.000024
H120	H	0.735014	-0.622883	0.000006
H121	H	0.591187	-0.537212	0.000015
H122	H	0.593631	-0.397805	0.000029
H123	H	0.739904	-0.344064	0.000035
H124	H	0.883731	-0.429734	0.000027
H125	H	1.114193	-0.707878	0.000012
H126	H	0.878902	0.181434	0.583655
H127	H	0.839253	-0.677617	-0.000010
H128	H	1.084662	0.009214	0.416426
