data_functionalizedCrystal
_audit_creation_method	'MofGen! by Chris Wilmer'
_symmetry_space_group_name_H-M	'P1'
_symmetry_Int_Tables_number	1
_symmetry_cell_setting	triclinic
loop_
_symmetry_equiv_pos_as_xyz
  x,y,z
_cell_length_a	31.640172
_cell_length_b	17.917559
_cell_length_c	17.917603
_cell_angle_alpha	60.142190
_cell_angle_beta	90.004925
_cell_angle_gamma	57.021867
loop_
_atom_site_label
_atom_site_type_symbol
_atom_site_fract_x
_atom_site_fract_y
_atom_site_fract_z
Zr1	Zr	-0.054265	0.746394	0.790690
O2	O	-0.129048	0.913064	0.673555
O3	O	-0.028705	0.587591	0.821435
O4	O	-0.120672	0.742896	0.828878
O5	O	0.032467	0.757774	0.666114
O6	O	-0.117062	0.731188	0.957274
O7	O	-0.037081	0.757759	0.666111
O8	O	0.047451	0.453375	0.943959
O9	O	-0.132045	1.035587	0.679429
O10	O	-0.018293	0.641257	0.936606
O11	O	0.030916	0.650006	0.840788
O12	O	-0.077364	0.832859	0.849551
O13	O	-0.028155	0.841608	0.753733
Zr14	Zr	0.062414	0.727745	0.995471
Zr15	Zr	-0.048507	0.727720	0.995467
Zr16	Zr	0.056656	0.746418	0.790694
Zr17	Zr	-0.059045	0.941804	0.800059
Zr18	Zr	0.067194	0.532334	0.986102
O19	O	0.036854	0.886548	0.964727
O20	O	-0.120862	0.886513	0.964721
O21	O	0.028667	0.913099	0.673561
O22	O	0.137197	0.561074	1.112606
O23	O	-0.020518	0.561039	1.112601
O24	O	0.129011	0.587625	0.821440
O25	O	-0.024318	0.716364	1.120048
O26	O	0.128821	0.731242	0.957283
O27	O	0.125211	0.742950	0.828887
O28	O	0.045230	0.716380	1.120050
O29	O	-0.127469	1.020744	0.842199
O30	O	0.135618	0.453394	0.943962
O31	O	0.140194	0.438551	1.106732
O32	O	0.052027	0.438532	1.106729
O33	O	-0.043878	1.035607	0.679432
O34	O	-0.039302	1.020764	0.842203
O35	O	0.085513	0.641280	0.936610
O36	O	0.036304	0.632530	1.032428
O37	O	-0.022767	0.824132	0.945374
O38	O	0.026442	0.832881	0.849555
C39	C	0.010054	0.492641	0.881362
C40	C	0.012084	0.409684	0.877385
C41	C	-0.007677	0.216409	0.915973
C42	C	0.015824	0.257734	0.870190
C43	C	0.013742	0.342287	0.874195
C44	C	-0.005595	0.131849	0.911970
C45	C	-0.134671	0.737039	0.893076
C46	C	-0.181760	0.737028	0.893074
C47	C	-0.504630	0.837092	0.847648
C48	C	-0.681626	0.837111	0.847650
O49	O	-0.730734	0.922166	0.809038
N50	N	-0.672921	0.737097	0.893090
C51	C	-0.619963	0.637072	0.938538
O52	O	-0.616621	0.552004	0.977195
C53	C	-0.442969	0.637054	0.938541
C54	C	-0.451677	0.737075	0.893090
C55	C	-0.513336	0.937105	0.802202
C56	C	-0.469089	0.937099	0.802198
C57	C	-0.416137	0.837082	0.847640
C58	C	-0.407431	0.737070	0.893086
C59	C	-0.390011	0.537030	0.983994
C60	C	-0.345763	0.537034	0.983992
C61	C	-0.354471	0.637055	0.938542
C62	C	-0.310232	0.637047	0.938523
N63	N	-0.318936	0.737060	0.893084
C64	C	-0.371888	0.837078	0.847642
C65	C	-0.712890	0.637088	0.938531
C66	C	-0.757139	0.637093	0.938529
C67	C	-0.818798	0.837131	0.847643
C68	C	-0.774549	0.837127	0.847640
C69	C	-0.721595	0.737102	0.893092
C70	C	-0.278965	0.837060	0.847636
C71	C	-0.234712	0.837046	0.847632
C72	C	-0.173057	0.637007	0.938522
C73	C	-0.217306	0.637021	0.938522
C74	C	-0.270262	0.737056	0.893077
O75	O	-0.261109	0.552035	0.977124
O76	O	-0.375219	0.922131	0.809007
C77	C	-0.548876	0.837098	0.847653
C78	C	-0.540170	0.737085	0.893099
C79	C	-0.487218	0.637068	0.938541
C80	C	-0.584419	0.737089	0.893097
C81	C	-0.637371	0.837107	0.847655
C82	C	-0.646075	0.937120	0.802215
C83	C	-0.601829	0.937115	0.802211
C84	C	-0.478514	0.537055	0.983980
C85	C	-0.522763	0.537068	0.983980
C86	C	-0.575715	0.637085	0.938538
C87	C	0.142820	0.737100	0.893086
C88	C	0.189909	0.737110	0.893088
C89	C	-0.003127	0.760427	0.636936
C90	C	-0.005571	0.768354	0.550003
C91	C	-0.001905	0.981497	0.904800
C92	C	-0.003934	1.064454	0.908777
C93	C	-0.010035	0.782835	0.390853
C94	C	0.018183	0.691308	0.395301
C95	C	0.015699	0.699365	0.306745
C96	C	-0.007552	0.774780	0.479416
C97	C	0.011276	0.713711	1.149225
C98	C	0.013720	0.705784	1.236158
C99	C	0.017256	0.469283	1.137506
C100	C	0.021729	0.378399	1.220462
C101	C	0.148799	0.492671	0.881367
C102	C	0.197918	0.409725	0.877391
C103	C	0.156001	0.469314	1.137511
C104	C	0.207563	0.378440	1.220469
C105	C	-0.147852	1.004825	0.648650
C106	C	-0.199414	1.095699	0.565692
C107	C	-0.009107	1.004855	0.648655
C108	C	-0.013580	1.095739	0.565699
C109	C	-0.140650	0.981467	0.904794
C110	C	-0.189769	1.064413	0.908770
C111	C	-0.004673	0.340274	1.209401
C112	C	-0.000481	0.254890	1.287339
C113	C	0.030118	0.207627	1.376338
C114	C	0.056521	0.245760	1.387398
C115	C	0.052325	0.331148	1.309460
C116	C	0.249488	0.366217	0.925543
C117	C	0.295643	0.288292	0.921804
C118	C	0.290228	0.253869	0.869919
C119	C	0.238652	0.297385	0.821762
C120	C	0.192498	0.375315	0.825496
C121	C	0.206091	0.331197	1.309452
C122	C	0.254535	0.245821	1.387407
C123	C	0.304451	0.207685	1.376378
C124	C	0.305922	0.254937	1.287386
C125	C	0.257478	0.340316	1.209433
C126	C	-0.197943	1.142951	0.476710
C127	C	-0.246387	1.228351	0.398756
C128	C	-0.296303	1.266491	0.409785
C129	C	-0.297773	1.219234	0.498777
C130	C	-0.249329	1.133842	0.576729
C131	C	0.012818	1.133873	0.576761
C132	C	0.008612	1.219278	0.498824
C133	C	-0.021988	1.266543	0.409825
C134	C	-0.048389	1.228407	0.398765
C135	C	-0.044187	1.143008	0.476702
C136	C	-0.184336	1.098810	0.960664
C137	C	-0.230483	1.176735	0.964417
C138	C	-0.282062	1.220268	0.916271
C139	C	-0.287494	1.185863	0.864376
C140	C	-0.241347	1.107934	0.860628
H141	H	-0.241809	0.918498	0.810616
H142	H	0.037505	0.229616	0.827982
N143	N	-0.244799	1.279308	0.302776
H144	H	-0.226251	1.312330	0.296683
H145	H	-0.224030	1.220482	0.292339
N146	N	0.052647	0.579490	0.488434
H147	H	0.091797	0.537018	0.494158
H148	H	0.049512	0.589597	0.539354
H149	H	-0.029359	0.244530	0.958173
H150	H	-0.245778	1.079937	0.818367
H151	H	-0.250534	1.095369	0.649181
H152	H	-0.689198	1.018558	0.765209
H153	H	-0.322079	0.918517	0.810631
H154	H	-0.476187	1.018546	0.765192
H155	H	0.030114	1.250314	0.507847
H156	H	0.033531	0.138099	1.439792
N157	N	-0.655776	0.529202	0.987542
H158	H	-0.634683	0.520341	1.037678
H159	H	-0.657027	0.465917	1.016263
H160	H	-0.329496	1.221319	0.825177
N161	N	0.259077	0.391244	1.113463
H162	H	0.241250	0.380955	1.076699
H163	H	0.239011	0.472760	1.081151
N164	N	-0.224617	1.213830	1.020394
H165	H	-0.184939	1.174431	1.050315
H166	H	-0.245000	1.296260	0.978226
N167	N	0.080806	0.372258	1.321403
H168	H	0.053158	0.453382	1.293502
H169	H	0.100825	0.329276	1.389627
H170	H	0.165452	0.362234	1.318449
N171	N	-0.513365	0.429181	1.033013
H172	H	-0.473103	0.365825	1.061803
H173	H	-0.529024	0.420453	1.083100
H174	H	0.037739	1.095395	0.649221
H175	H	-0.065682	1.111964	0.467682
H176	H	-0.435400	0.455606	1.020987
H177	H	-0.335745	1.336024	0.346303
N178	N	-0.115940	0.529135	0.987544
H179	H	-0.097556	0.529053	0.941474
H180	H	-0.094906	0.520376	1.037669
N181	N	-0.044503	0.894641	0.297722
H182	H	-0.041412	0.884613	0.246754
H183	H	-0.083636	0.937044	0.292089
N184	N	0.252942	0.194866	1.483383
H185	H	0.213969	0.231977	1.478533
H186	H	0.273049	0.113333	1.515707
H187	H	-0.556450	1.018555	0.765199
H188	H	0.234251	0.269347	0.779518
H189	H	0.343893	0.138163	1.439861
H190	H	-0.382910	0.455582	1.021006
N191	N	-0.037676	0.391235	1.113416
H192	H	-0.076585	0.424272	1.107311
H193	H	-0.036287	0.451067	1.065772
N194	N	-0.783942	0.945003	0.798622
H195	H	-0.824204	1.008359	0.769836
H196	H	-0.765575	0.944977	0.844748
H197	H	-0.861921	0.918570	0.810638
N198	N	-0.128705	1.051856	1.012598
H199	H	-0.126750	1.113714	0.989224
H200	H	-0.121836	1.013118	1.081007
N201	N	-0.028961	0.213773	1.275399
H202	H	-0.048976	0.256668	1.207191
H203	H	-0.001282	0.132640	1.303361
H204	H	0.150509	0.410729	0.786288
H205	H	-0.302645	0.455580	1.021006
N206	N	-0.747744	0.529214	0.987550
H207	H	-0.727916	0.489865	0.959321
H208	H	-0.725226	0.481200	1.055511
H209	H	-0.025405	1.336080	0.346372
N210	N	0.089523	0.194780	1.483391
H211	H	0.088173	0.134901	1.531078
H212	H	0.128416	0.161805	1.489419
N213	N	-0.207918	0.529148	0.987520
H214	H	-0.167657	0.465788	1.016300
H215	H	-0.223574	0.520396	1.037612
H216	H	0.346569	0.223874	1.278420
H217	H	-0.608926	1.018562	0.765200
N218	N	-0.351612	1.260369	0.510669
H219	H	-0.373979	1.341496	0.482756
H220	H	-0.371686	1.249617	0.478354
N221	N	-0.081383	1.279373	0.302771
H222	H	-0.080030	1.339248	0.255084
H223	H	-0.065902	1.220528	0.292360
N224	N	0.255337	0.403332	0.981510
H225	H	0.295013	0.363939	1.011439
H226	H	0.234952	0.485762	0.939334
N227	N	-0.144109	1.101821	0.464801
H228	H	-0.150536	1.144726	0.396597
H229	H	-0.124009	1.112491	0.497169
N230	N	0.351267	0.241363	0.973751
H231	H	0.347690	0.274989	1.007192
H232	H	0.374135	0.158535	1.020283
N233	N	-0.331831	1.304309	0.920328
H234	H	-0.320558	1.319486	0.960511
H235	H	-0.356599	1.375117	0.855663
H236	H	0.327815	0.190413	0.866887
