data_functionalizedCrystal
_audit_creation_method	'MofGen! by Chris Wilmer'
_symmetry_space_group_name_H-M	'P1'
_symmetry_Int_Tables_number	1
_symmetry_cell_setting	triclinic
loop_
_symmetry_equiv_pos_as_xyz
  x,y,z
_cell_length_a	17.077404
_cell_length_b	14.908520
_cell_length_c	17.077396
_cell_angle_alpha	86.731679
_cell_angle_beta	90.018362
_cell_angle_gamma	93.318621
loop_
_atom_site_label
_atom_site_type_symbol
_atom_site_fract_x
_atom_site_fract_y
_atom_site_fract_z
Zn1	Zn	1.182021	-0.359207	0.461847
Zn2	Zn	1.515354	-0.025874	0.795180
Zn3	Zn	1.848688	0.307459	1.128513
Zn4	Zn	1.174354	-0.510079	0.338153
Zn5	Zn	1.507687	-0.176745	0.671486
Zn6	Zn	1.841021	0.156588	1.004819
Zn7	Zn	1.050752	-0.359233	0.330599
Zn8	Zn	1.384085	-0.025900	0.663932
Zn9	Zn	1.717418	0.307433	0.997265
Zn10	Zn	1.043150	-0.510019	0.469376
Zn11	Zn	1.376483	-0.176686	0.802709
Zn12	Zn	1.709816	0.156647	1.136042
O13	O	1.112569	-0.434635	0.399993
O14	O	1.445902	-0.101301	0.733327
O15	O	1.779236	0.232032	1.066660
O16	O	1.290850	-0.379235	0.445449
O17	O	1.624184	-0.045902	0.778782
O18	O	1.957517	0.287432	1.112115
O19	O	1.157930	-0.490104	0.227305
O20	O	1.491264	-0.156771	0.560639
O21	O	1.824597	0.176562	0.893972
O22	O	1.074555	-0.232985	0.341697
O23	O	1.407888	0.100348	0.675030
O24	O	1.741222	0.433681	1.008363
O25	O	1.285217	-0.490079	0.354571
O26	O	1.618550	-0.156746	0.687905
O27	O	1.951884	0.176587	1.021238
O28	O	1.170998	-0.232966	0.438124
O29	O	1.504331	0.100367	0.771457
O30	O	1.837665	0.433700	1.104791
O31	O	1.067120	-0.379279	0.221755
O32	O	1.400454	-0.045946	0.555089
O33	O	1.733787	0.287388	0.888422
O34	O	0.939897	-0.379221	0.348997
O35	O	1.273230	-0.045888	0.682331
O36	O	1.606564	0.287445	1.015664
O37	O	1.061598	-0.489978	0.578222
O38	O	1.394932	-0.156645	0.911556
O39	O	1.728265	0.176689	1.244889
O40	O	0.934312	-0.490003	0.450956
O41	O	1.267645	-0.156670	0.784290
O42	O	1.600978	0.176664	1.117623
O43	O	1.163627	-0.379177	0.572691
O44	O	1.496960	-0.045844	0.906024
O45	O	1.830293	0.287489	1.239357
O46	O	1.150559	-0.636315	0.361872
O47	O	1.483892	-0.302982	0.695205
O48	O	1.817226	0.030351	1.028539
O49	O	1.054164	-0.636272	0.458281
O50	O	1.387497	-0.302938	0.791614
O51	O	1.720831	0.030395	1.124948
C52	C	0.908622	-0.434609	0.399974
C53	C	1.241956	-0.101276	0.733308
C54	C	1.575289	0.232058	1.066641
C55	C	0.821372	-0.434620	0.399986
C56	C	1.154705	-0.101287	0.733319
C57	C	1.488039	0.232047	1.066653
C58	C	0.783311	-0.377006	0.447388
C59	C	1.116644	-0.043672	0.780721
C60	C	1.449977	0.289661	1.114055
C61	C	0.701330	-0.377012	0.447392
C62	C	1.034663	-0.043678	0.780725
C63	C	1.367997	0.289655	1.114058
C64	C	0.657412	-0.434637	0.399998
C65	C	0.990745	-0.101303	0.733331
C66	C	1.324079	0.232030	1.066664
C67	C	0.695479	-0.492253	0.352590
C68	C	1.028812	-0.158920	0.685924
C69	C	1.362146	0.174413	1.019257
C70	C	0.777458	-0.492242	0.352583
C71	C	1.110792	-0.158909	0.685916
C72	C	1.444125	0.174424	1.019250
C73	C	0.524608	-0.492274	0.352611
C74	C	0.857941	-0.158941	0.685944
C75	C	1.191274	0.174393	1.019278
C76	C	0.442623	-0.492286	0.352619
C77	C	0.775956	-0.158953	0.685953
C78	C	1.109289	0.174380	1.019286
C79	C	0.448479	-0.377043	0.447420
C80	C	0.781813	-0.043710	0.780753
C81	C	1.115146	0.289624	1.114086
C82	C	0.530459	-0.377032	0.447412
C83	C	0.863792	-0.043699	0.780746
C84	C	1.197126	0.289635	1.114079
C85	C	0.568520	-0.434650	0.400006
C86	C	0.901854	-0.101317	0.733339
C87	C	1.235187	0.232017	1.066673
C88	C	1.100726	-0.669027	0.411730
C89	C	1.434059	-0.335694	0.745064
C90	C	1.767393	-0.002361	1.078397
C91	C	1.095731	-0.769302	0.416778
C92	C	1.429064	-0.435968	0.750111
C93	C	1.762398	-0.102635	1.083444
C94	C	1.186825	-0.957712	0.325952
C95	C	1.520158	-0.624379	0.659286
C96	C	1.853492	-0.291045	0.992619
C97	C	1.182135	-1.051929	0.330692
C98	C	1.515468	-0.718595	0.664026
C99	C	1.848801	-0.385262	0.997359
C100	C	1.081665	-1.051953	0.431001
C101	C	1.414998	-0.718620	0.764334
C102	C	1.748331	-0.385286	1.097668
C103	C	1.086355	-0.957736	0.426261
C104	C	1.419688	-0.624403	0.759594
C105	C	1.753022	-0.291070	1.092928
C106	C	1.138936	-0.910619	0.373734
C107	C	1.472269	-0.577286	0.707067
C108	C	1.805603	-0.243953	1.040401
C109	C	1.143622	-0.816401	0.368991
C110	C	1.476955	-0.483068	0.702324
C111	C	1.810289	-0.149734	1.035657
C112	C	1.043156	-0.816427	0.469303
C113	C	1.376490	-0.483094	0.802636
C114	C	1.709823	-0.149761	1.135969
C115	C	1.038466	-0.910644	0.474043
C116	C	1.371799	-0.577310	0.807376
C117	C	1.705133	-0.243977	1.140709
C118	C	1.317312	-0.434661	0.400013
C119	C	1.650645	-0.101328	0.733346
C120	C	1.983979	0.232006	1.066679
C121	C	1.404561	-0.434672	0.400021
C122	C	1.737894	-0.101339	0.733354
C123	C	2.071228	0.231994	1.066688
C124	C	1.112620	-0.434568	0.604734
C125	C	1.445953	-0.101235	0.938068
C126	C	1.779287	0.232098	1.271401
C127	C	1.112642	-0.434540	0.691983
C128	C	1.445975	-0.101207	1.025316
C129	C	1.779308	0.232127	1.358649
C130	C	1.124480	-0.199327	0.388228
C131	C	1.457813	0.134007	0.721561
C132	C	1.791146	0.467340	1.054894
C133	C	1.129555	-0.099052	0.383214
C134	C	1.462889	0.234281	0.716547
C135	C	1.796222	0.567614	1.049881
C136	C	1.112567	-0.434636	0.196046
C137	C	1.445900	-0.101302	0.529379
C138	C	1.779233	0.232031	0.862712
C139	C	1.112710	-0.434410	0.108785
C140	C	1.446043	-0.101077	0.442118
C141	C	1.779377	0.232257	0.775452
C142	C	1.165770	-0.376841	0.730094
C143	C	1.499103	-0.043508	1.063427
C144	C	1.832436	0.289826	1.396760
C145	C	1.165781	-0.376811	0.812073
C146	C	1.499114	-0.043478	1.145406
C147	C	1.832447	0.289856	1.478739
C148	C	1.112667	-0.434485	0.855940
C149	C	1.446000	-0.101152	1.189273
C150	C	1.779333	0.232182	1.522606
C151	C	1.059533	-0.492186	0.817823
C152	C	1.392866	-0.158853	1.151156
C153	C	1.726199	0.174480	1.484490
C154	C	1.059519	-0.492211	0.735845
C155	C	1.392852	-0.158878	1.069179
C156	C	1.726185	0.174455	1.402512
C157	C	1.059567	-0.492132	0.988691
C158	C	1.392900	-0.158799	1.322024
C159	C	1.726234	0.174535	1.655357
C160	C	1.059582	-0.492109	1.070674
C161	C	1.392915	-0.158775	1.404007
C162	C	1.726248	0.174558	1.737341
C163	C	1.165829	-0.376732	1.064918
C164	C	1.499162	-0.043399	1.398251
C165	C	1.832496	0.289935	1.731585
C166	C	1.165815	-0.376757	0.982940
C167	C	1.499148	-0.043424	1.316273
C168	C	1.832482	0.289910	1.649607
C169	C	1.112682	-0.434460	0.944829
C170	C	1.446015	-0.101126	1.278163
C171	C	1.779349	0.232207	1.611496
H172	H	0.566215	-0.330114	0.486010
H173	H	0.899548	0.003219	0.819343
H174	H	1.232881	0.336553	1.152676
Cl175	Cl	0.640268	-0.564692	0.293004
Cl176	Cl	0.973601	-0.231359	0.626338
Cl177	Cl	1.306934	0.101975	0.959671
Cl178	Cl	1.252913	-0.898476	0.259909
Cl179	Cl	1.586246	-0.565142	0.593242
Cl180	Cl	1.919580	-0.231809	0.926576
Cl181	Cl	0.387411	-0.564752	0.293057
Cl182	Cl	0.720744	-0.231418	0.626390
Cl183	Cl	1.054078	0.101915	0.959723
Cl184	Cl	0.972370	-0.969885	0.540075
Cl185	Cl	1.305704	-0.636552	0.873408
Cl186	Cl	1.639037	-0.303219	1.206742
Cl187	Cl	0.982939	-0.757220	0.529364
Cl188	Cl	1.316272	-0.423886	0.862698
Cl189	Cl	1.649606	-0.090553	1.196031
Cl190	Cl	0.653485	-0.304582	0.506988
Cl191	Cl	0.986818	0.028752	0.840321
Cl192	Cl	1.320151	0.362085	1.173655
Cl193	Cl	1.232606	-0.304312	0.859982
Cl194	Cl	1.565940	0.029021	1.193315
Cl195	Cl	1.899273	0.362355	1.526649
H196	H	1.209024	-0.329879	0.694383
H197	H	1.542357	0.003454	1.027716
H198	H	1.875690	0.336788	1.361050
Cl199	Cl	1.209720	-0.757169	0.302955
Cl200	Cl	1.543053	-0.423836	0.636288
Cl201	Cl	1.876387	-0.090502	0.969622
H202	H	0.808447	-0.539157	0.313983
H203	H	1.141780	-0.205824	0.647316
H204	H	1.475113	0.127510	0.980650
H205	H	0.417486	-0.330127	0.486018
H206	H	0.750819	0.003207	0.819352
H207	H	1.084153	0.336540	1.152685
Cl208	Cl	1.232592	-0.304257	0.927794
Cl209	Cl	1.565926	0.029077	1.261128
Cl210	Cl	1.899259	0.362410	1.594461
Cl211	Cl	1.232626	-0.304193	1.112828
Cl212	Cl	1.565959	0.029141	1.446161
Cl213	Cl	1.899292	0.362474	1.779495
H214	H	1.221132	-1.090268	0.291785
H215	H	1.554466	-0.756935	0.625118
H216	H	1.887799	-0.423601	0.958452
H217	H	1.038861	-1.090332	0.473771
H218	H	1.372194	-0.756999	0.807104
H219	H	1.705527	-0.423666	1.140437
H220	H	1.016330	-0.539070	1.106388
H221	H	1.349663	-0.205737	1.439722
H222	H	1.682997	0.127597	1.773055
H223	H	1.016289	-0.539106	0.957663
H224	H	1.349622	-0.205772	1.290996
H225	H	1.682955	0.127561	1.624330
H226	H	1.016284	-0.539142	0.853546
H227	H	1.349617	-0.205809	1.186879
H228	H	1.682950	0.127524	1.520213
H229	H	1.016249	-0.539186	0.704816
H230	H	1.349582	-0.205853	1.038150
H231	H	1.682915	0.127480	1.371483
Cl232	Cl	0.838514	-0.304562	0.506976
Cl233	Cl	1.171847	0.028771	0.840310
Cl234	Cl	1.505181	0.362104	1.173643
Cl235	Cl	0.572455	-0.564715	0.293019
Cl236	Cl	0.905788	-0.231382	0.626352
Cl237	Cl	1.239121	0.101951	0.959686
