data_functionalizedCrystal
_audit_creation_method	'MofGen! by Chris Wilmer'
_symmetry_space_group_name_H-M	'P1'
_symmetry_Int_Tables_number	1
_symmetry_cell_setting	triclinic
loop_
_symmetry_equiv_pos_as_xyz
  x,y,z
_cell_length_a	27.732048
_cell_length_b	9.130307
_cell_length_c	10.654541
_cell_angle_alpha	90.005041
_cell_angle_beta	96.436708
_cell_angle_gamma	90.001509
loop_
_atom_site_label
_atom_site_type_symbol
_atom_site_fract_x
_atom_site_fract_y
_atom_site_fract_z
O1	O	0.641857	-0.121610	-0.149418
O2	O	0.501205	-0.121655	-0.172137
O3	O	0.574765	-0.121623	0.022098
O4	O	0.568296	-0.121642	-0.343653
O5	O	0.574760	0.121976	0.022106
O6	O	0.501199	0.121944	-0.172129
O7	O	0.641851	0.121989	-0.149410
Cu8	Cu	0.571525	0.144209	-0.160768
Cu9	Cu	0.571531	-0.143875	-0.160778
O10	O	0.568291	0.121957	-0.343645
C11	C	0.483192	0.000139	-0.171656
C12	C	0.429528	0.000123	-0.170220
C13	C	0.574288	0.000176	0.068880
C14	C	0.572867	0.000173	0.208264
N15	N	0.571523	0.346832	-0.160761
C16	C	0.091371	0.000180	-0.275959
C17	C	-0.110322	0.000194	-0.270631
O18	O	-0.140975	0.000252	-0.367323
N19	N	-0.130162	0.000197	-0.155458
C20	C	-0.099576	0.000207	-0.041609
O21	O	-0.121080	0.000226	0.056476
C22	C	0.102116	0.000204	-0.046938
C23	C	0.121953	0.000186	-0.162119
C24	C	0.111209	0.000164	-0.391131
C25	C	0.161630	0.000152	-0.392462
C26	C	0.192212	0.000158	-0.278621
C27	C	0.172374	0.000175	-0.163450
C28	C	0.132701	0.000225	0.066910
C29	C	0.183126	0.000228	0.065567
C30	C	0.202964	0.000209	-0.049613
C31	C	0.253376	0.000169	-0.050940
N32	N	0.273216	0.000165	-0.166113
C33	C	0.242634	0.000160	-0.279954
C34	C	-0.205468	0.000206	-0.038819
C35	C	-0.255890	0.000204	-0.037486
C36	C	-0.266632	0.000193	-0.266509
C37	C	-0.216209	0.000185	-0.267841
C38	C	-0.185627	0.000202	-0.153992
C39	C	0.348521	0.000135	-0.282740
C40	C	0.398946	0.000117	-0.284060
C41	C	0.409684	0.000136	-0.055038
C42	C	0.359263	0.000145	-0.053716
C43	C	0.328682	0.000150	-0.167578
O44	O	0.284058	0.000127	0.045700
O45	O	0.264147	0.000174	-0.378023
C46	C	0.040951	0.000192	-0.274629
C47	C	0.021113	0.000209	-0.159457
C48	C	0.051695	0.000214	-0.045617
C49	C	-0.029310	0.000207	-0.158124
C50	C	-0.059892	0.000201	-0.271965
C51	C	-0.040051	0.000197	-0.387138
C52	C	0.010369	0.000186	-0.388469
C53	C	0.031854	0.000218	0.069557
C54	C	-0.018566	0.000227	0.070878
C55	C	-0.049148	0.000222	-0.042962
C56	C	0.659864	0.000191	-0.149891
C57	C	0.713528	0.000199	-0.151327
N58	N	0.571536	-0.346498	-0.160775
C59	C	0.512395	0.346881	-0.009470
C60	C	0.482836	0.423572	0.066178
C61	C	0.482843	0.576906	0.066179
C62	C	0.512411	0.653551	-0.009480
C63	C	0.541970	0.576860	-0.085128
C64	C	0.541961	0.423523	-0.085118
C65	C	0.601095	0.576811	-0.236424
C66	C	0.601092	0.423478	-0.236419
C67	C	0.630664	0.653457	-0.312082
C68	C	0.660226	0.576765	-0.387725
C69	C	0.660218	0.423423	-0.387722
C70	C	0.630651	0.346786	-0.312068
C71	C	0.568768	0.000155	-0.390427
C72	C	0.570189	0.000148	-0.529811
C73	C	0.660829	0.000219	0.239933
C74	C	0.704140	0.000245	0.321248
C75	C	0.702803	0.000240	0.452210
C76	C	0.658149	0.000205	0.501858
C77	C	0.614838	0.000179	0.420543
C78	C	0.616180	0.000188	0.289580
C79	C	0.526877	0.000122	0.388874
C80	C	0.528213	0.000138	0.257912
C81	C	0.482223	0.000087	0.438522
C82	C	0.438911	0.000072	0.357207
C83	C	0.440250	0.000078	0.226238
C84	C	0.484902	0.000112	0.176597
H85	H	0.415095	0.000101	-0.377858
H86	H	0.661922	0.000243	0.133298
H87	H	0.740497	0.000287	0.280810
H88	H	0.458771	0.639347	0.127772
H89	H	0.458761	0.361150	0.127775
H90	H	0.056750	0.000226	0.162262
Br91	Br	0.512410	0.861648	-0.009503
H92	H	0.481137	0.000074	0.545160
Br93	Br	0.630669	0.861554	-0.312096
Br94	Br	-0.189292	0.000160	-0.424162
Br95	Br	0.630641	0.138689	-0.312049
Br96	Br	0.700344	0.680789	-0.490408
Br97	Br	0.656335	0.000083	0.679593
Br98	Br	0.700334	0.319354	-0.490401
H99	H	0.738071	0.000249	0.518417
Br100	Br	0.378316	-0.000000	0.424593
Br101	Br	0.381467	0.000026	0.115891
H102	H	0.485997	0.000126	0.069963
Br103	Br	-0.282806	0.000185	0.118837
Br104	Br	0.188544	0.000134	-0.548787
Br105	Br	0.307026	0.000143	-0.437267
H106	H	0.086314	0.000164	-0.483839
H107	H	0.026516	0.000173	-0.482261
Br108	Br	-0.163970	0.000230	0.115706
Br109	Br	-0.308146	0.000188	-0.421007
H110	H	-0.034713	0.000231	0.164679
H111	H	0.512390	0.222029	-0.009454
H112	H	0.208024	0.000243	0.158279
Br113	Br	0.105792	0.000218	0.223237
H114	H	0.343110	0.000139	0.040073
H115	H	0.434593	0.000135	0.037648
H116	H	-0.064960	0.000187	-0.479831
