data_functionalizedCrystal
_audit_creation_method	'MofGen! by Chris Wilmer'
_symmetry_space_group_name_H-M	'P1'
_symmetry_Int_Tables_number	1
_symmetry_cell_setting	triclinic
loop_
_symmetry_equiv_pos_as_xyz
  x,y,z
_cell_length_a	15.944551
_cell_length_b	15.944551
_cell_length_c	15.021413
_cell_angle_alpha	90.008907
_cell_angle_beta	90.002826
_cell_angle_gamma	96.501262
loop_
_atom_site_label
_atom_site_type_symbol
_atom_site_fract_x
_atom_site_fract_y
_atom_site_fract_z
O1	O	-1.114529	0.108321	-0.073929
O2	O	-0.869979	0.121677	-0.073950
O3	O	-0.998932	-0.007276	-0.073944
O4	O	-0.985576	0.237274	-0.073935
O5	O	-0.998912	-0.007257	0.074120
O6	O	-0.869959	0.121695	0.074114
O7	O	-1.114508	0.108339	0.074135
Zn8	Zn	-0.992230	0.115020	0.097633
Zn9	Zn	-0.992257	0.114996	-0.097448
O10	O	-0.985555	0.237292	0.074129
C11	C	-0.838675	0.121132	0.000079
C12	C	-0.745429	0.119470	0.000070
C13	C	-0.998367	-0.038561	0.000084
C14	C	-0.996705	-0.131807	0.000075
C15	C	-1.145813	0.108885	0.000104
C16	C	-1.239059	0.110547	0.000106
N17	N	-0.992218	0.115036	0.230770
C18	C	-0.530572	0.035565	0.000085
C19	C	-0.469562	0.074518	-0.072917
C20	C	-0.574703	0.116462	0.000081
C21	C	-0.469564	0.074556	0.073062
C22	C	-0.409790	0.113551	0.000095
C23	C	-0.514921	0.155438	-0.072981
C24	C	-0.514930	0.155464	0.073064
C25	C	-0.453937	0.194476	0.000044
C26	C	-0.669705	0.118137	0.000072
C27	C	-0.314789	0.111883	0.000097
C28	C	-0.986120	0.268577	0.000098
C29	C	-0.987782	0.361823	0.000102
C30	C	-1.071687	0.576680	0.000096
C31	C	-1.032714	0.637705	0.073097
C32	C	-0.990790	0.532549	0.000094
C33	C	-1.032715	0.637672	-0.072883
C34	C	-0.993700	0.697462	0.000083
C35	C	-0.951795	0.592346	0.073156
C36	C	-0.951807	0.592307	-0.072890
C37	C	-0.912776	0.653315	0.000129
C38	C	-0.989115	0.437547	0.000102
C39	C	-0.995369	0.792463	0.000082
N40	N	-0.992276	0.114973	-0.230586
C41	C	-0.932581	0.174636	0.470451
C42	C	-1.008481	0.190943	0.529793
C43	C	-0.992239	0.115015	0.412377
C44	C	-0.916360	0.098727	0.529777
C45	C	-0.992253	0.114997	0.587801
C46	C	-1.068178	0.131360	0.470413
C47	C	-0.976006	0.039111	0.470392
C48	C	-1.051962	0.055386	0.529707
C49	C	-0.992230	0.115028	0.311320
C50	C	-0.992271	0.114984	0.688857
H51	H	-0.563905	-0.031573	-0.000008
H52	H	-1.102474	0.004956	0.555562
H53	H	-0.845569	0.686473	0.000164
H54	H	-0.917629	0.572171	-0.134615
H55	H	-1.066922	0.657820	0.134819
H56	H	-0.882181	0.225096	0.444433
H57	H	-0.449461	0.040295	-0.134638
Br58	Br	-0.953063	-0.067832	0.426867
Br59	Br	-0.809398	0.075777	0.573245
H60	H	-0.917597	0.572362	0.134939
Br61	Br	-0.548243	0.212413	-0.175961
H62	H	-1.022224	0.255126	0.555884
H63	H	-1.132368	0.145206	0.444446
H64	H	-1.066955	0.657754	-0.134596
Br65	Br	-0.398667	0.306490	-0.000014
H66	H	-0.449470	0.040332	0.134777
Br67	Br	-1.183604	0.521165	0.000219
Br68	Br	-0.548472	0.212461	0.175941
