data_functionalizedCrystal
_audit_creation_method	'MofGen! by Chris Wilmer'
_symmetry_space_group_name_H-M	'P1'
_symmetry_Int_Tables_number	1
_symmetry_cell_setting	triclinic
loop_
_symmetry_equiv_pos_as_xyz
  x,y,z
_cell_length_a	27.732048
_cell_length_b	11.792241
_cell_length_c	10.268362
_cell_angle_alpha	90.005428
_cell_angle_beta	89.992929
_cell_angle_gamma	96.581965
loop_
_atom_site_label
_atom_site_type_symbol
_atom_site_fract_x
_atom_site_fract_y
_atom_site_fract_z
O1	O	0.641711	-0.135041	-0.108375
O2	O	1.141711	0.364959	0.391625
O3	O	0.501036	-0.155574	-0.108361
O4	O	1.001036	0.344426	0.391639
O5	O	0.574787	0.019972	-0.108359
O6	O	1.074787	0.519972	0.391641
O7	O	0.567960	-0.310587	-0.108377
O8	O	1.067960	0.189413	0.391623
O9	O	0.574781	0.019979	0.108242
O10	O	1.074781	0.519979	0.608242
O11	O	0.501030	-0.155567	0.108239
O12	O	1.001030	0.344433	0.608239
O13	O	0.641704	-0.135034	0.108226
O14	O	1.141704	0.364966	0.608226
Cu15	Cu	0.571366	-0.145300	0.128010
Cu16	Cu	1.071366	0.354700	0.628010
Cu17	Cu	0.571374	-0.145308	-0.128145
Cu18	Cu	1.071374	0.354692	0.371855
O19	O	0.567953	-0.310580	0.108224
O20	O	1.067953	0.189420	0.608224
C21	C	0.483024	-0.155140	-0.000059
C22	C	0.983024	0.344860	0.499941
C23	C	0.429361	-0.153842	-0.000054
C24	C	0.929361	0.346158	0.499946
C25	C	0.574355	0.062253	-0.000059
C26	C	1.074355	0.562253	0.499941
C27	C	0.573071	0.188226	-0.000060
C28	C	1.073071	0.688226	0.499940
C29	C	0.659717	-0.135469	-0.000079
C30	C	1.159717	0.364531	0.499921
C31	C	0.713379	-0.136766	-0.000093
C32	C	1.213379	0.363234	0.499907
C33	C	1.051640	-0.041201	-0.000043
C34	C	1.551640	0.458799	0.499957
C35	C	1.253327	-0.046016	-0.000039
C36	C	1.753327	0.453984	0.499961
O37	O	1.284076	0.041372	0.000021
O38	O	1.784076	0.541372	0.500021
N39	N	1.273055	-0.150108	-0.000048
N40	N	1.773055	0.349892	0.499952
C41	C	1.242357	-0.253003	-0.000050
C42	C	1.742357	0.246997	0.499950
O43	O	1.263765	-0.341650	-0.000045
O44	O	1.763765	0.158350	0.499955
C45	C	1.040671	-0.248186	-0.000045
C46	C	1.540671	0.251814	0.499955
C47	C	1.020946	-0.144088	-0.000049
C48	C	1.520946	0.355912	0.499951
C49	C	1.031915	0.062889	-0.000045
C50	C	1.531915	0.562889	0.499955
C51	C	0.981496	0.064092	-0.000054
C52	C	1.481496	0.564092	0.499946
C53	C	0.950802	-0.038795	-0.000059
C54	C	1.450802	0.461205	0.499941
C55	C	0.970527	-0.142885	-0.000057
C56	C	1.470527	0.357115	0.499943
C57	C	1.009974	-0.351080	-0.000037
C58	C	1.509974	0.148920	0.499963
C59	C	0.959550	-0.349867	-0.000033
C60	C	1.459550	0.150133	0.499967
C61	C	0.939825	-0.245769	-0.000037
C62	C	1.439825	0.254231	0.499963
C63	C	0.889415	-0.244570	-0.000071
C64	C	1.389415	0.255430	0.499929
N65	N	0.869687	-0.140478	-0.000061
N66	N	1.369687	0.359522	0.499939
C67	C	0.900381	-0.037591	-0.000056
C68	C	1.400381	0.462409	0.499944
C69	C	1.348246	-0.255524	-0.000056
C70	C	1.848246	0.244476	0.499944
C71	C	1.398668	-0.256729	-0.000059
C72	C	1.898668	0.243271	0.499941
C73	C	1.409634	-0.049742	-0.000046
C74	C	1.909634	0.450258	0.499954
C75	C	1.359212	-0.048538	-0.000051
C76	C	1.859212	0.451462	0.499949
C77	C	1.328518	-0.151433	-0.000046
C78	C	1.828518	0.348567	0.499954
C79	C	0.794497	-0.035073	-0.000074
C80	C	1.294497	0.464927	0.499926
C81	C	0.744073	-0.033879	-0.000087
C82	C	1.244073	0.466121	0.499913
C83	C	0.733111	-0.240866	-0.000094
C84	C	1.233111	0.259134	0.499906
C85	C	0.783530	-0.242060	-0.000087
C86	C	1.283530	0.257940	0.499913
C87	C	0.814223	-0.139154	-0.000073
C88	C	1.314223	0.360846	0.499927
O89	O	0.858637	-0.331911	-0.000117
O90	O	1.358637	0.168089	0.499883
O91	O	0.878964	0.051043	-0.000032
O92	O	1.378964	0.551043	0.499968
C93	C	1.102059	-0.042404	-0.000035
C94	C	1.602059	0.457596	0.499965
C95	C	1.121784	-0.146493	-0.000033
C96	C	1.621784	0.353507	0.499967
C97	C	1.091090	-0.249381	-0.000038
C98	C	1.591090	0.250619	0.499962
C99	C	1.172205	-0.147698	-0.000036
C100	C	1.672205	0.352302	0.499964
C101	C	1.202899	-0.044811	-0.000031
C102	C	1.702899	0.455189	0.499969
C103	C	1.183171	0.059281	-0.000021
C104	C	1.683171	0.559281	0.499979
C105	C	1.132752	0.060484	-0.000029
C106	C	1.632752	0.560484	0.499971
C107	C	1.110818	-0.353472	-0.000048
C108	C	1.610818	0.146528	0.499952
C109	C	1.161237	-0.354667	-0.000041
C110	C	1.661237	0.145333	0.499959
C111	C	1.191931	-0.251779	-0.000035
C112	C	1.691931	0.248221	0.499965
C113	C	0.568385	-0.352861	-0.000079
C114	C	1.068385	0.147139	0.499921
C115	C	0.569669	-0.478834	-0.000086
C116	C	1.069669	0.021166	0.499914
N117	N	0.571365	-0.145293	0.308176
N118	N	1.071365	0.354707	0.808176
C119	C	0.570711	0.418862	-0.000082
C120	C	1.070711	0.918862	0.499918
C121	C	0.572023	0.290519	-0.000070
C122	C	1.072023	0.790519	0.499930
N123	N	0.571380	-0.145306	-0.308311
N124	N	1.071380	0.354694	0.191689
C125	C	0.571372	-0.145306	0.573847
C126	C	1.071372	0.354694	1.073847
C127	C	0.571366	-0.145302	0.426009
C128	C	1.071366	0.354698	0.926009
H129	H	0.728016	0.050894	-0.000094
H130	H	1.228016	0.550894	0.499906
H131	H	1.343156	0.036228	-0.000054
H132	H	1.843156	0.536228	0.499946
O133	O	1.080958	-0.453350	-0.000238
O134	O	1.580958	0.046650	0.499762
C135	C	1.051482	-0.458865	-0.112444
C136	C	1.551482	0.041135	0.387556
H137	H	1.048686	-0.368830	-0.149829
H138	H	1.548686	0.131170	0.350171
H139	H	1.013705	-0.501838	-0.087235
H140	H	1.513705	-0.001838	0.412765
H141	H	1.068220	-0.510385	-0.191000
H142	H	1.568220	-0.010385	0.309000
H143	H	1.434634	0.034033	-0.000046
H144	H	1.934634	0.534033	0.499954
H145	H	0.965441	0.148859	-0.000051
H146	H	1.465441	0.648859	0.499949
H147	H	1.208171	0.143055	-0.000024
H148	H	1.708171	0.643055	0.499976
O149	O	1.061747	0.162812	0.000183
O150	O	1.561747	0.662812	0.500183
C151	C	1.091249	0.168328	0.112337
C152	C	1.591249	0.668328	0.612337
H153	H	1.072946	0.109966	0.190755
H154	H	1.572946	0.609966	0.690755
H155	H	1.096664	0.259853	0.149982
H156	H	1.596664	0.759853	0.649982
H157	H	1.127993	0.139627	0.086968
H158	H	1.627993	0.639627	0.586968
O159	O	1.417745	-0.357950	-0.000013
O160	O	1.917745	0.142050	0.499987
C161	C	1.379836	-0.448494	-0.000048
C162	C	1.879836	0.051506	0.499952
H163	H	1.345502	-0.417284	0.040961
H164	H	1.845502	0.082716	0.540961
H165	H	1.390562	-0.521225	0.062835
H166	H	1.890562	-0.021225	0.562835
H167	H	1.372790	-0.480191	-0.103963
H168	H	1.872790	0.019809	0.396037
O169	O	0.802748	-0.343110	0.000090
O170	O	1.302748	0.156890	0.500090
C171	C	0.831562	-0.350004	0.112303
C172	C	1.331562	0.149996	0.612303
H173	H	0.843878	-0.260326	0.149698
H174	H	1.343878	0.239674	0.649698
H175	H	0.864698	-0.394665	0.087099
H176	H	1.364698	0.105335	0.587099
H177	H	0.809412	-0.400594	0.190849
H178	H	1.309412	0.099406	0.690849
H179	H	0.934561	-0.433658	-0.000023
H180	H	1.434561	0.066342	0.499977
H181	H	1.177292	-0.439442	-0.000047
H182	H	1.677292	0.060558	0.499953
O183	O	0.703359	-0.340910	-0.000156
O184	O	1.203359	0.159090	0.499844
C185	C	0.731577	-0.433053	-0.000119
C186	C	1.231577	0.066947	0.499881
H187	H	0.769130	-0.403588	-0.041127
H188	H	1.269130	0.096412	0.458873
H189	H	0.713171	-0.505089	-0.063000
H190	H	1.213171	-0.005089	0.437000
H191	H	0.735246	-0.464993	0.103797
H192	H	1.235246	0.035007	0.603797
H193	H	1.026025	-0.435848	-0.000040
H194	H	1.526025	0.064152	0.499960
O195	O	0.824237	0.064992	-0.000128
O196	O	1.324237	0.564992	0.499872
C197	C	0.796006	0.157110	-0.000103
C198	C	1.296006	0.657110	0.499897
H199	H	0.758459	0.127608	-0.041107
H200	H	1.258459	0.627608	0.458893
H201	H	0.814408	0.229142	-0.062994
H202	H	1.314408	0.729142	0.437006
H203	H	0.792324	0.189072	0.103809
H204	H	1.292324	0.689072	0.603809
O205	O	1.113653	0.161678	-0.000198
O206	O	1.613653	0.661678	0.499802
C207	C	1.129311	0.224324	-0.112389
C208	C	1.629311	0.724324	0.387611
H209	H	1.164359	0.194005	-0.149791
H210	H	1.664359	0.694005	0.350209
H211	H	1.136060	0.318958	-0.087152
H212	H	1.636060	0.818958	0.412848
H213	H	1.100176	0.210667	-0.190942
H214	H	1.600176	0.710667	0.309058
O215	O	1.318386	-0.355411	-0.000239
O216	O	1.818386	0.144589	0.499761
C217	C	1.288906	-0.360928	-0.112438
C218	C	1.788906	0.139072	0.387562
H219	H	1.286108	-0.270894	-0.149821
H220	H	1.786108	0.229106	0.350179
H221	H	1.251130	-0.403902	-0.087218
H222	H	1.751130	0.096098	0.412782
H223	H	1.305641	-0.412448	-0.190998
H224	H	1.805641	0.087552	0.309002
