data_functionalizedCrystal
_audit_creation_method	'MofGen! by Chris Wilmer'
_symmetry_space_group_name_H-M	'P1'
_symmetry_Int_Tables_number	1
_symmetry_cell_setting	triclinic
loop_
_symmetry_equiv_pos_as_xyz
  x,y,z
_cell_length_a	13.897448
_cell_length_b	19.077220
_cell_length_c	19.076919
_cell_angle_alpha	90.116798
_cell_angle_beta	92.272955
_cell_angle_gamma	87.691470
loop_
_atom_site_label
_atom_site_type_symbol
_atom_site_fract_x
_atom_site_fract_y
_atom_site_fract_z
Zn1	Zn	-0.350201	-1.058321	-0.440626
Zn2	Zn	-0.504782	-1.062974	-0.323122
Zn3	Zn	-0.349689	-0.945536	-0.318397
Zn4	Zn	-0.517644	-0.940794	-0.435851
O5	O	-0.430579	-1.001906	-0.379499
O6	O	-0.365537	-1.157271	-0.429014
O7	O	-0.478611	-1.051327	-0.224165
O8	O	-0.214774	-0.960535	-0.334632
O9	O	-0.479107	-1.160690	-0.342684
O10	O	-0.215150	-1.043397	-0.424433
O11	O	-0.364665	-0.965047	-0.220694
O12	O	-0.377137	-0.846574	-0.330003
O13	O	-0.501029	-0.952453	-0.534815
O14	O	-0.500533	-0.843090	-0.416296
O15	O	-0.378009	-1.038799	-0.538323
O16	O	-0.641470	-1.046729	-0.338055
O17	O	-0.650920	-0.956965	-0.420877
C18	C	-0.440176	-0.819335	-0.372119
C19	C	-0.444306	-0.741230	-0.368978
C20	C	-0.473892	-0.301770	-0.346489
C21	C	-0.470006	-0.375158	-0.349435
C22	C	-0.409038	-0.410072	-0.395928
C23	C	-0.351945	-0.371593	-0.439473
C24	C	-0.355827	-0.298206	-0.436524
C25	C	-0.391095	-0.629364	-0.409574
C26	C	-0.387220	-0.702757	-0.412522
C27	C	-0.505280	-0.706317	-0.322482
C28	C	-0.509160	-0.632928	-0.319539
C29	C	-0.452064	-0.594456	-0.363082
N30	N	-0.405067	-0.485086	-0.398942
N31	N	-0.456031	-0.519443	-0.360064
C32	C	-0.681195	-1.001856	-0.379477
C33	C	-0.788407	-1.001898	-0.379493
C34	C	-0.984701	-1.001970	-0.379540
C35	C	-0.875469	-1.001928	-0.379516
C36	C	-0.178984	-1.001976	-0.379538
C37	C	-0.071769	-1.002005	-0.379554
C38	C	-0.441011	-0.994578	-0.562778
C39	C	-0.445457	-0.991455	-0.640881
C40	C	-0.420936	-0.185190	-0.386900
C41	C	-0.416806	-0.263296	-0.390033
C42	C	-0.383498	-1.034941	-0.679401
C43	C	-0.387672	-1.031998	-0.752786
C44	C	-0.453810	-0.985572	-0.787650
C45	C	-0.515771	-0.942081	-0.749125
C46	C	-0.511592	-0.945021	-0.675741
C47	C	-0.473173	-0.971955	-1.006929
C48	C	-0.477349	-0.969020	-1.080318
C49	C	-0.349249	-1.058937	-1.083974
C50	C	-0.345079	-1.061875	-1.010589
C51	C	-0.407037	-1.018382	-0.972070
N52	N	-0.458080	-0.982564	-0.862662
N53	N	-0.402761	-1.021386	-0.897059
C54	C	-0.420115	-1.009247	-0.196935
C55	C	-0.415391	-1.012506	-0.118838
H56	H	-0.344608	-0.598049	-0.445033
C57	C	-0.568074	-0.748638	-0.274582
C58	C	-0.520349	-0.801283	-0.221496
C59	C	-0.583143	-0.843604	-0.173592
C60	C	-0.693664	-0.833280	-0.178774
C61	C	-0.741396	-0.780633	-0.231862
C62	C	-0.678601	-0.738311	-0.279766
H63	H	-0.438529	-0.808928	-0.217658
H64	H	-0.547808	-0.882577	-0.134293
H65	H	-0.740149	-0.864609	-0.143313
H66	H	-0.823215	-0.772988	-0.235700
H67	H	-0.713936	-0.699338	-0.319066
H68	H	-0.531209	-0.931212	-1.108702
H69	H	-0.569618	-0.904277	-0.777517
H70	H	-0.329645	-1.072748	-0.651020
H71	H	-0.523637	-0.936550	-0.975576
C72	C	-0.319514	-1.079835	-0.795155
C73	C	-0.322617	-1.160120	-0.788299
C74	C	-0.254453	-1.207958	-0.830666
C75	C	-0.183185	-1.175512	-0.879888
C76	C	-0.180079	-1.095223	-0.886746
C77	C	-0.248243	-1.047384	-0.844379
H78	H	-0.375377	-1.184143	-0.751860
H79	H	-0.256752	-1.267394	-0.825590
H80	H	-0.132725	-1.210925	-0.911251
H81	H	-0.127319	-1.071200	-0.923185
H82	H	-0.245944	-0.987949	-0.849455
C83	C	-0.281091	-1.106771	-1.126346
C84	C	-0.285678	-1.103540	-1.207066
C85	C	-0.217513	-1.151375	-1.249436
C86	C	-0.144762	-1.202441	-1.211088
C87	C	-0.140172	-1.205674	-1.130363
C88	C	-0.208336	-1.157839	-1.087992
H89	H	-0.339536	-1.065736	-1.235458
H90	H	-0.220912	-1.148981	-1.309194
H91	H	-0.094302	-1.237851	-1.242453
H92	H	-0.086314	-1.243477	-1.101971
H93	H	-0.204938	-1.160233	-1.028235
C94	C	-0.284875	-0.409998	-0.490612
C95	C	-0.327257	-0.458256	-0.547753
C96	C	-0.260186	-0.496661	-0.598892
C97	C	-0.150732	-0.486809	-0.592890
C98	C	-0.108344	-0.438550	-0.535747
C99	C	-0.175416	-0.400145	-0.484607
H100	H	-0.408286	-0.465550	-0.552199
H101	H	-0.291565	-0.532385	-0.641194
H102	H	-0.101082	-0.515239	-0.630747
H103	H	-0.027315	-0.431255	-0.531301
H104	H	-0.144037	-0.364420	-0.442306
C105	C	-0.579749	-0.897189	-0.633363
C106	C	-0.576653	-0.816903	-0.640217
C107	C	-0.644808	-0.769069	-0.597839
C108	C	-0.716060	-0.801520	-0.548606
C109	C	-0.719158	-0.881809	-0.541750
C110	C	-0.651003	-0.929644	-0.584129
H111	H	-0.523906	-0.792878	-0.676663
H112	H	-0.642514	-0.709633	-0.602914
H113	H	-0.766512	-0.766109	-0.517236
H114	H	-0.771905	-0.905835	-0.505304
H115	H	-0.653297	-0.989080	-0.579053
H116	H	-0.337566	-0.731181	-0.450381
H117	H	-0.309338	-0.266882	-0.471979
H118	H	-0.523544	-0.273349	-0.308633
H119	H	-0.516490	-0.406480	-0.313976
H120	H	-0.558805	-0.604507	-0.281679
H121	H	-0.291225	-1.099682	-0.982208
