data_functionalizedCrystal
_audit_creation_method	'MofGen! by Chris Wilmer'
_symmetry_space_group_name_H-M	'P1'
_symmetry_Int_Tables_number	1
_symmetry_cell_setting	triclinic
loop_
_symmetry_equiv_pos_as_xyz
  x,y,z
_cell_length_a	12.996460
_cell_length_b	14.519709
_cell_length_c	14.519731
_cell_angle_alpha	96.315501
_cell_angle_beta	89.992872
_cell_angle_gamma	89.999966
loop_
_atom_site_label
_atom_site_type_symbol
_atom_site_fract_x
_atom_site_fract_y
_atom_site_fract_z
O1	O	-0.085435	-1.223878	0.120892
O2	O	-0.085467	-0.955402	0.135128
O3	O	-0.085441	-1.096748	-0.006227
O4	O	-0.085461	-1.082532	0.262247
O5	O	0.085693	-1.096733	-0.006235
O6	O	0.085667	-0.955387	0.135120
O7	O	0.085699	-1.223863	0.120884
Cu8	Cu	0.101309	-1.089624	0.128001
Cu9	Cu	-0.101077	-1.089641	0.128011
O10	O	0.085673	-1.082517	0.262239
C11	C	0.000096	-0.921035	0.134461
C12	C	0.000084	-0.818654	0.132473
C13	C	0.000126	-1.096075	-0.040591
C14	C	0.000127	-1.094079	-0.142971
N15	N	0.243656	-1.089618	0.127994
N16	N	-0.243424	-1.089654	0.128010
C17	C	0.663470	-1.089640	0.128012
C18	C	0.546665	-1.089631	0.128010
C19	C	0.453567	-1.089630	0.128004
C20	C	0.336754	-1.089620	0.128001
C21	C	0.000133	-1.258230	0.121551
C22	C	0.000138	-1.360612	0.123539
C23	C	0.000132	-0.443757	0.125153
C24	C	0.000118	-0.548065	0.127186
C25	C	0.000107	-0.631202	0.128813
C26	C	0.000095	-0.735517	0.130846
C27	C	0.000124	-1.092457	-0.226115
C28	C	0.000116	-1.090430	-0.330424
C29	C	0.000109	-1.088822	-0.413563
C30	C	0.000103	-1.086795	-0.517878
C31	C	0.000103	-1.083191	0.296603
C32	C	0.000096	-1.085187	0.398983
