data_functionalizedCrystal
_audit_creation_method	'MofGen! by Chris Wilmer'
_symmetry_space_group_name_H-M	'P1'
_symmetry_Int_Tables_number	1
_symmetry_cell_setting	triclinic
loop_
_symmetry_equiv_pos_as_xyz
  x,y,z
_cell_length_a	14.853567
_cell_length_b	14.853558
_cell_length_c	11.892095
_cell_angle_alpha	86.096156
_cell_angle_beta	86.107342
_cell_angle_gamma	96.366968
loop_
_atom_site_label
_atom_site_type_symbol
_atom_site_fract_x
_atom_site_fract_y
_atom_site_fract_z
O1	O	-0.111908	1.202127	-0.093994
O2	O	0.388092	1.702127	0.406006
O3	O	-0.125938	0.939666	-0.094000
O4	O	0.374062	1.439666	0.406000
O5	O	0.012306	1.077906	-0.093984
O6	O	0.512306	1.577906	0.406016
O7	O	-0.250152	1.063886	-0.094011
O8	O	0.249848	1.563886	0.405989
O9	O	0.000797	1.066380	0.094022
O10	O	0.500797	1.566380	0.594022
O11	O	-0.137447	0.928140	0.094006
O12	O	0.362553	1.428140	0.594006
O13	O	-0.123417	1.190600	0.094012
O14	O	0.376583	1.690600	0.594012
Zn15	Zn	-0.132259	1.057540	0.123859
Zn16	Zn	0.367741	1.557540	0.623859
Zn17	Zn	-0.117096	1.072726	-0.123847
Zn18	Zn	0.382904	1.572726	0.376153
O19	O	-0.261661	1.052360	0.093995
O20	O	0.238339	1.552360	0.593995
C21	C	-0.131058	0.900314	0.000002
C22	C	0.368942	1.400314	0.500002
C23	C	-0.129158	0.800230	0.000000
C24	C	0.370842	1.300230	0.500000
C25	C	-0.121993	0.759493	-0.102486
C26	C	0.378007	1.259493	0.397514
C27	C	-0.134529	0.746925	0.102486
C28	C	0.365471	1.246925	0.602486
C29	C	-0.132739	0.652892	0.102488
C30	C	0.367261	1.152892	0.602488
C31	C	-0.125574	0.612155	0.000001
C32	C	0.374426	1.112155	0.500001
C33	C	-0.120199	0.665451	-0.102487
C34	C	0.379801	1.165451	0.397513
C35	C	-0.138104	0.599589	0.204974
C36	C	0.361896	1.099589	0.704974
C37	C	-0.136313	0.505549	0.204980
C38	C	0.363687	1.005549	0.704980
C39	C	-0.129154	0.464810	0.102493
C40	C	0.370846	0.964810	0.602493
C41	C	-0.123781	0.518113	0.000000
C42	C	0.376219	1.018113	0.500000
C43	C	-0.116616	0.477376	-0.102486
C44	C	0.383384	0.977376	0.397514
C45	C	-0.111248	0.530676	-0.204980
C46	C	0.388752	1.030676	0.295020
C47	C	-0.113041	0.624712	-0.204975
C48	C	0.386959	1.124712	0.295025
C49	C	-0.127362	0.370774	0.102487
C50	C	0.372638	0.870774	0.602487
C51	C	-0.114822	0.383334	-0.102487
C52	C	0.385178	0.883334	0.397513
C53	C	-0.289495	1.058759	-0.000011
C54	C	0.210505	1.558759	0.499989
C55	C	-0.389578	1.060663	-0.000021
C56	C	0.110422	1.560663	0.499979
C57	C	-0.802112	1.150827	0.000022
C58	C	-0.302112	1.650827	0.500022
C59	C	-0.823398	0.986594	0.000017
C60	C	-0.323398	1.486594	0.500017
C61	C	-0.729364	0.984804	0.000006
C62	C	-0.229364	1.484804	0.500006
C63	C	-0.671699	1.066027	0.000005
C64	C	-0.171699	1.566027	0.500005
C65	C	-0.708069	1.149040	0.000014
C66	C	-0.208069	1.649040	0.500014
C67	C	-0.692987	0.901792	0.000008
C68	C	-0.192987	1.401792	0.500008
C69	C	-0.598948	0.900000	-0.000002
C70	C	-0.098948	1.400000	0.499998
C71	C	-0.541281	0.981224	-0.000011
C72	C	-0.041281	1.481224	0.499989
C73	C	-0.577656	1.064240	-0.000003
C74	C	-0.077656	1.564240	0.499997
C75	C	-0.519991	1.145463	-0.000004
C76	C	-0.019991	1.645463	0.499996
C77	C	-0.556364	1.228480	-0.000004
C78	C	-0.056364	1.728480	0.499996
C79	C	-0.650402	1.230264	0.000005
C80	C	-0.150402	1.730264	0.500005
C81	C	-0.447243	0.979440	-0.000020
C82	C	0.052757	1.479440	0.499980
C83	C	-0.425948	1.143676	-0.000012
C84	C	0.074052	1.643676	0.499988
C85	C	0.040140	1.071508	0.000020
C86	C	0.540140	1.571508	0.500020
C87	C	0.140224	1.069604	0.000023
C88	C	0.640224	1.569604	0.500023
C89	C	-0.118297	1.229952	0.000007
C90	C	0.381703	1.729952	0.500007
C91	C	-0.120197	1.330037	0.000001
C92	C	0.379803	1.830037	0.500001
N93	N	-0.142607	1.047183	0.292912
N94	N	0.357393	1.547183	0.792912
N95	N	-0.106741	1.083091	-0.292900
N96	N	0.393259	1.583091	0.207100
C97	C	-0.034683	1.155164	0.529572
C98	C	0.465317	1.655164	1.029572
C99	C	-0.041923	1.147931	0.647913
C100	C	0.458077	1.647931	1.147913
C101	C	-0.164321	1.025479	0.647937
C102	C	0.335679	1.525479	1.147937
C103	C	-0.157082	1.032712	0.529596
C104	C	0.342918	1.532712	1.029596
C105	C	-0.092261	1.097558	0.470418
C106	C	0.407739	1.597558	0.970418
C107	C	-0.085027	1.104795	0.352075
C108	C	0.414973	1.604795	0.852075
C109	C	-0.207420	0.982339	0.352100
C110	C	0.292580	1.482339	0.852100
C111	C	-0.214660	0.975106	0.470441
C112	C	0.285340	1.475106	0.970441
H113	H	-0.143929	0.632765	0.288413
H114	H	0.356071	1.132765	0.788413
H115	H	0.018090	1.207971	0.481389
H116	H	0.518090	1.707971	0.981389
H117	H	-0.417633	0.911848	-0.000003
H118	H	0.082367	1.411848	0.499997
F119	F	0.019362	1.209242	0.710866
F120	F	0.519362	1.709242	1.210866
F121	F	-0.107320	0.681444	-0.314046
F122	F	0.392680	1.181444	0.185954
F123	F	-0.107203	0.339985	-0.211570
F124	F	0.392797	0.839985	0.288430
H125	H	-0.117626	0.802894	-0.185934
H126	H	0.382374	1.302894	0.314066
F127	F	-0.364583	1.230127	-0.000021
F128	F	0.135417	1.730127	0.499979
H129	H	-0.870354	0.920465	0.000025
H130	H	-0.370354	1.420465	0.500025
F131	F	-0.142152	0.790284	0.211552
F132	F	0.357848	1.290284	0.711552
H133	H	-0.509401	1.294611	0.000002
H134	H	-0.009401	1.794611	0.500002
F135	F	-0.142034	0.448831	0.314061
F136	F	0.357966	0.948831	0.814061
H137	H	-0.131740	0.327380	0.185936
H138	H	0.368260	0.827380	0.685936
H139	H	-0.680027	1.297851	0.000035
H140	H	-0.180027	1.797851	0.500035
H141	H	-0.831730	1.218418	0.000017
H142	H	-0.331730	1.718418	0.500017
F143	F	-0.754362	0.815355	0.000013
F144	F	-0.254362	1.315355	0.500013
F145	F	-0.560245	0.811647	-0.000007
F146	F	-0.060245	1.311647	0.499993
H147	H	-0.032249	1.157598	0.303893
H148	H	0.467751	1.657598	0.803893
H149	H	-0.217091	0.972677	0.696135
H150	H	0.282909	1.472677	1.196135
F151	F	-0.283641	0.906093	0.533433
F152	F	0.216359	1.406093	1.033433
H153	H	-0.105409	0.497496	-0.288424
H154	H	0.394591	0.997496	0.211576
F155	F	-0.268706	0.921032	0.289132
F156	F	0.231294	1.421032	0.789132
