data_functionalizedCrystal
_audit_creation_method	'MofGen! by Chris Wilmer'
_symmetry_space_group_name_H-M	'P1'
_symmetry_Int_Tables_number	1
_symmetry_cell_setting	triclinic
loop_
_symmetry_equiv_pos_as_xyz
  x,y,z
_cell_length_a	9.565339
_cell_length_b	14.519709
_cell_length_c	14.519709
_cell_angle_alpha	96.319855
_cell_angle_beta	90.000716
_cell_angle_gamma	90.002055
loop_
_atom_site_label
_atom_site_type_symbol
_atom_site_fract_x
_atom_site_fract_y
_atom_site_fract_z
O1	O	0.116081	-1.223867	0.120885
O2	O	0.116124	-0.955390	0.135121
O3	O	0.116089	-1.096747	-0.006236
O4	O	0.116116	-1.082510	0.262241
O5	O	-0.116431	-1.096736	-0.006227
O6	O	-0.116396	-0.955379	0.135130
O7	O	-0.116439	-1.223856	0.120893
Zn8	Zn	-0.153335	-1.089616	0.128013
Zn9	Zn	0.153020	-1.089630	0.128001
O10	O	-0.116404	-1.082499	0.262250
C11	C	-0.000131	-0.921025	0.134462
C12	C	-0.000115	-0.818643	0.132474
N13	N	-0.362415	-1.089612	0.128020
C14	C	-0.000171	-1.096078	-0.040591
C15	C	-0.000172	-1.094090	-0.142972
C16	C	-0.453601	-1.024220	0.193372
C17	C	-0.546792	-1.107587	0.211404
C18	C	-0.546780	-1.006281	0.109995
C19	C	-0.453553	-1.173021	0.146094
C20	C	-0.453533	-1.071661	0.044649
C21	C	-0.546681	-1.155088	0.062646
N22	N	0.362099	-1.089641	0.127987
C23	C	-0.000181	-1.258221	0.121553
C24	C	-0.000188	-1.360602	0.123541
C25	C	-0.000179	-0.443748	0.125154
C26	C	-0.000161	-0.548056	0.127187
C27	C	-0.000145	-0.631192	0.128814
C28	C	-0.000130	-0.735507	0.130847
C29	C	-0.000134	-1.086770	-0.517868
C30	C	-0.000145	-1.088803	-0.413560
C31	C	-0.000154	-1.090430	-0.330423
C32	C	-0.000163	-1.092463	-0.226109
C33	C	-0.000141	-1.083168	0.296606
C34	C	-0.000131	-1.085156	0.398987
H35	H	-0.412733	-0.968970	0.248688
H36	H	-0.412775	-1.243520	0.161410
C37	C	-0.554208	-1.316999	0.007103
C38	C	-0.601526	-1.229835	-0.011981
H39	H	-0.588078	-1.363145	-0.038963
H40	H	-0.454916	-1.317723	0.007048
H41	H	-0.587561	-1.329250	0.066165
H42	H	-0.568164	-1.217581	-0.071040
H43	H	-0.700839	-1.229109	-0.011935
C44	C	-0.445148	-0.963744	-0.069196
C45	C	-0.398172	-1.051104	-0.050477
H46	H	-0.410959	-0.951044	-0.127920
H47	H	-0.544436	-0.963044	-0.069735
H48	H	-0.411884	-0.917894	-0.022633
H49	H	-0.431444	-1.096954	-0.097037
H50	H	-0.298863	-1.051811	-0.049945
C51	C	-0.555055	-0.842757	0.157964
C52	C	-0.602052	-0.911133	0.089420
H53	H	-0.589167	-0.784016	0.145262
H54	H	-0.588367	-0.855966	0.216721
H55	H	-0.455753	-0.841910	0.158384
H56	H	-0.701354	-0.911985	0.089005
H57	H	-0.568746	-0.897921	0.030649
H58	H	-0.587755	-1.122789	0.281894
