data_functionalizedCrystal
_audit_creation_method	'MofGen! by Chris Wilmer'
_symmetry_space_group_name_H-M	'P1'
_symmetry_Int_Tables_number	1
_symmetry_cell_setting	triclinic
loop_
_symmetry_equiv_pos_as_xyz
  x,y,z
_cell_length_a	16.120490
_cell_length_b	16.120256
_cell_length_c	16.625546
_cell_angle_alpha	92.872129
_cell_angle_beta	87.114737
_cell_angle_gamma	90.129807
loop_
_atom_site_label
_atom_site_type_symbol
_atom_site_fract_x
_atom_site_fract_y
_atom_site_fract_z
Zn1	Zn	1.247455	-0.534520	-0.408579
Zn2	Zn	1.580788	-0.201187	-0.075246
Zn3	Zn	1.914122	0.132146	0.258088
Zn4	Zn	1.254409	-0.395457	-0.536934
Zn5	Zn	1.587742	-0.062123	-0.203600
Zn6	Zn	1.921075	0.271210	0.129733
Zn7	Zn	1.115444	-0.388441	-0.394943
Zn8	Zn	1.448778	-0.055108	-0.061609
Zn9	Zn	1.782111	0.278225	0.271724
Zn10	Zn	1.108364	-0.527430	-0.536187
Zn11	Zn	1.441697	-0.194097	-0.202854
Zn12	Zn	1.775031	0.139236	0.130479
O13	O	1.181418	-0.461462	-0.469161
O14	O	1.514751	-0.128129	-0.135827
O15	O	1.848085	0.205204	0.197506
O16	O	1.364744	-0.521976	-0.431625
O17	O	1.698078	-0.188643	-0.098292
O18	O	2.031411	0.144690	0.235042
O19	O	1.241848	-0.278160	-0.512704
O20	O	1.575181	0.055173	-0.179371
O21	O	1.908515	0.388506	0.153963
O22	O	1.133009	-0.407850	-0.283923
O23	O	1.466342	-0.074517	0.049410
O24	O	1.799676	0.258816	0.382743
O25	O	1.369853	-0.419807	-0.525926
O26	O	1.703186	-0.086474	-0.192593
O27	O	2.036520	0.246860	0.140740
O28	O	1.229997	-0.515174	-0.293942
O29	O	1.563330	-0.181841	0.039391
O30	O	1.896663	0.151493	0.372725
O31	O	1.139752	-0.273006	-0.408384
O32	O	1.473085	0.060327	-0.075050
O33	O	1.806418	0.393660	0.258283
O34	O	0.998138	-0.400975	-0.407660
O35	O	1.331472	-0.067642	-0.074327
O36	O	1.664805	0.265691	0.259007
O37	O	1.120942	-0.644737	-0.524654
O38	O	1.454275	-0.311403	-0.191321
O39	O	1.787608	0.021930	0.142012
O40	O	0.992936	-0.503090	-0.511432
O41	O	1.326270	-0.169757	-0.178099
O42	O	1.659603	0.163577	0.155235
O43	O	1.223131	-0.649946	-0.430901
O44	O	1.556464	-0.316612	-0.097568
O45	O	1.889798	0.016721	0.235765
O46	O	1.234982	-0.412932	-0.649663
O47	O	1.568316	-0.079599	-0.316330
O48	O	1.901649	0.253735	0.017004
O49	O	1.127684	-0.509892	-0.649115
O50	O	1.461017	-0.176559	-0.315781
O51	O	1.794351	0.156774	0.017552
C52	C	0.965365	-0.450502	-0.457986
C53	C	1.298698	-0.117169	-0.124652
C54	C	1.632031	0.216164	0.208681
C55	C	0.872935	-0.445834	-0.453225
C56	C	1.206268	-0.112500	-0.119892
C57	C	1.539602	0.220833	0.213441
C58	C	0.659974	-0.485682	-0.493847
C59	C	0.993307	-0.152348	-0.160514
C60	C	1.326640	0.180985	0.172819
C61	C	0.703710	-0.437308	-0.444542
C62	C	1.037043	-0.103975	-0.111208
C63	C	1.370377	0.229358	0.222125
C64	C	0.797875	-0.442053	-0.449375
C65	C	1.131209	-0.108720	-0.116041
C66	C	1.464542	0.224613	0.217292
C67	C	0.565800	-0.480938	-0.489015
C68	C	0.899133	-0.147605	-0.155682
C69	C	1.232466	0.185729	0.177651
C70	C	1.170471	-0.678357	-0.479216
C71	C	1.503804	-0.345024	-0.145882
C72	C	1.837138	-0.011690	0.187451
C73	C	1.165806	-0.770785	-0.483500
C74	C	1.499139	-0.437451	-0.150167
C75	C	1.832472	-0.104118	0.183166
C76	C	1.205744	-0.983769	-0.446795
C77	C	1.539077	-0.650436	-0.113462
C78	C	1.872411	-0.317103	0.219871
C79	C	1.157261	-0.940005	-0.491289
C80	C	1.490594	-0.606671	-0.157955
C81	C	1.823928	-0.273338	0.175378
C82	C	1.162017	-0.845842	-0.486954
C83	C	1.495350	-0.512509	-0.153621
C84	C	1.828683	-0.179175	0.179713
C85	C	1.200989	-1.077941	-0.451129
C86	C	1.534323	-0.744607	-0.117796
C87	C	1.867656	-0.411274	0.215538
C88	C	1.398315	-0.472465	-0.480380
C89	C	1.731648	-0.139132	-0.147047
C90	C	2.064982	0.194202	0.186287
C91	C	1.490744	-0.477154	-0.485161
C92	C	1.824077	-0.143821	-0.151828
C93	C	2.157410	0.189513	0.181506
C94	C	1.181341	-0.461423	-0.678646
C95	C	1.514674	-0.128090	-0.345313
C96	C	1.848008	0.205243	-0.011979
C97	C	1.181383	-0.461438	-0.768270
C98	C	1.514716	-0.128105	-0.434937
C99	C	1.848050	0.205228	-0.101603
C100	C	1.192370	-0.245413	-0.459089
C101	C	1.525704	0.087920	-0.125756
C102	C	1.859037	0.421253	0.207577
C103	C	1.197197	-0.152994	-0.454586
C104	C	1.530530	0.180339	-0.121252
C105	C	1.863863	0.513672	0.212081
C106	C	1.181524	-0.461532	-1.096457
C107	C	1.514857	-0.128199	-0.763124
C108	C	1.848190	0.205134	-0.429790
C109	C	1.181482	-0.461508	-1.005145
C110	C	1.514815	-0.128175	-0.671812
C111	C	1.848148	0.205158	-0.338479
C112	C	1.181453	-0.461485	-0.932366
C113	C	1.514786	-0.128152	-0.599033
C114	C	1.848119	0.205182	-0.265700
C115	C	1.181412	-0.461462	-0.841049
C116	C	1.514745	-0.128129	-0.507716
C117	C	1.848079	0.205205	-0.174382
C118	C	1.181517	-0.461520	-0.258860
C119	C	1.514850	-0.128187	0.074474
C120	C	1.848184	0.205146	0.407807
C121	C	1.181559	-0.461545	-0.169242
C122	C	1.514892	-0.128212	0.164092
C123	C	1.848226	0.205121	0.497425
H124	H	0.693249	-0.530655	-0.539686
H125	H	1.026582	-0.197322	-0.206353
H126	H	1.359915	0.136012	0.126981
H127	H	1.112177	-0.973255	-0.532631
H128	H	1.445510	-0.639922	-0.199298
H129	H	1.778843	-0.306588	0.134036
C130	C	1.247665	-0.958888	-0.311148
C131	C	1.580998	-0.625555	0.022186
C132	C	1.914332	-0.292221	0.355519
C133	C	1.266602	-0.938887	-0.390986
C134	C	1.599935	-0.605554	-0.057653
C135	C	1.933268	-0.272221	0.275681
H136	H	1.285235	-0.931167	-0.276697
H137	H	1.618568	-0.597834	0.056636
H138	H	1.951901	-0.264500	0.389970
H139	H	1.252420	-1.017188	-0.306775
H140	H	1.585753	-0.683855	0.026559
H141	H	1.919086	-0.350522	0.359892
H142	H	1.192500	-0.941858	-0.295823
H143	H	1.525833	-0.608525	0.037511
H144	H	1.859167	-0.275191	0.370844
H145	H	1.321765	-0.955923	-0.406313
H146	H	1.655098	-0.622589	-0.072980
H147	H	1.988432	-0.289256	0.260354
H148	H	1.261855	-0.880574	-0.395362
H149	H	1.595188	-0.547241	-0.062029
H150	H	1.928521	-0.213907	0.271304
C151	C	0.572854	-0.383530	-0.389830
C152	C	0.906188	-0.050197	-0.056497
C153	C	1.239521	0.283136	0.276836
C154	C	0.658796	-0.376554	-0.382687
C155	C	0.992129	-0.043221	-0.049353
C156	C	1.325463	0.290113	0.283980
H157	H	0.545126	-0.346011	-0.351657
H158	H	0.878460	-0.012678	-0.018324
H159	H	1.211793	0.320656	0.315009
H160	H	0.555852	-0.438705	-0.379957
H161	H	0.889186	-0.105372	-0.046624
H162	H	1.222519	0.227961	0.286709
H163	H	0.559300	-0.370592	-0.442721
H164	H	0.892633	-0.037258	-0.109387
H165	H	1.225966	0.296075	0.223946
H166	H	0.672351	-0.389499	-0.329798
H167	H	1.005685	-0.056166	0.003536
H168	H	1.339018	0.277168	0.336869
H169	H	0.675804	-0.321367	-0.392554
H170	H	1.009138	0.011967	-0.059221
H171	H	1.342471	0.345300	0.274113
