data_functionalizedCrystal
_audit_creation_method	'MofGen! by Chris Wilmer'
_symmetry_space_group_name_H-M	'P1'
_symmetry_Int_Tables_number	1
_symmetry_cell_setting	triclinic
loop_
_symmetry_equiv_pos_as_xyz
  x,y,z
_cell_length_a	16.109318
_cell_length_b	14.971486
_cell_length_c	14.048226
_cell_angle_alpha	90.002889
_cell_angle_beta	89.998889
_cell_angle_gamma	96.458654
loop_
_atom_site_label
_atom_site_type_symbol
_atom_site_fract_x
_atom_site_fract_y
_atom_site_fract_z
O1	O	1.103267	-0.115043	-0.079082
O2	O	0.861225	-0.129334	-0.079101
O3	O	0.988733	0.008021	-0.079084
O4	O	0.975758	-0.252397	-0.079099
O5	O	0.988721	0.008019	0.079237
O6	O	0.861212	-0.129335	0.079220
O7	O	1.103255	-0.115044	0.079239
Zn8	Zn	0.982232	-0.122190	0.104367
Zn9	Zn	0.982248	-0.122188	-0.104228
O10	O	0.975746	-0.252399	0.079223
C11	C	0.830243	-0.128753	0.000057
C12	C	0.737946	-0.127009	0.000050
C13	C	0.438872	-0.121377	-0.086234
C14	C	0.525596	-0.123009	-0.086240
C15	C	0.525601	-0.122998	0.086371
C16	C	0.438880	-0.121360	0.086376
C17	C	0.395517	-0.120553	0.000070
C18	C	0.568962	-0.123825	0.000060
C19	C	0.662991	-0.125595	0.000054
C20	C	0.301482	-0.118781	0.000076
C21	C	0.988147	0.041344	0.000076
C22	C	0.986408	0.140639	0.000075
C23	C	1.134236	-0.115625	0.000079
C24	C	1.226533	-0.117369	0.000080
C25	C	0.976332	-0.285722	0.000060
C26	C	0.978071	-0.385017	0.000055
N27	N	0.982227	-0.122190	0.246727
C28	C	1.061316	0.197967	0.000082
C29	C	1.059677	0.291264	0.000072
C30	C	0.983129	0.327231	0.000063
C31	C	0.908216	0.269895	0.000053
C32	C	0.909856	0.176600	0.000056
C33	C	0.904804	0.464353	0.000049
C34	C	0.903164	0.557655	0.000048
C35	C	1.054625	0.579017	0.000065
C36	C	1.056265	0.485722	0.000068
C37	C	0.981351	0.428393	0.000061
N38	N	0.982259	-0.122181	-0.246589
C39	C	0.931785	-0.067910	0.703594
C40	C	0.931782	-0.067907	0.603936
C41	C	0.982249	-0.122181	0.554097
C42	C	1.032729	-0.176454	0.603921
C43	C	1.032736	-0.176451	0.703577
C44	C	1.032709	-0.176457	0.396207
C45	C	1.032701	-0.176461	0.296545
C46	C	0.931755	-0.067913	0.296566
C47	C	0.931762	-0.067910	0.396222
C48	C	0.982241	-0.122185	0.446039
H49	H	1.123649	0.168691	0.000095
H50	H	0.403580	-0.120688	0.156659
C51	C	0.822400	0.401287	0.000041
C52	C	0.759702	0.405294	-0.082174
C53	C	0.677301	0.342227	-0.082177
C54	C	0.657598	0.275154	0.000034
C55	C	0.720297	0.271145	0.082256
C56	C	0.802698	0.334212	0.082259
H57	H	0.774286	0.454948	-0.143037
H58	H	0.630887	0.345195	-0.143043
H59	H	0.596600	0.228468	0.000032
H60	H	0.705713	0.221491	0.143119
H61	H	0.849112	0.331243	0.143125
H62	H	0.845890	0.299187	0.000039
C63	C	1.142079	0.354322	0.000082
C64	C	1.204768	0.350313	0.082306
C65	C	1.287175	0.413369	0.082314
C66	C	1.306894	0.480434	0.000099
C67	C	1.244203	0.484446	-0.082131
C68	C	1.161796	0.421390	-0.082139
H69	H	1.190173	0.300664	0.143172
H70	H	1.333583	0.410398	0.143186
H71	H	1.367897	0.527112	0.000105
H72	H	1.258798	0.534095	-0.142997
H73	H	1.115388	0.424361	-0.143011
H74	H	0.560891	-0.123679	-0.156518
H75	H	0.840832	0.586936	0.000056
H76	H	0.890663	-0.023720	0.436798
C77	C	0.876257	-0.008213	0.549132
C78	C	0.808579	-0.051208	0.480622
C79	C	0.753054	0.008489	0.425816
C80	C	0.765206	0.111181	0.439521
C81	C	0.832887	0.154181	0.508035
C82	C	0.888413	0.094484	0.562841
H83	H	0.799581	-0.127231	0.470474
H84	H	0.702952	-0.023343	0.375098
H85	H	0.724103	0.155372	0.398951
H86	H	0.841886	0.230204	0.518183
H87	H	0.938515	0.126316	0.613559
H88	H	0.560918	-0.123657	0.156637
C89	C	1.137034	0.642073	0.000071
C90	C	1.156726	0.709157	0.082281
C91	C	1.239132	0.772215	0.082293
C92	C	1.301846	0.768189	0.000095
C93	C	1.282156	0.701102	-0.082122
C94	C	1.199750	0.638044	-0.082134
H95	H	1.110299	0.712140	0.143135
H96	H	1.253708	0.821877	0.143156
H97	H	1.362848	0.814868	0.000104
H98	H	1.328583	0.698119	-0.142975
H99	H	1.185174	0.588382	-0.142996
H100	H	0.890684	-0.023718	0.744165
C101	C	1.088223	-0.236149	0.241714
C102	C	1.183662	-0.222988	0.255394
C103	C	1.239186	-0.282672	0.200560
C104	C	1.199272	-0.355517	0.132047
C105	C	1.103827	-0.368681	0.118364
C106	C	1.048303	-0.308997	0.173198
H107	H	1.213214	-0.169061	0.306114
H108	H	1.309841	-0.272927	0.210690
H109	H	1.240374	-0.399699	0.091456
H110	H	1.074276	-0.422608	0.067644
H111	H	0.977649	-0.318742	0.163068
C112	C	0.876232	-0.008204	0.241772
C113	C	0.876225	-0.008195	0.132155
C114	C	0.820701	0.051508	0.077356
C115	C	0.765184	0.111203	0.132175
C116	C	0.765188	0.111197	0.241799
C117	C	0.820712	0.051493	0.296597
H118	H	0.917324	-0.052387	0.091569
H119	H	0.820698	0.051512	-0.003795
H120	H	0.724082	0.155399	0.091610
H121	H	0.724089	0.155388	0.282385
H122	H	0.820715	0.051489	0.377748
C123	C	1.088230	-0.236161	0.451014
C124	C	1.183667	-0.223034	0.437309
C125	C	1.239181	-0.282740	0.492119
C126	C	1.199257	-0.355575	0.560633
C127	C	1.103815	-0.368706	0.574340
C128	C	1.048302	-0.308999	0.519530
H129	H	1.213226	-0.169115	0.386589
H130	H	1.309834	-0.273019	0.481972
H131	H	1.240352	-0.399773	0.601206
H132	H	1.074257	-0.422625	0.625061
H133	H	0.977649	-0.318720	0.529678
H134	H	0.403569	-0.120719	-0.156509
H135	H	1.118596	0.456441	0.000083
H136	H	0.848858	0.129923	0.000050
H137	H	1.073824	-0.220640	0.563335
H138	H	1.073837	-0.220644	0.744137
