data_functionalizedCrystal
_audit_creation_method	'MofGen! by Chris Wilmer'
_symmetry_space_group_name_H-M	'P1'
_symmetry_Int_Tables_number	1
_symmetry_cell_setting	triclinic
loop_
_symmetry_equiv_pos_as_xyz
  x,y,z
_cell_length_a	14.908183
_cell_length_b	25.639243
_cell_length_c	14.908308
_cell_angle_alpha	93.275293
_cell_angle_beta	89.779152
_cell_angle_gamma	93.317124
loop_
_atom_site_label
_atom_site_type_symbol
_atom_site_fract_x
_atom_site_fract_y
_atom_site_fract_z
Zn1	Zn	-0.387260	0.770059	-0.487792
Zn2	Zn	-0.528969	0.770586	-0.328755
Zn3	Zn	-0.378625	0.687945	-0.337443
Zn4	Zn	-0.537593	0.677876	-0.479058
O5	O	-0.458112	0.726616	-0.408262
O6	O	-0.406063	0.843293	-0.466715
O7	O	-0.501804	0.764057	-0.204083
O8	O	-0.253936	0.702831	-0.364678
O9	O	-0.510176	0.843680	-0.349871
O10	O	-0.260280	0.763160	-0.475139
O11	O	-0.391347	0.703342	-0.210466
O12	O	-0.399708	0.613445	-0.356209
O13	O	-0.524873	0.685670	-0.606040
O14	O	-0.516500	0.606047	-0.460253
O15	O	-0.414424	0.753396	-0.612457
O16	O	-0.655948	0.754294	-0.341402
O17	O	-0.662283	0.686180	-0.451829
C18	C	-0.458104	0.590775	-0.408226
C19	C	-0.458123	0.532660	-0.408231
C20	C	-0.691744	0.719215	-0.394744
C21	C	-0.791694	0.716096	-0.388991
C22	C	-0.403996	0.172083	-0.469193
C23	C	-0.403995	0.117479	-0.469199
O24	O	-0.357955	0.089062	-0.520987
N25	N	-0.458111	0.090376	-0.408287
C26	C	-0.512223	0.117882	-0.347359
O27	O	-0.558252	0.089815	-0.295548
C28	C	-0.512218	0.172486	-0.347350
C29	C	-0.458106	0.199585	-0.408272
C30	C	-0.349887	0.199183	-0.530110
C31	C	-0.349889	0.253783	-0.530105
C32	C	-0.404000	0.281285	-0.469184
C33	C	-0.458108	0.254185	-0.408267
C34	C	-0.566325	0.199990	-0.286418
C35	C	-0.566315	0.254598	-0.286414
C36	C	-0.512203	0.281697	-0.347336
C37	C	-0.512220	0.336287	-0.347341
N38	N	-0.458105	0.363390	-0.408253
C39	C	-0.403995	0.335888	-0.469174
C40	C	-0.512228	0.003210	-0.347382
C41	C	-0.512239	-0.051393	-0.347394
C42	C	-0.404009	-0.051792	-0.469233
C43	C	-0.404004	0.002812	-0.469224
C44	C	-0.458113	0.030313	-0.408294
C45	C	-0.404003	0.450554	-0.469160
C46	C	-0.404013	0.505159	-0.469153
C47	C	-0.512238	0.505553	-0.347311
C48	C	-0.512232	0.450953	-0.347321
C49	C	-0.458108	0.423454	-0.408250
O50	O	-0.558234	0.364739	-0.295577
O51	O	-0.357965	0.363962	-0.520968
C52	C	-0.929340	0.680318	-0.323325
C53	C	-0.835427	0.683247	-0.328728
C54	C	-0.841881	0.746016	-0.443857
C55	C	-0.935794	0.743087	-0.438454
C56	C	-0.979519	0.710238	-0.378185
C57	C	-1.073433	0.707312	-0.372777
C58	C	-1.079886	0.770077	-0.487910
C59	C	-0.985973	0.773006	-0.493314
C60	C	-0.223568	0.734060	-0.421852
C61	C	-0.123620	0.737232	-0.427643
C62	C	-0.471573	0.718351	-0.642786
C63	C	-0.477310	0.714829	-0.742726
C64	C	-0.458121	0.862988	-0.408298
C65	C	-0.458124	0.921101	-0.408313
C66	C	-0.373058	0.778733	-0.937209
C67	C	-0.378445	0.775426	-1.031112
C68	C	-0.493466	0.704904	-1.024437
C69	C	-0.488079	0.708212	-0.930534
C70	C	-0.427874	0.745128	-0.886923
C71	C	-0.422492	0.748438	-0.793018
C72	C	-0.537507	0.677914	-0.786345
C73	C	-0.542894	0.674606	-0.880248
C74	C	-0.444638	0.734881	-0.174654
C75	C	-0.438648	0.738513	-0.074729
H76	H	-0.359927	0.428171	-0.518771
H77	H	-0.359940	0.024873	-0.518831
H78	H	-0.610376	0.276986	-0.236795
O79	O	-0.319329	0.811674	-1.085353
H80	H	-0.276568	0.837901	-1.039248
O81	O	-0.558388	0.665087	-1.071487
H82	H	-0.595598	0.642270	-1.020747
H83	H	-0.794573	0.658883	-0.284057
O84	O	-0.357563	0.788253	-0.745974
H85	H	-0.288022	0.780885	-0.768074
H86	H	-0.806267	0.772757	-0.492933
O87	O	-0.570596	0.421719	-0.281618
H88	H	-0.608219	0.450018	-0.239252
H89	H	-0.964942	0.653574	-0.274247
H90	H	-0.556295	0.527955	-0.297712
O91	O	-0.345646	0.534388	-0.534863
H92	H	-0.297533	0.562132	-0.497342
H93	H	-0.556298	0.025598	-0.297767
O94	O	-0.938806	0.808436	-0.558312
H95	H	-0.955896	0.849458	-0.541921
O96	O	-0.607826	0.634792	-0.927290
H97	H	-0.591367	0.594882	-0.910153
H98	H	-0.556313	-0.073453	-0.297795
O99	O	-0.624686	0.170769	-0.220707
H100	H	-0.581744	0.148773	-0.177368
H101	H	-1.109034	0.680565	-0.323702
O102	O	-1.134006	0.802349	-0.547091
H103	H	-1.206656	0.794792	-0.533215
O104	O	-0.308131	0.818549	-0.890162
H105	H	-0.270917	0.841361	-0.940906
H106	H	-0.582145	0.650551	-0.745392
H107	H	-0.305824	0.275843	-0.579713
H108	H	-0.359947	-0.074193	-0.518837
O109	O	-0.291524	0.169524	-0.595825
H110	H	-0.253908	0.197550	-0.638179
