data_functionalizedCrystal
_audit_creation_method	'MofGen! by Chris Wilmer'
_symmetry_space_group_name_H-M	'P1'
_symmetry_Int_Tables_number	1
_symmetry_cell_setting	triclinic
loop_
_symmetry_equiv_pos_as_xyz
  x,y,z
_cell_length_a	23.532361
_cell_length_b	23.532357
_cell_length_c	9.198806
_cell_angle_alpha	89.991292
_cell_angle_beta	90.000346
_cell_angle_gamma	82.828980
loop_
_atom_site_label
_atom_site_type_symbol
_atom_site_fract_x
_atom_site_fract_y
_atom_site_fract_z
O1	O	0.755264	0.069009	-0.120764
O2	O	0.589395	0.079040	-0.120801
O3	O	0.677346	-0.008910	-0.120752
O4	O	0.667313	0.156959	-0.120814
O5	O	0.677339	-0.008910	0.121033
O6	O	0.589388	0.079040	0.120984
O7	O	0.755257	0.069009	0.121021
Cu8	Cu	0.672322	0.074024	0.143079
Cu9	Cu	0.672330	0.074025	-0.142860
O10	O	0.667306	0.156959	0.120971
C11	C	0.568175	0.078789	0.000087
C12	C	0.504957	0.078034	0.000074
C13	C	0.677092	-0.030127	0.000145
C14	C	0.676337	-0.093345	0.000159
C15	C	0.231717	0.074730	-0.131713
C16	C	0.291117	0.075445	-0.131717
O17	O	0.321846	0.075795	-0.243803
N18	N	0.320819	0.075806	0.000080
C19	C	0.291119	0.075446	0.131890
O20	O	0.321837	0.075819	0.243994
C21	C	0.231721	0.074727	0.131893
C22	C	0.202021	0.074372	0.000087
C23	C	0.202018	0.074374	-0.263508
C24	C	0.142622	0.073660	-0.263504
C25	C	0.112926	0.073302	-0.131704
C26	C	0.142626	0.073658	0.000091
C27	C	0.202022	0.074364	0.263701
C28	C	0.142620	0.073644	0.263692
C29	C	0.112921	0.073289	0.131886
C30	C	0.053534	0.072587	0.131895
N31	N	0.023832	0.072225	0.000098
C32	C	0.053528	0.072583	-0.131702
C33	C	0.415859	0.076955	0.131875
C34	C	0.475255	0.077679	0.131875
C35	C	0.475249	0.077676	-0.131733
C36	C	0.415851	0.076957	-0.131731
C37	C	0.386157	0.076594	0.000078
C38	C	-0.071207	0.071085	-0.131683
C39	C	-0.130608	0.070373	-0.131667
C40	C	-0.130597	0.070373	0.131940
C41	C	-0.071201	0.071087	0.131925
C42	C	-0.041508	0.071441	0.000102
O43	O	0.022767	0.072234	0.243924
O44	O	0.022804	0.072204	-0.243787
C45	C	0.671604	-0.485355	-0.131718
C46	C	0.670887	-0.544755	-0.131726
O47	O	0.670500	-0.575471	-0.243815
N48	N	0.670527	-0.574466	0.000069
C49	C	0.670879	-0.544774	0.131881
O50	O	0.670507	-0.575500	0.243982
C51	C	0.671593	-0.485375	0.131888
C52	C	0.671958	-0.455668	0.000084
C53	C	0.671969	-0.455648	-0.263511
C54	C	0.672687	-0.396253	-0.263502
C55	C	0.673041	-0.366565	-0.131700
C56	C	0.672676	-0.396273	0.000093
C57	C	0.671941	-0.455684	0.263699
C58	C	0.672653	-0.396281	0.263694
C59	C	0.673019	-0.366574	0.131891
C60	C	0.673748	-0.307190	0.131904
N61	N	0.674108	-0.277479	0.000109
C62	C	0.673754	-0.307167	-0.131693
C63	C	0.669381	-0.669515	0.131856
C64	C	0.668672	-0.728914	0.131851
C65	C	0.668678	-0.728890	-0.131757
C66	C	0.669391	-0.669491	-0.131750
C67	C	0.669740	-0.639804	0.000061
C68	C	0.675263	-0.182433	-0.131664
C69	C	0.675984	-0.123033	-0.131643
C70	C	0.675974	-0.123061	0.131964
C71	C	0.675256	-0.182456	0.131944
C72	C	0.674899	-0.212140	0.000118
O73	O	0.674133	-0.276436	0.243935
O74	O	0.674119	-0.276432	-0.243775
C75	C	0.776477	0.069260	0.000130
C76	C	0.839695	0.070015	0.000133
C77	C	0.667560	0.178176	0.000071
C78	C	0.668315	0.241394	0.000048
N79	N	0.672320	0.074024	0.344193
N80	N	0.672336	0.074021	-0.343974
C81	C	0.709251	0.036936	0.416411
C82	C	0.709260	0.036933	0.583823
H83	H	-0.154787	0.070086	-0.239004
Cl84	Cl	0.105295	0.073208	-0.429213
Cl85	Cl	0.757931	-0.012215	0.320528
Cl86	Cl	0.669825	-0.632201	0.297579
H87	H	0.740880	0.005183	0.645928
Cl88	Cl	0.378533	0.076508	0.297596
Cl89	Cl	-0.167941	0.069924	0.297622
Cl90	Cl	0.239344	0.074810	0.429411
H91	H	0.499439	0.077967	-0.239052
H92	H	0.640719	0.105777	0.593932
H93	H	-0.047020	0.071388	0.239252
Cl94	Cl	0.105294	0.073185	0.429406
Cl95	Cl	0.623510	0.123045	0.440076
H96	H	0.674964	-0.206646	0.239269
H97	H	-0.047038	0.071374	-0.239026
H98	H	0.676282	-0.098848	-0.238978
Cl99	Cl	0.668229	-0.766222	-0.297453
H100	H	0.226190	0.074664	-0.370842
H101	H	0.668383	-0.753098	0.239179
Cl102	Cl	0.671478	-0.493015	0.429406
H103	H	0.674969	-0.206594	-0.239009
Cl104	Cl	0.676419	-0.085728	0.297649
Cl105	Cl	0.512583	0.078137	0.297581
Cl106	Cl	0.378521	0.076509	-0.297436
H107	H	0.672929	-0.372111	0.371034
H108	H	0.672982	-0.372070	-0.370830
H109	H	0.671679	-0.479813	-0.370846
Cl110	Cl	0.669848	-0.632151	-0.297452
