data_functionalizedCrystal
_audit_creation_method	'MofGen! by Chris Wilmer'
_symmetry_space_group_name_H-M	'P1'
_symmetry_Int_Tables_number	1
_symmetry_cell_setting	triclinic
loop_
_symmetry_equiv_pos_as_xyz
  x,y,z
_cell_length_a	12.759401
_cell_length_b	13.031981
_cell_length_c	13.032268
_cell_angle_alpha	89.068348
_cell_angle_beta	97.165299
_cell_angle_gamma	97.192388
loop_
_atom_site_label
_atom_site_type_symbol
_atom_site_fract_x
_atom_site_fract_y
_atom_site_fract_z
Zn1	Zn	1.476930	-0.483306	-0.529354
Zn2	Zn	1.482416	-0.633494	-0.335525
Zn3	Zn	1.325982	-0.461513	-0.357407
Zn4	Zn	1.282068	-0.655260	-0.507456
O5	O	1.391849	-0.558393	-0.432435
O6	O	1.624676	-0.503240	-0.503649
O7	O	1.482339	-0.592450	-0.194513
O8	O	1.362087	-0.320466	-0.398538
O9	O	1.628707	-0.613582	-0.361244
O10	O	1.472988	-0.336478	-0.524867
O11	O	1.367407	-0.466097	-0.210590
O12	O	1.173138	-0.487203	-0.377304
O13	O	1.287243	-0.650680	-0.654274
O14	O	1.140874	-0.629548	-0.487544
O15	O	1.430407	-0.524346	-0.670363
O16	O	1.439757	-0.780319	-0.340010
O17	O	1.292562	-0.796311	-0.466326
C18	C	1.118886	-0.558374	-0.432423
C19	C	1.002104	-0.558393	-0.432439
C20	C	0.945116	-0.501070	-0.506676
C21	C	0.835390	-0.501081	-0.506681
C22	C	0.839649	-0.615748	-0.358209
C23	C	0.949375	-0.615730	-0.358200
C24	C	1.362015	-0.825639	-0.398440
C25	C	1.349343	-0.939972	-0.383930
C26	C	1.398515	-0.998792	-0.440028
C27	C	1.385420	-1.116961	-0.425034
C28	C	1.665878	-0.558414	-0.432448
C29	C	1.782653	-0.558423	-0.432454
C30	C	1.353314	-0.592372	-0.700677
C31	C	1.336893	-0.606851	-0.814986
C32	C	1.421824	-0.290107	-0.466586
C33	C	1.434598	-0.175779	-0.481139
C34	C	1.400407	-0.550799	-0.873909
C35	C	1.383437	-0.565763	-0.992054
C36	C	1.430302	-0.524473	-0.165246
C37	C	1.446959	-0.509704	-0.050975
H38	H	0.796703	-0.662430	-0.297767
F39	F	1.534472	-0.432503	-1.002598
H40	H	1.333617	-1.154084	-0.365906
F41	F	1.281639	-0.988494	-0.306649
H42	H	1.316486	-0.624827	-1.029070
F43	F	1.001233	-0.440044	-0.585685
F44	F	1.249391	-0.684052	-0.863369
H45	H	0.995776	-0.662410	-0.297742
F46	F	1.466203	-0.950272	-0.517325
F47	F	1.502300	-1.127265	-0.558432
H48	H	0.788996	-0.454401	-0.567131
H49	H	1.467344	-0.491729	-0.836890
