data_functionalizedCrystal
_audit_creation_method	'MofGen! by Chris Wilmer'
_symmetry_space_group_name_H-M	'P1'
_symmetry_Int_Tables_number	1
_symmetry_cell_setting	triclinic
loop_
_symmetry_equiv_pos_as_xyz
  x,y,z
_cell_length_a	23.096457
_cell_length_b	12.970454
_cell_length_c	23.096457
_cell_angle_alpha	60.006769
_cell_angle_beta	90.011236
_cell_angle_gamma	59.998212
loop_
_atom_site_label
_atom_site_type_symbol
_atom_site_fract_x
_atom_site_fract_y
_atom_site_fract_z
Zr1	Zr	0.557758	1.128500	-0.075997
O2	O	0.465286	1.343597	-0.168446
O3	O	0.586106	0.913407	-0.047656
O4	O	0.586077	1.128501	-0.168448
O5	O	0.465337	1.128500	0.047628
O6	O	0.681359	1.128497	-0.168450
O7	O	0.465314	1.128503	-0.047654
O8	O	0.681411	0.743732	0.047624
O9	O	0.465286	1.513265	-0.168446
O10	O	0.669304	1.001873	-0.035571
O11	O	0.598213	1.001874	0.035538
O12	O	0.598179	1.255120	-0.106678
O13	O	0.527088	1.255121	-0.035569
Zr14	Zr	0.709758	1.128489	0.075964
Zr15	Zr	0.709722	1.128493	-0.076000
Zr16	Zr	0.557794	1.128495	0.075967
Zr17	Zr	0.557758	1.399100	-0.075998
Zr18	Zr	0.709758	0.857889	0.075964
O19	O	0.681411	1.343581	0.047623
O20	O	0.681359	1.343588	-0.168450
O21	O	0.465337	1.343591	0.047627
O22	O	0.802231	0.913391	0.168412
O23	O	0.802179	0.913398	-0.047661
O24	O	0.586157	0.913400	0.168417
O25	O	0.802179	1.128488	-0.047661
O26	O	0.681439	1.128487	0.168414
O27	O	0.586157	1.128491	0.168416
O28	O	0.802202	1.128486	0.047621
O29	O	0.586077	1.513259	-0.168449
O30	O	0.681439	0.743729	0.168415
O31	O	0.802231	0.743724	0.168413
O32	O	0.802202	0.743727	0.047622
O33	O	0.465314	1.513261	-0.047655
O34	O	0.586106	1.513256	-0.047658
O35	O	0.669338	1.001869	0.106645
O36	O	0.740429	1.001868	0.035535
O37	O	0.669304	1.255115	-0.035572
O38	O	0.598213	1.255115	0.035538
C39	C	0.633758	0.790015	-0.000016
C40	C	0.633758	0.675138	-0.000015
C41	C	0.443674	1.128502	-0.000013
C42	C	0.379161	1.128505	-0.000011
C43	C	0.348846	1.128517	-0.052506
C44	C	0.288234	1.128504	-0.052506
C45	C	0.257931	1.128508	-0.000016
C46	C	0.288256	1.128487	0.052488
C47	C	0.348871	1.128486	0.052490
N48	N	0.139583	1.211054	0.015874
N49	N	0.082000	1.211059	0.015868
C50	C	0.075302	1.128509	-0.000020
N51	N	0.128356	1.045972	-0.015914
N52	N	0.185943	1.045974	-0.015911
C53	C	0.192204	1.128508	-0.000013
C54	C	-0.020736	1.128504	-0.052518
C55	C	-0.081347	1.128482	-0.052513
C56	C	-0.081328	1.128480	0.052478
C57	C	-0.020714	1.128488	0.052476
C58	C	0.009576	1.128507	-0.000026
C59	C	0.823842	1.128486	-0.000021
C60	C	0.888355	1.128483	-0.000022
C61	C	0.633713	1.128500	-0.190100
C62	C	0.633698	1.128502	-0.254613
C63	C	0.633758	1.466973	-0.000018
C64	C	0.633758	1.581850	-0.000018
C65	C	0.596575	1.260690	-0.322034
C66	C	0.596593	1.260692	-0.382650
C67	C	0.633724	1.128498	-0.375841
C68	C	0.670855	0.996293	-0.308409
C69	C	0.670842	0.996294	-0.247794
N70	N	0.628602	1.030101	-0.443397
N71	N	0.628611	1.030108	-0.500980
C72	C	0.633768	1.128485	-0.558467
N73	N	0.638902	1.226877	-0.556201
N74	N	0.638890	1.226874	-0.498613
C75	C	0.633743	1.128482	-0.441563
C76	C	0.596663	1.260685	-0.691618
C77	C	0.596686	1.260682	-0.752234
C78	C	0.670944	0.996278	-0.677990
C79	C	0.670925	0.996285	-0.617376
C80	C	0.633781	1.128493	-0.624195
C81	C	0.633803	1.128488	0.190067
C82	C	0.633819	1.128486	0.254579
C83	C	0.823842	0.790007	-0.000020
C84	C	0.888355	0.675127	-0.000021
C85	C	0.633803	0.790009	0.190068
C86	C	0.633819	0.675130	0.254581
C87	C	0.823888	0.790001	0.190064
C88	C	0.888416	0.675120	0.254575
C89	C	0.443629	1.466987	-0.190097
C90	C	0.379101	1.581868	-0.254609
C91	C	0.443674	1.466981	-0.000014
C92	C	0.379161	1.581861	-0.000013
C93	C	0.633713	1.466979	-0.190101
C94	C	0.633698	1.581858	-0.254614
C95	C	0.881525	0.621181	-0.037144
C96	C	0.942135	0.513255	-0.037160
C97	C	1.009576	0.459269	-0.000047
C98	C	1.016405	0.513225	0.037078
C99	C	0.955795	0.621157	0.037089
C100	C	0.670952	0.621180	0.322000
C101	C	0.670964	0.513254	0.382622
C102	C	0.633846	0.459274	0.375824
C103	C	0.596708	0.513235	0.308398
C104	C	0.596692	0.621166	0.247777
C105	C	0.955834	0.621170	0.247752
C106	C	1.016471	0.513241	0.308362
C107	C	1.009688	0.459258	0.375794
C108	C	0.942262	0.513218	0.382616
C109	C	0.881627	0.621152	0.322007
C110	C	0.311682	1.635832	-0.247786
C111	C	0.251046	1.743793	-0.308395
C112	C	0.257829	1.797783	-0.375827
C113	C	0.325254	1.743815	-0.382649
C114	C	0.385889	1.635863	-0.322040
C115	C	0.385992	1.635818	0.037105
C116	C	0.325381	1.743774	0.037103
C117	C	0.257940	1.797764	-0.000012
C118	C	0.251111	1.743803	-0.037134
C119	C	0.311721	1.635856	-0.037136
C120	C	0.670823	1.635804	-0.247793
C121	C	0.670823	1.743730	-0.308404
C122	C	0.633692	1.797716	-0.375835
C123	C	0.596565	1.743759	-0.382655
C124	C	0.596571	1.635828	-0.322045
H125	H	0.263547	1.128513	-0.095255
H126	H	1.059067	0.371371	0.425140
H127	H	0.208593	1.885662	-0.000004
N128	N	0.192429	1.914209	-0.441198
H129	H	0.163256	2.003769	-0.441219
H130	H	0.163312	1.876509	-0.441179
N131	N	0.556524	1.577651	-0.329406
H132	H	0.533003	1.628238	-0.381322
H133	H	0.519208	1.596449	-0.305880
N134	N	1.089183	0.455046	0.300985
H135	H	1.115993	0.346694	0.324480
H136	H	1.115946	0.473935	0.324454
H137	H	0.196193	1.787778	-0.067352
N138	N	0.556685	0.454991	0.301070
H139	H	0.504749	0.537322	0.274297
H140	H	0.562394	0.378404	0.349731
H141	H	0.566418	1.368336	-0.697170
N142	N	0.304349	1.577663	-0.077172
H143	H	0.252427	1.628252	-0.100680
H144	H	0.327882	1.469311	-0.043091
N145	N	0.934948	0.454984	0.455346
H146	H	0.958452	0.473762	0.482149
H147	H	0.958448	0.346649	0.482084
N148	N	0.381516	1.128537	-0.109130
H149	H	0.353111	1.128542	-0.142386
H150	H	0.431915	1.038635	-0.086176
H151	H	0.566456	0.665079	0.192884
N152	N	0.332751	1.801974	0.077139
H153	H	0.359534	1.719624	0.129065
H154	H	0.284097	1.878579	0.071447
N155	N	0.963160	0.679369	0.175027
H156	H	1.015075	0.628803	0.179912
H157	H	0.939618	0.787726	0.148256
H158	H	0.826734	0.665064	0.327572
H159	H	0.306146	1.591879	-0.192885
H160	H	0.196151	1.787715	-0.302827
N161	N	0.710873	1.577591	-0.175069
H162	H	0.734391	1.628151	-0.179956
H163	H	0.748193	1.469235	-0.148303
N164	N	0.556523	1.403278	-0.329386
H165	H	0.533011	1.487021	-0.381299
H166	H	0.590604	1.409029	-0.305840
H167	H	0.263581	1.128487	0.095227
N168	N	0.963171	0.679335	0.077131
H169	H	0.914545	0.755908	0.071509
H170	H	0.989972	0.724029	0.057632
H171	H	0.373554	1.128476	0.095239
N172	N	0.458724	1.577621	0.077134
H173	H	0.485517	1.596402	0.043088
H174	H	0.485484	1.469288	0.114493
H175	H	0.330769	1.787787	-0.437559
N176	N	0.011942	1.128518	-0.109139
H177	H	-0.016460	1.128512	-0.142392
H178	H	0.062342	1.038621	-0.086183
H179	H	0.440783	1.591927	-0.327604
H180	H	0.701055	1.787650	-0.302838
H181	H	0.566459	1.368330	-0.807132
H182	H	0.633694	1.885601	-0.425182
N183	N	-0.114044	1.128482	-0.109132
H184	H	-0.085655	1.128496	-0.142389
H185	H	-0.164445	1.218380	-0.136658
N186	N	0.556519	1.801994	-0.455386
H187	H	0.562151	1.878557	-0.492741
H188	H	0.504607	1.846715	-0.461004
H189	H	-0.105997	1.128475	0.095219
H190	H	0.003968	1.128486	0.095220
H191	H	0.826616	0.665136	-0.067375
H192	H	0.566361	1.368339	-0.437554
N193	N	0.710904	0.853709	-0.301059
H194	H	0.762831	0.795920	-0.274270
H195	H	0.705222	0.873885	-0.349712
N196	N	0.710885	0.853714	-0.175070
H197	H	0.734414	0.769966	-0.179951
H198	H	0.676797	0.847955	-0.148320
H199	H	0.701152	0.888643	-0.562478
N200	N	0.711000	0.853694	-0.670636
H201	H	0.705378	0.873748	-0.719266
H202	H	0.691514	0.795963	-0.643847
N203	N	0.934761	0.455074	-0.077204
H204	H	0.882839	0.505648	-0.100705
H205	H	0.958303	0.346718	-0.043127
N206	N	0.710988	0.679386	0.329350
H207	H	0.676938	0.787739	0.305852
H208	H	0.748340	0.660494	0.305871
H209	H	1.058923	0.371383	-0.000060
H210	H	1.071324	0.469254	0.067294
H211	H	0.633864	0.371390	0.425192
N212	N	0.711024	0.455061	0.455340
H213	H	0.734541	0.505629	0.450442
H214	H	0.748346	0.346705	0.482110
