data_functionalizedCrystal
_audit_creation_method	'MofGen! by Chris Wilmer'
_symmetry_space_group_name_H-M	'P1'
_symmetry_Int_Tables_number	1
_symmetry_cell_setting	triclinic
loop_
_symmetry_equiv_pos_as_xyz
  x,y,z
_cell_length_a	16.974800
_cell_length_b	15.944493
_cell_length_c	16.053802
_cell_angle_alpha	92.571009
_cell_angle_beta	91.074188
_cell_angle_gamma	83.432052
loop_
_atom_site_label
_atom_site_type_symbol
_atom_site_fract_x
_atom_site_fract_y
_atom_site_fract_z
O1	O	1.049061	0.107076	0.001491
O2	O	1.549061	0.607076	0.501491
O3	O	0.819598	0.119934	-0.014019
O4	O	1.319598	0.619934	0.485981
O5	O	0.940620	-0.008760	-0.005846
O6	O	1.440620	0.491240	0.494154
O7	O	0.928039	0.235770	-0.006682
O8	O	1.428039	0.735770	0.493318
O9	O	0.933959	-0.001705	0.132563
O10	O	1.433959	0.498295	0.632563
O11	O	0.812937	0.126989	0.124390
O12	O	1.312937	0.626989	0.624390
O13	O	1.042400	0.114130	0.139900
O14	O	1.542400	0.614130	0.639900
Zn15	Zn	0.926611	0.121680	0.154120
Zn16	Zn	1.426611	0.621680	0.654120
Zn17	Zn	0.935387	0.112385	-0.028240
Zn18	Zn	1.435387	0.612385	0.471760
O19	O	0.921378	0.242824	0.131727
O20	O	1.421378	0.742824	0.631727
C21	C	0.786904	0.122843	0.053200
C22	C	1.286904	0.622843	0.553200
C23	C	0.699412	0.120991	0.047286
C24	C	1.199412	0.620991	0.547286
C25	C	0.654681	0.123964	0.119956
C26	C	1.154681	0.623964	0.619956
C27	C	0.572475	0.122211	0.114401
C28	C	1.072475	0.622211	0.614401
C29	C	0.534999	0.117490	0.036175
C30	C	1.034999	0.617490	0.536175
C31	C	0.579736	0.114514	-0.036501
C32	C	1.079736	0.614514	0.463499
C33	C	0.661942	0.116262	-0.030945
C34	C	1.161942	0.616262	0.469055
C35	C	0.289529	0.111845	0.011468
C36	C	0.789529	0.611845	0.511468
C37	C	0.207317	0.110100	0.005918
C38	C	0.707317	0.610100	0.505918
C39	C	0.200062	0.117795	0.156820
C40	C	0.700062	0.617795	0.656820
C41	C	0.282269	0.119548	0.162369
C42	C	0.782269	0.619548	0.662369
C43	C	0.326999	0.116567	0.089693
C44	C	0.826999	0.616567	0.589693
N45	N	0.450970	0.115700	0.030495
N46	N	0.950970	0.615700	0.530495
N47	N	0.411027	0.118351	0.095374
N48	N	0.911027	0.618351	0.595374
C49	C	0.936775	-0.036529	0.063320
C50	C	1.436775	0.463471	0.563320
C51	C	0.935234	-0.129781	0.063206
C52	C	1.435234	0.370219	0.563206
C53	C	1.006470	-0.365386	0.068036
C54	C	1.506470	0.134614	0.568036
C55	C	0.971339	-0.419515	-0.002803
C56	C	1.471339	0.080485	0.497197
C57	C	0.932378	-0.300508	0.063023
C58	C	1.432378	0.199492	0.563023
C59	C	0.964754	-0.412536	0.133657
C60	C	1.464754	0.087464	0.633657
C61	C	0.929624	-0.465423	0.062850
C62	C	1.429624	0.034577	0.562850
C63	C	0.897270	-0.353412	-0.007871
C64	C	1.397270	0.146588	0.492129
C65	C	0.890693	-0.346427	0.128650
C66	C	1.390693	0.153573	0.628650
C67	C	0.855509	-0.400524	0.057791
C68	C	1.355509	0.099476	0.557791
C69	C	0.933966	-0.205505	0.063122
C70	C	1.433966	0.294495	0.563122
C71	C	0.928029	-0.560423	0.062745
C72	C	1.428029	-0.060423	0.562745
C73	C	1.075094	0.111221	0.072679
C74	C	1.575094	0.611221	0.572679
C75	C	1.162587	0.113073	0.078588
C76	C	1.662587	0.613073	0.578588
C77	C	0.925223	0.270593	0.062559
C78	C	1.425223	0.770593	0.562559
C79	C	0.926764	0.363845	0.062668
C80	C	1.426764	0.863845	0.562668
N81	N	0.920627	0.128022	0.278576
N82	N	1.420627	0.628022	0.778576
N83	N	0.941378	0.106036	-0.152695
N84	N	1.441378	0.606036	0.347305
C85	C	0.972140	0.073282	0.325750
C86	C	1.472140	0.573282	0.825750
C87	C	0.967962	0.077727	0.412874
C88	C	1.467962	0.577727	0.912874
C89	C	0.912273	0.136917	0.452824
C90	C	1.412273	0.636917	0.952824
C91	C	0.860753	0.191659	0.405645
C92	C	1.360753	0.691659	0.905645
C93	C	0.864929	0.187210	0.318521
C94	C	1.364929	0.687210	0.818521
C95	C	0.894034	0.156329	0.713002
C96	C	1.394034	0.656329	1.213002
C97	C	0.889864	0.160776	0.800132
C98	C	1.389864	0.660776	1.300132
C99	C	0.997072	0.046842	0.807355
C100	C	1.497072	0.546842	1.307355
C101	C	1.001246	0.042401	0.720230
C102	C	1.501246	0.542401	1.220230
C103	C	0.949724	0.097141	0.673058
C104	C	1.449724	0.597141	1.173058
N105	N	0.908002	0.141463	0.541879
N106	N	1.408002	0.641463	1.041879
N107	N	0.953991	0.092590	0.584004
N108	N	1.453991	0.592590	1.084004
H109	H	0.176807	0.106258	-0.057786
H110	H	0.676807	0.606258	0.442214
H111	H	0.844513	0.208978	0.832654
H112	H	1.344513	0.708978	1.332654
O113	O	1.016462	-0.461665	-0.076424
O114	O	1.516462	0.038335	0.423576
H115	H	0.975915	-0.496050	-0.116790
H116	H	1.475915	0.003950	0.383210
H117	H	0.791640	-0.416131	0.053436
H118	H	1.291640	0.083869	0.553436
H119	H	1.070294	-0.349622	0.072282
H120	H	1.570294	0.150378	0.572282
O121	O	0.322683	0.124638	0.246744
O122	O	0.822683	0.624638	0.746744
H123	H	0.387360	0.125363	0.238398
H124	H	0.887360	0.625363	0.738398
O125	O	1.023522	0.018690	0.463760
O126	O	1.523522	0.518690	0.963760
H127	H	1.059905	0.056193	0.506037
H128	H	1.559905	0.556193	1.006037
H129	H	0.856653	-0.314593	0.184233
H130	H	1.356653	0.185407	0.684233
H131	H	0.698361	0.113842	-0.090121
H132	H	1.198361	0.613842	0.409879
H133	H	0.852084	0.200901	0.674601
H134	H	1.352084	0.700901	1.174601
H135	H	1.046592	-0.005795	0.687705
H136	H	1.546592	0.494205	1.187705
O137	O	1.002531	-0.446864	0.212886
O138	O	1.502531	0.053136	0.712886
H139	H	1.065151	-0.433084	0.216968
H140	H	1.565151	0.066916	0.716968
H141	H	0.868777	-0.327604	-0.067741
H142	H	1.368777	0.172396	0.432259
O143	O	0.695098	0.129059	0.204330
O144	O	1.195098	0.629059	0.704330
H145	H	0.725332	0.187245	0.209997
H146	H	1.225332	0.687245	0.709997
O147	O	1.032203	0.009439	0.282661
O148	O	1.532203	0.509439	0.782661
H149	H	1.067315	-0.027885	0.330104
H150	H	1.567315	0.472115	0.830104
O151	O	1.052634	-0.012204	0.858230
O152	O	1.552634	0.487796	1.358230
H153	H	1.040373	0.000826	0.925524
H154	H	1.540373	0.500826	1.425524
O155	O	0.800689	0.255505	0.448727
O156	O	1.300689	0.755505	0.948727
H157	H	0.806446	0.249411	0.517236
H158	H	1.306446	0.749411	1.017236
O159	O	0.539324	0.109411	-0.120876
O160	O	1.039324	0.609411	0.379124
H161	H	0.549813	0.165095	-0.156469
H162	H	1.049813	0.665095	0.343531
H163	H	0.822980	0.231784	0.280114
H164	H	1.322980	0.731784	0.780114
H165	H	0.536060	0.124618	0.173576
H166	H	1.036060	0.624618	0.673576
H167	H	0.325939	0.109415	-0.047709
H168	H	0.825939	0.609415	0.452291
O169	O	0.151768	0.121435	0.235199
O170	O	0.651768	0.621435	0.735199
H171	H	0.088290	0.119579	0.218196
H172	H	0.588290	0.619579	0.718196
