data_functionalizedCrystal
_audit_creation_method	'MofGen! by Chris Wilmer'
_symmetry_space_group_name_H-M	'P1'
_symmetry_Int_Tables_number	1
_symmetry_cell_setting	triclinic
loop_
_symmetry_equiv_pos_as_xyz
  x,y,z
_cell_length_a	10.489716
_cell_length_b	15.538191
_cell_length_c	8.965430
_cell_angle_alpha	89.997977
_cell_angle_beta	89.997302
_cell_angle_gamma	114.099385
loop_
_atom_site_label
_atom_site_type_symbol
_atom_site_fract_x
_atom_site_fract_y
_atom_site_fract_z
O1	O	0.412985	1.247128	0.124038
O2	O	0.266164	0.973855	0.124044
O3	O	0.528136	1.116722	0.124024
O4	O	0.151012	1.104261	0.124059
O5	O	0.528133	1.116728	-0.124055
O6	O	0.266161	0.973862	-0.124035
O7	O	0.412982	1.247134	-0.124040
Cu8	Cu	0.339571	1.110499	-0.146689
Cu9	Cu	0.339574	1.110491	0.146693
O10	O	0.151009	1.104268	-0.124020
C11	C	0.250801	0.938866	0.000005
C12	C	0.205045	0.834600	0.000006
C13	C	0.659621	0.543755	-0.000012
C14	C	0.616594	0.445779	-0.000007
C15	C	0.374577	0.424962	0.000015
C16	C	0.417584	0.522939	0.000002
C17	C	0.560108	0.582328	-0.000010
C18	C	0.318070	0.561511	0.000005
C19	C	0.361074	0.659480	0.000001
C20	C	0.503592	0.718875	-0.000007
C21	C	0.603112	0.680297	-0.000014
C22	C	0.175547	0.502120	0.000028
C23	C	0.076034	0.540693	0.000031
C24	C	0.119037	0.638663	0.000015
C25	C	0.261554	0.698059	0.000008
C26	C	0.019517	0.677242	0.000023
C27	C	0.062521	0.775210	0.000018
C28	C	0.304558	0.796027	0.000004
C29	C	0.103924	1.105201	0.000024
C30	C	-0.036376	1.108002	0.000037
C31	C	-0.175704	1.020392	0.000018
C32	C	-0.231066	1.066684	0.122321
C33	C	-0.230995	1.066710	-0.122266
C34	C	-0.089890	1.154257	0.122441
C35	C	-0.089819	1.154271	-0.122255
C36	C	-0.145102	1.200627	0.000077
C37	C	0.575222	1.115789	-0.000017
C38	C	0.715521	1.112988	-0.000021
C39	C	0.428344	1.282123	0.000002
C40	C	0.474101	1.386390	0.000010
N41	N	0.339573	1.110511	-0.353038
C42	C	0.460730	1.176604	-0.450314
C43	C	0.446140	1.091579	-0.549719
C44	C	0.354230	1.195503	-0.549760
C45	C	0.325019	1.025443	-0.450255
C46	C	0.233085	1.129424	-0.450287
C47	C	0.218418	1.044338	-0.549648
N48	N	0.339586	1.110486	0.353042
H49	H	-0.040009	0.492325	0.000046
H50	H	-0.018513	0.806617	0.000007
H51	H	0.697641	0.414378	-0.000007
H52	H	-0.292154	1.029698	0.225727
C53	C	-0.330939	0.922471	-0.261627
C54	C	-0.313378	1.016776	-0.261886
H55	H	-0.381785	0.891644	-0.347827
H56	H	-0.380886	0.891989	-0.174796
H57	H	-0.242049	0.919828	-0.262109
H58	H	-0.402267	1.019420	-0.261393
H59	H	-0.263431	1.047267	-0.348740
C60	C	0.791888	0.802558	0.127485
C61	C	0.759776	0.745593	-0.000037
H62	H	0.888599	0.842874	0.127463
H63	H	0.770102	0.763906	0.213981
H64	H	0.738756	0.839541	0.127478
H65	H	0.812901	0.708605	-0.000025
H66	H	0.781577	0.784250	-0.086556
H67	H	0.775678	0.592114	-0.000031
H68	H	0.143073	1.145464	-0.406579
C69	C	0.187335	0.889479	-0.304484
C70	C	0.308432	0.928370	-0.391521
H71	H	0.177101	0.829553	-0.268220
H72	H	0.108485	0.882465	-0.363477
H73	H	0.194307	0.930039	-0.222713
H74	H	0.301456	0.887813	-0.473299
H75	H	0.387301	0.935378	-0.332526
C76	C	0.123769	1.200992	0.261007
C77	C	-0.007742	1.204140	0.262210
H78	H	0.174477	1.231779	0.347300
H79	H	0.173414	1.231892	0.174272
H80	H	0.112601	1.137166	0.260658
H81	H	0.003427	1.267966	0.262547
H82	H	-0.057398	1.173243	0.348969
H83	H	-0.133273	1.276891	0.000137
H84	H	0.115932	0.988373	-0.592989
C85	C	-0.079657	1.158119	-0.389826
C86	C	-0.007326	1.204154	-0.261851
H87	H	-0.028724	1.188907	-0.476013
H88	H	-0.169156	1.159790	-0.391339
H89	H	-0.090124	1.094441	-0.388924
H90	H	0.003132	1.267830	-0.262747
H91	H	0.082199	1.202492	-0.260338
C92	C	0.710388	1.231925	-0.441607
C93	C	0.599056	1.251980	-0.391411
H94	H	0.795781	1.278453	-0.405231
H95	H	0.711676	1.232060	-0.547540
H96	H	0.699220	1.171663	-0.406068
H97	H	0.610219	1.312239	-0.426960
H98	H	0.597770	1.251855	-0.285456
C99	C	0.553571	0.981616	-0.556288
C100	C	0.567706	1.069958	-0.608688
H101	H	0.628632	0.968279	-0.592681
H102	H	0.467574	0.934612	-0.590299
H103	H	0.554945	0.982053	-0.450341
H104	H	0.566322	1.069520	-0.714635
H105	H	0.653726	1.116975	-0.574685
H106	H	0.420615	0.844386	-0.000015
C107	C	0.497822	1.361660	-0.558504
C108	C	0.370899	1.292553	-0.608689
H109	H	0.508103	1.421577	-0.594854
H110	H	0.572648	1.347796	-0.594062
H111	H	0.498781	1.362483	-0.452557
H112	H	0.369944	1.291725	-0.714636
H113	H	0.296054	1.306420	-0.573138
H114	H	0.538603	0.798647	0.000010
H115	H	0.258534	0.376594	0.000031
H116	H	0.140538	0.422349	0.000036
H117	H	-0.187261	0.944185	0.000147
H118	H	-0.096526	0.628873	0.000047
