data_functionalizedCrystal
_audit_creation_method	'MofGen! by Chris Wilmer'
_symmetry_space_group_name_H-M	'P1'
_symmetry_Int_Tables_number	1
_symmetry_cell_setting	triclinic
loop_
_symmetry_equiv_pos_as_xyz
  x,y,z
_cell_length_a	12.759401
_cell_length_b	18.050589
_cell_length_c	12.759393
_cell_angle_alpha	89.970705
_cell_angle_beta	89.981266
_cell_angle_gamma	90.028382
loop_
_atom_site_label
_atom_site_type_symbol
_atom_site_fract_x
_atom_site_fract_y
_atom_site_fract_z
Zn1	Zn	1.606159	-0.295622	-0.593988
Zn2	Zn	1.606011	-0.419830	-0.418311
Zn3	Zn	1.430460	-0.295658	-0.418328
Zn4	Zn	1.430408	-0.419775	-0.593953
O5	O	1.518260	-0.357721	-0.506145
O6	O	1.753161	-0.312106	-0.570692
O7	O	1.582684	-0.403396	-0.271292
O8	O	1.453851	-0.191729	-0.441651
O9	O	1.753052	-0.403361	-0.441623
O10	O	1.582936	-0.191702	-0.570708
O11	O	1.453708	-0.312168	-0.271304
O12	O	1.283432	-0.312115	-0.441617
O13	O	1.453762	-0.403268	-0.740979
O14	O	1.283394	-0.403303	-0.570648
O15	O	1.582886	-0.312054	-0.741005
O16	O	1.582634	-0.523747	-0.441589
O17	O	1.453619	-0.523707	-0.570632
C18	C	1.245292	-0.357708	-0.506131
C19	C	1.128516	-0.357720	-0.506149
C20	C	1.073661	-0.405277	-0.573225
C21	C	0.963937	-0.405287	-0.573236
C22	C	0.963932	-0.310179	-0.439088
C23	C	1.073654	-0.310166	-0.439083
C24	C	1.128523	-0.452831	-0.640292
C25	C	1.073669	-0.500393	-0.707372
C26	C	0.963945	-0.500403	-0.707383
C27	C	0.909075	-0.452850	-0.640314
C28	C	1.518133	-0.550673	-0.506127
C29	C	1.518175	-0.633219	-0.506155
C30	C	1.448086	-0.832675	-0.576304
C31	C	1.422471	-0.882122	-0.480436
C32	C	1.518278	-0.784350	-0.506169
C33	C	1.543944	-0.881984	-0.602048
C34	C	1.518376	-0.930335	-0.506191
C35	C	1.492613	-0.832709	-0.410250
C36	C	1.614131	-0.832567	-0.531927
C37	C	1.588553	-0.881992	-0.435992
C38	C	1.518219	-0.700251	-0.506158
C39	C	1.518435	-1.014431	-0.506191
C40	C	1.792293	-0.357736	-0.506160
C41	C	1.909070	-0.357742	-0.506166
C42	C	1.518335	-0.357651	-0.780178
C43	C	1.518366	-0.357621	-0.896955
C44	C	1.518416	-0.164016	-0.506185
C45	C	1.518482	-0.081470	-0.506203
C46	C	1.585629	-0.310083	-1.061557
C47	C	1.585607	-0.310115	-0.951833
C48	C	1.451152	-0.405102	-0.951807
C49	C	1.451180	-0.405073	-1.061529
C50	C	1.652867	-0.262569	-1.116430
C51	C	1.720083	-0.215088	-1.061586
C52	C	1.720061	-0.215121	-0.951862
C53	C	1.652822	-0.262634	-0.896982
C54	C	1.518246	-0.357738	-0.233178
C55	C	1.518418	-0.357559	-0.116401
H56	H	0.919248	-0.271464	-0.384483
Br57	Br	1.349011	-0.796580	-0.675024
H58	H	1.118351	-0.539104	-0.761983
Br59	Br	1.359902	-0.469578	-0.877327
Br60	Br	1.749131	-0.796260	-0.568280
H61	H	1.652890	-0.262535	-1.205773
Br62	Br	1.811292	-0.150693	-0.877432
Br63	Br	1.652806	-0.262686	-0.748069
Br64	Br	1.456344	-0.796789	-0.275078
H65	H	1.118317	-0.271435	-0.384472
H66	H	1.396451	-0.443732	-1.106184
H67	H	1.774832	-0.176409	-1.106276
H68	H	0.919285	-0.539125	-0.762010
Br69	Br	0.760162	-0.452856	-0.640343
Br70	Br	1.277434	-0.452825	-0.640273
H71	H	1.647954	-0.903509	-0.376622
Br72	Br	1.287436	-0.918399	-0.444123
Br73	Br	1.580060	-0.918066	-0.737175
