data_functionalizedCrystal
_audit_creation_method	'MofGen! by Chris Wilmer'
_symmetry_space_group_name_H-M	'P1'
_symmetry_Int_Tables_number	1
_symmetry_cell_setting	triclinic
loop_
_symmetry_equiv_pos_as_xyz
  x,y,z
_cell_length_a	17.000371
_cell_length_b	15.500227
_cell_length_c	15.944551
_cell_angle_alpha	87.172611
_cell_angle_beta	79.548993
_cell_angle_gamma	92.619542
loop_
_atom_site_label
_atom_site_type_symbol
_atom_site_fract_x
_atom_site_fract_y
_atom_site_fract_z
O1	O	1.059807	0.071948	0.026094
O2	O	1.559807	0.571948	0.526094
O3	O	0.828076	0.071950	0.056579
O4	O	1.328076	0.571950	0.556579
O5	O	0.950269	0.071941	-0.081406
O6	O	1.450269	0.571941	0.418594
O7	O	0.937613	0.071957	0.164079
O8	O	1.437613	0.571957	0.664079
O9	O	0.942854	-0.071947	-0.073063
O10	O	1.442854	0.428053	0.426937
O11	O	0.820661	-0.071939	0.064922
O12	O	1.320661	0.428061	0.564922
O13	O	1.052392	-0.071940	0.034436
O14	O	1.552392	0.428060	0.534436
Cu15	Cu	0.935849	-0.085077	0.050441
Cu16	Cu	1.435849	0.414923	0.550441
Cu17	Cu	0.944618	0.085087	0.040575
Cu18	Cu	1.444618	0.585087	0.540575
O19	O	0.930198	-0.071931	0.172421
O20	O	1.430198	0.428069	0.672421
C21	C	0.794715	0.000006	0.062388
C22	C	1.294715	0.500006	0.562388
C23	C	0.706356	0.000006	0.067257
C24	C	1.206356	0.500006	0.567257
C25	C	0.674326	-0.000000	-0.007671
C26	C	1.174326	0.500000	0.492329
C27	C	0.591304	0.000006	-0.003092
C28	C	1.091304	0.500006	0.496908
C29	C	0.540313	0.000013	0.076417
C30	C	1.040313	0.500013	0.576417
C31	C	0.572348	0.000022	0.151351
C32	C	1.072348	0.500022	0.651351
C33	C	0.655369	0.000021	0.146770
C34	C	1.155369	0.500021	0.646770
C35	C	0.289168	0.000020	0.094111
C36	C	0.789168	0.500020	0.594111
C37	C	0.206141	0.000018	0.098686
C38	C	0.706141	0.500018	0.598686
C39	C	0.225104	0.000004	-0.055757
C40	C	0.725104	0.500004	0.444243
C41	C	0.308125	-0.000002	-0.060330
C42	C	0.808125	0.499998	0.439670
C43	C	0.340153	0.000012	0.014603
C44	C	0.840153	0.500012	0.514603
C45	C	0.455450	0.000017	0.081100
C46	C	0.955450	0.500017	0.581100
C47	C	0.425015	0.000014	0.009918
C48	C	0.925015	0.500014	0.509918
N49	N	0.929687	-0.204762	0.057379
N50	N	1.429687	0.295238	0.557379
C51	C	0.981483	-0.250042	-0.001071
C52	C	1.481483	0.249958	0.498929
C53	C	0.976830	-0.340615	0.004183
C54	C	1.476830	0.159385	0.504183
C55	C	0.920385	-0.385905	0.067892
C56	C	1.420385	0.114095	0.567892
C57	C	0.868584	-0.340619	0.126345
C58	C	1.368584	0.159381	0.626345
C59	C	0.873233	-0.250048	0.121087
C60	C	1.373233	0.249952	0.621087
C61	C	0.903635	-0.659371	0.086823
C62	C	1.403635	-0.159371	0.586823
C63	C	0.898991	-0.749948	0.092079
C64	C	1.398991	-0.249948	0.592079
C65	C	1.007236	-0.749938	-0.030084
C66	C	1.507236	-0.249938	0.469916
C67	C	1.011884	-0.659365	-0.035334
C68	C	1.511884	-0.159365	0.464666
C69	C	0.960081	-0.614087	0.023116
C70	C	1.460081	-0.114087	0.523116
C71	C	0.915629	-0.478485	0.073267
C72	C	1.415629	0.021515	0.573267
C73	C	0.964833	-0.521509	0.017737
C74	C	1.464833	-0.021509	0.517737
C75	C	1.085753	0.000006	0.028628
C76	C	1.585753	0.500006	0.528628
C77	C	1.174112	0.000011	0.023758
C78	C	1.674112	0.500011	0.523758
C79	C	0.946036	-0.000003	-0.108490
C80	C	1.446036	0.499997	0.391510
C81	C	0.944461	-0.000004	-0.201619
C82	C	1.444461	0.499996	0.298381
N83	N	0.950786	0.204772	0.033629
N84	N	1.450786	0.704772	0.533629
C85	C	0.864955	0.000009	-0.410600
C86	C	1.364955	0.500009	0.089400
C87	C	0.898219	-0.070937	-0.470233
C88	C	1.398219	0.429063	0.029767
C89	C	0.941611	0.000003	-0.372135
C90	C	1.441611	0.500003	0.127865
C91	C	0.905548	0.070925	-0.478442
C92	C	1.405548	0.570925	0.021558
C93	C	0.938854	0.000013	-0.536844
C94	C	1.438854	0.500013	-0.036844
C95	C	0.974893	-0.071001	-0.430538
C96	C	1.474893	0.428999	0.069462
C97	C	0.982215	0.070925	-0.438744
C98	C	1.482215	0.570925	0.061256
C99	C	1.015534	-0.000038	-0.498363
C100	C	1.515534	0.499962	0.001637
C101	C	0.943198	-0.000004	-0.277249
C102	C	1.443198	0.499996	0.222751
C103	C	0.937273	0.000014	-0.631728
C104	C	1.437273	0.500014	-0.131728
C105	C	0.934431	0.000015	0.199505
C106	C	1.434431	0.500015	0.699505
C107	C	0.936007	0.000021	0.292634
C108	C	1.436007	0.500021	0.792634
H109	H	0.565230	0.000002	-0.064106
H110	H	1.065230	0.500002	0.435894
F111	F	0.689457	0.000031	0.226519
F112	F	1.189457	0.500031	0.726519
F113	F	0.818103	-0.201858	0.183296
F114	F	1.318103	0.298142	0.683296
H115	H	0.822621	-0.377500	0.178216
H116	H	1.322621	0.122500	0.678216
F117	F	0.867191	0.149316	-0.506114
F118	F	1.367191	0.649316	-0.006114
F119	F	0.855558	-0.526692	0.141071
F120	F	1.355558	-0.026692	0.641071
H121	H	0.715839	-0.000009	-0.072416
H122	H	1.215839	0.499991	0.427584
H123	H	1.079216	-0.000079	-0.536226
H124	H	1.579216	0.499921	-0.036226
H125	H	1.027449	-0.213172	-0.052947
H126	H	1.527449	0.286828	0.447053
F127	F	0.838911	-0.798144	0.159893
F128	F	1.338911	-0.298144	0.659893
H129	H	0.861456	-0.622512	0.134417
H130	H	1.361456	-0.122512	0.634417
F131	F	1.031955	-0.388806	-0.058027
F132	F	1.531955	0.111194	0.441973
H133	H	1.017701	0.130907	-0.424486
H134	H	1.517701	0.630907	0.075514
F135	F	0.781784	-0.000079	-0.360912
F136	F	1.281784	0.499921	0.139088
F137	F	0.191011	-0.000008	-0.135501
F138	F	0.691011	0.499992	0.364499
F139	F	1.024901	-0.473306	-0.050068
F140	F	1.524901	0.026694	0.449932
F141	F	0.851802	-0.149334	-0.488838
F142	F	1.351802	0.350666	0.011162
F143	F	1.013195	-0.149484	-0.402992
F144	F	1.513195	0.350516	0.097008
H145	H	0.315235	0.000037	0.155127
H146	H	0.815235	0.500037	0.655127
F147	F	0.479285	0.000010	-0.074698
F148	F	0.979285	0.500010	0.425302
H149	H	0.349638	-0.000011	-0.125075
H150	H	0.849638	0.499989	0.374925
H151	H	0.164625	0.000019	0.163436
H152	H	0.664625	0.500019	0.663436
F153	F	1.071960	-0.611165	-0.103139
F154	F	1.571960	-0.111165	0.396861
H155	H	0.530824	0.000033	0.216088
H156	H	1.030824	0.500033	0.716088
H157	H	0.413923	0.000021	0.145837
H158	H	0.913923	0.500021	0.645837
F159	F	1.062364	-0.798132	-0.092289
F160	F	1.562364	-0.298132	0.407711
