data_functionalizedCrystal
_audit_creation_method	'MofGen! by Chris Wilmer'
_symmetry_space_group_name_H-M	'P1'
_symmetry_Int_Tables_number	1
_symmetry_cell_setting	triclinic
loop_
_symmetry_equiv_pos_as_xyz
  x,y,z
_cell_length_a	6.817900
_cell_length_b	14.858565
_cell_length_c	14.858572
_cell_angle_alpha	94.729590
_cell_angle_beta	104.524003
_cell_angle_gamma	104.523916
loop_
_atom_site_label
_atom_site_type_symbol
_atom_site_fract_x
_atom_site_fract_y
_atom_site_fract_z
V1	V	-4.043562	-0.129256	-0.290221
V2	V	-3.543562	0.370744	0.209779
O3	O	-4.025385	0.005609	-0.284429
O4	O	-3.525385	0.505609	0.215571
O5	O	-4.000128	-0.255713	-0.288492
O6	O	-3.500128	0.244287	0.211508
O7	O	-4.000132	-0.127532	-0.416679
O8	O	-3.500132	0.372468	0.083321
O9	O	-4.025382	-0.123460	-0.155355
O10	O	-3.525382	0.376540	0.344645
V11	V	-4.525902	-0.113093	-0.274059
V12	V	-4.025902	0.386907	0.225941
O13	O	-4.307414	-0.164710	-0.325674
O14	O	-3.807414	0.335290	0.174326
O15	O	-4.712247	-0.077639	-0.238606
O16	O	-4.212247	0.422361	0.261394
O17	O	-4.346128	0.013364	-0.275787
O18	O	-3.846128	0.513364	0.224213
O19	O	-4.661475	-0.247958	-0.279850
O20	O	-4.161475	0.252042	0.220150
O21	O	-4.661479	-0.118889	-0.408924
O22	O	-4.161479	0.381111	0.091076
O23	O	-4.346125	-0.114817	-0.147600
O24	O	-3.846125	0.385183	0.352400
C25	C	-3.846177	-0.286533	-0.283980
C26	C	-3.346177	0.213467	0.216020
C27	C	-3.891985	-0.389915	-0.283410
C28	C	-3.391985	0.110085	0.216590
C29	C	-3.846180	-0.123023	-0.447494
C30	C	-3.346180	0.376977	0.052506
C31	C	-3.891987	-0.122450	-0.550876
C32	C	-3.391987	0.377550	-0.050876
C33	C	-4.059649	-0.768482	-0.281335
C34	C	-3.559649	-0.268482	0.218665
C35	C	-4.012991	-0.663153	-0.281912
C36	C	-3.512991	-0.163153	0.218088
C37	C	-3.975818	-0.579202	-0.282372
C38	C	-3.475818	-0.079202	0.217628
C39	C	-3.929158	-0.473866	-0.282950
C40	C	-3.429158	0.026134	0.217050
C41	C	-4.059645	-0.120357	-0.929439
C42	C	-3.559645	0.379643	-0.429439
C43	C	-4.012989	-0.120940	-0.824111
C44	C	-3.512989	0.379060	-0.324111
C45	C	-3.975817	-0.121405	-0.740161
C46	C	-3.475817	0.378595	-0.240161
C47	C	-3.929159	-0.121985	-0.634826
C48	C	-3.429159	0.378015	-0.134826
C49	C	-4.163422	0.044179	-0.280296
C50	C	-3.663422	0.544179	0.219704
C51	C	-4.096853	0.147560	-0.280873
C52	C	-3.596853	0.647560	0.219127
C53	C	-4.163419	-0.119329	-0.116781
C54	C	-3.663419	0.380671	0.383219
C55	C	-4.096850	-0.119897	-0.013398
C56	C	-3.596850	0.380103	0.486602
