data_functionalizedCrystal
_audit_creation_method	'MofGen! by Chris Wilmer'
_symmetry_space_group_name_H-M	'P1'
_symmetry_Int_Tables_number	1
_symmetry_cell_setting	triclinic
loop_
_symmetry_equiv_pos_as_xyz
  x,y,z
_cell_length_a	21.395364
_cell_length_b	16.959454
_cell_length_c	21.395355
_cell_angle_alpha	89.987004
_cell_angle_beta	89.975273
_cell_angle_gamma	90.018408
loop_
_atom_site_label
_atom_site_type_symbol
_atom_site_fract_x
_atom_site_fract_y
_atom_site_fract_z
Zn1	Zn	0.957905	-0.314808	-0.354288
Zn2	Zn	0.957827	-0.446969	-0.249521
Zn3	Zn	0.853120	-0.314805	-0.249525
Zn4	Zn	0.853109	-0.446945	-0.354261
O5	O	0.905490	-0.380882	-0.301899
O6	O	1.045573	-0.332351	-0.340401
O7	O	0.943910	-0.429446	-0.161844
O8	O	0.867058	-0.204194	-0.263435
O9	O	1.045516	-0.429449	-0.263429
O10	O	0.944043	-0.204197	-0.340404
O11	O	0.866982	-0.332345	-0.161846
O12	O	0.765441	-0.332322	-0.263408
O13	O	0.867038	-0.429408	-0.441942
O14	O	0.765433	-0.429404	-0.340357
O15	O	0.944032	-0.332328	-0.441963
O16	O	0.943899	-0.557577	-0.263402
O17	O	0.866963	-0.557559	-0.340354
C18	C	0.742703	-0.380861	-0.301881
C19	C	0.673062	-0.380871	-0.301888
C20	C	0.171278	-0.431525	-0.341927
C21	C	0.236713	-0.431525	-0.341921
C22	C	0.269423	-0.380899	-0.301919
C23	C	0.236693	-0.330283	-0.261909
C24	C	0.171259	-0.330290	-0.261912
C25	C	0.373102	-0.309665	-0.297062
C26	C	0.438535	-0.309657	-0.297063
C27	C	0.471244	-0.380878	-0.301905
C28	C	0.438512	-0.452110	-0.306759
C29	C	0.373078	-0.452117	-0.306762
C30	C	0.340376	-0.380886	-0.301910
C31	C	0.574919	-0.431495	-0.341902
C32	C	0.640356	-0.431497	-0.341891
C33	C	0.640334	-0.330247	-0.261882
C34	C	0.574899	-0.330253	-0.261890
C35	C	0.542195	-0.380876	-0.301903
C36	C	0.905438	-0.586248	-0.301888
C37	C	0.905473	-0.674105	-0.301904
C38	C	0.865488	-1.045601	-0.341963
C39	C	0.945667	-1.045559	-0.261898
C40	C	0.945646	-0.963013	-0.261892
C41	C	0.905544	-0.921757	-0.301922
C42	C	0.865464	-0.963047	-0.341957
C43	C	0.985720	-0.921718	-0.221853
C44	C	0.985700	-0.839167	-0.221845
C45	C	0.945600	-0.797909	-0.261879
C46	C	0.905519	-0.839204	-0.301916
C47	C	0.865417	-0.797948	-0.341946
C48	C	0.825339	-0.839241	-0.381987
C49	C	0.825364	-0.921790	-0.381991
C50	C	0.945575	-0.715361	-0.261875
C51	C	0.865393	-0.715394	-0.341940
C52	C	1.068914	-0.380903	-0.301917
C53	C	1.138555	-0.380913	-0.301925
C54	C	0.905542	-0.380866	-0.465322
C55	C	0.905565	-0.380859	-0.534963
C56	C	0.905560	-0.174713	-0.301923
C57	C	0.905590	-0.086857	-0.301934
C58	C	0.945653	-0.330307	-0.567688
C59	C	0.945653	-0.330273	-0.633123
C60	C	0.905570	-0.380805	-0.665832
C61	C	0.865473	-0.431360	-0.633099
C62	C	0.865471	-0.431387	-0.567665
C63	C	0.900604	-0.451976	-0.769503
C64	C	0.900611	-0.451950	-0.834936
C65	C	0.905573	-0.380721	-0.867653
C66	C	0.910542	-0.309516	-0.834928
C67	C	0.910540	-0.309543	-0.769494
C68	C	0.905567	-0.380781	-0.736784
C69	C	0.945663	-0.330129	-0.971330
C70	C	0.945658	-0.330093	-1.036767
C71	C	0.865482	-0.431187	-1.036741
C72	C	0.865484	-0.431216	-0.971306
C73	C	0.905578	-0.380687	-0.938604
C74	C	0.905475	-0.380841	-0.139111
C75	C	0.905574	-0.380625	-0.069470
H76	H	0.548290	-0.472716	-0.374483
C77	C	0.781275	-0.967218	-0.426025
N78	N	0.748064	-1.001439	-0.459188
H79	H	0.346431	-0.510117	-0.310713
C80	C	0.821369	-0.487002	-0.531667
N81	N	0.788152	-0.528894	-0.504552
C82	C	0.676350	-0.487181	-0.385896
N83	N	0.703462	-0.529124	-0.419042
H84	H	1.018365	-0.955314	-0.189258
C85	C	0.272676	-0.274589	-0.217910
N86	N	0.299778	-0.232638	-0.184769
C87	C	0.781227	-0.793849	-0.426018
N88	N	0.748004	-0.759656	-0.459182
C89	C	0.989760	-0.274478	-1.072763
N90	N	1.022979	-0.232588	-1.099877
C91	C	1.029783	-0.793751	-0.177796
N92	N	1.062986	-0.759544	-0.144616
C93	C	0.272715	-0.487200	-0.385933
N94	N	0.299830	-0.529132	-0.419084
H95	H	0.978203	-0.681743	-0.229271
H96	H	0.914584	-0.251565	-0.742853
H97	H	0.548256	-0.289036	-0.229318
C98	C	0.916000	-0.231157	-0.870912
N99	N	0.920111	-0.172140	-0.898018
C100	C	0.474533	-0.231300	-0.291724
N101	N	0.501646	-0.172280	-0.287702
H102	H	0.896395	-0.509964	-0.742870
C103	C	0.135263	-0.274603	-0.217909
N104	N	0.108150	-0.232657	-0.184767
C105	C	0.676312	-0.274559	-0.217877
N106	N	0.703414	-0.232615	-0.184730
C107	C	0.821379	-0.486942	-0.669080
N108	N	0.788163	-0.528805	-0.696180
H109	H	0.465143	-0.510105	-0.310706
H110	H	0.978300	-0.289162	-0.541066
H111	H	0.832739	-0.681809	-0.374540
C112	C	0.821401	-1.091023	-0.386004
N113	N	0.788193	-1.125237	-0.419174
H114	H	0.346475	-0.251664	-0.293109
H115	H	0.978296	-0.289103	-0.659773
H116	H	0.978313	-1.079155	-0.229304
H117	H	0.978307	-0.288981	-0.944703
H118	H	0.832839	-0.472324	-1.063371
H119	H	0.832843	-0.472385	-0.944661
H120	H	0.896569	-0.509930	-0.861575
H121	H	0.144654	-0.472749	-0.374507
