data_functionalizedCrystal
_audit_creation_method	'MofGen! by Chris Wilmer'
_symmetry_space_group_name_H-M	'P1'
_symmetry_Int_Tables_number	1
_symmetry_cell_setting	triclinic
loop_
_symmetry_equiv_pos_as_xyz
  x,y,z
_cell_length_a	21.395362
_cell_length_b	21.295417
_cell_length_c	21.395355
_cell_angle_alpha	90.021451
_cell_angle_beta	90.043940
_cell_angle_gamma	90.046383
loop_
_atom_site_label
_atom_site_type_symbol
_atom_site_fract_x
_atom_site_fract_y
_atom_site_fract_z
Zn1	Zn	0.957860	-0.250415	0.354573
Zn2	Zn	0.957763	-0.355667	0.249790
Zn3	Zn	0.853075	-0.250445	0.249774
Zn4	Zn	0.853045	-0.355680	0.354495
O5	O	0.905436	-0.303052	0.302158
O6	O	1.045525	-0.264359	0.340713
O7	O	0.943848	-0.341716	0.162110
O8	O	0.867029	-0.162351	0.263702
O9	O	1.045454	-0.341687	0.263729
O10	O	0.944014	-0.162330	0.340697
O11	O	0.866934	-0.264409	0.162098
O12	O	0.765393	-0.264422	0.263626
O13	O	0.866977	-0.341709	0.442183
O14	O	0.765371	-0.341738	0.340564
O15	O	0.943984	-0.264372	0.442240
O16	O	0.943819	-0.443758	0.263653
O17	O	0.866883	-0.443767	0.340579
C18	C	0.742648	-0.303085	0.302085
C19	C	0.673007	-0.303114	0.302069
C20	C	0.905354	-0.466603	0.302123
C21	C	0.905376	-0.536571	0.302129
C22	C	0.640299	-0.343426	0.342070
C23	C	0.574863	-0.343411	0.342098
C24	C	0.542139	-0.303090	0.302114
C25	C	0.574855	-0.262771	0.262109
C26	C	0.640289	-0.262783	0.262087
C27	C	0.438414	-0.298019	0.245709
C28	C	0.372981	-0.298011	0.245730
C29	C	0.340318	-0.303049	0.302183
C30	C	0.373096	-0.308108	0.358616
C31	C	0.438530	-0.308120	0.358594
C32	C	0.471186	-0.303072	0.302134
C33	C	0.236657	-0.343346	0.342218
C34	C	0.171221	-0.343326	0.342247
C35	C	0.171214	-0.262690	0.262252
C36	C	0.236649	-0.262706	0.262229
C37	C	0.269367	-0.303038	0.302211
C38	C	0.945472	-0.569412	0.262115
C39	C	0.945502	-0.635155	0.262129
C40	C	0.905424	-0.668054	0.302151
C41	C	0.865324	-0.635205	0.342173
C42	C	0.865301	-0.569464	0.342162
N43	N	0.850614	-0.771336	0.306903
N44	N	0.850638	-0.833787	0.306910
C45	C	0.905494	-0.866129	0.302187
N46	N	0.960325	-0.833659	0.297445
N47	N	0.960300	-0.771202	0.297435
C48	C	0.905445	-0.739339	0.302167
C49	C	0.945625	-0.970255	0.262186
C50	C	0.945656	-1.035999	0.262204
C51	C	0.865473	-1.036048	0.342245
C52	C	0.865448	-0.970305	0.342230
C53	C	0.905523	-0.937413	0.302197
C54	C	1.068859	-0.303019	0.302231
C55	C	1.138501	-0.303005	0.302262
C56	C	0.905488	-0.303039	0.465581
C57	C	0.905510	-0.303033	0.535223
C58	C	0.905535	-0.138861	0.302206
C59	C	0.905578	-0.068893	0.302227
C60	C	0.905420	-0.303019	0.139370
C61	C	0.905519	-0.302847	0.069729
C62	C	0.945606	-0.262762	0.567967
C63	C	0.945605	-0.262735	0.633402
C64	C	0.905515	-0.302991	0.666091
C65	C	0.865411	-0.343265	0.633339
C66	C	0.865409	-0.343286	0.567905
C67	C	0.900539	-0.359672	0.769752
C68	C	0.900546	-0.359652	0.835185
C69	C	0.905519	-0.302924	0.867912
C70	C	0.910498	-0.246215	0.835198
C71	C	0.910496	-0.246237	0.769763
C72	C	0.905513	-0.302972	0.737043
C73	C	0.945616	-0.262620	0.971608
C74	C	0.945611	-0.262592	1.037045
C75	C	0.865420	-0.343127	1.036981
C76	C	0.865422	-0.343150	0.971545
C77	C	0.905523	-0.302897	0.938863
H78	H	0.548227	-0.376237	0.374675
H79	H	0.465215	-0.312237	0.404544
N80	N	0.675591	-0.386913	0.385200
H81	H	0.702685	-0.416052	0.359676
H82	H	0.644901	-0.412406	0.410540
H83	H	0.832694	-0.661996	0.374760
N84	N	0.675577	-0.219309	0.218938
H85	H	0.702784	-0.190183	0.244446
H86	H	0.644884	-0.193801	0.193618
N87	N	0.822173	-0.386541	1.072228
H88	H	0.828257	-0.380416	1.118650
H89	H	0.831896	-0.431502	1.060798
H90	H	0.346503	-0.312209	0.404586
N91	N	0.988840	-0.219331	0.532719
H92	H	0.982753	-0.225450	0.486297
H93	H	1.033586	-0.229107	0.544183
N94	N	0.271952	-0.386842	0.385340
H95	H	0.241299	-0.412374	0.410690
H96	H	0.299161	-0.361267	0.414372
H97	H	0.914548	-0.200062	0.743130
N98	N	0.988853	-0.219298	0.668730
H99	H	1.014255	-0.193801	0.638096
H100	H	1.017830	-0.244913	0.695897
N101	N	0.135939	-0.386810	0.385391
H102	H	0.166597	-0.412362	0.410711
H103	H	0.108733	-0.415892	0.359835
N104	N	0.822167	-0.386732	0.532586
H105	H	0.828251	-0.380639	0.486174
H106	H	0.777425	-0.376940	0.543987
N107	N	0.135928	-0.219195	0.219129
H108	H	0.089511	-0.225302	0.225214
H109	H	0.147304	-0.228927	0.174359
N110	N	0.895175	-0.420813	0.870465
H111	H	0.895935	-0.412194	0.916882
H112	H	0.931388	-0.448955	0.859049
H113	H	0.978311	-1.062736	0.229621
H114	H	0.978105	-0.542633	0.229519
H115	H	0.346298	-0.293896	0.199778
N116	N	0.271932	-0.219223	0.219088
H117	H	0.241274	-0.193675	0.193763
H118	H	0.299027	-0.244802	0.190034
N119	N	0.473641	-0.292582	0.184817
H120	H	0.442949	-0.289381	0.149071
H121	H	0.500745	-0.330933	0.178920
N122	N	0.915868	-0.185025	0.870485
H123	H	0.915112	-0.193613	0.916901
H124	H	0.879654	-0.156891	0.859020
N125	N	0.988750	-0.670587	0.218970
H126	H	1.014135	-0.639774	0.193609
H127	H	0.963265	-0.697908	0.189951
H128	H	0.896322	-0.405855	0.743111
H129	H	0.548206	-0.229940	0.229555
H130	H	0.832795	-0.943565	0.374811
H131	H	0.832649	-0.542724	0.374747
N132	N	0.988847	-0.934772	0.219012
H133	H	1.014257	-0.965555	0.193667
H134	H	1.017819	-0.907444	0.244546
N135	N	0.822160	-0.386674	0.668592
H136	H	0.828244	-0.380548	0.715013
H137	H	0.831875	-0.431636	0.657162
N138	N	0.988855	-0.219142	1.072357
H139	H	1.033616	-0.228914	1.061005
H140	H	0.982719	-0.225247	1.118759
H141	H	0.978266	-0.229840	0.944997
N142	N	0.822165	-0.386584	0.936235
H143	H	0.831862	-0.431557	0.947626
H144	H	0.828256	-0.380439	0.889833
N145	N	0.822250	-1.071522	0.385418
H146	H	0.828349	-1.118153	0.379355
H147	H	0.777502	-1.060091	0.375609
