data_functionalizedCrystal
_audit_creation_method	'MofGen! by Chris Wilmer'
_symmetry_space_group_name_H-M	'P1'
_symmetry_Int_Tables_number	1
_symmetry_cell_setting	triclinic
loop_
_symmetry_equiv_pos_as_xyz
  x,y,z
_cell_length_a	15.297475
_cell_length_b	18.101397
_cell_length_c	15.298259
_cell_angle_alpha	80.283915
_cell_angle_beta	88.370891
_cell_angle_gamma	80.322482
loop_
_atom_site_label
_atom_site_type_symbol
_atom_site_fract_x
_atom_site_fract_y
_atom_site_fract_z
Zn1	Zn	1.253525	-0.369904	-0.726640
Zn2	Zn	1.278774	-0.518168	-0.580129
Zn3	Zn	1.132378	-0.377107	-0.554863
Zn4	Zn	1.107016	-0.476468	-0.701273
O5	O	1.192923	-0.435412	-0.640726
O6	O	1.379456	-0.404008	-0.728395
O7	O	1.280536	-0.519922	-0.454189
O8	O	1.148496	-0.272519	-0.577692
O9	O	1.398007	-0.512937	-0.620754
O10	O	1.237502	-0.267227	-0.703896
O11	O	1.172979	-0.416285	-0.435626
O12	O	1.006432	-0.375850	-0.553095
O13	O	1.105269	-0.441866	-0.827226
O14	O	0.987798	-0.448851	-0.660661
O15	O	1.212909	-0.363574	-0.845863
O16	O	1.255943	-0.616269	-0.596157
O17	O	1.129753	-0.585632	-0.685161
C18	C	0.965331	-0.408608	-0.601384
C19	C	0.867963	-0.397155	-0.584574
C20	C	0.554848	-0.517269	-0.760872
C21	C	0.646331	-0.528036	-0.776663
C22	C	0.701743	-0.495316	-0.728643
C23	C	0.665664	-0.451829	-0.664827
C24	C	0.574173	-0.441067	-0.649030
C25	C	0.721068	-0.419114	-0.616800
C26	C	0.684988	-0.375627	-0.552985
C27	C	0.593506	-0.364866	-0.537191
C28	C	0.538094	-0.397586	-0.585211
C29	C	0.812559	-0.429876	-0.632598
C30	C	0.831884	-0.353674	-0.520756
C31	C	0.740401	-0.342908	-0.504965
C32	C	1.192856	-0.627821	-0.640671
C33	C	1.192902	-0.710138	-0.640690
C34	C	1.193000	-1.009229	-0.640790
C35	C	1.272238	-0.997157	-0.584577
C36	C	1.272441	-0.911537	-0.584793
C37	C	1.192952	-0.860847	-0.640740
C38	C	1.202001	-0.879402	-0.737398
C39	C	1.202587	-0.965171	-0.737118
C40	C	1.104394	-0.970771	-0.601112
C41	C	1.105208	-0.885519	-0.599130
C42	C	1.192922	-0.776986	-0.640717
C43	C	1.193031	-1.093089	-0.640819
C44	C	1.421404	-0.462321	-0.680223
C45	C	1.518769	-0.473788	-0.697053
C46	C	1.153444	-0.397265	-0.869219
C47	C	1.136620	-0.381009	-0.966589
C48	C	1.193012	-0.242251	-0.640805
C49	C	1.193050	-0.159938	-0.640839
C50	C	1.313195	-0.551027	-1.279711
C51	C	1.328998	-0.566305	-1.188226
C52	C	1.280905	-0.519982	-1.132813
C53	C	1.217006	-0.458380	-1.168893
C54	C	1.201197	-0.443104	-1.260386
C55	C	1.168907	-0.412059	-1.113487
C56	C	1.105009	-0.350457	-1.149567
C57	C	1.089203	-0.335184	-1.241052
C58	C	1.137296	-0.381507	-1.296465
C59	C	1.184716	-0.427334	-1.021994
C60	C	1.072718	-0.319411	-1.002669
C61	C	1.056916	-0.304134	-1.094154
C62	C	1.232300	-0.473362	-0.413131
C63	C	1.249294	-0.489430	-0.315791
H64	H	0.509725	-0.543910	-0.799958
Cl65	Cl	0.857905	-0.484543	-0.712821
H66	H	1.381015	-0.616468	-1.158855
Cl67	Cl	1.012243	-0.261182	-0.933010
Cl68	Cl	0.548152	-0.310204	-0.456959
Cl69	Cl	1.265043	-0.504774	-0.976648
Cl70	Cl	1.266710	-1.043903	-0.474428
H71	H	1.352339	-0.588741	-1.324835
Cl72	Cl	1.013546	-0.980194	-0.664019
Cl73	Cl	1.117435	-0.362302	-1.411481
Cl74	Cl	0.976588	-0.226694	-1.139522
Cl75	Cl	1.008838	-0.257766	-1.286401
H76	H	0.877001	-0.327032	-0.481652
H77	H	0.711012	-0.307500	-0.453005
H78	H	0.776232	-0.504084	-0.741504
H79	H	0.675701	-0.563445	-0.828620
H80	H	1.293774	-0.532425	-1.058322
H81	H	1.268631	-0.900149	-0.513623
Cl82	Cl	1.116009	-0.975164	-0.805305
Cl83	Cl	1.373544	-1.038725	-0.626685
Cl84	Cl	0.423080	-0.384047	-0.565367
Cl85	Cl	1.301849	-1.003083	-0.786135
Cl86	Cl	1.374274	-0.888262	-0.627286
H87	H	1.145359	-0.844773	-0.781095
Cl88	Cl	1.094218	-0.868301	-0.489188
Cl89	Cl	1.086917	-1.017109	-0.492889
Cl90	Cl	1.300001	-0.853130	-0.786741
H91	H	1.044288	-0.850255	-0.635790
