data_functionalizedCrystal
_audit_creation_method	'MofGen! by Chris Wilmer'
_symmetry_space_group_name_H-M	'P1'
_symmetry_Int_Tables_number	1
_symmetry_cell_setting	triclinic
loop_
_symmetry_equiv_pos_as_xyz
  x,y,z
_cell_length_a	19.188905
_cell_length_b	19.188924
_cell_length_c	13.596369
_cell_angle_alpha	89.991944
_cell_angle_beta	89.987547
_cell_angle_gamma	83.138260
loop_
_atom_site_label
_atom_site_type_symbol
_atom_site_fract_x
_atom_site_fract_y
_atom_site_fract_z
O1	O	0.926154	0.087086	-0.081958
O2	O	1.426154	0.587086	0.418042
O3	O	0.722840	0.098838	-0.081925
O4	O	1.222840	0.598838	0.418075
O5	O	0.830367	-0.008694	-0.081931
O6	O	1.330367	0.491306	0.418069
O7	O	0.818628	0.194619	-0.081952
O8	O	1.318628	0.694619	0.418048
O9	O	0.830357	-0.008700	0.081652
O10	O	1.330357	0.491300	0.581652
O11	O	0.722830	0.098833	0.081658
O12	O	1.222830	0.598833	0.581658
O13	O	0.926144	0.087080	0.081625
O14	O	1.426144	0.587080	0.581625
Zn15	Zn	0.824485	0.092956	0.107614
Zn16	Zn	1.324485	0.592956	0.607614
Zn17	Zn	0.824499	0.092963	-0.107914
Zn18	Zn	1.324499	0.592963	0.392086
O19	O	0.818617	0.194613	0.081631
O20	O	1.318617	0.694613	0.581631
C21	C	0.696824	0.098458	-0.000129
C22	C	1.196824	0.598458	0.499871
C23	C	0.619318	0.097324	-0.000116
C24	C	1.119318	0.597324	0.499884
C25	C	0.582932	0.096783	-0.089288
C26	C	1.082932	0.596783	0.410712
C27	C	0.510109	0.095710	-0.089300
C28	C	1.010109	0.595710	0.410700
C29	C	0.473676	0.095164	-0.000135
C30	C	0.973676	0.595164	0.499865
C31	C	0.510070	0.095710	0.089048
C32	C	1.010070	0.595710	0.589048
C33	C	0.582891	0.096790	0.089058
C34	C	1.082891	0.596790	0.589058
N35	N	0.364652	0.053733	0.066226
N36	N	0.864652	0.553733	0.566226
N37	N	0.295475	0.052706	0.066210
N38	N	0.795475	0.552706	0.566210
C39	C	0.254269	0.091911	-0.000159
C40	C	0.754269	0.591911	0.499841
N41	N	0.284855	0.132175	-0.066527
N42	N	0.784855	0.632175	0.433473
N43	N	0.354038	0.133199	-0.066515
N44	N	0.854038	0.633199	0.433485
C45	C	0.394713	0.093993	-0.000136
C46	C	0.894713	0.593993	0.499864
C47	C	0.138920	0.090207	-0.089349
C48	C	0.638920	0.590207	0.410651
C49	C	0.066094	0.089139	-0.089358
C50	C	0.566094	0.589139	0.410642
C51	C	0.066058	0.089132	0.088993
C52	C	0.566058	0.589132	0.588993
C53	C	0.138881	0.090207	0.088998
C54	C	0.638881	0.590207	0.588998
C55	C	0.175308	0.090742	-0.000175
C56	C	0.675308	0.590742	0.499825
C57	C	0.829982	-0.034708	-0.000138
C58	C	1.329982	0.465292	0.499862
C59	C	0.828844	-0.112213	-0.000136
C60	C	1.328844	0.387787	0.499864
C61	C	0.828318	-0.148609	-0.089305
C62	C	1.328318	0.351391	0.410695
C63	C	0.827238	-0.221431	-0.089312
C64	C	1.327238	0.278569	0.410688
C65	C	0.826698	-0.257857	-0.000145
C66	C	1.326698	0.242143	0.499855
C67	C	0.827220	-0.221452	0.089036
C68	C	1.327220	0.278548	0.589036
C69	C	0.828293	-0.148630	0.089041
C70	C	1.328293	0.351370	0.589041
N71	N	0.864742	-0.377526	0.066214
N72	N	1.364742	0.122474	0.566214
N73	N	0.863724	-0.446704	0.066203
N74	N	1.363724	0.053296	0.566203
C75	C	0.823464	-0.477266	-0.000154
C76	C	1.323464	0.022734	0.499846
N77	N	0.784268	-0.436037	-0.066515
N78	N	1.284268	0.063963	0.433485
N79	N	0.785289	-0.366853	-0.066507
N80	N	1.285289	0.133147	0.433493
C81	C	0.825534	-0.336821	-0.000140
C82	C	1.325534	0.163179	0.499860
C83	C	0.821766	-0.592624	-0.089337
C84	C	1.321766	-0.092624	0.410663
C85	C	0.820682	-0.665448	-0.089341
C86	C	1.320682	-0.165448	0.410659
C87	C	0.820671	-0.665468	0.089010
C88	C	1.320671	-0.165468	0.589010
C89	C	0.821748	-0.592645	0.089011
C90	C	1.321748	-0.092645	0.589011
C91	C	0.822299	-0.556228	-0.000165
C92	C	1.322299	-0.056228	0.499835
C93	C	0.952160	0.087461	-0.000173
C94	C	1.452160	0.587461	0.499827
C95	C	1.029666	0.088594	-0.000192
C96	C	1.529666	0.588594	0.499808
C97	C	0.819002	0.220627	-0.000164
C98	C	1.319002	0.720627	0.499836
C99	C	0.820141	0.298132	-0.000173
C100	C	1.320141	0.798132	0.499827
N101	N	0.824481	0.092950	0.254706
N102	N	1.324481	0.592950	0.754706
N103	N	0.824509	0.092963	-0.255006
N104	N	1.324509	0.592963	0.244994
C105	C	0.824498	0.092964	0.655997
C106	C	1.324498	0.592964	1.155997
C107	C	0.824491	0.092962	0.544345
C108	C	1.324491	0.592962	1.044345
C109	C	0.824490	0.092957	0.455355
C110	C	1.324490	0.592957	0.955355
C111	C	0.824482	0.092955	0.343696
C112	C	1.324482	0.592955	0.843696
H113	H	0.612516	0.097231	0.161674
H114	H	1.112516	0.597231	0.661674
H115	H	0.826778	-0.251115	0.161636
H116	H	1.326778	0.248885	0.661636
H117	H	0.822211	-0.562971	-0.161950
H118	H	1.322211	-0.062971	0.338050
C119	C	0.828171	-0.155966	0.265330
C120	C	1.328171	0.344034	0.765330
C121	C	0.828875	-0.108620	0.187063
C122	C	1.328875	0.391380	0.687063
H123	H	0.828535	-0.131264	0.325844
H124	H	1.328535	0.368736	0.825844
H125	H	0.787047	-0.178912	0.261625
H126	H	1.287047	0.321088	0.761625
H127	H	0.868461	-0.189826	0.261608
H128	H	1.368461	0.310174	0.761608
H129	H	0.788582	-0.074763	0.190780
H130	H	1.288582	0.425237	0.690780
H131	H	0.870003	-0.085663	0.190770
H132	H	1.370003	0.414337	0.690770
C133	C	0.228798	0.031405	0.192471
C134	C	0.728798	0.531405	0.692471
C135	C	0.178883	0.090791	0.187020
C136	C	0.678883	0.590791	0.687020
H137	H	0.253495	0.031770	0.252986
H138	H	0.753495	0.531770	0.752986
H139	H	0.205845	-0.009714	0.188766
H140	H	0.705845	0.490286	0.688766
H141	H	0.260912	0.031892	0.139364
H142	H	0.760912	0.531892	0.639364
H143	H	0.146766	0.090302	0.240123
H144	H	0.646766	0.590302	0.740123
H145	H	0.201838	0.131921	0.190734
H146	H	0.701838	0.631921	0.690734
H147	H	0.036394	0.088692	0.161592
H148	H	0.536394	0.588692	0.661592
C149	C	0.760377	-0.679802	-0.241370
C150	C	1.260377	-0.179802	0.258630
C151	C	0.820111	-0.705453	-0.187368
C152	C	1.320111	-0.205453	0.312632
H153	H	0.760031	-0.704497	-0.301891
H154	H	1.260031	-0.204497	0.198109
H155	H	0.719494	-0.686294	-0.204740
H156	H	1.219494	-0.186294	0.295260
H157	H	0.761103	-0.631218	-0.254114
H158	H	1.261103	-0.131218	0.245886
H159	H	0.819382	-0.754036	-0.174617
H160	H	1.319382	-0.254036	0.325383
H161	H	0.861004	-0.698967	-0.224005
H162	H	1.361004	-0.198967	0.275995
H163	H	0.820225	-0.695125	0.161611
H164	H	1.320225	-0.195125	0.661611
C165	C	0.768605	-0.118226	-0.241281
C166	C	1.268605	0.381774	0.258719
C167	C	0.828883	-0.108618	-0.187361
C168	C	1.328883	0.391382	0.312639
H169	H	0.768943	-0.093544	-0.301824
H170	H	1.268943	0.406456	0.198176
H171	H	0.767907	-0.166810	-0.253977
H172	H	1.267907	0.333190	0.246023
H173	H	0.728086	-0.100828	-0.204613
H174	H	1.228086	0.399172	0.295387
H175	H	0.869402	-0.126020	-0.224026
H176	H	1.369402	0.373980	0.275974
H177	H	0.829587	-0.060023	-0.174668
H178	H	1.329587	0.439977	0.325332
C179	C	0.575649	0.096677	-0.265579
C180	C	1.075649	0.596677	0.234421
C181	C	0.622971	0.097377	-0.187306
C182	C	1.122971	0.597377	0.312694
H183	H	0.600369	0.097049	-0.326090
H184	H	1.100369	0.597049	0.173910
H185	H	0.552705	0.055551	-0.261866
H186	H	1.052705	0.555551	0.238134
H187	H	0.541785	0.136965	-0.261870
H188	H	1.041785	0.636965	0.238130
H189	H	0.656832	0.057087	-0.191011
H190	H	1.156832	0.557087	0.308989
H191	H	0.645926	0.138508	-0.191021
H192	H	1.145926	0.638508	0.308979
C193	C	0.420186	0.154496	-0.192785
C194	C	0.920186	0.654496	0.307215
C195	C	0.470101	0.095111	-0.187323
C196	C	0.970101	0.595111	0.312677
H197	H	0.395492	0.154127	-0.253302
H198	H	0.895492	0.654127	0.246698
H199	H	0.388075	0.154016	-0.139685
H200	H	0.888075	0.654016	0.360315
H201	H	0.443143	0.195621	-0.189088
H202	H	0.943143	0.695621	0.310912
H203	H	0.447143	0.053987	-0.191012
H204	H	0.947143	0.553987	0.308988
H205	H	0.502216	0.095585	-0.240437
H206	H	1.002216	0.595585	0.259563
C207	C	0.436207	0.034475	0.192509
C208	C	0.936207	0.534475	0.692509
C209	C	0.470028	0.095106	0.187062
C210	C	0.970028	0.595106	0.687062
H211	H	0.411492	0.034103	0.253025
H212	H	0.911492	0.534103	0.753025
H213	H	0.404114	0.034004	0.139406
H214	H	0.904114	0.534004	0.639406
H215	H	0.470083	-0.005804	0.188808
H216	H	0.970083	0.494196	0.688808
H217	H	0.436152	0.135384	0.190755
H218	H	0.936152	0.635384	0.690755
H219	H	0.502124	0.095583	0.240180
H220	H	1.002124	0.595583	0.740180
C221	C	0.131641	0.090124	-0.265641
C222	C	0.631641	0.590124	0.234359
C223	C	0.178963	0.090813	-0.187366
C224	C	0.678963	0.590813	0.312634
H225	H	0.156362	0.090505	-0.326151
H226	H	0.656362	0.590505	0.173849
H227	H	0.108697	0.048998	-0.261941
H228	H	0.608697	0.548998	0.238059
H229	H	0.097778	0.130412	-0.261922
H230	H	0.597778	0.630412	0.238078
H231	H	0.212824	0.050523	-0.191080
H232	H	0.712824	0.550523	0.308920
H233	H	0.201919	0.131944	-0.191067
H234	H	0.701919	0.631944	0.308933
C235	C	-0.023812	0.147936	-0.192853
C236	C	0.476188	0.647936	0.307147
C237	C	0.026097	0.088547	-0.187385
C238	C	0.526097	0.588547	0.312615
H239	H	-0.048500	0.147572	-0.253375
H240	H	0.451500	0.647572	0.246625
H241	H	-0.055928	0.147458	-0.139759
H242	H	0.444072	0.647458	0.360241
H243	H	-0.000850	0.189057	-0.189148
H244	H	0.499150	0.689057	0.310852
H245	H	0.003135	0.047425	-0.191082
H246	H	0.503135	0.547425	0.308918
H247	H	0.058218	0.089018	-0.240494
H248	H	0.558218	0.589018	0.259506
H249	H	0.822182	-0.563012	0.161622
H250	H	1.322182	-0.063012	0.661622
H251	H	0.826806	-0.251070	-0.161927
H252	H	1.326806	0.248930	0.338073
