data_functionalizedCrystal
_audit_creation_method	'MofGen! by Chris Wilmer'
_symmetry_space_group_name_H-M	'P1'
_symmetry_Int_Tables_number	1
_symmetry_cell_setting	triclinic
loop_
_symmetry_equiv_pos_as_xyz
  x,y,z
_cell_length_a	14.971486
_cell_length_b	16.109304
_cell_length_c	14.048226
_cell_angle_alpha	89.996377
_cell_angle_beta	89.998499
_cell_angle_gamma	83.538383
loop_
_atom_site_label
_atom_site_type_symbol
_atom_site_fract_x
_atom_site_fract_y
_atom_site_fract_z
O1	O	1.186792	0.108348	-0.079045
O2	O	1.686792	0.608348	0.420955
O3	O	0.926373	0.121322	-0.079070
O4	O	1.426373	0.621322	0.420930
O5	O	1.063735	-0.006187	-0.079057
O6	O	1.563735	0.493813	0.420943
O7	O	1.049430	0.235857	-0.079058
O8	O	1.549430	0.735857	0.420942
O9	O	1.063719	-0.006194	0.079264
O10	O	1.563719	0.493806	0.579264
O11	O	0.926357	0.121315	0.079251
O12	O	1.426357	0.621315	0.579251
O13	O	1.186775	0.108340	0.079276
O14	O	1.686775	0.608340	0.579276
Zn15	Zn	1.056563	0.114826	0.104401
Zn16	Zn	1.556563	0.614826	0.604401
Zn17	Zn	1.056585	0.114836	-0.104195
Zn18	Zn	1.556585	0.614836	0.395805
O19	O	1.049413	0.235849	0.079263
O20	O	1.549413	0.735849	0.579263
C21	C	0.893041	0.120738	0.000087
C22	C	1.393041	0.620738	0.500087
C23	C	0.793746	0.119000	0.000077
C24	C	1.293746	0.619000	0.500077
C25	C	0.736414	0.193908	0.000078
C26	C	1.236414	0.693908	0.500078
C27	C	0.643117	0.192269	0.000093
C28	C	1.143117	0.692269	0.500093
C29	C	0.607154	0.115721	0.000099
C30	C	1.107154	0.615721	0.500099
C31	C	0.664494	0.040807	0.000100
C32	C	1.164494	0.540807	0.500100
C33	C	0.757789	0.042447	0.000093
C34	C	1.257789	0.542447	0.500093
C35	C	0.470036	0.037395	0.000114
C36	C	0.970036	0.537395	0.500114
C37	C	0.376735	0.035755	0.000119
C38	C	0.876735	0.535755	0.500119
C39	C	0.355364	0.187217	0.000113
C40	C	0.855364	0.687217	0.500113
C41	C	0.448659	0.188857	0.000106
C42	C	0.948659	0.688857	0.500106
C43	C	0.505993	0.113942	0.000106
C44	C	1.005993	0.613942	0.500106
C45	C	1.063147	-0.037166	0.000101
C46	C	1.563147	0.462834	0.500101
C47	C	1.061408	-0.129464	0.000094
C48	C	1.561408	0.370536	0.500094
C49	C	1.057401	-0.341802	-0.086203
C50	C	1.557401	0.158198	0.413797
C51	C	1.055759	-0.428524	-0.086203
C52	C	1.555759	0.071476	0.413797
C53	C	1.055745	-0.428529	0.086408
C54	C	1.555745	0.071471	0.586408
C55	C	1.057381	-0.341808	0.086406
C56	C	1.557381	0.158192	0.586406
C57	C	1.058213	-0.298447	0.000098
C58	C	1.558213	0.201553	0.500098
C59	C	1.054936	-0.471891	0.000100
C60	C	1.554936	0.028109	0.500100
C61	C	1.053156	-0.565919	0.000101
C62	C	1.553156	-0.065919	0.500101
C63	C	1.059991	-0.204413	0.000096
C64	C	1.559991	0.295587	0.500096
C65	C	1.220108	0.108924	0.000117
C66	C	1.720108	0.608924	0.500117
C67	C	1.319402	0.110663	0.000120
C68	C	1.819402	0.610663	0.500120
C69	C	1.050002	0.266829	0.000103
C70	C	1.550002	0.766829	0.500103
C71	C	1.051740	0.359126	0.000103
C72	C	1.551740	0.859126	0.500103
N73	N	1.056555	0.114819	0.246761
N74	N	1.556555	0.614819	0.746761
N75	N	1.056601	0.114837	-0.246555
N76	N	1.556601	0.614837	0.253445
C77	C	1.117398	0.058381	0.296585
C78	C	1.617398	0.558381	0.796585
C79	C	1.117404	0.058381	0.396243
C80	C	1.617404	0.558381	0.896243
C81	C	1.056571	0.114823	0.446075
C82	C	1.556571	0.614823	0.946075
C83	C	0.995721	0.171263	0.396244
C84	C	1.495721	0.671263	0.896244
C85	C	0.995712	0.171259	0.296588
C86	C	1.495712	0.671259	0.796588
C87	C	0.995747	0.171269	0.603958
C88	C	1.495747	0.671269	1.103958
C89	C	0.995758	0.171275	0.703621
C90	C	1.495758	0.671275	1.203621
C91	C	1.117440	0.058391	0.703613
C92	C	1.617440	0.558391	1.203613
C93	C	1.117430	0.058387	0.603957
C94	C	1.617430	0.558387	1.103957
C95	C	1.056581	0.114829	0.554133
C96	C	1.556581	0.614829	1.054133
H97	H	0.765687	0.256242	0.000073
H98	H	1.265687	0.756242	0.500073
F99	F	1.054892	-0.474661	-0.178056
F100	F	1.554892	0.025339	0.321944
H101	H	0.946166	0.217215	0.256023
H102	H	1.446166	0.717215	0.756023
H103	H	1.055070	-0.463844	0.156677
H104	H	1.555070	0.036156	0.656677
F105	F	1.058237	-0.295663	0.178265
F106	F	1.558237	0.204337	0.678265
F107	F	0.338463	-0.045716	0.000150
F108	F	0.838463	0.454284	0.500150
H109	H	0.596440	0.253267	0.000093
H110	H	1.096440	0.753267	0.500093
H111	H	1.166939	0.012423	0.256018
H112	H	1.666939	0.512423	0.756018
H113	H	0.516716	-0.023609	0.000115
H114	H	1.016716	0.476391	0.500115
H115	H	1.166946	0.012424	0.436809
H116	H	1.666946	0.512424	0.936809
F117	F	1.182180	-0.001679	0.550921
F118	F	1.682180	0.498321	1.050921
H119	H	1.166984	0.012434	0.744185
H120	H	1.666984	0.512434	1.244185
H121	H	0.946195	0.217228	0.563395
H122	H	1.446195	0.717228	1.063395
H123	H	0.946185	0.217217	0.436823
H124	H	1.446185	0.717217	0.936823
H125	H	0.477937	0.251189	0.000092
H126	H	0.977937	0.751189	0.500092
H127	H	0.804469	-0.018551	0.000092
H128	H	1.304469	0.481449	0.500092
F129	F	0.294345	0.266947	0.000115
F130	F	0.794345	0.766947	0.500115
F131	F	1.058283	-0.295656	-0.178060
F132	F	1.558283	0.204344	0.321940
F133	F	0.626217	-0.040661	0.000113
F134	F	1.126217	0.459339	0.500113
F135	F	0.931009	0.231347	0.756649
F136	F	1.431009	0.731347	1.256649
