data_functionalizedCrystal
_audit_creation_method	'MofGen! by Chris Wilmer'
_symmetry_space_group_name_H-M	'P1'
_symmetry_Int_Tables_number	1
_symmetry_cell_setting	triclinic
loop_
_symmetry_equiv_pos_as_xyz
  x,y,z
_cell_length_a	19.805407
_cell_length_b	17.077402
_cell_length_c	19.805383
_cell_angle_alpha	90.101171
_cell_angle_beta	89.933940
_cell_angle_gamma	89.977117
loop_
_atom_site_label
_atom_site_type_symbol
_atom_site_fract_x
_atom_site_fract_y
_atom_site_fract_z
Zn1	Zn	1.035063	0.311955	-0.382721
Zn2	Zn	1.034893	0.443393	-0.269533
Zn3	Zn	0.921786	0.312146	-0.269546
Zn4	Zn	0.921848	0.443183	-0.382680
O5	O	0.978397	0.377669	-0.326120
O6	O	1.129757	0.329399	-0.367719
O7	O	1.019792	0.426151	-0.174818
O8	O	0.936857	0.202273	-0.284581
O9	O	1.129632	0.425966	-0.284560
O10	O	1.020082	0.202133	-0.367731
O11	O	0.936692	0.329724	-0.174827
O12	O	0.827077	0.329520	-0.284541
O13	O	0.936964	0.425607	-0.477403
O14	O	0.827123	0.425792	-0.367661
O15	O	1.020142	0.329195	-0.477433
O16	O	1.019852	0.553212	-0.284520
O17	O	0.936799	0.553058	-0.367648
C18	C	0.978332	0.581617	-0.326093
C19	C	0.978366	0.668867	-0.326104
C20	C	0.802541	0.377654	-0.326098
C21	C	0.727309	0.377667	-0.326105
C22	C	0.978579	0.377356	-0.502663
C23	C	0.978656	0.377223	-0.577896
C24	C	0.692007	0.427871	-0.369315
C25	C	0.621318	0.427873	-0.369325
C26	C	0.585934	0.377673	-0.326120
C27	C	0.621241	0.327462	-0.282908
C28	C	0.691929	0.327458	-0.282902
C29	C	0.336168	0.327480	-0.282930
C30	C	0.265476	0.327490	-0.282938
C31	C	0.265558	0.427895	-0.369353
C32	C	0.336245	0.427890	-0.369347
C33	C	0.371546	0.377677	-0.326138
C34	C	0.448195	0.377675	-0.326129
C35	C	0.509287	0.377678	-0.326125
C36	C	1.154940	0.377685	-0.326142
C37	C	1.230172	0.377691	-0.326152
C38	C	0.978481	0.172925	-0.326162
C39	C	0.978517	0.085675	-0.326180
C40	C	1.021656	0.709911	-0.282866
C41	C	1.021689	0.791892	-0.282883
C42	C	0.978428	0.832826	-0.326136
C43	C	0.935136	0.791776	-0.369379
C44	C	0.935107	0.709797	-0.369365
C45	C	0.935199	0.962646	-0.369405
C46	C	0.935227	1.044630	-0.369419
C47	C	1.021781	1.044741	-0.282923
C48	C	1.021752	0.962762	-0.282909
C49	C	0.978459	0.921717	-0.326151
C50	C	0.978256	0.377924	-0.150264
C51	C	0.978310	0.377837	-0.075032
C52	C	0.935345	0.428354	-0.039488
C53	C	0.935391	0.428265	0.031200
C54	C	0.978406	0.377661	0.066343
C55	C	1.021373	0.327138	0.030795
C56	C	1.021323	0.327224	-0.039892
C57	C	1.021576	0.326789	0.315867
C58	C	1.021625	0.326709	0.386559
C59	C	0.935645	0.427830	0.386960
C60	C	0.935594	0.427916	0.316273
C61	C	0.978558	0.377390	0.280730
C62	C	0.978507	0.377487	0.204082
C63	C	0.978462	0.377568	0.142990
H64	H	0.720812	0.468753	-0.404495
H65	H	0.899915	0.825111	-0.404599
C66	C	0.582321	0.272241	-0.235381
C67	C	0.504568	0.272247	-0.235381
C68	C	0.465649	0.217027	-0.187852
C69	C	0.504483	0.161801	-0.140322
C70	C	0.582240	0.161793	-0.140320
C71	C	0.621159	0.217013	-0.187850
H72	H	0.475816	0.313131	-0.270568
H73	H	0.408087	0.217033	-0.187853
H74	H	0.475673	0.120924	-0.105137
H75	H	0.610992	0.120910	-0.105134
H76	H	0.678721	0.217007	-0.187848
C77	C	0.887574	0.917497	-0.416971
C78	C	0.916889	0.860990	-0.470131
C79	C	0.869263	0.815841	-0.517693
C80	C	0.792321	0.827200	-0.512094
C81	C	0.763002	0.883710	-0.458931
C82	C	0.810628	0.928858	-0.411370
H83	H	0.973850	0.852579	-0.474278
H84	H	0.890967	0.774009	-0.557047
H85	H	0.757065	0.793778	-0.547302
H86	H	0.706041	0.892120	-0.454784
H87	H	0.788924	0.970690	-0.372015
C88	C	0.730766	0.272232	-0.235371
C89	C	0.721078	0.182996	-0.241037
C90	C	0.759915	0.127765	-0.193509
C91	C	0.808440	0.161769	-0.140315
C92	C	0.818130	0.251009	-0.134647
C93	C	0.779293	0.306240	-0.182175
H94	H	0.685155	0.157820	-0.280416
H95	H	0.752741	0.061703	-0.197705
H96	H	0.837190	0.120883	-0.105131
H97	H	0.854053	0.276184	-0.095267
H98	H	0.786467	0.372302	-0.177979
H99	H	0.592578	0.468755	-0.404510
H100	H	0.899857	0.676379	-0.404575
C101	C	0.888029	0.484024	-0.078142
C102	C	0.840768	0.539591	-0.039041
C103	C	0.793451	0.595262	-0.077693
C104	C	0.793395	0.595365	-0.155446
C105	C	0.840658	0.539796	-0.194551
C106	C	0.887975	0.484125	-0.155899
H107	H	0.840808	0.539516	0.018520
H108	H	0.758464	0.636398	-0.048744
H109	H	0.758368	0.636576	-0.184058
H110	H	0.840619	0.539870	-0.252112
H111	H	0.922963	0.442989	-0.184848
H112	H	1.056307	0.286084	-0.068831
H113	H	1.056881	0.676588	-0.247641
H114	H	0.900412	0.469410	0.060137
H115	H	0.900659	0.468968	0.415907
H116	H	0.900569	0.469125	0.287663
H117	H	0.900013	1.077957	-0.404652
C118	C	1.068940	0.271036	0.425218
C119	C	1.122315	0.304545	0.473795
C120	C	1.169628	0.248876	0.512454
C121	C	1.163566	0.159699	0.502538
C122	C	1.110189	0.126186	0.453960
C123	C	1.062876	0.181854	0.415300
H124	H	1.126804	0.370563	0.481137
H125	H	1.209141	0.273686	0.548415
H126	H	1.198590	0.118490	0.531156
H127	H	1.105700	0.060168	0.446617
H128	H	1.023363	0.157045	0.379339
H129	H	1.056940	0.825307	-0.247673
H130	H	1.056975	0.929433	-0.247685
C131	C	1.068836	0.271213	0.276776
C132	C	1.116152	0.215553	0.315434
C133	C	1.163413	0.159973	0.276340
C134	C	1.163359	0.160053	0.198587
C135	C	1.116042	0.215715	0.159924
C136	C	1.068781	0.271296	0.199019
H137	H	1.116193	0.215492	0.372996
H138	H	1.198440	0.118768	0.304961
H139	H	1.198345	0.118910	0.169647
H140	H	1.116001	0.215777	0.102363
H141	H	1.033753	0.312500	0.170398
H142	H	0.236807	0.468778	-0.404538
H143	H	1.057034	1.078163	-0.247715
H144	H	0.365052	0.468771	-0.404526
H145	H	1.056394	0.285932	0.059414
C146	C	0.226551	0.272262	-0.235414
C147	C	0.177881	0.306276	-0.182223
C148	C	0.138956	0.251053	-0.134702
C149	C	0.148700	0.161815	-0.140371
C150	C	0.197371	0.127796	-0.193564
C151	C	0.236297	0.183019	-0.241085
H152	H	0.170666	0.372340	-0.178025
H153	H	0.102926	0.276236	-0.095325
H154	H	0.119885	0.120935	-0.105193
H155	H	0.204587	0.061732	-0.197763
H156	H	0.272327	0.157836	-0.280462
H157	H	0.364902	0.286599	-0.247741
