data_functionalizedCrystal
_audit_creation_method	'MofGen! by Chris Wilmer'
_symmetry_space_group_name_H-M	'P1'
_symmetry_Int_Tables_number	1
_symmetry_cell_setting	triclinic
loop_
_symmetry_equiv_pos_as_xyz
  x,y,z
_cell_length_a	14.971490
_cell_length_b	13.330367
_cell_length_c	14.971486
_cell_angle_alpha	90.004849
_cell_angle_beta	96.385112
_cell_angle_gamma	89.990111
loop_
_atom_site_label
_atom_site_type_symbol
_atom_site_fract_x
_atom_site_fract_y
_atom_site_fract_z
O1	O	-1.186947	0.083478	0.116578
O2	O	-0.686947	0.583478	0.616578
O3	O	-0.926547	0.083468	0.130533
O4	O	-0.426547	0.583468	0.630533
O5	O	-1.063726	0.083466	-0.006644
O6	O	-0.563726	0.583466	0.493356
O7	O	-1.049767	0.083480	0.253756
O8	O	-0.549767	0.583480	0.753756
O9	O	-1.063706	-0.083381	-0.006647
O10	O	-0.563706	0.416619	0.493353
O11	O	-0.926527	-0.083379	0.130530
O12	O	-0.426527	0.416621	0.630530
O13	O	-1.186927	-0.083369	0.116575
O14	O	-0.686927	0.416631	0.616575
Cu15	Cu	-1.056725	-0.098608	0.123552
Cu16	Cu	-0.556725	0.401392	0.623552
Cu17	Cu	-1.056749	0.098708	0.123556
Cu18	Cu	-0.556749	0.598708	0.623556
O19	O	-1.049748	-0.083367	0.253752
O20	O	-0.549748	0.416633	0.753752
C21	C	-0.893212	0.000044	0.129907
C22	C	-0.393212	0.500044	0.629907
C23	C	-0.793915	0.000040	0.128035
C24	C	-0.293915	0.500040	0.628035
N25	N	-1.056715	-0.237390	0.123549
N26	N	-0.556715	0.262610	0.623549
C27	C	-0.366220	0.091007	0.119959
C28	C	0.133780	0.591007	0.619959
C29	C	-0.459521	0.091004	0.121715
C30	C	0.040479	0.591004	0.621715
C31	C	-0.506156	0.000053	0.122597
C32	C	-0.006156	0.500053	0.622597
C33	C	-0.459487	-0.090902	0.121714
C34	C	0.040513	0.409098	0.621714
C35	C	-0.366189	-0.090898	0.119951
C36	C	0.133811	0.409102	0.619951
C37	C	-0.653949	-0.090904	0.125390
C38	C	-0.153949	0.409096	0.625390
C39	C	-0.747253	-0.090908	0.127155
C40	C	-0.247253	0.409092	0.627155
C41	C	-0.747280	0.090998	0.127154
C42	C	-0.247280	0.590998	0.627154
C43	C	-0.653983	0.091002	0.125391
C44	C	-0.153983	0.591002	0.625391
C45	C	-0.607320	0.000047	0.124510
C46	C	-0.107320	0.500047	0.624510
C47	C	-0.996003	-0.710012	0.184274
C48	C	-0.496003	-0.210012	0.684274
C49	C	-1.117518	-0.709981	0.062831
C50	C	-0.617518	-0.209981	0.562831
C51	C	-1.117508	-0.604963	0.062828
C52	C	-0.617508	-0.104963	0.562828
C53	C	-1.056745	-0.552464	0.123550
C54	C	-0.556745	-0.052464	0.623550
C55	C	-0.995993	-0.604984	0.184275
C56	C	-0.495993	-0.104984	0.684275
C57	C	-1.178266	-0.552436	0.002110
C58	C	-0.678266	-0.052436	0.502110
C59	C	-1.178259	-0.447411	0.002105
C60	C	-0.678259	0.052589	0.502105
C61	C	-1.117491	-0.394910	0.062824
C62	C	-0.617491	0.105090	0.562824
C63	C	-1.056735	-0.447436	0.123551
C64	C	-0.556735	0.052564	0.623551
C65	C	-0.995973	-0.394937	0.184273
C66	C	-0.495973	0.105063	0.684273
C67	C	-0.935212	-0.447461	0.244997
C68	C	-0.435212	0.052539	0.744997
C69	C	-0.935225	-0.552483	0.244994
C70	C	-0.435225	-0.052483	0.744994
C71	C	-1.117478	-0.289889	0.062827
C72	C	-0.617478	0.210111	0.562827
C73	C	-0.995962	-0.289909	0.184274
C74	C	-0.495962	0.210091	0.684274
C75	C	-0.220261	0.000056	0.117202
C76	C	0.279739	0.500056	0.617202
C77	C	-0.319558	0.000059	0.119078
C78	C	0.180442	0.500059	0.619078
C79	C	-1.063092	0.000043	-0.039971
C80	C	-0.563092	0.500043	0.460029
C81	C	-1.061221	0.000044	-0.139268
C82	C	-0.561221	0.500044	0.360732
N83	N	-1.056766	0.237489	0.123552
N84	N	-0.556766	0.737489	0.623552
C85	C	-1.141810	0.000046	-0.196492
C86	C	-0.641810	0.500046	0.303508
C87	C	-1.140047	0.000056	-0.289791
C88	C	-0.640047	0.500056	0.210209
C89	C	-1.057694	0.000057	-0.325865
C90	C	-0.557694	0.500057	0.174135
C91	C	-0.977099	0.000058	-0.268633
C92	C	-0.477099	0.500058	0.231367
C93	C	-0.978863	0.000055	-0.175336
C94	C	-0.478863	0.500055	0.324664
C95	C	-0.973428	0.000061	-0.463096
C96	C	-0.473428	0.500061	0.036904
C97	C	-0.971663	0.000062	-0.556400
C98	C	-0.471663	0.500062	-0.056400
C99	C	-1.134612	0.000063	-0.577552
C100	C	-0.634612	0.500063	-0.077552
C101	C	-1.136376	0.000060	-0.484254
C102	C	-0.636376	0.500060	0.015746
C103	C	-1.055780	0.000059	-0.427029
C104	C	-0.555780	0.500059	0.072971
C105	C	-1.050382	0.000059	0.287079
C106	C	-0.550382	0.500059	0.787079
C107	C	-1.052252	0.000064	0.386376
C108	C	-0.552252	0.500064	0.886376
H109	H	-0.497510	0.165063	0.122426
H110	H	0.002490	0.665063	0.622426
H111	H	-1.166952	-0.247128	0.013391
H112	H	-0.666952	0.252872	0.513391
C113	C	-1.184352	-0.767727	-0.003958
C114	C	-0.684352	-0.267727	0.496042
H115	H	-1.175654	-0.837797	0.004736
H116	H	-0.675654	-0.337797	0.504736
H117	H	-1.244053	-0.750495	0.005851
H118	H	-0.744053	-0.250495	0.505851
H119	H	-1.174567	-0.750528	-0.063674
H120	H	-0.674567	-0.250528	0.436326
C121	C	-0.929127	-0.232164	0.251071
C122	C	-0.429127	0.267836	0.751071
H123	H	-0.937819	-0.162093	0.242376
H124	H	-0.437819	0.337907	0.742376
H125	H	-0.938901	-0.249372	0.310783
H126	H	-0.438901	0.250628	0.810783
H127	H	-0.869422	-0.249390	0.241251
H128	H	-0.369422	0.250610	0.741251
H129	H	-0.497465	-0.164956	0.122427
H130	H	0.002535	0.335044	0.622427
C131	C	-0.868378	-0.389706	0.311788
C132	C	-0.368378	0.110294	0.811788
H133	H	-0.877078	-0.319637	0.303086
H134	H	-0.377078	0.180363	0.803086
H135	H	-0.878148	-0.406908	0.371502
H136	H	-0.378148	0.093092	0.871502
H137	H	-0.808673	-0.406927	0.301967
H138	H	-0.308673	0.093073	0.801967
H139	H	-0.785278	0.165057	0.127873
H140	H	-0.285278	0.665057	0.627873
C141	C	-0.868368	-0.610255	0.311756
C142	C	-0.368368	-0.110255	0.811756
H143	H	-0.832162	-0.563950	0.347906
H144	H	-0.332162	-0.063950	0.847906
H145	H	-0.900554	-0.651229	0.349056
H146	H	-0.400554	-0.151229	0.849056
H147	H	-0.831120	-0.651221	0.279480
H148	H	-0.331120	-0.151221	0.779480
C149	C	-0.602686	0.191046	0.124416
C150	C	-0.102686	0.691046	0.624416
H151	H	-0.643839	0.245215	0.125183
H152	H	-0.143839	0.745215	0.625183
H153	H	-0.559521	0.194836	0.175845
H154	H	-0.059521	0.694836	0.675845
H155	H	-0.573063	0.194814	0.071599
H156	H	-0.073063	0.694814	0.571599
H157	H	-0.946530	-0.752779	0.233712
H158	H	-0.446530	-0.252779	0.733712
C159	C	-0.798557	-0.190951	0.128070
C160	C	-0.298557	0.309049	0.628070
H161	H	-0.757409	-0.245121	0.127265
H162	H	-0.257409	0.254879	0.627265
H163	H	-0.828204	-0.194767	0.180863
H164	H	-0.328204	0.305233	0.680863
H165	H	-0.841704	-0.194693	0.076616
H166	H	-0.341704	0.305307	0.576616
H167	H	-1.203435	0.000052	-0.454886
H168	H	-0.703435	0.500052	0.045114
H169	H	-1.208872	0.000040	-0.167129
H170	H	-0.708872	0.500040	0.332871
H171	H	-0.615957	-0.164969	0.124683
H172	H	-0.115957	0.335031	0.624683
H173	H	-0.907798	0.000063	-0.416505
H174	H	-0.407798	0.500063	0.083495
C175	C	-0.890218	0.000053	-0.112385
C176	C	-0.390218	0.500053	0.387615
H177	H	-0.903062	0.000062	-0.051654
H178	H	-0.403062	0.500062	0.448346
H179	H	-0.856441	-0.058129	-0.123330
H180	H	-0.356441	0.441871	0.376670
H181	H	-0.856465	0.058245	-0.123327
H182	H	-0.356465	0.558245	0.376673
C183	C	-1.228695	0.000049	-0.352734
C184	C	-0.728695	0.500049	0.147266
H185	H	-1.277994	0.000033	-0.317888
H186	H	-0.777994	0.500033	0.182112
H187	H	-1.231410	0.058232	-0.389567
H188	H	-0.731410	0.558232	0.110433
H189	H	-1.231380	-0.058142	-0.389572
H190	H	-0.731380	0.441858	0.110428
H191	H	-0.328196	-0.164957	0.119244
H192	H	0.171804	0.335043	0.619244
H193	H	-1.227741	-0.595184	-0.047324
H194	H	-0.727741	-0.095184	0.452676
H195	H	-1.227732	-0.404652	-0.047339
H196	H	-0.727732	0.095348	0.452661
C197	C	-1.223266	0.000082	-0.640495
C198	C	-0.723266	0.500082	-0.140495
H199	H	-1.210423	0.000100	-0.701226
H200	H	-0.710423	0.500100	-0.201226
H201	H	-1.257028	-0.058099	-0.629563
H202	H	-0.757028	0.441901	-0.129563
H203	H	-1.257031	0.058275	-0.629538
H204	H	-0.757031	0.558275	-0.129538
C205	C	-0.881080	0.000067	-0.596084
C206	C	-0.381080	0.500067	-0.096084
H207	H	-0.891576	0.000056	-0.659845
H208	H	-0.391576	0.500056	-0.159845
H209	H	-0.847901	0.058251	-0.576449
H210	H	-0.347901	0.558251	-0.076449
H211	H	-0.847883	-0.058123	-0.576452
H212	H	-0.347883	0.441877	-0.076452
C213	C	-0.314929	0.191055	0.118996
C214	C	0.185071	0.691055	0.618996
H215	H	-0.356087	0.245219	0.119766
H216	H	0.143913	0.745219	0.619766
H217	H	-0.271769	0.194841	0.170429
H218	H	0.228231	0.694841	0.670429
H219	H	-0.285301	0.194836	0.066183
H220	H	0.214699	0.694836	0.566183
C221	C	-0.886510	0.000066	-0.308307
C222	C	-0.386510	0.500066	0.191693
H223	H	-0.838766	0.000075	-0.260862
H224	H	-0.338766	0.500075	0.239138
H225	H	-0.882422	-0.058114	-0.344269
H226	H	-0.382422	0.441886	0.155731
H227	H	-0.882447	0.058259	-0.344256
H228	H	-0.382447	0.558259	0.155744
