data_functionalizedCrystal
_audit_creation_method	'MofGen! by Chris Wilmer'
_symmetry_space_group_name_H-M	'P1'
_symmetry_Int_Tables_number	1
_symmetry_cell_setting	triclinic
loop_
_symmetry_equiv_pos_as_xyz
  x,y,z
_cell_length_a	6.817900
_cell_length_b	17.078472
_cell_length_c	16.015572
_cell_angle_alpha	78.650868
_cell_angle_beta	104.485554
_cell_angle_gamma	99.306020
loop_
_atom_site_label
_atom_site_type_symbol
_atom_site_fract_x
_atom_site_fract_y
_atom_site_fract_z
V1	V	-3.985538	-0.032007	-0.269368
O2	O	-3.995265	0.081581	-0.264329
O3	O	-3.916727	-0.140446	-0.267439
O4	O	-3.928561	0.003607	-0.386887
O5	O	-3.983349	-0.063470	-0.144055
V6	V	-4.472922	-0.022570	-0.254390
O7	O	-4.238327	-0.052707	-0.302223
O8	O	-4.670331	-0.001871	-0.221534
O9	O	-4.318526	0.085869	-0.256318
O10	O	-4.580592	-0.136158	-0.259428
O11	O	-4.592508	0.008892	-0.379703
O12	O	-4.306692	-0.058184	-0.136870
C13	C	-3.757040	-0.167979	-0.263168
C14	C	-3.782009	-0.256404	-0.262375
C15	C	-3.974754	-0.300743	-0.266310
C16	C	-3.998205	-0.383826	-0.265570
C17	C	-3.828906	-0.422569	-0.260888
C18	C	-3.636146	-0.378224	-0.256956
C19	C	-3.612700	-0.295141	-0.257702
C20	C	-3.879619	-0.670750	-0.258200
C21	C	-3.903079	-0.753839	-0.257451
C22	C	-4.265137	-0.759435	-0.266066
C23	C	-4.241672	-0.676351	-0.266807
C24	C	-4.048918	-0.632012	-0.262879
N25	N	-3.852871	-0.507494	-0.260129
N26	N	-4.024957	-0.547088	-0.263645
C27	C	-3.772135	0.015776	-0.415534
C28	C	-3.806698	0.044176	-0.511607
C29	C	-4.047885	-0.207907	-0.889041
C30	C	-4.080372	-0.181194	-0.979311
C31	C	-4.029396	-0.042993	-0.954713
C32	C	-3.996894	-0.069694	-0.864439
C33	C	-4.006144	-0.152152	-0.831610
C34	C	-3.955154	-0.013939	-0.807008
C35	C	-3.922666	-0.040638	-0.716742
C36	C	-3.931917	-0.123092	-0.683906
C37	C	-3.973656	-0.178851	-0.741344
C38	C	-3.945919	0.068518	-0.839839
C39	C	-3.904179	0.124273	-0.782408
C40	C	-3.871675	0.097575	-0.692140
C41	C	-3.880927	0.015120	-0.659304
C42	C	-3.829937	0.153333	-0.634702
C43	C	-3.797448	0.126634	-0.544436
C44	C	-3.848439	-0.011579	-0.569038
C45	C	-4.141555	0.113397	-0.260587
C46	C	-4.095824	0.201822	-0.261386
C47	C	-4.126461	-0.070357	-0.108218
C48	C	-4.071137	-0.098754	-0.012145
H49	H	-3.855944	-0.078724	-0.542306
C50	C	-3.751785	0.187083	-0.481969
C51	C	-3.560812	0.178314	-0.425271
C52	C	-3.518698	0.233980	-0.367708
H53	H	-3.750761	0.240050	-0.514337
H54	H	-3.853780	0.177813	-0.449001
H55	H	-3.458844	0.187590	-0.458236
H56	H	-3.561789	0.125358	-0.392884
H57	H	-3.620693	0.224710	-0.334740
H58	H	-3.517683	0.286944	-0.400083
H59	H	-3.389129	0.228032	-0.329227
H60	H	-4.155155	-0.419924	-0.268775
C61	C	-4.425353	-0.634278	-0.271715
C62	C	-4.392204	-0.597629	-0.197698
C63	C	-4.561382	-0.558875	-0.202181
H64	H	-4.444429	-0.594565	-0.322757
H65	H	-4.543532	-0.672572	-0.273908
H66	H	-4.274059	-0.559338	-0.195513
H67	H	-4.373153	-0.637324	-0.146645
H68	H	-4.679560	-0.597169	-0.204374
H69	H	-4.580443	-0.519166	-0.253225
H70	H	-4.538921	-0.534010	-0.151958
C71	C	-3.719264	-0.795976	-0.252195
C72	C	-3.691815	-0.854361	-0.176812
C73	C	-3.522504	-0.893188	-0.171933
H74	H	-3.741246	-0.820979	-0.302283
H75	H	-3.601033	-0.757704	-0.249915
H76	H	-3.810018	-0.892627	-0.179099
H77	H	-3.669798	-0.829379	-0.126711
H78	H	-3.404272	-0.854916	-0.169654
H79	H	-3.544502	-0.918186	-0.222026
H80	H	-3.503846	-0.932801	-0.120783
C81	C	-3.403308	-0.247065	-0.253245
C82	C	-3.269504	-0.276437	-0.175765
C83	C	-3.076599	-0.232163	-0.171627
H84	H	-3.353037	-0.252136	-0.301912
H85	H	-3.413486	-0.192034	-0.254313
H86	H	-3.259320	-0.331455	-0.174705
H87	H	-3.319708	-0.271365	-0.127084
H88	H	-3.086777	-0.177131	-0.172695
H89	H	-3.026349	-0.237236	-0.220298
H90	H	-2.985794	-0.252080	-0.119054
C91	C	-4.057725	-0.297399	-0.853216
C92	C	-4.020291	-0.308841	-0.761871
C93	C	-4.029312	-0.391265	-0.728838
H94	H	-4.189279	-0.323231	-0.875775
H95	H	-3.957644	-0.319715	-0.870201
H96	H	-4.120367	-0.286535	-0.744894
H97	H	-3.888740	-0.283028	-0.739288
H98	H	-3.929231	-0.413581	-0.745823
H99	H	-4.160869	-0.417090	-0.751403
H100	H	-4.003897	-0.399039	-0.666857
C101	C	-3.896913	-0.151977	-0.585889
C102	C	-4.043096	-0.125681	-0.553458
C103	C	-4.010897	-0.152266	-0.463168
H104	H	-3.908447	-0.209061	-0.574447
H105	H	-3.764374	-0.130750	-0.558080
H106	H	-4.175602	-0.146912	-0.581257
H107	H	-4.031589	-0.068601	-0.564876
H108	H	-3.878358	-0.131039	-0.435359
H109	H	-4.022429	-0.209349	-0.451735
H110	H	-4.110064	-0.134422	-0.441150
H111	H	-4.422071	-0.795545	-0.269264
H112	H	-3.972343	0.090254	-0.913340
C113	C	-4.018991	0.046558	-0.990229
C114	C	-3.824868	0.084298	-0.956692
C115	C	-3.815214	0.166796	-0.989376
H116	H	-4.044186	0.054592	-1.052206
H117	H	-4.118917	0.068889	-0.973158
H118	H	-3.724972	0.061975	-0.973769
H119	H	-3.799632	0.076288	-0.894718
H120	H	-3.915140	0.189126	-0.972304
H121	H	-3.840417	0.174821	-1.051352
H122	H	-3.683510	0.192414	-0.966619
H123	H	-3.722668	-0.634659	-0.254996
C124	C	-3.894510	0.213767	-0.818187
C125	C	-4.082513	0.230590	-0.873450
C126	C	-4.073668	0.313022	-0.906433
H127	H	-3.865107	0.243243	-0.771146
H128	H	-3.790394	0.228793	-0.850133
H129	H	-4.186597	0.215573	-0.841505
H130	H	-4.111951	0.201134	-0.920505
H131	H	-3.969551	0.328048	-0.938379
H132	H	-4.044260	0.342491	-0.859386
H133	H	-4.201217	0.324446	-0.943938
H134	H	-3.498304	-0.409774	-0.253149
C135	C	-3.819944	0.242887	-0.670185
C136	C	-3.776490	0.286001	-0.600569
C137	C	-3.767305	0.368500	-0.633221
H138	H	-3.715757	0.258012	-0.702070
H139	H	-3.947406	0.254479	-0.707664
H140	H	-3.649045	0.274414	-0.563105
H141	H	-3.880659	0.270901	-0.568677
H142	H	-3.894767	0.380092	-0.670700
H143	H	-3.663119	0.383617	-0.665106
H144	H	-3.737840	0.397763	-0.585993
H145	H	-4.112616	-0.269206	-0.270113
H146	H	-3.981161	-0.245996	-0.714612
H147	H	-4.114352	-0.226603	-1.026070
