data_functionalizedCrystal
_audit_creation_method	'MofGen! by Chris Wilmer'
_symmetry_space_group_name_H-M	'P1'
_symmetry_Int_Tables_number	1
_symmetry_cell_setting	triclinic
loop_
_symmetry_equiv_pos_as_xyz
  x,y,z
_cell_length_a	17.019282
_cell_length_b	14.519709
_cell_length_c	13.596369
_cell_angle_alpha	89.998664
_cell_angle_beta	86.124696
_cell_angle_gamma	96.465707
loop_
_atom_site_label
_atom_site_type_symbol
_atom_site_fract_x
_atom_site_fract_y
_atom_site_fract_z
O1	O	1.046846	-0.117428	-0.006905
O2	O	0.817203	-0.132423	0.012555
O3	O	0.938113	0.009333	0.002300
O4	O	0.925936	-0.259184	0.003350
O5	O	0.938098	0.009325	-0.161282
O6	O	0.817188	-0.132431	-0.151027
O7	O	1.046831	-0.117436	-0.170487
Zn8	Zn	0.932007	-0.124934	-0.186729
Zn9	Zn	0.932027	-0.124924	0.028797
O10	O	0.925921	-0.259192	-0.160232
C11	C	0.787805	-0.131860	-0.066746
C12	C	0.700233	-0.130161	-0.059325
C13	C	0.659088	-0.129365	-0.145010
C14	C	0.576805	-0.127754	-0.138040
C15	C	0.535669	-0.126946	-0.045385
C16	C	0.576820	-0.127739	0.040306
C17	C	0.659102	-0.129344	0.033335
C18	C	0.287234	-0.122095	-0.019878
C19	C	0.204946	-0.120493	-0.012914
C20	C	0.204937	-0.120506	-0.191260
C21	C	0.287220	-0.122116	-0.198223
C22	C	0.328364	-0.122905	-0.112532
C23	C	0.451563	-0.125302	-0.038259
C24	C	0.412469	-0.124542	-0.119659
C25	C	0.937538	0.043687	-0.079443
C26	C	0.935837	0.146063	-0.079299
C27	C	1.076229	-0.117998	-0.091184
C28	C	1.163801	-0.119697	-0.098598
C29	C	0.926496	-0.293546	-0.078487
C30	C	0.928196	-0.395921	-0.078624
N31	N	0.932000	-0.124941	-0.333820
C32	C	0.929577	0.520938	-0.078743
C33	C	0.931315	0.416636	-0.078898
C34	C	0.932707	0.333504	-0.079022
C35	C	0.934446	0.229195	-0.079175
C36	C	0.932003	-0.124943	-0.422818
C37	C	0.932011	-0.124937	-0.534470
C38	C	0.932021	-0.124926	-0.623462
C39	C	0.932030	-0.124921	-0.735121
N40	N	0.932041	-0.124910	0.175888
H41	H	0.320724	-0.122734	0.049898
O42	O	0.407194	-0.124431	0.061676
H43	H	0.416043	-0.187561	0.103694
H44	H	0.171455	-0.119838	0.062541
H45	H	0.543322	-0.127075	0.115747
H46	H	0.692601	-0.129994	0.103109
O47	O	0.703448	-0.130242	-0.244949
H48	H	0.767576	-0.131502	-0.235405
O49	O	0.532423	-0.126905	-0.230456
H50	H	0.574850	-0.127752	-0.296055
O51	O	0.331584	-0.123031	-0.298157
H52	H	0.289148	-0.122217	-0.356570
H53	H	0.171429	-0.119863	-0.261025
O54	O	0.456829	-0.125426	-0.219594
H55	H	0.501269	-0.063337	-0.227635
