data_functionalizedCrystal
_audit_creation_method	'MofGen! by Chris Wilmer'
_symmetry_space_group_name_H-M	'P1'
_symmetry_Int_Tables_number	1
_symmetry_cell_setting	triclinic
loop_
_symmetry_equiv_pos_as_xyz
  x,y,z
_cell_length_a	14.971475
_cell_length_b	14.971486
_cell_length_c	14.048226
_cell_angle_alpha	90.006640
_cell_angle_beta	90.005580
_cell_angle_gamma	83.611904
loop_
_atom_site_label
_atom_site_type_symbol
_atom_site_fract_x
_atom_site_fract_y
_atom_site_fract_z
O1	O	-1.186953	-0.116518	-0.079142
O2	O	-0.853620	0.216815	0.254192
O3	O	-0.520286	0.550148	0.587525
O4	O	-0.926552	-0.130487	-0.079148
O5	O	-0.593218	0.202846	0.254185
O6	O	-0.259885	0.536179	0.587519
O7	O	-1.063732	0.006698	-0.079138
O8	O	-0.730398	0.340031	0.254196
O9	O	-0.397065	0.673364	0.587529
O10	O	-1.049773	-0.253703	-0.079152
O11	O	-0.716440	0.079630	0.254182
O12	O	-0.383106	0.412964	0.587515
O13	O	-1.063715	0.006706	0.079184
O14	O	-0.730382	0.340039	0.412517
O15	O	-0.397049	0.673372	0.745850
O16	O	-0.926535	-0.130479	0.079173
O17	O	-0.593202	0.202854	0.412507
O18	O	-0.259868	0.536188	0.745840
O19	O	-1.186937	-0.116510	0.079180
O20	O	-0.853603	0.216823	0.412513
O21	O	-0.520270	0.550157	0.745846
Zn22	Zn	-1.056733	-0.123493	0.104313
Zn23	Zn	-0.723400	0.209840	0.437647
Zn24	Zn	-0.390066	0.543173	0.770980
Zn25	Zn	-1.056755	-0.123504	-0.104282
Zn26	Zn	-0.723422	0.209829	0.229052
Zn27	Zn	-0.390088	0.543163	0.562385
O28	O	-1.049756	-0.253695	0.079170
O29	O	-0.716423	0.079638	0.412503
O30	O	-0.383090	0.412972	0.745836
C31	C	-0.893218	-0.129860	0.000012
C32	C	-0.559885	0.203473	0.333345
C33	C	-0.226552	0.536806	0.666679
C34	C	-0.793921	-0.127993	0.000010
C35	C	-0.460588	0.205340	0.333343
C36	C	-0.127254	0.538673	0.666677
C37	C	-0.747267	-0.127110	0.086312
C38	C	-0.413934	0.206224	0.419645
C39	C	-0.080600	0.539557	0.752978
C40	C	-0.653968	-0.125341	0.086312
C41	C	-0.320635	0.207992	0.419645
C42	C	0.012698	0.541325	0.752979
C43	C	-0.607324	-0.124463	0.000010
C44	C	-0.273991	0.208870	0.333343
C45	C	0.059343	0.542204	0.666677
C46	C	-0.653985	-0.125344	-0.086298
C47	C	-0.320652	0.207989	0.247035
C48	C	0.012682	0.541323	0.580368
C49	C	-0.747283	-0.127106	-0.086298
C50	C	-0.413949	0.206227	0.247035
C51	C	-0.080616	0.539561	0.580369
C52	C	-0.459522	-0.121674	-0.086293
C53	C	-0.126189	0.211660	0.247040
C54	C	0.207144	0.544993	0.580373
C55	C	-0.366218	-0.119913	-0.086294
C56	C	-0.032884	0.213420	0.247039
C57	C	0.300449	0.546753	0.580373
C58	C	-0.366208	-0.119909	0.086317
C59	C	-0.032874	0.213424	0.419650
C60	C	0.300459	0.546758	0.752984
C61	C	-0.459506	-0.121671	0.086317
C62	C	-0.126172	0.211662	0.419651
C63	C	0.207161	0.544996	0.752984
C64	C	-0.506160	-0.122554	0.000009
C65	C	-0.172826	0.210780	0.333342
C66	C	0.160507	0.544113	0.666675
C67	C	-1.063099	0.040026	0.000023
C68	C	-0.729766	0.373360	0.333356
C69	C	-0.396433	0.706693	0.666689
C70	C	-1.061228	0.139323	0.000022
C71	C	-0.727895	0.472657	0.333355
C72	C	-0.394562	0.805990	0.666688
C73	C	-0.220269	-0.117144	0.000016
C74	C	0.113065	0.216190	0.333350
C75	C	0.446398	0.549523	0.666683
C76	C	-0.319564	-0.119030	0.000008
C77	C	0.013769	0.214304	0.333341
C78	C	0.347103	0.547637	0.666674
C79	C	-1.050389	-0.287024	0.000007
C80	C	-0.717056	0.046310	0.333341
C81	C	-0.383722	0.379643	0.666674
C82	C	-1.052260	-0.386321	0.000002
C83	C	-0.718926	-0.052987	0.333335
C84	C	-0.385593	0.280346	0.666668
N85	N	-1.056725	-0.123485	0.246674
N86	N	-0.723392	0.209848	0.580008
N87	N	-0.390058	0.543181	0.913341
C88	C	-1.141818	0.196552	0.000024
C89	C	-0.808485	0.529885	0.333358
C90	C	-0.475151	0.863219	0.666691
C91	C	-1.140055	0.289851	0.000015
C92	C	-0.806722	0.623185	0.333348
C93	C	-0.473388	0.956518	0.666681
C94	C	-1.057701	0.325920	0.000009
C95	C	-0.724368	0.659254	0.333343
C96	C	-0.391035	0.992587	0.666676
C97	C	-0.977106	0.268685	0.000004
C98	C	-0.643772	0.602018	0.333337
C99	C	-0.310439	0.935351	0.666670
C100	C	-0.978870	0.175387	0.000007
C101	C	-0.645536	0.508720	0.333340
C102	C	-0.312203	0.842054	0.666673
C103	C	-0.973434	0.463147	0.000000
C104	C	-0.640101	0.796480	0.333334
C105	C	-0.306768	1.129814	0.666667
C106	C	-0.971670	0.556451	-0.000001
C107	C	-0.638337	0.889784	0.333333
C108	C	-0.305003	1.223118	0.666666
C109	C	-1.134620	0.577611	0.000008
C110	C	-0.801287	0.910944	0.333342
C111	C	-0.467953	1.244278	0.666675
C112	C	-1.136384	0.484314	0.000011
C113	C	-0.803051	0.817647	0.333344
C114	C	-0.469717	1.150980	0.666678
C115	C	-1.055788	0.427084	0.000007
C116	C	-0.722454	0.760418	0.333341
C117	C	-0.389121	1.093751	0.666674
N118	N	-1.056770	-0.123505	-0.246642
N119	N	-0.723437	0.209829	0.086691
N120	N	-0.390104	0.543162	0.420024
C121	C	-1.117487	-0.062765	0.296497
C122	C	-0.784154	0.270568	0.629830
C123	C	-0.450821	0.603902	0.963163
C124	C	-1.117493	-0.062765	0.396154
C125	C	-0.784160	0.270569	0.729488
C126	C	-0.450827	0.603902	1.062821
C127	C	-1.056741	-0.123489	0.445988
C128	C	-0.723407	0.209844	0.779321
C129	C	-0.390074	0.543177	1.112654
C130	C	-0.995972	-0.184213	0.396158
C131	C	-0.662638	0.149121	0.729492
C132	C	-0.329305	0.482454	1.062825
C133	C	-0.995962	-0.184208	0.296502
C134	C	-0.662629	0.149125	0.629836
C135	C	-0.329295	0.482458	0.963169
C136	C	-0.995997	-0.184219	0.603872
C137	C	-0.662664	0.149114	0.937206
C138	C	-0.329331	0.482447	1.270539
C139	C	-0.996008	-0.184225	0.703535
C140	C	-0.662675	0.149108	1.036868
C141	C	-0.329341	0.482442	1.370202
C142	C	-1.117529	-0.062776	0.703524
C143	C	-0.784195	0.270558	1.036858
C144	C	-0.450862	0.603891	1.370191
C145	C	-1.117519	-0.062771	0.603869
C146	C	-0.784186	0.270562	0.937202
C147	C	-0.450853	0.603896	1.270535
C148	C	-1.056751	-0.123496	0.554046
C149	C	-0.723418	0.209838	0.887379
C150	C	-0.390084	0.543171	1.220713
H151	H	-0.615989	-0.124607	0.156588
H152	H	-0.282656	0.208727	0.489921
H153	H	0.050678	0.542060	0.823254
H154	H	-0.904610	0.585815	0.000010
H155	H	-0.571277	0.919148	0.333343
H156	H	-0.237944	1.252482	0.666677
Cl157	Cl	-1.193923	0.013561	0.766162
Cl158	Cl	-0.860589	0.346894	1.099495
Cl159	Cl	-0.527256	0.680228	1.432828
Cl160	Cl	-0.307581	-0.118807	-0.194790
Cl161	Cl	0.025753	0.214527	0.138543
Cl162	Cl	0.359086	0.547860	0.471877
Cl163	Cl	-0.872112	0.391203	-0.000005
Cl164	Cl	-0.538778	0.724536	0.333328
Cl165	Cl	-0.205445	1.057869	0.666662
Cl166	Cl	-1.239916	0.438971	0.000013
Cl167	Cl	-0.906582	0.772304	0.333346
Cl168	Cl	-0.573249	1.105637	0.666680
Cl169	Cl	-0.307558	-0.118800	0.194819
Cl170	Cl	0.025776	0.214534	0.528153
Cl171	Cl	0.359109	0.547867	0.861486
H172	H	-0.616001	-0.124623	-0.156567
H173	H	-0.282667	0.208711	0.176766
H174	H	0.050666	0.542044	0.510099
Cl175	Cl	-1.235941	0.649556	0.000008
Cl176	Cl	-0.902608	0.982889	0.333341
Cl177	Cl	-0.569274	1.316223	0.666675
H178	H	-0.910052	0.298059	-0.000007
H179	H	-0.576718	0.631393	0.333327
H180	H	-0.243385	0.964726	0.666660
H181	H	-0.946510	-0.233665	0.563310
H182	H	-0.613177	0.099668	0.896643
H183	H	-0.279844	0.433002	1.229977
Cl184	Cl	-0.919568	-0.260543	0.233869
Cl185	Cl	-0.586234	0.072790	0.567203
Cl186	Cl	-0.252901	0.406124	0.900536
H187	H	-0.946536	-0.233673	0.744104
H188	H	-0.613202	0.099661	1.077438
H189	H	-0.279869	0.432994	1.410771
H190	H	-1.166993	-0.013329	0.563294
H191	H	-0.833659	0.320004	0.896628
H192	H	-0.500326	0.653338	1.229961
H193	H	-0.785267	-0.127827	-0.156574
H194	H	-0.451934	0.205506	0.176760
H195	H	-0.118600	0.538839	0.510093
Cl196	Cl	-1.241373	0.361792	0.000021
Cl197	Cl	-0.908039	0.695126	0.333354
Cl198	Cl	-0.574706	1.028459	0.666687
Cl199	Cl	-0.877552	0.103442	-0.000000
Cl200	Cl	-0.544219	0.436775	0.333333
Cl201	Cl	-0.210886	0.770108	0.666666
H202	H	-1.166963	-0.013320	0.255929
H203	H	-0.833630	0.320014	0.589262
H204	H	-0.500296	0.653347	0.922596
H205	H	-0.497505	-0.122393	-0.156575
H206	H	-0.164172	0.210941	0.176758
H207	H	0.169162	0.544274	0.510092
H208	H	-1.166970	-0.013321	0.436719
H209	H	-0.833637	0.320012	0.770053
H210	H	-0.500303	0.653346	1.103386
H211	H	-0.946501	-0.233653	0.436738
H212	H	-0.613168	0.099680	0.770072
H213	H	-0.279834	0.433014	1.103405
H214	H	-1.208880	0.167192	0.000035
H215	H	-0.875547	0.500526	0.333368
H216	H	-0.542213	0.833859	0.666701
H217	H	-0.497480	-0.122392	0.156592
H218	H	-0.164147	0.210942	0.489926
H219	H	0.169187	0.544275	0.823259
Cl220	Cl	-0.805895	-0.128219	0.194812
Cl221	Cl	-0.472562	0.205114	0.528146
Cl222	Cl	-0.139229	0.538447	0.861479
