data_functionalizedCrystal
_audit_creation_method	'MofGen! by Chris Wilmer'
_symmetry_space_group_name_H-M	'P1'
_symmetry_Int_Tables_number	1
_symmetry_cell_setting	triclinic
loop_
_symmetry_equiv_pos_as_xyz
  x,y,z
_cell_length_a	12.759400
_cell_length_b	12.759401
_cell_length_c	12.759393
_cell_angle_alpha	89.981425
_cell_angle_beta	89.968385
_cell_angle_gamma	90.015111
loop_
_atom_site_label
_atom_site_type_symbol
_atom_site_fract_x
_atom_site_fract_y
_atom_site_fract_z
Zn1	Zn	-0.418192	1.606255	-0.593985
Zn2	Zn	-0.593911	1.606150	-0.418305
Zn3	Zn	-0.418248	1.430557	-0.418324
Zn4	Zn	-0.593831	1.430546	-0.593946
O5	O	-0.506045	1.518377	-0.506140
O6	O	-0.441512	1.753262	-0.570689
O7	O	-0.570666	1.582818	-0.271286
O8	O	-0.271219	1.453913	-0.441650
O9	O	-0.570612	1.753185	-0.441618
O10	O	-0.271178	1.582997	-0.570707
O11	O	-0.441607	1.453811	-0.271300
O12	O	-0.441529	1.283535	-0.441612
O13	O	-0.570475	1.453893	-0.740972
O14	O	-0.570529	1.283526	-0.570641
O15	O	-0.441434	1.582986	-0.741001
O16	O	-0.740921	1.582806	-0.441580
O17	O	-0.740862	1.453791	-0.570623
C18	C	-0.506027	1.245410	-0.506125
C19	C	-0.506045	1.128633	-0.506144
C20	C	-0.438944	1.073812	-0.573455
C21	C	-0.438955	0.964088	-0.573462
C22	C	-0.573176	0.964015	-0.438844
C23	C	-0.573159	1.073737	-0.438832
C24	C	-0.315116	0.814168	-0.611230
C25	C	-0.248025	0.759343	-0.678557
C26	C	-0.232010	0.794999	-0.781096
C27	C	-0.283102	0.885479	-0.816328
C28	C	-0.350202	0.940298	-0.749006
C29	C	-0.366197	0.904643	-0.646453
C30	C	-0.696999	1.223660	-0.401075
C31	C	-0.764105	1.278481	-0.333757
C32	C	-0.780130	1.242826	-0.231217
C33	C	-0.729056	1.152343	-0.195989
C34	C	-0.661951	1.097522	-0.263306
C35	C	-0.645923	1.133184	-0.365845
C36	C	-0.779013	1.518315	-0.506118
C37	C	-0.895789	1.518384	-0.506144
C38	C	-0.950647	1.585637	-0.439025
C39	C	-1.060371	1.585701	-0.439058
C40	C	-1.060370	1.451251	-0.573330
C41	C	-0.950648	1.451193	-0.573302
C42	C	-0.895789	1.652828	-0.371867
C43	C	-0.950646	1.720086	-0.304743
C44	C	-1.060371	1.720150	-0.304775
C45	C	-1.115237	1.652957	-0.371932
C46	C	-0.232012	1.518468	-0.506185
C47	C	-0.115235	1.518507	-0.506204
C48	C	-0.505939	1.518450	-0.780173
C49	C	-0.505894	1.518481	-0.896950
C50	C	-0.506064	1.792410	-0.506155
C51	C	-0.506072	1.909187	-0.506162
C52	C	-0.438681	1.451332	-0.951819
C53	C	-0.438648	1.451356	-1.061543
C54	C	-0.573045	1.585689	-1.061520
C55	C	-0.573082	1.585659	-0.951798
C56	C	-0.401049	1.327506	-1.211496
C57	C	-0.333819	1.260365	-1.266368
C58	C	-0.231316	1.244261	-1.230779
C59	C	-0.196020	1.295313	-1.140319
C60	C	-0.263245	1.362461	-1.085452
C61	C	-0.365763	1.378545	-1.121040
C62	C	-0.610671	1.709511	-0.801843
C63	C	-0.677890	1.776665	-0.746974
C64	C	-0.780396	1.792780	-0.782562
C65	C	-0.815687	1.741747	-0.873025
C66	C	-0.748467	1.674592	-0.927894
C67	C	-0.645963	1.658476	-0.892299
C68	C	-0.506075	1.518364	-0.233172
C69	C	-0.505825	1.518537	-0.116396
H70	H	-0.627819	0.919306	-0.384042
Cl71	Cl	-0.146801	1.159857	-1.299765
Cl72	Cl	-0.676846	1.268497	-0.529985
Cl73	Cl	-1.253176	1.652607	-0.371536
H74	H	-1.105033	1.774922	-0.250127
H75	H	-0.384292	1.118505	-0.628261
Cl76	Cl	-0.792835	1.610434	-1.041622
H77	H	-0.484520	1.340600	-1.240473
Cl78	Cl	-1.129345	1.366783	-0.657746
H79	H	-0.905982	1.396430	-0.627957
H80	H	-0.806446	1.652780	-0.371830
H81	H	-0.112547	1.282204	-1.111356
Cl82	Cl	-0.944552	1.762011	-0.917774
Cl83	Cl	-0.881674	1.804561	-0.220332
Cl84	Cl	-0.378190	1.196188	-1.380084
Cl85	Cl	-0.354220	1.366876	-0.882871
H86	H	-0.234506	1.404031	-1.011804
Cl87	Cl	-0.657503	1.670139	-1.130479
H88	H	-0.835121	1.847473	-0.737883
H89	H	-0.649142	1.818230	-0.673322
H90	H	-0.620364	1.023846	-0.234615
H91	H	-0.527213	1.696366	-0.772838
H92	H	-0.270066	0.914497	-0.899829
Cl93	Cl	-0.414429	1.054036	-0.793288
H94	H	-0.206425	0.685674	-0.649862
Cl95	Cl	-0.147671	0.726071	-0.865735
H96	H	-0.328138	0.785135	-0.527731
H97	H	-0.742110	1.123308	-0.112494
H98	H	-0.834803	1.287452	-0.176420
H99	H	-0.805677	1.352167	-0.362443
