data_functionalizedCrystal
_audit_creation_method	'MofGen! by Chris Wilmer'
_symmetry_space_group_name_H-M	'P1'
_symmetry_Int_Tables_number	1
_symmetry_cell_setting	triclinic
loop_
_symmetry_equiv_pos_as_xyz
  x,y,z
_cell_length_a	19.121321
_cell_length_b	19.120904
_cell_length_c	12.594516
_cell_angle_alpha	87.581008
_cell_angle_beta	92.419628
_cell_angle_gamma	94.963752
loop_
_atom_site_label
_atom_site_type_symbol
_atom_site_fract_x
_atom_site_fract_y
_atom_site_fract_z
Zn1	Zn	1.058701	-0.351951	0.514852
Zn2	Zn	1.558701	0.148049	1.014852
Zn3	Zn	1.063655	-0.234303	0.685560
Zn4	Zn	1.563655	0.265697	1.185560
Zn5	Zn	0.946063	-0.239324	0.500331
Zn6	Zn	1.446063	0.260676	1.000331
Zn7	Zn	0.941026	-0.356947	0.685517
Zn8	Zn	1.441026	0.143053	1.185517
O9	O	1.002361	-0.295631	0.596565
O10	O	1.502361	0.204369	1.096565
O11	O	1.157817	-0.332152	0.543592
O12	O	1.657817	0.167848	1.043592
O13	O	1.052238	-0.136508	0.654930
O14	O	1.552238	0.363492	1.154930
O15	O	0.961040	-0.254275	0.353314
O16	O	1.461040	0.245725	0.853314
O17	O	1.161458	-0.245717	0.669011
O18	O	1.661458	0.254283	1.169011
O19	O	1.043794	-0.337021	0.363983
O20	O	1.543794	0.162979	0.863983
O21	O	0.965844	-0.140197	0.518842
O22	O	1.465844	0.359803	1.018842
O23	O	0.846935	-0.259120	0.518801
O24	O	1.346935	0.240880	1.018801
O25	O	0.952454	-0.454746	0.668937
O26	O	1.452454	0.045254	1.168937
O27	O	0.843235	-0.345536	0.654856
O28	O	1.343235	0.154464	1.154856
O29	O	1.038909	-0.451075	0.543551
O30	O	1.538909	0.048925	1.043551
O31	O	1.047354	-0.250562	0.834497
O32	O	1.547354	0.249438	1.334497
O33	O	0.957258	-0.340668	0.834466
O34	O	1.457258	0.159332	1.334466
C35	C	0.819556	-0.303415	0.585249
C36	C	1.319556	0.196585	1.085249
C37	C	0.741350	-0.306762	0.580434
C38	C	1.241350	0.193238	1.080434
C39	C	0.298937	-0.327984	0.549852
C40	C	0.798937	0.172016	1.049852
C41	C	0.372420	-0.324836	0.554396
C42	C	0.872420	0.175164	1.054396
C43	C	0.411050	-0.278186	0.621849
C44	C	0.911050	0.221814	1.121849
C45	C	0.376194	-0.234688	0.684772
C46	C	0.876194	0.265312	1.184772
C47	C	0.302713	-0.237840	0.680233
C48	C	0.802713	0.262160	1.180233
C49	C	0.633012	-0.266416	0.638818
C50	C	1.133012	0.233584	1.138818
C51	C	0.706499	-0.263265	0.643350
C52	C	1.206499	0.236735	1.143350
C53	C	0.702719	-0.353415	0.512974
C54	C	1.202719	0.146585	1.012974
C55	C	0.629236	-0.356560	0.508437
C56	C	1.129236	0.143440	1.008437
C57	C	0.594386	-0.313064	0.571364
C58	C	1.094386	0.186936	1.071364
C59	C	0.486162	-0.274965	0.626492
C60	C	0.986162	0.225035	1.126492
C61	C	0.519276	-0.316289	0.566726
C62	C	1.019276	0.183711	1.066726
C63	C	0.994567	-0.479154	0.607859
C64	C	1.494567	0.020846	1.107859
C65	C	0.991246	-0.557360	0.612672
C66	C	1.491246	-0.057360	1.112672
C67	C	1.034695	-0.592192	0.549654
C68	C	1.534695	-0.092192	1.049654
C69	C	1.031566	-0.665676	0.554171
C70	C	1.531566	-0.165676	1.054171
C71	C	0.984990	-0.704326	0.621713
C72	C	1.484990	-0.204326	1.121713
C73	C	0.941535	-0.669490	0.684734
C74	C	1.441535	-0.169490	1.184734
C75	C	0.944662	-0.596007	0.680210
C76	C	1.444662	-0.096007	1.180210
C77	C	0.973295	-0.926290	0.638633
C78	C	1.473295	-0.426290	1.138633
C79	C	0.970174	-0.999777	0.643155
C80	C	1.470174	-0.499777	1.143155
C81	C	1.060204	-0.995959	0.512590
C82	C	1.560204	-0.495959	1.012590
C83	C	1.063329	-0.922475	0.508077
C84	C	1.563329	-0.422475	1.008077
C85	C	1.019872	-0.887645	0.571093
C86	C	1.519872	-0.387645	1.071093
C87	C	0.981792	-0.779438	0.626335
C88	C	1.481792	-0.279438	1.126335
C89	C	1.023067	-0.812534	0.566465
C90	C	1.523067	-0.312534	1.066465
C91	C	1.185881	-0.287817	0.607926
C92	C	1.685881	0.212183	1.107926
C93	C	1.264086	-0.284488	0.612768
C94	C	1.764086	0.215512	1.112768
C95	C	1.002315	-0.295626	0.873103
C96	C	1.502315	0.204374	1.373103
C97	C	1.002359	-0.295645	0.991412
C98	C	1.502359	0.204355	1.491412
C99	C	1.010166	-0.112821	0.585241
C100	C	1.510166	0.387179	1.085241
C101	C	1.013623	-0.034609	0.580137
C102	C	1.513623	0.465391	1.080137
C103	C	1.002426	-0.295651	0.318950
C104	C	1.502426	0.204349	0.818950
C105	C	1.002453	-0.295659	0.200646
C106	C	1.502453	0.204341	0.700646
C107	C	0.953353	-0.344621	1.060684
C108	C	1.453353	0.155379	1.560684
C109	C	0.938953	-0.281148	1.126508
C110	C	1.438953	0.218852	1.626508
C111	C	1.016823	-0.359126	1.136392
C112	C	1.516823	0.140874	1.636392
C113	C	0.987927	-0.232140	1.055673
C114	C	1.487927	0.267860	1.555673
C115	C	1.065824	-0.310160	1.065556
C116	C	1.565824	0.189840	1.565556
C117	C	1.051451	-0.246642	1.131346
C118	C	1.551451	0.253358	1.631346
H119	H	0.731102	-0.388827	0.461744
H120	H	1.231102	0.111173	0.961744
H121	H	1.029019	-0.412805	1.171681
H122	H	1.529019	0.087195	1.671681
H123	H	0.604646	-0.230997	0.690055
H124	H	1.104646	0.269003	1.190055
H125	H	0.911842	-0.385983	1.029650
H126	H	1.411842	0.114017	1.529650
N127	N	0.408033	-0.369262	0.490141
N128	N	0.908033	0.130738	0.990141
N129	N	0.447142	-0.412296	0.532989
N130	N	0.947142	0.087704	1.032989
H131	H	0.472297	-0.443674	0.487609
H132	H	0.972297	0.056326	0.987609
N133	N	1.133076	-0.325575	1.031700
N134	N	1.633076	0.174425	1.531700
N135	N	1.168161	-0.281894	0.974347
N136	N	1.668161	0.218106	1.474347
H137	H	1.215657	-0.292788	0.950430
H138	H	1.715657	0.207212	1.450430
H139	H	0.885326	-0.268884	1.153471
H140	H	1.385326	0.231116	1.653471
N141	N	0.259490	-0.375643	0.480947
N142	N	0.759490	0.124357	0.980947
N143	N	0.290620	-0.414480	0.424787
N144	N	0.790620	0.085520	0.924787
H145	H	0.262763	-0.448145	0.376125
H146	H	0.762763	0.051855	0.876125
N147	N	0.972540	-0.164790	1.011551
N148	N	1.472540	0.335210	1.511551
N149	N	0.969986	-0.153924	0.912954
N150	N	1.469986	0.346076	1.412954
H151	H	0.959112	-0.106362	0.881788
H152	H	1.459112	0.393638	1.381788
H153	H	0.597788	-0.394549	0.453513
H154	H	1.097788	0.105451	0.953513
H155	H	1.066949	-0.694032	0.502858
H156	H	1.566949	-0.194032	1.002858
N157	N	1.110916	-0.883007	0.439088
N158	N	1.610916	-0.383007	0.939088
N159	N	1.149711	-0.914116	0.382831
N160	N	1.649711	-0.414116	0.882831
H161	H	1.183323	-0.886242	0.334111
H162	H	1.683323	-0.386242	0.834111
N163	N	1.103494	-0.194647	1.170052
N164	N	1.603494	0.305353	1.670052
N165	N	1.152671	-0.212448	1.231042
N166	N	1.652671	0.287552	1.731042
H167	H	1.189425	-0.175726	1.258383
H168	H	1.689425	0.324274	1.758383
N169	N	0.922568	-1.039250	0.712121
N170	N	1.422568	-0.539250	1.212121
N171	N	0.883755	-1.008145	0.768355
N172	N	1.383755	-0.508145	1.268355
H173	H	0.850127	-1.036022	0.817047
H174	H	1.350127	-0.536022	1.317047
N175	N	1.104583	-1.031527	0.448198
N176	N	1.604583	-0.531527	0.948198
N177	N	1.146161	-0.997009	0.387890
N178	N	1.646161	-0.497009	0.887890
H179	H	1.177504	-1.022128	0.342405
H180	H	1.677504	-0.522128	0.842405
N181	N	1.082262	-0.552716	0.480643
N182	N	1.582262	-0.052716	0.980643
N183	N	1.059263	-0.512773	0.408761
N184	N	1.559263	-0.012773	0.908761
H185	H	1.092856	-0.484894	0.360015
H186	H	1.592856	0.015106	0.860015
H187	H	0.487820	-0.354273	0.511809
H188	H	0.987820	0.145727	1.011809
H189	H	0.517623	-0.236981	0.681409
H190	H	1.017623	0.263019	1.181409
H191	H	0.737950	-0.225277	0.698282
H192	H	1.237950	0.274723	1.198282
N193	N	0.415663	-0.187046	0.753679
N194	N	0.915663	0.312954	1.253679
N195	N	0.481270	-0.184237	0.757723
N196	N	0.981270	0.315763	1.257723
H197	H	0.509145	-0.150589	0.806389
H198	H	1.009145	0.349411	1.306389
N199	N	0.928902	-0.890730	0.703008
N200	N	1.428902	-0.390730	1.203008
N201	N	0.887322	-0.925250	0.763310
N202	N	1.387322	-0.425250	1.263310
H203	H	0.855968	-0.900133	0.808779
H204	H	1.355968	-0.400133	1.308779
H205	H	0.274338	-0.202422	0.731468
H206	H	0.774338	0.297578	1.231468
N207	N	0.893957	-0.708979	0.753712
N208	N	1.393957	-0.208979	1.253712
N209	N	0.891171	-0.774587	0.757744
N210	N	1.391171	-0.274587	1.257744
H211	H	0.857568	-0.802476	0.806462
H212	H	1.357568	-0.302476	1.306462
H213	H	0.909273	-0.567649	0.731515
H214	H	1.409273	-0.067649	1.231515
H215	H	1.060986	-0.781062	0.511468
H216	H	1.560986	-0.281062	1.011468
N217	N	0.934209	-0.818930	0.695304
N218	N	1.434209	-0.318930	1.195304
N219	N	0.887646	-0.861841	0.657578
N220	N	1.387646	-0.361841	1.157578
H221	H	0.854039	-0.889738	0.706279
H222	H	1.354039	-0.389738	1.206279
