data_functionalizedCrystal
_audit_creation_method	'MofGen! by Chris Wilmer'
_symmetry_space_group_name_H-M	'P1'
_symmetry_Int_Tables_number	1
_symmetry_cell_setting	triclinic
loop_
_symmetry_equiv_pos_as_xyz
  x,y,z
_cell_length_a	6.817900
_cell_length_b	14.858572
_cell_length_c	17.982865
_cell_angle_alpha	95.367744
_cell_angle_beta	102.450232
_cell_angle_gamma	104.524003
loop_
_atom_site_label
_atom_site_type_symbol
_atom_site_fract_x
_atom_site_fract_y
_atom_site_fract_z
V1	V	-4.033210	-0.290361	-0.105894
V2	V	-3.533210	0.209639	0.394106
O3	O	-4.025834	-0.284423	0.004595
O4	O	-3.525834	0.215577	0.504595
O5	O	-3.979649	-0.288770	-0.209495
O6	O	-3.479649	0.211230	0.290505
O7	O	-3.989918	-0.416817	-0.104482
O8	O	-3.489918	0.083183	0.395518
O9	O	-4.015494	-0.155489	-0.101146
O10	O	-3.515494	0.344511	0.398854
V11	V	-4.516845	-0.274181	-0.092653
V12	V	-4.016845	0.225819	0.407347
O13	O	-4.294223	-0.325853	-0.134940
O14	O	-3.794223	0.174147	0.365060
O15	O	-4.706029	-0.238690	-0.063607
O16	O	-4.206029	0.261310	0.436393
O17	O	-4.347199	-0.275772	0.010949
O18	O	-3.847199	0.224228	0.510949
O19	O	-4.641617	-0.280119	-0.203142
O20	O	-4.141617	0.219881	0.296858
O21	O	-4.651957	-0.409053	-0.097401
O22	O	-4.151957	0.090947	0.402599
O23	O	-4.336930	-0.147725	-0.094065
O24	O	-3.836930	0.352275	0.405935
C25	C	-3.823230	-0.284291	-0.234744
C26	C	-3.323230	0.215709	0.265256
C27	C	-3.860758	-0.283834	-0.319441
C28	C	-3.360758	0.216166	0.180559
C29	C	-4.047938	-0.195726	-0.828293
C30	C	-3.547938	0.304274	-0.328293
C31	C	-4.012677	-0.196169	-0.748713
C32	C	-3.512677	0.303831	-0.248713
C33	C	-4.038163	-0.281599	-0.719952
C34	C	-3.538163	0.218401	-0.219952
C35	C	-4.098894	-0.366591	-0.770775
C36	C	-3.598894	0.133409	-0.270775
C37	C	-4.134140	-0.366147	-0.850353
C38	C	-3.634140	0.133853	-0.350353
C39	C	-3.956751	-0.368383	-0.449844
C40	C	-3.456751	0.131617	0.050156
C41	C	-3.921505	-0.368821	-0.370260
C42	C	-3.421505	0.131179	0.129740
C43	C	-3.835288	-0.198405	-0.348205
C44	C	-3.335288	0.301595	0.151795
C45	C	-3.870534	-0.197961	-0.427783
C46	C	-3.370534	0.302039	0.072217
C47	C	-3.931251	-0.282953	-0.478599
C48	C	-3.431251	0.217047	0.021401
C49	C	-3.969481	-0.282472	-0.564888
C50	C	-3.469481	0.217528	-0.064888
C51	C	-3.999949	-0.282081	-0.633664
C52	C	-3.499949	0.217919	-0.133664
C53	C	-3.836327	-0.447627	-0.100788
C54	C	-3.336327	0.052373	0.399212
C55	C	-3.882181	-0.551008	-0.100319
C56	C	-3.382181	-0.051008	0.399681
C57	C	-4.050006	-0.929570	-0.098604
C58	C	-3.550006	-0.429570	0.401396
C59	C	-4.003303	-0.824243	-0.099081
C60	C	-3.503303	-0.324243	0.400919
C61	C	-3.966095	-0.740293	-0.099462
C62	C	-3.466095	-0.240293	0.400538
C63	C	-3.919389	-0.634958	-0.099938
C64	C	-3.419389	-0.134958	0.400062
C65	C	-4.166960	-0.280248	0.036194
C66	C	-3.666960	0.219752	0.536194
C67	C	-4.108670	-0.280712	0.120890
C68	C	-3.608670	0.219288	0.620890
C69	C	-4.153863	-0.116910	-0.097761
C70	C	-3.653863	0.383090	0.402239
C71	C	-4.087248	-0.013528	-0.098226
C72	C	-3.587248	0.486472	0.401774
H73	H	-4.119630	-0.436149	-0.747351
H74	H	-3.619630	0.063851	-0.247351
Cl75	Cl	-4.015904	-0.088323	-0.864442
Cl76	Cl	-3.515904	0.411677	-0.364442
H77	H	-3.849786	-0.128396	-0.451196
H78	H	-3.349786	0.371604	0.048804
Cl79	Cl	-3.936326	-0.089324	-0.684832
Cl80	Cl	-3.436326	0.410676	-0.184832
Cl81	Cl	-3.758962	-0.091557	-0.284317
Cl82	Cl	-3.258962	0.408443	0.215683
H83	H	-3.942270	-0.438392	-0.346846
H84	H	-3.442270	0.061608	0.153154
Cl85	Cl	-4.032901	-0.475225	-0.513713
Cl86	Cl	-3.532901	0.024775	-0.013713
H87	H	-4.183586	-0.435351	-0.891728
H88	H	-3.683586	0.064649	-0.391728
