data_functionalizedCrystal
_audit_creation_method	'MofGen! by Chris Wilmer'
_symmetry_space_group_name_H-M	'P1'
_symmetry_Int_Tables_number	1
_symmetry_cell_setting	triclinic
loop_
_symmetry_equiv_pos_as_xyz
  x,y,z
_cell_length_a	16.974885
_cell_length_b	15.944551
_cell_length_c	15.455313
_cell_angle_alpha	92.664316
_cell_angle_beta	90.969048
_cell_angle_gamma	83.445772
loop_
_atom_site_label
_atom_site_type_symbol
_atom_site_fract_x
_atom_site_fract_y
_atom_site_fract_z
O1	O	1.049071	0.107100	0.001441
O2	O	1.549071	0.607100	0.501441
O3	O	0.819641	0.119922	-0.014652
O4	O	1.319641	0.619922	0.485348
O5	O	0.940621	-0.008749	-0.006158
O6	O	1.440621	0.491251	0.493842
O7	O	0.928091	0.235771	-0.007053
O8	O	1.428091	0.735771	0.492947
O9	O	0.933703	-0.001422	0.137618
O10	O	1.433703	0.498578	0.637618
O11	O	0.812723	0.127249	0.129125
O12	O	1.312723	0.627249	0.629125
O13	O	1.042153	0.114427	0.145217
O14	O	1.542153	0.614427	0.645217
Cu15	Cu	0.926806	0.121507	0.150299
Cu16	Cu	1.426806	0.621507	0.650299
Cu17	Cu	0.934988	0.112842	-0.019733
Cu18	Cu	1.434988	0.612842	0.480267
O19	O	0.921173	0.243098	0.136724
O20	O	1.421173	0.743098	0.636724
C21	C	0.786823	0.122963	0.055177
C22	C	1.286823	0.622963	0.555177
C23	C	0.699342	0.121097	0.049042
C24	C	1.199342	0.621097	0.549042
C25	C	0.207328	0.110134	0.006032
C26	C	0.707328	0.610134	0.506032
C27	C	0.289525	0.111888	0.011809
C28	C	0.789525	0.611888	0.511809
C29	C	0.326844	0.116766	0.093070
C30	C	0.826844	0.616766	0.593070
C31	C	0.281962	0.119881	0.168560
C32	C	0.781962	0.619881	0.668560
C33	C	0.199767	0.118121	0.162783
C34	C	0.699767	0.618121	0.662783
C35	C	0.572265	0.122452	0.118754
C36	C	1.072265	0.622452	0.618754
C37	C	0.654466	0.124214	0.124526
C38	C	1.154466	0.624214	0.624526
C39	C	0.662023	0.116220	-0.032226
C40	C	1.162023	0.616220	0.467774
C41	C	0.579826	0.114466	-0.037997
C42	C	1.079826	0.614466	0.462003
C43	C	0.534952	0.117576	0.037493
C44	C	1.034952	0.617576	0.537493
N45	N	0.410862	0.118561	0.098977
N46	N	0.910862	0.618561	0.598977
N47	N	0.450936	0.115775	0.031585
N48	N	0.950936	0.615775	0.531585
C49	C	0.936641	-0.036381	0.065694
C50	C	1.436641	0.463619	0.565694
C51	C	0.935082	-0.129630	0.065585
C52	C	1.435082	0.370370	0.565585
C53	C	0.856366	-0.344671	0.060052
C54	C	1.356366	0.155329	0.560052
C55	C	0.889508	-0.401990	0.133506
C56	C	1.389508	0.098010	0.633506
C57	C	0.932261	-0.300363	0.065380
C58	C	1.432261	0.199637	0.565380
C59	C	0.896347	-0.409198	-0.008245
C60	C	1.396347	0.090802	0.491755
C61	C	0.929531	-0.465283	0.065178
C62	C	1.429531	0.034717	0.565178
C63	C	0.965421	-0.356451	0.138894
C64	C	1.465421	0.143549	0.638894
C65	C	0.972252	-0.363656	-0.002921
C66	C	1.472252	0.136344	0.497079
C67	C	1.005449	-0.420956	0.070555
C68	C	1.505449	0.079044	0.570555
C69	C	0.933832	-0.205357	0.065497
C70	C	1.433832	0.294643	0.565497
C71	C	0.927966	-0.560287	0.065068
C72	C	1.427966	-0.060287	0.565068
C73	C	1.074971	0.111386	0.075386
C74	C	1.574971	0.611386	0.575386
C75	C	1.162452	0.113252	0.081516
C76	C	1.662452	0.613252	0.581516
C77	C	0.925152	0.270729	0.064870
C78	C	1.425152	0.770729	0.564870
C79	C	0.926712	0.363979	0.064973
C80	C	1.426712	0.863979	0.564973
N81	N	0.921057	0.127602	0.269891
N82	N	1.421057	0.627602	0.769891
N83	N	0.940743	0.106740	-0.139325
N84	N	1.440743	0.606740	0.360675
C85	C	0.972472	0.072958	0.318894
C86	C	1.472472	0.572958	0.818894
C87	C	0.968131	0.077575	0.409398
C88	C	1.468131	0.577575	0.909398
C89	C	0.912380	0.136840	0.450896
C90	C	1.412380	0.636840	0.950896
C91	C	0.860960	0.191486	0.401885
C92	C	1.360960	0.691486	0.901885
C93	C	0.865297	0.186865	0.311384
C94	C	1.365297	0.686865	0.811384
C95	C	0.893660	0.156765	0.721163
C96	C	1.393660	0.656765	1.221163
C97	C	0.889328	0.161384	0.811671
C98	C	1.389328	0.661384	1.311671
C99	C	0.996499	0.047471	0.819177
C100	C	1.496499	0.547471	1.319177
C101	C	1.000834	0.042859	0.728674
C102	C	1.500834	0.542859	1.228674
C103	C	0.949412	0.097502	0.679671
C104	C	1.449412	0.597502	1.179671
N105	N	0.907944	0.141562	0.543404
N106	N	1.407944	0.641562	1.043404
N107	N	0.953845	0.092775	0.587164
N108	N	1.453845	0.592775	1.087164
H109	H	0.535740	0.124973	0.180223
H110	H	1.035740	0.624973	0.680223
H111	H	0.549447	0.110493	-0.104169
H112	H	1.049447	0.610493	0.395831
H113	H	1.046231	-0.005400	0.694888
H114	H	1.546231	0.494600	1.194888
C115	C	0.808745	0.246976	0.257480
C116	C	1.308745	0.746976	0.757480
H117	H	0.774925	0.282940	0.295155
H118	H	1.274925	0.782940	0.795155
H119	H	0.777635	0.214860	0.219888
H120	H	1.277635	0.714860	0.719888
H121	H	0.838789	0.280227	0.224151
H122	H	1.338789	0.780227	0.724151
H123	H	0.312354	0.123847	0.234725
H124	H	0.812354	0.623847	0.734725
H125	H	0.698569	0.113686	-0.093686
H126	H	1.198569	0.613686	0.406314
C127	C	1.024695	0.017475	0.463299
C128	C	1.524695	0.517475	0.963299
H129	H	1.058527	-0.018474	0.425623
H130	H	1.558527	0.481526	0.925623
H131	H	0.994665	-0.015779	0.496632
H132	H	1.494665	0.484221	0.996632
H133	H	1.055804	0.049604	0.500887
H134	H	1.555804	0.549604	1.000887
H135	H	0.163229	0.120668	0.224250
H136	H	0.663229	0.620668	0.724250
C137	C	0.771263	-0.299861	0.054176
C138	C	1.271263	0.200139	0.554176
H139	H	0.741998	-0.312776	0.102726
H140	H	1.241998	0.187224	0.602726
H141	H	0.746429	-0.318637	0.002418
H142	H	1.246429	0.181363	0.502418
H143	H	0.772864	-0.240518	0.053778
H144	H	1.272864	0.259482	0.553778
H145	H	0.854523	-0.419119	0.191187
H146	H	1.354523	0.080881	0.691187
C147	C	1.004843	-0.325220	0.222990
C148	C	1.504843	0.174780	0.722990
H149	H	1.005564	-0.265749	0.222564
H150	H	1.505564	0.234251	0.722564
H151	H	1.057633	-0.352015	0.226902
H152	H	1.557633	0.147985	0.726902
H153	H	0.975636	-0.338614	0.271388
H154	H	1.475636	0.161386	0.771388
C155	C	1.090619	-0.465559	0.076582
C156	C	1.590619	0.034441	0.576582
H157	H	1.115023	-0.447416	0.128866
H158	H	1.615023	0.052584	0.628866
H159	H	1.120179	-0.451814	0.028607
H160	H	1.620179	0.048186	0.528607
H161	H	1.089194	-0.524972	0.076010
H162	H	1.589194	-0.024972	0.576010
H163	H	1.007210	-0.346505	-0.060607
H164	H	1.507210	0.153495	0.439393
C165	C	0.856865	-0.440558	-0.092250
C166	C	1.356865	0.059442	0.407750
H167	H	0.803906	-0.414159	-0.095872
H168	H	1.303906	0.085841	0.404128
H169	H	0.856590	-0.500087	-0.091973
H170	H	1.356590	-0.000087	0.408027
H171	H	0.885735	-0.426753	-0.140735
H172	H	1.385735	0.073247	0.359265
H173	H	0.815562	0.239738	0.435678
H174	H	1.315562	0.739738	0.935678
H175	H	1.017874	0.024702	0.285113
H176	H	1.517874	0.524702	0.785113
H177	H	0.684847	0.128192	0.190702
H178	H	1.184847	0.628192	0.690702
C179	C	1.053051	-0.012638	0.873081
C180	C	1.553051	0.487362	1.373081
H181	H	1.042481	-0.001405	0.932924
H182	H	1.542481	0.498595	1.432924
H183	H	1.106354	-0.004120	0.861923
H184	H	1.606354	0.495880	1.361923
H185	H	1.045194	-0.069482	0.857658
H186	H	1.545194	0.430518	1.357658
H187	H	0.843926	0.209649	0.845454
H188	H	1.343926	0.709649	1.345454
C189	C	0.837119	0.216890	0.667269
C190	C	1.337119	0.716890	1.167269
H191	H	0.847682	0.205653	0.607425
H192	H	1.347682	0.705653	1.107425
H193	H	0.844982	0.273726	0.682699
H194	H	1.344982	0.773726	1.182699
H195	H	0.783810	0.208378	0.678421
H196	H	1.283810	0.708378	1.178421
C197	C	0.166284	0.104776	-0.083357
C198	C	0.666284	0.604776	0.416643
H199	H	0.204787	0.103165	-0.127484
H200	H	0.704787	0.603165	0.372516
H201	H	0.128369	0.152862	-0.089295
H202	H	0.628369	0.652862	0.410705
H203	H	0.140386	0.054982	-0.088445
H204	H	0.640386	0.554982	0.411555
H205	H	0.326061	0.109344	-0.049658
H206	H	0.826061	0.609344	0.450342
