data_functionalizedCrystal
_audit_creation_method	'MofGen! by Chris Wilmer'
_symmetry_space_group_name_H-M	'P1'
_symmetry_Int_Tables_number	1
_symmetry_cell_setting	triclinic
loop_
_symmetry_equiv_pos_as_xyz
  x,y,z
_cell_length_a	13.897447
_cell_length_b	19.121424
_cell_length_c	13.897441
_cell_angle_alpha	92.411679
_cell_angle_beta	89.970673
_cell_angle_gamma	92.463222
loop_
_atom_site_label
_atom_site_type_symbol
_atom_site_fract_x
_atom_site_fract_y
_atom_site_fract_z
Zn1	Zn	-0.321025	1.073748	-0.482722
Zn2	Zn	0.178975	1.573748	0.017278
Zn3	Zn	-0.482351	1.073667	-0.321431
Zn4	Zn	0.017649	1.573667	0.178569
Zn5	Zn	-0.327954	0.956294	-0.328295
Zn6	Zn	0.172046	1.456294	0.171705
Zn7	Zn	-0.489167	0.956277	-0.489535
Zn8	Zn	0.010833	1.456277	0.010465
O9	O	-0.405124	1.014997	-0.405496
O10	O	0.094876	1.514997	0.094504
O11	O	-0.336672	1.172019	-0.455602
O12	O	0.163328	1.672019	0.044398
O13	O	-0.461917	1.058070	-0.187362
O14	O	0.038083	1.558070	0.312638
O15	O	-0.192051	0.971916	-0.348801
O16	O	0.307949	1.471916	0.151199
O17	O	-0.455198	1.171960	-0.337103
O18	O	0.044802	1.671960	0.162897
O19	O	-0.186960	1.058208	-0.462258
O20	O	0.313040	1.558208	0.037742
O21	O	-0.348482	0.971837	-0.192405
O22	O	0.151518	1.471837	0.307595
O23	O	-0.355092	0.858010	-0.355408
O24	O	0.144908	1.358010	0.144592
O25	O	-0.466815	0.971887	-0.623612
O26	O	0.033185	1.471887	-0.123612
O27	O	-0.473534	0.857997	-0.473871
O28	O	0.026466	1.357997	0.026129
O29	O	-0.343282	1.058192	-0.618606
O30	O	0.156718	1.558192	-0.118606
O31	O	-0.618239	1.058054	-0.343710
O32	O	-0.118239	1.558054	0.156290
O33	O	-0.623247	0.971808	-0.467215
O34	O	-0.123247	1.471808	0.032785
C35	C	-0.415805	0.832520	-0.416124
C36	C	0.084195	1.332520	0.083876
C37	C	-0.420398	0.754456	-0.420694
C38	C	0.079602	1.254456	0.079306
C39	C	-0.449439	0.312940	-0.449704
C40	C	0.050561	0.812940	0.050296
C41	C	-0.445132	0.386290	-0.445392
C42	C	0.054868	0.886290	0.054608
C43	C	-0.381212	0.422948	-0.381662
C44	C	0.118788	0.922948	0.118338
C45	C	-0.321603	0.386253	-0.322232
C46	C	0.178397	0.886253	0.177768
C47	C	-0.325916	0.312905	-0.326539
C48	C	0.174084	0.812905	0.173461
C49	C	-0.365102	0.644412	-0.365571
C50	C	0.134898	1.144412	0.134429
C51	C	-0.360791	0.717766	-0.361270
C52	C	0.139209	1.217766	0.138730
C53	C	-0.484322	0.717797	-0.484430
C54	C	0.015678	1.217797	0.015570
C55	C	-0.488626	0.644447	-0.488736
C56	C	0.011374	1.144447	0.011264
C57	C	-0.429021	0.607759	-0.429302
C58	C	0.070979	1.107759	0.070698
C59	C	-0.376805	0.497923	-0.377255
C60	C	0.123195	0.997923	0.122745
C61	C	-0.433433	0.532785	-0.433705
C62	C	0.066567	1.032785	0.066295
C63	C	-0.655742	1.014939	-0.405477
C64	C	-0.155742	1.514939	0.094523
C65	C	-0.762953	1.014979	-0.405497
C66	C	-0.262953	1.514979	0.094503
C67	C	-0.850021	1.015013	-0.405517
C68	C	-0.350021	1.515013	0.094483
C69	C	-0.959251	1.015062	-0.405539
C70	C	-0.459251	1.515062	0.094461
C71	C	-0.153527	1.015073	-0.405535
C72	C	0.346473	1.515073	0.094465
C73	C	-0.046311	1.015106	-0.405552
C74	C	0.453689	1.515106	0.094448
C75	C	-0.405036	1.015046	-0.657086
C76	C	0.094964	1.515046	-0.157086
C77	C	-0.404998	1.015068	-0.764299
C78	C	0.095002	1.515068	-0.264299
C79	C	-0.394402	1.198186	-0.394827
C80	C	0.105598	1.698186	0.105173
C81	C	-0.389833	1.276250	-0.390281
C82	C	0.110167	1.776250	0.109719
C83	C	-0.404932	1.015087	-0.960593
C84	C	0.095068	1.515087	-0.460593
C85	C	-0.404972	1.015074	-0.851361
C86	C	0.095028	1.515074	-0.351361
C87	C	-0.405140	1.014987	-0.154882
C88	C	0.094860	1.514987	0.345118
C89	C	-0.404898	1.015102	-0.047662
C90	C	0.095102	1.515102	0.452338
H91	H	-0.501485	0.283098	-0.501605
H92	H	-0.001485	0.783098	-0.001605
C93	C	-0.510693	0.426646	-0.510764
C94	C	-0.010693	0.926646	-0.010764
H95	H	-0.549369	0.394308	-0.549345
H96	H	-0.049369	0.894308	-0.049345
H97	H	-0.550998	0.455236	-0.472118
H98	H	-0.050998	0.955236	0.027882
H99	H	-0.472154	0.455283	-0.551176
H100	H	0.027846	0.955283	-0.051176
H101	H	-0.324759	0.527779	-0.325367
H102	H	0.175241	1.027779	0.174633
H103	H	-0.308728	0.747611	-0.309380
H104	H	0.191272	1.247611	0.190620
H105	H	-0.532850	0.747677	-0.532816
H106	H	-0.032850	1.247677	-0.032816
C107	C	-0.299530	0.604064	-0.300206
C108	C	0.200470	1.104064	0.199794
H109	H	-0.260838	0.636403	-0.261644
H110	H	0.239162	1.136403	0.238356
H111	H	-0.338054	0.575425	-0.259790
H112	H	0.161946	1.075425	0.240210
H113	H	-0.259226	0.575475	-0.338865
H114	H	0.240774	1.075475	0.161135
H115	H	-0.269562	0.416106	-0.270337
H116	H	0.230438	0.916106	0.229663
H117	H	-0.277375	0.283033	-0.278153
H118	H	0.222625	0.783033	0.221847
H119	H	-0.485479	0.502934	-0.485591
H120	H	0.014521	1.002934	0.014409
C121	C	-0.559017	0.604128	-0.558759
C122	C	-0.059017	1.104128	-0.058759
H123	H	-0.593930	0.636485	-0.593504
H124	H	-0.093930	1.136485	-0.093504
H125	H	-0.523928	0.575510	-0.602558
H126	H	-0.023928	1.075510	-0.102558
H127	H	-0.602658	0.575522	-0.523386
H128	H	-0.102658	1.075522	-0.023386
