data_functionalizedCrystal
_audit_creation_method	'MofGen! by Chris Wilmer'
_symmetry_space_group_name_H-M	'P1'
_symmetry_Int_Tables_number	1
_symmetry_cell_setting	triclinic
loop_
_symmetry_equiv_pos_as_xyz
  x,y,z
_cell_length_a	14.809374
_cell_length_b	14.809374
_cell_length_c	21.606444
_cell_angle_alpha	65.410368
_cell_angle_beta	90.001385
_cell_angle_gamma	57.530506
loop_
_atom_site_label
_atom_site_type_symbol
_atom_site_fract_x
_atom_site_fract_y
_atom_site_fract_z
Zr1	Zr	1.106495	0.651444	0.071712
O2	O	0.975894	0.841336	-0.016710
O3	O	1.126945	0.482755	0.085558
O4	O	1.155180	0.642079	-0.024441
O5	O	0.947666	0.682005	0.195143
O6	O	1.318884	0.610572	-0.015456
O7	O	0.947659	0.682012	0.093289
O8	O	1.268377	0.325571	0.181314
O9	O	0.998174	0.967006	-0.001626
O10	O	1.281501	0.520772	0.114190
O11	O	1.159336	0.544281	0.183497
O12	O	1.192579	0.731864	0.053986
O13	O	1.070414	0.755372	0.123293
Zr14	Zr	1.367596	0.601182	0.248489
Zr15	Zr	1.367584	0.601193	0.086044
Zr16	Zr	1.106507	0.651432	0.234158
Zr17	Zr	1.142029	0.851873	0.095770
Zr18	Zr	1.332062	0.400752	0.224431
O19	O	1.347145	0.769870	0.234643
O20	O	1.347129	0.769886	0.003667
O21	O	0.975911	0.841320	0.214266
O22	O	1.498197	0.411290	0.336912
O23	O	1.498180	0.411306	0.105936
O24	O	1.126962	0.482739	0.316534
O25	O	1.526424	0.570620	0.125059
O26	O	1.318910	0.610547	0.344643
O27	O	1.155206	0.642054	0.335657
O28	O	1.526432	0.570613	0.226912
O29	O	1.205704	0.927064	0.009766
O30	O	1.268386	0.325562	0.310436
O31	O	1.475917	0.285619	0.321828
O32	O	1.475908	0.285628	0.192705
O33	O	0.998183	0.966997	0.127496
O34	O	1.205714	0.927055	0.138888
O35	O	1.281512	0.520762	0.266215
O36	O	1.403677	0.497254	0.196909
O37	O	1.314755	0.708345	0.136705
O38	O	1.192590	0.731853	0.206011
C39	C	1.192598	0.375606	0.130008
C40	C	1.177513	0.290518	0.119795
C41	C	1.244835	0.170289	0.165375
C42	C	1.229246	0.082345	0.154820
C43	C	0.910463	0.689169	0.142174
C44	C	0.799624	0.710501	0.136090
C45	C	0.794320	0.615296	0.163243
C46	C	0.679763	0.637342	0.156955
C47	C	1.563627	0.563457	0.178027
C48	C	1.674466	0.542125	0.184112
C49	C	1.237031	0.626327	-0.043093
C50	C	1.237026	0.626332	-0.112056
C51	C	1.281492	0.877020	0.190193
C52	C	1.296577	0.962107	0.200407
C53	C	1.190609	0.736518	-0.175880
C54	C	1.190619	0.736513	-0.240675
C55	C	1.237039	0.626322	-0.241644
C56	C	1.283463	0.516126	-0.177812
C57	C	1.283459	0.516131	-0.113019
C58	C	1.283479	0.516103	-0.439116
C59	C	1.283475	0.516107	-0.503917
C60	C	1.190638	0.736486	-0.566773
C61	C	1.190635	0.736491	-0.501979
C62	C	1.237063	0.626295	-0.438153
C63	C	1.237054	0.626301	-0.367896
C64	C	1.237042	0.626315	-0.311900
C65	C	1.237060	0.626299	0.363295
C66	C	1.237065	0.626294	0.432257
C67	C	1.519181	0.312750	0.147935
C68	C	1.614935	0.206330	0.143806
C69	C	1.192613	0.375592	0.333202
C70	C	1.177533	0.290500	0.391951
C71	C	1.519195	0.312736	0.351129
C72	C	1.614954	0.206311	0.415962
C73	C	0.954895	0.939889	-0.030928
C74	C	0.859136	1.046314	-0.095761
C75	C	0.954910	0.939875	0.172267
C76	C	0.859156	1.046296	0.176396
C77	C	1.281478	0.877034	-0.013001
C78	C	1.296558	0.962126	-0.071750
C79	C	1.234226	0.238263	0.462726
C80	C	1.220054	0.158322	0.517934
C81	C	1.149195	0.130612	0.502366
C82	C	1.092496	0.182858	0.431585
C83	C	1.106662	0.262805	0.376378
C84	C	1.723703	0.144060	0.410232
C85	C	1.813691	0.044072	0.471145
C86	C	1.794926	0.006331	0.537788
C87	C	1.686166	0.068593	0.543517
C88	C	1.596182	0.168585	0.482605
C89	C	0.750389	1.108575	-0.090029
C90	C	0.660406	1.208589	-0.150940
C91	C	0.679171	1.246333	-0.217582
C92	C	0.787930	1.184066	-0.223311
C93	C	0.877912	1.084061	-0.162401
C94	C	1.367424	0.989808	-0.056160
C95	C	1.381616	1.069746	-0.111355
C96	C	1.324933	1.122008	-0.182139
C97	C	1.254062	1.094318	-0.197728
C98	C	1.239878	1.014375	-0.142534
C99	C	1.647631	0.087107	0.189671
C100	C	1.737590	-0.012896	0.185792
C101	C	1.794855	0.006327	0.136051
C102	C	1.762152	0.125564	0.090181
C103	C	1.672189	0.225564	0.094057
C104	C	0.801917	1.027032	0.226144
C105	C	0.711954	1.127012	0.230039
C106	C	0.679227	1.246256	0.184180
C107	C	0.736476	1.265517	0.134429
C108	C	0.826442	1.165537	0.130539
H109	H	1.314010	0.132465	0.212214
Cl110	Cl	1.403389	-0.096316	0.272727
Cl111	Cl	1.070698	0.348931	0.047483
Cl112	Cl	1.132246	0.875054	-0.174671
Cl113	Cl	1.662595	0.021131	0.627301
Cl114	Cl	1.341839	0.377569	-0.505131
H115	H	1.764204	-0.109974	0.223147
H116	H	1.060497	0.305326	0.318752
Cl117	Cl	1.438698	0.924120	0.032820
H118	H	1.137670	0.065513	0.547326
H119	H	1.034802	0.160285	0.418919
Cl120	Cl	1.470706	1.104546	-0.091741
H121	H	1.160061	0.120179	0.107982
Cl122	Cl	1.182800	1.160042	-0.286717
Cl123	Cl	0.843040	0.877137	0.283804
Cl124	Cl	0.640000	1.102771	0.292585
H125	H	1.152824	0.826238	-0.292641
H126	H	1.808791	0.141198	0.049682
H127	H	1.336492	1.187101	-0.227075
Cl128	Cl	1.907952	-0.119403	0.131188
Cl129	Cl	1.747324	0.191489	0.326462
Cl130	Cl	1.291347	0.092652	0.606909
Cl131	Cl	1.132274	0.875020	-0.647016
Cl132	Cl	1.631095	0.375443	0.036389
Cl133	Cl	1.341793	0.377581	-0.358889
Cl134	Cl	1.150770	0.979599	-0.162145
H135	H	1.902241	-0.006613	0.466468
Cl136	Cl	0.566121	1.371933	0.189079
H137	H	0.571857	1.259272	-0.146261
Cl138	Cl	1.132258	0.875026	-0.500767
Cl139	Cl	0.918243	0.464249	0.206338
H140	H	0.599495	0.735179	0.129053
H141	H	1.321265	0.426404	-0.178605
Cl142	Cl	1.575654	0.062909	0.252207
Cl143	Cl	0.798387	0.391069	0.227187
H144	H	0.719356	0.808331	0.108190
Cl145	Cl	1.341828	0.377601	-0.032779
H146	H	1.291926	0.260814	0.475415
H147	H	1.868208	-0.075091	0.587381
H148	H	1.507635	0.219260	0.487280
Cl149	Cl	0.726769	1.061148	-0.006259
H150	H	0.709816	1.362617	0.097094
Cl151	Cl	0.566037	1.372057	-0.294149
Cl152	Cl	0.898382	1.189776	0.067987
Cl153	Cl	0.811502	1.231528	-0.307096
H154	H	0.966457	1.033368	-0.167076
