data_functionalizedCrystal
_audit_creation_method	'MofGen! by Chris Wilmer'
_symmetry_space_group_name_H-M	'P1'
_symmetry_Int_Tables_number	1
_symmetry_cell_setting	triclinic
loop_
_symmetry_equiv_pos_as_xyz
  x,y,z
_cell_length_a	19.805407
_cell_length_b	19.805405
_cell_length_c	12.759393
_cell_angle_alpha	90.034941
_cell_angle_beta	90.027260
_cell_angle_gamma	90.025972
loop_
_atom_site_label
_atom_site_type_symbol
_atom_site_fract_x
_atom_site_fract_y
_atom_site_fract_z
Zn1	Zn	1.034755	-0.269437	0.594202
Zn2	Zn	1.534755	0.230563	1.094202
Zn3	Zn	1.034663	-0.382642	0.418512
Zn4	Zn	1.534663	0.117358	0.918512
Zn5	Zn	0.921563	-0.269470	0.418515
Zn6	Zn	1.421563	0.230530	0.918515
Zn7	Zn	0.921532	-0.382588	0.594127
Zn8	Zn	1.421532	0.117412	1.094127
O9	O	0.978128	-0.326034	0.506339
O10	O	1.478128	0.173966	1.006339
O11	O	1.129459	-0.284462	0.570927
O12	O	1.629459	0.215538	1.070927
O13	O	1.019635	-0.367666	0.271491
O14	O	1.519635	0.132334	0.771491
O15	O	0.936630	-0.174749	0.441853
O16	O	1.436630	0.325251	0.941853
O17	O	1.129392	-0.367633	0.441848
O18	O	1.629392	0.132367	0.941848
O19	O	1.019791	-0.174725	0.570930
O20	O	1.519791	0.325275	1.070930
O21	O	0.936541	-0.284519	0.271493
O22	O	1.436541	0.215481	0.771493
O23	O	0.826843	-0.284467	0.441780
O24	O	1.326843	0.215533	0.941780
O25	O	0.936577	-0.367541	0.741158
O26	O	1.436577	0.132459	1.241158
O27	O	0.826820	-0.367574	0.570801
O28	O	1.326820	0.132426	1.070801
O29	O	1.019761	-0.284410	0.741213
O30	O	1.519761	0.215590	1.241213
O31	O	1.019604	-0.477351	0.441775
O32	O	1.519604	0.022649	0.941775
O33	O	0.936488	-0.477311	0.570798
O34	O	1.436488	0.022689	1.070798
C35	C	0.802272	-0.326019	0.506283
C36	C	1.302272	0.173981	1.006283
C37	C	0.727040	-0.326029	0.506284
C38	C	1.227040	0.173971	1.006284
C39	C	0.265255	-0.369389	0.573482
C40	C	0.765255	0.130611	1.073482
C41	C	0.335944	-0.369388	0.573460
C42	C	0.835944	0.130612	1.073460
C43	C	0.371279	-0.326050	0.506380
C44	C	0.871279	0.173950	1.006380
C45	C	0.335921	-0.282716	0.439311
C46	C	0.835921	0.217284	0.939311
C47	C	0.265234	-0.282721	0.439328
C48	C	0.765234	0.217279	0.939328
C49	C	0.620995	-0.282695	0.439237
C50	C	1.120995	0.217305	0.939237
C51	C	0.691687	-0.282692	0.439226
C52	C	1.191687	0.217308	0.939226
C53	C	0.691704	-0.369362	0.573368
C54	C	1.191704	0.130638	1.073368
C55	C	0.621017	-0.369367	0.573386
C56	C	1.121017	0.130633	1.073386
C57	C	0.585666	-0.326036	0.506313
C58	C	1.085666	0.173964	1.006313
C59	C	0.509017	-0.326038	0.506337
C60	C	1.009017	0.173962	1.006337
C61	C	0.447926	-0.326044	0.506361
C62	C	0.947926	0.173956	1.006361
C63	C	0.978051	-0.501890	0.506301
C64	C	1.478051	-0.001890	1.006301
C65	C	0.978080	-0.577122	0.506320
C66	C	1.478080	-0.077122	1.006320
C67	C	1.021357	-0.612395	0.573583
C68	C	1.521357	-0.112395	1.073583
C69	C	1.021381	-0.683084	0.573602
C70	C	1.521381	-0.183084	1.073602
C71	C	0.978132	-0.718498	0.506353
C72	C	1.478132	-0.218498	1.006353
C73	C	0.934851	-0.683220	0.439087
C74	C	1.434851	-0.183220	0.939087
C75	C	0.934823	-0.612533	0.439073
C76	C	1.434823	-0.112533	0.939073
C77	C	0.934959	-0.968293	0.439141
C78	C	1.434959	-0.468293	0.939141
C79	C	0.934991	-1.038985	0.439157
C80	C	1.434991	-0.538985	0.939157
C81	C	1.021517	-1.038844	0.573670
C82	C	1.521517	-0.538844	1.073670
C83	C	1.021490	-0.968157	0.573656
C84	C	1.521490	-0.468157	1.073656
C85	C	0.978206	-0.932885	0.506395
C86	C	1.478206	-0.432885	1.006395
C87	C	0.978179	-0.856237	0.506376
C88	C	1.478179	-0.356237	1.006376
C89	C	0.978162	-0.795145	0.506366
C90	C	1.478162	-0.295145	1.006366
C91	C	1.154671	-0.326050	0.506396
C92	C	1.654671	0.173950	1.006396
C93	C	1.229903	-0.326057	0.506420
C94	C	1.729903	0.173943	1.006420
C95	C	0.978176	-0.325966	0.780372
C96	C	1.478176	0.174034	1.280372
C97	C	0.978196	-0.325937	0.897149
C98	C	1.478196	0.174063	1.397149
C99	C	0.978224	-0.149491	0.506400
C100	C	1.478224	0.350509	1.006400
C101	C	0.978265	-0.074259	0.506426
C102	C	1.478265	0.425741	1.006426
C103	C	0.978120	-0.326053	0.233372
C104	C	1.478120	0.173947	0.733372
C105	C	0.978231	-0.325892	0.116596
C106	C	1.478231	0.174108	0.616596
C107	C	1.021516	-0.282646	0.952042
C108	C	1.521516	0.217354	1.452042
C109	C	1.021532	-0.282622	1.061766
C110	C	1.521532	0.217378	1.561766
C111	C	0.934906	-0.369184	1.061695
C112	C	1.434906	0.130816	1.561695
C113	C	0.934887	-0.369205	0.951973
C114	C	1.434887	0.130795	1.451973
C115	C	1.071531	-0.232672	0.952084
C116	C	1.571531	0.267328	1.452084
C117	C	1.071547	-0.232647	1.061808
C118	C	1.571547	0.267353	1.561808
H119	H	1.056578	-0.583566	0.628340
H120	H	1.556578	-0.083566	1.128340
H121	H	0.899644	-0.404410	1.106346
H122	H	1.399644	0.095590	1.606346
C123	C	0.730589	-0.417033	0.647143
C124	C	1.230589	0.082967	1.147143
H125	H	0.699419	-0.442838	0.687103
H126	H	1.199419	0.057162	1.187103
H127	H	0.758136	-0.446495	0.606871
H128	H	1.258136	0.053505	1.106871
H129	H	0.758192	-0.391169	0.692987
H130	H	1.258192	0.108831	1.192987
H131	H	0.364724	-0.404675	0.628066
H132	H	0.864724	0.095325	1.128066
H133	H	0.592251	-0.404655	0.628013
H134	H	1.092251	0.095345	1.128013
C135	C	0.730554	-0.235022	0.365430
C136	C	1.230554	0.264978	0.865430
H137	H	0.699377	-0.209220	0.325479
H138	H	1.199377	0.290780	0.825479
H139	H	0.758156	-0.205558	0.405692
H140	H	1.258156	0.294442	0.905692
H141	H	0.758101	-0.260886	0.319578
H142	H	1.258101	0.239114	0.819578
H143	H	1.056709	-0.939325	0.628413
H144	H	1.556709	-0.439325	1.128413
C145	C	0.887359	-0.929503	0.365142
C146	C	1.387359	-0.429503	0.865142
H147	H	0.861613	-0.960720	0.325085
H148	H	1.361613	-0.460720	0.825085
H149	H	0.857839	-0.901932	0.405270
H150	H	1.357839	-0.401932	0.905270
H151	H	0.913263	-0.901930	0.319398
H152	H	1.413263	-0.401930	0.819398
C153	C	0.887279	-0.722173	0.365111
C154	C	1.387279	-0.222173	0.865111
H155	H	0.893498	-0.769324	0.374743
H156	H	1.393498	-0.269324	0.874743
H157	H	0.841791	-0.710622	0.380409
H158	H	1.341791	-0.210622	0.880409
H159	H	0.897211	-0.710611	0.294532
H160	H	1.397211	-0.210611	0.794532
C161	C	0.887220	-0.573732	0.365083
C162	C	1.387220	-0.073732	0.865083
H163	H	0.861470	-0.604946	0.325027
H164	H	1.361470	-0.104946	0.825027
H165	H	0.857705	-0.546163	0.405222
H166	H	1.357705	-0.046163	0.905222
H167	H	0.913120	-0.546157	0.319337
H168	H	1.413120	-0.046157	0.819337
H169	H	0.592221	-0.247415	0.384618
H170	H	1.092221	0.252585	0.884618
C171	C	0.226393	-0.417038	0.647308
C172	C	0.726393	0.082962	1.147308
H173	H	0.257574	-0.442841	0.687248
H174	H	0.757574	0.057159	1.187248
H175	H	0.198858	-0.391161	0.693152
H176	H	0.698858	0.108839	1.193152
H177	H	0.198779	-0.446512	0.607072
H178	H	0.698779	0.053488	1.107072
C179	C	1.052597	-0.161866	0.911874
C180	C	1.552597	0.338134	1.411874
H181	H	1.052592	-0.161882	0.837417
H182	H	1.552592	0.338118	1.337417
H183	H	1.008929	-0.150144	0.936675
H184	H	1.508929	0.349856	1.436675
H185	H	1.084601	-0.129889	0.936713
H186	H	1.584601	0.370111	1.436713
C187	C	0.887223	-0.416812	0.891594
C188	C	1.387223	0.083188	1.391594
H189	H	0.861436	-0.442578	0.939962
H190	H	1.361436	0.057422	1.439962
H191	H	0.857745	-0.390915	0.848801
H192	H	1.357745	0.109085	1.348801
H193	H	0.913084	-0.446322	0.848781
H194	H	1.413084	0.053678	1.348781
H195	H	1.056626	-0.711800	0.628366
H196	H	1.556626	-0.211800	1.128366
H197	H	0.364697	-0.247433	0.384688
H198	H	0.864697	0.252567	0.884688
H199	H	0.236451	-0.247433	0.384722
H200	H	0.736451	0.252567	0.884722
H201	H	1.121308	-0.251464	0.918058
H202	H	1.621308	0.248536	1.418058
H203	H	1.056758	-1.067571	0.628441
H204	H	1.556758	-0.567571	1.128441
H205	H	0.899770	-1.067817	0.384393
H206	H	1.399770	-0.567817	0.884393
H207	H	1.052801	-0.182842	1.095856
H208	H	1.552801	0.317158	1.595856
H209	H	1.123966	-0.246688	1.091597
H210	H	1.623966	0.253312	1.591597
