data_functionalizedCrystal
_audit_creation_method	'MofGen! by Chris Wilmer'
_symmetry_space_group_name_H-M	'P1'
_symmetry_Int_Tables_number	1
_symmetry_cell_setting	triclinic
loop_
_symmetry_equiv_pos_as_xyz
  x,y,z
_cell_length_a	10.723024
_cell_length_b	15.995350
_cell_length_c	9.798715
_cell_angle_alpha	89.999084
_cell_angle_beta	89.996609
_cell_angle_gamma	83.980122
loop_
_atom_site_label
_atom_site_type_symbol
_atom_site_fract_x
_atom_site_fract_y
_atom_site_fract_z
O1	O	1.655689	0.117435	-0.113475
O2	O	1.292393	0.128675	-0.113479
O3	O	1.483972	0.001224	-0.113475
O4	O	1.464110	0.244886	-0.113478
O5	O	1.483958	0.001224	0.113507
O6	O	1.292379	0.128675	0.113503
O7	O	1.655675	0.117434	0.113507
Zn8	Zn	1.474025	0.123055	0.149544
Zn9	Zn	1.474044	0.123055	-0.149515
O10	O	1.464096	0.244885	0.113504
C11	C	1.245897	0.127857	0.000012
C12	C	1.107374	0.125410	0.000010
C13	C	1.031482	0.196725	0.000008
C14	C	0.888310	0.194197	0.000007
C15	C	1.483144	-0.029975	0.000013
C16	C	1.480682	-0.122940	0.000005
C17	C	1.471842	-0.460738	0.000010
C18	C	1.335403	-0.414088	-0.000501
C19	C	1.337865	-0.317383	0.000011
C20	C	1.476227	-0.293152	0.000007
C21	C	1.543515	-0.333843	0.129623
C22	C	1.540088	-0.430499	0.129732
C23	C	1.542922	-0.430840	-0.128390
C24	C	1.542890	-0.333895	-0.130103
C25	C	1.478712	-0.198441	0.000010
C26	C	1.469360	-0.555450	0.000016
C27	C	1.702171	0.118252	0.000014
C28	C	1.840694	0.120700	0.000007
C29	C	1.464924	0.276085	0.000013
C30	C	1.467386	0.369049	0.000011
N31	N	1.474021	0.123054	0.353643
N32	N	1.474057	0.123049	-0.353615
C33	C	1.554463	0.069305	0.421422
C34	C	1.554483	0.069302	0.578584
H35	H	1.066355	0.062483	-0.000024
N36	N	1.645718	0.008347	0.655780
H37	H	1.734358	0.018356	0.630963
H38	H	1.632692	0.017020	0.757083
H39	H	1.623314	0.023287	0.363100
N40	N	1.382810	0.184005	0.430892
H41	H	1.397399	0.243492	0.406097
H42	H	1.294202	0.173927	0.406082
N43	N	1.678170	-0.314373	0.135969
H44	H	1.680770	-0.251487	0.140088
H45	H	1.719537	-0.341197	0.220066
N46	N	1.263478	-0.440442	0.121941
H47	H	1.175943	-0.410187	0.120837
H48	H	1.258667	-0.503132	0.118680
N49	N	0.801964	0.275081	0.000012
H50	H	0.747304	0.277490	-0.084128
H51	H	0.747382	0.277433	0.084212
H52	H	1.284971	-0.289265	-0.092903
N53	N	0.927047	0.039818	0.000008
H54	H	0.981714	0.037420	-0.084133
H55	H	0.981621	0.037469	0.084207
N56	N	1.676177	-0.472133	-0.129542
H57	H	1.721386	-0.452683	-0.212245
H58	H	1.720573	-0.456155	-0.044006
N59	N	1.382823	0.184003	0.569187
H60	H	1.294180	0.173998	0.594001
H61	H	1.397526	0.243463	0.594006
N62	N	1.085792	0.280086	0.000009
H63	H	1.139141	0.284391	0.084152
H64	H	1.139090	0.284339	-0.084189
N65	N	1.263160	-0.439047	-0.123616
H66	H	1.318168	-0.480839	-0.180257
H67	H	1.186446	-0.465426	-0.092569
H68	H	1.284604	-0.289825	0.093082
H69	H	1.491009	-0.449082	0.226625
H70	H	1.640259	-0.462172	0.135610
H71	H	1.493694	-0.306929	-0.225989
H72	H	1.496768	-0.305731	0.226082
H73	H	1.498320	-0.451636	-0.226631
H74	H	1.643790	-0.317954	-0.137932
