data_functionalizedCrystal
_audit_creation_method	'MofGen! by Chris Wilmer'
_symmetry_space_group_name_H-M	'P1'
_symmetry_Int_Tables_number	1
_symmetry_cell_setting	triclinic
loop_
_symmetry_equiv_pos_as_xyz
  x,y,z
_cell_length_a	12.759395
_cell_length_b	29.839131
_cell_length_c	12.759387
_cell_angle_alpha	89.955090
_cell_angle_beta	89.980569
_cell_angle_gamma	90.035074
loop_
_atom_site_label
_atom_site_type_symbol
_atom_site_fract_x
_atom_site_fract_y
_atom_site_fract_z
Zn1	Zn	1.606119	-0.178832	-0.593872
Zn2	Zn	1.605946	-0.253969	-0.418149
Zn3	Zn	1.430417	-0.178854	-0.418212
Zn4	Zn	1.430346	-0.253935	-0.593791
O5	O	1.518207	-0.216397	-0.506006
O6	O	1.753117	-0.188804	-0.570569
O7	O	1.582619	-0.244029	-0.271136
O8	O	1.453826	-0.115984	-0.441574
O9	O	1.752990	-0.244007	-0.441466
O10	O	1.582913	-0.115967	-0.570630
O11	O	1.453659	-0.188842	-0.271182
O12	O	1.283387	-0.188809	-0.441496
O13	O	1.453706	-0.243949	-0.740823
O14	O	1.283335	-0.243970	-0.570493
O15	O	1.582845	-0.188771	-0.740882
O16	O	1.582551	-0.316832	-0.441388
O17	O	1.453538	-0.316807	-0.570432
C18	C	1.245240	-0.216388	-0.505993
C19	C	1.128463	-0.216395	-0.506012
C20	C	1.128575	-0.159005	-0.640664
C21	C	1.073771	-0.130315	-0.707999
C22	C	0.964049	-0.130323	-0.708012
C23	C	0.909130	-0.159023	-0.640681
C24	C	0.963934	-0.187713	-0.573347
C25	C	1.073658	-0.187703	-0.573343
C26	C	0.963822	-0.245100	-0.438691
C27	C	1.073543	-0.245095	-0.438682
C28	C	0.908902	-0.273800	-0.371360
C29	C	0.963707	-0.302493	-0.304030
C30	C	1.073435	-0.302484	-0.304020
C31	C	1.128348	-0.273785	-0.371347
C32	C	1.518047	-0.333120	-0.505917
C33	C	1.518074	-0.383054	-0.505915
C34	C	1.585408	-0.692654	-0.573302
C35	C	1.585522	-0.880327	-0.573365
O36	O	1.642615	-0.904555	-0.630594
N37	N	1.518386	-0.903839	-0.506123
C38	C	1.451211	-0.880430	-0.438865
O39	O	1.394102	-0.904735	-0.381680
C40	C	1.451092	-0.692758	-0.438808
C41	C	1.518241	-0.669249	-0.506047
C42	C	1.652551	-0.669145	-0.640536
C43	C	1.652526	-0.622229	-0.640515
C44	C	1.585358	-0.598823	-0.573261
C45	C	1.518216	-0.622333	-0.506026
C46	C	1.383913	-0.669350	-0.371556
C47	C	1.383887	-0.622429	-0.371550
C48	C	1.451036	-0.598919	-0.438789
C49	C	1.451023	-0.552012	-0.438751
N50	N	1.518160	-0.528500	-0.505993
C51	C	1.585327	-0.551906	-0.573248
C52	C	1.451279	-0.978961	-0.438898
C53	C	1.451310	-1.025879	-0.438911
C54	C	1.585620	-1.025773	-0.573412
C55	C	1.585594	-0.978854	-0.573393
C56	C	1.518416	-0.955449	-0.506140
C57	C	1.585270	-0.453380	-0.573199
C58	C	1.585242	-0.406460	-0.573169
C59	C	1.450928	-0.406571	-0.438672
C60	C	1.450959	-0.453486	-0.438698
C61	C	1.518134	-0.476889	-0.505969
O62	O	1.393952	-0.527755	-0.381560
O63	O	1.642411	-0.527593	-0.630440
C64	C	1.585433	-0.739570	-0.573322
C65	C	1.518291	-0.763079	-0.506088
C66	C	1.451124	-0.739674	-0.438833
C67	C	1.518322	-0.809997	-0.506100
C68	C	1.585489	-0.833403	-0.573355
C69	C	1.652626	-0.809891	-0.640597
C70	C	1.652601	-0.762976	-0.640577
C71	C	1.383987	-0.763186	-0.371591
C72	C	1.384018	-0.810101	-0.371616
C73	C	1.451186	-0.833507	-0.438871
C74	C	1.792240	-0.216407	-0.506020
C75	C	1.909017	-0.216411	-0.506025
C76	C	1.518287	-0.216353	-0.780040
C77	C	1.518320	-0.216335	-0.896816
C78	C	1.518397	-0.099219	-0.506118
C79	C	1.518477	-0.049285	-0.506166
C80	C	1.652802	-0.158881	-0.896898
C81	C	1.720058	-0.130148	-0.951799
C82	C	1.720083	-0.130132	-1.061521
C83	C	1.652844	-0.158851	-1.116344
C84	C	1.585588	-0.187584	-1.061442
C85	C	1.585572	-0.187598	-0.951718
C86	C	1.451103	-0.245034	-1.061361
C87	C	1.451081	-0.245054	-0.951639
C88	C	1.383863	-0.273754	-1.116184
C89	C	1.316611	-0.302490	-1.061282
C90	C	1.316590	-0.302505	-0.951554
C91	C	1.383825	-0.273787	-0.896738
C92	C	1.518189	-0.216409	-0.233039
C93	C	1.518358	-0.216301	-0.116262
H94	H	1.118498	-0.106948	-0.762816
H95	H	0.919428	-0.106959	-0.762835
C96	C	1.242655	-0.334077	-1.121586
C97	C	1.242674	-0.334057	-1.242276
C98	C	1.168716	-0.365646	-1.302585
C99	C	1.094740	-0.397255	-1.242203
C100	C	1.094718	-0.397277	-1.121506
C101	C	1.168675	-0.365688	-1.061198
H102	H	1.297438	-0.310657	-1.286980
H103	H	1.168733	-0.365629	-1.391933
H104	H	1.039992	-0.420639	-1.286847
H105	H	1.039954	-0.420677	-1.076802
H106	H	1.168659	-0.365704	-0.971849
C107	C	1.794024	-0.098560	-0.891494
C108	C	1.794009	-0.098577	-0.770804
C109	C	1.867975	-0.066989	-0.710503
C110	C	1.941954	-0.035384	-0.770893
C111	C	1.941971	-0.035366	-0.891590
C112	C	1.868006	-0.066954	-0.951890
H113	H	1.739243	-0.121974	-0.726094
H114	H	1.867962	-0.067003	-0.621155
H115	H	1.996708	-0.012001	-0.726255
H116	H	1.996738	-0.011969	-0.936300
H117	H	1.868019	-0.066940	-1.041238
C118	C	1.794063	-0.098526	-1.121920
C119	C	1.876521	-0.117991	-1.197345
C120	C	1.950499	-0.086385	-1.257745
C121	C	1.942019	-0.035314	-1.242721
C122	C	1.859558	-0.015847	-1.167293
C123	C	1.785580	-0.047452	-1.106893
H124	H	1.882801	-0.155799	-1.208470
H125	H	2.011542	-0.100797	-1.313582
H126	H	1.996782	-0.011918	-1.287433
H127	H	1.853278	0.021961	-1.156168
H128	H	1.724536	-0.033041	-1.051056
H129	H	1.707246	-0.688197	-0.695309
C130	C	1.242607	-0.334113	-0.891164
C131	C	1.123181	-0.330435	-0.906238
C132	C	1.049197	-0.362044	-0.845852
C133	C	1.094640	-0.397330	-0.770392
C134	C	1.214072	-0.401010	-0.755315
C135	C	1.288056	-0.369401	-0.815701
H136	H	1.089536	-0.304313	-0.962100
H137	H	0.960785	-0.359320	-0.857013
H138	H	1.039873	-0.420729	-0.725691
H139	H	1.247717	-0.427132	-0.699452
H140	H	1.376468	-0.372125	-0.804540
C141	C	1.310032	-0.695200	-0.297601
C142	C	1.318636	-0.688788	-0.178170
C143	C	1.244744	-0.714636	-0.104214
C144	C	1.162247	-0.746897	-0.149690
C145	C	1.153639	-0.753311	-0.269127
C146	C	1.227531	-0.727462	-0.343083
H147	H	1.379709	-0.664905	-0.144501
H148	H	1.251117	-0.709888	-0.015799
H149	H	1.107548	-0.766031	-0.094944
H150	H	1.092567	-0.777194	-0.302797
H151	H	1.221159	-0.732211	-0.431499
H152	H	1.217689	-0.273773	-0.371341
H153	H	1.640312	-1.044838	-0.628173
H154	H	1.640272	-0.959715	-0.628146
C155	C	1.309991	-0.596684	-0.297565
C156	C	1.318627	-0.603182	-0.178139
C157	C	1.244734	-0.577437	-0.104154
C158	C	1.162206	-0.545195	-0.149595
C159	C	1.153566	-0.538696	-0.269027
C160	C	1.227459	-0.564440	-0.343012
H161	H	1.379723	-0.627051	-0.144496
H162	H	1.251130	-0.582249	-0.015742
H163	H	1.107506	-0.526137	-0.094827
H164	H	1.092471	-0.514827	-0.302671
H165	H	1.221063	-0.559629	-0.431424
H166	H	0.819789	-0.159024	-0.640689
C167	C	1.310145	-0.835958	-0.297648
C168	C	1.318761	-0.829551	-0.178216
C169	C	1.244882	-0.855405	-0.104259
C170	C	1.162386	-0.887667	-0.149735
C171	C	1.153767	-0.894075	-0.269173
C172	C	1.227646	-0.868221	-0.343130
H173	H	1.379832	-0.805667	-0.144547
H174	H	1.251263	-0.850661	-0.015843
H175	H	1.107696	-0.906806	-0.094988
H176	H	1.092696	-0.917959	-0.302842
H177	H	1.221265	-0.872965	-0.431546
H178	H	1.329289	-0.744132	-0.316825
H179	H	1.217917	-0.158994	-0.640656
H180	H	1.383885	-0.273736	-1.205525
H181	H	1.396642	-1.045016	-0.384147
H182	H	1.707279	-0.743837	-0.695329
H183	H	1.639926	-0.387320	-0.627923
H184	H	0.819561	-0.273803	-0.371373
C185	C	0.903296	-0.334060	-0.229973
C186	C	0.782606	-0.334066	-0.229979
C187	C	0.722191	-0.365634	-0.155923
C188	C	0.782466	-0.397196	-0.081861
C189	C	0.903163	-0.397190	-0.081852
C190	C	0.963578	-0.365622	-0.155908
H191	H	0.737981	-0.310701	-0.284807
H192	H	0.632843	-0.365638	-0.155930
H193	H	0.737744	-0.420564	-0.027040
H194	H	0.947789	-0.420555	-0.027024
H195	H	1.052926	-0.365618	-0.155901
H196	H	1.118050	-0.325845	-0.249185
H197	H	1.652862	-0.158831	-1.205685
H198	H	1.652798	-0.158896	-0.807557
H199	H	1.639963	-0.472429	-0.627985
C200	C	1.726509	-0.835643	-0.714581
C201	C	1.809027	-0.867890	-0.669138
C202	C	1.882900	-0.893645	-0.743123
C203	C	1.874256	-0.887153	-0.862550
C204	C	1.791735	-0.854905	-0.907999
C205	C	1.717862	-0.829150	-0.834015
H206	H	1.815429	-0.872698	-0.580726
H207	H	1.943987	-0.917518	-0.709478
H208	H	1.928941	-0.906219	-0.917317
H209	H	1.785333	-0.850098	-0.996412
H210	H	1.656774	-0.805277	-0.867660
C211	C	1.726377	-0.596375	-0.714498
C212	C	1.845821	-0.602789	-0.706050
C213	C	1.919671	-0.576939	-0.780044
C214	C	1.874077	-0.544674	-0.862487
C215	C	1.754626	-0.538258	-0.870938
C216	C	1.680776	-0.564108	-0.796944
H217	H	1.879579	-0.626675	-0.645018
H218	H	2.008097	-0.581689	-0.773787
H219	H	1.928745	-0.525539	-0.917262
H220	H	1.720869	-0.514372	-0.931970
H221	H	1.592351	-0.559358	-0.803201
H222	H	1.383818	-0.273799	-0.807397
H223	H	1.396573	-0.959908	-0.384130
H224	H	1.396290	-0.472629	-0.383938
H225	H	1.396244	-0.387506	-0.383911
