data_functionalizedCrystal
_audit_creation_method	'MofGen! by Chris Wilmer'
_symmetry_space_group_name_H-M	'P1'
_symmetry_Int_Tables_number	1
_symmetry_cell_setting	triclinic
loop_
_symmetry_equiv_pos_as_xyz
  x,y,z
_cell_length_a	8.597187
_cell_length_b	23.532409
_cell_length_c	7.681481
_cell_angle_alpha	84.297066
_cell_angle_beta	88.166928
_cell_angle_gamma	84.100103
loop_
_atom_site_label
_atom_site_type_symbol
_atom_site_fract_x
_atom_site_fract_y
_atom_site_fract_z
O1	O	2.034775	0.101501	-0.455111
O2	O	1.584689	0.105544	-0.386831
O3	O	1.823302	0.020770	-0.423032
O4	O	1.796161	0.186274	-0.418910
O5	O	1.852672	0.010312	-0.134630
O6	O	1.614059	0.095085	-0.098429
O7	O	2.064144	0.091042	-0.166709
Zn8	Zn	1.843765	0.091403	-0.086779
Zn9	Zn	1.805069	0.105183	-0.466761
O10	O	1.825531	0.175816	-0.130508
C11	C	1.541802	0.099298	-0.233896
C12	C	1.370257	0.096260	-0.207872
C13	C	1.837295	-0.005684	-0.278730
C14	C	1.835214	-0.068928	-0.278427
C15	C	1.810360	-0.336589	-0.434301
C16	C	1.812291	-0.277163	-0.434594
O17	O	1.799729	-0.241576	-0.568448
N18	N	1.829257	-0.253149	-0.277529
C19	C	1.844308	-0.288565	-0.120162
O20	O	1.858917	-0.262683	0.013407
C21	C	1.842388	-0.347990	-0.119872
C22	C	1.825406	-0.372000	-0.276946
C23	C	1.793381	-0.360599	-0.591362
C24	C	1.791447	-0.420021	-0.591068
C25	C	1.806493	-0.455432	-0.433712
C26	C	1.823472	-0.431422	-0.276651
C27	C	1.857450	-0.383406	0.037491
C28	C	1.855530	-0.442834	0.037767
C29	C	1.838547	-0.466844	-0.119307
C30	C	1.836583	-0.526255	-0.119002
N31	N	1.819618	-0.550268	-0.276067
C32	C	1.804573	-0.514857	-0.433423
C33	C	1.848342	-0.163768	-0.120783
C34	C	1.850251	-0.104344	-0.121070
C35	C	1.818237	-0.092946	-0.435503
C36	C	1.816317	-0.152371	-0.435213
C37	C	1.831376	-0.187782	-0.277849
C38	C	1.800511	-0.639647	-0.432792
C39	C	1.798572	-0.699074	-0.432483
C40	C	1.830594	-0.710467	-0.118052
C41	C	1.832525	-0.651045	-0.118359
C42	C	1.817487	-0.615636	-0.275744
O43	O	1.849144	-0.561877	0.014783
O44	O	1.789986	-0.540748	-0.566972
C45	C	2.107031	0.097289	-0.319647
C46	C	2.278575	0.100326	-0.345683
C47	C	1.811538	0.202270	-0.274813
C48	C	1.813618	0.265514	-0.275128
N49	N	1.870185	0.081999	0.172547
N50	N	1.778661	0.114583	-0.726089
H51	H	1.784737	-0.718619	-0.560396
H52	H	1.331328	0.106132	-0.483576
H53	H	1.777630	-0.439564	-0.718975
H54	H	1.864050	-0.084800	0.006840
H55	H	1.781134	-0.331773	-0.719507
H56	H	1.788267	-0.610824	-0.560950
N57	N	1.875779	-0.357520	0.206906
H58	H	1.885031	-0.388978	0.306615
H59	H	1.973098	-0.336657	0.199090
H60	H	1.802486	-0.171915	-0.563116
N61	N	1.300399	0.088570	-0.025223
H62	H	1.385948	0.086287	0.063045
H63	H	1.221140	0.122279	-0.006342
N64	N	1.654882	0.158634	0.193106
H65	H	1.675392	0.198103	0.221981
H66	H	1.657930	0.157513	0.061938
H67	H	1.860592	-0.192597	0.007372
N68	N	1.993966	0.037947	0.253374
H69	H	1.973463	-0.001523	0.224500
H70	H	2.100336	0.046885	0.205169
H71	H	1.805981	-0.064103	-0.563630
H72	H	1.846292	-0.631493	0.009552
N73	N	1.871779	-0.481025	0.207503
H74	H	1.775886	-0.502396	0.229184
H75	H	1.967563	-0.509441	0.199974
H76	H	1.842838	-0.739310	0.010064
