data_functionalizedCrystal
_audit_creation_method	'MofGen! by Chris Wilmer'
_symmetry_space_group_name_H-M	'P1'
_symmetry_Int_Tables_number	1
_symmetry_cell_setting	triclinic
loop_
_symmetry_equiv_pos_as_xyz
  x,y,z
_cell_length_a	14.044220
_cell_length_b	16.992695
_cell_length_c	16.053802
_cell_angle_alpha	87.258926
_cell_angle_beta	87.189254
_cell_angle_gamma	88.071450
loop_
_atom_site_label
_atom_site_type_symbol
_atom_site_fract_x
_atom_site_fract_y
_atom_site_fract_z
O1	O	1.275866	-0.187009	-0.069341
O2	O	1.775866	0.312991	0.430659
O3	O	0.999379	-0.180151	-0.069362
O4	O	1.499379	0.319849	0.430638
O5	O	1.136514	-0.069360	-0.069345
O6	O	1.636514	0.430640	0.430655
O7	O	1.138731	-0.297800	-0.069358
O8	O	1.638731	0.202200	0.430642
O9	O	1.128964	-0.075431	0.069513
O10	O	1.628964	0.424569	0.569513
O11	O	0.991829	-0.186221	0.069496
O12	O	1.491829	0.313779	0.569496
O13	O	1.268316	-0.193080	0.069517
O14	O	1.768316	0.306920	0.569517
Zn15	Zn	1.128874	-0.190615	0.091553
Zn16	Zn	1.628874	0.309385	0.591553
Zn17	Zn	1.138822	-0.182616	-0.091398
Zn18	Zn	1.638822	0.317384	0.408602
O19	O	1.131181	-0.303871	0.069500
O20	O	1.631181	0.196129	0.569500
C21	C	0.960062	-0.180184	0.000064
C22	C	1.460062	0.319816	0.500064
C23	C	0.854158	-0.171230	0.000056
C24	C	1.354158	0.328770	0.500056
N25	N	1.122091	-0.196073	0.216412
N26	N	1.622091	0.303927	0.716412
C27	C	1.129887	-0.042984	0.000084
C28	C	1.629887	0.457016	0.500084
C29	C	1.121378	0.044656	0.000083
C30	C	1.621378	0.544656	0.500083
C31	C	0.660256	-0.154860	0.000074
C32	C	1.160256	0.345140	0.500074
C33	C	0.607434	-0.218367	0.000074
C34	C	1.107434	0.281633	0.500074
C35	C	0.499540	-0.209259	0.000083
C36	C	0.999540	0.290741	0.500083
C37	C	0.768160	-0.163967	0.000064
C38	C	1.268160	0.336033	0.500064
C39	C	1.307633	-0.193047	0.000089
C40	C	1.807633	0.306953	0.500089
C41	C	1.413537	-0.202001	0.000091
C42	C	1.913537	0.297999	0.500091
C43	C	1.137808	-0.330247	0.000069
C44	C	1.637808	0.169753	0.500069
C45	C	1.146317	-0.417886	0.000065
C46	C	1.646317	0.082114	0.500065
C47	C	1.203475	0.089154	0.000090
C48	C	1.703475	0.589154	0.500090
C49	C	1.195475	0.171500	0.000081
C50	C	1.695475	0.671500	0.500081
C51	C	1.105377	0.209347	0.000072
C52	C	1.605377	0.709347	0.500072
C53	C	1.023275	0.164843	0.000062
C54	C	1.523275	0.664843	0.500062
C55	C	1.031276	0.082498	0.000065
C56	C	1.531276	0.582498	0.500065
C57	C	1.072216	0.455265	0.000058
C58	C	1.572216	0.955265	0.500058
C59	C	1.064221	0.537616	0.000058
C60	C	1.564221	1.037616	0.500058
C61	C	1.236421	0.544267	0.000075
C62	C	1.736421	1.044267	0.500075
C63	C	1.244414	0.461920	0.000083
C64	C	1.744414	0.961920	0.500083
C65	C	1.162312	0.417424	0.000069
C66	C	1.662312	0.917424	0.500069
N67	N	1.097198	0.293518	0.000066
N68	N	1.597198	0.793518	0.500066
N69	N	1.170493	0.333254	0.000069
N70	N	1.670493	0.833254	0.500069
N71	N	1.145611	-0.177152	-0.216258
N72	N	1.645611	0.322848	0.283742
C73	C	1.180467	-0.148952	0.260114
C74	C	1.680467	0.351048	0.760114
C75	C	1.175732	-0.152778	0.347520
C76	C	1.675732	0.347222	0.847520
C77	C	1.112626	-0.203731	0.391223
C78	C	1.612626	0.296269	0.891223
C79	C	1.054244	-0.250855	0.347516
C80	C	1.554244	0.249145	0.847516
C81	C	1.058975	-0.247023	0.260111
C82	C	1.558975	0.252977	0.760111
C83	C	1.091960	-0.220444	0.652630
C84	C	1.591960	0.279556	1.152630
C85	C	1.087236	-0.224273	0.740041
C86	C	1.587236	0.275727	1.240041
C87	C	1.208722	-0.126196	0.740039
C88	C	1.708722	0.373804	1.240039
C89	C	1.213452	-0.122372	0.652633
C90	C	1.713452	0.377628	1.152633
C91	C	1.155066	-0.169493	0.608933
C92	C	1.655066	0.330507	1.108933
N93	N	1.107787	-0.207646	0.480566
N94	N	1.607787	0.292354	0.980566
N95	N	1.159901	-0.165574	0.519591
N96	N	1.659901	0.334426	1.019591
H97	H	0.643242	-0.279576	0.000066
H98	H	1.143242	0.220424	0.500066
H99	H	0.624450	-0.093656	0.000082
H100	H	1.124450	0.406344	0.500082
H101	H	1.002857	-0.292339	0.383104
H102	H	1.502857	0.207661	0.883104
H103	H	1.005362	0.419046	0.000046
H104	H	1.505362	0.919046	0.500046
H105	H	1.276842	0.058345	0.000103
H106	H	1.776842	0.558345	0.500103
H107	H	1.303264	0.580505	0.000085
H108	H	1.803264	1.080505	0.500085
H109	H	1.231858	-0.107464	0.224536
H110	H	1.731858	0.392536	0.724536
H111	H	1.011438	-0.285394	0.224531
H112	H	1.511438	0.214606	0.724531
H113	H	1.262327	0.207727	0.000089
H114	H	1.762327	0.707727	0.500089
H115	H	0.990848	0.568427	0.000063
H116	H	1.490848	1.068427	0.500063
H117	H	1.317781	0.431112	0.000091
H118	H	1.817781	0.931112	0.500091
H119	H	0.949916	0.195665	0.000049
H120	H	1.449916	0.695665	0.500049
H121	H	1.223265	-0.114408	0.383101
H122	H	1.723265	0.385592	0.883101
H123	H	0.964424	0.046269	0.000059
H124	H	1.464424	0.546269	0.500059
H125	H	1.264837	-0.080883	0.617051
H126	H	1.764837	0.419117	1.117051
H127	H	1.256256	-0.087831	0.775627
H128	H	1.756256	0.412169	1.275627
H129	H	1.035845	-0.265768	0.775620
H130	H	1.535845	0.234232	1.275620
H131	H	1.044422	-0.258813	0.617057
H132	H	1.544422	0.241187	1.117057
