data_functionalizedCrystal
_audit_creation_method	'MofGen! by Chris Wilmer'
_symmetry_space_group_name_H-M	'P1'
_symmetry_Int_Tables_number	1
_symmetry_cell_setting	triclinic
loop_
_symmetry_equiv_pos_as_xyz
  x,y,z
_cell_length_a	15.698487
_cell_length_b	20.875641
_cell_length_c	20.875643
_cell_angle_alpha	90.153707
_cell_angle_beta	122.410967
_cell_angle_gamma	57.591697
loop_
_atom_site_label
_atom_site_type_symbol
_atom_site_fract_x
_atom_site_fract_y
_atom_site_fract_z
Zr1	Zr	0.876254	-0.063032	-0.639074
O2	O	1.075510	-0.173561	-0.528538
O3	O	0.691939	-0.029151	-0.672959
O4	O	0.883724	-0.168267	-0.667657
O5	O	0.872622	0.075294	-0.538022
O6	O	0.872621	-0.164088	-0.777397
O7	O	0.883724	-0.034445	-0.533840
O8	O	0.529552	0.084765	-0.786881
O9	O	1.215691	-0.173559	-0.528538
O10	O	0.753930	-0.011580	-0.769308
O11	O	0.753930	0.067199	-0.690532
O12	O	0.979734	-0.096592	-0.684290
O13	O	0.979734	-0.017813	-0.605513
Zr14	Zr	0.840838	0.118655	-0.820766
Zr15	Zr	0.858546	-0.056367	-0.814096
Zr16	Zr	0.858546	0.111990	-0.645744
Zr17	Zr	1.099827	-0.063028	-0.639074
Zr18	Zr	0.617265	0.118651	-0.820766
O19	O	1.025153	0.084774	-0.786881
O20	O	1.050332	-0.164085	-0.777397
O21	O	1.050332	0.075297	-0.538022
O22	O	0.641582	0.229184	-0.931302
O23	O	0.666760	-0.019674	-0.921818
O24	O	0.666760	0.219708	-0.682443
O25	O	0.844470	-0.019671	-0.921818
O26	O	0.833367	0.223890	-0.792183
O27	O	0.844471	0.219711	-0.682443
O28	O	0.833367	0.090068	-0.926000
O29	O	1.201616	-0.168261	-0.667657
O30	O	0.515476	0.223884	-0.792183
O31	O	0.501401	0.229182	-0.931302
O32	O	0.515476	0.090063	-0.926001
O33	O	1.201616	-0.034440	-0.533840
O34	O	1.187540	-0.029142	-0.672959
O35	O	0.737358	0.152215	-0.775551
O36	O	0.737358	0.073436	-0.854327
O37	O	0.963162	-0.011576	-0.769308
O38	O	0.963162	0.067203	-0.690532
C39	C	0.578891	0.027807	-0.729920
C40	C	0.483978	0.027805	-0.729920
C41	C	0.880696	0.019475	-0.510994
C42	C	0.888214	0.016646	-0.436692
C43	C	0.836396	0.246737	-0.738263
C44	C	0.828878	0.321039	-0.741095
C45	C	0.310194	0.027819	-0.729919
C46	C	0.406900	0.027813	-0.729918
C47	C	1.138201	0.027817	-0.729920
C48	C	1.233114	0.027818	-0.729920
C49	C	0.880696	-0.191114	-0.721577
C50	C	0.888213	-0.265415	-0.718745
C51	C	0.943211	0.311572	-0.698048
C52	C	0.936140	0.381389	-0.700705
C53	C	0.814736	0.460671	-0.746414
C54	C	0.700395	0.470136	-0.789463
C55	C	0.707467	0.400320	-0.786800
C56	C	0.780945	0.674233	-0.759131
C57	C	0.773881	0.744051	-0.761792
C58	C	1.009627	0.655299	-0.673033
C59	C	1.016688	0.585485	-0.670379
C60	C	0.902349	0.594956	-0.713423
N61	N	0.807505	0.532036	-0.749134
N62	N	0.909581	0.523591	-0.710699
C63	C	0.773882	0.059688	-0.446162
C64	C	0.780953	0.057027	-0.376345
C65	C	0.902358	0.011320	-0.297059
C66	C	1.016698	-0.031724	-0.287591
C67	C	1.009625	-0.029058	-0.357407
C68	C	0.936150	-0.001407	-0.083495
C69	C	0.943214	-0.004071	-0.013677
C70	C	0.707468	0.084682	-0.102436
C71	C	0.700406	0.087339	-0.172250
C72	C	0.814746	0.044299	-0.162776
N73	N	0.909589	0.008597	-0.225693
N74	N	0.807513	0.047027	-0.234141
C75	C	0.836397	0.036147	0.051154
C76	C	0.828882	0.038971	-0.023147
C77	C	0.556741	0.036143	-0.948846
C78	C	0.454311	0.038971	-1.023148
C79	C	0.556741	0.246732	-0.738263
C80	C	0.454311	0.321032	-0.741095
C81	C	0.534591	0.255069	-0.957190
C82	C	0.424643	0.332198	-1.034323
C83	C	1.182501	-0.199446	-0.502651
C84	C	1.292449	-0.276575	-0.425517
C85	C	1.160351	0.019480	-0.510994
C86	C	1.262781	0.016652	-0.436692
C87	C	1.160351	-0.191109	-0.721577
C88	C	1.262781	-0.265409	-0.718745
C89	C	0.414860	-0.004086	-1.013662
C90	C	0.318631	-0.001446	-1.083469
C91	C	0.261848	0.044257	-1.162761
C92	C	0.301307	0.087315	-1.172246
C93	C	0.397541	0.084669	-1.102440
C94	C	0.397558	0.400309	-0.786804
C95	C	0.301326	0.470128	-0.789462
C96	C	0.261843	0.460668	-0.746415
C97	C	0.318606	0.381383	-0.700700
C98	C	0.414843	0.311566	-0.698038
C99	C	0.373010	0.327297	-1.111673
C100	C	0.269715	0.399761	-1.184155
C101	C	0.218049	0.477126	-1.179284
C102	C	0.269692	0.482025	-1.101925
C103	C	0.372991	0.409561	-1.029445
C104	C	1.344093	-0.271674	-0.348167
C105	C	1.447415	-0.344138	-0.275686
C106	C	1.499086	-0.421503	-0.280557
C107	C	1.447437	-0.426402	-0.357915
C108	C	1.344123	-0.353938	-0.430395
C109	C	1.302242	0.059702	-0.446178
C110	C	1.398498	0.057042	-0.376371
C111	C	1.455284	0.011337	-0.297078
C112	C	1.415820	-0.031717	-0.287593
C113	C	1.319573	-0.029062	-0.357400
C114	C	1.302232	-0.255923	-0.761801
C115	C	1.398462	-0.325728	-0.759157
C116	C	1.455245	-0.405018	-0.713451
C117	C	1.415785	-0.414503	-0.670394
C118	C	1.319551	-0.344698	-0.673043
H119	H	1.042071	0.247020	-0.660830
H120	H	0.601547	0.124543	-0.236804
H121	H	1.533654	0.009182	-0.240244
C122	C	1.287310	-0.359339	-0.515476
H123	H	1.332878	-0.415795	-0.507988
H124	H	1.296398	-0.332779	-0.545474
H125	H	1.197605	-0.332790	-0.545448
C126	C	1.612724	-0.501208	-0.200827
H127	H	1.636113	-0.547990	-0.214800
H128	H	1.586684	-0.502407	-0.169246
H129	H	1.685496	-0.502404	-0.169252
H130	H	0.614379	0.119722	-0.110140
H131	H	1.256013	-0.191367	-0.799020
H132	H	1.489451	-0.340133	-0.212704
H133	H	0.227611	0.545025	-1.097971
H134	H	0.286445	0.373693	-0.665653
C135	C	1.478284	-0.081982	-0.200369
H136	H	1.541243	-0.077384	-0.160161
H137	H	1.519392	-0.138461	-0.192086
H138	H	1.412743	-0.061093	-0.195046
C139	C	0.212887	0.394362	-1.269240
H140	H	0.143967	0.448595	-1.311714
H141	H	0.180414	0.365591	-1.274234
H142	H	0.279219	0.365578	-1.274266
C143	C	1.276182	-0.355139	-0.625664
H144	H	1.210733	-0.302215	-0.633784
H145	H	1.348849	-0.386293	-0.568321
H146	H	1.242187	-0.383345	-0.645669
H147	H	1.489521	-0.489400	-0.361871
C148	C	0.155983	0.047170	-1.239544
H149	H	0.127813	0.080551	-1.288130
H150	H	0.084099	0.070052	-1.240409
H151	H	0.190740	-0.007302	-1.237465
H152	H	1.430579	-0.317990	-0.794219
C153	C	0.440931	0.132034	-1.112880
H154	H	0.506385	0.123913	-1.059955
H155	H	0.368275	0.189378	-1.144039
H156	H	0.474926	0.112018	-1.141083
H157	H	0.429693	0.408026	-0.821859
C158	C	1.276160	-0.076408	-0.346955
H159	H	1.323760	-0.103998	-0.289733
H160	H	1.292280	-0.115898	-0.370866
H161	H	1.185654	-0.038532	-0.373810
H162	H	1.430612	0.092106	-0.384109
C163	C	1.287274	-0.186581	-0.342797
H164	H	1.218338	-0.144118	-0.397037
H165	H	1.353611	-0.181561	-0.314028
H166	H	1.254802	-0.181564	-0.314017
H167	H	0.255061	0.124524	-1.236815
H168	H	1.462033	-0.479070	-0.633181
H169	H	1.256013	0.096925	-0.510736
C170	C	0.238892	0.557331	-0.839757
H171	H	0.276178	0.552959	-0.865023
H172	H	0.254310	0.584944	-0.803972
H173	H	0.147663	0.587882	-0.881321
C174	C	1.561110	-0.481796	-0.710536
H175	H	1.576475	-0.464784	-0.742720
H176	H	1.532774	-0.512515	-0.732220
H177	H	1.639407	-0.515449	-0.654864
H178	H	1.029241	0.373674	-0.665653
H179	H	0.183480	0.517525	-0.748589
H180	H	1.029254	-0.036467	-0.075770
C181	C	1.150234	0.498279	-0.620095
H182	H	1.217316	0.502640	-0.594833
H183	H	1.153978	0.470673	-0.655889
H184	H	1.161804	0.467727	-0.578531
C185	C	0.640331	0.831263	-0.812069
H186	H	0.573247	0.826904	-0.837318
H187	H	0.628754	0.861818	-0.853632
H188	H	0.636600	0.858864	-0.776266
H189	H	0.286515	-0.036509	-1.075730
H190	H	0.687841	0.681955	-0.794184
C191	C	0.566853	0.557344	-0.839747
H192	H	0.579012	0.597570	-0.835176
H193	H	0.523486	0.562667	-0.818873
H194	H	0.515676	0.565602	-0.896225
H195	H	1.102717	0.647597	-0.637987
C196	C	0.581703	0.410733	-0.834145
H197	H	0.508385	0.467949	-0.861752
H198	H	0.583488	0.383867	-0.796266
H199	H	0.575637	0.386817	-0.873634
C200	C	0.477255	0.224364	-0.647765
H201	H	0.540232	0.184131	-0.652335
H202	H	0.411700	0.219059	-0.668648
H203	H	0.518359	0.216101	-0.591285
C204	C	0.640335	0.109971	-0.533371
H205	H	0.573256	0.135231	-0.529009
H206	H	0.636579	0.074184	-0.560986
H207	H	0.628769	0.151536	-0.563918
H208	H	0.415019	0.413563	-0.966466
H209	H	0.415061	0.264310	-1.115655
H210	H	0.687852	0.092078	-0.384062
H211	H	0.133936	0.536124	-1.238307
C212	C	1.076762	-0.054351	0.073541
H213	H	1.064594	-0.049781	0.113762
H214	H	1.120124	-0.033472	0.078868
H215	H	1.127946	-0.110828	0.081803
H216	H	1.115548	-0.068935	-0.223030
H217	H	0.461093	-0.041312	-0.949103
H218	H	1.102725	-0.064097	-0.349692
