data_functionalizedCrystal
_audit_creation_method	'MofGen! by Chris Wilmer'
_symmetry_space_group_name_H-M	'P1'
_symmetry_Int_Tables_number	1
_symmetry_cell_setting	triclinic
loop_
_symmetry_equiv_pos_as_xyz
  x,y,z
_cell_length_a	25.639243
_cell_length_b	12.594516
_cell_length_c	12.594517
_cell_angle_alpha	90.003002
_cell_angle_beta	90.004326
_cell_angle_gamma	90.014540
loop_
_atom_site_label
_atom_site_type_symbol
_atom_site_fract_x
_atom_site_fract_y
_atom_site_fract_z
Zn1	Zn	0.799263	-0.423894	0.601926
Zn2	Zn	0.799245	-0.601827	0.423949
Zn3	Zn	0.711857	-0.423871	0.423948
Zn4	Zn	0.711825	-0.601839	0.601872
O5	O	0.755547	-0.512858	0.512924
O6	O	0.872425	-0.447501	0.578340
O7	O	0.787658	-0.578206	0.275003
O8	O	0.723472	-0.274929	0.447580
O9	O	0.872412	-0.578228	0.447581
O10	O	0.787689	-0.274945	0.578339
O11	O	0.723455	-0.447463	0.275002
O12	O	0.638687	-0.447475	0.447527
O13	O	0.723418	-0.578249	0.750825
O14	O	0.638664	-0.578227	0.578247
O15	O	0.787658	-0.447513	0.750865
O16	O	0.787628	-0.750774	0.447528
O17	O	0.723401	-0.750783	0.578247
C18	C	0.619705	-0.512851	0.512881
C19	C	0.561591	-0.512873	0.512889
C20	C	0.201229	-0.444896	0.581124
C21	C	0.146625	-0.444895	0.581130
O22	O	0.118389	-0.387078	0.639093
N23	N	0.119308	-0.512855	0.512953
C24	C	0.146599	-0.580813	0.444757
O25	O	0.118350	-0.638617	0.386767
C26	C	0.201202	-0.580807	0.444746
C27	C	0.228516	-0.512850	0.512935
C28	C	0.228542	-0.376943	0.649306
C29	C	0.283143	-0.376946	0.649301
C30	C	0.310430	-0.444901	0.581113
C31	C	0.283116	-0.512853	0.512930
C32	C	0.228492	-0.648759	0.376546
C33	C	0.283099	-0.648747	0.376540
C34	C	0.310413	-0.580790	0.444729
C35	C	0.365004	-0.580810	0.444736
N36	N	0.392320	-0.512850	0.512913
C37	C	0.365033	-0.444895	0.581101
C38	C	0.031928	-0.580817	0.444784
C39	C	-0.022674	-0.580829	0.444800
C40	C	-0.022645	-0.444909	0.581172
C41	C	0.031959	-0.444904	0.581161
C42	C	0.059245	-0.512857	0.512962
C43	C	0.479698	-0.444907	0.581085
C44	C	0.534304	-0.444918	0.581077
C45	C	0.534270	-0.580834	0.444702
C46	C	0.479669	-0.580826	0.444714
C47	C	0.452385	-0.512854	0.512909
O48	O	0.393274	-0.638595	0.386799
O49	O	0.393289	-0.387091	0.639072
C50	C	0.755523	-0.789399	0.512905
C51	C	0.755561	-0.907704	0.512933
C52	C	0.790534	-0.976914	0.441911
C53	C	0.803295	-1.047651	0.539061
C54	C	0.742865	-1.047766	0.415844
C55	C	0.768346	-0.976883	0.610134
C56	C	0.707894	-0.976992	0.486852
C57	C	0.720636	-1.047697	0.584069
C58	C	0.891920	-0.512866	0.512967
C59	C	0.950034	-0.512869	0.512985
C60	C	0.755536	-0.512885	0.790545
C61	C	0.755532	-0.512897	0.908850
C62	C	0.755586	-0.235237	0.512966
C63	C	0.755602	-0.116932	0.512983
C64	C	0.720591	-0.583994	0.978081
C65	C	0.768288	-0.610026	1.048876
C66	C	0.707837	-0.486892	1.048855
C67	C	0.803254	-0.538979	0.978086
C68	C	0.742771	-0.415800	0.978059
C69	C	0.790501	-0.441796	1.048821
C70	C	0.755547	-0.512863	1.236383
C71	C	0.755529	-0.512877	1.118077
H72	H	0.457429	-0.636175	0.389201
H73	H	0.820082	-0.381663	1.079685
H74	H	-0.044872	-0.389574	0.636692
Cl75	Cl	0.675001	-1.095386	0.676935
H76	H	0.556497	-0.636163	0.389187
H77	H	0.667504	-0.464905	1.079941
Cl78	Cl	0.194249	-0.291504	0.735042
Cl79	Cl	0.317398	-0.734183	0.290800
Cl80	Cl	0.865543	-0.573082	0.930300
H81	H	0.054141	-0.636163	0.389251
Cl82	Cl	0.568637	-0.359483	0.666810
H83	H	0.731962	-0.333720	0.946929
Cl84	Cl	0.066290	-0.359466	0.666885
H85	H	0.667577	-0.945928	0.464735
H86	H	0.779061	-0.945880	0.692332
H87	H	0.820115	-0.945834	0.381904
Cl88	Cl	0.726259	-1.095838	0.289048
H89	H	0.691081	-0.644172	0.947022
Cl90	Cl	0.865561	-1.095552	0.573183
H91	H	-0.044908	-0.636178	0.389285
Cl92	Cl	0.784957	-0.736786	1.096904
H93	H	0.457490	-0.389554	0.636613
H94	H	0.305377	-0.321607	0.704826
Cl95	Cl	0.194169	-0.734175	0.290795
