data_functionalizedCrystal
_audit_creation_method	'MofGen! by Chris Wilmer'
_symmetry_space_group_name_H-M	'P1'
_symmetry_Int_Tables_number	1
_symmetry_cell_setting	triclinic
loop_
_symmetry_equiv_pos_as_xyz
  x,y,z
_cell_length_a	10.686285
_cell_length_b	10.685727
_cell_length_c	10.686551
_cell_angle_alpha	80.925701
_cell_angle_beta	99.084519
_cell_angle_gamma	99.060155
loop_
_atom_site_label
_atom_site_type_symbol
_atom_site_fract_x
_atom_site_fract_y
_atom_site_fract_z
Zn1	Zn	-0.595594	-2.038245	0.823884
Zn2	Zn	-0.262261	-1.704912	1.157217
Zn3	Zn	0.071073	-1.371579	1.490550
Zn4	Zn	-0.824167	-2.038142	0.595374
Zn5	Zn	-0.490833	-1.704809	0.928707
Zn6	Zn	-0.157500	-1.371475	1.262041
Zn7	Zn	-0.595640	-1.809683	0.595400
Zn8	Zn	-0.262306	-1.476350	0.928733
Zn9	Zn	0.071027	-1.143016	1.262066
Zn10	Zn	-0.793653	-1.840094	0.793501
Zn11	Zn	-0.460320	-1.506760	1.126834
Zn12	Zn	-0.126986	-1.173427	1.460167
O13	O	-0.702263	-1.931541	0.702040
O14	O	-0.368930	-1.598208	1.035373
O15	O	-0.035597	-1.264874	1.368706
O16	O	-0.638666	-2.216770	0.806276
O17	O	-0.305332	-1.883436	1.139610
O18	O	0.028001	-1.550103	1.472943
O19	O	-0.806641	-1.995066	0.416839
O20	O	-0.473308	-1.661733	0.750173
O21	O	-0.139974	-1.328400	1.083506
O22	O	-0.417106	-1.827318	0.638435
O23	O	-0.083773	-1.493985	0.971768
O24	O	0.249561	-1.160652	1.305101
O25	O	-0.806597	-2.216694	0.638391
O26	O	-0.473264	-1.883360	0.971725
O27	O	-0.139930	-1.550027	1.305058
O28	O	-0.417072	-1.995242	0.806301
O29	O	-0.083739	-1.661909	1.139634
O30	O	0.249594	-1.328575	1.472968
O31	O	-0.638743	-1.827218	0.416858
O32	O	-0.305410	-1.493885	0.750192
O33	O	0.027923	-1.160552	1.083525
O34	O	-0.609156	-1.635179	0.608973
O35	O	-0.275822	-1.301846	0.942307
O36	O	0.057511	-0.968512	1.275640
O37	O	-0.754591	-1.879149	0.976069
O38	O	-0.421257	-1.545816	1.309402
O39	O	-0.087924	-1.212482	1.642736
O40	O	-0.754635	-1.657522	0.754517
O41	O	-0.421302	-1.324188	1.087851
O42	O	-0.087968	-0.990855	1.421184
O43	O	-0.609078	-2.024730	0.998391
O44	O	-0.275744	-1.691397	1.331725
O45	O	0.057589	-1.358063	1.665058
O46	O	-0.998646	-2.024554	0.608930
O47	O	-0.665313	-1.691221	0.942263
O48	O	-0.331980	-1.357888	1.275596
O49	O	-0.976228	-1.879049	0.754492
O50	O	-0.642895	-1.545716	1.087826
O51	O	-0.309562	-1.212382	1.421159
C52	C	-0.678590	-1.600057	0.678452
C53	C	-0.345257	-1.266724	1.011785
C54	C	-0.011923	-0.933391	1.345118
C55	C	-0.668491	-1.458252	0.668389
C56	C	-0.335158	-1.124918	1.001722
C57	C	-0.001824	-0.791585	1.335056
C58	C	-1.033728	-1.955127	0.678442
C59	C	-0.700395	-1.621794	1.011775
C60	C	-0.367061	-1.288460	1.345108
C61	C	-1.175535	-1.965337	0.668397
C62	C	-0.842202	-1.632004	1.001731
C63	C	-0.508869	-1.298670	1.335064
C64	C	-0.369505	-1.907900	0.725760
C65	C	-0.036171	-1.574566	1.059093
C66	C	0.297162	-1.241233	1.392427
C67	C	-0.227703	-1.897825	0.735868
C68	C	0.105631	-1.564492	1.069201
C69	C	0.438964	-1.231158	1.402535
C70	C	-0.678425	-1.955343	1.034818
C71	C	-0.345092	-1.622010	1.368151
C72	C	-0.011759	-1.288677	1.701484
C73	C	-0.668267	-1.965486	1.176628
C74	C	-0.334934	-1.632153	1.509961
C75	C	-0.001600	-1.298820	1.843294
C76	C	-0.726016	-1.264318	0.725715
C77	C	-0.392683	-0.930984	1.059048
C78	C	-0.059350	-0.597651	1.392381
C79	C	-0.736103	-1.406123	0.735789
C80	C	-0.402770	-1.072790	1.069122
C81	C	-0.069437	-0.739457	1.402456
C82	C	-0.725922	-1.907898	0.370568
C83	C	-0.392588	-1.574565	0.703901
C84	C	-0.059255	-1.241231	1.037235
C85	C	-0.735738	-1.897977	0.228802
C86	C	-0.402405	-1.564643	0.562135
C87	C	-0.069071	-1.231310	0.895468
H88	H	-0.801707	-1.469980	0.801200
H89	H	-0.468374	-1.136646	1.134534
H90	H	-0.135040	-0.803313	1.467867
H91	H	-0.602871	-1.394388	0.602985
H92	H	-0.269538	-1.061055	0.936319
H93	H	0.063795	-0.727722	1.269652
F94	F	-1.144283	-1.812066	0.821419
F95	F	-0.810949	-1.478733	1.154752
F96	F	-0.477616	-1.145400	1.488086
H97	H	-0.602732	-2.031055	1.240455
H98	H	-0.269399	-1.697721	1.573789
H99	H	0.063934	-1.364388	1.907122
H100	H	-1.239366	-2.030942	0.602934
H101	H	-0.906033	-1.697608	0.936267
H102	H	-0.572700	-1.364275	1.269600
F103	F	-0.821406	-1.812290	1.145386
F104	F	-0.488073	-1.478957	1.478719
F105	F	-0.154740	-1.145624	1.812052
