data_functionalizedCrystal
_audit_creation_method	'MofGen! by Chris Wilmer'
_symmetry_space_group_name_H-M	'P1'
_symmetry_Int_Tables_number	1
_symmetry_cell_setting	triclinic
loop_
_symmetry_equiv_pos_as_xyz
  x,y,z
_cell_length_a	23.096457
_cell_length_b	14.560438
_cell_length_c	14.560438
_cell_angle_alpha	60.000905
_cell_angle_beta	89.999359
_cell_angle_gamma	59.999411
loop_
_atom_site_label
_atom_site_type_symbol
_atom_site_fract_x
_atom_site_fract_y
_atom_site_fract_z
Zr1	Zr	0.557764	1.005292	-0.120540
O2	O	0.465313	1.196892	-0.267179
O3	O	0.586105	0.813691	-0.075589
O4	O	0.586102	1.005295	-0.267190
O5	O	0.465319	1.005286	0.075562
O6	O	0.681382	1.005297	-0.267195
O7	O	0.465316	1.005288	-0.075579
O8	O	0.681387	0.662553	0.075543
O9	O	0.465314	1.348030	-0.267176
O10	O	0.669299	0.892501	-0.056419
O11	O	0.598194	0.892497	0.056379
O12	O	0.598191	1.118086	-0.169206
O13	O	0.527086	1.118082	-0.056407
Zr14	Zr	0.709729	1.005292	0.120504
Zr15	Zr	0.709725	1.005296	-0.120548
Zr16	Zr	0.557768	1.005288	0.120513
Zr17	Zr	0.557764	1.246339	-0.120535
Zr18	Zr	0.709729	0.764244	0.120499
O19	O	0.681388	1.196892	0.075553
O20	O	0.681383	1.196898	-0.267192
O21	O	0.465319	1.196887	0.075566
O22	O	0.802180	0.813691	0.267143
O23	O	0.802174	0.813697	-0.075602
O24	O	0.586110	0.813685	0.267156
O25	O	0.802174	1.005297	-0.075598
O26	O	0.681391	1.005288	0.267154
O27	O	0.586111	1.005286	0.267160
O28	O	0.802177	1.005295	0.075543
O29	O	0.586102	1.348034	-0.267183
O30	O	0.681391	0.662550	0.267148
O31	O	0.802179	0.662553	0.267141
O32	O	0.802176	0.662556	0.075536
O33	O	0.465317	1.348027	-0.075572
O34	O	0.586105	1.348030	-0.075579
O35	O	0.669302	0.892497	0.169170
O36	O	0.740407	0.892501	0.056371
O37	O	0.669299	1.118086	-0.056415
O38	O	0.598194	1.118082	0.056384
C39	C	0.633746	0.703778	-0.000024
C40	C	0.633746	0.601447	-0.000026
C41	C	0.443666	1.005287	-0.000007
C42	C	0.379155	1.005285	-0.000003
C43	C	0.670861	0.553373	-0.058905
C44	C	0.670863	0.457213	-0.058895
C45	C	0.596631	0.457215	0.058877
C46	C	0.596633	0.553366	0.058872
C47	C	0.385967	0.887535	0.058859
C48	C	0.325351	0.887533	0.058864
C49	C	0.257924	1.005288	-0.000015
C50	C	0.251114	1.123053	-0.058881
C51	C	0.311730	1.123052	-0.058874
N52	N	0.135127	1.092940	-0.095841
N53	N	0.077547	1.092933	-0.095845
C54	C	0.075291	1.005300	-0.000035
N55	N	0.132796	0.917653	0.095776
N56	N	0.190382	0.917656	0.095778
C57	C	0.192193	1.005303	-0.000028
C58	C	0.016380	0.887540	0.058838
C59	C	-0.044238	0.887543	0.058846
C60	C	-0.118475	1.123066	-0.058910
C61	C	-0.057857	1.123059	-0.058907
C62	C	0.009568	1.005293	-0.000036
C63	C	0.823827	1.005297	-0.000029
C64	C	0.888338	1.005299	-0.000033
C65	C	0.633742	1.005297	-0.301537
C66	C	0.633740	1.005299	-0.403870
C67	C	0.633747	1.306806	-0.000012
C68	C	0.633747	1.409137	-0.000010
C69	C	0.596623	1.123049	-0.510820
C70	C	0.596631	1.123043	-0.606969
C71	C	0.670875	0.887525	-0.489205
C72	C	0.670870	0.887532	-0.393058
C73	C	0.633751	1.005287	0.301502
C74	C	0.633753	1.005285	0.403834
C75	C	0.823826	0.703783	-0.000035
C76	C	0.888338	0.601454	-0.000040
C77	C	0.633751	0.703773	0.301496
C78	C	0.633752	0.601440	0.403827
C79	C	0.823831	0.703778	0.301485
C80	C	0.888344	0.601447	0.403812
C81	C	0.443662	1.306806	-0.301521
C82	C	0.379149	1.409137	-0.403848
C83	C	0.443667	1.306800	-0.000001
C84	C	0.379155	1.409130	0.000004
C85	C	0.633742	1.306811	-0.301532
C86	C	0.633741	1.409143	-0.403863
C87	C	0.881515	0.553399	-0.058929
C88	C	0.942125	0.457263	-0.058956
C89	C	1.009556	0.409177	-0.000089
C90	C	1.016377	0.457241	0.058801
C91	C	0.955769	0.553382	0.058822
C92	C	0.955763	0.553393	0.392986
C93	C	1.016385	0.457256	0.489124
C94	C	1.009588	0.409167	0.596087
C95	C	0.942163	0.457230	0.606911
C96	C	0.881541	0.553373	0.510774
C97	C	0.311730	1.457202	-0.393022
C98	C	0.251108	1.553369	-0.489160
C99	C	0.257905	1.601463	-0.596123
C100	C	0.325330	1.553394	-0.606947
C101	C	0.385952	1.457234	-0.510810
C102	C	0.385978	1.457195	0.058883
C103	C	0.325368	1.553357	0.058884
C104	C	0.257937	1.601446	0.000013
C105	C	0.251116	1.553377	-0.058873
C106	C	0.311724	1.457223	-0.058880
C107	C	0.670870	0.553362	0.510778
C108	C	0.670864	0.457219	0.606925
C109	C	0.596620	0.457236	0.489156
C110	C	0.596623	0.553384	0.393012
H111	H	0.701081	0.592516	-0.106862
C112	C	0.555789	0.606272	0.275355
N113	N	0.525034	0.646108	0.186737
C114	C	0.176946	1.606226	-0.477229
N115	N	0.121090	1.646034	-0.468239
H116	H	0.330936	1.592479	0.106840
H117	H	0.701099	0.791640	-0.305969
H118	H	0.330856	1.592564	-0.694047
H119	H	0.826614	0.592549	-0.106879
H120	H	1.071288	0.418076	0.106729
H121	H	0.936557	0.418140	-0.106911
H122	H	1.058902	0.330892	-0.000114
H123	H	0.440845	1.418100	-0.519638
C124	C	0.711708	0.606229	0.522679
N125	N	0.742465	0.646050	0.531648
C126	C	0.332842	0.757995	0.123615
N127	N	0.338486	0.660426	0.172383
H128	H	0.196211	1.218930	-0.106820
C129	C	0.460147	1.404321	0.123644
N130	N	0.516010	1.364509	0.172419
H131	H	0.196205	1.592546	-0.106804
C132	C	0.304236	1.404325	-0.275371
N133	N	0.298585	1.364512	-0.186759
H134	H	1.071281	0.418132	0.480292
H135	H	0.208591	1.679741	0.000028
C136	C	1.076281	0.303398	0.701831
N137	N	1.126516	0.223727	0.781473
C138	C	0.963286	0.606219	0.123620
N139	N	0.968953	0.646010	0.172432
C140	C	0.090549	0.757996	0.123610
N141	N	0.146413	0.660421	0.172401
C142	C	0.934697	0.404308	0.724581
N143	N	0.929077	0.364437	0.813213
C144	C	0.191212	1.707231	-0.701867
N145	N	0.140977	1.786890	-0.781509
C146	C	-0.192642	1.252598	-0.123676
N147	N	-0.248509	1.350165	-0.172458
C148	C	0.555785	0.404357	0.477272
N149	N	0.525030	0.364527	0.468319
H150	H	0.701086	0.418073	-0.106839
H151	H	0.566414	0.418056	0.106828
H152	H	0.566409	0.592507	0.106824
H153	H	0.306159	1.418091	-0.106822
H154	H	0.961311	0.592533	0.305900
H155	H	0.306178	1.218940	-0.106805
H156	H	0.440863	0.791640	0.106790
H157	H	-0.063407	1.218944	-0.106847
H158	H	-0.038685	0.791653	0.106787
H159	H	0.566390	1.218942	-0.519630
H160	H	0.566408	1.218928	-0.694049
H161	H	0.701104	0.791644	-0.480415
H162	H	0.826649	0.592486	0.519604
H163	H	0.701088	0.418079	0.694006
