data_functionalizedCrystal
_audit_creation_method	'MofGen! by Chris Wilmer'
_symmetry_space_group_name_H-M	'P1'
_symmetry_Int_Tables_number	1
_symmetry_cell_setting	triclinic
loop_
_symmetry_equiv_pos_as_xyz
  x,y,z
_cell_length_a	13.635800
_cell_length_b	11.452785
_cell_length_c	11.102289
_cell_angle_alpha	99.083949
_cell_angle_beta	71.394293
_cell_angle_gamma	108.699236
loop_
_atom_site_label
_atom_site_type_symbol
_atom_site_fract_x
_atom_site_fract_y
_atom_site_fract_z
V1	V	-2.033454	-0.380655	0.091637
O2	O	-2.013395	-0.373409	-0.091049
O3	O	-2.021995	-0.378052	0.265033
O4	O	-2.012114	-0.546672	0.052209
O5	O	-2.023345	-0.203622	0.123249
V6	V	-2.273247	-0.359481	0.074278
O7	O	-2.168403	-0.427104	0.129716
O8	O	-2.363397	-0.313032	0.036199
O9	O	-2.173102	-0.362084	-0.099118
O10	O	-2.352004	-0.366727	0.256964
O11	O	-2.342055	-0.536515	0.042666
O12	O	-2.182983	-0.193464	0.113706
V13	V	-1.533454	-0.380655	0.091637
O14	O	-1.513395	-0.373409	-0.091049
O15	O	-1.521995	-0.378052	0.265033
O16	O	-1.512114	-0.546672	0.052209
O17	O	-1.523345	-0.203622	0.123249
V18	V	-1.773247	-0.359481	0.074278
O19	O	-1.668403	-0.427104	0.129716
O20	O	-1.863397	-0.313032	0.036199
O21	O	-1.673102	-0.362084	-0.099118
O22	O	-1.852004	-0.366727	0.256964
O23	O	-1.842055	-0.536515	0.042666
O24	O	-1.682983	-0.193464	0.113706
C25	C	-1.934898	-0.587138	0.037011
C26	C	-1.958176	-0.722857	0.005922
C27	C	-2.020220	-0.940201	0.066905
C28	C	-1.996171	-0.799926	0.099023
C29	C	-1.947503	-0.372047	0.308491
C30	C	-1.978796	-0.371025	0.450000
C31	C	-2.079266	-0.368086	-0.142569
C32	C	-2.037592	-0.369116	-0.284078
C33	C	-2.091871	-0.152992	0.128909
C34	C	-2.058212	-0.017271	0.159992
C35	C	-1.447503	-0.372047	0.308491
C36	C	-1.478796	-0.371025	0.450000
C37	C	-1.434898	-0.587138	0.037011
C38	C	-1.458176	-0.722857	0.005922
C39	C	-2.085145	-0.376635	0.521607
C40	C	-2.114544	-0.375685	0.654569
C41	C	-1.931236	-0.363509	0.644304
C42	C	-1.901839	-0.364468	0.511345
C43	C	-2.190976	-0.383659	0.527535
C44	C	-2.220376	-0.382709	0.660497
C45	C	-1.579266	-0.368086	-0.142569
C46	C	-1.537592	-0.369116	-0.284078
C47	C	-1.591871	-0.152992	0.128909
C48	C	-1.558212	-0.017271	0.159992
C49	C	-1.560757	-0.792816	-0.003718
C50	C	-1.582639	-0.920337	-0.032946
C51	C	-1.501942	-0.977899	-0.052525
C52	C	-1.399351	-0.907931	-0.042887
C53	C	-1.377468	-0.780410	-0.013668
C54	C	-1.456679	0.040259	0.179550
C55	C	-1.425033	0.167785	0.208741
C56	C	-1.494925	0.237777	0.218383
C57	C	-1.596466	0.180238	0.198820
C58	C	-1.628107	0.052716	0.169620
C59	C	-1.585145	-0.376635	0.521607
C60	C	-1.614544	-0.375685	0.654569
C61	C	-1.431236	-0.363509	0.644304
C62	C	-1.401839	-0.364468	0.511345
C63	C	-1.690976	-0.383659	0.527535
C64	C	-1.720376	-0.382709	0.660497
H65	H	-2.005503	-0.978069	-0.036568
Cl66	Cl	-1.248504	-0.692480	-0.001537
Cl67	Cl	-1.711617	-1.008273	-0.045046
Cl68	Cl	-1.935451	-0.781301	-0.153845
H69	H	-1.368584	-0.358173	0.694267
Cl70	Cl	-1.529472	-1.138215	-0.089251
Cl71	Cl	-1.368793	-0.047703	0.167432
H72	H	-1.333654	-0.954818	-0.058832
H73	H	-2.072938	-0.979404	0.263465
Cl74	Cl	-1.662224	-0.720480	0.020887
Cl75	Cl	-1.769286	-0.520743	0.467526
H76	H	-2.010900	-0.762065	0.202503
H77	H	-2.280979	-0.473156	0.698356
Cl78	Cl	-1.768145	-0.357438	0.421326
H79	H	-1.868584	-0.358173	0.694267
H80	H	-1.315246	-0.359914	0.453046
H81	H	-2.241705	-0.472449	0.488674
H82	H	-2.196055	-0.297578	0.493349
Cl83	Cl	-1.698812	-0.250758	0.474744
H84	H	-2.250917	-0.299312	0.703914
H85	H	-1.342350	0.214614	0.224666
H86	H	-1.469153	0.341610	0.242175
H87	H	-1.653364	0.237245	0.206671
H88	H	-1.710788	0.005884	0.153705
H89	H	-1.780979	-0.473156	0.698356
Cl90	Cl	-1.767527	-0.253953	0.727538
