data_functionalizedCrystal
_audit_creation_method	'MofGen! by Chris Wilmer'
_symmetry_space_group_name_H-M	'P1'
_symmetry_Int_Tables_number	1
_symmetry_cell_setting	triclinic
loop_
_symmetry_equiv_pos_as_xyz
  x,y,z
_cell_length_a	15.538191
_cell_length_b	27.731996
_cell_length_c	14.750779
_cell_angle_alpha	77.461457
_cell_angle_beta	97.572172
_cell_angle_gamma	64.946741
loop_
_atom_site_label
_atom_site_type_symbol
_atom_site_fract_x
_atom_site_fract_y
_atom_site_fract_z
O1	O	1.231607	-0.143297	-0.079807
O2	O	1.731607	0.356703	0.420193
O3	O	0.956510	-0.087336	-0.079818
O4	O	1.456510	0.412664	0.420182
O5	O	1.102633	-0.187190	-0.079791
O6	O	1.602633	0.312810	0.420209
O7	O	1.085483	-0.043443	-0.079833
O8	O	1.585483	0.456557	0.420167
O9	O	1.143940	-0.215415	0.079867
O10	O	1.643940	0.284585	0.579867
O11	O	0.997817	-0.115561	0.079840
O12	O	1.497817	0.384439	0.579840
O13	O	1.272914	-0.171523	0.079851
O14	O	1.772914	0.328477	0.579851
Zn15	Zn	1.141924	-0.148023	0.105195
Zn16	Zn	1.641924	0.351977	0.605195
Zn17	Zn	1.087500	-0.110835	-0.105161
Zn18	Zn	1.587500	0.389165	0.394839
O19	O	1.126790	-0.071669	0.079824
O20	O	1.626790	0.428331	0.579824
C21	C	0.941980	-0.095593	0.000010
C22	C	1.441980	0.404407	0.500010
C23	C	0.837145	-0.078153	0.000007
C24	C	1.337145	0.421847	0.500007
C25	C	0.551949	-0.251418	0.000042
C26	C	1.051949	0.248582	0.500042
C27	C	0.453437	-0.235018	0.000037
C28	C	0.953437	0.264982	0.500037
C29	C	0.429611	-0.142770	0.000010
C30	C	0.929611	0.357230	0.500010
C31	C	0.528124	-0.159163	0.000020
C32	C	1.028124	0.340837	0.500020
C33	C	0.589286	-0.213488	0.000035
C34	C	1.089286	0.286512	0.500035
C35	C	0.565461	-0.121233	0.000013
C36	C	1.065461	0.378767	0.500013
C37	C	0.663964	-0.137625	0.000018
C38	C	1.163964	0.362375	0.500018
C39	C	0.725131	-0.191947	0.000031
C40	C	1.225131	0.308053	0.500031
C41	C	0.687789	-0.229880	0.000041
C42	C	1.187789	0.270120	0.500041
C43	C	0.504296	-0.066907	-0.000009
C44	C	1.004296	0.433093	0.499991
C45	C	0.541632	-0.028977	-0.000016
C46	C	1.041632	0.471023	0.499984
C47	C	0.640139	-0.045370	-0.000004
C48	C	1.140139	0.454630	0.499996
C49	C	0.701306	-0.099691	0.000008
C50	C	1.201306	0.400309	0.500008
C51	C	0.677481	-0.007436	-0.000014
C52	C	1.177481	0.492564	0.499986
C53	C	0.775984	-0.023828	-0.000009
C54	C	1.275984	0.476172	0.499991
C55	C	0.799809	-0.116083	0.000014
C56	C	1.299809	0.383917	0.500014
C57	C	1.122935	-0.219250	0.000041
C58	C	1.622935	0.280750	0.500041
C59	C	1.121878	-0.272726	0.000051
C60	C	1.621878	0.227274	0.500051
C61	C	1.092677	-0.588903	-0.087026
C62	C	1.592677	-0.088903	0.412974
C63	C	1.088645	-0.789867	-0.087043
C64	C	1.588645	-0.289867	0.412957
O65	O	1.068935	-0.802756	-0.161059
O66	O	1.568935	-0.302756	0.338941
N67	N	1.110662	-0.830384	-0.000014
N68	N	1.610662	-0.330384	0.499986
C69	C	1.133681	-0.820656	0.087025
C70	C	1.633681	-0.320656	0.587025
O71	O	1.152305	-0.859727	0.161048
O72	O	1.652305	-0.359727	0.661048
C73	C	1.137705	-0.619691	0.087041
C74	C	1.637705	-0.119691	0.587041
C75	C	1.115697	-0.579178	0.000006
C76	C	1.615697	-0.079178	0.500006
C77	C	1.070670	-0.548391	-0.174053
C78	C	1.570670	-0.048391	0.325947
C79	C	1.071683	-0.498155	-0.174048
C80	C	1.571683	0.001845	0.325952
C81	C	1.094703	-0.488430	-0.087016
C82	C	1.594703	0.011570	0.412984
C83	C	1.116711	-0.528942	0.000012
C84	C	1.616711	-0.028942	0.500012
C85	C	1.160718	-0.609962	0.174079
C86	C	1.660718	-0.109962	0.674079
C87	C	1.161720	-0.559716	0.174075
C88	C	1.661720	-0.059716	0.674075
C89	C	1.139711	-0.519203	0.087041
C90	C	1.639711	-0.019203	0.587041
C91	C	1.140744	-0.468980	0.087049
C92	C	1.640744	0.031020	0.587049
N93	N	1.118728	-0.428464	0.000020
N94	N	1.618728	0.071536	0.500020
C95	C	1.095708	-0.438188	-0.087012
C96	C	1.595708	0.061812	0.412988
C97	C	1.131569	-0.926165	0.087010
C98	C	1.631569	-0.426165	0.587010
C99	C	1.130564	-0.976406	0.087006
C100	C	1.630564	-0.476406	0.587006
C101	C	1.085527	-0.945613	-0.087062
C102	C	1.585527	-0.445613	0.412938
C103	C	1.086538	-0.895373	-0.087057
C104	C	1.586538	-0.395373	0.412943
C105	C	1.109552	-0.885648	-0.000018
C106	C	1.609552	-0.385648	0.499982
C107	C	1.097838	-0.332689	-0.086995
C108	C	1.597838	0.167311	0.413005
C109	C	1.098857	-0.282450	-0.086982
C110	C	1.598857	0.217550	0.413018
C111	C	1.143889	-0.313246	0.087086
C112	C	1.643889	0.186754	0.587086
C113	C	1.142875	-0.363482	0.087074
C114	C	1.642875	0.136518	0.587074
C115	C	1.119844	-0.373200	0.000026
C116	C	1.619844	0.126800	0.500026
O117	O	1.160435	-0.456050	0.161026
O118	O	1.660435	0.043950	0.661026
O119	O	1.077066	-0.399106	-0.161024
O120	O	1.577066	0.100894	0.338976
C121	C	1.091664	-0.639140	-0.087031
C122	C	1.591664	-0.139140	0.412969
C123	C	1.113671	-0.679651	-0.000004
C124	C	1.613671	-0.179651	0.499996
C125	C	1.136691	-0.669927	0.087029
C126	C	1.636691	-0.169927	0.587029
C127	C	1.112667	-0.729893	-0.000008
C128	C	1.612667	-0.229893	0.499992
C129	C	1.089646	-0.739618	-0.087040
C130	C	1.589646	-0.239618	0.412960
C131	C	1.067630	-0.699101	-0.174069
C132	C	1.567630	-0.199101	0.325931
C133	C	1.068643	-0.648864	-0.174064
C134	C	1.568643	-0.148864	0.325936
C135	C	1.158708	-0.710443	0.174057
C136	C	1.658708	-0.210443	0.674057
C137	C	1.157694	-0.760679	0.174045
C138	C	1.657694	-0.260679	0.674045
C139	C	1.134673	-0.770404	0.087013
C140	C	1.634673	-0.270404	0.587013
C141	C	1.287443	-0.163265	0.000021
C142	C	1.787443	0.336735	0.500021
C143	C	1.392276	-0.180704	0.000018
C144	C	1.892276	0.319296	0.500018
C145	C	1.106488	-0.039608	-0.000010
C146	C	1.606488	0.460392	0.499990
C147	C	1.107544	0.013869	-0.000026
C148	C	1.607544	0.513869	0.499974
N149	N	1.179074	-0.173404	0.248757
N150	N	1.679074	0.326596	0.748757
N151	N	1.050357	-0.085459	-0.248724
N152	N	1.550357	0.414541	0.251276
C153	C	0.946603	-0.014594	0.600533
C154	C	1.446603	0.485406	1.100533
C155	C	0.972642	-0.032378	0.701037
C156	C	1.472642	0.467622	1.201037
C157	C	1.102061	-0.120779	0.701023
C158	C	1.602061	0.379221	1.201023
C159	C	1.076029	-0.103004	0.600517
C160	C	1.576029	0.396996	1.100517
C161	C	0.998301	-0.049911	0.550280
C162	C	1.498301	0.450089	1.050280
C163	C	1.127727	-0.138320	0.550264
C164	C	1.627727	0.361680	1.050264
C165	C	1.101700	-0.120545	0.449767
C166	C	1.601700	0.379455	0.949767
C167	C	1.023977	-0.067454	0.399523
C168	C	1.523977	0.432546	0.899523
C169	C	0.972274	-0.032136	0.449783
C170	C	1.472274	0.467864	0.949783
C171	C	1.205460	-0.191411	0.600503
C172	C	1.705460	0.308589	1.100503
C173	C	1.257157	-0.226728	0.550250
C174	C	1.757157	0.273272	1.050250
C175	C	1.231126	-0.208955	0.449751
C176	C	1.731126	0.291045	0.949751
C177	C	1.153403	-0.155863	0.399507
C178	C	1.653403	0.344137	0.899507
C179	C	1.282829	-0.244272	0.399491
C180	C	1.782829	0.255728	0.899491
C181	C	1.256802	-0.226497	0.298994
C182	C	1.756802	0.273503	0.798994
C183	C	1.127376	-0.138088	0.299010
C184	C	1.627376	0.361912	0.799010
H185	H	0.805335	-0.205289	0.000022
H186	H	1.305335	0.294711	0.500022
F187	F	1.184786	-0.177282	0.754497
F188	F	1.684786	0.322718	1.254497
F189	F	0.863866	0.041911	0.547064
F190	F	1.363866	0.541911	1.047064
H191	H	0.930538	-0.003614	0.741948
H192	H	1.430538	0.496386	1.241948
H193	H	0.849612	-0.160321	0.000032
H194	H	1.349612	0.339679	0.500032
H195	H	1.320447	-0.269956	0.591165
H196	H	1.820447	0.230044	1.091165
H197	H	0.424088	-0.053563	-0.000016
H198	H	0.924088	0.446437	0.499984
H199	H	1.048890	-0.707028	-0.244934
H200	H	1.548890	-0.207028	0.255066
H201	H	0.423043	-0.265909	0.000041
H202	H	0.923043	0.234091	0.500041
F203	F	1.233159	-0.210325	0.707463
F204	F	1.733159	0.289675	1.207463
H205	H	1.346122	-0.287499	0.440408
H206	H	1.846122	0.212501	0.940408
F207	F	1.311828	-0.264085	0.245511
F208	F	1.811828	0.235915	0.745511
F209	F	0.752891	-0.287701	0.000068
F210	F	1.252891	0.212299	0.500068
F211	F	1.168390	-0.302887	0.179707
F212	F	1.668390	0.197113	0.679707
F213	F	1.156060	-0.915822	0.179655
F214	F	1.656060	-0.415822	0.679655
F215	F	1.044639	-0.081582	0.245541
F216	F	1.544639	0.418418	0.745541
F217	F	0.617051	-0.309239	0.000069
F218	F	1.117051	0.190761	0.500069
H219	H	1.050721	-0.615882	-0.244936
H220	H	1.550721	-0.115882	0.255064
F221	F	0.364508	-0.084954	-0.000012
F222	F	0.864508	0.415046	0.499988
F223	F	1.181126	-0.803794	0.266686
F224	F	1.681126	-0.303794	0.766686
H225	H	0.491821	0.015255	-0.000032
H226	H	0.991821	0.515255	0.499968
H227	H	0.627666	0.036796	-0.000036
H228	H	1.127666	0.536796	0.499964
F229	F	0.815722	0.016542	-0.000018
F230	F	1.315722	0.516542	0.499982
F231	F	1.075435	-0.239336	-0.179620
F232	F	1.575435	0.260664	0.320380
F233	F	1.046165	-0.558731	-0.266693
F234	F	1.546165	-0.058731	0.233307
F235	F	1.073326	-0.343024	-0.179641
F236	F	1.573326	0.156976	0.320359
H237	H	1.002790	-0.052981	0.317692
H238	H	1.502790	0.447019	0.817692
H239	H	1.180447	-0.551799	0.244954
H240	H	1.680447	-0.051799	0.744954
H241	H	1.066784	-0.953539	-0.157927
H242	H	1.566784	-0.453539	0.342073
F243	F	1.048252	-0.455041	-0.266683
F244	F	1.548252	0.044959	0.233317
F245	F	1.063113	-0.852259	-0.179690
F246	F	1.563113	-0.352259	0.320310
F247	F	1.154005	-1.019523	0.179640
F248	F	1.654005	-0.519523	0.679640
H249	H	1.178641	-0.642941	0.244952
H250	H	1.678641	-0.142941	0.744952
F251	F	0.889537	0.024370	0.396314
F252	F	1.389537	0.524370	0.896314
H253	H	1.160805	-0.396472	0.157944
H254	H	1.660805	0.103528	0.657944
H255	H	1.177456	-0.702533	0.244931
H256	H	1.677456	-0.202533	0.744931
