data_functionalizedCrystal
_audit_creation_method	'MofGen! by Chris Wilmer'
_symmetry_space_group_name_H-M	'P1'
_symmetry_Int_Tables_number	1
_symmetry_cell_setting	triclinic
loop_
_symmetry_equiv_pos_as_xyz
  x,y,z
_cell_length_a	19.121063
_cell_length_b	21.395364
_cell_length_c	21.395355
_cell_angle_alpha	89.975484
_cell_angle_beta	92.420740
_cell_angle_gamma	92.464759
loop_
_atom_site_label
_atom_site_type_symbol
_atom_site_fract_x
_atom_site_fract_y
_atom_site_fract_z
Zn1	Zn	-0.279776	0.947226	-0.364898
Zn2	Zn	0.053557	1.280559	-0.031564
Zn3	Zn	0.386890	1.613893	0.301769
Zn4	Zn	-0.397210	0.942665	-0.264585
Zn5	Zn	-0.063876	1.275999	0.068748
Zn6	Zn	0.269457	1.609332	0.402082
Zn7	Zn	-0.279768	0.842441	-0.260134
Zn8	Zn	0.053566	1.175775	0.073199
Zn9	Zn	0.386899	1.509108	0.406532
Zn10	Zn	-0.397183	0.837948	-0.369324
Zn11	Zn	-0.063850	1.171282	-0.035991
Zn12	Zn	0.269484	1.504615	0.297342
O13	O	-0.338484	0.892570	-0.314735
O14	O	-0.005151	1.225904	0.018598
O15	O	0.328183	1.559237	0.351931
O16	O	-0.295369	1.034298	-0.351601
O17	O	0.037965	1.367632	-0.018268
O18	O	0.371298	1.700965	0.315065
O19	O	-0.381638	0.929342	-0.176317
O20	O	-0.048305	1.262676	0.157016
O21	O	0.285028	1.596009	0.490350
O22	O	-0.181484	0.860130	-0.270316
O23	O	0.151850	1.193464	0.063017
O24	O	0.485183	1.526797	0.396351
O25	O	-0.381647	1.030948	-0.277902
O26	O	-0.048313	1.364281	0.055431
O27	O	0.285020	1.697614	0.388765
O28	O	-0.181490	0.937115	-0.347285
O29	O	0.151843	1.270449	-0.013952
O30	O	0.485177	1.603782	0.319381
O31	O	-0.295354	0.855708	-0.173047
O32	O	0.037979	1.189041	0.160286
O33	O	0.371312	1.522375	0.493620
O34	O	-0.295328	0.754168	-0.274608
O35	O	0.038005	1.087501	0.058725
O36	O	0.371338	1.420835	0.392058
O37	O	-0.381601	0.852472	-0.456415
O38	O	-0.048268	1.185806	-0.123081
O39	O	0.285066	1.519139	0.210252
O40	O	-0.381593	0.750867	-0.354830
O41	O	-0.048259	1.084200	-0.021496
O42	O	0.285074	1.417534	0.311837
O43	O	-0.295343	0.932758	-0.453163
O44	O	0.037991	1.266092	-0.119829
O45	O	0.371324	1.599425	0.213504
O46	O	-0.495491	0.924985	-0.282194
O47	O	-0.162158	1.258319	0.051139
O48	O	0.171175	1.591652	0.384473
O49	O	-0.495472	0.848050	-0.359146
O50	O	-0.162138	1.181383	-0.025812
O51	O	0.171195	1.514717	0.307521
C52	C	-0.338457	0.729784	-0.314717
C53	C	-0.005124	1.063117	0.018617
C54	C	0.328209	1.396450	0.351950
C55	C	-0.338463	0.660142	-0.314724
C56	C	-0.005129	0.993476	0.018609
C57	C	0.328204	1.326809	0.351942
C58	C	-0.293665	0.160085	-0.353189
C59	C	0.039668	0.493419	-0.019855
C60	C	0.373001	0.826752	0.313478
C61	C	-0.293660	0.225521	-0.353188
C62	C	0.039673	0.558854	-0.019855
C63	C	0.373007	0.892188	0.313478
C64	C	-0.338506	0.256502	-0.314750
C65	C	-0.005172	0.589836	0.018583
C66	C	0.328161	0.923169	0.351916
C67	C	-0.383373	0.222042	-0.276321
C68	C	-0.050039	0.555375	0.057012
C69	C	0.283294	0.888709	0.390345
C70	C	-0.383381	0.156608	-0.276327
C71	C	-0.050048	0.489941	0.057006
C72	C	0.283285	0.823274	0.390339
C73	C	-0.343944	0.359932	-0.258490
C74	C	-0.010611	0.693265	0.074844
C75	C	0.322722	1.026599	0.408177
C76	C	-0.343931	0.425366	-0.258482
C77	C	-0.010597	0.758699	0.074851
C78	C	0.322736	1.092032	0.408184
C79	C	-0.338482	0.458324	-0.314732
C80	C	-0.005149	0.791657	0.018601
C81	C	0.328184	1.124991	0.351935
C82	C	-0.333033	0.425841	-0.370990
C83	C	0.000300	0.759175	-0.037657
C84	C	0.333634	1.092508	0.295677
C85	C	-0.333042	0.360407	-0.370996
C86	C	0.000291	0.693740	-0.037663
C87	C	0.333625	1.027074	0.295671
C88	C	-0.338501	0.327455	-0.314740
C89	C	-0.005168	0.660788	0.018594
C90	C	0.328165	0.994122	0.351927
C91	C	-0.293616	0.563729	-0.353161
C92	C	0.039717	0.897062	-0.019828
C93	C	0.373051	1.230395	0.313505
C94	C	-0.293616	0.629165	-0.353162
C95	C	0.039718	0.962499	-0.019829
C96	C	0.373051	1.295832	0.313504
C97	C	-0.383325	0.625686	-0.276289
C98	C	-0.049991	0.959019	0.057044
C99	C	0.283342	1.292352	0.390377
C100	C	-0.383329	0.560250	-0.276294
C101	C	-0.049995	0.893583	0.057039
C102	C	0.283338	1.226917	0.390372
C103	C	-0.338470	0.529276	-0.314729
C104	C	-0.005137	0.862609	0.018604
C105	C	0.328196	1.195942	0.351937
C106	C	-0.520966	0.885552	-0.321647
C107	C	-0.187632	1.218886	0.011686
C108	C	0.145701	1.552219	0.345020
C109	C	-0.599032	0.882607	-0.324625
C110	C	-0.265699	1.215941	0.008709
C111	C	0.067635	1.549274	0.342042
C112	C	-0.635695	0.921311	-0.285992
C113	C	-0.302361	1.254644	0.047341
C114	C	0.030972	1.587978	0.380674
C115	C	-0.709046	0.918545	-0.288796
C116	C	-0.375713	1.251878	0.044537
C117	C	-0.042380	1.585212	0.377870
C118	C	-0.745734	0.877072	-0.330230
C119	C	-0.412401	1.210405	0.003103
C120	C	-0.079067	1.543738	0.336436
C121	C	-0.709066	0.838366	-0.368867
C122	C	-0.375733	1.171700	-0.035534
C123	C	-0.042400	1.505033	0.297800
C124	C	-0.635716	0.841136	-0.366065
C125	C	-0.302383	1.174469	-0.032732
C126	C	0.030951	1.507803	0.300601
C127	C	-0.967205	0.866707	-0.340695
C128	C	-0.633872	1.200040	-0.007361
C129	C	-0.300539	1.533373	0.325972
C130	C	-1.040561	0.863939	-0.343492
C131	C	-0.707228	1.197272	-0.010159
C132	C	-0.373894	1.530605	0.323175
C133	C	-1.040536	0.944118	-0.263422
C134	C	-0.707203	1.277452	0.069911
C135	C	-0.373869	1.610785	0.403245
C136	C	-0.967184	0.946882	-0.260622
C137	C	-0.633851	1.280215	0.072712
C138	C	-0.300518	1.613548	0.406045
C139	C	-0.930523	0.908179	-0.299260
C140	C	-0.597189	1.241512	0.034073
C141	C	-0.263856	1.574845	0.367406
C142	C	-0.820711	0.874242	-0.333096
C143	C	-0.487378	1.207575	0.000237
C144	C	-0.154045	1.540909	0.333570
C145	C	-0.855547	0.911012	-0.296397
C146	C	-0.522214	1.244345	0.036936
C147	C	-0.188880	1.577679	0.370270
C148	C	-0.155290	0.899633	-0.307811
C149	C	0.178043	1.232966	0.025523
C150	C	0.511377	1.566299	0.358856
C151	C	-0.077224	0.902642	-0.304860
C152	C	0.256110	1.235976	0.028474
C153	C	0.589443	1.569309	0.361807
C154	C	-0.338470	0.892623	-0.478158
C155	C	-0.005137	1.225956	-0.144825
C156	C	0.328197	1.559290	0.188509
C157	C	-0.338464	0.892645	-0.547799
C158	C	-0.005131	1.225979	-0.214466
C159	C	0.328203	1.559312	0.118867
C160	C	-0.338512	1.055992	-0.314754
C161	C	-0.005178	1.389326	0.018579
C162	C	0.328155	1.722659	0.351912
C163	C	-0.338523	1.125633	-0.314762
C164	C	-0.005190	1.458967	0.018571
C165	C	0.328143	1.792300	0.351904
C166	C	-0.293547	0.934449	-0.578820
C167	C	0.039786	1.267782	-0.245487
C168	C	0.373119	1.601115	0.087847
C169	C	-0.293517	0.934449	-0.644254
C170	C	0.039816	1.267782	-0.310921
C171	C	0.373150	1.601115	0.022413
C172	C	-0.338416	0.892652	-0.678666
C173	C	-0.005083	1.225985	-0.345332
C174	C	0.328251	1.559319	-0.011999
C175	C	-0.383336	0.850841	-0.647637
C176	C	-0.050002	1.184174	-0.314304
C177	C	0.283331	1.517507	0.019029
C178	C	-0.383360	0.850837	-0.582204
C179	C	-0.050026	1.184171	-0.248871
C180	C	0.283307	1.517504	0.084463
C181	C	-0.401656	0.885273	-0.784736
C182	C	-0.068323	1.218606	-0.451402
C183	C	0.265011	1.551939	-0.118069
C184	C	-0.401633	0.885280	-0.850168
C185	C	-0.068300	1.218614	-0.516834
C186	C	0.265033	1.551947	-0.183501
C187	C	-0.338342	0.892659	-0.880484
C188	C	-0.005008	1.225992	-0.547150
C189	C	0.328325	1.559325	-0.213817
C190	C	-0.275071	0.900043	-0.845360
C191	C	0.058262	1.233376	-0.512026
C192	C	0.391596	1.566709	-0.178693
C193	C	-0.275095	0.900039	-0.779926
C194	C	0.058238	1.233373	-0.446593
C195	C	0.391572	1.566706	-0.113260
C196	C	-0.338395	0.892651	-0.749617
C197	C	-0.005061	1.225984	-0.416284
C198	C	0.328272	1.559317	-0.082951
C199	C	-0.293389	0.934465	-0.982456
C200	C	0.039945	1.267798	-0.649122
C201	C	0.373278	1.601131	-0.315789
C202	C	-0.293357	0.934460	-1.047891
C203	C	0.039976	1.267794	-0.714558
C204	C	0.373309	1.601127	-0.381224
C205	C	-0.383182	0.850855	-1.051273
C206	C	-0.049849	1.184189	-0.717940
C207	C	0.283484	1.517522	-0.384607
C208	C	-0.383207	0.850856	-0.985839
C209	C	-0.049874	1.184190	-0.652505
C210	C	0.283459	1.517523	-0.319172
C211	C	-0.338312	0.892664	-0.951434
C212	C	-0.004978	1.225998	-0.618101
C213	C	0.328355	1.559331	-0.284767
C214	C	-0.338448	0.892556	-0.151946
C215	C	-0.005114	1.225889	0.181387
C216	C	0.328219	1.559223	0.514720
C217	C	-0.338256	0.892662	-0.082298
C218	C	-0.004922	1.225996	0.251035
C219	C	0.328411	1.559329	0.584368
H220	H	-0.328607	0.333962	-0.416803
H221	H	0.004727	0.667295	-0.083470
H222	H	0.338060	1.000629	0.249863
H223	H	-0.257128	0.253577	-0.384479
H224	H	0.076205	0.586911	-0.051146
H225	H	0.409539	0.920244	0.282188
O226	O	-0.431762	0.805760	-0.684751
O227	O	-0.098429	1.139093	-0.351418
O228	O	0.234904	1.472427	-0.018084
H229	H	-0.419704	0.757051	-0.671719
H230	H	-0.086371	1.090384	-0.338385
H231	H	0.246963	1.423717	-0.005052
O232	O	-0.431792	0.805735	-0.548739
O233	O	-0.098458	1.139068	-0.215406
O234	O	0.234875	1.472402	0.117928
H235	H	-0.463004	0.776665	-0.583657
H236	H	-0.129671	1.109998	-0.250324
H237	H	0.203663	1.443332	0.083009
H238	H	-0.257141	0.134870	-0.384488
H239	H	0.076192	0.468203	-0.051155
H240	H	0.409525	0.801537	0.282178
H241	H	-0.328593	0.452675	-0.416793
H242	H	0.004740	0.786008	-0.083460
H243	H	0.338074	1.119341	0.249873
H244	H	-0.453182	0.879097	-0.760058
H245	H	-0.119849	1.212430	-0.426724
H246	H	0.213484	1.545764	-0.093391
H247	H	-0.738894	0.950061	-0.257337
H248	H	-0.405561	1.283395	0.075996
H249	H	-0.072227	1.616728	0.409329
O250	O	-1.080124	0.819199	-0.388185
O251	O	-0.746791	1.152532	-0.054851
O252	O	-0.413458	1.485866	0.278482
H253	H	-1.113574	0.786067	-0.361385
H254	H	-0.780241	1.119400	-0.028052
H255	H	-0.446907	1.452734	0.305281
O256	O	-0.349803	0.324397	-0.197808
O257	O	-0.016469	0.657731	0.135525
O258	O	0.316864	0.991064	0.468858
H259	H	-0.302740	0.296391	-0.189713
H260	H	0.030593	0.629724	0.143620
H261	H	0.363927	0.963057	0.476954
O262	O	-0.815974	0.955747	-0.251716
O263	O	-0.482641	1.289080	0.081617
O264	O	-0.149307	1.622413	0.414951
H265	H	-0.830084	0.944498	-0.203068
H266	H	-0.496750	1.277831	0.130265
H267	H	-0.163417	1.611165	0.463599
H268	H	-0.937315	0.980652	-0.226883
H269	H	-0.603981	1.313986	0.106451
H270	H	-0.270648	1.647319	0.439784
H271	H	-0.419912	0.128557	-0.245035
H272	H	-0.086578	0.461890	0.088298
H273	H	0.246755	0.795224	0.421631
H274	H	-0.257090	0.538508	-0.384457
H275	H	0.076243	0.871842	-0.051124
H276	H	0.409577	1.205175	0.282209
H277	H	-0.850591	0.840473	-0.366831
H278	H	-0.517257	1.173806	-0.033497
H279	H	-0.183924	1.507140	0.299836
H280	H	-1.070394	0.975629	-0.231965
H281	H	-0.737060	1.308962	0.101368
H282	H	-0.403727	1.642296	0.434701
H283	H	-0.256828	0.968504	-0.954442
H284	H	0.076505	1.301837	-0.621108
H285	H	0.409839	1.635170	-0.287775
H286	H	-0.257089	0.657215	-0.384458
H287	H	0.076245	0.990549	-0.051125
H288	H	0.409578	1.323882	0.282209
O289	O	-0.245124	0.979537	-0.541710
O290	O	0.088209	1.312870	-0.208377
O291	O	0.421543	1.646203	0.124957
H292	H	-0.213882	1.008603	-0.574278
H293	H	0.119451	1.341936	-0.240945
H294	H	0.452785	1.675270	0.092388
O295	O	-0.244908	0.979547	-1.081357
O296	O	0.088426	1.312880	-0.748023
O297	O	0.421759	1.646214	-0.414690
H298	H	-0.256975	1.028256	-1.069285
H299	H	0.076358	1.361589	-0.735952
H300	H	0.409691	1.694923	-0.402618
O301	O	-0.431694	0.659090	-0.234827
O302	O	-0.098361	0.992424	0.098506
O303	O	0.234972	1.325757	0.431840
H304	H	-0.424150	0.710380	-0.241275
H305	H	-0.090816	1.043713	0.092058
H306	H	0.242517	1.377047	0.425392
H307	H	-0.419854	0.532199	-0.245000
H308	H	-0.086521	0.865532	0.088333
H309	H	0.246813	1.198865	0.421666
H310	H	-0.738943	0.804601	-0.402606
H311	H	-0.405610	1.137934	-0.069273
H312	H	-0.072277	1.471267	0.264061
H313	H	-0.605866	0.809620	-0.397525
H314	H	-0.272532	1.142954	-0.064191
H315	H	0.060801	1.476287	0.269142
O316	O	-0.349810	0.460400	-0.197809
O317	O	-0.016477	0.793733	0.135524
O318	O	0.316856	1.127066	0.468858
H319	H	-0.353616	0.426490	-0.158698
H320	H	-0.020283	0.759823	0.174636
H321	H	0.313051	1.093157	0.507969
H322	H	-0.937361	0.835192	-0.372155
H323	H	-0.604028	1.168525	-0.038822
H324	H	-0.270695	1.501859	0.294512
O325	O	-0.431739	0.255452	-0.234857
O326	O	-0.098405	0.588785	0.098476
O327	O	0.234928	0.922119	0.431810
H328	H	-0.424190	0.306742	-0.241302
H329	H	-0.090857	0.640075	0.092031
H330	H	0.242477	0.973408	0.425365
O331	O	-0.206797	0.907985	-0.878045
O332	O	0.126537	1.241318	-0.544712
O333	O	0.459870	1.574651	-0.211378
H334	H	-0.217405	0.906733	-0.929445
H335	H	0.115929	1.240067	-0.596112
H336	H	0.449262	1.573400	-0.262779
H337	H	-0.453152	0.879272	-0.878761
H338	H	-0.119819	1.212605	-0.545428
H339	H	0.213515	1.545938	-0.212094
H340	H	-0.256937	0.968489	-0.669516
H341	H	0.076397	1.301822	-0.336183
H342	H	0.409730	1.635156	-0.002849
H343	H	-0.605829	0.955080	-0.252250
H344	H	-0.272495	1.288414	0.081084
H345	H	0.060838	1.621747	0.414417
O346	O	-0.206860	0.908000	-0.742040
O347	O	0.126473	1.241333	-0.408706
O348	O	0.459806	1.574666	-0.075373
H349	H	-0.162842	0.913129	-0.774108
H350	H	0.170491	1.246462	-0.440774
H351	H	0.503825	1.579795	-0.107441
O352	O	-0.431611	0.805772	-1.088378
O353	O	-0.098277	1.139105	-0.755044
O354	O	0.235056	1.472438	-0.421711
H355	H	-0.424051	0.812798	-1.139090
H356	H	-0.090718	1.146131	-0.805757
H357	H	0.242615	1.479465	-0.472423
H358	H	-0.419788	0.816819	-0.960582
H359	H	-0.086454	1.150153	-0.627248
H360	H	0.246879	1.483486	-0.293915
