data_functionalizedCrystal
_audit_creation_method	'MofGen! by Chris Wilmer'
_symmetry_space_group_name_H-M	'P1'
_symmetry_Int_Tables_number	1
_symmetry_cell_setting	triclinic
loop_
_symmetry_equiv_pos_as_xyz
  x,y,z
_cell_length_a	10.723023
_cell_length_b	9.198806
_cell_length_c	9.065218
_cell_angle_alpha	90.001601
_cell_angle_beta	84.741717
_cell_angle_gamma	90.003822
loop_
_atom_site_label
_atom_site_type_symbol
_atom_site_fract_x
_atom_site_fract_y
_atom_site_fract_z
O1	O	1.658029	0.120882	0.206934
O2	O	2.158029	0.620882	0.706934
O3	O	1.294957	0.120885	0.226743
O4	O	1.794957	0.620885	0.726743
O5	O	1.483997	0.120881	0.002153
O6	O	1.983997	0.620881	0.502153
O7	O	1.468988	0.120887	0.431523
O8	O	1.968988	0.620887	0.931523
O9	O	1.483982	-0.120904	0.002152
O10	O	1.983982	0.379096	0.502152
O11	O	1.294942	-0.120900	0.226741
O12	O	1.794942	0.379100	0.726741
O13	O	1.658014	-0.120903	0.206932
O14	O	2.158014	0.379097	0.706932
Cu15	Cu	1.476476	-0.142978	0.216836
Cu16	Cu	1.976476	0.357022	0.716836
Cu17	Cu	1.476494	0.142961	0.216839
Cu18	Cu	1.976494	0.642961	0.716839
O19	O	1.468973	-0.120898	0.431522
O20	O	1.968973	0.379102	0.931522
C21	C	1.248444	-0.000007	0.225301
C22	C	1.748444	0.499993	0.725301
C23	C	1.109872	-0.000005	0.220989
C24	C	1.609872	0.499995	0.720989
C25	C	1.048100	0.125247	0.219067
C26	C	1.548100	0.625247	0.719067
C27	C	0.904879	0.125251	0.214610
C28	C	1.404879	0.625251	0.714610
N29	N	1.476473	-0.344092	0.216834
N30	N	1.976473	0.155908	0.716834
C31	C	1.549585	-0.416290	0.302390
C32	C	2.049585	0.083710	0.802390
C33	C	1.549604	-0.583702	0.302388
C34	C	2.049604	-0.083702	0.802388
C35	C	1.704527	-0.000008	0.208374
C36	C	2.204527	0.499992	0.708374
C37	C	1.843099	0.000000	0.212687
C38	C	2.343099	0.500000	0.712687
C39	C	1.482547	-0.000010	-0.052826
C40	C	1.982547	0.499990	0.447174
C41	C	1.478234	-0.000003	-0.216644
C42	C	1.978234	0.499997	0.283356
N43	N	1.476507	0.344075	0.216829
N44	N	1.976507	0.844075	0.716829
C45	C	1.470423	-0.000005	0.486501
C46	C	1.970423	0.499995	0.986501
C47	C	1.474736	-0.000002	0.650319
C48	C	1.974736	0.499998	1.150319
H49	H	1.056725	-0.107235	0.219342
H50	H	1.556725	0.392765	0.719342
H51	H	1.612192	-0.645790	0.375643
H52	H	2.112192	-0.145790	0.875643
H53	H	1.612170	-0.354160	0.375632
H54	H	2.112170	0.145840	0.875632
Cl55	Cl	1.379856	-0.440003	0.103729
Cl56	Cl	1.879856	0.059997	0.603729
H57	H	1.413904	-0.593847	0.143585
H58	H	1.913904	-0.093847	0.643585
Cl59	Cl	1.130143	0.290811	0.221623
Cl60	Cl	1.630143	0.790811	0.721623
H61	H	0.896213	-0.107238	0.214332
H62	H	1.396213	0.392762	0.714332
Cl63	Cl	0.822871	0.290820	0.212047
Cl64	Cl	1.322871	0.790820	0.712047
