data_functionalizedCrystal
_audit_creation_method	'MofGen! by Chris Wilmer'
_symmetry_space_group_name_H-M	'P1'
_symmetry_Int_Tables_number	1
_symmetry_cell_setting	triclinic
loop_
_symmetry_equiv_pos_as_xyz
  x,y,z
_cell_length_a	19.077105
_cell_length_b	10.685194
_cell_length_c	19.076919
_cell_angle_alpha	92.275516
_cell_angle_beta	89.923776
_cell_angle_gamma	91.901544
loop_
_atom_site_label
_atom_site_type_symbol
_atom_site_fract_x
_atom_site_fract_y
_atom_site_fract_z
Zn1	Zn	1.033509	-0.606792	0.413481
Zn2	Zn	1.533509	-0.106792	0.913481
Zn3	Zn	1.029920	-0.808462	0.287021
Zn4	Zn	1.529920	-0.308462	0.787021
Zn5	Zn	0.921413	-0.589990	0.292020
Zn6	Zn	1.421413	-0.089990	0.792020
Zn7	Zn	0.907772	-0.807705	0.399807
Zn8	Zn	1.407772	-0.307705	0.899807
O9	O	0.973154	-0.703237	0.348082
O10	O	1.473154	-0.203237	0.848082
O11	O	1.131065	-0.640893	0.400336
O12	O	1.631065	-0.140893	0.900336
O13	O	1.019732	-0.772766	0.189651
O14	O	1.519732	-0.272766	0.689651
O15	O	0.943493	-0.416705	0.315946
O16	O	1.443493	0.083295	0.815946
O17	O	1.128428	-0.789058	0.307427
O18	O	1.628428	-0.289058	0.807427
O19	O	1.025850	-0.429050	0.405183
O20	O	1.525850	0.070950	0.905183
O21	O	0.940013	-0.612256	0.193324
O22	O	1.440013	-0.112256	0.693324
O23	O	0.821571	-0.611522	0.302688
O24	O	1.321571	-0.111522	0.802688
O25	O	0.920245	-0.787769	0.499654
O26	O	1.420245	-0.287769	0.999654
O27	O	0.811550	-0.771476	0.381879
O28	O	1.311550	-0.271476	0.881879
O29	O	1.012624	-0.640159	0.509700
O30	O	1.512624	-0.140159	1.009700
O31	O	1.006506	-0.983875	0.294168
O32	O	1.506506	-0.483875	0.794168
O33	O	0.916765	-0.983319	0.377032
O34	O	1.416765	-0.483319	0.877032
C35	C	0.791142	-0.689595	0.341342
C36	C	1.291142	-0.189595	0.841342
C37	C	0.713275	-0.683790	0.338474
C38	C	1.213275	-0.183790	0.838474
C39	C	0.959784	-1.029108	0.333590
C40	C	1.459784	-0.529108	0.833590
C41	C	0.954128	-1.168524	0.327416
C42	C	1.454128	-0.668524	0.827416
C43	C	0.671491	-0.764458	0.378282
C44	C	1.171491	-0.264458	0.878282
C45	C	0.598327	-0.758988	0.375591
C46	C	1.098327	-0.258988	0.875591
C47	C	0.566948	-0.672854	0.333088
C48	C	1.066948	-0.172854	0.833088
C49	C	0.608737	-0.592177	0.293280
C50	C	1.108737	-0.092177	0.793280
C51	C	0.681900	-0.597642	0.295975
C52	C	1.181900	-0.097642	0.795975
C53	C	0.348693	-0.647559	0.320619
C54	C	0.848693	-0.147559	0.820619
C55	C	0.275525	-0.642102	0.317925
C56	C	0.775525	-0.142102	0.817925
C57	C	0.265120	-0.808913	0.400237
C58	C	0.765120	-0.308913	0.900237
C59	C	0.338285	-0.814375	0.402925
C60	C	0.838285	-0.314375	0.902925
C61	C	0.380067	-0.733694	0.363120
C62	C	0.880067	-0.233694	0.863120
N63	N	0.492163	-0.667262	0.330335
N64	N	0.992163	-0.167262	0.830335
N65	N	0.454851	-0.739280	0.365877
N66	N	0.954851	-0.239280	0.865877
C67	C	1.155876	-0.716934	0.354849
C68	C	1.655876	-0.216934	0.854849
C69	C	1.233741	-0.722771	0.357732
C70	C	1.733741	-0.222771	0.857732
C71	C	0.965313	-0.715754	0.530807
C72	C	1.465313	-0.215754	1.030807
C73	C	0.961972	-0.721088	0.608673
C74	C	1.461972	-0.221088	1.108673
C75	C	0.986594	-0.376096	0.362647
C76	C	1.486594	0.123904	0.862647
C77	C	0.992321	-0.236688	0.368854
C78	C	1.492321	0.263312	0.868854
C79	C	0.981007	-0.690682	0.166074
C80	C	1.481007	-0.190682	0.666074
C81	C	0.984498	-0.685005	0.088229
C82	C	1.484498	-0.185005	0.588229
C83	C	1.008497	-0.646745	0.650486
C84	C	1.508497	-0.146745	1.150486
C85	C	1.005349	-0.651751	0.723650
C86	C	1.505349	-0.151751	1.223650
C87	C	0.955680	-0.731108	0.754999
C88	C	1.455680	-0.231108	1.254999
C89	C	0.909151	-0.805454	0.713180
C90	C	1.409151	-0.305454	1.213180
C91	C	0.912296	-0.800440	0.640018
C92	C	1.412296	-0.300440	1.140018
C93	C	0.941114	-0.754337	0.973249
C94	C	1.441114	-0.254337	1.473249
C95	C	0.937974	-0.759348	1.046416
C96	C	1.437974	-0.259348	1.546416
C97	C	1.034172	-0.605643	1.056880
C98	C	1.534172	-0.105643	1.556880
C99	C	1.037315	-0.600642	0.983716
C100	C	1.537315	-0.100642	1.483716
C101	C	0.990784	-0.674983	0.941904
C102	C	1.490784	-0.174983	1.441904
N103	N	0.952463	-0.736230	0.829783
N104	N	1.452463	-0.236230	1.329783
N105	N	0.993998	-0.669853	0.867121
N106	N	1.493998	-0.169853	1.367121
H107	H	0.697035	-0.834602	0.412889
H108	H	1.197035	-0.334602	0.912889
C109	C	0.241009	-0.547342	0.271168
C110	C	0.741009	-0.047342	0.771168
N111	N	0.215012	-0.475974	0.235952
N112	N	0.715012	0.024026	0.735952
C113	C	0.727861	-0.508903	0.252182
C114	C	1.227861	-0.008903	0.752182
N115	N	0.762479	-0.442059	0.219197
N116	N	1.262479	0.057941	0.719197
H117	H	1.029349	-1.188391	0.409058
H118	H	1.529349	-0.688391	0.909058
C119	C	0.552368	-0.847753	0.419368
C120	C	1.052368	-0.347753	0.919368
N121	N	0.517752	-0.914623	0.452338
N122	N	1.017752	-0.414623	0.952338
C123	C	0.372796	-0.909135	0.449678
C124	C	0.872796	-0.409135	0.949678
N125	N	0.398790	-0.980515	0.484889
N126	N	0.898790	-0.480515	0.984889
H127	H	0.583182	-0.522039	0.258677
H128	H	1.083182	-0.022039	0.758677
H129	H	0.917092	-1.216828	0.287215
H130	H	1.417092	-0.716828	0.787215
C131	C	0.219154	-0.897647	0.444026
C132	C	0.719154	-0.397647	0.944026
N133	N	0.184532	-0.964482	0.477013
N134	N	0.684532	-0.464482	0.977013
H135	H	1.048945	-0.582128	0.624967
H136	H	1.548945	-0.082128	1.124967
H137	H	1.043236	-0.591216	0.757691
H138	H	1.543236	-0.091216	1.257691
C139	C	0.394644	-0.558814	0.276826
C140	C	0.894644	-0.058814	0.776826
N141	N	0.429258	-0.491968	0.243838
N142	N	0.929258	0.008032	0.743838
H143	H	1.077763	-0.536024	0.958197
H144	H	1.577763	-0.036024	1.458197
H145	H	0.897525	-0.823973	1.071938
H146	H	1.397525	-0.323973	1.571938
C147	C	1.085345	-0.523857	1.102879
C148	C	1.585345	-0.023857	1.602879
N149	N	1.123888	-0.462246	1.137526
N150	N	1.623888	0.037754	1.637526
H151	H	0.903234	-0.814890	0.939213
H152	H	1.403234	-0.314890	1.439213
C153	C	0.854507	-0.892735	0.747667
C154	C	1.354507	-0.392735	1.247667
N155	N	0.813349	-0.958476	0.773642
N156	N	1.313349	-0.458476	1.273642
C157	C	0.861116	-0.882226	0.594024
C158	C	1.361116	-0.382226	1.094024
N159	N	0.822565	-0.943827	0.559382
N160	N	1.322565	-0.443827	1.059382
