data_functionalizedCrystal
_audit_creation_method	'MofGen! by Chris Wilmer'
_symmetry_space_group_name_H-M	'P1'
_symmetry_Int_Tables_number	1
_symmetry_cell_setting	triclinic
loop_
_symmetry_equiv_pos_as_xyz
  x,y,z
_cell_length_a	8.497374
_cell_length_b	8.497374
_cell_length_c	11.169417
_cell_angle_alpha	89.998029
_cell_angle_beta	90.000620
_cell_angle_gamma	90.004389
loop_
_atom_site_label
_atom_site_type_symbol
_atom_site_fract_x
_atom_site_fract_y
_atom_site_fract_z
Zn1	Zn	0.892043	0.628279	1.834812
Zn2	Zn	1.392043	1.128279	2.334812
Zn3	Zn	0.628308	0.892029	1.834801
Zn4	Zn	1.128308	1.392029	2.334801
Zn5	Zn	0.628277	0.628261	1.634165
Zn6	Zn	1.128277	1.128261	2.134165
Zn7	Zn	0.892047	0.892015	1.634138
Zn8	Zn	1.392047	1.392015	2.134138
O9	O	0.760169	0.760146	1.734479
O10	O	1.260169	1.260146	2.234479
O11	O	0.857069	0.663280	2.002760
O12	O	1.357069	1.163280	2.502760
O13	O	0.407542	0.857037	1.808193
O14	O	0.907542	1.357037	2.308193
O15	O	0.663251	0.407501	1.660797
O16	O	1.163251	0.907501	2.160797
O17	O	0.663305	0.857055	2.002752
O18	O	1.163305	1.357055	2.502752
O19	O	0.857039	0.407515	1.808212
O20	O	1.357039	0.907515	2.308212
O21	O	0.407519	0.663248	1.660787
O22	O	0.907519	1.163248	2.160787
O23	O	0.663255	0.663235	1.466212
O24	O	1.163255	1.163235	1.966212
O25	O	1.112808	0.857032	1.660751
O26	O	1.612808	1.357032	2.160751
O27	O	0.857046	0.857014	1.466192
O28	O	1.357046	1.357014	1.966192
O29	O	1.112805	0.663267	1.808185
O30	O	1.612805	1.163267	2.308185
O31	O	0.663309	1.112789	1.808167
O32	O	1.163309	1.612789	2.308167
O33	O	0.857076	1.112779	1.660740
O34	O	1.357076	1.612779	2.160740
C35	C	0.760148	0.760122	1.422654
C36	C	1.260148	1.260122	1.922654
C37	C	0.760177	0.760150	1.289254
C38	C	1.260177	1.260150	1.789254
C39	C	1.350289	0.760172	1.734486
C40	C	1.850289	1.260172	2.234486
C41	C	1.171645	0.760164	1.734474
C42	C	1.671645	1.260164	2.234474
C43	C	0.760191	1.170026	1.734464
C44	C	1.260191	1.670026	2.234464
C45	C	0.760166	1.348670	1.734496
C46	C	1.260166	1.848670	2.234496
C47	C	0.760190	0.760171	2.047521
C48	C	1.260190	1.260171	2.547521
C49	C	0.760199	0.760182	2.180921
C50	C	1.260199	1.260182	2.680921
