data_functionalizedCrystal
_audit_creation_method	'MofGen! by Chris Wilmer'
_symmetry_space_group_name_H-M	'P1'
_symmetry_Int_Tables_number	1
_symmetry_cell_setting	triclinic
loop_
_symmetry_equiv_pos_as_xyz
  x,y,z
_cell_length_a	8.559649
_cell_length_b	14.519709
_cell_length_c	7.088929
_cell_angle_alpha	83.763835
_cell_angle_beta	95.325015
_cell_angle_gamma	76.729405
loop_
_atom_site_label
_atom_site_type_symbol
_atom_site_fract_x
_atom_site_fract_y
_atom_site_fract_z
O1	O	2.103670	-0.020642	-0.158956
O2	O	2.437003	0.312691	0.174378
O3	O	2.770336	0.646025	0.507711
O4	O	1.638600	0.026977	-0.158968
O5	O	1.971934	0.360310	0.174365
O6	O	2.305267	0.693643	0.507698
O7	O	1.883467	-0.131957	-0.158944
O8	O	2.216801	0.201376	0.174389
O9	O	2.550134	0.534709	0.507722
O10	O	1.858803	0.138292	-0.158979
O11	O	2.192136	0.471625	0.174354
O12	O	2.525469	0.804959	0.507687
O13	O	1.916191	-0.153240	0.159034
O14	O	2.249525	0.180093	0.492367
O15	O	2.582858	0.513427	0.825701
O16	O	1.671324	0.005694	0.159010
O17	O	2.004658	0.339027	0.492343
O18	O	2.337991	0.672361	0.825677
O19	O	2.136393	-0.041925	0.159023
O20	O	2.469727	0.291409	0.492356
O21	O	2.803060	0.624742	0.825689
Cu22	Cu	1.906847	-0.020059	0.188050
Cu23	Cu	2.240180	0.313275	0.521384
Cu24	Cu	2.573513	0.646608	0.854717
Cu25	Cu	1.868147	0.005111	-0.187996
Cu26	Cu	2.201480	0.338444	0.145337
Cu27	Cu	2.534814	0.671777	0.478671
O28	O	1.891526	0.117009	0.158999
O29	O	2.224860	0.450343	0.492332
O30	O	2.558193	0.783676	0.825666
C31	C	1.595443	0.019944	0.000020
C32	C	1.928776	0.353277	0.333353
C33	C	2.262109	0.686611	0.666686
C34	C	1.418093	0.030686	0.000015
C35	C	1.751426	0.364019	0.333349
C36	C	2.084759	0.697353	0.666682
C37	C	1.898680	-0.176876	0.000045
C38	C	2.232013	0.156457	0.333378
C39	C	2.565347	0.489791	0.666712
C40	C	1.895236	-0.279010	0.000046
C41	C	2.228569	0.054323	0.333379
C42	C	2.561903	0.387657	0.666713
C43	C	1.882552	-0.652993	-0.000004
C44	C	2.215885	-0.319659	0.333329
C45	C	2.549218	0.013674	0.666663
C46	C	1.886074	-0.548938	0.000011
C47	C	2.219408	-0.215605	0.333344
C48	C	2.552741	0.117728	0.666677
C49	C	1.888894	-0.466005	0.000023
C50	C	2.222227	-0.132671	0.333356
C51	C	2.555560	0.200662	0.666690
C52	C	1.892417	-0.361944	0.000034
C53	C	2.225750	-0.028610	0.333367
C54	C	2.559083	0.304723	0.666700
C55	C	2.179551	-0.034892	0.000031
C56	C	2.512884	0.298441	0.333364
C57	C	2.846217	0.631775	0.666697
C58	C	2.356899	-0.045633	0.000022
C59	C	2.690233	0.287700	0.333356
C60	C	3.023566	0.621034	0.666689
C61	C	1.876313	0.161928	0.000005
C62	C	2.209647	0.495262	0.333338
C63	C	2.542980	0.828595	0.666672
C64	C	1.879756	0.264063	-0.000008
C65	C	2.213089	0.597397	0.333325
C66	C	2.546423	0.930730	0.666658
N67	N	1.934078	-0.037763	0.452541
N68	N	2.267411	0.295571	0.785874
N69	N	2.600744	0.628904	1.119208
N70	N	1.840929	0.022807	-0.452487
N71	N	2.174262	0.356140	-0.119153
N72	N	2.507595	0.689473	0.214180
H73	H	2.030634	-0.100529	0.534206
H74	H	2.363967	0.232804	0.867540
H75	H	2.697301	0.566138	1.200873
O76	O	1.467208	-0.143076	0.000054
O77	O	1.800542	0.190257	0.333387
O78	O	2.133875	0.523590	0.666720
H79	H	1.593870	-0.136508	0.000075
H80	H	1.927203	0.196825	0.333408
H81	H	2.260536	0.530159	0.666742
O82	O	1.307779	0.128132	0.000016
O83	O	1.641113	0.461466	0.333350
O84	O	1.974446	0.794799	0.666683
H85	H	1.181120	0.121564	0.000031
H86	H	1.514454	0.454898	0.333364
H87	H	1.847787	0.788231	0.666698
O88	O	1.713015	0.105939	0.439371
O89	O	2.046348	0.439272	0.772704
O90	O	2.379682	0.772606	1.106038
H91	H	1.715246	0.104460	0.283415
H92	H	2.048580	0.437794	0.616749
H93	H	2.381913	0.771127	0.950082
