data_functionalizedCrystal
_audit_creation_method	'MofGen! by Chris Wilmer'
_symmetry_space_group_name_H-M	'P1'
_symmetry_Int_Tables_number	1
_symmetry_cell_setting	triclinic
loop_
_symmetry_equiv_pos_as_xyz
  x,y,z
_cell_length_a	23.096457
_cell_length_b	19.377372
_cell_length_c	19.377372
_cell_angle_alpha	93.588326
_cell_angle_beta	72.113666
_cell_angle_gamma	48.620880
loop_
_atom_site_label
_atom_site_type_symbol
_atom_site_fract_x
_atom_site_fract_y
_atom_site_fract_z
Zr1	Zr	0.402083	0.829276	0.049080
O2	O	0.522867	0.715471	-0.064728
O3	O	0.281297	0.864161	0.083965
O4	O	0.357930	0.891348	-0.037557
O5	O	0.481063	0.666841	0.152656
O6	O	0.323102	1.030085	-0.016119
O7	O	0.446234	0.688284	0.056793
O8	O	0.186020	0.981452	0.201260
O9	O	0.618146	0.715474	-0.064723
O10	O	0.304987	0.982580	0.114846
O11	O	0.356971	0.863039	0.170388
O12	O	0.447196	0.895048	0.027313
O13	O	0.499180	0.775507	0.082855
Zr14	Zr	0.402085	1.016347	0.236161
Zr15	Zr	0.346537	1.050546	0.083271
Zr16	Zr	0.457631	0.795076	0.201970
Zr17	Zr	0.554041	0.829280	0.049088
Zr18	Zr	0.250127	1.016342	0.236154
O19	O	0.522872	0.981462	0.201277
O20	O	0.443889	1.030089	-0.016113
O21	O	0.601850	0.666844	0.152662
O22	O	0.281301	1.130151	0.349969
O23	O	0.202318	1.178778	0.132579
O24	O	0.360279	0.815534	0.301354
O25	O	0.323105	1.178782	0.132585
O26	O	0.446238	0.954274	0.322798
O27	O	0.481066	0.815537	0.301360
O28	O	0.357934	1.157339	0.228448
O29	O	0.573995	0.891354	-0.037546
O30	O	0.230173	0.954268	0.322787
O31	O	0.186022	1.130149	0.349964
O32	O	0.141869	1.157333	0.228437
O33	O	0.662299	0.688290	0.056804
O34	O	0.618148	0.864170	0.083981
O35	O	0.356972	0.950574	0.257928
O36	O	0.304988	1.070115	0.202386
O37	O	0.447197	0.982584	0.114853
O38	O	0.499181	0.863043	0.170395
C39	C	0.212007	0.922806	0.142611
C40	C	0.147497	0.922804	0.142608
C41	C	0.471567	0.880033	0.333863
C42	C	0.495148	0.865515	0.398768
C43	C	0.332605	1.199586	0.185388
C44	C	0.309025	1.293521	0.199903
C45	C	0.090062	0.985197	0.113612
C46	C	0.029439	0.985206	0.113619
C47	C	0.026267	0.922804	0.142610
C48	C	0.083710	0.860407	0.171615
C49	C	0.144325	0.860407	0.171614
N50	N	-0.015931	0.836008	0.123841
N51	N	-0.073513	0.836010	0.123839
C52	C	-0.156362	0.922801	0.142617
N53	N	-0.179451	1.009591	0.161383
N54	N	-0.121862	1.009587	0.161382
C55	C	-0.039457	0.922797	0.142615
C56	C	-0.279534	0.985209	0.113627
C57	C	-0.340160	0.985219	0.113640
C58	C	-0.285882	0.860412	0.171629
C59	C	-0.225263	0.860410	0.171623
C60	C	-0.222091	0.922807	0.142617
C61	C	0.592161	0.922816	0.142630
C62	C	0.656671	0.922818	0.142633
C63	C	0.471563	0.646036	0.099853
C64	C	0.495143	0.552101	0.085339
C65	C	0.602621	1.374015	0.019186
C66	C	0.580443	1.462294	0.032835
C67	C	0.431987	1.553660	0.124212
C68	C	0.454152	1.465388	0.110569
C69	C	0.539470	1.375570	0.058056
C70	C	0.391001	1.466944	0.149438
C71	C	0.413165	1.378678	0.135799
C72	C	0.498480	1.288857	0.083290
C73	C	0.561634	1.287305	0.044416
C74	C	0.305684	1.556762	0.201956
C75	C	0.242534	1.558317	0.240825
C76	C	0.264696	1.470052	0.227182
C77	C	0.350011	1.380231	0.174673
C78	C	0.201542	1.471605	0.266055
C79	C	0.223706	1.383339	0.252416
C80	C	0.372175	1.291966	0.161033
C81	C	0.332602	0.965589	-0.048621
C82	C	0.309020	0.980108	-0.113527
C83	C	0.201546	1.046252	0.840693
C84	C	0.223722	1.032606	0.901671
C85	C	0.372177	0.941230	0.810284
C86	C	0.350015	0.954864	0.749296
C87	C	0.264697	1.007377	0.764507
C88	C	0.413166	0.915989	0.673110
C89	C	0.391004	0.929627	0.612129
C90	C	0.305690	0.982140	0.627333
C91	C	0.242535	1.021015	0.703526
C92	C	0.498482	0.863483	0.657901
C93	C	0.561633	0.824607	0.581716
C94	C	0.539473	0.838239	0.520731
C95	C	0.454159	0.890752	0.535936
C96	C	0.602628	0.799364	0.444538
C97	C	0.580466	0.813002	0.383557
C98	C	0.431997	0.904390	0.474954
C99	C	0.142528	1.199581	0.185379
C100	C	0.054438	1.293514	0.199890
C101	C	0.281490	0.880028	0.333853
C102	C	0.240561	0.865508	0.398756
C103	C	0.212011	1.156803	0.376621
C104	C	0.147502	1.236218	0.456038
C105	C	0.592157	0.688819	-0.091379
C106	C	0.656666	0.609405	-0.170797
C107	C	0.661640	0.646041	0.099862
C108	C	0.749730	0.552108	0.085351
C109	C	0.522678	0.965594	-0.048612
C110	C	0.563607	0.980115	-0.113515
C111	C	0.013066	1.291935	0.161004
C112	C	-0.069699	1.380190	0.174624
C113	C	-0.111094	1.470022	0.227134
C114	C	-0.069716	1.471599	0.266022
C115	C	0.013051	1.383346	0.252398
C116	C	0.221344	0.904380	0.474936
C117	C	0.182899	0.890731	0.535925
C118	C	0.163666	0.838216	0.520732
C119	C	0.182889	0.799339	0.444543
C120	C	0.221339	0.812982	0.383556
C121	C	0.090071	1.335920	0.464342
C122	C	0.029462	1.410548	0.538959
C123	C	0.026281	1.385472	0.605270
C124	C	0.083721	1.285760	0.596963
C125	C	0.144333	1.211134	0.522348
C126	C	0.714105	0.509702	-0.179101
C127	C	0.774733	0.435074	-0.253718
C128	C	0.777916	0.460150	-0.320029
C129	C	0.720473	0.559863	-0.311722
C130	C	0.659850	0.634489	-0.237106
C131	C	0.791106	0.553689	0.124231
C132	C	0.873882	0.465437	0.110594
C133	C	0.915278	0.375606	0.058082
C134	C	0.873898	0.374028	0.019197
C135	C	0.791126	0.462279	0.032830
C136	C	0.582826	1.032635	-0.098297
C137	C	0.621272	1.046297	-0.159271
C138	C	0.640503	1.007432	-0.235463
C139	C	0.621279	0.954910	-0.250679
C140	C	0.582828	0.941255	-0.189705
H141	H	0.092639	1.036007	0.089997
H142	H	0.516525	1.216988	0.072187
H143	H	0.132078	1.544744	0.308817
H144	H	0.672093	1.300879	-0.023582
H145	H	0.567186	0.898484	-0.202107
H146	H	-0.178494	0.809600	0.195231
H147	H	0.821497	0.353890	-0.260467
H148	H	0.132358	0.827114	0.570399
H149	H	0.167224	0.756580	0.432184
H150	H	-0.103432	1.544752	0.308776
H151	H	0.636921	1.089063	-0.146868
H152	H	0.081123	0.809600	0.195220
H153	H	-0.017333	1.036015	0.090007
H154	H	0.191093	0.809597	0.195225
H155	H	0.236978	0.781329	0.321528
H156	H	0.441641	0.898478	0.797909
H157	H	-0.276955	1.036020	0.090013
H158	H	0.631880	1.461012	0.001195
H159	H	-0.023077	1.446247	0.666023
H160	H	0.907616	0.300876	-0.023560
H161	H	0.172283	1.384609	0.284067
H162	H	-0.178488	1.541876	0.238222
H163	H	0.287643	1.628629	0.213064
H164	H	0.671812	1.018558	-0.285105
H165	H	0.167251	0.922396	0.597956
H166	H	0.757443	0.460978	0.001169
H167	H	0.827282	0.399375	-0.380781
H168	H	0.631107	1.214169	0.001648
H169	H	0.081122	1.265356	0.650965
H170	H	0.723073	0.580269	-0.365722
H171	H	0.711521	0.489266	-0.125115
H172	H	0.092647	1.356356	0.410357
H173	H	-0.017303	1.491733	0.545709
H174	H	0.362525	0.947140	0.487341
H175	H	-0.386932	1.036033	0.090032
H176	H	-0.103378	1.378887	0.142954
H177	H	0.191089	1.129952	0.515596
H178	H	0.362522	1.626799	0.166971
H179	H	0.046727	1.384644	0.284070
H180	H	0.613081	0.715670	-0.230354
H181	H	-0.288464	0.809603	0.195234
H182	H	0.636943	0.923269	-0.312723
H183	H	0.757410	0.626824	0.166996
H184	H	0.907561	0.466741	0.142264
H185	H	0.567174	1.064286	-0.036263
H186	H	0.441648	1.218830	0.118265
H187	H	0.173069	1.631457	0.283583
H188	H	0.982676	0.303753	0.046988
H189	H	0.046764	1.218800	0.118237
H190	H	0.237000	0.947141	0.487321
H191	H	0.287646	0.993248	0.577676
H192	H	0.173063	1.063765	0.715912
H193	H	0.132074	1.089003	0.853079
H194	H	0.172290	1.064264	0.963707
H195	H	0.516523	0.852382	0.707559
H196	H	0.631098	0.781855	0.569341
H197	H	0.672091	0.756617	0.432166
H198	H	0.631890	0.781345	0.321522
