data_functionalizedCrystal
_audit_creation_method	'MofGen! by Chris Wilmer'
_symmetry_space_group_name_H-M	'P1'
_symmetry_Int_Tables_number	1
_symmetry_cell_setting	triclinic
loop_
_symmetry_equiv_pos_as_xyz
  x,y,z
_cell_length_a	8.559649
_cell_length_b	11.295483
_cell_length_c	8.597304
_cell_angle_alpha	93.510791
_cell_angle_beta	77.624695
_cell_angle_gamma	93.526526
loop_
_atom_site_label
_atom_site_type_symbol
_atom_site_fract_x
_atom_site_fract_y
_atom_site_fract_z
O1	O	2.129170	0.092420	-0.064197
O2	O	1.666106	0.100624	0.015722
O3	O	1.904282	0.073252	-0.251022
O4	O	1.890994	0.119792	0.202547
O5	O	1.883361	-0.122398	-0.227625
O6	O	1.645186	-0.095026	0.039119
O7	O	2.108249	-0.103230	-0.040800
Cu8	Cu	1.874808	-0.116992	0.001296
Cu9	Cu	1.899548	0.114386	-0.026374
O10	O	1.870074	-0.075858	0.225944
C11	C	1.596279	0.003421	0.033477
C12	C	1.419381	0.005273	0.051505
N13	N	1.857418	-0.279732	0.020754
C14	C	2.042128	-0.550238	-0.186007
C15	C	2.028999	-0.673392	-0.171292
C16	C	1.818021	-0.649196	0.064891
C17	C	1.831151	-0.526042	0.050176
C18	C	1.943210	-0.476568	-0.075275
C19	C	1.956347	-0.353411	-0.089982
C20	C	1.745363	-0.329218	0.146192
C21	C	1.732233	-0.452372	0.160907
C22	C	2.178077	-0.006025	-0.058555
C23	C	2.354975	-0.007868	-0.076584
C24	C	1.891230	-0.030473	-0.296853
C25	C	1.883488	-0.048054	-0.468270
N26	N	1.916950	0.277125	-0.045846
C27	C	1.883126	0.027870	0.271775
C28	C	1.890869	0.045459	0.443191
H29	H	1.435167	-0.020530	-0.200039
H30	H	1.339183	0.017947	0.174966
H31	H	2.047595	-0.313131	-0.192127
Cl32	Cl	1.909772	0.189848	-0.471378
H33	H	2.133382	-0.509955	-0.288145
Cl34	Cl	1.864560	-0.192450	-0.553700
H35	H	2.109546	-0.733372	-0.261462
Cl36	Cl	1.591362	-0.514578	0.318607
Cl37	Cl	1.621013	-0.236592	0.285411
Cl38	Cl	1.677139	-0.711407	0.222578
