data_functionalizedCrystal
_audit_creation_method	'MofGen! by Chris Wilmer'
_symmetry_space_group_name_H-M	'P1'
_symmetry_Int_Tables_number	1
_symmetry_cell_setting	triclinic
loop_
_symmetry_equiv_pos_as_xyz
  x,y,z
_cell_length_a	23.532407
_cell_length_b	17.019383
_cell_length_c	16.098538
_cell_angle_alpha	96.605849
_cell_angle_beta	87.299027
_cell_angle_gamma	83.124684
loop_
_atom_site_label
_atom_site_type_symbol
_atom_site_fract_x
_atom_site_fract_y
_atom_site_fract_z
O1	O	0.067272	1.053521	0.144746
O2	O	0.567272	1.553521	0.644746
O3	O	0.077123	0.822939	0.128228
O4	O	0.577123	1.322939	0.628228
O5	O	-0.010729	0.945183	0.136970
O6	O	0.489271	1.445183	0.636970
O7	O	0.155124	0.931278	0.136004
O8	O	0.655124	1.431278	0.636004
O9	O	-0.005617	0.938042	-0.002054
O10	O	0.494383	1.438042	0.497946
O11	O	0.082235	0.815799	-0.010795
O12	O	0.582235	1.315799	0.489205
O13	O	0.072384	1.046380	0.005722
O14	O	0.572384	1.546380	0.505722
Zn15	Zn	0.078121	0.929956	-0.024610
Zn16	Zn	0.578121	1.429956	0.475390
Zn17	Zn	0.071386	0.939364	0.158560
Zn18	Zn	0.571386	1.439364	0.658560
O19	O	0.160236	0.924137	-0.003019
O20	O	0.660236	1.424137	0.496981
C21	C	0.079404	0.789875	0.056603
C22	C	0.579404	1.289875	0.556603
C23	C	0.078580	0.701991	0.050307
C24	C	0.578580	1.201991	0.550307
C25	C	-0.029389	0.941258	0.067430
C26	C	0.470611	1.441258	0.567430
C27	C	-0.092607	0.940193	0.067348
C28	C	0.407393	1.440193	0.567348
C29	C	0.075408	0.664588	0.123125
C30	C	0.575408	1.164588	0.623125
C31	C	0.074644	0.582009	0.117196
C32	C	0.574644	1.082009	0.617196
C33	C	0.077047	0.536836	0.038450
C34	C	0.577047	1.036836	0.538450
C35	C	0.080221	0.574244	-0.034373
C36	C	0.580221	1.074244	0.465627
C37	C	0.080990	0.656821	-0.028444
C38	C	0.580990	1.156821	0.471556
C39	C	0.074869	0.287314	0.016757
C40	C	0.574869	0.787314	0.516757
C41	C	0.074098	0.204733	0.010833
C42	C	0.574098	0.704733	0.510833
C43	C	0.068522	0.212503	0.162403
C44	C	0.568522	0.712503	0.662403
C45	C	0.069288	0.295081	0.168325
C46	C	0.569288	0.795081	0.668325
C47	C	0.072465	0.332482	0.095502
C48	C	0.572465	0.832482	0.595502
C49	C	0.076263	0.452428	0.032388
C50	C	0.576263	0.952428	0.532388
C51	C	0.073252	0.416888	0.101565
C52	C	0.573252	0.916888	0.601565
C53	C	-0.491668	1.005859	0.072097
C54	C	0.008332	1.505859	0.572097
C55	C	-0.551069	1.004870	0.072033
C56	C	-0.051069	1.504870	0.572033
O57	O	-0.587775	1.065743	0.076424
O58	O	-0.087775	1.565743	0.576424
N59	N	-0.573744	0.932196	0.066826
N60	N	-0.073744	1.432196	0.566826
C61	C	-0.537013	0.860507	0.061692
C62	C	-0.037013	1.360507	0.561692
O63	O	-0.561754	0.798601	0.057259
O64	O	-0.061754	1.298601	0.557259
C65	C	-0.477614	0.861496	0.061763
C66	C	0.022386	1.361496	0.561763
C67	C	-0.454943	0.934175	0.066961
C68	C	0.045057	1.434175	0.566961
C69	C	-0.468997	1.078531	0.077296
C70	C	0.031003	1.578531	0.577296
C71	C	-0.409599	1.079520	0.077359
C72	C	0.090401	1.579520	0.577359
C73	C	-0.372874	1.007836	0.072223
C74	C	0.127126	1.507836	0.572223
C75	C	-0.395546	0.935163	0.067024
C76	C	0.104454	1.435163	0.567024
C77	C	-0.440885	0.789808	0.056635
C78	C	0.059115	1.289808	0.556635
C79	C	-0.381482	0.790804	0.056707
C80	C	0.118518	1.290804	0.556707
C81	C	-0.358811	0.863482	0.061905
C82	C	0.141189	1.363482	0.561905
C83	C	-0.299423	0.864467	0.061951
C84	C	0.200577	1.364467	0.561951
N85	N	-0.276749	0.937141	0.067158
N86	N	0.223251	1.437141	0.567158
C87	C	-0.313474	1.008825	0.072294
C88	C	0.186526	1.508825	0.572294
C89	C	-0.661757	0.858433	0.061546
C90	C	-0.161757	1.358433	0.561546
C91	C	-0.721156	0.857442	0.061469
C92	C	-0.221156	1.357442	0.561469
C93	C	-0.735208	1.001806	0.071812
C94	C	-0.235208	1.501806	0.571812
C95	C	-0.675808	1.002796	0.071882
C96	C	-0.175808	1.502796	0.571882
C97	C	-0.639083	0.931107	0.066753
C98	C	-0.139083	1.431107	0.566753
C99	C	-0.188735	1.010896	0.072425
C100	C	0.311265	1.510896	0.572425
C101	C	-0.129332	1.011877	0.072484
C102	C	0.370668	1.511877	0.572484
C103	C	-0.115286	0.867514	0.062146
C104	C	0.384714	1.367514	0.562146
C105	C	-0.174684	0.866531	0.062083
C106	C	0.325316	1.366531	0.562083
C107	C	-0.211408	0.938229	0.067225
C108	C	0.288592	1.438229	0.567225
O109	O	-0.262683	0.803627	0.057566
O110	O	0.237317	1.303627	0.557566
O111	O	-0.288726	1.070722	0.076738
O112	O	0.211274	1.570722	0.576738
C113	C	0.178896	0.928062	0.066522
C114	C	0.678896	1.428062	0.566522
C115	C	0.242113	0.929127	0.066610
C116	C	0.742113	1.429127	0.566610
C117	C	0.070102	1.079445	0.077349
C118	C	0.570102	1.579445	0.577349
C119	C	0.070926	1.167329	0.083651
C120	C	0.570926	1.667329	0.583651
N121	N	0.082717	0.923541	-0.149618
N122	N	0.582717	1.423541	0.350382
C123	C	0.045442	0.975444	-0.189491
C124	C	0.545442	1.475444	0.310509
C125	C	0.048663	0.970964	-0.277000
C126	C	0.548663	1.470964	0.223000
C127	C	0.089161	0.914583	-0.324634
C128	C	0.589161	1.414583	0.175366
C129	C	0.126438	0.862674	-0.284755
C130	C	0.626438	1.362674	0.215245
C131	C	0.123214	0.867151	-0.197248
C132	C	0.623214	1.367151	0.302752
C133	C	0.100838	0.898353	-0.589045
C134	C	0.600838	1.398353	-0.089045
C135	C	0.104060	0.893882	-0.676558
C136	C	0.604060	1.393882	-0.176558
C137	C	0.026284	1.002171	-0.668797
C138	C	0.526284	1.502171	-0.168797
C139	C	0.023066	1.006647	-0.581288
C140	C	0.523066	1.506647	-0.081288
C141	C	0.060340	0.954735	-0.541417
C142	C	0.560340	1.454735	-0.041417
C143	C	0.092455	0.910004	-0.414083
C144	C	0.592455	1.410004	0.085917
C145	C	0.057043	0.959311	-0.451970
C146	C	0.557043	1.459311	0.048030
N147	N	0.066785	0.945785	0.283568
N148	N	0.566785	1.445785	0.783568
H149	H	0.072061	0.551559	0.176492
H150	H	0.572061	1.051559	0.676492
C151	C	-0.509389	1.157392	0.082941
C152	C	-0.009389	1.657392	0.582941
C153	C	-0.554807	1.180293	0.156502
C154	C	-0.054807	1.680293	0.656502
C155	C	-0.595195	1.259158	0.162138
C156	C	-0.095195	1.759158	0.662138
C157	C	-0.590166	1.315123	0.094213
C158	C	-0.090166	1.815123	0.594213
C159	C	-0.544746	1.292224	0.020647
C160	C	-0.044746	1.792224	0.520647
C161	C	-0.504358	1.213358	0.015011
C162	C	-0.004358	1.713358	0.515011
H163	H	-0.558532	1.138863	0.206788
H164	H	-0.058532	1.638863	0.706788
H165	H	-0.628818	1.276110	0.216597
H166	H	-0.128818	1.776110	0.716597
H167	H	-0.620063	1.373504	0.098385
H168	H	-0.120063	1.873504	0.598385
H169	H	-0.541021	1.333654	-0.029640
H170	H	-0.041021	1.833654	0.470360
H171	H	-0.470735	1.196407	-0.039448
H172	H	0.029265	1.696407	0.460552
H173	H	-0.110877	1.071063	0.076715
H174	H	0.389123	1.571063	0.576715
H175	H	0.071299	0.453670	0.165680
H176	H	0.571299	0.953670	0.665680
H177	H	-0.657354	1.061977	0.076116
H178	H	-0.157354	1.561977	0.576116
C179	C	0.066639	0.344777	0.254945
C180	C	0.566639	0.844777	0.754945
C181	C	0.115847	0.393254	0.279204
C182	C	0.615847	0.893254	0.779204
C183	C	0.113193	0.442954	0.365823
C184	C	0.613193	0.942954	0.865823
C185	C	0.061330	0.444177	0.428182
C186	C	0.561330	0.944177	0.928182
C187	C	0.012118	0.395699	0.403924
C188	C	0.512118	0.895699	0.903924
C189	C	0.014772	0.345998	0.317306
C190	C	0.514772	0.845998	0.817306
H191	H	0.154243	0.392350	0.233041
H192	H	0.654243	0.892350	0.733041
H193	H	0.149623	0.478841	0.383780
H194	H	0.649623	0.978841	0.883780
H195	H	0.059364	0.480969	0.492302
H196	H	0.559364	0.980969	0.992302
H197	H	-0.026278	0.396603	0.450087
H198	H	0.473722	0.896603	0.950087
H199	H	-0.021658	0.310111	0.299349
H200	H	0.478342	0.810111	0.799349
C201	C	0.000892	1.037465	-0.137098
C202	C	0.500892	1.537465	0.362902
C203	C	-0.040111	1.094554	-0.180963
C204	C	0.459889	1.594554	0.319037
C205	C	-0.084664	1.156575	-0.128573
C206	C	0.415336	1.656575	0.371427
C207	C	-0.088213	1.161507	-0.032318
C208	C	0.411787	1.661507	0.467682
C209	C	-0.047208	1.104416	0.011553
C210	C	0.452792	1.604416	0.511553
C211	C	-0.002655	1.042395	-0.040837
C212	C	0.497345	1.542395	0.459163
H213	H	-0.037485	1.090905	-0.252222
H214	H	0.462515	1.590905	0.247778
H215	H	-0.115018	1.198837	-0.161049
H216	H	0.384982	1.698837	0.338951
H217	H	-0.121193	1.207418	0.006465
H218	H	0.378807	1.707418	0.506465
H219	H	-0.049834	1.108065	0.082812
H220	H	0.450166	1.608065	0.582812
H221	H	0.027699	1.000133	-0.008361
H222	H	0.527699	1.500133	0.491639
H223	H	-0.765121	1.060176	0.075997
H224	H	-0.265121	1.560176	0.575997
H225	H	0.076071	0.167951	-0.053295
H226	H	0.576071	0.667951	0.446705
H227	H	-0.739608	0.798260	0.057222
H228	H	-0.239608	1.298260	0.557222
H229	H	0.078218	0.415639	-0.031728
H230	H	0.578218	0.915639	0.468272
H231	H	0.153566	0.824885	-0.164784
H232	H	0.653566	1.324885	0.335216
C233	C	0.072765	0.714274	0.209749
C234	C	0.572765	1.214274	0.709749
C235	C	0.121981	0.762738	0.234005
C236	C	0.621981	1.262738	0.734005
C237	C	0.119340	0.812421	0.320632
C238	C	0.619340	1.312421	0.820632
C239	C	0.067485	0.813639	0.383002
C240	C	0.567485	1.313639	0.883002
C241	C	0.018266	0.765172	0.358748
C242	C	0.518266	1.265172	0.858748
C243	C	0.020906	0.715490	0.272121
C244	C	0.520906	1.215490	0.772121
H245	H	0.160371	0.761838	0.187833
H246	H	0.660371	1.261838	0.687833
H247	H	0.155776	0.848299	0.338586
H248	H	0.655776	1.348299	0.838586
H249	H	0.065530	0.850417	0.447129
H250	H	0.565530	1.350417	0.947129
H251	H	-0.020124	0.766072	0.404920
H252	H	0.479876	1.266072	0.904920
H253	H	-0.015530	0.679612	0.254167
H254	H	0.484470	1.179612	0.754167
C255	C	-0.021484	1.068662	-0.528888
C256	C	0.478516	1.568662	-0.028888
C257	C	-0.001624	1.132107	-0.464380
C258	C	0.498376	1.632107	0.035620
C259	C	-0.046172	1.194124	-0.411976
C260	C	0.453828	1.694124	0.088024
C261	C	-0.110580	1.192696	-0.424082
C262	C	0.389420	1.692696	0.075918
C263	C	-0.130443	1.129249	-0.488593
C264	C	0.369557	1.629249	0.011407
C265	C	-0.085895	1.067232	-0.540996
C266	C	0.414105	1.567232	-0.040996
H267	H	0.046057	1.133166	-0.455416
H268	H	0.546057	1.633166	0.044584
H269	H	-0.031468	1.241091	-0.364221
H270	H	0.468532	1.741091	0.135779
H271	H	-0.143557	1.238604	-0.385290
H272	H	0.356443	1.738604	0.114710
H273	H	-0.178124	1.128189	-0.497557
H274	H	0.321876	1.628189	0.002443
H275	H	-0.100599	1.020264	-0.588752
H276	H	0.399401	1.520264	-0.088752
H277	H	0.065937	0.182042	0.221692
H278	H	0.565937	0.682042	0.721692
H279	H	-0.631858	0.800051	0.057362
H280	H	-0.131858	1.300051	0.557362
H281	H	0.131189	0.856086	-0.556589
H282	H	0.631189	1.356086	-0.056589
H283	H	0.077452	0.317756	-0.042541
H284	H	0.577452	0.817756	0.457459
C285	C	0.084482	0.697971	-0.108542
C286	C	0.584482	1.197971	0.391458
C287	C	0.136133	0.674039	-0.172533
C288	C	0.636133	1.174039	0.327467
C289	C	0.139631	0.715188	-0.252633
C290	C	0.639631	1.215188	0.247367
C291	C	0.091479	0.780269	-0.268741
C292	C	0.591479	1.280269	0.231259
C293	C	0.039825	0.804205	-0.204749
C294	C	0.539825	1.304205	0.295251
C295	C	0.036327	0.763055	-0.124649
C296	C	0.536327	1.263055	0.375351
H297	H	0.171781	0.625859	-0.160610
H298	H	0.671781	1.125859	0.339390
H299	H	0.177869	0.697470	-0.300004
H300	H	0.677869	1.197470	0.199996
H301	H	0.094069	0.810731	-0.328036
H302	H	0.594069	1.310731	0.171964
H303	H	0.004177	0.852385	-0.216671
H304	H	0.504177	1.352385	0.283329
H305	H	-0.001911	0.780774	-0.077277
H306	H	0.498089	1.280774	0.422723
H307	H	0.159411	0.816764	-0.323544
H308	H	0.659411	1.316764	0.176456
H309	H	-0.459333	0.730626	0.052407
H310	H	0.040667	1.230626	0.552407
H311	H	0.082181	0.537457	-0.098491
H312	H	0.582181	1.037457	0.401509
H313	H	-0.218630	1.069279	0.076616
H314	H	0.281370	1.569279	0.576616
C315	C	-0.014720	1.059266	-0.712656
C316	C	0.485280	1.559266	-0.212656
C317	C	-0.055969	1.025599	-0.775027
C318	C	0.444031	1.525599	-0.275027
C319	C	-0.096978	1.082694	-0.818885
C320	C	0.403022	1.582694	-0.318885
C321	C	-0.096737	1.173458	-0.800372
C322	C	0.403263	1.673458	-0.300372
C323	C	-0.055486	1.207130	-0.737998
C324	C	0.444514	1.707130	-0.237998
C325	C	-0.014478	1.150034	-0.694141
C326	C	0.485522	1.650034	-0.194141
H327	H	-0.056149	0.958406	-0.788734
H328	H	0.443851	1.458406	-0.288734
H329	H	-0.127514	1.057768	-0.865058
H330	H	0.372486	1.557768	-0.365058
H331	H	-0.127094	1.215723	-0.832839
H332	H	0.372906	1.715723	-0.332839
H333	H	-0.055307	1.274322	-0.724291
H334	H	0.444693	1.774322	-0.224291
H335	H	0.016058	1.174961	-0.647967
H336	H	0.516058	1.674961	-0.147967
H337	H	-0.351583	0.732425	0.052531
H338	H	0.148417	1.232425	0.552531
H339	H	0.024067	1.005213	-0.413184
H340	H	0.524067	1.505213	0.086816
H341	H	-0.193142	0.807350	0.057826
H342	H	0.306858	1.307350	0.557826
H343	H	-0.085373	0.809150	0.057962
H344	H	0.414627	1.309150	0.557962
C345	C	0.148610	0.831855	-0.728955
C346	C	0.648610	1.331855	-0.228955
C347	C	0.189608	0.774754	-0.685095
C348	C	0.689608	1.274754	-0.185095
C349	C	0.234157	0.712732	-0.737489
C350	C	0.734157	1.212732	-0.237489
C351	C	0.237708	0.707810	-0.833744
C352	C	0.737708	1.207810	-0.333744
C353	C	0.196708	0.764912	-0.877609
C354	C	0.696708	1.264912	-0.377609
C355	C	0.152159	0.826935	-0.825215
C356	C	0.652159	1.326935	-0.325215
H357	H	0.186981	0.778396	-0.613837
H358	H	0.686981	1.278396	-0.113837
H359	H	0.264508	0.670461	-0.705017
H360	H	0.764508	1.170461	-0.205017
H361	H	0.270686	0.661898	-0.872530
H362	H	0.770686	1.161898	-0.372530
H363	H	0.199336	0.761271	-0.948867
H364	H	0.699336	1.261271	-0.448867
H365	H	0.121809	0.869206	-0.857687
H366	H	0.621809	1.369206	-0.357687
H367	H	-0.391147	1.138702	0.081596
H368	H	0.108853	1.638702	0.581596
H369	H	0.018311	1.013228	-0.309465
H370	H	0.518311	1.513228	0.190535
H371	H	0.125431	0.864099	-0.452874
H372	H	0.625431	1.364099	0.047126
