data_functionalizedCrystal
_audit_creation_method	'MofGen! by Chris Wilmer'
_symmetry_space_group_name_H-M	'P1'
_symmetry_Int_Tables_number	1
_symmetry_cell_setting	triclinic
loop_
_symmetry_equiv_pos_as_xyz
  x,y,z
_cell_length_a	14.971491
_cell_length_b	17.699083
_cell_length_c	14.048226
_cell_angle_alpha	90.003140
_cell_angle_beta	90.009985
_cell_angle_gamma	83.449625
loop_
_atom_site_label
_atom_site_type_symbol
_atom_site_fract_x
_atom_site_fract_y
_atom_site_fract_z
O1	O	1.186608	0.098647	0.079203
O2	O	1.519941	0.431980	0.412537
O3	O	1.853275	0.765314	0.745870
O4	O	0.926168	0.110454	0.079196
O5	O	1.259501	0.443788	0.412530
O6	O	1.592834	0.777121	0.745863
O7	O	1.063746	-0.005620	0.079192
O8	O	1.397079	0.327713	0.412525
O9	O	1.730413	0.661046	0.745858
O10	O	1.049030	0.214722	0.079208
O11	O	1.382363	0.548055	0.412541
O12	O	1.715696	0.881388	0.745875
O13	O	1.063724	-0.005617	-0.079130
O14	O	1.397057	0.327716	0.254204
O15	O	1.730390	0.661049	0.587537
O16	O	0.926146	0.110457	-0.079125
O17	O	1.259479	0.443791	0.254208
O18	O	1.592812	0.777124	0.587542
O19	O	1.186586	0.098650	-0.079118
O20	O	1.519919	0.431983	0.254215
O21	O	1.853252	0.765316	0.587549
Zn22	Zn	1.056362	0.104554	-0.104258
Zn23	Zn	1.389696	0.437887	0.229075
Zn24	Zn	1.723029	0.771221	0.562408
Zn25	Zn	1.056391	0.104550	0.104337
Zn26	Zn	1.389725	0.437883	0.437670
Zn27	Zn	1.723058	0.771217	0.771003
O28	O	1.049008	0.214724	-0.079113
O29	O	1.382341	0.548058	0.254220
O30	O	1.715674	0.881391	0.587553
C31	C	0.892834	0.109927	0.000035
C32	C	1.226167	0.443260	0.333368
C33	C	1.559501	0.776594	0.666702
C34	C	0.793543	0.108343	0.000032
C35	C	1.126876	0.441676	0.333365
C36	C	1.460209	0.775009	0.666699
C37	C	0.365873	0.101504	0.086355
C38	C	0.699206	0.434837	0.419688
C39	C	1.032539	0.768170	0.753021
C40	C	0.459168	0.102990	0.086351
C41	C	0.792501	0.436324	0.419684
C42	C	1.125834	0.769657	0.753018
C43	C	0.505799	0.103740	0.000047
C44	C	0.839132	0.437073	0.333380
C45	C	1.172466	0.770407	0.666713
C46	C	0.459131	0.102995	-0.086260
C47	C	0.792464	0.436329	0.247074
C48	C	1.125798	0.769662	0.580407
C49	C	0.365839	0.101504	-0.086255
C50	C	0.699172	0.434837	0.247078
C51	C	1.032505	0.768170	0.580412
C52	C	0.653582	0.106107	-0.086263
C53	C	0.986916	0.439440	0.247070
C54	C	1.320249	0.772774	0.580404
C55	C	0.746881	0.107600	-0.086268
C56	C	1.080214	0.440934	0.247066
C57	C	1.413548	0.774267	0.580399
C58	C	0.746911	0.107594	0.086343
C59	C	1.080245	0.440927	0.419677
C60	C	1.413578	0.774260	0.753010
C61	C	0.653619	0.106102	0.086348
C62	C	0.986952	0.439435	0.419681
C63	C	1.320285	0.772768	0.753014
C64	C	0.606957	0.105359	0.000041
C65	C	0.940291	0.438692	0.333374
C66	C	1.273624	0.772025	0.666708
C67	C	1.063208	-0.033817	0.000031
C68	C	1.396541	0.299516	0.333364
C69	C	1.729874	0.632849	0.666698
C70	C	1.061626	-0.117839	0.000030
C71	C	1.394959	0.215494	0.333364
C72	C	1.728292	0.548827	0.666697
C73	C	1.142381	-0.166260	0.000031
C74	C	1.475714	0.167073	0.333365
C75	C	1.809048	0.500406	0.666698
C76	C	1.140889	-0.245207	0.000040
C77	C	1.474223	0.088126	0.333373
C78	C	1.807556	0.421459	0.666706
C79	C	1.058641	-0.275732	0.000040
C80	C	1.391975	0.057602	0.333374
C81	C	1.725308	0.390935	0.666707
C82	C	0.977880	-0.227305	0.000042
C83	C	1.311213	0.106029	0.333376
C84	C	1.644546	0.439362	0.666709
C85	C	0.979372	-0.148359	0.000041
C86	C	1.312706	0.184974	0.333374
C87	C	1.646039	0.518308	0.666708
C88	C	0.971858	-0.545683	0.000050
C89	C	1.305191	-0.212349	0.333383
C90	C	1.638525	0.120984	0.666717
C91	C	0.970372	-0.624634	0.000049
C92	C	1.303705	-0.291301	0.333382
C93	C	1.637038	0.042032	0.666715
C94	C	1.133375	-0.642531	0.000049
C95	C	1.466708	-0.309197	0.333382
C96	C	1.800042	0.024136	0.666715
C97	C	1.134868	-0.563585	0.000047
C98	C	1.468201	-0.230252	0.333381
C99	C	1.801534	0.103082	0.666714
C100	C	1.054107	-0.515165	0.000054
C101	C	1.387440	-0.181832	0.333388
C102	C	1.720773	0.151502	0.666721
C103	C	1.055725	-0.429562	0.000047
C104	C	1.389058	-0.096228	0.333380
C105	C	1.722392	0.237105	0.666714
C106	C	1.057022	-0.361333	0.000041
C107	C	1.390355	-0.028000	0.333374
C108	C	1.723688	0.305333	0.666708
C109	C	1.219920	0.099177	0.000046
C110	C	1.553253	0.432510	0.333379
C111	C	1.886586	0.765844	0.666712
C112	C	1.319211	0.100762	0.000055
C113	C	1.652544	0.434095	0.333388
C114	C	1.985878	0.767428	0.666721
C115	C	1.049546	0.242921	0.000050
C116	C	1.382879	0.576255	0.333383
C117	C	1.716213	0.909588	0.666716
C118	C	1.051128	0.326943	0.000056
C119	C	1.384461	0.660277	0.333390
C120	C	1.717795	0.993610	0.666723
N121	N	1.056349	0.104556	-0.246619
N122	N	1.389682	0.437889	0.086714
N123	N	1.723015	0.771223	0.420048
C124	C	1.117340	0.053165	-0.703461
C125	C	1.450673	0.386499	-0.370127
C126	C	1.784007	0.719832	-0.036794
C127	C	1.117332	0.053170	-0.603803
C128	C	1.450665	0.386504	-0.270470
C129	C	1.783998	0.719837	0.062864
C130	C	1.056391	0.104549	-0.553989
C131	C	1.389724	0.437883	-0.220656
C132	C	1.723057	0.771216	0.112678
C133	C	0.995460	0.155932	-0.603838
C134	C	1.328793	0.489265	-0.270505
C135	C	1.662126	0.822598	0.062829
C136	C	0.995473	0.155930	-0.703494
C137	C	1.328806	0.489263	-0.370160
C138	C	1.662140	0.822596	-0.036827
C139	C	0.995435	0.155931	-0.396124
C140	C	1.328769	0.489265	-0.062790
C141	C	1.662102	0.822598	0.270543
C142	C	0.995421	0.155933	-0.296461
C143	C	1.328754	0.489266	0.036872
C144	C	1.662087	0.822600	0.370206
C145	C	1.117294	0.053172	-0.296433
C146	C	1.450628	0.386506	0.036900
C147	C	1.783961	0.719839	0.370234
C148	C	1.117307	0.053170	-0.396089
C149	C	1.450641	0.386503	-0.062755
C150	C	1.783974	0.719837	0.270578
C151	C	1.056375	0.104552	-0.445931
C152	C	1.389708	0.437885	-0.112597
C153	C	1.723042	0.771218	0.220736
N154	N	1.056412	0.104542	0.246697
N155	N	1.389745	0.437875	0.580031
N156	N	1.723079	0.771209	0.913364
H157	H	0.327911	0.100899	0.156634
H158	H	0.661245	0.434232	0.489967
H159	H	0.994578	0.767565	0.823300
F160	F	0.796571	0.108392	0.178198
F161	F	1.129905	0.441725	0.511531
F162	F	1.463238	0.775058	0.844865
H163	H	0.327847	0.100907	-0.156529
H164	H	0.661180	0.434240	0.176804
H165	H	0.994513	0.767574	0.510137
F166	F	0.930586	0.210621	-0.449165
F167	F	1.263919	0.543954	-0.115832
F168	F	1.597253	0.877288	0.217502
H169	H	1.201843	-0.538737	0.000042
H170	H	1.535176	-0.205404	0.333375
H171	H	1.868509	0.127930	0.666709
H172	H	0.913613	-0.108935	0.000040
H173	H	1.246946	0.224399	0.333374
H174	H	1.580279	0.557732	0.666707
F175	F	1.182141	-0.001512	-0.243384
F176	F	1.515474	0.331821	0.089950
F177	F	1.848808	0.665155	0.423283
H178	H	0.497156	0.103590	0.156625
H179	H	0.830489	0.436923	0.489958
H180	H	1.163823	0.770256	0.823292
F181	F	0.603991	0.105310	0.178202
F182	F	0.937325	0.438643	0.511536
F183	F	1.270658	0.771977	0.844869
F184	F	0.882827	-0.657118	0.000051
F185	F	1.216161	-0.323785	0.333384
F186	F	1.549494	0.009549	0.666718
F187	F	0.930560	0.210619	-0.243452
F188	F	1.263893	0.543952	0.089881
F189	F	1.597226	0.877286	0.423214
H190	H	0.945843	0.197769	-0.563274
H191	H	1.279177	0.531103	-0.229940
H192	H	1.612510	0.864436	0.103393
F193	F	1.229922	-0.133781	0.000021
F194	F	1.563256	0.199552	0.333355
F195	F	1.896589	0.532885	0.666688
H196	H	0.784845	0.108215	-0.156544
H197	H	1.118178	0.441548	0.176789
H198	H	1.451512	0.774882	0.510122
H199	H	1.206649	-0.284629	0.000038
H200	H	1.539982	0.048704	0.333371
H201	H	1.873315	0.382038	0.666705
H202	H	1.199135	-0.681964	0.000048
H203	H	1.532468	-0.348631	0.333381
H204	H	1.865801	-0.015298	0.666714
H205	H	0.615592	0.105511	-0.156543
H206	H	0.948925	0.438844	0.176790
H207	H	1.282259	0.772178	0.510124
F208	F	0.508762	0.103791	-0.178111
F209	F	0.842096	0.437124	0.155222
F210	F	1.175429	0.770458	0.488555
F211	F	1.182179	-0.001509	-0.550757
F212	F	1.515512	0.331824	-0.217424
F213	F	1.848846	0.665157	0.115909
H214	H	0.906097	-0.506268	0.000056
H215	H	1.239430	-0.172934	0.333389
H216	H	1.572764	0.160399	0.666722
H217	H	0.910912	-0.252164	0.000049
H218	H	1.244245	0.081170	0.333382
H219	H	1.577578	0.414503	0.666716
F220	F	1.182161	-0.001517	-0.449105
F221	F	1.515495	0.331817	-0.115772
F222	F	1.848828	0.665150	0.217562
H223	H	1.166961	0.011323	-0.744013
H224	H	1.500295	0.344657	-0.410679
H225	H	1.833628	0.677990	-0.077346
F226	F	0.930627	0.210614	-0.756538
F227	F	1.263960	0.543948	-0.423204
F228	F	1.597294	0.877281	-0.089871
