data_functionalizedCrystal
_audit_creation_method	'MofGen! by Chris Wilmer'
_symmetry_space_group_name_H-M	'P1'
_symmetry_Int_Tables_number	1
_symmetry_cell_setting	triclinic
loop_
_symmetry_equiv_pos_as_xyz
  x,y,z
_cell_length_a	19.188925
_cell_length_b	19.188930
_cell_length_c	9.730223
_cell_angle_alpha	89.990488
_cell_angle_beta	89.995762
_cell_angle_gamma	83.143665
loop_
_atom_site_label
_atom_site_type_symbol
_atom_site_fract_x
_atom_site_fract_y
_atom_site_fract_z
O1	O	0.926146	0.087149	-0.114335
O2	O	0.722834	0.098887	-0.114333
O3	O	0.830357	-0.008637	-0.114307
O4	O	0.818623	0.194674	-0.114361
O5	O	0.830350	-0.008640	0.114273
O6	O	0.722827	0.098885	0.114247
O7	O	0.926139	0.087146	0.114245
Zn8	Zn	0.824482	0.093015	0.150538
Zn9	Zn	0.824491	0.093019	-0.150626
O10	O	0.818616	0.194671	0.114219
C11	C	0.696820	0.098507	-0.000043
C12	C	0.619315	0.097367	-0.000041
C13	C	0.057545	0.152831	-0.000059
C14	C	0.130368	0.153908	-0.000066
C15	C	0.175302	0.090816	-0.000047
C16	C	0.147408	0.026642	-0.000056
C17	C	0.074586	0.025568	-0.000062
N18	N	0.295977	0.045139	0.077775
N19	N	0.365155	0.046164	0.077784
C20	C	0.394712	0.094050	-0.000032
N21	N	0.352477	0.140883	-0.077839
N22	N	0.283293	0.139859	-0.077842
C23	C	0.254267	0.091974	-0.000041
C24	C	0.501561	0.159386	-0.000041
C25	C	0.574385	0.160460	-0.000058
C26	C	0.591425	0.033193	-0.000033
C27	C	0.518601	0.032121	-0.000031
C28	C	0.473673	0.095220	-0.000028
C29	C	0.829974	-0.034650	-0.000013
C30	C	0.828833	-0.112154	-0.000001
C31	C	0.891924	-0.157079	0.000005
C32	C	0.890852	-0.229903	-0.000017
C33	C	0.826686	-0.257799	-0.000018
C34	C	0.763587	-0.212864	-0.000032
C35	C	0.764660	-0.140041	-0.000023
N36	N	0.777636	-0.365804	0.077773
N37	N	0.776621	-0.434982	0.077768
C38	C	0.823448	-0.477207	-0.000046
N39	N	0.871340	-0.447642	-0.077837
N40	N	0.872357	-0.378457	-0.077826
C41	C	0.825515	-0.336761	-0.000028
C42	C	0.885381	-0.601097	-0.000065
C43	C	0.884307	-0.673922	-0.000096
C44	C	0.757040	-0.656880	-0.000096
C45	C	0.758116	-0.584057	-0.000080
C46	C	0.822289	-0.556170	-0.000058
C47	C	0.952154	0.087527	-0.000049
C48	C	1.029658	0.088666	-0.000059
C49	C	0.819000	0.220684	-0.000078
C50	C	0.820140	0.298188	-0.000099
N51	N	0.824481	0.093012	0.356074
N52	N	0.824498	0.093016	-0.356162
C53	C	0.872108	0.045420	0.428012
C54	C	0.872115	0.045420	0.571895
C55	C	0.776866	0.140611	0.571890
C56	C	0.776856	0.140607	0.428010
H57	H	0.464978	0.210765	-0.000042
O58	O	0.952187	-0.273484	-0.000188
C59	C	0.991165	-0.260879	-0.118578
H60	H	0.973860	-0.205579	-0.158049
H61	H	1.049411	-0.266189	-0.091937
H62	H	0.981744	-0.300675	-0.201478
H63	H	0.711342	-0.235581	-0.000035
H64	H	0.713282	-0.103462	-0.000028
O65	O	0.945662	-0.717465	-0.000030
C66	C	1.002528	-0.677231	-0.000041
H67	H	0.984635	-0.622829	0.043241
H68	H	1.046715	-0.704239	0.066326
H69	H	1.022217	-0.672092	-0.109697
H70	H	0.937635	-0.578390	-0.000054
O71	O	0.601360	0.222855	0.000002
C72	C	0.546086	0.278312	-0.000030
H73	H	0.496673	0.258888	0.043247
H74	H	0.561167	0.323121	0.066333
H75	H	0.535724	0.297772	-0.109691
H76	H	0.153078	0.206160	-0.000053
H77	H	0.704794	-0.679592	-0.000104
H78	H	0.628010	-0.018178	-0.000028
O79	O	0.191125	-0.034599	-0.000218
C80	C	0.233755	-0.037787	-0.118612
H81	H	0.237268	0.017623	-0.158085
H82	H	0.288568	-0.063963	-0.091976
H83	H	0.209901	-0.069599	-0.201509
H84	H	0.738069	0.179362	0.369434
O85	O	0.696764	-0.540512	-0.000007
C86	C	0.639898	-0.580746	-0.000046
H87	H	0.657785	-0.635159	0.043220
H88	H	0.595703	-0.553754	0.066321
H89	H	0.620220	-0.585857	-0.109708
O90	O	0.730635	0.186940	0.641616
C91	C	0.741774	0.256029	0.606443
H92	H	0.768681	0.255873	0.501967
H93	H	0.689186	0.290541	0.601521
H94	H	0.776462	0.277541	0.687398
O95	O	0.047611	-0.036826	0.000006
C96	C	0.102883	-0.092285	-0.000022
H97	H	0.152295	-0.072868	0.043249
H98	H	0.087798	-0.137101	0.066348
H99	H	0.113249	-0.111732	-0.109680
H100	H	0.910897	0.006665	0.630462
O101	O	0.491624	-0.030271	0.000047
C102	C	0.546898	-0.085729	0.000028
H103	H	0.596308	-0.066310	0.043301
H104	H	0.531812	-0.130544	0.066400
H105	H	0.557267	-0.105178	-0.109629
O106	O	0.954217	-0.129910	-0.000174
C107	C	0.958660	-0.088302	-0.118574
H108	H	0.903576	-0.069988	-0.158042
H109	H	0.986349	-0.040704	-0.091948
H110	H	0.989647	-0.120566	-0.201472
H111	H	0.910887	0.006664	0.369445
H112	H	0.020968	0.204211	-0.000063
