data_functionalizedCrystal
_audit_creation_method	'MofGen! by Chris Wilmer'
_symmetry_space_group_name_H-M	'P1'
_symmetry_Int_Tables_number	1
_symmetry_cell_setting	triclinic
loop_
_symmetry_equiv_pos_as_xyz
  x,y,z
_cell_length_a	14.519709
_cell_length_b	15.944493
_cell_length_c	13.596369
_cell_angle_alpha	89.999885
_cell_angle_beta	90.000291
_cell_angle_gamma	83.577594
loop_
_atom_site_label
_atom_site_type_symbol
_atom_site_fract_x
_atom_site_fract_y
_atom_site_fract_z
O1	O	1.223651	0.110112	-0.081650
O2	O	1.556984	0.443445	0.251683
O3	O	1.890317	0.776779	0.585017
O4	O	0.955148	0.123079	-0.081679
O5	O	1.288481	0.456412	0.251655
O6	O	1.621815	0.789746	0.584988
O7	O	1.096759	-0.005672	-0.081672
O8	O	1.430093	0.327661	0.251662
O9	O	1.763426	0.660995	0.584995
O10	O	1.082039	0.238863	-0.081657
O11	O	1.415373	0.572196	0.251676
O12	O	1.748706	0.905530	0.585010
O13	O	1.096745	-0.005679	0.081911
O14	O	1.430079	0.327654	0.415244
O15	O	1.763412	0.660988	0.748578
O16	O	0.955134	0.123072	0.081904
O17	O	1.288467	0.456405	0.415238
O18	O	1.621801	0.789739	0.748571
O19	O	1.223637	0.110105	0.081933
O20	O	1.556970	0.443438	0.415266
O21	O	1.890303	0.776772	0.748599
Zn22	Zn	1.089383	0.116587	0.107891
Zn23	Zn	1.422716	0.449921	0.441224
Zn24	Zn	1.756050	0.783254	0.774558
Zn25	Zn	1.089402	0.116596	-0.107637
Zn26	Zn	1.422735	0.449930	0.225697
Zn27	Zn	1.756068	0.783263	0.559030
O28	O	1.082025	0.238856	0.081926
O29	O	1.415359	0.572189	0.415259
O30	O	1.748692	0.905523	0.748593
C31	C	0.920783	0.122471	0.000109
C32	C	1.254116	0.455804	0.333442
C33	C	1.587449	0.789138	0.666776
C34	C	0.818405	0.120660	0.000097
C35	C	1.151738	0.453994	0.333431
C36	C	1.485072	0.787327	0.666764
C37	C	0.443522	0.113994	0.000142
C38	C	0.776856	0.447327	0.333475
C39	C	1.110189	0.780660	0.666808
C40	C	0.547826	0.115845	0.000129
C41	C	0.881160	0.449178	0.333462
C42	C	1.214493	0.782511	0.666796
C43	C	0.630960	0.117327	0.000119
C44	C	0.964294	0.450660	0.333452
C45	C	1.297627	0.783993	0.666785
C46	C	0.735271	0.119178	0.000108
C47	C	1.068604	0.452512	0.333441
C48	C	1.401938	0.785845	0.666775
C49	C	1.096151	-0.036971	0.000115
C50	C	1.429484	0.296362	0.333449
C51	C	1.762817	0.629695	0.666782
C52	C	1.094347	-0.130222	0.000103
C53	C	1.427680	0.203111	0.333436
C54	C	1.761014	0.536444	0.666769
C55	C	1.177703	-0.365861	0.000130
C56	C	1.511036	-0.032528	0.333464
C57	C	1.844369	0.300805	0.666797
C58	C	1.132759	-0.416491	-0.080529
C59	C	1.466092	-0.083158	0.252804
C60	C	1.799426	0.250175	0.586138
C61	C	1.091005	-0.300948	0.000114
C62	C	1.424338	0.032385	0.333448
C63	C	1.757672	0.365718	0.666781
C64	C	1.132725	-0.416474	0.080751
C65	C	1.466058	-0.083141	0.414084
C66	C	1.799392	0.250193	0.747418
C67	C	1.087783	-0.465863	0.000130
C68	C	1.421116	-0.132529	0.333463
C69	C	1.754450	0.200804	0.666797
C70	C	1.046085	-0.350350	-0.080611
C71	C	1.379418	-0.017017	0.252722
C72	C	1.712751	0.316317	0.586055
C73	C	1.046063	-0.350329	0.080741
C74	C	1.379397	-0.016996	0.414074
C75	C	1.712730	0.316337	0.747408
C76	C	1.001056	-0.400926	0.000062
C77	C	1.334389	-0.067593	0.333396
C78	C	1.667723	0.265740	0.666729
C79	C	1.092863	-0.205946	0.000105
C80	C	1.426197	0.127388	0.333438
C81	C	1.759530	0.460721	0.666771
C82	C	1.085918	-0.560862	0.000133
C83	C	1.419251	-0.227529	0.333466
C84	C	1.752584	0.105804	0.666799
C85	C	1.258002	0.110713	0.000143
C86	C	1.591336	0.444046	0.333476
C87	C	1.924669	0.777379	0.666810
C88	C	1.360380	0.112524	0.000148
C89	C	1.693713	0.445857	0.333481
C90	C	2.027047	0.779190	0.666815
C91	C	1.082634	0.270155	0.000137
C92	C	1.415967	0.603488	0.333470
C93	C	1.749301	0.936822	0.666803
C94	C	1.084438	0.363406	0.000143
C95	C	1.417771	0.696740	0.333476
C96	C	1.751104	1.030073	0.666809
N97	N	1.089377	0.116581	0.254983
N98	N	1.422710	0.449914	0.588316
N99	N	1.756044	0.783247	0.921649
N100	N	1.089415	0.116596	-0.254729
N101	N	1.422748	0.449930	0.078605
N102	N	1.756082	0.783263	0.411938
C103	C	1.089400	0.116597	0.656274
C104	C	1.422734	0.449931	0.989607
C105	C	1.756067	0.783264	1.322940
C106	C	1.089391	0.116596	0.544622
C107	C	1.422725	0.449929	0.877956
C108	C	1.756058	0.783262	1.211289
C109	C	1.089389	0.116590	0.455632
C110	C	1.422723	0.449923	0.788965
C111	C	1.756056	0.783256	1.122298
C112	C	1.089379	0.116587	0.343973
C113	C	1.422712	0.449920	0.677307
C114	C	1.756046	0.783253	1.010640
H115	H	1.252382	-0.350125	0.000057
H116	H	1.585715	-0.016791	0.333390
H117	H	1.919049	0.316542	0.666724
O118	O	1.002420	-0.315981	0.162159
O119	O	1.335753	0.017353	0.495492
O120	O	1.669086	0.350686	0.828826
C121	C	0.970766	-0.380494	0.219737
C122	C	1.304100	-0.047161	0.553070
C123	C	1.637433	0.286173	0.886403
H124	H	1.013401	-0.443132	0.202146
H125	H	1.346734	-0.109799	0.535479
H126	H	1.680067	0.223535	0.868812
H127	H	0.894677	-0.385327	0.202624
H128	H	1.228010	-0.051994	0.535957
H129	H	1.561344	0.281340	0.869290
C130	C	0.929018	-0.282890	0.351117
C131	C	1.262352	0.050444	0.684450
C132	C	1.595685	0.383777	1.017783
C133	C	0.981388	-0.359822	0.329517
C134	C	1.314721	-0.026488	0.662850
C135	C	1.648055	0.306845	0.996184
H136	H	0.935566	-0.270137	0.418834
H137	H	1.268899	0.063196	0.752168
H138	H	1.602232	0.396529	1.085501
H139	H	0.950340	-0.239425	0.312325
H140	H	1.283674	0.093909	0.645658
H141	H	1.617007	0.427242	0.978991
H142	H	0.865615	-0.286927	0.336849
H143	H	1.198948	0.046406	0.670182
H144	H	1.532282	0.379740	1.003515
H145	H	1.044791	-0.355780	0.343773
H146	H	1.378124	-0.022447	0.677107
H147	H	1.711458	0.310887	1.010440
H148	H	0.960077	-0.403286	0.368314
H149	H	1.293410	-0.069952	0.701647
H150	H	1.626743	0.263381	1.034981
H151	H	1.169351	-0.445355	0.148938
H152	H	1.502684	-0.112022	0.482271
H153	H	1.836018	0.221312	0.815604
H154	H	1.169379	-0.445381	-0.148713
H155	H	1.502712	-0.112048	0.184620
H156	H	1.836045	0.221286	0.517953
H157	H	1.009498	-0.321580	-0.148875
H158	H	1.342831	0.011753	0.184458
H159	H	1.676164	0.345086	0.517792
O160	O	0.911883	-0.419473	-0.000168
O161	O	1.245217	-0.086139	0.333165
O162	O	1.578550	0.247194	0.666498
C163	C	0.866526	-0.385464	-0.085309
C164	C	1.199859	-0.052131	0.248024
C165	C	1.533192	0.281203	0.581357
H166	H	0.920083	-0.376167	-0.144474
H167	H	1.253416	-0.042834	0.188860
H168	H	1.586750	0.290499	0.522193
H169	H	0.825860	-0.322075	-0.066841
H170	H	1.159193	0.011258	0.266492
H171	H	1.492527	0.344591	0.599825
C172	C	0.733786	-0.457919	-0.050673
C173	C	1.067119	-0.124585	0.282660
C174	C	1.400452	0.208748	0.615993
C175	C	0.799565	-0.446507	-0.123343
C176	C	1.132899	-0.113174	0.209991
C177	C	1.466232	0.220159	0.543324
H178	H	0.692478	-0.495570	-0.074133
H179	H	1.025811	-0.162237	0.259201
H180	H	1.359145	0.171096	0.592534
H181	H	0.764342	-0.480829	0.006690
H182	H	1.097675	-0.147495	0.340023
H183	H	1.431009	0.185838	0.673357
H184	H	0.699907	-0.405090	-0.035290
H185	H	1.033241	-0.071757	0.298044
H186	H	1.366574	0.261576	0.631377
H187	H	0.833450	-0.499333	-0.138716
H188	H	1.166783	-0.166000	0.194617
H189	H	1.500117	0.167334	0.527950
H190	H	0.769013	-0.423607	-0.180710
H191	H	1.102346	-0.090274	0.152623
H192	H	1.435680	0.243059	0.485957
