data_functionalizedCrystal
_audit_creation_method	'MofGen! by Chris Wilmer'
_symmetry_space_group_name_H-M	'P1'
_symmetry_Int_Tables_number	1
_symmetry_cell_setting	triclinic
loop_
_symmetry_equiv_pos_as_xyz
  x,y,z
_cell_length_a	14.044191
_cell_length_b	8.140239
_cell_length_c	9.065218
_cell_angle_alpha	89.998314
_cell_angle_beta	89.103831
_cell_angle_gamma	89.999659
loop_
_atom_site_label
_atom_site_type_symbol
_atom_site_fract_x
_atom_site_fract_y
_atom_site_fract_z
O1	O	1.260764	-0.136521	0.356124
O2	O	1.760764	0.363479	0.856124
O3	O	0.984684	-0.136542	0.343264
O4	O	1.484684	0.363458	0.843264
O5	O	1.128430	-0.136528	0.135684
O6	O	1.628430	0.363472	0.635684
O7	O	1.117017	-0.136536	0.563704
O8	O	1.617017	0.363464	1.063704
O9	O	1.128422	0.136699	0.135680
O10	O	1.628422	0.636699	0.635680
O11	O	0.984676	0.136685	0.343260
O12	O	1.484676	0.636685	0.843260
O13	O	1.260756	0.136706	0.356120
O14	O	1.760756	0.636706	0.856120
Zn15	Zn	1.122714	0.180076	0.349690
Zn16	Zn	1.622714	0.680076	0.849690
Zn17	Zn	1.122725	-0.179912	0.349694
Zn18	Zn	1.622725	0.320088	0.849694
O19	O	1.117009	0.136692	0.563700
O20	O	1.617009	0.636692	1.063700
C21	C	0.949317	0.000068	0.337636
C22	C	1.449317	0.500068	0.837636
C23	C	0.843947	0.000060	0.320855
C24	C	1.343947	0.500060	0.820855
C25	C	0.594419	0.000075	0.409191
C26	C	1.094419	0.500075	0.909191
C27	C	0.651026	0.000074	0.290199
C28	C	1.151026	0.500074	0.790199
C29	C	0.758377	0.000066	0.307260
C30	C	1.258377	0.500066	0.807260
C31	C	0.487058	0.000083	0.392132
C32	C	0.987058	0.500083	0.892132
C33	C	1.127329	0.000083	0.080574
C34	C	1.627329	0.500083	0.580574
C35	C	1.124050	0.000075	-0.083633
C36	C	1.624050	0.500075	0.416367
C37	C	1.296122	0.000092	0.361748
C38	C	1.796122	0.500092	0.861748
C39	C	1.401492	0.000089	0.378529
C40	C	1.901492	0.500089	0.878529
N41	N	1.122714	0.425759	0.349686
N42	N	1.622714	0.925759	0.849686
N43	N	1.122733	-0.425595	0.349687
N44	N	1.622733	0.074405	0.849687
C45	C	1.118110	0.000077	0.618810
C46	C	1.618110	0.500077	1.118810
C47	C	1.121390	0.000074	0.783016
C48	C	1.621390	0.500074	1.283016
H49	H	0.618866	-0.000039	0.175514
H50	H	1.118866	0.499961	0.675514
H51	H	0.626577	0.000068	0.523867
H52	H	1.126577	0.500068	1.023867
