data_functionalizedCrystal
_audit_creation_method	'MofGen! by Chris Wilmer'
_symmetry_space_group_name_H-M	'P1'
_symmetry_Int_Tables_number	1
_symmetry_cell_setting	triclinic
loop_
_symmetry_equiv_pos_as_xyz
  x,y,z
_cell_length_a	10.654550
_cell_length_b	14.044220
_cell_length_c	9.130313
_cell_angle_alpha	89.994483
_cell_angle_beta	89.999724
_cell_angle_gamma	88.836904
loop_
_atom_site_label
_atom_site_type_symbol
_atom_site_fract_x
_atom_site_fract_y
_atom_site_fract_z
O1	O	1.681228	0.133232	-0.121694
O2	O	1.317025	0.145925	-0.121721
O3	O	1.493660	0.001558	-0.121693
O4	O	1.504593	0.277599	-0.121721
O5	O	1.493646	0.001554	0.121906
O6	O	1.317011	0.145921	0.121878
O7	O	1.681214	0.133227	0.121905
Cu8	Cu	1.499112	0.139574	0.144134
Cu9	Cu	1.499128	0.139579	-0.143950
O10	O	1.504580	0.277595	0.121877
C11	C	1.270127	0.144991	0.000075
C12	C	1.130403	0.142202	0.000065
C13	C	1.059459	0.227204	0.000061
C14	C	0.928175	0.224578	0.000086
C15	C	0.938790	0.051942	0.000115
C16	C	1.070072	0.054569	0.000100
C17	C	1.488867	-0.033790	0.000106
C18	C	1.474592	-0.139110	0.000107
C19	C	1.448493	-0.331943	0.000084
C20	C	1.549741	-0.388910	0.000087
C21	C	1.535219	-0.496209	0.000074
C22	C	1.463013	-0.224634	0.000097
C23	C	1.728113	0.134162	0.000106
C24	C	1.867836	0.136950	0.000106
C25	C	1.509372	0.312943	0.000075
C26	C	1.523648	0.418262	0.000064
N27	N	1.499109	0.139570	0.346757
N28	N	1.499139	0.139575	-0.346572
C29	C	1.577355	0.075671	0.423421
C30	C	1.577367	0.075671	0.576758
C31	C	1.420885	0.203477	0.576753
C32	C	1.420867	0.203472	0.423419
H33	H	0.870417	0.293795	0.000086
H34	H	1.641080	0.023638	0.639173
O35	O	1.332011	-0.369773	0.000273
C36	C	1.134424	-0.382314	0.126522
C37	C	1.266289	-0.339377	0.126467
H38	H	1.081260	-0.357772	0.228554
H39	H	1.081091	-0.357682	0.024648
H40	H	1.143337	-0.463343	0.126445
H41	H	1.257491	-0.258346	0.126595
H42	H	1.319573	-0.364084	0.228331
H43	H	1.647328	-0.357098	-0.000004
H44	H	0.889652	-0.019406	0.000152
O45	O	1.344770	0.265585	0.650998
C46	C	1.189608	0.392384	0.634808
C47	C	1.275725	0.322081	0.550548
H48	H	1.133781	0.438093	0.553631
H49	H	1.122171	0.351035	0.706574
H50	H	1.249194	0.440117	0.706615
H51	H	1.216240	0.274332	0.478661
H52	H	1.343167	0.363489	0.478874
O53	O	1.118266	0.312246	-0.000029
C54	C	1.315806	0.392807	0.000018
C55	C	1.249374	0.296430	0.000082
H56	H	1.421817	0.380053	0.000139
H57	H	1.287457	0.434870	-0.101954
H58	H	1.287310	0.434854	0.101938
H59	H	1.277835	0.254306	-0.101768
H60	H	1.277724	0.254439	0.102122
O61	O	1.138806	-0.028095	0.000037
C62	C	1.135492	-0.199604	0.000157
C63	C	1.057499	-0.106065	0.000186
H64	H	1.069788	-0.262666	0.000309
H65	H	1.197184	-0.202754	-0.101817
H66	H	1.197258	-0.202632	0.102075
H67	H	0.995662	-0.102974	-0.101662
H68	H	0.995889	-0.102953	0.102228
H69	H	1.641063	0.023637	0.361006
H70	H	1.357144	0.255506	0.360995
