data_functionalizedCrystal
_audit_creation_method	'MofGen! by Chris Wilmer'
_symmetry_space_group_name_H-M	'P1'
_symmetry_Int_Tables_number	1
_symmetry_cell_setting	triclinic
loop_
_symmetry_equiv_pos_as_xyz
  x,y,z
_cell_length_a	15.698487
_cell_length_b	20.875641
_cell_length_c	20.875625
_cell_angle_alpha	59.251205
_cell_angle_beta	92.971181
_cell_angle_gamma	62.440568
loop_
_atom_site_label
_atom_site_type_symbol
_atom_site_fract_x
_atom_site_fract_y
_atom_site_fract_z
Zr1	Zr	0.847252	0.702127	-0.109948
O2	O	0.710360	0.835945	-0.217279
O3	O	0.884928	0.568308	-0.073641
O4	O	0.881886	0.702129	-0.212372
O5	O	0.720679	0.702122	0.027012
O6	O	1.022067	0.702132	-0.212373
O7	O	0.713402	0.702124	-0.078548
O8	O	1.027509	0.462750	0.035791
O9	O	0.715238	0.941504	-0.221152
O10	O	1.010794	0.623352	-0.062271
O11	O	0.911609	0.623349	0.016509
O12	O	0.908027	0.780906	-0.146829
O13	O	0.808843	0.780903	-0.068049
Zr14	Zr	1.082432	0.702128	0.058406
Zr15	Zr	1.070825	0.702131	-0.109951
Zr16	Zr	0.858859	0.702124	0.058408
Zr17	Zr	0.855032	0.870481	-0.116125
Zr18	Zr	1.074652	0.533774	0.064583
O19	O	1.044755	0.835947	0.022098
O20	O	1.028251	0.835951	-0.217283
O21	O	0.726863	0.835941	0.022102
O22	O	1.219324	0.568310	0.165737
O23	O	1.202820	0.568314	-0.073645
O24	O	0.901432	0.568304	0.165741
O25	O	1.209004	0.702133	-0.078554
O26	O	1.047797	0.702126	0.160829
O27	O	0.907616	0.702123	0.160831
O28	O	1.216282	0.702131	0.027006
O29	O	0.892948	0.941507	-0.221154
O30	O	1.036735	0.462748	0.169612
O31	O	1.214446	0.462751	0.169610
O32	O	1.205220	0.462753	0.035789
O33	O	0.724464	0.941502	-0.087331
O34	O	0.902174	0.941505	-0.087333
O35	O	1.021656	0.623349	0.095286
O36	O	1.120840	0.623352	0.016506
O37	O	1.018074	0.780906	-0.068051
O38	O	0.918890	0.780903	0.010728
C39	C	0.955110	0.491542	-0.018045
C40	C	0.951808	0.420071	-0.015423
C41	C	0.685186	0.702122	-0.025768
C42	C	0.590274	0.702121	-0.025767
C43	C	1.002027	0.386496	-0.055313
C44	C	0.998926	0.319337	-0.052842
C45	C	0.945601	0.285759	-0.010484
C46	C	0.895381	0.319337	0.029411
C47	C	0.898488	0.386491	0.026944
C48	C	0.930763	0.084915	0.001309
C49	C	0.927657	0.017759	0.003771
C50	C	1.031205	0.017762	-0.078481
C51	C	1.034302	0.084920	-0.080949
C52	C	0.984086	0.118489	-0.041050
N53	N	0.942428	0.217114	-0.007959
N54	N	0.987266	0.187129	-0.043571
C55	C	0.416489	0.702137	-0.025775
C56	C	0.513193	0.702131	-0.025772
C57	C	1.244497	0.702132	-0.025775
C58	C	1.339410	0.702134	-0.025776
C59	C	0.950323	0.702131	-0.236360
C60	C	0.945396	0.702132	-0.307832
C61	C	0.974573	0.912713	-0.033497
C62	C	0.977876	0.984183	-0.036120
C63	C	1.020307	0.702135	-0.341410
C64	C	1.015680	0.702128	-0.408561
C65	C	0.936136	0.702125	-0.442136
C66	C	0.861221	0.702119	-0.408551
C67	C	0.865853	0.702120	-0.341398
C68	C	0.914005	0.702117	-0.642973
C69	C	0.909376	0.702120	-0.710132
C70	C	1.063837	0.702127	-0.710137
C71	C	1.068459	0.702133	-0.642985
C72	C	0.993547	0.702122	-0.609404
N73	N	0.931403	0.702121	-0.510777
N74	N	0.998285	0.702120	-0.540761
C75	C	0.979360	0.702124	0.184817
C76	C	0.984288	0.702123	0.256289
C77	C	1.234766	0.491547	-0.018048
C78	C	1.326376	0.420078	-0.015427
C79	C	0.969629	0.491539	0.192544
C80	C	0.971254	0.420067	0.266638
C81	C	1.249284	0.491544	0.192540
C82	C	1.345821	0.420074	0.266633
C83	C	0.680399	0.912711	-0.244083
C84	C	0.583862	0.984181	-0.318175
C85	C	0.694918	0.912708	-0.033494
C86	C	0.603308	0.984177	-0.036115
C87	C	0.960054	0.912716	-0.244086
C88	C	0.958430	0.984188	-0.318180
C89	C	1.311953	0.386515	-0.055325
C90	C	1.398021	0.319372	-0.052878
C91	C	1.498511	0.285788	-0.010529
C92	C	1.512932	0.319358	0.029369
C93	C	1.426865	0.386504	0.026917
C94	C	1.029460	0.386503	0.342561
C95	C	1.030984	0.319357	0.412186
C96	C	0.974306	0.285771	0.405887
C97	C	0.916092	0.319342	0.329955
C98	C	0.914563	0.386491	0.260331
C99	C	1.442939	0.386512	0.260305
C100	C	1.533655	0.319368	0.329917
C101	C	1.527250	0.285781	0.405855
C102	C	1.430122	0.319349	0.412181
C103	C	1.339409	0.386497	0.342570
C104	C	0.486745	1.017751	-0.311848
C105	C	0.396030	1.084916	-0.381460
C106	C	0.402435	1.118506	-0.457399
C107	C	0.499562	1.084934	-0.463724
C108	C	0.590275	1.017774	-0.394113
C109	C	0.617731	1.017747	0.003775
C110	C	0.531662	1.084908	0.001309
C111	C	0.431172	1.118495	-0.041042
C112	C	0.416751	1.084922	-0.080937
C113	C	0.502818	1.017766	-0.078476
C114	C	1.015119	1.017753	-0.311854
C115	C	1.013613	1.084899	-0.381467
C116	C	0.955411	1.118485	-0.457404
C117	C	0.898720	1.084913	-0.463728
C118	C	0.900232	1.017764	-0.394116
H119	H	1.045445	0.413835	-0.089809
H120	H	0.316954	1.112240	-0.376294
F121	F	1.052358	0.283621	-0.095313
F122	F	1.091053	0.120656	-0.126036
F123	F	0.877322	0.120630	0.043776
H124	H	0.504765	1.112291	-0.525561
F125	F	0.836773	1.120673	-0.544553
H126	H	0.804853	0.702116	-0.314058
F127	F	1.205011	0.422248	-0.100403
F128	F	0.852614	0.422201	0.179530
H129	H	1.062514	0.990418	-0.250029
F130	F	1.095410	0.702130	-0.444297
H131	H	0.884228	-0.009577	0.038263
F132	F	0.724672	0.982016	0.048852
H133	H	1.386258	0.292048	-0.085368
H134	H	1.059777	1.112226	-0.376302
H135	H	0.954188	1.173163	-0.514080
F136	F	1.084646	-0.017971	-0.120939
F137	F	0.839883	0.982055	-0.400861
H138	H	0.851968	0.291988	0.063904
F139	F	1.153117	0.702138	-0.607254
F140	F	1.590102	0.214323	-0.007926
F141	F	1.623805	0.214315	0.479935
H142	H	1.594762	0.292004	0.063848
H143	H	1.424923	0.291993	0.474019
H144	H	0.857591	0.413829	0.059425
H145	H	0.543425	1.112232	0.033800
H146	H	1.438623	0.413823	0.059411
H147	H	0.361100	1.173178	-0.043040
F148	F	0.309794	1.120674	-0.126006
H149	H	0.975560	0.231094	0.462585
H150	H	1.085077	0.702143	-0.314081
F151	F	0.487452	0.982040	-0.120930
F152	F	1.143561	0.702135	-0.745879
H153	H	0.844597	0.702118	-0.737466
H154	H	0.869947	0.291986	0.324838
H155	H	1.448173	0.413848	0.198479
F156	F	0.834276	0.702110	-0.607240
F157	F	0.479905	0.982012	-0.231036
F158	F	0.305881	1.189984	-0.531479
F159	F	0.693631	0.982049	-0.400859
F160	F	0.776567	0.702109	-0.444281
F161	F	1.089793	0.422233	0.349284
H162	H	1.078392	0.292032	0.474006
H163	H	1.612731	0.292043	0.324752
F164	F	1.236052	0.422205	0.349317
