data_functionalizedCrystal
_audit_creation_method	'MofGen! by Chris Wilmer'
_symmetry_space_group_name_H-M	'P1'
_symmetry_Int_Tables_number	1
_symmetry_cell_setting	triclinic
loop_
_symmetry_equiv_pos_as_xyz
  x,y,z
_cell_length_a	17.038272
_cell_length_b	15.500227
_cell_length_c	17.699083
_cell_angle_alpha	87.178547
_cell_angle_beta	87.197286
_cell_angle_gamma	93.043705
loop_
_atom_site_label
_atom_site_type_symbol
_atom_site_fract_x
_atom_site_fract_y
_atom_site_fract_z
O1	O	1.040737	0.071839	0.161061
O2	O	1.540737	0.571839	0.661061
O3	O	0.813112	0.071864	0.158450
O4	O	1.313112	0.571864	0.658450
O5	O	0.933355	0.071843	0.049992
O6	O	1.433355	0.571843	0.549992
O7	O	0.920494	0.071860	0.269519
O8	O	1.420494	0.571860	0.769519
O9	O	0.926058	-0.072044	0.056546
O10	O	1.426058	0.427956	0.556546
O11	O	0.805815	-0.072023	0.165004
O12	O	1.305815	0.427977	0.665004
O13	O	1.033440	-0.072049	0.167615
O14	O	1.533440	0.427951	0.667615
Cu15	Cu	0.918962	-0.085174	0.166908
Cu16	Cu	1.418962	0.414826	0.666908
Cu17	Cu	0.927591	0.084989	0.159157
Cu18	Cu	1.427591	0.584989	0.659157
O19	O	0.913197	-0.072028	0.276073
O20	O	1.413197	0.427972	0.776073
C21	C	0.780339	-0.000076	0.159354
C22	C	1.280339	0.499924	0.659354
C23	C	0.693558	-0.000067	0.152273
C24	C	1.193558	0.499933	0.652273
N25	N	0.912898	-0.204858	0.172359
N26	N	1.412898	0.295142	0.672359
C27	C	0.643338	-0.000063	0.217283
C28	C	1.143338	0.499937	0.717283
C29	C	0.561798	-0.000075	0.210626
C30	C	1.061798	0.499925	0.710626
C31	C	0.530480	-0.000086	0.138957
C32	C	1.030480	0.499914	0.638957
C33	C	0.580706	-0.000093	0.073943
C34	C	1.080706	0.499907	0.573943
C35	C	0.662244	-0.000086	0.080601
C36	C	1.162244	0.499914	0.580601
C37	C	0.284759	-0.000111	0.115436
C38	C	0.784759	0.499889	0.615436
C39	C	0.203214	-0.000114	0.108782
C40	C	0.703214	0.499886	0.608782
C41	C	0.184312	-0.000099	0.245466
C42	C	0.684312	0.499901	0.745466
C43	C	0.265853	-0.000087	0.252118
C44	C	0.765853	0.499913	0.752118
C45	C	0.316072	-0.000099	0.187103
C46	C	0.816072	0.499901	0.687103
C47	C	0.447133	-0.000096	0.132151
C48	C	0.947133	0.499904	0.632151
C49	C	0.399417	-0.000095	0.193910
C50	C	0.899417	0.499905	0.693910
C51	C	0.963867	-0.250144	0.126421
C52	C	1.463867	0.249856	0.626421
C53	C	0.959288	-0.340716	0.130551
C54	C	1.459288	0.159284	0.630551
C55	C	0.903744	-0.386000	0.180624
C56	C	1.403744	0.114000	0.680624
C57	C	0.852770	-0.340709	0.226564
C58	C	1.352770	0.159291	0.726564
C59	C	0.857345	-0.250138	0.222430
C60	C	1.357345	0.249862	0.722430
C61	C	0.887261	-0.659464	0.195506
C62	C	1.387261	-0.159464	0.695506
C63	C	0.882691	-0.750041	0.199639
C64	C	1.382691	-0.250041	0.699639
C65	C	0.989210	-0.750042	0.103624
C66	C	1.489210	-0.250042	0.603624
C67	C	0.993783	-0.659470	0.099497
C68	C	1.493783	-0.159470	0.599497
C69	C	0.942806	-0.614186	0.145435
C70	C	1.442806	-0.114186	0.645435
C71	C	0.899064	-0.478580	0.184849
C72	C	1.399064	0.021420	0.684849
C73	C	0.947483	-0.521608	0.141206
C74	C	1.447483	-0.021608	0.641206
C75	C	1.066213	-0.000106	0.166711
C76	C	1.566213	0.499894	0.666711
C77	C	1.152994	-0.000110	0.173792
C78	C	1.652994	0.499890	0.673792
C79	C	0.929246	-0.000101	0.025042
C80	C	1.429246	0.499899	0.525042
C81	C	0.927863	-0.000101	-0.059068
C82	C	1.427863	0.499899	0.440932
N83	N	0.933660	0.204673	0.153700
N84	N	1.433660	0.704673	0.653700
C85	C	0.998444	-0.000110	-0.103018
C86	C	1.498444	0.499890	0.396982
C87	C	0.997140	-0.000102	-0.182048
C88	C	1.497140	0.499898	0.317952
C89	C	0.925255	-0.000092	-0.217126
C90	C	1.425255	0.499908	0.282874
C91	C	0.854670	-0.000080	-0.173170
C92	C	1.354670	0.499920	0.326830
C93	C	0.855974	-0.000081	-0.094142
C94	C	1.355974	0.499919	0.405858
C95	C	0.849407	-0.000072	-0.491881
C96	C	1.349407	0.499928	0.008119
C97	C	0.848108	-0.000073	-0.570915
C98	C	1.348108	0.499927	-0.070915
C99	C	0.990573	-0.000093	-0.579788
C100	C	1.490573	0.499907	-0.079788
C101	C	0.991878	-0.000095	-0.500759
C102	C	1.491878	0.499905	-0.000759
C103	C	0.921293	-0.000078	-0.456811
C104	C	1.421293	0.499922	0.043189
C105	C	0.922707	-0.000085	-0.371118
C106	C	1.422707	0.499915	0.128882
C107	C	0.923840	-0.000091	-0.302817
C108	C	1.423840	0.499909	0.197183
C109	C	0.917306	-0.000082	0.301023
C110	C	1.417306	0.499918	0.801023
C111	C	0.918689	-0.000076	0.385133
C112	C	1.418689	0.499924	0.885133
H113	H	0.668831	-0.000054	0.275643
H114	H	1.168831	0.499946	0.775643
F115	F	1.013534	-0.388912	0.081658
F116	F	1.513534	0.111088	0.581658
F117	F	1.052900	-0.611276	0.046206
F118	F	1.552900	-0.111276	0.546206
F119	F	1.043457	-0.798242	0.054736
F120	F	1.543457	-0.298242	0.554736
H121	H	0.421623	-0.000129	0.073799
H122	H	0.921623	0.499871	0.573799
H123	H	0.520912	-0.000071	0.263564
H124	H	1.020912	0.499929	0.763564
H125	H	0.291347	-0.000069	0.310477
H126	H	0.791347	0.499931	0.810477
F127	F	1.022989	-0.201957	0.073130
F128	F	1.522989	0.298043	0.573130
F129	F	1.072262	-0.000114	-0.228820
F130	F	1.572262	0.499886	0.271180
F131	F	0.839952	-0.526780	0.238141
F132	F	1.339952	-0.026780	0.738141
H133	H	0.815840	-0.213267	0.259836
H134	H	1.315840	0.286733	0.759836
H135	H	1.050413	-0.000108	-0.472203
H136	H	1.550413	0.499892	0.027797
F137	F	0.823571	-0.798231	0.252938
F138	F	1.323571	-0.298231	0.752938
H139	H	1.056980	-0.000124	-0.074463
H140	H	1.556980	0.499876	0.425537
H141	H	0.177718	-0.000122	0.050418
H142	H	0.677718	0.499878	0.550418
H143	H	1.048047	-0.000102	-0.615581
H144	H	1.548047	0.499898	-0.115581
H145	H	0.789567	-0.000066	-0.599473
H146	H	1.289567	0.499934	-0.099473
H147	H	0.325638	-0.000121	0.062496
H148	H	0.825638	0.499879	0.562496
F149	F	0.833011	-0.611277	0.244397
F150	F	1.333011	-0.111277	0.744397
F151	F	0.793651	-0.388905	0.279852
F152	F	1.293651	0.111095	0.779852
F153	F	1.006592	-0.473412	0.087913
F154	F	1.506592	0.026588	0.587913
F155	F	0.774284	-0.000053	-0.445118
F156	F	1.274284	0.499947	0.054882
H157	H	0.143415	-0.000091	0.298397
H158	H	0.643415	0.499909	0.798397
F159	F	0.778164	-0.000059	-0.210505
F160	F	1.278164	0.499941	0.289495
H161	H	0.555199	-0.000114	0.015589
H162	H	1.055199	0.499886	0.515589
F163	F	0.780853	-0.000069	-0.047367
F164	F	1.280853	0.499931	0.452633
H165	H	0.424920	-0.000091	0.252263
H166	H	0.924920	0.499909	0.752263
F167	F	0.715692	-0.000094	0.011408
F168	F	1.215692	0.499906	0.511408
