data_functionalizedCrystal
_audit_creation_method	'MofGen! by Chris Wilmer'
_symmetry_space_group_name_H-M	'P1'
_symmetry_Int_Tables_number	1
_symmetry_cell_setting	triclinic
loop_
_symmetry_equiv_pos_as_xyz
  x,y,z
_cell_length_a	15.944545
_cell_length_b	15.944493
_cell_length_c	13.596369
_cell_angle_alpha	89.999885
_cell_angle_beta	89.997458
_cell_angle_gamma	83.485608
loop_
_atom_site_label
_atom_site_type_symbol
_atom_site_fract_x
_atom_site_fract_y
_atom_site_fract_z
O1	O	1.114506	0.108311	-0.081715
O2	O	1.364506	0.358311	0.168285
O3	O	1.614506	0.608311	0.418285
O4	O	1.864506	0.858311	0.668285
O5	O	0.869953	0.121673	-0.081729
O6	O	1.119953	0.371673	0.168271
O7	O	1.369953	0.621673	0.418271
O8	O	1.619953	0.871673	0.668271
O9	O	0.998933	-0.007286	-0.081730
O10	O	1.248933	0.242714	0.168270
O11	O	1.498933	0.492714	0.418270
O12	O	1.748933	0.742714	0.668270
O13	O	0.985526	0.237271	-0.081714
O14	O	1.235526	0.487271	0.168286
O15	O	1.485526	0.737271	0.418286
O16	O	1.735526	0.987271	0.668286
O17	O	0.998920	-0.007293	0.081853
O18	O	1.248920	0.242707	0.331853
O19	O	1.498920	0.492707	0.581853
O20	O	1.748920	0.742707	0.831853
O21	O	0.869940	0.121667	0.081854
O22	O	1.119940	0.371667	0.331854
O23	O	1.369940	0.621667	0.581854
O24	O	1.619940	0.871667	0.831854
O25	O	1.114493	0.108304	0.081868
O26	O	1.364493	0.358304	0.331868
O27	O	1.614493	0.608304	0.581868
O28	O	1.864493	0.858304	0.831868
Zn29	Zn	0.992214	0.114984	0.107833
Zn30	Zn	1.242214	0.364984	0.357833
Zn31	Zn	1.492214	0.614984	0.607833
Zn32	Zn	1.742214	0.864984	0.857833
Zn33	Zn	0.992231	0.114993	-0.107694
Zn34	Zn	1.242231	0.364993	0.142306
Zn35	Zn	1.492231	0.614993	0.392306
Zn36	Zn	1.742231	0.864993	0.642306
O37	O	0.985513	0.237264	0.081869
O38	O	1.235513	0.487264	0.331869
O39	O	1.485513	0.737264	0.581869
O40	O	1.735513	0.987264	0.831869
C41	C	0.838652	0.121116	0.000060
C42	C	1.088652	0.371116	0.250060
C43	C	1.338652	0.621116	0.500060
C44	C	1.588652	0.871116	0.750060
C45	C	0.745406	0.119456	0.000054
C46	C	0.995406	0.369456	0.250054
C47	C	1.245406	0.619456	0.500054
C48	C	1.495406	0.869456	0.750054
C49	C	0.474791	0.034560	0.000059
C50	C	0.724791	0.284560	0.250059
C51	C	0.974791	0.534560	0.500059
C52	C	1.224791	0.784560	0.750059
C53	C	0.525358	0.075487	0.080719
C54	C	0.775358	0.325487	0.330719
C55	C	1.025358	0.575487	0.580719
C56	C	1.275358	0.825487	0.830719
C57	C	0.409764	0.113535	0.000071
C58	C	0.659764	0.363535	0.250071
C59	C	0.909764	0.613535	0.500071
C60	C	1.159764	0.863535	0.750071
C61	C	0.525351	0.075515	-0.080561
C62	C	0.775351	0.325515	0.169439
C63	C	1.025351	0.575515	0.419439
C64	C	1.275351	0.825515	0.669439
C65	C	0.574677	0.116440	0.000061
C66	C	0.824677	0.366440	0.250061
C67	C	1.074677	0.616440	0.500061
C68	C	1.324677	0.866440	0.750061
C69	C	0.459102	0.154441	0.080797
C70	C	0.709102	0.404441	0.330797
C71	C	0.959102	0.654441	0.580797
C72	C	1.209102	0.904441	0.830797
C73	C	0.459092	0.154457	-0.080555
C74	C	0.709092	0.404457	0.169445
C75	C	0.959092	0.654457	0.419445
C76	C	1.209092	0.904457	0.669445
C77	C	0.509626	0.195442	0.000124
C78	C	0.759626	0.445442	0.250124
C79	C	1.009626	0.695442	0.500124
C80	C	1.259626	0.945442	0.750124
C81	C	0.314762	0.111859	0.000077
C82	C	0.564762	0.361859	0.250077
C83	C	0.814762	0.611859	0.500077
C84	C	1.064762	0.861859	0.750077
C85	C	0.669676	0.118122	0.000062
C86	C	0.919676	0.368122	0.250062
C87	C	1.169676	0.618122	0.500062
C88	C	1.419676	0.868122	0.750062
C89	C	0.998378	-0.038584	0.000058
C90	C	1.248378	0.211416	0.250058
C91	C	1.498378	0.461416	0.500058
C92	C	1.748378	0.711416	0.750058
C93	C	0.996735	-0.131833	0.000045
C94	C	1.246735	0.118167	0.250045
C95	C	1.496735	0.368167	0.500045
C96	C	1.746735	0.618167	0.750045
C97	C	1.072656	-0.367594	0.000068
C98	C	1.322656	-0.117594	0.250068
C99	C	1.572656	0.132406	0.500068
C100	C	1.822656	0.382406	0.750068
C101	C	1.031721	-0.418158	-0.080589
C102	C	1.281721	-0.168158	0.169411
C103	C	1.531721	0.081842	0.419411
C104	C	1.781721	0.331842	0.669411
C105	C	0.993691	-0.302554	0.000057
C106	C	1.243691	-0.052554	0.250057
C107	C	1.493691	0.197446	0.500057
C108	C	1.743691	0.447446	0.750057
C109	C	1.031690	-0.418141	0.080691
C110	C	1.281690	-0.168141	0.330691
C111	C	1.531690	0.081859	0.580691
C112	C	1.781690	0.331859	0.830691
C113	C	0.990757	-0.467463	0.000073
C114	C	1.240757	-0.217463	0.250073
C115	C	1.490757	0.032537	0.500073
C116	C	1.740757	0.282537	0.750073
C117	C	0.952778	-0.351889	-0.080667
C118	C	1.202778	-0.101889	0.169333
C119	C	1.452778	0.148111	0.419333
C120	C	1.702778	0.398111	0.669333
C121	C	0.952758	-0.351869	0.080686
C122	C	1.202758	-0.101869	0.330686
C123	C	1.452758	0.148131	0.580686
C124	C	1.702758	0.398131	0.830686
C125	C	0.911766	-0.402400	0.000009
C126	C	1.161766	-0.152400	0.250009
C127	C	1.411766	0.097600	0.500009
C128	C	1.661766	0.347600	0.750009
C129	C	0.995384	-0.207554	0.000047
C130	C	1.245384	0.042446	0.250047
C131	C	1.495384	0.292446	0.500047
C132	C	1.745384	0.542446	0.750047
C133	C	0.989058	-0.562460	0.000075
C134	C	1.239058	-0.312460	0.250075
C135	C	1.489058	-0.062460	0.500075
C136	C	1.739058	0.187540	0.750075
C137	C	1.145793	0.108862	0.000077
C138	C	1.395793	0.358862	0.250077
C139	C	1.645793	0.608862	0.500077
C140	C	1.895793	0.858862	0.750077
C141	C	1.239039	0.110522	0.000076
C142	C	1.489039	0.360522	0.250076
C143	C	1.739039	0.610522	0.500076
C144	C	1.989039	0.860522	0.750076
C145	C	0.986067	0.268562	0.000079
C146	C	1.236067	0.518562	0.250079
C147	C	1.486067	0.768562	0.500079
C148	C	1.736067	1.018562	0.750079
C149	C	0.987710	0.361811	0.000086
C150	C	1.237710	0.611811	0.250086
C151	C	1.487710	0.861811	0.500086
C152	C	1.737710	1.111811	0.750086
N153	N	0.992209	0.114978	0.254925
N154	N	1.242209	0.364978	0.504925
N155	N	1.492209	0.614978	0.754925
N156	N	1.742209	0.864978	1.004925
N157	N	0.992243	0.114993	-0.254786
N158	N	1.242243	0.364993	-0.004786
N159	N	1.492243	0.614993	0.245214
N160	N	1.742243	0.864993	0.495214
C161	C	0.992230	0.114994	0.656216
C162	C	1.242230	0.364994	0.906216
C163	C	1.492230	0.614994	1.156216
C164	C	1.742230	0.864994	1.406216
C165	C	0.992222	0.114993	0.544565
C166	C	1.242222	0.364993	0.794565
C167	C	1.492222	0.614993	1.044565
C168	C	1.742222	0.864993	1.294565
C169	C	0.992220	0.114987	0.455574
C170	C	1.242220	0.364987	0.705574
C171	C	1.492220	0.614987	0.955574
C172	C	1.742220	0.864987	1.205574
C173	C	0.992211	0.114984	0.343916
C174	C	1.242211	0.364984	0.593916
C175	C	1.492211	0.614984	0.843916
C176	C	1.742211	0.864984	1.093916
H177	H	0.430144	0.187784	-0.148745
H178	H	0.680144	0.437784	0.101255
H179	H	0.930144	0.687784	0.351255
H180	H	1.180144	0.937784	0.601255
H181	H	0.843695	-0.417864	-0.000039
H182	H	1.093695	-0.167864	0.249961
H183	H	1.343695	0.082136	0.499961
H184	H	1.593695	0.332136	0.749961
N185	N	0.420933	0.198572	0.171231
N186	N	0.670933	0.448572	0.421231
N187	N	0.920933	0.698572	0.671231
N188	N	1.170933	0.948572	0.921231
H189	H	0.467051	0.219696	0.212162
H190	H	0.717051	0.469696	0.462162
H191	H	0.967051	0.719696	0.712162
H192	H	1.217051	0.969696	0.962162
H193	H	0.379159	0.247845	0.150706
H194	H	0.629159	0.497845	0.400706
H195	H	0.879159	0.747845	0.650706
H196	H	1.129159	0.997845	0.900706
N197	N	0.530121	0.285605	0.000174
N198	N	0.780121	0.535605	0.250174
N199	N	1.030121	0.785605	0.500174
N200	N	1.280121	1.035605	0.750174
H201	H	0.505775	0.315322	0.061120
H202	H	0.755775	0.565322	0.311120
H203	H	1.005775	0.815322	0.561120
H204	H	1.255775	1.065322	0.811120
H205	H	0.593394	0.286174	-0.000444
H206	H	0.843394	0.536174	0.249556
H207	H	1.093394	0.786174	0.499556
H208	H	1.343394	1.036174	0.749556
H209	H	1.065075	-0.447102	-0.148775
H210	H	1.315075	-0.197102	0.101225
H211	H	1.565075	0.052898	0.351225
H212	H	1.815075	0.302898	0.601225
H213	H	0.554281	0.042151	-0.148748
H214	H	0.804281	0.292151	0.101252
H215	H	1.054281	0.542151	0.351252
H216	H	1.304281	0.792151	0.601252
H217	H	1.065049	-0.447076	0.148876
H218	H	1.315049	-0.197076	0.398876
H219	H	1.565049	0.052924	0.648876
H220	H	1.815049	0.302924	0.898876
H221	H	0.554290	0.042130	0.148906
H222	H	0.804290	0.292130	0.398906
H223	H	1.054290	0.542130	0.648906
H224	H	1.304290	0.792130	0.898906
N225	N	1.162752	-0.346893	-0.000021
N226	N	1.412752	-0.096893	0.249979
N227	N	1.662752	0.153107	0.499979
N228	N	1.912752	0.403107	0.749979
H229	H	1.192487	-0.371142	-0.061003
H230	H	1.442487	-0.121142	0.188997
H231	H	1.692487	0.128858	0.438997
H232	H	1.942487	0.378858	0.688997
H233	H	1.163178	-0.283603	0.000640
H234	H	1.413178	-0.033603	0.250640
H235	H	1.663178	0.216397	0.500640
H236	H	1.913178	0.466397	0.750640
H237	H	0.919454	-0.323066	-0.148928
H238	H	1.169454	-0.073066	0.101072
H239	H	1.419454	0.176934	0.351072
H240	H	1.669454	0.426934	0.601072
H241	H	0.919434	-0.322910	0.148874
H242	H	1.169434	-0.072910	0.398874
H243	H	1.419434	0.177090	0.648874
H244	H	1.669434	0.427090	0.898874
H245	H	0.459152	-0.033454	0.000133
H246	H	0.709152	0.216546	0.250133
H247	H	0.959152	0.466546	0.500133
H248	H	1.209152	0.716546	0.750133
