data_functionalizedCrystal
_audit_creation_method	'MofGen! by Chris Wilmer'
_symmetry_space_group_name_H-M	'P1'
_symmetry_Int_Tables_number	1
_symmetry_cell_setting	triclinic
loop_
_symmetry_equiv_pos_as_xyz
  x,y,z
_cell_length_a	15.944551
_cell_length_b	16.109301
_cell_length_c	15.186229
_cell_angle_alpha	90.005167
_cell_angle_beta	90.001133
_cell_angle_gamma	96.519890
loop_
_atom_site_label
_atom_site_type_symbol
_atom_site_fract_x
_atom_site_fract_y
_atom_site_fract_z
O1	O	1.114487	-0.107227	-0.073140
O2	O	1.614487	0.392773	0.426860
O3	O	0.869933	-0.120447	-0.073162
O4	O	1.369933	0.379553	0.426838
O5	O	0.998929	0.007192	-0.073141
O6	O	1.498929	0.507192	0.426859
O7	O	0.985492	-0.234866	-0.073160
O8	O	1.485492	0.265134	0.426840
O9	O	0.998920	0.007194	0.073316
O10	O	1.498920	0.507194	0.573316
O11	O	0.869925	-0.120445	0.073295
O12	O	1.369925	0.379555	0.573295
O13	O	1.114479	-0.107225	0.073318
O14	O	1.614479	0.392775	0.573318
Zn15	Zn	0.992200	-0.113835	0.096560
Zn16	Zn	1.492200	0.386165	0.596560
Zn17	Zn	0.992212	-0.113837	-0.096404
Zn18	Zn	1.492212	0.386163	0.403596
O19	O	0.985484	-0.234864	0.073297
O20	O	1.485484	0.265136	0.573297
C21	C	0.838635	-0.119897	0.000064
C22	C	1.338635	0.380103	0.500064
C23	C	0.745390	-0.118252	0.000056
C24	C	1.245390	0.381748	0.500056
C25	C	0.998380	0.038168	0.000088
C26	C	1.498380	0.538168	0.500088
C27	C	0.996748	0.130464	0.000089
C28	C	1.496748	0.630464	0.500089
C29	C	0.986032	-0.265840	0.000066
C30	C	1.486032	0.234160	0.500066
C31	C	0.987664	-0.358136	0.000059
C32	C	1.487664	0.141864	0.500059
C33	C	0.530561	-0.035203	0.000079
C34	C	1.030561	0.464797	0.500079
C35	C	0.469532	-0.073769	-0.072135
C36	C	0.969532	0.426231	0.427865
C37	C	0.574665	-0.115275	0.000066
C38	C	1.074665	0.384725	0.500066
C39	C	0.469546	-0.073786	0.072261
C40	C	0.969546	0.426214	0.572261
C41	C	0.409753	-0.112394	0.000081
C42	C	0.909753	0.387606	0.500081
C43	C	0.514865	-0.153864	-0.072207
C44	C	1.014865	0.346136	0.427793
C45	C	0.514885	-0.153870	0.072253
C46	C	1.014885	0.346130	0.572253
C47	C	0.453874	-0.192494	0.000021
C48	C	0.953874	0.307506	0.500021
C49	C	0.669667	-0.116933	0.000058
C50	C	1.169667	0.383067	0.500058
C51	C	0.314753	-0.110743	0.000083
C52	C	0.814753	0.389257	0.500083
C53	C	1.145777	-0.107775	0.000090
C54	C	1.645777	0.392225	0.500090
C55	C	1.239022	-0.109420	0.000092
C56	C	1.739022	0.390580	0.500092
N57	N	0.992199	-0.113833	0.228252
N58	N	1.492199	0.386167	0.728252
C59	C	1.069497	0.352712	0.000082
C60	C	1.569497	0.852712	0.500082
C61	C	1.067958	0.439433	0.000074
C62	C	1.567958	0.939433	0.500074
C63	C	0.914909	0.419608	0.000064
C64	C	1.414909	0.919608	0.500064
C65	C	0.916450	0.332889	0.000065
C66	C	1.416450	0.832889	0.500065
C67	C	0.993746	0.299444	0.000078
C68	C	1.493746	0.799444	0.500078
C69	C	0.990666	0.472884	0.000070
C70	C	1.490666	0.972884	0.500070
C71	C	0.988996	0.566910	0.000062
C72	C	1.488996	1.066910	0.500062
C73	C	0.995417	0.205411	0.000085
C74	C	1.495417	0.705411	0.500085
N75	N	0.992220	-0.113833	-0.228097
N76	N	1.492220	0.386167	0.271903
C77	C	1.049337	-0.057333	0.453984
C78	C	1.549337	0.442667	0.953984
C79	C	1.049340	-0.057331	0.546174
C80	C	1.549340	0.442669	1.046174
C81	C	0.935075	-0.170335	0.546165
C82	C	1.435075	0.329665	1.046165
C83	C	0.935070	-0.170332	0.453977
C84	C	1.435070	0.329668	0.953977
C85	C	0.992205	-0.113833	0.407889
C86	C	1.492205	0.386167	0.907889
C87	C	0.992214	-0.113833	0.592267
C88	C	1.492214	0.386167	1.092267
C89	C	0.992216	-0.113832	0.692223
C90	C	1.492216	0.386168	1.192223
C91	C	0.992202	-0.113833	0.307927
C92	C	1.492202	0.386167	0.807927
H93	H	0.563915	0.031251	-0.000005
H94	H	1.063915	0.531251	0.499995
H95	H	1.095861	-0.011324	0.583703
H96	H	1.595861	0.488676	1.083703
H97	H	1.095859	-0.011327	0.416462
H98	H	1.595859	0.488673	0.916462
H99	H	1.129642	0.482802	0.000075
H100	H	1.629642	0.982802	0.500075
H101	H	0.854760	0.289515	0.000060
H102	H	1.354760	0.789515	0.500060
H103	H	0.888558	-0.216337	0.583699
H104	H	1.388558	0.283663	1.083699
H105	H	0.888542	-0.216341	0.416443
H106	H	1.388542	0.283659	0.916443
H107	H	0.535001	-0.187708	0.133303
H108	H	1.035001	0.312292	0.633303
H109	H	0.851977	0.446851	0.000055
H110	H	1.351977	0.946851	0.500055
H111	H	1.132437	0.325484	0.000091
H112	H	1.632437	0.825484	0.500091
H113	H	0.449437	-0.039902	-0.133182
H114	H	0.949437	0.460098	0.366818
H115	H	0.534845	-0.187707	-0.133325
H116	H	1.034845	0.312293	0.366675
H117	H	0.449467	-0.039903	0.133310
H118	H	0.949467	0.460097	0.633310
H119	H	0.420693	-0.259016	-0.000025
H120	H	0.920693	0.240984	0.499975
