data_functionalizedCrystal
_audit_creation_method	'MofGen! by Chris Wilmer'
_symmetry_space_group_name_H-M	'P1'
_symmetry_Int_Tables_number	1
_symmetry_cell_setting	triclinic
loop_
_symmetry_equiv_pos_as_xyz
  x,y,z
_cell_length_a	12.837943
_cell_length_b	14.853559
_cell_length_c	11.892095
_cell_angle_alpha	93.896703
_cell_angle_beta	85.689438
_cell_angle_gamma	89.230197
loop_
_atom_site_label
_atom_site_type_symbol
_atom_site_fract_x
_atom_site_fract_y
_atom_site_fract_z
O1	O	1.382402	0.229204	-0.093972
O2	O	1.080580	0.217625	-0.093980
O3	O	1.239558	0.092869	-0.093975
O4	O	1.223424	0.353961	-0.093977
O5	O	1.226302	0.103253	0.094032
O6	O	1.067325	0.228009	0.094027
O7	O	1.369146	0.239588	0.094035
Zn8	Zn	1.216131	0.235448	0.123881
Zn9	Zn	1.233596	0.221766	-0.123826
O10	O	1.210169	0.364345	0.094030
C11	C	1.035327	0.218906	0.000023
C12	C	0.920233	0.207239	0.000020
C13	C	0.679471	0.347487	0.000035
C14	C	0.571330	0.336530	0.000033
C15	C	0.595807	0.174369	0.000022
C16	C	0.703949	0.185326	0.000024
C17	C	0.745776	0.271888	0.000029
C18	C	0.853920	0.282844	0.000023
C19	C	0.878395	0.120684	0.000020
C20	C	0.770254	0.109727	0.000018
C21	C	1.232201	0.064410	0.000027
C22	C	1.230015	-0.035860	0.000020
C23	C	1.227968	-0.465482	-0.102463
C24	C	1.213516	-0.454155	0.102510
C25	C	1.215578	-0.359947	0.102511
C26	C	1.223834	-0.318502	0.000024
C27	C	1.230027	-0.371265	-0.102465
C28	C	1.209375	-0.307177	0.204997
C29	C	1.211436	-0.212962	0.205003
C30	C	1.219699	-0.171516	0.102514
C31	C	1.225893	-0.224285	0.000021
C32	C	1.234149	-0.182840	-0.102466
C33	C	1.240351	-0.235608	-0.204960
C34	C	1.238290	-0.329818	-0.204953
C35	C	1.221760	-0.077305	0.102508
C36	C	1.236209	-0.088623	-0.102468
C37	C	1.414400	0.238308	0.000030
C38	C	1.529494	0.249974	0.000025
C39	C	1.217526	0.392803	0.000026
C40	C	1.219712	0.493073	0.000025
N41	N	1.204220	0.244785	0.292935
N42	N	1.245515	0.212422	-0.292880
C43	C	1.328400	0.147396	0.529587
C44	C	1.320082	0.153930	0.647928
C45	C	1.179260	0.264382	0.647962
C46	C	1.187579	0.257848	0.529620
C47	C	1.262152	0.199354	0.470437
C48	C	1.270475	0.192825	0.352093
C49	C	1.129649	0.303272	0.352129
C50	C	1.121331	0.309806	0.470470
H51	H	0.517347	0.398091	0.000041
H52	H	0.561725	0.103900	0.000112
H53	H	1.243339	-0.372790	-0.288398
O54	O	1.215078	-0.020396	0.213043
H55	H	1.145063	0.024769	0.217948
H56	H	1.247065	-0.201850	-0.288405
H57	H	1.242936	-0.054886	-0.185927
H58	H	1.233021	-0.508450	-0.185911
O59	O	0.949915	0.039141	0.000021
H60	H	0.902658	-0.022888	0.000011
O61	O	1.204632	-0.498850	0.213047
H62	H	1.204253	-0.573227	0.195830
H63	H	1.389127	0.099775	0.481399
O64	O	1.040913	0.372900	0.534314
H65	H	0.996244	0.407932	0.473298
H66	H	1.331199	0.145200	0.303907
H67	H	0.736181	0.039252	0.000028
O68	O	1.200497	-0.351874	0.315533
H69	H	1.200130	-0.426251	0.298313
O70	O	1.204769	-0.156051	0.315541
H71	H	1.198694	-0.200699	0.386805
H72	H	1.374026	0.111620	0.696085
H73	H	1.075708	0.345582	0.303956
O74	O	0.899041	0.376202	0.000042
H75	H	0.834761	0.426930	0.000062
O76	O	0.724597	0.440843	0.000041
H77	H	0.660321	0.491573	0.000050
O78	O	1.098832	0.327468	0.711803
H79	H	1.104184	0.323282	0.804029
