data_functionalizedCrystal
_audit_creation_method	'MofGen! by Chris Wilmer'
_symmetry_space_group_name_H-M	'P1'
_symmetry_Int_Tables_number	1
_symmetry_cell_setting	triclinic
loop_
_symmetry_equiv_pos_as_xyz
  x,y,z
_cell_length_a	16.109301
_cell_length_b	14.519731
_cell_length_c	15.186229
_cell_angle_alpha	89.995270
_cell_angle_beta	89.999362
_cell_angle_gamma	83.575167
loop_
_atom_site_label
_atom_site_type_symbol
_atom_site_fract_x
_atom_site_fract_y
_atom_site_fract_z
O1	O	1.103344	0.118539	-0.073175
O2	O	0.861309	0.133291	-0.073189
O3	O	0.988734	-0.008336	-0.073174
O4	O	0.975918	0.260165	-0.073190
O5	O	0.988726	-0.008338	0.073284
O6	O	0.861300	0.133289	0.073268
O7	O	1.103335	0.118537	0.073282
Zn8	Zn	0.982316	0.125912	0.096529
Zn9	Zn	0.982328	0.125915	-0.096435
O10	O	0.975910	0.260163	0.073267
C11	C	0.830328	0.132692	0.000038
C12	C	0.738030	0.130901	0.000033
C13	C	0.988129	-0.042695	0.000055
C14	C	0.986330	-0.145072	0.000056
C15	C	0.515901	0.210773	0.000038
C16	C	0.429178	0.209083	0.000044
C17	C	0.448750	0.041048	0.000050
C18	C	0.535471	0.042739	0.000051
C19	C	0.569045	0.127605	0.000040
C20	C	0.395599	0.124223	0.000045
C21	C	0.301570	0.122389	0.000052
C22	C	0.663080	0.129439	0.000036
C23	C	0.984868	-0.228213	0.000054
C24	C	0.983041	-0.332518	0.000047
C25	C	0.981591	-0.415654	0.000041
C26	C	0.979764	-0.519965	0.000036
C27	C	1.134316	0.119135	0.000054
C28	C	1.226614	0.120927	0.000053
C29	C	0.976515	0.294523	0.000036
C30	C	0.978314	0.396899	0.000030
N31	N	0.982315	0.125910	0.228221
N32	N	0.982336	0.125910	-0.228128
C33	C	1.038758	0.063219	0.453951
C34	C	1.038761	0.063217	0.546141
C35	C	0.925886	0.188604	0.546136
C36	C	0.925880	0.188601	0.453948
C37	C	0.982321	0.125910	0.407858
C38	C	0.982330	0.125910	0.592235
C39	C	0.982332	0.125908	0.692192
C40	C	0.982318	0.125910	0.307895
H41	H	0.543233	0.279876	0.000036
H42	H	0.578743	-0.024991	0.000055
H43	H	1.084714	0.012170	0.416427
N44	N	0.868229	0.252640	0.593206
N45	N	0.791383	0.251347	0.582916
H46	H	0.750660	0.296574	0.616158
H47	H	1.084716	0.012167	0.583667
N48	N	0.868217	0.252642	0.406872
N49	N	0.817831	0.308615	0.448032
H50	H	0.777105	0.353840	0.414786
H51	H	0.385911	0.276807	0.000043
N52	N	0.414467	-0.045644	0.000062
N53	N	0.430704	-0.101713	0.061800
H54	H	0.406494	-0.162942	0.061807
