data_functionalizedCrystal
_audit_creation_method	'MofGen! by Chris Wilmer'
_symmetry_space_group_name_H-M	'P1'
_symmetry_Int_Tables_number	1
_symmetry_cell_setting	triclinic
loop_
_symmetry_equiv_pos_as_xyz
  x,y,z
_cell_length_a	15.297475
_cell_length_b	25.639239
_cell_length_c	25.639233
_cell_angle_alpha	89.981253
_cell_angle_beta	80.323634
_cell_angle_gamma	80.340538
loop_
_atom_site_label
_atom_site_type_symbol
_atom_site_fract_x
_atom_site_fract_y
_atom_site_fract_z
Zn1	Zn	1.378979	-0.346761	-0.433679
Zn2	Zn	1.878979	0.153239	0.066321
Zn3	Zn	1.378847	-0.434167	-0.346230
Zn4	Zn	1.878847	0.065833	0.153770
Zn5	Zn	1.228138	-0.331605	-0.331155
Zn6	Zn	1.728138	0.168395	0.168845
Zn7	Zn	1.228044	-0.419003	-0.418536
Zn8	Zn	1.728044	0.080997	0.081464
O9	O	1.303502	-0.382884	-0.382400
O10	O	1.803502	0.117116	0.117600
O11	O	1.505200	-0.371044	-0.434726
O12	O	2.005200	0.128956	0.065274
O13	O	1.358839	-0.420565	-0.271064
O14	O	1.858839	0.079435	0.228936
O15	O	1.248243	-0.260460	-0.344784
O16	O	1.748243	0.239540	0.155216
O17	O	1.505103	-0.435261	-0.370477
O18	O	2.005103	0.064739	0.129523
O19	O	1.359064	-0.271595	-0.420108
O20	O	1.859064	0.228405	0.079892
O21	O	1.248115	-0.345214	-0.259988
O22	O	1.748115	0.154786	0.240012
O23	O	1.101887	-0.330510	-0.330100
O24	O	1.601887	0.169490	0.169900
O25	O	1.248081	-0.409416	-0.493711
O26	O	1.748081	0.090584	0.006289
O27	O	1.101817	-0.394720	-0.394298
O28	O	1.601817	0.105280	0.105702
O29	O	1.358973	-0.356341	-0.504837
O30	O	1.858973	0.143659	-0.004837
O31	O	1.358747	-0.505311	-0.355793
O32	O	1.858747	-0.005311	0.144207
O33	O	1.247953	-0.494170	-0.408916
O34	O	1.747953	0.005830	0.091084
C35	C	1.069120	-0.359325	-0.358920
C36	C	1.569120	0.140675	0.141080
C37	C	0.968850	-0.349260	-0.348887
C38	C	1.468850	0.150740	0.151113
C39	C	0.686162	-0.454830	-0.454106
C40	C	1.186162	0.045170	0.045894
C41	C	0.780370	-0.464291	-0.463530
C42	C	1.280370	0.035709	0.036470
C43	C	0.827495	-0.435534	-0.434871
C44	C	1.327495	0.064466	0.065129
C45	C	0.780402	-0.397314	-0.396784
C46	C	1.280402	0.102686	0.103216
C47	C	0.686184	-0.387855	-0.387356
C48	C	1.186184	0.112145	0.112644
C49	C	0.827517	-0.368559	-0.368121
C50	C	1.327517	0.131441	0.131879
C51	C	0.780424	-0.330339	-0.330034
C52	C	1.280424	0.169661	0.169966
C53	C	0.686216	-0.320881	-0.320608
C54	C	1.186216	0.179119	0.179392
C55	C	0.639091	-0.349638	-0.349267
C56	C	1.139091	0.150362	0.150733
C57	C	0.921735	-0.378018	-0.377549
C58	C	1.421735	0.121982	0.122451
C59	C	0.921757	-0.311043	-0.310799
C60	C	1.421757	0.188957	0.189201
C61	C	0.827549	-0.301582	-0.301374
C62	C	1.327549	0.198418	0.198626
C63	C	1.303350	-0.518711	-0.382361
C64	C	1.803350	-0.018711	0.117639
C65	C	1.303368	-0.576827	-0.382370
C66	C	1.803368	-0.076827	0.117630
C67	C	1.361343	-0.943007	-0.354811
C68	C	1.861343	-0.443007	0.145189
C69	C	1.361378	-0.997615	-0.354822
C70	C	1.861378	-0.497615	0.145178
O71	O	1.410513	-1.030782	-0.331348
O72	O	1.910513	-0.530782	0.168652
N73	N	1.303660	-1.019139	-0.382451
N74	N	1.803660	-0.519139	0.117549
C75	C	1.245911	-0.986052	-0.410075
C76	C	1.745911	-0.486052	0.089925
O77	O	1.196821	-1.009375	-0.433577
O78	O	1.696821	-0.509375	0.066423
C79	C	1.245881	-0.931446	-0.410067
C80	C	1.745881	-0.431446	0.089933
C81	C	1.303596	-0.909925	-0.382432
C82	C	1.803596	-0.409925	0.117568
C83	C	1.419054	-0.921485	-0.327179
C84	C	1.919054	-0.421485	0.172821
C85	C	1.419018	-0.866881	-0.327168
C86	C	1.919018	-0.366881	0.172832
C87	C	1.361270	-0.833799	-0.354789
C88	C	1.861270	-0.333799	0.145211
C89	C	1.303559	-0.855321	-0.382421
C90	C	1.803559	-0.355321	0.117579
C91	C	1.188136	-0.898361	-0.437695
C92	C	1.688136	-0.398361	0.062305
C93	C	1.188112	-0.843752	-0.437685
C94	C	1.688112	-0.343752	0.062315
C95	C	1.245827	-0.822230	-0.410050
C96	C	1.745827	-0.322230	0.089950
C97	C	1.245776	-0.767634	-0.410031
C98	C	1.745776	-0.267634	0.089969
N99	N	1.303493	-0.746110	-0.382402
N100	N	1.803493	-0.246110	0.117598
C101	C	1.361241	-0.779192	-0.354781
C102	C	1.861241	-0.279192	0.145219
C103	C	1.245979	-1.100730	-0.410090
C104	C	1.745979	-0.600730	0.089910
C105	C	1.246003	-1.155335	-0.410095
C106	C	1.746003	-0.655335	0.089905
C107	C	1.361472	-1.166894	-0.354842
C108	C	1.861472	-0.666894	0.145158
C109	C	1.361442	-1.112287	-0.354835
C110	C	1.861442	-0.612287	0.145165
C111	C	1.303696	-1.079206	-0.382461
C112	C	1.803696	-0.579206	0.117539
C113	C	1.361159	-0.664519	-0.354759
C114	C	1.861159	-0.164519	0.145241
C115	C	1.361115	-0.609909	-0.354749
C116	C	1.861115	-0.109909	0.145251
C117	C	1.245650	-0.598356	-0.410004
C118	C	1.745650	-0.098356	0.089996
C119	C	1.245690	-0.652960	-0.410012
C120	C	1.745690	-0.152960	0.089988
C121	C	1.303452	-0.686042	-0.382389
C122	C	1.803452	-0.186042	0.117611
O123	O	1.196668	-0.734435	-0.433494
O124	O	1.696668	-0.234435	0.066506
O125	O	1.410330	-0.755864	-0.331289
O126	O	1.910330	-0.255864	0.168711
C127	C	1.538799	-0.406535	-0.405972
C128	C	2.038799	0.093465	0.094028
C129	C	1.639069	-0.416613	-0.416017
C130	C	2.139069	0.083387	0.083983
C131	C	1.303531	-0.382878	-0.518776
C132	C	1.803531	0.117122	-0.018776
C133	C	1.303543	-0.382875	-0.576891
C134	C	1.803543	0.117125	-0.076891
C135	C	1.303679	-0.246529	-0.382453
C136	C	1.803679	0.253471	0.117547
C137	C	1.303754	-0.188422	-0.382476
C138	C	1.803754	0.311578	0.117524
C139	C	1.361358	-0.355147	-0.943061
C140	C	1.861358	0.144853	-0.443061
C141	C	1.361369	-0.355133	-0.997666
C142	C	1.861369	0.144867	-0.497666
O143	O	1.410452	-0.331612	-1.030832
O144	O	1.910452	0.168388	-0.530832
N145	N	1.303643	-0.382762	-1.019184
N146	N	1.803643	0.117238	-0.519184
C147	C	1.245895	-0.410402	-0.986092
C148	C	1.745895	0.089598	-0.486092
O149	O	1.196795	-0.433902	-1.009409
O150	O	1.696795	0.066098	-0.509409
C151	C	1.245880	-0.410412	-0.931488
C152	C	1.745880	0.089588	-0.431488
C153	C	1.303617	-0.382786	-0.909974
C154	C	1.803617	0.117214	-0.409974
C155	C	1.419089	-0.327522	-0.921546
C156	C	1.919089	0.172478	-0.421546
C157	C	1.419078	-0.327536	-0.866945
C158	C	1.919078	0.172464	-0.366945
C159	C	1.361337	-0.355175	-0.833858
C160	C	1.861337	0.144825	-0.333858
C161	C	1.303606	-0.382800	-0.855372
C162	C	1.803606	0.117200	-0.355372
C163	C	1.188129	-0.438049	-0.898397
C164	C	1.688129	0.061951	-0.398397
C165	C	1.188119	-0.438056	-0.843789
C166	C	1.688119	0.061944	-0.343789
C167	C	1.245855	-0.410429	-0.822275
C168	C	1.745855	0.089571	-0.322275
C169	C	1.245855	-0.410453	-0.767683
C170	C	1.745855	0.089547	-0.267683
N171	N	1.303581	-0.382824	-0.746166
N172	N	1.803581	0.117176	-0.246166
C173	C	1.361322	-0.355185	-0.779253
C174	C	1.861322	0.144815	-0.279253
C175	C	1.245930	-0.410379	-1.100767
C176	C	1.745930	0.089621	-0.600767
C177	C	1.245949	-0.410372	-1.155371
C178	C	1.745949	0.089628	-0.655371
C179	C	1.361422	-0.355102	-1.166941
C180	C	1.861422	0.144898	-0.666941
C181	C	1.361407	-0.355112	-1.112336
C182	C	1.861407	0.144888	-0.612336
C183	C	1.303656	-0.382749	-1.079249
C184	C	1.803656	0.117251	-0.579249
C185	C	1.361297	-0.355217	-0.664585
C186	C	1.861297	0.144783	-0.164585
C187	C	1.361284	-0.355236	-0.609978
C188	C	1.861284	0.144764	-0.109978
C189	C	1.245809	-0.410504	-0.598413
C190	C	1.745809	0.089496	-0.098413
C191	C	1.245825	-0.410488	-0.653015
C192	C	1.745825	0.089512	-0.153015
C193	C	1.303572	-0.382840	-0.686100
C194	C	1.803572	0.117160	-0.186100
O195	O	1.196795	-0.433961	-0.734485
O196	O	1.696795	0.066039	-0.234485
O197	O	1.410406	-0.331684	-0.755928
O198	O	1.910406	0.168316	-0.255928
C199	C	1.303525	-0.382858	-0.246560
C200	C	1.803525	0.117142	0.253440
C201	C	1.303687	-0.382731	-0.188462
C202	C	1.803687	0.117269	0.311538
H203	H	0.789193	-0.270463	-0.270364
H204	H	1.289193	0.229537	0.229636
H205	H	0.647784	-0.478243	-0.477433
H206	H	1.147784	0.021757	0.022567
N207	N	0.972584	-0.280023	-0.279892
N208	N	1.472584	0.219977	0.220108
H209	H	0.956227	-0.241036	-0.286446
H210	H	1.456227	0.258964	0.213554
H211	H	0.956150	-0.286477	-0.240888
H212	H	1.456150	0.213523	0.259112
N213	N	0.972515	-0.419237	-0.418628
N214	N	1.472515	0.080763	0.081372
H215	H	1.011638	-0.401955	-0.446812
H216	H	1.511638	0.098045	0.053188
H217	H	1.011516	-0.447344	-0.401202
H218	H	1.511516	0.052656	0.098798
H219	H	1.198630	-0.571411	-0.432491
H220	H	1.698630	-0.071411	0.067509
N221	N	1.423702	-1.089082	-0.325033
N222	N	1.923702	-0.589082	0.174967
H223	H	1.465473	-1.070593	-0.350484
H224	H	1.965473	-0.570593	0.149516
H225	H	1.387002	-1.062800	-0.297112
H226	H	1.887002	-0.562800	0.202888
H227	H	1.408113	-0.592389	-0.332243
H228	H	1.908113	-0.092389	0.167757
H229	H	0.818706	-0.495411	-0.494539
H230	H	1.318706	0.004589	0.005461
H231	H	1.466092	-0.305038	-0.849433
H232	H	1.966092	0.194962	-0.349433
H233	H	1.408436	-0.332595	-1.193890
H234	H	1.908436	0.167405	-0.693890
N235	N	1.183566	-0.440291	-0.676225
N236	N	1.683566	0.059709	-0.176225
H237	H	1.146989	-0.457805	-0.646977
H238	H	1.646989	0.042195	-0.146977
H239	H	1.141847	-0.414809	-0.694699
H240	H	1.641847	0.085191	-0.194699
H241	H	1.408304	-0.332739	-0.592465
H242	H	1.908304	0.167261	-0.092465
H243	H	0.562379	-0.341936	-0.341597
H244	H	1.062379	0.158064	0.158403
N245	N	1.423458	-0.700195	-0.324967
N246	N	1.923458	-0.200195	0.175033
H247	H	1.460006	-0.678268	-0.307462
H248	H	1.960006	-0.178268	0.192538
H249	H	1.386782	-0.719198	-0.297081
H250	H	1.886782	-0.219198	0.202919
N251	N	1.481281	-0.843674	-0.297371
N252	N	1.981281	-0.343674	0.202629
H253	H	1.517869	-0.872924	-0.279880
H254	H	2.017869	-0.372924	0.220120
H255	H	1.522989	-0.825180	-0.322854
H256	H	2.022989	-0.325180	0.177146
H257	H	1.408317	-0.332702	-0.691517
H258	H	1.908317	0.167298	-0.191517
H259	H	1.466084	-0.948416	-0.304687
H260	H	1.966084	-0.448416	0.195313
H261	H	1.198801	-0.433009	-0.571464
H262	H	1.698801	0.066991	-0.071464
N263	N	1.183688	-0.440173	-1.178578
N264	N	1.683688	0.059827	-0.678578
H265	H	1.197648	-0.478935	-1.170470
H266	H	1.697648	0.021065	-0.670470
H267	H	1.119266	-0.425535	-1.162609
H268	H	1.619266	0.074465	-0.662609
N269	N	1.423759	-1.202581	-0.325049
N270	N	1.923759	-0.702581	0.174951
H271	H	1.415017	-1.240438	-0.329251
H272	H	1.915017	-0.740438	0.170749
H273	H	1.488172	-1.199469	-0.339670
H274	H	1.988172	-0.699469	0.160330
H275	H	1.198902	-0.432887	-1.073830
H276	H	1.698902	0.067113	-0.573830
N277	N	1.183440	-0.676177	-0.439814
N278	N	1.683440	-0.176177	0.060186
H279	H	1.141675	-0.694673	-0.414368
H280	H	1.641675	-0.194673	0.085632
H281	H	1.146910	-0.646904	-0.457307
H282	H	1.646910	-0.146904	0.042693
H283	H	0.647875	-0.289766	-0.289590
H284	H	1.147875	0.210234	0.210410
H285	H	1.198997	-1.172851	-0.432592
H286	H	1.698997	-0.672851	0.067408
N287	N	1.183684	-1.065050	-0.439884
N288	N	1.683684	-0.565050	0.060116
H289	H	1.147128	-1.086975	-0.457385
H290	H	1.647128	-0.586975	0.042615
H291	H	1.141947	-1.038236	-0.414398
H292	H	1.641947	-0.538236	0.085602
N293	N	1.481362	-0.297702	-0.957227
N294	N	1.981362	0.202298	-0.457227
H295	H	1.517923	-0.280204	-0.935304
H296	H	2.017923	0.219796	-0.435304
H297	H	1.523095	-0.323169	-0.984061
H298	H	2.023095	0.176831	-0.484061
H299	H	1.408419	-0.332615	-1.094823
H300	H	1.908419	0.167385	-0.594823
H301	H	1.141114	-0.460545	-0.915903
H302	H	1.641114	0.039455	-0.415903
H303	H	1.141081	-0.460556	-0.816850
H304	H	1.641081	0.039444	-0.316850
H305	H	1.141089	-0.816819	-0.460184
H306	H	1.641089	-0.316819	0.039816
N307	N	0.929105	-0.445737	-0.445033
N308	N	1.429105	0.054263	0.054967
H309	H	0.951787	-0.474312	-0.473509
H310	H	1.451787	0.025688	0.026491
H311	H	0.951767	-0.412143	-0.456963
H312	H	1.451767	0.087857	0.043037
H313	H	1.141134	-0.915874	-0.460195
H314	H	1.641134	-0.415874	0.039805
