data_functionalizedCrystal
_audit_creation_method	'MofGen! by Chris Wilmer'
_symmetry_space_group_name_H-M	'P1'
_symmetry_Int_Tables_number	1
_symmetry_cell_setting	triclinic
loop_
_symmetry_equiv_pos_as_xyz
  x,y,z
_cell_length_a	16.109301
_cell_length_b	10.654550
_cell_length_c	15.186229
_cell_angle_alpha	90.000111
_cell_angle_beta	90.003248
_cell_angle_gamma	83.973257
loop_
_atom_site_label
_atom_site_type_symbol
_atom_site_fract_x
_atom_site_fract_y
_atom_site_fract_z
O1	O	1.104093	0.161414	0.073180
O2	O	0.862151	0.181502	0.073192
O3	O	0.988685	-0.011357	0.073180
O4	O	0.977559	0.354272	0.073192
O5	O	0.988670	-0.011346	-0.073277
O6	O	0.862136	0.181513	-0.073265
O7	O	1.104079	0.161425	-0.073277
Zn8	Zn	0.983105	0.171470	-0.096524
Zn9	Zn	0.983125	0.171456	0.096439
O10	O	0.977545	0.354283	-0.073265
C11	C	0.831164	0.180693	-0.000035
C12	C	0.738854	0.178254	-0.000030
C13	C	0.430489	0.284717	-0.000042
C14	C	0.517223	0.287021	-0.000037
C15	C	0.535735	0.058200	-0.000033
C16	C	0.449003	0.055898	-0.000031
C17	C	0.396382	0.169160	-0.000041
C18	C	0.569848	0.173766	-0.000037
C19	C	0.663889	0.176264	-0.000031
C20	C	0.302335	0.166663	-0.000045
C21	C	0.987861	-0.058139	-0.000048
C22	C	0.985417	-0.197549	-0.000046
C23	C	1.059918	-0.278045	-0.000050
C24	C	1.057616	-0.409034	-0.000039
C25	C	0.906306	-0.379019	-0.000025
C26	C	0.908608	-0.248032	-0.000029
C27	C	1.145366	-0.606073	0.051272
C28	C	1.219871	-0.686575	0.051253
C29	C	1.287407	-0.657315	-0.000075
C30	C	1.280441	-0.547557	-0.051405
C31	C	1.205934	-0.467062	-0.051394
C32	C	1.138402	-0.496320	-0.000046
C33	C	0.820864	-0.050991	-0.051348
C34	C	0.746356	0.029506	-0.051343
C35	C	0.678814	0.000250	-0.000021
C36	C	0.685772	-0.109511	0.051297
C37	C	0.760279	-0.190008	0.051292
C38	C	0.827822	-0.160743	-0.000029
C39	C	1.135066	0.162233	-0.000048
C40	C	1.227375	0.164673	-0.000047
C41	C	0.978369	0.401065	-0.000035
C42	C	0.980813	0.540475	-0.000031
N43	N	0.983098	0.171479	-0.228217
C44	C	1.033974	0.247650	-0.453940
C45	C	1.033983	0.247641	-0.546130
C46	C	0.932260	0.095257	-0.546139
C47	C	0.932256	0.095261	-0.453951
C48	C	0.983111	0.171464	-0.407854
C49	C	0.983125	0.171452	-0.592231
C50	C	0.983134	0.171442	-0.692187
C51	C	0.983103	0.171473	-0.307891
N52	N	0.983138	0.171437	0.228132
H53	H	1.122460	-0.236946	-0.000062
H54	H	0.421234	-0.038208	-0.000027
Cl55	Cl	1.097914	0.343438	-0.395993
H56	H	1.200261	-0.377702	-0.093190
Cl57	Cl	1.097929	0.343420	-0.604063
Cl58	Cl	1.365347	-0.510787	-0.115941
H59	H	0.890854	0.033217	-0.583682
Cl60	Cl	0.560096	0.432299	-0.000035
H61	H	0.618142	0.065794	-0.000033
Cl62	Cl	0.868307	-0.000521	-0.396009
H63	H	0.740692	0.118872	-0.093140
Cl64	Cl	0.364339	0.427103	-0.000050
Cl65	Cl	0.600857	-0.146301	0.115814
H66	H	1.348071	-0.722869	-0.000088
Cl67	Cl	0.601893	-0.084178	-0.000030
Cl68	Cl	0.905779	-0.014200	-0.115868
H69	H	1.090381	-0.629899	0.093080
Cl70	Cl	0.809752	-0.442493	-0.000004
Cl71	Cl	0.769026	-0.327996	0.115807
Cl72	Cl	1.228628	-0.824550	0.115783
