data_functionalizedCrystal
_audit_creation_method	'MofGen! by Chris Wilmer'
_symmetry_space_group_name_H-M	'P1'
_symmetry_Int_Tables_number	1
_symmetry_cell_setting	triclinic
loop_
_symmetry_equiv_pos_as_xyz
  x,y,z
_cell_length_a	12.759395
_cell_length_b	12.759394
_cell_length_c	12.759387
_cell_angle_alpha	89.968877
_cell_angle_beta	89.980267
_cell_angle_gamma	90.014544
loop_
_atom_site_label
_atom_site_type_symbol
_atom_site_fract_x
_atom_site_fract_y
_atom_site_fract_z
Zn1	Zn	1.606257	-0.418180	-0.594037
Zn2	Zn	1.606156	-0.593900	-0.418360
Zn3	Zn	1.430561	-0.418238	-0.418371
Zn4	Zn	1.430550	-0.593819	-0.593996
O5	O	1.518381	-0.506034	-0.506191
O6	O	1.753265	-0.441499	-0.570745
O7	O	1.582824	-0.570657	-0.271340
O8	O	1.453914	-0.271209	-0.441695
O9	O	1.753190	-0.570600	-0.441676
O10	O	1.582998	-0.271166	-0.570756
O11	O	1.453816	-0.441598	-0.271348
O12	O	1.283538	-0.441520	-0.441656
O13	O	1.453897	-0.570462	-0.741023
O14	O	1.283531	-0.570519	-0.570687
O15	O	1.582988	-0.441421	-0.741053
O16	O	1.582814	-0.740911	-0.441637
O17	O	1.453798	-0.740851	-0.570676
C18	C	1.245414	-0.506018	-0.506169
C19	C	1.128637	-0.506036	-0.506184
C20	C	1.518323	-0.779002	-0.506174
C21	C	1.518394	-0.895779	-0.506201
C22	C	0.909244	-0.640604	-0.640367
C23	C	0.964131	-0.707866	-0.707433
C24	C	1.073853	-0.707853	-0.707420
C25	C	1.128690	-0.640573	-0.640330
C26	C	1.073803	-0.573311	-0.573264
C27	C	0.964078	-0.573329	-0.573287
C28	C	1.073750	-0.438774	-0.439117
C29	C	0.964028	-0.438780	-0.439135
C30	C	1.128586	-0.371493	-0.372028
C31	C	1.073699	-0.304224	-0.304965
C32	C	0.963971	-0.304239	-0.304982
C33	C	0.909141	-0.371517	-0.372068
C34	C	1.652708	-0.895576	-0.640693
C35	C	1.719898	-0.950335	-0.707947
C36	C	1.719960	-1.060057	-0.707970
C37	C	1.652823	-1.115022	-0.640734
C38	C	1.585633	-1.060262	-0.573480
C39	C	1.585580	-0.950538	-0.573462
C40	C	1.451315	-1.060465	-0.438995
C41	C	1.451257	-0.950743	-0.438965
C42	C	1.384178	-1.115430	-0.371758
C43	C	1.316992	-1.060670	-0.304498
C44	C	1.316933	-0.950942	-0.304477
C45	C	1.384066	-0.895984	-0.371711
C46	C	1.792414	-0.506052	-0.506214
C47	C	1.909191	-0.506060	-0.506224
C48	C	1.518452	-0.505926	-0.780225
C49	C	1.518483	-0.505880	-0.897001
C50	C	1.518468	-0.232001	-0.506231
C51	C	1.518505	-0.115224	-0.506249
C52	C	1.384154	-0.371482	-0.897029
C53	C	1.317010	-0.304263	-0.951903
C54	C	1.317041	-0.304225	-1.061625
C55	C	1.384222	-0.371416	-1.116475
C56	C	1.451367	-0.438635	-1.061600
C57	C	1.451331	-0.438664	-0.951876
C58	C	1.585689	-0.573037	-1.061573
C59	C	1.585664	-0.573071	-0.951851
C60	C	1.652870	-0.640228	-1.116422
C61	C	1.720022	-0.707444	-1.061548
C62	C	1.719988	-0.707478	-0.951820
C63	C	1.652809	-0.640290	-0.896977
C64	C	1.518371	-0.506067	-0.233223
C65	C	1.518544	-0.505817	-0.116447
H66	H	0.819903	-0.640610	-0.640395
H67	H	1.262364	-0.249490	-1.106304
F68	F	1.245362	-0.371486	-0.372011
H69	H	1.262310	-0.249559	-0.907232
H70	H	1.384230	-1.204771	-0.371786
F71	F	1.384237	-0.371388	-1.233250
F72	F	1.652892	-0.640195	-1.233198
H73	H	1.262329	-1.105431	-0.249764
F74	F	0.792365	-0.371535	-0.372096
H75	H	1.384029	-0.806643	-0.371696
F76	F	0.905763	-0.779479	-0.778819
H77	H	1.652674	-0.806235	-0.640672
H78	H	1.774661	-1.104642	-0.762745
F79	F	1.132270	-0.779445	-0.778793
H80	H	1.218031	-0.640577	-0.640316
F81	F	1.132066	-0.232634	-0.233567
H82	H	0.919288	-0.249467	-0.250368
F83	F	1.791506	-0.778952	-1.119928
F84	F	1.791339	-0.891831	-0.779509
H85	H	1.652871	-1.204363	-0.640767
H86	H	1.262214	-0.906362	-0.249715
H87	H	1.774669	-0.762214	-0.907147
F88	F	1.384127	-0.371505	-0.780253
F89	F	1.652772	-0.640317	-0.780201
