data_functionalizedCrystal
_audit_creation_method	'MofGen! by Chris Wilmer'
_symmetry_space_group_name_H-M	'P1'
_symmetry_Int_Tables_number	1
_symmetry_cell_setting	triclinic
loop_
_symmetry_equiv_pos_as_xyz
  x,y,z
_cell_length_a	21.395363
_cell_length_b	12.645331
_cell_length_c	21.395355
_cell_angle_alpha	90.017800
_cell_angle_beta	90.003952
_cell_angle_gamma	90.001376
loop_
_atom_site_label
_atom_site_type_symbol
_atom_site_fract_x
_atom_site_fract_y
_atom_site_fract_z
Zn1	Zn	-0.249524	1.620867	0.354212
Zn2	Zn	0.250476	2.120867	0.854212
Zn3	Zn	-0.354284	1.620791	0.249461
Zn4	Zn	0.145716	2.120791	0.749461
Zn5	Zn	-0.249523	1.443576	0.249461
Zn6	Zn	0.250477	1.943576	0.749461
Zn7	Zn	-0.354266	1.443612	0.354214
Zn8	Zn	0.145734	1.943612	0.854214
O9	O	-0.301899	1.532211	0.301837
O10	O	0.198101	2.032211	0.801837
O11	O	-0.263428	1.769204	0.340316
O12	O	0.236572	2.269204	0.840316
O13	O	-0.340394	1.597236	0.161783
O14	O	0.159606	2.097236	0.661783
O15	O	-0.161845	1.467111	0.263356
O16	O	0.338155	1.967111	0.763356
O17	O	-0.340395	1.769148	0.263356
O18	O	0.159605	2.269148	0.763356
O19	O	-0.161846	1.597366	0.340316
O20	O	0.338154	2.097366	0.840316
O21	O	-0.263426	1.467036	0.161783
O22	O	0.236574	1.967036	0.661783
O23	O	-0.263409	1.295233	0.263357
O24	O	0.236591	1.795233	0.763357
O25	O	-0.340365	1.467172	0.441891
O26	O	0.159635	1.967172	0.941891
O27	O	-0.340364	1.295260	0.340319
O28	O	0.159636	1.795260	0.840319
O29	O	-0.263411	1.597401	0.441890
O30	O	0.236589	2.097401	0.941890
O31	O	-0.441959	1.597271	0.263358
O32	O	0.058041	2.097271	0.763358
O33	O	-0.441946	1.467098	0.340319
O34	O	0.058054	1.967098	0.840319
C35	C	-0.301885	1.256782	0.301839
C36	C	0.198115	1.756782	0.801839
C37	C	-0.301894	1.138952	0.301854
C38	C	0.198106	1.638952	0.801854
C39	C	-0.350571	0.971440	0.350018
C40	C	0.149429	1.471440	0.850018
C41	C	-0.350414	1.094000	0.350219
C42	C	0.149586	1.594000	0.850219
C43	C	-0.235906	1.094444	0.319884
C44	C	0.264094	1.594444	0.819884
C45	C	-0.236203	0.971846	0.320223
C46	C	0.263797	1.471846	0.820223
C47	C	-0.318672	0.971710	0.235508
C48	C	0.181328	1.471710	0.735508
C49	C	-0.320116	1.094316	0.235866
C50	C	0.179884	1.594316	0.735866
C51	C	-0.464687	1.532209	0.301852
C52	C	0.035313	2.032209	0.801852
C53	C	-0.534328	1.532305	0.301879
C54	C	-0.034328	2.032305	0.801879
C55	C	-0.138476	1.532243	0.301836
C56	C	0.361524	2.032243	0.801836
C57	C	-0.068835	1.532256	0.301835
C58	C	0.431165	2.032256	0.801835
C59	C	-0.036120	1.464452	0.261767
C60	C	0.463880	1.964452	0.761767
C61	C	0.029315	1.464450	0.261774
C62	C	0.529315	1.964450	0.761774
C63	C	0.062034	1.532273	0.301843
C64	C	0.562034	2.032273	0.801843
C65	C	0.029311	1.600082	0.341919
C66	C	0.529311	2.100082	0.841919
C67	C	-0.036123	1.600074	0.341915
C68	C	0.463877	2.100074	0.841915
C69	C	0.165698	1.627799	0.306795
C70	C	0.665698	2.127799	0.806795
C71	C	0.231131	1.627809	0.306794
C72	C	0.731131	2.127809	0.806794
C73	C	0.263855	1.532298	0.301860
C74	C	0.763855	2.032298	0.801860
C75	C	0.231137	1.436773	0.296912
C76	C	0.731137	1.936773	0.796912
C77	C	0.165703	1.436765	0.296908
C78	C	0.665703	1.936765	0.796908
C79	C	0.132986	1.532289	0.301852
C80	C	0.632986	2.032289	0.801852
C81	C	0.367522	1.464486	0.261797
C82	C	0.867522	1.964486	0.761797
C83	C	0.432958	1.464483	0.261809
C84	C	0.932958	1.964483	0.761809
C85	C	0.432953	1.600124	0.341951
C86	C	0.932953	2.100124	0.841951
C87	C	0.367518	1.600118	0.341942
C88	C	0.867518	2.100118	0.841942
C89	C	0.334806	1.532300	0.301862
C90	C	0.834806	2.032300	0.801862
C91	C	-0.301886	1.532299	0.465260
C92	C	0.198114	2.032299	0.965260
C93	C	-0.301881	1.532337	0.534902
C94	C	0.198119	2.032337	1.034902
C95	C	-0.301914	1.808717	0.301836
C96	C	0.198086	2.308717	0.801836
C97	C	-0.301920	1.926547	0.301835
C98	C	0.198080	2.426547	0.801835
C99	C	-0.301866	1.532185	0.139049
C100	C	0.198134	2.032185	0.639049
C101	C	-0.301695	1.532352	0.069408
C102	C	0.198305	2.032352	0.569408
C103	C	-0.261809	1.600144	0.567615
C104	C	0.238191	2.100144	1.067615
C105	C	-0.261783	1.600143	0.633050
C106	C	0.238217	2.100143	1.133050
C107	C	-0.301838	1.532345	0.665770
C108	C	0.198162	2.032345	1.165770
C109	C	-0.341913	1.464525	0.633049
C110	C	0.158087	1.964525	1.133049
C111	C	-0.341934	1.464520	0.567614
C112	C	0.158066	1.964520	1.067614
C113	C	-0.358254	1.523974	0.769450
C114	C	0.141746	2.023974	1.269450
C115	C	-0.358233	1.523985	0.834883
C116	C	0.141767	2.023985	1.334883
C117	C	-0.301772	1.532352	0.867591
C118	C	0.198228	2.032352	1.367591
C119	C	-0.245329	1.540729	0.834857
C120	C	0.254671	2.040729	1.334857
C121	C	-0.245351	1.540725	0.769423
C122	C	0.254649	2.040725	1.269423
C123	C	-0.301819	1.532341	0.736722
C124	C	0.198181	2.032341	1.236722
C125	C	-0.261668	1.600161	0.971257
C126	C	0.238332	2.100161	1.471257
C127	C	-0.261640	1.600152	1.036693
C128	C	0.238360	2.100152	1.536693
C129	C	-0.341776	1.464540	1.036690
C130	C	0.158224	1.964540	1.536690
C131	C	-0.341798	1.464543	0.971255
C132	C	0.158202	1.964543	1.471255
C133	C	-0.301745	1.532359	0.938542
C134	C	0.198255	2.032359	1.438542
H135	H	-0.283235	0.942674	0.199607
H136	H	0.216765	1.442674	0.699607
H137	H	-0.339629	0.940647	0.398879
H138	H	0.160371	1.440647	0.898879
H139	H	-0.287250	1.124916	0.198041
H140	H	0.212750	1.624916	0.698041
H141	H	0.055957	1.409233	0.229145
H142	H	0.555957	1.909233	0.729145
H143	H	0.055954	1.655302	0.374545
H144	H	0.555954	2.155302	0.874545
H145	H	-0.365969	0.940809	0.219119
H146	H	0.134031	1.440809	0.719119
H147	H	-0.339329	1.123347	0.399366
H148	H	0.160671	1.623347	0.899366
H149	H	-0.404219	1.516877	0.742826
H150	H	0.095781	2.016877	1.242826
O151	O	0.332226	1.673260	0.385153
O152	O	0.832226	2.173260	0.885153
H153	H	0.365968	1.720428	0.413014
H154	H	0.865968	2.220428	0.913014
O155	O	-0.218605	1.673279	0.532334
O156	O	0.281395	2.173279	1.032334
H157	H	-0.246662	1.727210	0.502541
H158	H	0.253338	2.227210	1.002541
H159	H	0.257767	1.705588	0.310819
H160	H	0.757767	2.205588	0.810819
H161	H	0.139060	1.705580	0.310821
H162	H	0.639060	2.205580	0.810821
H163	H	-0.374524	1.409320	0.659693
H164	H	0.125476	1.909320	1.159693
O165	O	-0.218419	1.673292	1.071983
O166	O	0.281581	2.173292	1.571983
H167	H	-0.190578	1.720452	1.038239
H168	H	0.309422	2.220452	1.538239
H169	H	-0.062750	1.409227	0.229132
H170	H	0.437250	1.909227	0.729132
O171	O	-0.217383	0.933977	0.384449
O172	O	0.282617	1.433977	0.884449
H173	H	-0.208158	1.003228	0.414974
H174	H	0.291842	1.503228	0.914974
H175	H	-0.198673	1.123558	0.285885
H176	H	0.301327	1.623558	0.785885
H177	H	-0.198656	0.942146	0.286737
H178	H	0.301344	1.442146	0.786737
H179	H	-0.221436	1.125166	0.367846
H180	H	0.278564	1.625166	0.867846
O181	O	0.130411	1.333745	0.291581
O182	O	0.630411	1.833745	0.791581
H183	H	0.164154	1.267326	0.288155
H184	H	0.664154	1.767326	0.788155
O185	O	-0.218567	1.673289	0.668347
O186	O	0.281433	2.173289	1.168347
H187	H	-0.190723	1.720449	0.634606
H188	H	0.309277	2.220449	1.134606
H189	H	-0.199393	1.547543	0.742774
H190	H	0.300607	2.047543	1.242774
O191	O	-0.384980	1.391410	1.071970
O192	O	0.115020	1.891410	1.571970
H193	H	-0.378236	1.402807	1.122967
H194	H	0.121764	1.902807	1.622967
O195	O	-0.385001	1.391379	0.935964
O196	O	0.114999	1.891379	1.435964
H197	H	-0.412846	1.344225	0.969707
H198	H	0.087154	1.844225	1.469707
H199	H	-0.199353	1.547543	0.861486
H200	H	0.300647	2.047543	1.361486
O201	O	-0.071414	1.673215	0.385129
O202	O	0.428586	2.173215	0.885129
H203	H	-0.037673	1.720381	0.412993
H204	H	0.462327	2.220381	0.912993
O205	O	-0.419106	1.514939	0.870188
O206	O	0.080894	2.014939	1.370188
H207	H	-0.458369	1.509094	0.836454
H208	H	0.041631	2.009094	1.336454
H209	H	-0.229051	1.655375	0.944621
H210	H	0.270949	2.155375	1.444621
H211	H	-0.374564	1.409299	0.540979
H212	H	0.125436	1.909299	1.040979
O213	O	-0.384419	1.132914	0.217829
O214	O	0.115581	1.632914	0.717829
H215	H	-0.403329	1.183673	0.255700
H216	H	0.096671	1.683673	0.755700
H217	H	-0.399348	1.124094	0.338921
H218	H	0.100652	1.624094	0.838921
H219	H	0.257780	1.359000	0.292893
H220	H	0.757780	1.859000	0.792893
H221	H	-0.399668	0.941970	0.338845
H222	H	0.100332	1.441970	0.838845
H223	H	0.340886	1.409259	0.229165
H224	H	0.840886	1.909259	0.729165
O225	O	0.468249	1.391357	0.218586
O226	O	0.968249	1.891357	0.718586
H227	H	0.434506	1.344212	0.190711
H228	H	0.934506	1.844212	0.690711
O229	O	0.468231	1.673282	0.385169
O230	O	0.968231	2.173282	0.885169
H231	H	0.519228	1.661902	0.378438
H232	H	1.019228	2.161902	0.878438
