data_functionalizedCrystal
_audit_creation_method	'MofGen! by Chris Wilmer'
_symmetry_space_group_name_H-M	'P1'
_symmetry_Int_Tables_number	1
_symmetry_cell_setting	triclinic
loop_
_symmetry_equiv_pos_as_xyz
  x,y,z
_cell_length_a	18.050591
_cell_length_b	19.121063
_cell_length_c	18.050582
_cell_angle_alpha	92.414363
_cell_angle_beta	89.978183
_cell_angle_gamma	92.465257
loop_
_atom_site_label
_atom_site_type_symbol
_atom_site_fract_x
_atom_site_fract_y
_atom_site_fract_z
Zn1	Zn	1.122683	-0.279729	-0.432630
Zn2	Zn	1.117295	-0.397174	-0.313729
Zn3	Zn	0.998500	-0.279733	-0.308441
Zn4	Zn	0.993155	-0.397136	-0.437863
O5	O	1.057909	-0.338443	-0.373165
O6	O	1.225892	-0.295323	-0.416880
O7	O	1.101519	-0.381613	-0.209104
O8	O	1.019465	-0.181448	-0.320512
O9	O	1.221934	-0.381609	-0.329524
O10	O	1.110702	-0.181445	-0.411752
O11	O	1.014241	-0.295330	-0.205218
O12	O	0.893867	-0.295292	-0.325586
O13	O	1.010356	-0.381543	-0.541092
O14	O	0.889940	-0.381548	-0.420672
O15	O	1.105519	-0.295285	-0.537248
O16	O	1.096336	-0.495454	-0.334599
O17	O	1.005131	-0.495425	-0.425799
C18	C	0.864958	-0.338417	-0.373123
C19	C	0.782412	-0.338422	-0.373124
C20	C	1.049589	-0.520924	-0.381357
C21	C	1.046098	-0.598990	-0.384886
C22	C	0.585077	-0.291463	-0.321528
C23	C	0.532768	-0.355523	-0.306137
C24	C	0.631280	-0.338444	-0.373158
C25	C	0.536507	-0.274406	-0.388548
C26	C	0.485294	-0.338459	-0.373190
C27	C	0.580057	-0.402538	-0.357733
C28	C	0.583802	-0.321378	-0.440174
C29	C	0.531513	-0.385482	-0.424811
C30	C	0.715379	-0.338434	-0.373138
C31	C	0.401197	-0.338475	-0.373210
C32	C	1.091980	-0.635657	-0.339100
C33	C	1.088701	-0.709008	-0.342423
C34	C	1.039535	-0.745691	-0.391530
C35	C	0.993651	-0.709019	-0.437321
C36	C	0.996935	-0.635669	-0.434000
C37	C	1.027248	-0.967161	-0.403932
C38	C	1.023966	-1.040516	-0.407247
C39	C	1.119017	-1.040501	-0.312350
C40	C	1.122293	-0.967149	-0.309031
C41	C	1.076412	-0.930483	-0.354825
C42	C	1.036181	-0.820668	-0.394926
C43	C	1.079771	-0.855508	-0.351432
C44	C	1.251613	-0.338470	-0.373208
C45	C	1.334158	-0.338481	-0.373227
C46	C	1.057942	-0.338409	-0.566870
C47	C	1.057956	-0.338395	-0.649415
C48	C	1.066281	-0.155250	-0.364958
C49	C	1.069849	-0.077183	-0.361461
C50	C	1.006256	-0.385226	-0.900328
C51	C	0.991005	-0.321164	-0.848053
C52	C	1.058024	-0.338292	-0.946531
C53	C	1.073207	-0.402402	-0.851726
C54	C	1.057989	-0.338346	-0.800548
C55	C	1.042740	-0.274195	-0.895342
C56	C	1.124971	-0.355477	-0.899021
C57	C	1.109747	-0.291370	-0.846766
C58	C	1.058042	-0.338262	-1.030628
C59	C	1.057971	-0.338369	-0.716452
C60	C	1.057920	-0.338426	-0.180213
C61	C	1.058059	-0.338242	-0.097659
H62	H	0.510378	-0.369969	-0.249476
H63	H	0.983939	-1.070382	-0.447248
C64	C	0.605461	-0.474784	-0.340180
C65	C	0.578955	-0.492604	-0.270245
C66	C	0.602336	-0.559153	-0.254053
H67	H	0.658100	-0.474413	-0.340196
H68	H	0.586648	-0.508215	-0.376618
H69	H	0.597772	-0.459182	-0.233817
H70	H	0.526318	-0.492991	-0.270212
H71	H	0.583523	-0.592584	-0.290491
H72	H	0.654975	-0.558776	-0.254072
H73	H	0.584350	-0.571255	-0.206604
H74	H	0.508198	-0.425265	-0.468489
H75	H	0.517242	-0.220251	-0.401527
C76	C	0.982913	-0.860589	-0.448282
C77	C	1.023050	-0.902655	-0.497815
C78	C	0.974006	-0.939450	-0.546971
H79	H	0.956029	-0.828331	-0.475151
H80	H	0.949307	-0.889284	-0.421153
H81	H	1.056643	-0.873962	-0.524942
H82	H	1.049932	-0.934926	-0.470967
H83	H	0.940400	-0.968145	-0.519841
H84	H	0.947125	-0.907187	-0.573834
H85	H	1.001231	-0.968001	-0.580580
H86	H	0.606210	-0.306912	-0.496816
H87	H	1.126063	-0.738859	-0.305139
C88	C	1.145435	-0.595960	-0.285759
C89	C	1.184928	-0.643775	-0.246387
C90	C	1.234186	-0.607234	-0.197250
H91	H	1.118409	-0.567383	-0.252012
H92	H	1.179097	-0.567321	-0.312887
H93	H	1.151270	-0.672402	-0.219261
H94	H	1.211969	-0.672353	-0.280115
H95	H	1.267849	-0.578595	-0.224378
H96	H	1.207154	-0.578658	-0.163508
H97	H	1.260993	-0.639670	-0.170536
H98	H	1.162328	-0.937283	-0.269045
C99	C	1.168806	-1.080437	-0.262732
C100	C	1.155428	-1.152525	-0.276164
C101	C	1.201293	-1.189335	-0.230479
H102	H	1.158557	-1.068540	-0.212252
H103	H	1.219249	-1.068410	-0.273124
H104	H	1.104996	-1.164546	-0.265767
H105	H	1.165681	-1.164442	-0.326635
H106	H	1.251736	-1.177308	-0.240870
H107	H	1.191041	-1.177432	-0.180001
H108	H	1.192227	-1.238250	-0.239591
H109	H	1.029819	-0.219985	-0.914504
C110	C	0.940387	-0.748935	-0.490684
C111	C	0.980521	-0.791003	-0.540217
C112	C	0.931476	-0.827789	-0.589378
H113	H	0.913511	-0.716671	-0.517553
H114	H	0.906774	-0.777627	-0.463559
H115	H	1.014121	-0.762313	-0.567339
H116	H	1.007396	-0.823279	-0.513369
H117	H	0.897864	-0.856481	-0.562253
H118	H	0.904603	-0.795521	-0.616241
H119	H	0.958700	-0.856342	-0.622987
H120	H	0.989888	-0.937314	-0.441217
H121	H	0.934375	-0.306647	-0.825690
H122	H	0.959573	-0.605815	-0.471285
C123	C	1.133222	-0.815810	-0.298092
C124	C	1.172716	-0.863617	-0.258710
C125	C	1.221965	-0.827066	-0.209571
H126	H	1.106189	-0.787233	-0.264351
H127	H	1.166885	-0.787171	-0.325220
H128	H	1.139057	-0.892244	-0.231584
H129	H	1.199764	-0.892196	-0.292431
H130	H	1.255628	-0.798427	-0.236698
H131	H	1.194926	-0.798490	-0.175835
H132	H	1.248772	-0.859498	-0.182849
C133	C	0.947754	-0.437959	-0.931555
C134	C	0.877758	-0.419662	-0.905702
C135	C	0.823847	-0.468214	-0.934462
H136	H	0.957984	-0.483394	-0.915983
H137	H	0.948427	-0.437860	-0.984180
H138	H	0.877087	-0.419769	-0.853089
H139	H	0.867505	-0.374235	-0.921273
H140	H	0.824520	-0.468114	-0.987086
H141	H	0.834084	-0.513646	-0.918887
H142	H	0.776348	-0.455803	-0.916930
H143	H	1.153513	-0.251657	-0.823453
C144	C	1.200424	-0.375000	-0.928836
C145	C	1.216050	-0.442175	-0.906896
C146	C	1.285546	-0.460195	-0.934358
H147	H	1.237361	-0.342212	-0.909751
H148	H	1.200023	-0.374455	-0.981440
H149	H	1.216457	-0.442714	-0.854303
H150	H	1.179131	-0.474977	-0.925980
H151	H	1.285145	-0.459651	-0.986962
H152	H	1.322477	-0.427403	-0.915271
H153	H	1.296154	-0.505777	-0.919482
C154	C	1.090254	-0.474725	-0.826162
C155	C	1.035910	-0.523616	-0.853379
C156	C	1.051589	-0.590250	-0.829857
H157	H	1.090551	-0.474220	-0.773519
H158	H	1.137457	-0.487271	-0.844400
H159	H	0.988719	-0.511074	-0.835137
H160	H	1.035604	-0.524143	-0.906019
H161	H	1.098792	-0.602795	-0.848095
H162	H	1.051886	-0.589737	-0.777215
H163	H	1.014723	-0.623431	-0.848326
H164	H	0.608524	-0.251775	-0.277822
