data_functionalizedCrystal
_audit_creation_method	'MofGen! by Chris Wilmer'
_symmetry_space_group_name_H-M	'P1'
_symmetry_Int_Tables_number	1
_symmetry_cell_setting	triclinic
loop_
_symmetry_equiv_pos_as_xyz
  x,y,z
_cell_length_a	8.634740
_cell_length_b	8.559649
_cell_length_c	8.140239
_cell_angle_alpha	90.001146
_cell_angle_beta	90.001257
_cell_angle_gamma	85.174486
loop_
_atom_site_label
_atom_site_type_symbol
_atom_site_fract_x
_atom_site_fract_y
_atom_site_fract_z
O1	O	1.985465	0.511626	0.136603
O2	O	1.541594	0.468724	0.136606
O3	O	1.802635	0.263594	0.136602
O4	O	1.724424	0.716757	0.136606
O5	O	1.802628	0.263591	-0.136625
O6	O	1.541587	0.468721	-0.136622
O7	O	1.985458	0.511624	-0.136624
Zn8	Zn	1.763521	0.490172	-0.180004
Zn9	Zn	1.763531	0.490176	0.179985
O10	O	1.724417	0.716754	-0.136621
C11	C	1.485291	0.459004	-0.000008
C12	C	1.317539	0.430026	-0.000006
C13	C	1.808558	0.204975	-0.000008
C14	C	1.826201	0.030311	0.000001
C15	C	2.041761	0.521344	-0.000008
C16	C	2.209512	0.550322	0.000002
C17	C	1.718493	0.775373	-0.000007
C18	C	1.700851	0.950037	-0.000005
N19	N	1.763526	0.490170	-0.425686
N20	N	1.763539	0.490167	0.425667
H21	H	1.245360	0.675483	-0.000012
H22	H	1.947023	-0.034594	-0.000013
H23	H	1.580036	0.014934	-0.000010
Br24	Br	1.257795	0.221398	-0.000018
