data_functionalizedCrystal
_audit_creation_method	'MofGen! by Chris Wilmer'
_symmetry_space_group_name_H-M	'P1'
_symmetry_Int_Tables_number	1
_symmetry_cell_setting	triclinic
loop_
_symmetry_equiv_pos_as_xyz
  x,y,z
_cell_length_a	10.268362
_cell_length_b	11.026607
_cell_length_c	11.026607
_cell_angle_alpha	71.413983
_cell_angle_beta	90.003050
_cell_angle_gamma	89.996278
loop_
_atom_site_label
_atom_site_type_symbol
_atom_site_fract_x
_atom_site_fract_y
_atom_site_fract_z
O1	O	0.108297	-1.726734	0.533625
O2	O	0.108299	-1.360154	0.472861
O3	O	0.108294	-1.513062	0.319953
O4	O	0.108303	-1.573825	0.686533
O5	O	-0.108307	-1.513043	0.319941
O6	O	-0.108302	-1.360135	0.472849
O7	O	-0.108304	-1.726715	0.533613
Cu8	Cu	-0.128080	-1.543423	0.503230
Cu9	Cu	0.128075	-1.543445	0.503244
O10	O	-0.108298	-1.573807	0.686521
C11	C	-0.000001	-1.312485	0.461645
C12	C	-0.000000	-1.170471	0.428228
N13	N	-0.308246	-1.543417	0.503221
C14	C	-0.000005	-1.501843	0.272287
C15	C	-0.000000	-1.468426	0.130273
C16	C	-0.573916	-1.543438	0.503240
C17	C	-0.426078	-1.543423	0.503233
N18	N	0.308241	-1.543460	0.503244
C19	C	-0.000001	-1.774384	0.544828
C20	C	0.000007	-1.916398	0.578245
C21	C	0.000003	-1.116821	0.520498
C22	C	0.000004	-0.970043	0.485962
C23	C	0.000001	-1.560695	0.076624
C24	C	0.000006	-1.526160	-0.070155
C25	C	0.000004	-1.585026	0.734187
C26	C	0.000007	-1.618443	0.876200
H27	H	-0.000002	-1.179555	0.625061
N28	N	-0.000014	-1.699204	0.159710
H29	H	-0.000014	-1.756036	0.103741
H30	H	0.080280	-1.717086	0.215525
H31	H	0.000001	-0.979125	0.682816
H32	H	0.000015	-1.421590	-0.132884
H33	H	0.000105	-1.723013	-0.061072
H34	H	0.000031	-1.107738	0.323666
H35	H	0.000009	-1.363863	0.067540
N36	N	0.000007	-0.886972	0.347443
H37	H	-0.080288	-0.905674	0.303558
H38	H	0.000057	-0.793925	0.342509
