data_functionalizedCrystal
_audit_creation_method	'MofGen! by Chris Wilmer'
_symmetry_space_group_name_H-M	'P1'
_symmetry_Int_Tables_number	1
_symmetry_cell_setting	triclinic
loop_
_symmetry_equiv_pos_as_xyz
  x,y,z
_cell_length_a	6.817900
_cell_length_b	16.418049
_cell_length_c	12.908943
_cell_angle_alpha	95.705836
_cell_angle_beta	100.860631
_cell_angle_gamma	103.389670
loop_
_atom_site_label
_atom_site_type_symbol
_atom_site_fract_x
_atom_site_fract_y
_atom_site_fract_z
V1	V	-3.995727	-0.114839	-0.329050
O2	O	-3.984338	0.006594	-0.322404
O3	O	-3.946969	-0.228742	-0.327167
O4	O	-3.934013	-0.112601	-0.472392
O5	O	-3.997383	-0.110351	-0.176173
V6	V	-4.481126	-0.100370	-0.310720
O7	O	-4.252869	-0.146579	-0.369258
O8	O	-4.674182	-0.068631	-0.270512
O9	O	-4.306678	0.013532	-0.312603
O10	O	-4.609913	-0.221804	-0.317366
O11	O	-4.596867	-0.104859	-0.463596
O12	O	-4.319634	-0.102609	-0.167378
C13	C	-3.792314	-0.256524	-0.322071
C14	C	-3.833646	-0.349637	-0.321486
C15	C	-4.110312	-0.568114	-0.325435
C16	C	-4.149136	-0.655605	-0.324896
C17	C	-3.785899	-0.647095	-0.314341
C18	C	-3.747080	-0.559606	-0.314888
C19	C	-3.909292	-0.520118	-0.320430
C20	C	-3.986935	-0.695097	-0.319343
C21	C	-4.029028	-0.789959	-0.318758
C22	C	-3.867197	-0.425250	-0.321018
C23	C	-3.775786	-0.108373	-0.507319
C24	C	-3.806610	-0.107297	-0.624504
C25	C	-4.227755	-0.113585	-0.855471
C26	C	-4.256726	-0.112574	-0.965578
C27	C	-3.893522	-0.104257	-0.954825
C28	C	-3.864551	-0.105268	-0.844718
C29	C	-4.031676	-0.109934	-0.795046
C30	C	-4.002706	-0.110951	-0.684938
C31	C	-3.639502	-0.102628	-0.674186
C32	C	-3.668473	-0.101617	-0.784293
C33	C	-4.124676	0.041310	-0.317696
C34	C	-4.062580	0.134422	-0.318287
C35	C	-4.141203	-0.106839	-0.132445
C36	C	-4.089618	-0.107912	-0.015259
H37	H	-3.653837	-0.679257	-0.309827
H38	H	-4.312824	-0.694681	-0.328973
F39	F	-3.715682	-0.099295	-1.007709
F40	F	-3.490623	-0.096653	-0.837170
H41	H	-4.363840	-0.117393	-0.815029
F42	F	-3.533118	-0.508522	-0.309567
F43	F	-4.180575	-0.115919	-0.632075
H44	H	-4.416390	-0.115548	-1.014772
H45	H	-4.242397	-0.535965	-0.329946
F46	F	-3.430808	-0.098746	-0.609870
