data_functionalizedCrystal
_audit_creation_method	'MofGen! by Chris Wilmer'
_symmetry_space_group_name_H-M	'P1'
_symmetry_Int_Tables_number	1
_symmetry_cell_setting	triclinic
loop_
_symmetry_equiv_pos_as_xyz
  x,y,z
_cell_length_a	25.639239
_cell_length_b	12.759401
_cell_length_c	12.759393
_cell_angle_alpha	89.980198
_cell_angle_beta	89.964022
_cell_angle_gamma	90.037772
loop_
_atom_site_label
_atom_site_type_symbol
_atom_site_fract_x
_atom_site_fract_y
_atom_site_fract_z
Zn1	Zn	-0.208138	1.606091	-0.593948
Zn2	Zn	-0.295583	1.605909	-0.418251
Zn3	Zn	-0.208162	1.430390	-0.418287
Zn4	Zn	-0.295543	1.430308	-0.593892
O5	O	-0.251857	1.518175	-0.506095
O6	O	-0.219745	1.753088	-0.570650
O7	O	-0.284014	1.582584	-0.271235
O8	O	-0.134994	1.453808	-0.441627
O9	O	-0.283990	1.752954	-0.441567
O10	O	-0.134976	1.582895	-0.570685
O11	O	-0.219786	1.453631	-0.271261
O12	O	-0.219747	1.283358	-0.441573
O13	O	-0.283922	1.453668	-0.740921
O14	O	-0.283945	1.283298	-0.570589
O15	O	-0.219706	1.582815	-0.740962
O16	O	-0.368743	1.582504	-0.441512
O17	O	-0.368714	1.453492	-0.570555
C18	C	-0.251845	1.245207	-0.506079
C19	C	-0.251852	1.128431	-0.506098
C20	C	-0.387699	1.517998	-0.506047
C21	C	-0.445813	1.518018	-0.506061
C22	C	-0.218472	0.963902	-0.573422
C23	C	-0.218462	1.073626	-0.573415
C24	C	-0.285259	1.073505	-0.438790
C25	C	-0.285271	0.963783	-0.438803
C26	C	-0.806179	1.585527	-0.439017
C27	C	-0.860784	1.585568	-0.439031
O28	O	-0.889023	1.642782	-0.381974
N29	N	-0.888096	1.518359	-0.506164
C30	C	-0.860801	1.451113	-0.573296
O31	O	-0.889046	1.393952	-0.630400
C32	C	-0.806198	1.451079	-0.573286
C33	C	-0.778888	1.518284	-0.506141
C34	C	-0.778870	1.652728	-0.371878
C35	C	-0.724269	1.652685	-0.371862
C36	C	-0.696978	1.585442	-0.438986
C37	C	-0.724288	1.518242	-0.506126
C38	C	-0.778904	1.383839	-0.640422
C39	C	-0.724297	1.383810	-0.640407
C40	C	-0.696987	1.451016	-0.573262
C41	C	-0.642396	1.450956	-0.573234
N42	N	-0.615084	1.518165	-0.506101
C43	C	-0.642375	1.585408	-0.438977
C44	C	-0.975472	1.451192	-0.573312
C45	C	-1.030074	1.451221	-0.573317
C46	C	-1.030053	1.585677	-0.439053
C47	C	-0.975449	1.585642	-0.439044
C48	C	-0.948159	1.518401	-0.506178
C49	C	-0.527710	1.585313	-0.438949
C50	C	-0.473104	1.585261	-0.438937
C51	C	-0.473130	1.450810	-0.573204
C52	C	-0.527731	1.450857	-0.573213
C53	C	-0.555019	1.518117	-0.506082
O54	O	-0.614122	1.393774	-0.630265
O55	O	-0.614123	1.642569	-0.381892
C56	C	-0.115484	1.518381	-0.506166
C57	C	-0.057370	1.518468	-0.506196
C58	C	-0.251807	1.518253	-0.780128
C59	C	-0.251785	1.518287	-0.896905
C60	C	-0.251869	1.792208	-0.506111
C61	C	-0.251875	1.908984	-0.506118
C62	C	-0.218343	1.585539	-0.951790
C63	C	-0.218320	1.585556	-1.061514
C64	C	-0.285187	1.451068	-1.061458
C65	C	-0.285207	1.451045	-0.951736
C66	C	-0.251869	1.518157	-0.233127
C67	C	-0.251743	1.518327	-0.116351
H68	H	-0.191278	0.919288	-0.628234
C69	C	-0.321996	1.377060	-0.891359
C70	C	-0.317718	1.257635	-0.906436
C71	C	-0.354504	1.183648	-0.846060
C72	C	-0.395568	1.229087	-0.770607
C73	C	-0.399848	1.348518	-0.755527
C74	C	-0.363062	1.422505	-0.815903
H75	H	-0.287319	1.223993	-0.962293
H76	H	-0.351336	1.095237	-0.857224
H77	H	-0.422799	1.174318	-0.725914
H78	H	-0.430247	1.382161	-0.699669
H79	H	-0.366230	1.510916	-0.804739
H80	H	-0.191262	1.118335	-0.628223
H81	H	-0.312448	1.118136	-0.383983
H82	H	-0.312399	1.396324	-1.106115
H83	H	-0.450871	1.639988	-0.384256
C84	C	-0.322017	0.903367	-0.364762
C85	C	-0.317679	0.918393	-0.245339
C86	C	-0.354425	0.857976	-0.171305
C87	C	-0.395508	0.782533	-0.216696
C88	C	-0.399848	0.767504	-0.336125
C89	C	-0.363102	0.827921	-0.410158
H90	H	-0.287265	0.974243	-0.211733
H91	H	-0.351212	0.869102	-0.082896
H92	H	-0.422710	0.737809	-0.161892
H93	H	-0.430262	0.711654	-0.369731
H94	H	-0.366315	0.816795	-0.498568
H95	H	-0.191087	1.640318	-1.106197
H96	H	-0.450902	1.396058	-0.627853
C97	C	-0.557722	1.659291	-0.365100
C98	C	-0.550257	1.650760	-0.245657
C99	C	-0.580269	1.724731	-0.171802
C100	C	-0.617746	1.807233	-0.217389
C101	C	-0.625214	1.815767	-0.336838
C102	C	-0.595201	1.741796	-0.410693
H103	H	-0.522512	1.589685	-0.211905
H104	H	-0.574741	1.718413	-0.083378
H105	H	-0.639963	1.861990	-0.162717
H106	H	-0.652958	1.876843	-0.370590
H107	H	-0.600729	1.748114	-0.499117
H108	H	-0.702037	1.707412	-0.317190
C109	C	-0.808883	1.726701	-0.298030
C110	C	-0.801411	1.718173	-0.178589
C111	C	-0.831419	1.792147	-0.104729
C112	C	-0.868899	1.874647	-0.150311
C113	C	-0.876372	1.883179	-0.269758
C114	C	-0.846364	1.809205	-0.343618
H115	H	-0.773665	1.657098	-0.144841
H116	H	-0.825887	1.785831	-0.016306
H117	H	-0.891113	1.929407	-0.095636
H118	H	-0.904119	1.944254	-0.303506
H119	H	-0.851897	1.815521	-0.432041
C120	C	-1.060080	1.659654	-0.365220
C121	C	-1.120141	1.659692	-0.365246
C122	C	-1.150169	1.733663	-0.291417
C123	C	-1.120136	1.807597	-0.217564
C124	C	-1.060071	1.807561	-0.217536
C125	C	-1.030043	1.733590	-0.291364
H126	H	-1.142376	1.604960	-0.419919
H127	H	-1.194634	1.733689	-0.291439
H128	H	-1.142365	1.862355	-0.162912
H129	H	-1.037836	1.862294	-0.162862
H130	H	-0.985579	1.733564	-0.291343
C131	C	-0.181576	1.659493	-0.891474
C132	C	-0.122135	1.651009	-0.906590
C133	C	-0.085366	1.724962	-0.846277
C134	C	-0.108038	1.807401	-0.770847
C135	C	-0.167481	1.815889	-0.755727
C136	C	-0.204250	1.741935	-0.816041
H137	H	-0.105350	1.589980	-0.962430
H138	H	-0.041362	1.718679	-0.857470
H139	H	-0.080819	1.862146	-0.726200
H140	H	-0.184267	1.876918	-0.699887
H141	H	-0.248255	1.748219	-0.804848
C142	C	-1.060111	1.377286	-0.647170
C143	C	-1.030084	1.303324	-0.721001
C144	C	-1.060118	1.229391	-0.794861
C145	C	-1.120180	1.229420	-0.794891
C146	C	-1.150210	1.303385	-0.721058
C147	C	-1.120175	1.377318	-0.647197
H148	H	-0.985619	1.303299	-0.720981
H149	H	-1.037887	1.174637	-0.849518
H150	H	-1.142413	1.174691	-0.849568
H151	H	-1.194674	1.303410	-0.721078
H152	H	-1.142406	1.432072	-0.592541
H153	H	-0.953255	1.396428	-0.627978
H154	H	-0.549967	1.396136	-0.627892
H155	H	-0.801130	1.329108	-0.695094
C156	C	-0.694278	1.309839	-0.714255
C157	C	-0.656799	1.227346	-0.668654
C158	C	-0.626781	1.153373	-0.742498
C159	C	-0.634242	1.161893	-0.861943
C160	C	-0.671723	1.244388	-0.907550
C161	C	-0.701740	1.318361	-0.833706
H162	H	-0.651275	1.221037	-0.580229
H163	H	-0.599036	1.092305	-0.708737
H164	H	-0.612021	1.107134	-0.916607
H165	H	-0.677247	1.250698	-0.995975
H166	H	-0.729486	1.379430	-0.867468
H167	H	-0.953217	1.640367	-0.384369
