data_functionalizedCrystal
_audit_creation_method	'MofGen! by Chris Wilmer'
_symmetry_space_group_name_H-M	'P1'
_symmetry_Int_Tables_number	1
_symmetry_cell_setting	triclinic
loop_
_symmetry_equiv_pos_as_xyz
  x,y,z
_cell_length_a	27.731993
_cell_length_b	18.366186
_cell_length_c	19.288865
_cell_angle_alpha	89.988521
_cell_angle_beta	97.121679
_cell_angle_gamma	89.997513
loop_
_atom_site_label
_atom_site_type_symbol
_atom_site_fract_x
_atom_site_fract_y
_atom_site_fract_z
O1	O	-0.641197	-0.060362	0.082469
O2	O	-0.500438	-0.060408	0.095075
O3	O	-0.574884	-0.060369	-0.012385
O4	O	-0.566750	-0.060400	0.189929
O5	O	-0.574872	0.060730	-0.012390
O6	O	-0.500425	0.060692	0.095070
O7	O	-0.641184	0.060737	0.082464
Zn8	Zn	-0.570803	0.079942	0.088766
Zn9	Zn	-0.570819	-0.079612	0.088773
O10	O	-0.566737	0.060699	0.189924
C11	C	-0.482423	0.000137	0.094814
C12	C	-0.428764	0.000120	0.094035
C13	C	-0.574616	0.000183	-0.038262
C14	C	-0.573831	0.000189	-0.115361
C15	C	-0.659199	0.000192	0.082725
C16	C	-0.712857	0.000204	0.083504
C17	C	-0.045594	-0.065855	0.088389
C18	C	-0.247260	-0.065875	0.091359
O19	O	-0.273340	-0.122017	0.091718
N20	N	-0.272475	0.000134	0.091728
C21	C	-0.247270	0.066154	0.091350
O22	O	-0.273345	0.122299	0.091725
C23	C	-0.045605	0.066173	0.088375
C24	C	-0.020393	0.000159	0.088013
C25	C	-0.020381	-0.131864	0.088027
C26	C	0.030032	-0.131858	0.087288
C27	C	0.055234	-0.065844	0.086912
C28	C	0.030021	0.000165	0.087274
C29	C	-0.020402	0.132192	0.087991
C30	C	0.030017	0.132191	0.087246
C31	C	0.055230	0.066177	0.086884
C32	C	0.105637	0.066185	0.086160
N33	N	0.130851	0.000175	0.085791
C34	C	0.105650	-0.065839	0.086167
C35	C	-0.353147	0.066139	0.092913
C36	C	-0.403563	0.066134	0.093658
C37	C	-0.403550	-0.065895	0.093667
C38	C	-0.353133	-0.065890	0.092926
C39	C	-0.327933	0.000129	0.092545
C40	C	0.211523	-0.065822	0.084616
C41	C	0.261941	-0.065811	0.083880
C42	C	0.261923	0.066218	0.083869
C43	C	0.211510	0.066207	0.084608
C44	C	0.186310	0.000181	0.084979
O45	O	0.131747	0.122297	0.085793
O46	O	0.131732	-0.121976	0.085777
C47	C	-0.096008	-0.065861	0.089128
C48	C	-0.121220	0.000148	0.089490
C49	C	-0.096019	0.066162	0.089114
C50	C	-0.171636	0.000143	0.090236
C51	C	-0.196838	-0.065871	0.090612
C52	C	-0.171623	-0.131881	0.090243
C53	C	-0.121209	-0.131875	0.089504
C54	C	-0.121234	0.132172	0.089483
C55	C	-0.171648	0.132161	0.090223
C56	C	-0.196849	0.066146	0.090599
N57	N	-0.570795	0.188833	0.088761
N58	N	-0.570831	-0.188503	0.088772
C59	C	-0.603771	0.226950	0.041201
C60	C	-0.603774	0.303178	0.041198
C61	C	-0.570805	0.341286	0.088767
C62	C	-0.537823	0.303159	0.136330
C63	C	-0.537818	0.226933	0.136328
C64	C	-0.564335	0.462035	0.152097
C65	C	-0.564343	0.538260	0.152100
C66	C	-0.570819	0.576393	0.088775
C67	C	-0.577297	0.538292	0.025443
C68	C	-0.577291	0.462066	0.025441
C69	C	-0.570807	0.423940	0.088775
C70	C	-0.603800	0.697166	0.041208
C71	C	-0.603800	0.773395	0.041204
C72	C	-0.537852	0.773374	0.136342
C73	C	-0.537850	0.697146	0.136340
C74	C	-0.570827	0.659047	0.088774
C75	C	-0.617513	0.000207	-0.160342
C76	C	-0.616775	0.000195	-0.232784
C77	C	-0.572352	0.000180	-0.260242
C78	C	-0.528664	0.000158	-0.215251
C79	C	-0.529403	0.000163	-0.142810
C80	C	-0.537426	0.042587	-0.368304
C81	C	-0.536688	0.042587	-0.440743
C82	C	-0.570069	0.000163	-0.483673
C83	C	-0.604196	-0.042252	-0.454155
C84	C	-0.604936	-0.042247	-0.381715
C85	C	-0.571545	0.000175	-0.338791
C86	C	-0.612954	0.000167	-0.607204
C87	C	-0.612214	0.000151	-0.679648
C88	C	-0.524102	0.000121	-0.662113
C89	C	-0.524844	0.000130	-0.589672
C90	C	-0.569271	0.000157	-0.562222
C91	C	-0.567005	0.000146	0.215801
C92	C	-0.567791	0.000135	0.292899
H93	H	0.191011	-0.119587	0.084920
N94	N	0.055759	0.199630	0.086874
N95	N	0.088453	0.214361	0.135442
H96	H	0.106633	0.261990	0.135183
H97	H	-0.647787	0.000161	-0.716271
N98	N	-0.658332	0.000202	-0.579158
N99	N	-0.687740	0.051259	-0.593130
H100	H	-0.719789	0.051286	-0.573323
N101	N	-0.504162	0.658217	0.184928
N102	N	-0.474726	0.692247	0.227395
H103	H	-0.450931	0.664754	0.261711
H104	H	-0.332634	0.119903	0.092600
N105	N	0.287688	-0.133252	0.083516
N106	N	0.265176	-0.192187	0.083851
H107	H	0.283358	-0.239817	0.083593
N108	N	-0.480223	0.000107	-0.543720
N109	N	-0.450649	-0.050951	-0.545929
H110	H	-0.419133	-0.050971	-0.513476
H111	H	-0.632722	-0.076784	-0.357684
N112	N	-0.583891	0.423147	-0.039246
N113	N	-0.551629	0.380622	-0.054507
H114	H	-0.556288	0.353135	-0.100193
N115	N	-0.501844	0.085944	-0.470883
N116	N	-0.472046	0.123828	-0.432549
H117	H	-0.447441	0.154459	-0.453834
N118	N	-0.583905	0.577245	-0.039242
N119	N	-0.583900	0.645303	-0.039233
H120	H	-0.588564	0.672818	-0.084915
H121	H	-0.652347	0.000206	-0.269415
N122	N	-0.197379	-0.199308	0.090616
N123	N	-0.230077	-0.214019	0.042046
H124	H	-0.248270	-0.261637	0.042305
H125	H	-0.192171	0.185921	0.090523
N126	N	-0.638299	-0.085578	-0.498008
N127	N	-0.637636	-0.085577	-0.562686
H128	H	-0.661723	-0.116170	-0.593661
H129	H	-0.630627	0.334219	0.002467
N130	N	-0.478729	0.000098	-0.690163
N131	N	-0.478074	0.000090	-0.754842
H132	H	-0.446028	0.000070	-0.774657
N133	N	-0.095504	0.199616	0.089112
N134	N	-0.096583	0.243801	0.138176
H135	H	-0.078414	0.291440	0.137918
H136	H	0.050556	-0.185614	0.086990
N137	N	-0.637426	0.658254	-0.007469
N138	N	-0.666824	0.692301	-0.049993
H139	H	-0.690550	0.664821	-0.084404
H140	H	-0.630651	0.804431	0.002471
H141	H	-0.510242	0.077138	-0.333355
N142	N	-0.557724	0.423098	0.216793
N143	N	-0.551952	0.457122	0.273332
H144	H	-0.547287	0.429624	0.319023
H145	H	-0.511007	0.804401	0.175071
N146	N	-0.557733	0.577164	0.216795
N147	N	-0.551947	0.543111	0.273330
H148	H	-0.547279	0.570585	0.319023
H149	H	-0.040895	-0.185624	0.088331
N150	N	-0.327388	-0.133327	0.092558
N151	N	-0.349901	-0.192260	0.092897
H152	H	-0.331722	-0.239892	0.092636
H153	H	0.190982	0.119961	0.084916
N154	N	-0.483291	0.000137	-0.243307
N155	N	-0.482637	0.000133	-0.307986
H156	H	-0.450591	0.000114	-0.327801
N157	N	-0.046141	0.199631	0.088352
N158	N	-0.023625	0.258561	0.088003
H159	H	-0.041802	0.306196	0.088252
H160	H	-0.424077	-0.119647	0.093975
N161	N	-0.429321	0.133559	0.094043
N162	N	-0.452887	0.148282	0.143437
H163	H	-0.471078	0.195902	0.143706
N164	N	-0.484777	0.000141	-0.096869
N165	N	-0.445115	0.000120	-0.121389
H166	H	-0.413597	0.000105	-0.088943
H167	H	-0.100686	-0.185631	0.089210
N168	N	0.287673	0.133647	0.083495
N169	N	0.320372	0.148373	0.132058
H170	H	0.338559	0.195995	0.131791
N171	N	-0.637498	0.188045	-0.007332
N172	N	-0.666966	0.222094	-0.049756
H173	H	-0.690801	0.194617	-0.084012
N174	N	-0.662893	0.000240	-0.132305
N175	N	-0.692301	0.051299	-0.146277
H176	H	-0.724351	0.051322	-0.126475
N177	N	-0.504141	0.342082	0.184911
N178	N	-0.474191	0.384625	0.163175
H179	H	-0.450399	0.412115	0.197484
N180	N	-0.504128	0.188004	0.184914
N181	N	-0.474691	0.222033	0.227380
H182	H	-0.450896	0.194539	0.261697
