data_functionalizedCrystal
_audit_creation_method	'MofGen! by Chris Wilmer'
_symmetry_space_group_name_H-M	'P1'
_symmetry_Int_Tables_number	1
_symmetry_cell_setting	triclinic
loop_
_symmetry_equiv_pos_as_xyz
  x,y,z
_cell_length_a	16.120566
_cell_length_b	18.215405
_cell_length_c	18.215399
_cell_angle_alpha	90.027541
_cell_angle_beta	92.919746
_cell_angle_gamma	87.118843
loop_
_atom_site_label
_atom_site_type_symbol
_atom_site_fract_x
_atom_site_fract_y
_atom_site_fract_z
Zn1	Zn	-1.274552	0.350108	-0.473157
Zn2	Zn	-1.024552	0.600108	-0.223157
Zn3	Zn	-0.774552	0.850108	0.026843
Zn4	Zn	-0.524552	1.100108	0.276843
Zn5	Zn	-1.274453	0.473175	-0.350087
Zn6	Zn	-1.024453	0.723175	-0.100087
Zn7	Zn	-0.774453	0.973175	0.149913
Zn8	Zn	-0.524453	1.223175	0.399913
Zn9	Zn	-1.135135	0.343883	-0.343865
Zn10	Zn	-0.885135	0.593883	-0.093865
Zn11	Zn	-0.635135	0.843883	0.156135
Zn12	Zn	-0.385135	1.093883	0.406135
Zn13	Zn	-1.135101	0.466888	-0.466876
Zn14	Zn	-0.885101	0.716888	-0.216876
Zn15	Zn	-0.635101	0.966888	0.033124
Zn16	Zn	-0.385101	1.216888	0.283124
O17	O	-1.204810	0.408513	-0.408496
O18	O	-0.954810	0.658513	-0.158496
O19	O	-0.704810	0.908513	0.091504
O20	O	-0.454810	1.158513	0.341504
O21	O	-1.391204	0.371669	-0.462064
O22	O	-1.141204	0.621669	-0.212064
O23	O	-0.891204	0.871669	0.037936
O24	O	-0.641204	1.121669	0.287936
O25	O	-1.255945	0.456050	-0.246276
O26	O	-1.005945	0.706050	0.003724
O27	O	-0.755945	0.956050	0.253724
O28	O	-0.505945	1.206050	0.503724
O29	O	-1.153684	0.241727	-0.361041
O30	O	-0.903684	0.491727	-0.111041
O31	O	-0.653684	0.741727	0.138959
O32	O	-0.403684	0.991727	0.388959
O33	O	-1.391132	0.462086	-0.371645
O34	O	-1.141132	0.712086	-0.121645
O35	O	-0.891132	0.962086	0.128355
O36	O	-0.641132	1.212086	0.378355
O37	O	-1.256113	0.246300	-0.456031
O38	O	-1.006113	0.496300	-0.206031
O39	O	-0.756113	0.746300	0.043969
O40	O	-0.506113	0.996300	0.293969
O41	O	-1.153588	0.361060	-0.241705
O42	O	-0.903588	0.611060	0.008295
O43	O	-0.653588	0.861060	0.258295
O44	O	-0.403588	1.111060	0.508295
O45	O	-1.018464	0.354964	-0.354950
O46	O	-0.768464	0.604964	-0.104950
O47	O	-0.518464	0.854964	0.145050
O48	O	-0.268464	1.104964	0.395050
O49	O	-1.153627	0.451371	-0.570694
O50	O	-0.903627	0.701371	-0.320694
O51	O	-0.653627	0.951371	-0.070694
O52	O	-0.403627	1.201371	0.179306
O53	O	-1.018440	0.445335	-0.445325
O54	O	-0.768440	0.695335	-0.195325
O55	O	-0.518440	0.945335	0.054675
O56	O	-0.268440	1.195335	0.304675
O57	O	-1.256080	0.365573	-0.575309
O58	O	-1.006080	0.615573	-0.325309
O59	O	-0.756080	0.865573	-0.075309
O60	O	-0.506080	1.115573	0.174691
O61	O	-1.255913	0.575322	-0.365554
O62	O	-1.005913	0.825322	-0.115554
O63	O	-0.755913	1.075322	0.134446
O64	O	-0.505913	1.325322	0.384446
O65	O	-1.153531	0.570704	-0.451359
O66	O	-0.903531	0.820704	-0.201359
O67	O	-0.653531	1.070704	0.048641
O68	O	-0.403531	1.320704	0.298641
C69	C	-0.988202	0.398793	-0.398781
C70	C	-0.738202	0.648793	-0.148781
C71	C	-0.488202	0.898793	0.101219
C72	C	-0.238202	1.148793	0.351219
C73	C	-0.895536	0.394652	-0.394643
C74	C	-0.645536	0.644652	-0.144643
C75	C	-0.395536	0.894652	0.105357
C76	C	-0.145536	1.144652	0.355357
C77	C	-1.204861	0.408465	-0.600451
C78	C	-0.954861	0.658465	-0.350451
C79	C	-0.704861	0.908465	-0.100451
C80	C	-0.454861	1.158465	0.149549
C81	C	-1.204883	0.408444	-0.682251
C82	C	-0.954883	0.658444	-0.432251
C83	C	-0.704883	0.908444	-0.182251
C84	C	-0.454883	1.158444	0.067749
C85	C	-1.204730	0.599716	-0.408467
C86	C	-0.954730	0.849716	-0.158467
C87	C	-0.704730	1.099716	0.091533
C88	C	-0.454730	1.349716	0.341533
C89	C	-1.204772	0.681517	-0.408483
C90	C	-0.954772	0.931517	-0.158483
C91	C	-0.704772	1.181517	0.091517
C92	C	-0.454772	1.431517	0.341517
C93	C	-0.725874	0.387074	-0.387093
C94	C	-0.475874	0.637074	-0.137093
C95	C	-0.225874	0.887074	0.112907
C96	C	0.024126	1.137074	0.362907
C97	C	-0.684587	0.430016	-0.429905
C98	C	-0.434587	0.680016	-0.179905
C99	C	-0.184587	0.930016	0.070095
C100	C	0.065413	1.180016	0.320095
C101	C	-0.590181	0.425800	-0.425704
C102	C	-0.340181	0.675800	-0.175704
C103	C	-0.090181	0.925800	0.074296
C104	C	0.159819	1.175800	0.324296
C105	C	-0.820288	0.391289	-0.391293
C106	C	-0.570288	0.641289	-0.141293
C107	C	-0.320288	0.891289	0.108707
C108	C	-0.070288	1.141289	0.358707
C109	C	-0.422264	0.418275	-0.418237
C110	C	-0.172264	0.668275	-0.168237
C111	C	0.077736	0.918275	0.081763
C112	C	0.327736	1.168275	0.331763
C113	C	-0.514930	0.422441	-0.422358
C114	C	-0.264930	0.672441	-0.172358
C115	C	-0.014930	0.922441	0.077642
C116	C	0.235070	1.172441	0.327642
C117	C	-1.204913	0.216565	-0.408542
C118	C	-0.954913	0.466565	-0.158542
C119	C	-0.704913	0.716565	0.091458
C120	C	-0.454913	0.966565	0.341458
C121	C	-1.204957	0.134768	-0.408562
C122	C	-0.954957	0.384768	-0.158562
C123	C	-0.704957	0.634768	0.091438
C124	C	-0.454957	0.884768	0.341438
C125	C	-1.258133	0.872032	-0.458009
C126	C	-1.008133	1.122032	-0.208009
C127	C	-0.758133	1.372032	0.041991
C128	C	-0.508133	1.622032	0.291991
C129	C	-1.258163	0.948892	-0.458024
C130	C	-1.008163	1.198892	-0.208024
C131	C	-0.758163	1.448892	0.041976
C132	C	-0.508163	1.698892	0.291976
C133	C	-1.151591	0.944247	-0.359033
C134	C	-0.901591	1.194247	-0.109033
C135	C	-0.651591	1.444247	0.140967
C136	C	-0.401591	1.694247	0.390967
C137	C	-1.151557	0.867388	-0.359022
C138	C	-0.901557	1.117388	-0.109022
C139	C	-0.651557	1.367388	0.140978
C140	C	-0.401557	1.617388	0.390978
C141	C	-1.204833	0.831283	-0.408509
C142	C	-0.954833	1.081283	-0.158509
C143	C	-0.704833	1.331283	0.091491
C144	C	-0.454833	1.581283	0.341491
C145	C	-1.204897	0.985002	-0.408535
C146	C	-0.954897	1.235002	-0.158535
C147	C	-0.704897	1.485002	0.091465
C148	C	-0.454897	1.735002	0.341465
C149	C	-1.204929	1.068337	-0.408552
C150	C	-0.954929	1.318337	-0.158552
C151	C	-0.704929	1.568337	0.091448
C152	C	-0.454929	1.818337	0.341448
C153	C	-1.204799	0.747943	-0.408494
C154	C	-0.954799	0.997943	-0.158494
C155	C	-0.704799	1.247943	0.091506
C156	C	-0.454799	1.497943	0.341506
C157	C	-1.258249	0.363726	-0.872850
C158	C	-1.008249	0.613726	-0.622850
C159	C	-0.758249	0.863726	-0.372850
C160	C	-0.508249	1.113726	-0.122850
C161	C	-1.258259	0.363705	-0.949709
C162	C	-1.008259	0.613705	-0.699709
C163	C	-0.758259	0.863705	-0.449709
C164	C	-0.508259	1.113705	-0.199709
C165	C	-1.151575	0.453051	-0.944893
C166	C	-0.901575	0.703051	-0.694893
C167	C	-0.651575	0.953051	-0.444893
C168	C	-0.401575	1.203051	-0.194893
C169	C	-1.151561	0.453068	-0.868035
C170	C	-0.901561	0.703068	-0.618035
C171	C	-0.651561	0.953068	-0.368035
C172	C	-0.401561	1.203068	-0.118035
C173	C	-1.204903	0.408407	-0.832016
C174	C	-0.954903	0.658407	-0.582016
C175	C	-0.704903	0.908407	-0.332016
C176	C	-0.454903	1.158407	-0.082016
C177	C	-1.204927	0.408369	-0.985733
C178	C	-0.954927	0.658369	-0.735733
C179	C	-0.704927	0.908369	-0.485733
C180	C	-0.454927	1.158369	-0.235733
C181	C	-1.204937	0.408347	-1.069067
C182	C	-0.954937	0.658347	-0.819067
C183	C	-0.704937	0.908347	-0.569067
C184	C	-0.454937	1.158347	-0.319067
C185	C	-1.204892	0.408428	-0.748676
C186	C	-0.954892	0.658428	-0.498676
C187	C	-0.704892	0.908428	-0.248676
C188	C	-0.454892	1.158428	0.001324
C189	C	-1.204807	0.408511	-0.217290
C190	C	-0.954807	0.658511	0.032710
C191	C	-0.704807	0.908511	0.282710
C192	C	-0.454807	1.158511	0.532710
C193	C	-1.204947	0.408331	-0.135498
C194	C	-0.954947	0.658331	0.114502
C195	C	-0.704947	0.908331	0.364502
C196	C	-0.454947	1.158331	0.614502
H197	H	-0.720140	0.469945	-0.469713
H198	H	-0.470140	0.719945	-0.219713
H199	H	-0.220140	0.969945	0.030287
H200	H	0.029860	1.219945	0.280287
C201	C	-0.677850	0.333143	-0.333314
C202	C	-0.427850	0.583143	-0.083314
C203	C	-0.177850	0.833143	0.166686
C204	C	0.072150	1.083143	0.416686
H205	H	-0.619781	0.337358	-0.337507
H206	H	-0.369781	0.587358	-0.087507
H207	H	-0.119781	0.837358	0.162493
H208	H	0.130219	1.087358	0.412493
H209	H	-0.692090	0.284330	-0.344783
H210	H	-0.442090	0.534330	-0.094783
H211	H	-0.192090	0.784330	0.155217
H212	H	0.057910	1.034330	0.405217
H213	H	-0.692038	0.344482	-0.284466
H214	H	-0.442038	0.594482	-0.034466
H215	H	-0.192038	0.844482	0.215534
H216	H	0.057962	1.094482	0.465534
H217	H	-1.301512	0.842637	-0.498305
H218	H	-1.051512	1.092637	-0.248305
H219	H	-0.801512	1.342637	0.001695
H220	H	-0.551512	1.592637	0.251695
H221	H	-1.108114	0.489451	-0.834786
H222	H	-0.858114	0.739451	-0.584786
H223	H	-0.608114	0.989451	-0.334786
H224	H	-0.358114	1.239451	-0.084786
C225	C	-1.316944	0.314560	-0.994625
C226	C	-1.066944	0.564560	-0.744625
C227	C	-0.816944	0.814560	-0.494625
C228	C	-0.566944	1.064560	-0.244625
H229	H	-1.348712	0.287970	-0.962163
H230	H	-1.098712	0.537970	-0.712163
H231	H	-0.848712	0.787970	-0.462163
H232	H	-0.598712	1.037970	-0.212163
H233	H	-1.285077	0.281056	-1.023183
H234	H	-1.035077	0.531056	-0.773183
H235	H	-0.785077	0.781056	-0.523183
H236	H	-0.535077	1.031056	-0.273183
H237	H	-1.353262	0.344340	-1.026230
H238	H	-1.103262	0.594340	-0.776230
H239	H	-0.853262	0.844340	-0.526230
H240	H	-0.603262	1.094340	-0.276230
H241	H	-1.108217	0.973654	-0.318742
H242	H	-0.858217	1.223654	-0.068742
H243	H	-0.608217	1.473654	0.181258
H244	H	-0.358217	1.723654	0.431258
H245	H	-1.301563	0.982067	-0.498333
H246	H	-1.051563	1.232067	-0.248333
H247	H	-0.801563	1.482067	0.001667
H248	H	-0.551563	1.732067	0.251667
C249	C	-1.316915	0.314597	-0.833228
C250	C	-1.066915	0.564597	-0.583228
C251	C	-0.816915	0.814597	-0.333228
C252	C	-0.566915	1.064597	-0.083228
H253	H	-1.309274	0.321010	-0.781605
H254	H	-1.059274	0.571010	-0.531605
H255	H	-0.809274	0.821010	-0.281605
H256	H	-0.559274	1.071010	-0.031605
H257	H	-1.304740	0.264602	-0.845289
H258	H	-1.054740	0.514602	-0.595289
H259	H	-0.804740	0.764602	-0.345289
H260	H	-0.554740	1.014602	-0.095289
H261	H	-1.372931	0.327881	-0.848338
H262	H	-1.122931	0.577881	-0.598338
H263	H	-0.872931	0.827881	-0.348338
H264	H	-0.622931	1.077881	-0.098338
H265	H	-1.108147	0.489414	-0.974229
H266	H	-0.858147	0.739414	-0.724229
H267	H	-0.608147	0.989414	-0.474229
H268	H	-0.358147	1.239414	-0.224229
C269	C	-1.092926	0.822561	-0.304568
C270	C	-0.842926	1.072561	-0.054568
C271	C	-0.592926	1.322561	0.195432
C272	C	-0.342926	1.572561	0.445432
H273	H	-1.061210	0.855071	-0.275090
H274	H	-0.811210	1.105071	-0.025090
H275	H	-0.561210	1.355071	0.224910
H276	H	-0.311210	1.605071	0.474910
H277	H	-1.056569	0.790958	-0.331059
H278	H	-0.806569	1.040958	-0.081059
H279	H	-0.556569	1.290958	0.168941
H280	H	-0.306569	1.540958	0.418941
H281	H	-1.124834	0.794007	-0.273953
H282	H	-0.874834	1.044007	-0.023953
H283	H	-0.624834	1.294007	0.226047
H284	H	-0.374834	1.544007	0.476047
