data_functionalizedCrystal
_audit_creation_method	'MofGen! by Chris Wilmer'
_symmetry_space_group_name_H-M	'P1'
_symmetry_Int_Tables_number	1
_symmetry_cell_setting	triclinic
loop_
_symmetry_equiv_pos_as_xyz
  x,y,z
_cell_length_a	14.853566
_cell_length_b	27.732064
_cell_length_c	13.930277
_cell_angle_alpha	89.999521
_cell_angle_beta	89.995631
_cell_angle_gamma	83.141919
loop_
_atom_site_label
_atom_site_type_symbol
_atom_site_fract_x
_atom_site_fract_y
_atom_site_fract_z
O1	O	1.195350	0.063103	-0.079758
O2	O	0.932768	0.070621	-0.079773
O3	O	1.072206	-0.003496	-0.079769
O4	O	1.055912	0.137220	-0.079763
O5	O	1.072187	-0.003497	0.079893
O6	O	0.932749	0.070620	0.079889
O7	O	1.195330	0.063102	0.079903
Zn8	Zn	1.064037	0.066860	0.105246
Zn9	Zn	1.064062	0.066862	-0.105116
O10	O	1.055892	0.137219	0.079899
C11	C	0.899176	0.070280	0.000056
C12	C	0.799108	0.069259	0.000050
C13	C	0.376004	0.064944	-0.086965
C14	C	0.376004	0.064943	0.087104
C15	C	0.470023	0.065901	0.087101
C16	C	0.517036	0.066381	0.000064
C17	C	0.470031	0.065904	-0.086971
C18	C	0.517034	0.066384	0.174134
C19	C	0.611058	0.067342	0.174135
C20	C	0.658074	0.067820	0.087096
C21	C	0.611063	0.067341	0.000058
C22	C	0.658076	0.067822	-0.086979
C23	C	0.611068	0.067340	-0.174019
C24	C	0.517046	0.066381	-0.174010
C25	C	0.752095	0.068779	0.087087
C26	C	0.752103	0.068782	-0.086985
C27	C	1.071852	-0.021505	0.000059
C28	C	1.070816	-0.075164	0.000050
C29	C	0.981356	-0.452655	0.000041
C30	C	0.985172	-0.250977	0.000040
O31	O	0.915754	-0.220049	-0.000002
N32	N	1.067856	-0.231463	0.000045
C33	C	1.149592	-0.262372	0.000043
O34	O	1.220008	-0.241147	0.000037
C35	C	1.145775	-0.464049	0.000037
C36	C	1.063086	-0.483560	0.000042
C37	C	0.898673	-0.472167	0.000045
C38	C	0.897720	-0.522583	0.000051
C39	C	0.979450	-0.553488	0.000052
C40	C	1.062132	-0.533977	0.000048
C41	C	1.227510	-0.494957	0.000029
C42	C	1.226548	-0.545379	0.000025
C43	C	1.143859	-0.564890	0.000030
C44	C	1.142909	-0.615299	0.000055
N45	N	1.060225	-0.634812	0.000050
C46	C	0.978495	-0.603907	0.000049
C47	C	1.151591	-0.156488	0.000048
C48	C	1.152545	-0.106069	0.000051
C49	C	0.988125	-0.094678	0.000046
C50	C	0.987171	-0.145098	0.000050
C51	C	1.068906	-0.176002	0.000043
C52	C	0.976500	-0.709786	0.000061
C53	C	0.975554	-0.760208	0.000071
C54	C	1.139974	-0.771595	0.000070
C55	C	1.140920	-0.721178	0.000066
C56	C	1.059176	-0.690274	0.000058
O57	O	1.212290	-0.646255	0.000086
O58	O	0.908090	-0.625142	0.000034
C59	C	0.982309	-0.402239	0.000035
C60	C	1.064992	-0.382727	0.000031
C61	C	1.146722	-0.413632	0.000033
C62	C	1.065947	-0.332308	0.000035
C63	C	0.984217	-0.301403	0.000033
C64	C	0.901533	-0.320917	0.000029
C65	C	0.900580	-0.371334	0.000034
C66	C	1.229406	-0.394118	0.000037
C67	C	1.230352	-0.343701	0.000033
C68	C	1.148623	-0.312796	0.000032
C69	C	1.228923	0.063443	0.000072
C70	C	1.328990	0.064463	0.000072
C71	C	1.056246	0.155228	0.000069
C72	C	1.057283	0.208887	0.000072
N73	N	1.064026	0.066859	0.248812
N74	N	1.064080	0.066860	-0.248682
C75	C	1.002317	0.099669	0.701079
C76	C	1.125832	0.034053	0.701052
C77	C	1.125822	0.034051	0.600557
C78	C	1.064058	0.066859	0.550318
C79	C	1.002306	0.099669	0.600574
C80	C	1.187579	0.001245	0.550292
C81	C	1.187571	0.001243	0.449791
C82	C	1.125803	0.034049	0.399550
C83	C	1.064048	0.066860	0.449813
C84	C	1.002284	0.099668	0.399574
C85	C	0.940524	0.132477	0.449835
C86	C	0.940538	0.132475	0.550333
C87	C	1.125789	0.034050	0.299051
C88	C	1.002274	0.099668	0.299069
H89	H	0.790364	0.069176	0.157953
H90	H	0.337720	0.064555	0.157966
H91	H	0.890255	0.159188	0.591262
H92	H	1.237869	-0.025464	0.591200
H93	H	0.478748	0.065995	0.244995
Br94	Br	0.918440	0.144193	0.230894
H95	H	0.337726	0.064550	-0.157831
H96	H	1.176078	0.007340	0.258133
Br97	Br	0.856714	0.177005	0.381642
H98	H	0.952030	0.126380	0.742004
Br99	Br	1.340337	-0.436054	0.000040
H100	H	1.176122	0.007343	0.741960
Br101	Br	0.674847	0.067996	0.292256
Br102	Br	1.271385	-0.043282	0.381585
H103	H	0.832115	-0.447008	0.000041
Br104	Br	0.815901	0.069428	-0.205114
Br105	Br	0.863325	-0.786683	0.000083
Br106	Br	0.674881	0.067998	-0.292136
H107	H	0.909935	-0.684630	0.000054
Br108	Br	0.453251	0.065705	-0.292123
Br109	Br	0.785493	-0.549054	0.000048
H110	H	0.921577	-0.069506	0.000049
Br111	Br	1.342585	-0.317229	0.000027
H112	H	0.919838	-0.160980	0.000058
H113	H	1.219879	-0.090188	0.000062
H114	H	1.218153	-0.181647	0.000044
H115	H	1.294845	-0.479081	0.000024
Br116	Br	0.788352	-0.397804	0.000041
H117	H	1.206516	-0.796767	0.000076
H118	H	1.293109	-0.570540	0.000014
Br119	Br	1.253142	-0.694698	0.000100
H120	H	0.834986	-0.295745	0.000033
