data_functionalizedCrystal
_audit_creation_method	'MofGen! by Chris Wilmer'
_symmetry_space_group_name_H-M	'P1'
_symmetry_Int_Tables_number	1
_symmetry_cell_setting	triclinic
loop_
_symmetry_equiv_pos_as_xyz
  x,y,z
_cell_length_a	12.837943
_cell_length_b	10.540510
_cell_length_c	11.892095
_cell_angle_alpha	93.930478
_cell_angle_beta	85.689438
_cell_angle_gamma	89.671125
loop_
_atom_site_label
_atom_site_type_symbol
_atom_site_fract_x
_atom_site_fract_y
_atom_site_fract_z
O1	O	1.384442	0.322968	-0.093971
O2	O	1.082518	0.306652	-0.093978
O3	O	1.240384	0.130860	-0.093974
O4	O	1.226576	0.498760	-0.093975
O5	O	1.227222	0.145492	0.094033
O6	O	1.069355	0.321284	0.094029
O7	O	1.371280	0.337600	0.094036
Zn8	Zn	1.218227	0.331766	0.123883
Zn9	Zn	1.235570	0.312487	-0.123825
O10	O	1.213413	0.513393	0.094032
C11	C	1.037276	0.308456	0.000024
C12	C	0.922079	0.292018	0.000021
C13	C	1.232774	0.090759	0.000027
C14	C	1.229696	-0.050530	0.000020
C15	C	0.682565	0.489638	0.000037
C16	C	0.574326	0.474199	0.000035
C17	C	0.597360	0.245701	0.000023
C18	C	0.705599	0.261140	0.000025
C19	C	0.748197	0.383113	0.000030
C20	C	0.856438	0.398551	0.000024
C21	C	0.879469	0.170055	0.000021
C22	C	0.771231	0.154615	0.000019
C23	C	1.339335	-0.255902	0.000453
C24	C	1.342649	-0.108979	0.000024
C25	C	1.179391	-0.109997	-0.107340
C26	C	1.176913	-0.257037	-0.107424
C27	C	1.159592	-0.240464	0.106375
C28	C	1.164851	-0.093425	0.107788
C29	C	1.416522	0.335796	0.000031
C30	C	1.531720	0.352234	0.000026
C31	C	1.221024	0.553493	0.000028
C32	C	1.224102	0.694781	0.000028
N33	N	1.206399	0.344923	0.292936
N34	N	1.247406	0.299321	-0.292879
C35	C	1.329712	0.207694	0.529587
C36	C	1.321452	0.216901	0.647929
C37	C	1.181614	0.372536	0.647963
C38	C	1.189874	0.363329	0.529622
C39	C	1.263927	0.280907	0.470438
C40	C	1.272192	0.271707	0.352094
C41	C	1.132349	0.427335	0.352131
C42	C	1.124089	0.436542	0.470472
H43	H	0.891119	0.497867	0.000030
H44	H	0.562650	0.146404	0.000113
H45	H	1.078785	0.486954	0.303958
H46	H	1.063794	0.503646	0.518673
N47	N	0.728521	0.621183	0.000024
H48	H	0.670518	0.686326	0.000021
H49	H	0.768051	0.637994	0.069720
H50	H	0.932920	0.083313	0.000008
H51	H	1.201363	-0.054009	0.187212
H52	H	1.081933	-0.052914	0.114269
H53	H	0.520891	0.560944	0.000043
N54	N	1.395421	-0.055604	0.101980
H55	H	1.468978	-0.090801	0.099206
H56	H	1.397608	0.040151	0.101854
N57	N	0.725270	0.023072	0.000023
H58	H	0.685750	0.006155	-0.069670
H59	H	0.783325	-0.041990	0.000062
N60	N	1.390493	-0.297118	0.102442
H61	H	1.339474	-0.348165	0.149361
H62	H	1.454211	-0.351144	0.076746
N63	N	1.239985	-0.071540	-0.213181
H64	H	1.238941	0.024173	-0.214409
H65	H	1.314575	-0.102832	-0.214176
N66	N	1.352062	0.182819	0.288255
H67	H	1.392480	0.137834	0.343688
H68	H	1.315358	0.118003	0.239161
H69	H	1.074736	-0.271876	0.107096
H70	H	1.375020	0.157282	0.696085
N71	N	1.409588	0.118816	0.465744
H72	H	1.450015	0.073837	0.521174
H73	H	1.372890	0.053995	0.416650
N74	N	1.404400	-0.315051	-0.100946
H75	H	1.359556	-0.373653	-0.147158
H76	H	1.433032	-0.245829	-0.148808
H77	H	1.393551	-0.081574	-0.077067
H78	H	1.222047	-0.299157	-0.187676
N79	N	1.101746	0.461412	0.711822
H80	H	1.138380	0.526298	0.760921
H81	H	1.061337	0.506315	0.656335
N82	N	1.065466	-0.300304	-0.113897
H83	H	1.037677	-0.272390	-0.185611
H84	H	1.063074	-0.396064	-0.113958
N85	N	1.069613	-0.059751	-0.112641
H86	H	1.051390	0.002194	-0.045338
H87	H	1.064955	-0.015085	-0.184594
N88	N	1.199326	-0.283095	0.214171
H89	H	1.259552	-0.344826	0.195155
H90	H	1.223699	-0.206762	0.260756
