data_functionalizedCrystal
_audit_creation_method	'MofGen! by Chris Wilmer'
_symmetry_space_group_name_H-M	'P1'
_symmetry_Int_Tables_number	1
_symmetry_cell_setting	triclinic
loop_
_symmetry_equiv_pos_as_xyz
  x,y,z
_cell_length_a	18.215407
_cell_length_b	10.685194
_cell_length_c	18.215399
_cell_angle_alpha	85.603424
_cell_angle_beta	89.980167
_cell_angle_gamma	94.377432
loop_
_atom_site_label
_atom_site_type_symbol
_atom_site_fract_x
_atom_site_fract_y
_atom_site_fract_z
Zn1	Zn	1.102699	-0.502407	-0.393658
Zn2	Zn	1.602699	-0.002407	0.106342
Zn3	Zn	1.093210	-0.713450	-0.261159
Zn4	Zn	1.593210	-0.213450	0.238841
Zn5	Zn	0.979630	-0.502448	-0.270604
Zn6	Zn	1.479630	-0.002448	0.229396
Zn7	Zn	0.970203	-0.713379	-0.384187
Zn8	Zn	1.470203	-0.213379	0.115813
O9	O	1.036436	-0.607921	-0.327402
O10	O	1.536436	-0.107921	0.172598
O11	O	1.204424	-0.530414	-0.376093
O12	O	1.704424	-0.030414	0.123907
O13	O	1.078117	-0.685507	-0.159425
O14	O	1.578117	-0.185507	0.340575
O15	O	1.003872	-0.325846	-0.294844
O16	O	1.503872	0.174154	0.205156
O17	O	1.197452	-0.685467	-0.278746
O18	O	1.697452	-0.185467	0.221254
O19	O	1.094291	-0.325815	-0.385252
O20	O	1.594291	0.174185	0.114748
O21	O	0.994671	-0.530485	-0.166365
O22	O	1.494671	-0.030485	0.333635
O23	O	0.875396	-0.530417	-0.285660
O24	O	1.375396	-0.030417	0.214340
O25	O	0.987805	-0.685347	-0.488430
O26	O	1.487805	-0.185347	0.011570
O27	O	0.868470	-0.685387	-0.369109
O28	O	1.368470	-0.185387	0.130891
O29	O	1.085150	-0.530346	-0.495388
O30	O	1.585150	-0.030346	0.004612
O31	O	1.068976	-0.890038	-0.269562
O32	O	1.568976	-0.390038	0.230438
O33	O	0.978604	-0.889986	-0.359950
O34	O	1.478604	-0.389986	0.140050
C35	C	0.845230	-0.607900	-0.327382
C36	C	1.345230	-0.107900	0.172618
C37	C	0.763430	-0.607921	-0.327389
C38	C	1.263430	-0.107921	0.172611
C39	C	1.021757	-0.935802	-0.312719
C40	C	1.521757	-0.435802	0.187281
C41	C	1.015545	-1.076070	-0.306462
C42	C	1.515545	-0.576070	0.193538
C43	C	0.571644	-0.688740	-0.370776
C44	C	1.071644	-0.188740	0.129224
C45	C	0.494785	-0.688744	-0.370785
C46	C	0.994785	-0.188744	0.129215
C47	C	0.501978	-0.527125	-0.284043
C48	C	1.001978	-0.027125	0.215957
C49	C	0.578836	-0.527115	-0.284038
C50	C	1.078836	-0.027115	0.215962
C51	C	0.613667	-0.607930	-0.327404
C52	C	1.113667	-0.107930	0.172596
C53	C	0.459950	-0.607944	-0.327417
C54	C	0.959950	-0.107944	0.172583
C55	C	0.376616	-0.607947	-0.327427
C56	C	0.876616	-0.107947	0.172573
C57	C	0.697006	-0.607925	-0.327395
C58	C	1.197006	-0.107925	0.172605
C59	C	1.228387	-0.607944	-0.327423
C60	C	1.728387	-0.107944	0.172577
C61	C	1.310186	-0.607953	-0.327431
C62	C	1.810186	-0.107953	0.172569
C63	C	1.036484	-0.607834	-0.519359
C64	C	1.536484	-0.107834	-0.019359
C65	C	1.036505	-0.607797	-0.601159
C66	C	1.536505	-0.107797	-0.101159
C67	C	1.051191	-0.278760	-0.342158
C68	C	1.551191	0.221240	0.157842
C69	C	1.057480	-0.138492	-0.348447
C70	C	1.557480	0.361508	0.151553
C71	C	1.087213	-0.527013	-0.792982
C72	C	1.587213	-0.027013	-0.292982
C73	C	1.087223	-0.526976	-0.869842
C74	C	1.587223	-0.026976	-0.369842
C75	C	0.985858	-0.688386	-0.862584
C76	C	1.485858	-0.188386	-0.362584
C77	C	0.985845	-0.688416	-0.785725
C78	C	1.485845	-0.188416	-0.285725
C79	C	1.036526	-0.607731	-0.750926
C80	C	1.536526	-0.107731	-0.250926
C81	C	1.036550	-0.607665	-0.904645
C82	C	1.536550	-0.107665	-0.404645
C83	C	1.036561	-0.607625	-0.987981
C84	C	1.536561	-0.107625	-0.487981
C85	C	1.036515	-0.607768	-0.667585
C86	C	1.536515	-0.107768	-0.167585
C87	C	1.036433	-0.607917	-0.136196
C88	C	1.536433	-0.107917	0.363804
C89	C	1.036571	-0.607598	-0.054412
C90	C	1.536571	-0.107598	0.445588
H91	H	0.600000	-0.754542	-0.406089
H92	H	1.100000	-0.254542	0.093911
O93	O	0.967077	-1.140193	-0.257770
O94	O	1.467077	-0.640193	0.242230
C95	C	0.984618	-1.108161	-0.185848
C96	C	1.484618	-0.608161	0.314152
H97	H	1.017106	-1.012392	-0.188570
H98	H	1.517106	-0.512392	0.311430
H99	H	0.931711	-1.103891	-0.152988
H100	H	1.431711	-0.603891	0.347012
H101	H	1.019220	-1.182294	-0.157828
H102	H	1.519220	-0.682294	0.342172
O103	O	1.136505	-0.448808	-0.759135
O104	O	1.636505	0.051192	-0.259135
C105	C	1.180802	-0.520665	-0.711447
C106	C	1.680802	-0.020665	-0.211447
H107	H	1.180905	-0.620049	-0.730151
H108	H	1.680905	-0.120049	-0.230151
H109	H	1.239480	-0.475015	-0.712633
H110	H	1.739480	0.024985	-0.212633
H111	H	1.157842	-0.525035	-0.652999
H112	H	1.657842	-0.025035	-0.152999
O113	O	0.936635	-0.766713	-0.744759
O114	O	1.436635	-0.266713	-0.244759
C115	C	0.947503	-0.749454	-0.669459
C116	C	1.447503	-0.249454	-0.169459
H117	H	0.975968	-0.652068	-0.663339
H118	H	1.475968	-0.152068	-0.163339
H119	H	0.891991	-0.758019	-0.639853
H120	H	1.391991	-0.258019	-0.139853
H121	H	0.983336	-0.824318	-0.644297
H122	H	1.483336	-0.324318	-0.144297
H123	H	0.944597	-0.754079	-0.890927
H124	H	1.444597	-0.254079	-0.390927
O125	O	0.453939	-0.767066	-0.413002
O126	O	0.953939	-0.267066	0.086998
C127	C	0.412701	-0.695329	-0.463809
C128	C	0.912701	-0.195329	0.036191
H129	H	0.440312	-0.595944	-0.472898
H130	H	0.940312	-0.095944	0.027102
H131	H	0.409806	-0.741097	-0.518351
H132	H	0.909806	-0.241097	-0.018351
H133	H	0.354638	-0.690938	-0.441262
H134	H	0.854638	-0.190938	0.058738
H135	H	0.613053	-0.461302	-0.248719
H136	H	1.113053	0.038698	0.251281
O137	O	0.468023	-0.448746	-0.241937
O138	O	0.968023	0.051254	0.258063
C139	C	0.391176	-0.466057	-0.251254
C140	C	0.891176	0.033943	0.248746
H141	H	0.376328	-0.563504	-0.270899
H142	H	0.876328	-0.063504	0.229101
H143	H	0.362332	-0.457375	-0.196529
H144	H	0.862332	0.042625	0.303471
H145	H	0.372729	-0.391294	-0.293867
H146	H	0.872729	0.108706	0.206133
H147	H	1.098135	-1.084625	-0.389181
H148	H	1.598135	-0.584625	0.110819
H149	H	1.128496	-0.461245	-0.904081
H150	H	1.628496	0.038755	-0.404081
