data_functionalizedCrystal
_audit_creation_method	'MofGen! by Chris Wilmer'
_symmetry_space_group_name_H-M	'P1'
_symmetry_Int_Tables_number	1
_symmetry_cell_setting	triclinic
loop_
_symmetry_equiv_pos_as_xyz
  x,y,z
_cell_length_a	16.120530
_cell_length_b	16.120484
_cell_length_c	13.897441
_cell_angle_alpha	87.134365
_cell_angle_beta	92.919063
_cell_angle_gamma	90.167327
loop_
_atom_site_label
_atom_site_type_symbol
_atom_site_fract_x
_atom_site_fract_y
_atom_site_fract_z
Zn1	Zn	1.254496	-0.395574	0.642097
Zn2	Zn	1.504496	-0.145574	0.892097
Zn3	Zn	1.754496	0.104426	1.142097
Zn4	Zn	2.004496	0.354426	1.392097
Zn5	Zn	1.247333	-0.534641	0.488526
Zn6	Zn	1.497333	-0.284641	0.738526
Zn7	Zn	1.747333	-0.034641	0.988526
Zn8	Zn	1.997333	0.215359	1.238526
Zn9	Zn	1.115429	-0.388549	0.472252
Zn10	Zn	1.365429	-0.138549	0.722252
Zn11	Zn	1.615429	0.111451	0.972252
Zn12	Zn	1.865429	0.361451	1.222252
Zn13	Zn	1.108348	-0.527527	0.641215
Zn14	Zn	1.358348	-0.277527	0.891215
Zn15	Zn	1.608348	-0.027527	1.141215
Zn16	Zn	1.858348	0.222473	1.391215
O17	O	1.181401	-0.461573	0.561022
O18	O	1.431401	-0.211573	0.811022
O19	O	1.681401	0.038427	1.061022
O20	O	1.931401	0.288427	1.311022
O21	O	1.369911	-0.419938	0.628906
O22	O	1.619911	-0.169938	0.878906
O23	O	1.869911	0.080062	1.128906
O24	O	2.119911	0.330062	1.378906
O25	O	1.229802	-0.515300	0.351386
O26	O	1.479802	-0.265300	0.601386
O27	O	1.729802	-0.015300	0.851386
O28	O	1.979802	0.234700	1.101386
O29	O	1.139838	-0.273118	0.488340
O30	O	1.389838	-0.023118	0.738340
O31	O	1.639838	0.226882	0.988340
O32	O	1.889838	0.476882	1.238340
O33	O	1.364649	-0.522111	0.516078
O34	O	1.614649	-0.272111	0.766078
O35	O	1.864649	-0.022111	1.016078
O36	O	2.114649	0.227889	1.266078
O37	O	1.242009	-0.278279	0.613125
O38	O	1.492009	-0.028279	0.863125
O39	O	1.742009	0.221721	1.113125
O40	O	1.992009	0.471721	1.363125
O41	O	1.132893	-0.407967	0.339429
O42	O	1.382893	-0.157967	0.589429
O43	O	1.632893	0.092033	0.839429
O44	O	1.882893	0.342033	1.089429
O45	O	0.998124	-0.401068	0.487485
O46	O	1.248124	-0.151068	0.737485
O47	O	1.498124	0.098932	0.987485
O48	O	1.748124	0.348932	1.237485
O49	O	1.127768	-0.509985	0.776313
O50	O	1.377768	-0.259985	1.026313
O51	O	1.627768	-0.009985	1.276313
O52	O	1.877768	0.240015	1.526313
O53	O	0.992921	-0.503174	0.611621
O54	O	1.242921	-0.253174	0.861621
O55	O	1.492921	-0.003174	1.111621
O56	O	1.742921	0.246826	1.361621
O57	O	1.235142	-0.413040	0.776962
O58	O	1.485142	-0.163040	1.026962
O59	O	1.735142	0.086960	1.276962
O60	O	1.985142	0.336960	1.526962
O61	O	1.222936	-0.650060	0.515222
O62	O	1.472936	-0.400060	0.765222
O63	O	1.722936	-0.150060	1.015222
O64	O	1.972936	0.099940	1.265222
O65	O	1.120823	-0.644833	0.627402
O66	O	1.370823	-0.394833	0.877402
O67	O	1.620823	-0.144833	1.127402
O68	O	1.870823	0.105167	1.377402
C69	C	0.965350	-0.450587	0.547692
C70	C	1.215350	-0.200587	0.797692
C71	C	1.465350	0.049413	1.047692
C72	C	1.715350	0.299413	1.297692
C73	C	0.872922	-0.445908	0.542013
C74	C	1.122922	-0.195908	0.792013
C75	C	1.372922	0.054092	1.042013
C76	C	1.622922	0.304092	1.292013
C77	C	0.703694	-0.437345	0.531652
C78	C	0.953694	-0.187345	0.781652
C79	C	1.203694	0.062655	1.031652
C80	C	1.453694	0.312655	1.281652
C81	C	0.659946	-0.485862	0.590467
C82	C	0.909946	-0.235862	0.840467
C83	C	1.159946	0.014138	1.090467
C84	C	1.409946	0.264138	1.340467
C85	C	0.565782	-0.481098	0.584702
C86	C	0.815782	-0.231098	0.834702
C87	C	1.065782	0.018902	1.084702
C88	C	1.315782	0.268902	1.334702
C89	C	0.797867	-0.442108	0.537415
C90	C	1.047867	-0.192108	0.787415
C91	C	1.297867	0.057892	1.037415
C92	C	1.547867	0.307892	1.287415
C93	C	1.170356	-0.677620	0.573005
C94	C	1.420356	-0.427620	0.823005
C95	C	1.670356	-0.177620	1.073005
C96	C	1.920356	0.072380	1.323005
C97	C	1.165707	-0.770049	0.578168
C98	C	1.415707	-0.520049	0.828168
C99	C	1.665707	-0.270049	1.078168
C100	C	1.915707	-0.020049	1.328168
C101	C	1.157224	-0.939280	0.587614
C102	C	1.407224	-0.689280	0.837614
C103	C	1.657224	-0.439280	1.087614
C104	C	1.907224	-0.189280	1.337614
C105	C	1.205728	-0.983033	0.534456
C106	C	1.455728	-0.733033	0.784456
C107	C	1.705728	-0.483033	1.034456
C108	C	1.955728	-0.233033	1.284456
C109	C	1.201008	-1.077199	0.539712
C110	C	1.451008	-0.827199	0.789712
C111	C	1.701008	-0.577199	1.039712
C112	C	1.951008	-0.327199	1.289712
C113	C	1.161943	-0.845105	0.582359
C114	C	1.411943	-0.595105	0.832359
C115	C	1.661943	-0.345105	1.082359
C116	C	1.911943	-0.095105	1.332359
C117	C	1.398296	-0.472602	0.574406
C118	C	1.648296	-0.222602	0.824406
C119	C	1.898296	0.027398	1.074406
C120	C	2.148296	0.277398	1.324406
C121	C	1.490724	-0.477302	0.580109
C122	C	1.740724	-0.227302	0.830109
C123	C	1.990724	0.022698	1.080109
C124	C	2.240724	0.272698	1.330109
C125	C	1.181464	-0.461502	0.812615
C126	C	1.431464	-0.211502	1.062615
C127	C	1.681464	0.038498	1.312615
C128	C	1.931464	0.288498	1.562615
C129	C	1.181491	-0.461472	0.919829
C130	C	1.431491	-0.211472	1.169829
C131	C	1.681491	0.038528	1.419829
C132	C	1.931491	0.288528	1.669829
C133	C	1.192512	-0.244684	0.549016
C134	C	1.442512	0.005316	0.799016
C135	C	1.692512	0.255316	1.049016
C136	C	1.942512	0.505316	1.299016
C137	C	1.197247	-0.152258	0.543899
C138	C	1.447247	0.097742	0.793899
C139	C	1.697247	0.347742	1.043899
C140	C	1.947247	0.597742	1.293899
C141	C	1.181390	-0.461585	0.310408
C142	C	1.431390	-0.211585	0.560408
C143	C	1.681390	0.038415	0.810408
C144	C	1.931390	0.288415	1.060408
C145	C	1.181536	-0.461389	0.203192
C146	C	1.431536	-0.211389	0.453192
C147	C	1.681536	0.038611	0.703192
C148	C	1.931536	0.288611	0.953192
C149	C	1.181516	-0.461417	1.116122
C150	C	1.431516	-0.211417	1.366122
C151	C	1.681516	0.038583	1.616122
C152	C	1.931516	0.288583	1.866122
C153	C	1.181500	-0.461450	1.006891
C154	C	1.431500	-0.211450	1.256891
C155	C	1.681500	0.038550	1.506891
C156	C	1.931500	0.288550	1.756891
H157	H	0.670431	-0.392234	0.476972
H158	H	0.920431	-0.142234	0.726972
H159	H	1.170431	0.107766	0.976972
H160	H	1.420431	0.357766	1.226972
Cl161	Cl	1.087642	-0.990631	0.663966
Cl162	Cl	1.337642	-0.740631	0.913966
Cl163	Cl	1.587642	-0.490631	1.163966
Cl164	Cl	1.837642	-0.240631	1.413966
Cl165	Cl	1.275309	-0.931682	0.458092
Cl166	Cl	1.525309	-0.681682	0.708092
Cl167	Cl	1.775309	-0.431682	0.958092
Cl168	Cl	2.025309	-0.181682	1.208092
H169	H	0.693212	-0.530976	0.645152
H170	H	0.943212	-0.280976	0.895152
H171	H	1.193212	-0.030976	1.145152
H172	H	1.443212	0.219024	1.395152
