data_functionalizedCrystal
_audit_creation_method	'MofGen! by Chris Wilmer'
_symmetry_space_group_name_H-M	'P1'
_symmetry_Int_Tables_number	1
_symmetry_cell_setting	triclinic
loop_
_symmetry_equiv_pos_as_xyz
  x,y,z
_cell_length_a	19.121063
_cell_length_b	17.639874
_cell_length_c	17.640968
_cell_angle_alpha	87.863041
_cell_angle_beta	81.648500
_cell_angle_gamma	76.853107
loop_
_atom_site_label
_atom_site_type_symbol
_atom_site_fract_x
_atom_site_fract_y
_atom_site_fract_z
Zn1	Zn	-0.020149	-1.247042	-0.196235
Zn2	Zn	0.479851	-0.747042	0.303765
Zn3	Zn	-0.164574	-1.215942	-0.077249
Zn4	Zn	0.335426	-0.715942	0.422751
Zn5	Zn	-0.065681	-1.092693	-0.097397
Zn6	Zn	0.434319	-0.592693	0.402603
Zn7	Zn	-0.155357	-1.115023	-0.229317
Zn8	Zn	0.344643	-0.615023	0.270683
O9	O	-0.101440	-1.167675	-0.150049
O10	O	0.398560	-0.667675	0.349951
O11	O	-0.024110	-1.349748	-0.158174
O12	O	0.475890	-0.849748	0.341826
O13	O	-0.174369	-1.177232	0.025083
O14	O	0.325631	-0.677232	0.525083
O15	O	0.038331	-1.116838	-0.105095
O16	O	0.538331	-0.616838	0.394905
O17	O	-0.130218	-1.326899	-0.070755
O18	O	0.369782	-0.826899	0.429245
O19	O	0.071783	-1.230238	-0.177711
O20	O	0.571783	-0.730238	0.322289
O21	O	-0.101712	-1.086682	0.010280
O22	O	0.398288	-0.586682	0.510280
O23	O	-0.092774	-0.988824	-0.137174
O24	O	0.407226	-0.488824	0.362826
O25	O	-0.114508	-1.154896	-0.329934
O26	O	0.385492	-0.654896	0.170066
O27	O	-0.158659	-1.005230	-0.234095
O28	O	0.341341	-0.505230	0.265905
O29	O	-0.015172	-1.251890	-0.305628
O30	O	0.484828	-0.751890	0.194372
O31	O	-0.261324	-1.198884	-0.102834
O32	O	0.238676	-0.698884	0.397166
O33	O	-0.254552	-1.124739	-0.214558
O34	O	0.245448	-0.624739	0.285442
C35	C	-0.129658	-0.969327	-0.191411
C36	C	0.370342	-0.469327	0.308589
C37	C	-0.141742	-0.884476	-0.209125
C38	C	0.358258	-0.384476	0.290875
C39	C	-0.009587	-0.562689	-0.015447
C40	C	0.490413	-0.062689	0.484553
C41	C	-0.020954	-0.482960	-0.032102
C42	C	0.479046	0.017040	0.467898
C43	C	-0.089719	-0.500057	-0.132867
C44	C	0.410281	-0.000057	0.367133
C45	C	-0.078354	-0.579790	-0.116223
C46	C	0.421646	-0.079790	0.383777
C47	C	-0.038288	-0.611099	-0.057511
C48	C	0.461712	-0.111099	0.442489
C49	C	-0.107056	-0.628200	-0.158287
C50	C	0.392944	-0.128200	0.341713
C51	C	-0.095695	-0.707925	-0.141641
C52	C	0.404305	-0.207925	0.358359
C53	C	-0.055633	-0.739240	-0.082930
C54	C	0.444367	-0.239240	0.417070
C55	C	-0.026928	-0.690824	-0.040865
C56	C	0.473072	-0.190824	0.459135
C57	C	-0.147126	-0.596889	-0.216995
C58	C	0.352874	-0.096889	0.283005
C59	C	-0.175828	-0.645299	-0.259059
C60	C	0.324172	-0.145299	0.240941
C61	C	-0.164463	-0.725026	-0.242417
C62	C	0.335537	-0.225026	0.257583
C63	C	-0.124401	-0.756341	-0.183707
C64	C	0.375599	-0.256341	0.316293
C65	C	-0.193168	-0.773442	-0.284483
C66	C	0.306832	-0.273442	0.215517
C67	C	-0.181808	-0.853167	-0.267837
C68	C	0.318192	-0.353167	0.232163
C69	C	-0.113040	-0.836066	-0.167060
C70	C	0.386960	-0.336066	0.332940
C71	C	-0.283334	-1.160884	-0.160112
C72	C	0.216666	-0.660884	0.339888
C73	C	-0.361134	-1.158054	-0.164427
C74	C	0.138866	-0.658054	0.335573
C75	C	-0.401173	-1.195374	-0.108317
C76	C	0.098827	-0.695374	0.391683
C77	C	-0.474272	-1.192718	-0.112379
C78	C	0.025728	-0.692718	0.387621
C79	C	-0.507332	-1.152737	-0.172548
C80	C	-0.007332	-0.652737	0.327452
C81	C	-0.467287	-1.115416	-0.228663
C82	C	0.032713	-0.615416	0.271337
C83	C	-0.394188	-1.118077	-0.224604
C84	C	0.105812	-0.618077	0.275396
C85	C	-0.727868	-1.142772	-0.187716
C86	C	-0.227868	-0.642772	0.312284
C87	C	-0.800973	-1.140112	-0.191770
C88	C	-0.300973	-0.640112	0.308230
C89	C	-0.807952	-1.217416	-0.075486
C90	C	-0.307952	-0.717416	0.424514
C91	C	-0.734853	-1.220070	-0.071430
C92	C	-0.234853	-0.720070	0.428570
C93	C	-0.694813	-1.182752	-0.127547
C94	C	-0.194813	-0.682752	0.372453
C95	C	-0.582051	-1.150019	-0.176700
C96	C	-0.082051	-0.650019	0.323300
C97	C	-0.620094	-1.185475	-0.123397
C98	C	-0.120094	-0.685475	0.376603
C99	C	0.081170	-1.174517	-0.139960
C100	C	0.581170	-0.674517	0.360040
C101	C	0.158988	-1.177432	-0.135661
C102	C	0.658988	-0.677432	0.364339
C103	C	-0.058733	-1.209353	-0.345769
C104	C	0.441267	-0.709353	0.154231
C105	C	-0.040534	-1.227114	-0.429173
C106	C	0.459466	-0.727114	0.070827
C107	C	-0.073106	-0.366796	-0.108518
C108	C	0.426894	0.133204	0.391482
C109	C	-0.061013	-0.451647	-0.090799
C110	C	0.438987	0.048353	0.409201
C111	C	-0.239276	-1.033056	-0.766745
C112	C	0.260724	-0.533056	-0.266745
C113	C	-0.222164	-1.049762	-0.845112
C114	C	0.277836	-0.549762	-0.345112
C115	C	-0.118734	-1.150753	-0.819794
C116	C	0.381266	-0.650753	-0.319794
C117	C	-0.135835	-1.134054	-0.741424
C118	C	0.364165	-0.634054	-0.241424
C119	C	-0.196108	-1.075205	-0.714906
C120	C	0.303892	-0.575205	-0.214906
C121	C	-0.092667	-1.176203	-0.689585
C122	C	0.407333	-0.676203	-0.189585
C123	C	-0.109769	-1.159507	-0.611221
C124	C	0.390231	-0.659507	-0.111221
C125	C	-0.170040	-1.100663	-0.584697
C126	C	0.329960	-0.600663	-0.084697
C127	C	-0.213210	-1.058510	-0.636542
C128	C	0.286790	-0.558510	-0.136542
C129	C	-0.032397	-1.235055	-0.716104
C130	C	0.467603	-0.735055	-0.216104
C131	C	0.010771	-1.277204	-0.664265
C132	C	0.510771	-0.777204	-0.164265
C133	C	-0.006328	-1.260505	-0.585900
C134	C	0.493672	-0.760505	-0.085900
C135	C	-0.066599	-1.201660	-0.559375
C136	C	0.433401	-0.701660	-0.059375
C137	C	0.036842	-1.302658	-0.534054
C138	C	0.536842	-0.802658	-0.034054
C139	C	0.019739	-1.285962	-0.455691
C140	C	0.519739	-0.785962	0.044309
C141	C	-0.083702	-1.184965	-0.481012
C142	C	0.416298	-0.684965	0.018988
C143	C	-0.143925	-1.126205	0.044920
C144	C	0.356075	-0.626205	0.544920
C145	C	-0.161906	-1.108600	0.128366
C146	C	0.338094	-0.608600	0.628366
H147	H	-0.225796	-0.747937	-0.332280
H148	H	0.274204	-0.247937	0.167720
C149	C	-0.188853	-1.082297	-0.498494
C150	C	0.311147	-0.582297	0.001506
N151	N	-0.203022	-1.068462	-0.433565
N152	N	0.296978	-0.568462	0.066435
C153	C	-0.213377	-0.906422	-0.314113
C154	C	0.286623	-0.406422	0.185887
N155	N	-0.237157	-0.946534	-0.348969
N156	N	0.262843	-0.446534	0.151031
H157	H	-0.494209	-1.082866	-0.277657
H158	H	0.005791	-0.582866	0.222343
H159	H	-0.018476	-1.248648	-0.779913
H160	H	0.481524	-0.748648	-0.279913
C161	C	-0.279513	-0.993772	-0.607369
C162	C	0.220487	-0.493772	-0.107369
N163	N	-0.329452	-0.945016	-0.585394
N164	N	0.170548	-0.445016	-0.085394
H165	H	-0.069661	-1.198670	-0.841396
H166	H	0.430339	-0.698670	-0.341396
C167	C	-0.350145	-1.077022	-0.286329
C168	C	0.149855	-0.577022	0.213671
N169	N	-0.316972	-1.046101	-0.332824
N170	N	0.183028	-0.546101	0.167176
C171	C	-0.837336	-1.096133	-0.257968
C172	C	-0.337336	-0.596133	0.242032
N173	N	-0.864724	-1.063011	-0.307826
N174	N	-0.364724	-0.563011	0.192174
H175	H	-0.695274	-1.112385	-0.233408
H176	H	-0.195274	-0.612385	0.266592
H177	H	-0.506869	-1.223108	-0.066688
H178	H	-0.006869	-0.723108	0.433312
H179	H	-0.593173	-1.218032	-0.074410
H180	H	-0.093173	-0.718032	0.425590
H181	H	-0.608978	-1.117464	-0.225689
H182	H	-0.108978	-0.617464	0.274311
H183	H	-0.257322	-1.015434	-0.887319
H184	H	0.242678	-0.515434	-0.387319
C185	C	0.077074	-1.341929	-0.693445
C186	C	0.577074	-0.841929	-0.193445
N187	N	0.127018	-1.390678	-0.715424
N188	N	0.627018	-0.890678	-0.215424
H189	H	0.085911	-1.350578	-0.555657
H190	H	0.585911	-0.850578	-0.055657
H191	H	-0.132768	-1.137027	-0.459423
H192	H	0.367232	-0.637027	0.040577
C193	C	0.067228	-1.332327	-0.398665
C194	C	0.567228	-0.832327	0.101335
N195	N	0.102996	-1.367252	-0.355712
N196	N	0.602996	-0.867252	0.144288
C197	C	-0.305579	-0.968319	-0.737572
C198	C	0.194421	-0.468319	-0.237572
N199	N	-0.355517	-0.919562	-0.715597
N200	N	0.144483	-0.419562	-0.215597
H201	H	-0.122343	-0.474554	-0.180668
H202	H	0.377657	0.025446	0.319332
H203	H	-0.046386	-0.804157	-0.069377
H204	H	0.453614	-0.304157	0.430623
C205	C	-0.068963	-0.870510	-0.102477
C206	C	0.431037	-0.370510	0.397523
N207	N	-0.035766	-0.896454	-0.053834
N208	N	0.464234	-0.396454	0.446166
H209	H	0.002428	-0.443547	0.002151
H210	H	0.502428	0.056453	0.502151
H211	H	0.005710	-0.716320	0.006934
H212	H	0.505710	-0.216320	0.506934
C213	C	-0.159621	-0.509188	-0.235305
C214	C	0.340379	-0.009188	0.264695
N215	N	-0.169031	-0.443132	-0.249096
N216	N	0.330969	0.056868	0.250904
C217	C	0.034491	-0.597133	0.049137
C218	C	0.534491	-0.097133	0.549137
N219	N	0.067688	-0.623077	0.097780
N220	N	0.567688	-0.123077	0.597780
C221	C	-0.219897	-0.610850	-0.323642
C222	C	0.280103	-0.110850	0.176358
N223	N	-0.253089	-0.584904	-0.372288
N224	N	0.246911	-0.084904	0.127712
H225	H	-0.840560	-1.247799	-0.029800
H226	H	-0.340560	-0.747799	0.470200
H227	H	-0.374261	-1.227928	-0.059318
H228	H	0.125739	-0.727928	0.440682
C229	C	-0.698499	-1.264029	-0.005224
C230	C	-0.198499	-0.764029	0.494776
N231	N	-0.671121	-1.297129	0.044650
N232	N	-0.171121	-0.797129	0.544650
