data_functionalizedCrystal
_audit_creation_method	'MofGen! by Chris Wilmer'
_symmetry_space_group_name_H-M	'P1'
_symmetry_Int_Tables_number	1
_symmetry_cell_setting	triclinic
loop_
_symmetry_equiv_pos_as_xyz
  x,y,z
_cell_length_a	19.121063
_cell_length_b	19.121102
_cell_length_c	19.120904
_cell_angle_alpha	90.088173
_cell_angle_beta	85.258387
_cell_angle_gamma	89.873098
loop_
_atom_site_label
_atom_site_type_symbol
_atom_site_fract_x
_atom_site_fract_y
_atom_site_fract_z
Zn1	Zn	-0.343506	-1.039579	0.456040
Zn2	Zn	-0.456149	-1.039493	0.343386
Zn3	Zn	-0.333518	-0.927792	0.333417
Zn4	Zn	-0.455677	-0.917325	0.455570
O5	O	-0.397212	-0.981047	0.397103
O6	O	-0.362826	-1.137479	0.445465
O7	O	-0.435899	-1.029020	0.243797
O8	O	-0.236577	-0.947038	0.345708
O9	O	-0.445584	-1.137415	0.362699
O10	O	-0.243915	-1.029167	0.435798
O11	O	-0.345802	-0.946954	0.236473
O12	O	-0.345345	-0.828493	0.345252
O13	O	-0.444780	-0.929198	0.553899
O14	O	-0.435094	-0.820803	0.434997
O15	O	-0.362368	-1.019018	0.554244
O16	O	-0.554352	-1.018870	0.362243
O17	O	-0.554005	-0.929114	0.444664
C18	C	-0.389085	-0.799261	0.388992
C19	C	-0.385626	-0.721490	0.385539
C20	C	-0.579659	-0.972865	0.404501
C21	C	-0.657714	-0.969428	0.407691
C22	C	-0.404635	-0.972950	0.580263
C23	C	-0.407799	-0.969500	0.658315
C24	C	-0.694545	-1.014577	0.366317
C25	C	-0.767887	-1.011348	0.369323
C26	C	-0.804396	-0.962966	0.413699
C27	C	-0.767560	-0.917815	0.455078
C28	C	-0.694220	-0.921048	0.452076
C29	C	-1.025828	-0.950869	0.424912
C30	C	-1.099173	-0.947638	0.427909
C31	C	-1.099494	-1.041173	0.342155
C32	C	-1.026153	-1.044399	0.339154
C33	C	-0.989323	-0.999250	0.380535
C34	C	-0.879363	-0.959663	0.416770
C35	C	-0.914358	-1.002557	0.377467
C36	C	-0.214054	-0.989280	0.389693
C37	C	-0.136003	-0.992788	0.386535
C38	C	-0.405372	-1.163544	0.405246
C39	C	-0.408849	-1.241313	0.408717
C40	C	-0.430793	-0.680968	0.430575
C41	C	-0.427534	-0.607894	0.427334
C42	C	-0.379110	-0.575344	0.379053
C43	C	-0.333937	-0.615872	0.334016
C44	C	-0.337194	-0.688944	0.337261
C45	C	-0.366933	-0.354913	0.366924
C46	C	-0.363681	-0.281835	0.363681
C47	C	-0.457277	-0.273863	0.457000
C48	C	-0.460532	-0.346937	0.460238
C49	C	-0.415357	-0.387458	0.415203
C50	C	-0.375778	-0.500651	0.375738
C51	C	-0.418686	-0.462149	0.418523
C52	C	-0.389769	-0.989156	0.214655
C53	C	-0.386414	-0.992751	0.136602
C54	C	-0.366379	-1.014640	0.695165
C55	C	-0.369348	-1.011390	0.768503
C56	C	-0.413741	-0.963001	0.804990
C57	C	-0.455162	-0.917856	0.768135
C58	C	-0.452188	-0.921103	0.694798
C59	C	-0.424862	-0.950853	1.026410
C60	C	-0.427833	-0.947610	1.099752
C61	C	-0.342019	-1.041143	1.100115
C62	C	-0.339052	-1.044390	1.026777
C63	C	-0.380470	-0.999242	0.989928
C64	C	-0.416779	-0.959679	0.879953
C65	C	-0.377429	-1.002561	0.914966
H66	H	-0.664824	-1.053972	0.330178
H67	H	-0.499966	-0.373433	0.499552
H68	H	-0.797292	-0.878424	0.491213
H69	H	-0.995847	-0.914106	0.458605
C70	C	-0.653702	-0.871381	0.497585
C71	C	-0.660065	-0.791653	0.488656
C72	C	-0.619547	-0.741987	0.534169
C73	C	-0.572667	-0.772048	0.588610
C74	C	-0.566303	-0.851780	0.597542
C75	C	-0.606820	-0.901446	0.552029
H76	H	-0.694770	-0.769397	0.448353
H77	H	-0.624259	-0.682965	0.527557
H78	H	-0.542674	-0.735283	0.622302
H79	H	-0.531597	-0.874037	0.637845
H80	H	-0.602108	-0.960469	0.558641
H81	H	-1.129489	-1.077932	0.308466
C82	C	-0.477223	-0.563317	0.476868
C83	C	-0.446884	-0.512013	0.528592
C84	C	-0.496575	-0.467434	0.578127
C85	C	-0.576604	-0.474159	0.575938
C86	C	-0.606947	-0.525464	0.524211
C87	C	-0.557256	-0.570043	0.474676
H88	H	-0.387638	-0.507034	0.530215
H89	H	-0.474113	-0.429455	0.616419
H90	H	-0.613388	-0.441159	0.612606
H91	H	-0.666193	-0.530444	0.522588
H92	H	-0.579718	-0.608023	0.436384
H93	H	-0.341281	-1.041956	0.885255
H94	H	-1.128897	-0.908248	0.464059
H95	H	-0.300410	-0.721937	0.300591
C96	C	-0.874200	-1.055776	0.328654
C97	C	-0.820241	-1.030153	0.270091
C98	C	-0.780075	-1.083369	0.221276
C99	C	-0.793869	-1.162210	0.231024
C100	C	-0.847831	-1.187837	0.289589
C101	C	-0.887997	-1.134620	0.338404
H102	H	-0.810028	-0.971787	0.262873
H103	H	-0.740129	-1.064398	0.177922
H104	H	-0.764136	-1.201604	0.194888
H105	H	-0.858044	-1.246202	0.296807
H106	H	-0.927943	-1.153591	0.381758
H107	H	-0.308298	-1.077899	1.130125
H108	H	-0.996429	-1.083795	0.303019
H109	H	-0.324240	-0.255336	0.324369
C110	C	-0.322517	-0.464839	0.322628
C111	C	-0.266438	-0.415726	0.348691
C112	C	-0.213176	-0.379909	0.295585
C113	C	-0.215993	-0.393204	0.216417
C114	C	-0.272074	-0.442319	0.190350
C115	C	-0.325336	-0.478136	0.243456
H116	H	-0.264351	-0.405882	0.407300
H117	H	-0.171661	-0.343551	0.314882
H118	H	-0.176565	-0.366690	0.177104
H119	H	-0.274161	-0.452163	0.131741
H120	H	-0.366851	-0.514495	0.224160
H121	H	-0.470228	-0.707464	0.469888
H122	H	-0.909097	-0.920269	0.452900
C123	C	-0.317546	-1.067869	0.655033
C124	C	-0.237871	-1.065298	0.661632
C125	C	-0.189034	-1.118526	0.621502
C126	C	-0.219873	-1.174326	0.574772
C127	C	-0.299552	-1.176898	0.568171
C128	C	-0.348388	-1.123670	0.608301
H129	H	-0.215039	-1.023990	0.696226
H130	H	-0.130051	-1.116621	0.626389
H131	H	-0.183721	-1.213728	0.545065
H132	H	-0.322384	-1.218206	0.533577
H133	H	-0.407372	-1.125575	0.603414
H134	H	-0.494055	-0.240863	0.493666
H135	H	-0.452927	-0.920284	0.909669
H136	H	-0.330153	-0.387897	0.330248
H137	H	-0.458598	-0.914100	0.996417
H138	H	-0.294506	-0.589364	0.294708
H139	H	-0.797871	-1.048113	0.335631
H140	H	-0.458110	-0.488655	0.457836
C141	C	-0.504005	-0.864633	0.808263
C142	C	-0.494321	-0.785795	0.794396
C143	C	-0.543173	-0.732575	0.834520
C144	C	-0.601709	-0.758193	0.888510
C145	C	-0.611395	-0.837034	0.902379
C146	C	-0.562543	-0.890254	0.862256
H147	H	-0.450988	-0.766827	0.754427
H148	H	-0.536002	-0.674211	0.824253
H149	H	-0.637871	-0.718796	0.918212
H150	H	-0.654729	-0.856002	0.942349
H151	H	-0.569714	-0.948618	0.872523
C152	C	-0.323785	-1.061047	0.809035
C153	C	-0.332666	-1.140776	0.802739
C154	C	-0.287098	-1.190434	0.843268
C155	C	-0.232647	-1.160364	0.890093
C156	C	-0.223763	-1.080632	0.896391
C157	C	-0.269332	-1.030973	0.855862
H158	H	-0.372976	-1.163039	0.768074
H159	H	-0.293675	-1.249458	0.838606
H160	H	-0.198915	-1.197125	0.920096
H161	H	-0.183454	-1.058368	0.931056
H162	H	-0.262755	-0.971949	0.860524
H163	H	-0.302905	-1.083794	0.997075
H164	H	-0.463985	-0.908204	1.129457
H165	H	-0.485909	-0.884338	0.664795
