data_functionalizedCrystal
_audit_creation_method	'MofGen! by Chris Wilmer'
_symmetry_space_group_name_H-M	'P1'
_symmetry_Int_Tables_number	1
_symmetry_cell_setting	triclinic
loop_
_symmetry_equiv_pos_as_xyz
  x,y,z
_cell_length_a	12.477989
_cell_length_b	20.875641
_cell_length_c	12.478026
_cell_angle_alpha	60.596379
_cell_angle_beta	95.275423
_cell_angle_gamma	66.703135
loop_
_atom_site_label
_atom_site_type_symbol
_atom_site_fract_x
_atom_site_fract_y
_atom_site_fract_z
Zr1	Zr	0.995965	0.779954	-0.254563
O2	O	0.827018	0.900568	-0.422764
O3	O	1.042898	0.649803	-0.196945
O4	O	1.030394	0.782645	-0.428841
O5	O	0.854910	0.768929	-0.014833
O6	O	1.196348	0.795616	-0.440521
O7	O	0.839521	0.767726	-0.190869
O8	O	1.218715	0.557986	-0.025702
O9	O	0.832544	1.006558	-0.429652
O10	O	1.192633	0.716548	-0.188404
O11	O	1.080269	0.707766	-0.048313
O12	O	1.065547	0.864169	-0.321340
O13	O	0.953183	0.855387	-0.181250
Zr14	Zr	1.285185	0.802559	0.007566
Zr15	Zr	1.260641	0.800641	-0.273191
Zr16	Zr	1.020509	0.781872	0.026195
Zr17	Zr	1.004778	0.948996	-0.265547
Zr18	Zr	1.276372	0.633516	0.018550
O19	O	1.238252	0.932710	-0.050051
O20	O	1.203354	0.929982	-0.449252
O21	O	0.861916	0.903295	-0.023564
O22	O	1.454133	0.681945	0.175768
O23	O	1.419234	0.679217	-0.223433
O24	O	1.077797	0.652531	0.202256
O25	O	1.426240	0.813584	-0.232164
O26	O	1.250756	0.799868	0.181845
O27	O	1.084802	0.786897	0.193525
O28	O	1.441629	0.814787	-0.056127
O29	O	1.042926	1.023002	-0.444459
O30	O	1.238224	0.559511	0.197463
O31	O	1.448606	0.575955	0.182655
O32	O	1.429097	0.574430	-0.040509
O33	O	0.852053	1.008083	-0.206487
O34	O	1.062436	1.024526	-0.221294
O35	O	1.215603	0.718343	0.074344
O36	O	1.327967	0.727126	-0.065747
O37	O	1.200881	0.874747	-0.198683
O38	O	1.088517	0.865965	-0.058593
C39	C	1.129551	0.579810	-0.109759
C40	C	1.125809	0.508047	-0.105096
C41	C	1.182701	0.478916	-0.176031
C42	C	1.179189	0.411483	-0.171637
C43	C	1.118777	0.373185	-0.096314
C44	C	1.061885	0.402318	-0.025371
C45	C	1.065404	0.469746	-0.029758
C46	C	1.101968	0.171027	-0.075344
C47	C	1.098449	0.103596	-0.070966
C48	C	1.215757	0.112765	-0.217230
C49	C	1.219265	0.180197	-0.221617
C50	C	1.162377	0.209322	-0.150668
N51	N	1.115183	0.304259	-0.091825
N52	N	1.165980	0.278243	-0.155151
C53	C	0.809505	0.765380	-0.100197
C54	C	0.697143	0.756598	-0.092288
C55	C	1.471645	0.817133	-0.146800
C56	C	1.584007	0.825915	-0.154708
C57	C	1.109874	0.788857	-0.474683
C58	C	1.099455	0.788042	-0.593872
C59	C	1.151600	1.002703	-0.137238
C60	C	1.155341	1.074466	-0.141901
C61	C	1.171276	0.793656	0.227687
C62	C	1.181696	0.794470	0.346875
C63	C	1.460621	0.605686	-0.133060
C64	C	1.569241	0.542705	-0.136306
C65	C	1.160251	0.582209	0.241426
C66	C	1.166929	0.511261	0.365278
C67	C	1.491321	0.608086	0.218124
C68	C	1.610362	0.545919	0.334068
C69	C	0.789829	0.974427	-0.465121
C70	C	0.670789	1.036594	-0.581064
C71	C	0.820530	0.976827	-0.113936
C72	C	0.711909	1.039808	-0.110691
C73	C	1.120899	1.000303	-0.488422
C74	C	1.114221	1.071252	-0.612274
C75	C	1.549606	0.507607	-0.201867
C76	C	1.651655	0.448438	-0.204942
C77	C	1.773338	0.424364	-0.142448
C78	C	1.792970	0.459469	-0.076884
C79	C	1.690922	0.518641	-0.073818
C80	C	1.240709	0.483464	0.487478
C81	C	1.246981	0.416809	0.603860
C82	C	1.179478	0.377949	0.598040
C83	C	1.105689	0.405751	0.475827
C84	C	1.099412	0.472409	0.359448
C85	C	1.724928	0.521310	0.315390
C86	C	1.836789	0.462908	0.424319
C87	C	1.834080	0.429112	0.551926
C88	C	1.719501	0.453726	0.570602
C89	C	1.607643	0.512132	0.461673
C90	C	0.556222	1.061211	-0.562387
C91	C	0.444363	1.119633	-0.671317
C92	C	0.447072	1.153434	-0.798924
C93	C	0.561651	1.128815	-0.817600
C94	C	0.673508	1.070398	-0.708671
C95	C	0.731543	1.074913	-0.045141
C96	C	0.629493	1.134100	-0.042098
C97	C	0.507810	1.158176	-0.104597
C98	C	0.488178	1.123069	-0.170155
C99	C	0.590226	1.063887	-0.173205
C100	C	1.181739	1.110093	-0.606412
C101	C	1.175489	1.176750	-0.722774
C102	C	1.101713	1.204568	-0.844997
C103	C	1.034193	1.165721	-0.850857
C104	C	1.040451	1.099061	-0.734496
H105	H	1.019073	0.493465	0.028001
Br106	Br	1.301241	0.232176	-0.323858
Br107	Br	1.292959	0.073234	-0.313510
H108	H	0.974126	1.188382	-0.950387
H109	H	0.389090	1.142681	-0.221039
Br110	Br	0.715318	0.646477	0.006868
Br111	Br	0.288882	1.153030	-0.645940
H112	H	1.260084	0.800592	-0.612668
Br113	Br	1.014086	0.353002	0.467951
Br114	Br	1.992270	0.429514	0.398942
H115	H	1.307071	0.394181	0.703358
Br116	Br	0.968806	0.777820	-0.661287
H117	H	1.450534	0.527208	-0.252775
Br118	Br	0.563558	1.016247	-0.262166
Br119	Br	1.911819	0.344057	-0.146622
H120	H	1.635645	0.419863	-0.258331
H121	H	1.892058	0.439859	-0.026004
H122	H	1.727158	0.548820	0.211495
Br123	Br	1.717593	0.566263	0.015175
H124	H	0.985464	1.067444	-0.739288
Br125	Br	1.332339	0.536186	0.495413
H126	H	1.717314	0.426201	0.674514
Br127	Br	0.565830	0.936031	-0.253885
H128	H	1.184601	0.323673	0.692813
H129	H	1.039336	0.495032	0.259952
H130	H	0.424726	1.206367	-0.102103
H131	H	1.241814	1.087454	-0.506902
H132	H	1.925170	0.381555	0.640611
H133	H	1.514363	0.532160	0.476901
H134	H	0.553992	1.033692	-0.458491
H135	H	0.355982	1.201000	-0.887610
H136	H	0.563842	1.156342	-0.921510
Br137	Br	0.828985	1.036992	-0.734043
H138	H	1.231888	0.510098	-0.237373
Br139	Br	0.896672	1.042254	0.039685
H140	H	0.645503	1.162675	0.011291
Br141	Br	1.267125	1.229461	-0.714790
H142	H	1.096628	1.258848	-0.939736
Br143	Br	0.979922	0.350329	0.076879
H144	H	1.225516	0.387765	-0.229396
Br145	Br	1.016448	0.051625	0.031256
H146	H	1.055652	0.194729	-0.017568
