data_functionalizedCrystal
_audit_creation_method	'MofGen! by Chris Wilmer'
_symmetry_space_group_name_H-M	'P1'
_symmetry_Int_Tables_number	1
_symmetry_cell_setting	triclinic
loop_
_symmetry_equiv_pos_as_xyz
  x,y,z
_cell_length_a	10.654562
_cell_length_b	13.339070
_cell_length_c	9.730223
_cell_angle_alpha	90.000235
_cell_angle_beta	89.996961
_cell_angle_gamma	100.059699
loop_
_atom_site_label
_atom_site_type_symbol
_atom_site_fract_x
_atom_site_fract_y
_atom_site_fract_z
O1	O	1.715938	0.142493	-0.114378
O2	O	1.355039	0.156050	-0.114361
O3	O	1.494069	0.001716	-0.114363
O4	O	1.576908	0.296827	-0.114375
O5	O	1.494068	0.001720	0.114217
O6	O	1.355038	0.156054	0.114219
O7	O	1.715937	0.142497	0.114202
Zn8	Zn	1.535487	0.149276	0.150503
Zn9	Zn	1.535489	0.149271	-0.150661
O10	O	1.576907	0.296831	0.114205
C11	C	1.307904	0.155054	-0.000068
C12	C	1.167453	0.152068	-0.000062
C13	C	1.101452	0.150677	0.124526
C14	C	0.969485	0.147879	0.124504
C15	C	0.969533	0.147867	-0.124707
C16	C	1.101496	0.150658	-0.124682
C17	C	1.167408	0.152087	0.249147
C18	C	1.101407	0.150697	0.373746
C19	C	0.969440	0.147899	0.373723
C20	C	0.903474	0.146491	0.249102
C21	C	1.480075	-0.036070	-0.000074
C22	C	1.438365	-0.148666	-0.000078
C23	C	1.762682	-0.511172	-0.000093
C24	C	1.801874	-0.405382	-0.000082
C25	C	1.711000	-0.341198	-0.000081
C26	C	1.580927	-0.382813	-0.000091
C27	C	1.541730	-0.488613	-0.000091
C28	C	1.490049	-0.318640	-0.000080
C29	C	1.359976	-0.360255	-0.000089
C30	C	1.320785	-0.466044	-0.000091
C31	C	1.411660	-0.530228	-0.000091
C32	C	1.529246	-0.212840	-0.000079
C33	C	1.308294	-0.190281	-0.000078
C34	C	1.269102	-0.296070	-0.000089
C35	C	1.763072	0.143493	-0.000093
C36	C	1.903523	0.146479	-0.000109
C37	C	1.590901	0.334617	-0.000087
C38	C	1.632611	0.447213	-0.000093
N39	N	1.535496	0.149279	0.356039
N40	N	1.535488	0.149260	-0.356198
C41	C	1.597088	0.080963	0.427964
C42	C	1.597080	0.080951	0.571847
C43	C	1.473887	0.217579	0.571867
C44	C	1.473888	0.217586	0.427987
C45	C	1.658696	0.012657	0.356016
C46	C	1.720294	-0.055664	0.427941
C47	C	1.720287	-0.055676	0.571824
C48	C	1.658681	0.012632	0.643782
H49	H	0.915704	0.146760	0.475176
H50	H	1.836657	-0.563439	-0.000082
H51	H	1.234297	-0.138022	-0.000071
H52	H	1.274863	0.154368	0.249180
H53	H	0.915814	0.146723	-0.226167
O54	O	1.414248	0.283991	0.357956
C55	C	1.503476	0.347082	0.274752
H56	H	1.587931	0.307437	0.253197
H57	H	1.456514	0.362726	0.173576
H58	H	1.538133	0.422100	0.330200
O59	O	1.165364	0.152192	0.494884
C60	C	1.149465	0.239196	0.570662
H61	H	1.059104	0.266396	0.535212
H62	H	1.141251	0.219384	0.684652
H63	H	1.235180	0.302162	0.553401
H64	H	1.379755	-0.616371	-0.000105
H65	H	1.423732	0.273194	0.630465
H66	H	0.796018	0.144211	0.249093
H67	H	1.155237	0.151795	-0.226133
O68	O	1.655604	-0.172469	-0.000325
C69	C	1.713237	-0.205208	-0.118693
H70	H	1.637824	-0.227688	-0.201433
H71	H	1.789127	-0.140754	-0.158435
H72	H	1.759365	-0.273653	-0.091930
H73	H	1.907780	-0.371507	-0.000072
O74	O	1.142701	-0.336333	-0.000153
C75	C	1.070888	-0.257007	-0.000116
H76	H	1.131209	-0.184897	-0.043386
H77	H	0.982305	-0.279688	-0.066482
H78	H	1.041078	-0.242293	0.109545
O79	O	1.749228	-0.238452	0.000105
C80	C	1.822884	-0.209293	0.118509
H81	H	1.864793	-0.276850	0.157984
H82	H	1.903422	-0.144067	0.091885
H83	H	1.759999	-0.183386	0.201400
H84	H	1.214871	-0.499923	-0.000088
H85	H	1.770443	-0.111284	0.369345
O86	O	1.658776	0.012501	0.216250
C87	C	1.726387	-0.062416	0.168166
H88	H	1.727305	-0.122670	0.251070
H89	H	1.678056	-0.099625	0.071903
H90	H	1.828468	-0.025534	0.142641
O91	O	1.780222	-0.122079	0.641481
C92	C	1.834565	-0.182381	0.547118
H93	H	1.850471	-0.140783	0.444561
H94	H	1.929725	-0.197094	0.588683
H95	H	1.767445	-0.258027	0.531808
O96	O	1.658830	0.012509	0.783550
C97	C	1.726366	-0.062461	0.831609
H98	H	1.795216	-0.079575	0.748695
H99	H	1.782178	-0.033558	0.927876
H100	H	1.656317	-0.134870	0.857119
