data_functionalizedCrystal
_audit_creation_method	'MofGen! by Chris Wilmer'
_symmetry_space_group_name_H-M	'P1'
_symmetry_Int_Tables_number	1
_symmetry_cell_setting	triclinic
loop_
_symmetry_equiv_pos_as_xyz
  x,y,z
_cell_length_a	23.196402
_cell_length_b	14.560438
_cell_length_c	23.196402
_cell_angle_alpha	59.997385
_cell_angle_beta	59.996656
_cell_angle_gamma	89.994996
loop_
_atom_site_label
_atom_site_type_symbol
_atom_site_fract_x
_atom_site_fract_y
_atom_site_fract_z
Zr1	Zr	0.555355	-0.120527	0.631017
O2	O	0.583583	-0.267172	0.631015
O3	O	0.463300	-0.075575	0.631022
O4	O	0.463305	-0.267180	0.751293
O5	O	0.678445	0.075577	0.415867
O6	O	0.463301	-0.267184	0.846167
O7	O	0.583577	-0.075567	0.510743
O8	O	0.463290	0.075563	0.631023
O9	O	0.678456	-0.267169	0.631011
O10	O	0.524800	-0.056403	0.701823
O11	O	0.595602	0.056397	0.560214
O12	O	0.595609	-0.169193	0.701819
O13	O	0.666411	-0.056393	0.560210
Zr14	Zr	0.706651	0.120526	0.631014
Zr15	Zr	0.555348	-0.120532	0.782330
Zr16	Zr	0.706659	0.120531	0.479701
Zr17	Zr	0.706666	-0.120522	0.631011
Zr18	Zr	0.555341	0.120521	0.631020
O19	O	0.798707	0.075574	0.631009
O20	O	0.583573	-0.267180	0.846162
O21	O	0.798717	0.075581	0.415862
O22	O	0.678424	0.267171	0.631016
O23	O	0.463289	-0.075583	0.846169
O24	O	0.678434	0.267179	0.415869
O25	O	0.583561	-0.075579	0.846164
O26	O	0.798701	0.267179	0.510738
O27	O	0.798706	0.267182	0.415864
O28	O	0.678429	0.075566	0.751288
O29	O	0.678450	-0.267173	0.751284
O30	O	0.583557	0.267172	0.510747
O31	O	0.583551	0.267168	0.631020
O32	O	0.463285	0.075559	0.751297
O33	O	0.798722	-0.075560	0.510734
O34	O	0.798716	-0.075564	0.631008
O35	O	0.666398	0.169192	0.560213
O36	O	0.595595	0.056392	0.701821
O37	O	0.666405	-0.056398	0.701817
O38	O	0.737207	0.056402	0.560208
C39	C	0.441736	-0.000007	0.631023
C40	C	0.377501	-0.000009	0.631026
C41	C	-0.122282	-0.058861	0.704923
C42	C	-0.061930	-0.058871	0.704927
C43	C	0.005210	0.000009	0.631010
C44	C	0.011996	0.058881	0.557083
C45	C	-0.048356	0.058880	0.557080
C46	C	0.129140	0.098634	0.574382
C47	C	0.189490	0.098638	0.574388
C48	C	0.191359	0.000010	0.631015
C49	C	0.132864	-0.098621	0.687650
C50	C	0.072511	-0.098621	0.687647
C51	C	0.070657	0.000016	0.631005
C52	C	0.250009	-0.058875	0.704942
C53	C	0.310365	-0.058889	0.704944
C54	C	0.384290	0.058875	0.557097
C55	C	0.323935	0.058877	0.557098
C56	C	0.256797	0.000005	0.631023
C57	C	0.631022	-0.301515	0.631012
C58	C	0.631028	-0.403846	0.631011
C59	C	0.667971	-0.393044	0.557094
C60	C	0.667949	-0.489199	0.557098
C61	C	0.594034	-0.606955	0.704942
C62	C	0.594061	-0.510801	0.704938
C63	C	0.704938	-0.286090	0.483168
C64	C	0.741884	-0.275283	0.409245
C65	C	0.741862	-0.371438	0.409249
C66	C	0.704894	-0.478399	0.483176
C67	C	0.820270	0.000006	0.631008
C68	C	0.884506	0.000008	0.631005
C69	C	0.631012	0.000006	0.441746
C70	C	0.631015	0.000008	0.377510
C71	C	0.630985	0.301514	0.631019
C72	C	0.630979	0.403845	0.631020
C73	C	0.578754	-0.083264	0.399609
C74	C	0.578747	-0.083264	0.339258
C75	C	0.631012	0.000000	0.256807
C76	C	0.683277	0.083287	0.234708
C77	C	0.683279	0.083291	0.295059
C78	C	0.694806	0.025948	0.121143
C79	C	0.694804	0.025936	0.060795
C80	C	0.631007	-0.000006	0.070660
C81	C	0.567207	-0.025960	0.140891
C82	C	0.567209	-0.025956	0.201243
C83	C	0.631016	0.000005	0.191360
C84	C	0.578734	-0.083283	0.027323
C85	C	0.578727	-0.083275	-0.033031
C86	C	0.683263	0.083272	-0.137582
C87	C	0.683265	0.083268	-0.077227
C88	C	0.631001	-0.000015	0.005224
C89	C	0.630994	-0.000007	0.820285
C90	C	0.630991	-0.000009	0.884521
C91	C	0.441746	-0.301528	0.820290
C92	C	0.377513	-0.403863	0.884527
C93	C	0.441728	-0.000013	0.820293
C94	C	0.377489	-0.000018	0.884532
C95	C	0.630994	0.301520	0.441749
C96	C	0.630991	0.403854	0.377514
C97	C	0.820279	0.000012	0.441738
C98	C	0.884518	0.000016	0.377499
C99	C	0.820261	0.301527	0.441742
C100	C	0.884493	0.403862	0.377504
C101	C	0.631013	-0.301521	0.820282
C102	C	0.631016	-0.403855	0.884517
C103	C	0.384311	-0.510807	0.914699
C104	C	0.323964	-0.606971	0.975065
C105	C	0.256820	-0.596189	1.005256
C106	C	0.250023	-0.489235	0.975083
C107	C	0.310370	-0.393073	0.914721
C108	C	0.310361	-0.058908	0.914706
C109	C	0.249997	-0.058934	0.975074
C110	C	0.256761	-0.000064	1.005262
C111	C	0.323896	0.058828	0.975085
C112	C	0.384260	0.058848	0.914722
C113	C	0.667950	0.510798	0.347341
C114	C	0.667962	0.606961	0.286977
C115	C	0.631009	0.596176	0.256791
C116	C	0.594048	0.489220	0.286966
C117	C	0.594042	0.393060	0.347325
C118	C	0.951645	0.058896	0.347331
C119	C	1.012010	0.058897	0.286980
C120	C	1.005245	0.000022	0.256794
C121	C	0.938110	-0.058865	0.286968
C122	C	0.877747	-0.058871	0.347323
C123	C	0.951625	0.393044	0.347328
C124	C	1.011984	0.489190	0.286961
C125	C	1.005209	0.596153	0.256775
C126	C	0.938070	0.606968	0.286953
C127	C	0.877713	0.510823	0.347315
C128	C	0.667972	-0.393034	0.914688
C129	C	0.667973	-0.489178	0.975052
C130	C	0.631021	-0.596142	1.005239
C131	C	0.594060	-0.606960	0.975066
C132	C	0.594056	-0.510818	0.914707
H133	H	-0.067458	-0.106812	0.765122
N134	N	0.631030	-0.699824	1.070345
H135	H	0.681089	-0.699852	1.049334
H136	H	0.601982	-0.769182	1.084877
N137	N	0.127121	0.205015	0.513310
H138	H	0.119501	0.191772	0.478474
H139	H	0.173336	0.267451	0.477493
H140	H	0.725815	0.151070	-0.204714
H141	H	0.823053	0.519647	0.371882
N142	N	0.930771	0.722340	0.254400
H143	H	0.879085	0.714616	0.282673
H144	H	0.954206	0.764802	0.193811
H145	H	1.066668	0.106854	0.262419
H146	H	1.054403	0.000036	0.207650
H147	H	0.438956	0.106810	0.496912
H148	H	0.195338	-0.106891	0.999634
H149	H	0.725823	0.151072	-0.095223
H150	H	0.329511	-0.694049	0.999623
N151	N	0.930819	-0.122340	0.254394
H152	H	0.979249	-0.113383	0.211576
H153	H	0.904138	-0.091402	0.229391
H154	H	0.304826	-0.305998	0.890157
N155	N	0.498392	-0.053942	0.151542
H156	H	0.499137	0.011975	0.105442
H157	H	0.458017	-0.070406	0.205212
H158	H	0.823091	-0.106815	0.371878
N159	N	0.303051	-0.122408	0.882155
H160	H	0.351473	-0.113465	0.839333
H161	H	0.276357	-0.091493	0.857167
N162	N	0.554184	0.477601	0.254413
H163	H	0.530764	0.395261	0.282684
H164	H	0.588120	0.514936	0.193823
N165	N	0.707837	-0.477494	1.007590
H166	H	0.731248	-0.395143	0.979298
H167	H	0.744995	-0.514823	0.997091
N168	N	0.958943	0.277686	0.379883
H169	H	1.010634	0.285439	0.351599
H170	H	0.935511	0.235223	0.369385
N171	N	0.554143	-0.722314	0.784671
H172	H	0.530739	-0.714567	0.831498
H173	H	0.588057	-0.764819	0.787903
H174	H	0.563975	-0.694063	0.999654
H175	H	0.195342	-0.106817	0.765137
N176	N	0.191652	-0.000091	1.070369
H177	H	0.148103	-0.046333	1.084898
H178	H	0.191676	0.079678	1.049322
N179	N	0.522375	-0.173081	0.488532
H180	H	0.494908	-0.136752	0.515902
H181	H	0.545227	-0.216809	0.515840
N182	N	0.331187	0.122320	1.007649
H183	H	0.282758	0.113369	1.050463
H184	H	0.357866	0.204664	0.961557
N185	N	-0.041040	0.122387	0.477353
H186	H	-0.014376	0.091506	0.445034
H187	H	-0.014399	0.204739	0.445103
N188	N	0.707819	-0.277670	0.882142
H189	H	0.745016	-0.235142	0.821555
H190	H	0.731179	-0.285510	0.910482
H191	H	1.054362	0.674431	0.207624
H192	H	0.438916	0.106809	0.890156
N193	N	0.456728	-0.522444	0.882143
H194	H	0.462388	-0.564926	0.857107
H195	H	0.462335	-0.564879	0.928230
N196	N	1.084392	0.477511	0.254425
H197	H	1.079520	0.395160	0.282718
H198	H	1.111043	0.514843	0.264925
H199	H	0.563963	-0.519644	0.890145
N200	N	0.707807	0.522447	0.379894
H201	H	0.731222	0.604795	0.351610
H202	H	0.744963	0.485115	0.369391
H203	H	0.698059	0.694040	0.262418
N204	N	0.084408	0.122386	0.477356
H205	H	0.121612	0.113457	0.488574
H206	H	0.089995	0.204725	0.445074
H207	H	-0.176946	-0.106802	0.765117
H208	H	0.631020	0.674485	0.207643
H209	H	0.024887	-0.178930	0.733760
N210	N	0.763620	0.053919	0.110498
H211	H	0.753942	0.049985	0.159385
H212	H	0.795073	0.132319	0.059612
N213	N	0.958955	0.122386	0.379889
H214	H	0.910534	0.113456	0.422703
H215	H	0.985648	0.204727	0.333795
H216	H	0.134382	-0.178933	0.733760
N217	N	0.554218	0.277713	0.379823
H218	H	0.530826	0.285484	0.351524
H219	H	0.517049	0.235191	0.440414
H220	H	0.207687	-0.674500	1.054407
H221	H	0.329466	0.106820	0.496906
N222	N	0.303045	-0.122397	0.784673
H223	H	0.251355	-0.159689	0.831500
H224	H	0.326476	-0.068335	0.787890
N225	N	0.177602	-0.477615	1.007649
H226	H	0.140410	-0.554766	1.050463
H227	H	0.172005	-0.435108	0.961559
H228	H	0.237111	0.178951	0.528277
H229	H	0.771987	-0.188191	0.349057
N230	N	0.704958	-0.182371	0.483151
H231	H	0.755018	-0.136102	0.454118
H232	H	0.675912	-0.205521	0.541213
N233	N	0.781704	-0.359796	0.329527
H234	H	0.818888	-0.397086	0.326225
H235	H	0.805079	-0.277431	0.282742
H236	H	0.563979	-0.519601	0.765127
H237	H	0.704884	-0.556691	0.483173
H238	H	0.536188	-0.151076	0.357254
H239	H	0.725837	0.151103	0.277060
H240	H	0.536176	-0.151094	0.094459
N241	N	0.498403	-0.053947	0.276988
H242	H	0.457984	-0.070386	0.274087
H243	H	0.499217	0.011997	0.280923
H244	H	0.536166	-0.151083	-0.015032
H245	H	0.746754	0.047063	0.003617
H246	H	0.725831	0.151083	0.167572
