data_functionalizedCrystal
_audit_creation_method	'MofGen! by Chris Wilmer'
_symmetry_space_group_name_H-M	'P1'
_symmetry_Int_Tables_number	1
_symmetry_cell_setting	triclinic
loop_
_symmetry_equiv_pos_as_xyz
  x,y,z
_cell_length_a	14.853566
_cell_length_b	11.792241
_cell_length_c	13.330367
_cell_angle_alpha	89.995231
_cell_angle_beta	89.995295
_cell_angle_gamma	83.913915
loop_
_atom_site_label
_atom_site_type_symbol
_atom_site_fract_x
_atom_site_fract_y
_atom_site_fract_z
O1	O	1.196946	0.148174	-0.083358
O2	O	0.934555	0.165828	-0.083374
O3	O	1.072118	-0.008209	-0.083358
O4	O	1.059383	0.322211	-0.083373
O5	O	1.072098	-0.008213	0.083489
O6	O	0.934535	0.165824	0.083473
O7	O	1.196926	0.148171	0.083490
Cu8	Cu	1.065729	0.156997	0.098716
Cu9	Cu	1.065753	0.157002	-0.098600
O10	O	1.059363	0.322207	0.083474
C11	C	0.900954	0.165026	0.000047
C12	C	0.800860	0.162630	0.000041
C13	C	0.377647	0.152497	-0.090889
C14	C	0.377647	0.152493	0.091014
C15	C	0.471689	0.154744	0.091011
C16	C	0.518715	0.155872	0.000056
C17	C	0.471698	0.154751	-0.090895
C18	C	0.518712	0.155877	0.181961
C19	C	0.612761	0.158129	0.181961
C20	C	0.659789	0.159249	0.091005
C21	C	0.612766	0.158126	0.000050
C22	C	0.659792	0.159255	-0.090904
C23	C	0.612772	0.158124	-0.181860
C24	C	0.518727	0.155871	-0.181851
C25	C	0.753835	0.161501	0.090996
C26	C	0.753844	0.161509	-0.090910
C27	C	1.071308	-0.050497	0.000065
C28	C	1.068914	-0.176496	0.000064
C29	C	1.064511	-0.407181	0.000047
C30	C	1.066958	-0.278810	0.000056
C31	C	1.230528	0.148972	0.000066
C32	C	1.330621	0.151368	0.000065
C33	C	1.060173	0.364495	0.000048
C34	C	1.062568	0.490494	0.000043
N35	N	1.065719	0.156993	0.237497
N36	N	1.065770	0.156996	-0.237382
C37	C	1.004837	0.234035	0.710113
C38	C	1.126693	0.079960	0.710095
C39	C	1.126682	0.079956	0.605077
C40	C	1.065750	0.156994	0.552572
C41	C	1.004827	0.234036	0.605085
C42	C	1.187610	0.002924	0.552556
C43	C	1.187603	0.002918	0.447531
C44	C	1.126665	0.079951	0.395024
C45	C	1.065739	0.156995	0.447544
C46	C	1.004806	0.234033	0.395039
C47	C	0.943875	0.311073	0.447557
C48	C	0.943889	0.311069	0.552578
C49	C	1.126652	0.079955	0.290002
C50	C	1.004796	0.234035	0.290011
H51	H	0.955174	0.296765	0.247267
H52	H	0.480435	0.154949	-0.255902
H53	H	0.792113	0.162434	0.165051
H54	H	0.894267	0.373803	0.404795
H55	H	0.894282	0.373793	0.595345
N56	N	0.326942	0.151266	-0.188989
H57	H	0.260229	0.149661	-0.175189
H58	H	0.336414	0.221963	-0.228713
H59	H	0.955225	0.296756	0.752876
N60	N	1.192417	-0.003119	0.766719
H61	H	1.183182	0.008574	0.841219
H62	H	1.181612	-0.083662	0.748376
H63	H	1.176265	0.017236	0.247247
N64	N	0.326931	0.151289	0.189111
H65	H	0.260075	0.151245	0.175321
H66	H	0.349485	0.080592	0.228237
H67	H	1.237224	-0.059793	0.595308
N68	N	0.663505	0.159338	-0.279954
H69	H	0.654112	0.088642	-0.319712
H70	H	0.640152	0.229291	-0.319646
H71	H	0.480416	0.154966	0.256011
H72	H	1.237215	-0.059812	0.404777
H73	H	0.651037	0.159047	0.256023
N74	N	0.804564	0.162712	-0.189013
H75	H	0.760505	0.161651	-0.246626
H76	H	0.836617	0.233952	-0.192988
