data_functionalizedCrystal
_audit_creation_method	'MofGen! by Chris Wilmer'
_symmetry_space_group_name_H-M	'P1'
_symmetry_Int_Tables_number	1
_symmetry_cell_setting	triclinic
loop_
_symmetry_equiv_pos_as_xyz
  x,y,z
_cell_length_a	16.959455
_cell_length_b	16.625546
_cell_length_c	16.959455
_cell_angle_alpha	90.016063
_cell_angle_beta	90.001568
_cell_angle_gamma	90.019415
loop_
_atom_site_label
_atom_site_type_symbol
_atom_site_fract_x
_atom_site_fract_y
_atom_site_fract_z
Zn1	Zn	1.208271	-0.321180	0.446898
Zn2	Zn	1.208218	-0.455989	0.314715
Zn3	Zn	1.076129	-0.321167	0.314736
Zn4	Zn	1.076059	-0.455967	0.446854
O5	O	1.142169	-0.388576	0.380801
O6	O	1.318875	-0.339077	0.429374
O7	O	1.190703	-0.438109	0.204107
O8	O	1.093710	-0.208337	0.332294
O9	O	1.318835	-0.438121	0.332259
O10	O	1.190794	-0.208346	0.429393
O11	O	1.093658	-0.339056	0.204122
O12	O	0.965509	-0.339034	0.332251
O13	O	1.093590	-0.438083	0.557470
O14	O	0.965457	-0.438071	0.429318
O15	O	1.190726	-0.339056	0.557503
O16	O	1.190635	-0.568819	0.332216
O17	O	1.093538	-0.568802	0.429298
C18	C	0.936803	-0.388549	0.380782
C19	C	0.848946	-0.388557	0.380793
C20	C	0.477473	-0.336965	0.330364
C21	C	0.477468	-0.440253	0.431283
C22	C	0.560014	-0.440241	0.431278
C23	C	0.601293	-0.388592	0.380814
C24	C	0.560027	-0.336954	0.330355
C25	C	0.601287	-0.491884	0.481730
C26	C	0.683838	-0.491875	0.481727
C27	C	0.725119	-0.440221	0.431267
C28	C	0.683847	-0.388580	0.380806
C29	C	0.725126	-0.336931	0.330343
C30	C	0.683856	-0.285285	0.279886
C31	C	0.601307	-0.285299	0.279895
C32	C	0.807667	-0.440207	0.431257
C33	C	0.807680	-0.336919	0.330335
C34	C	1.142094	-0.598067	0.380767
C35	C	1.142135	-0.687688	0.380780
C36	C	1.142272	-1.015863	0.380862
C37	C	1.142232	-0.924555	0.380841
C38	C	1.142203	-0.851779	0.380821
C39	C	1.142163	-0.760464	0.380801
C40	C	1.348337	-0.388603	0.380819
C41	C	1.436194	-0.388615	0.380827
C42	C	1.142156	-0.388568	0.586969
C43	C	1.142151	-0.388565	0.674825
C44	C	1.142266	-0.178267	0.380851
C45	C	1.142307	-0.088646	0.380873
C46	C	1.091588	-0.440146	1.046286
C47	C	1.192736	-0.337028	1.046315
C48	C	1.192734	-0.337021	0.963770
C49	C	1.142158	-0.388579	0.922478
C50	C	1.091585	-0.440143	0.963733
C51	C	1.243311	-0.285464	0.922509
C52	C	1.243311	-0.285456	0.839958
C53	C	1.192731	-0.337010	0.798665
C54	C	1.142156	-0.388575	0.839925
C55	C	1.091580	-0.440133	0.798634
C56	C	1.041000	-0.491695	0.839892
C57	C	1.041005	-0.491697	0.922440
C58	C	1.192726	-0.337008	0.716117
C59	C	1.091578	-0.440129	0.716080
C60	C	1.142172	-0.388597	1.175434
C61	C	1.142164	-0.388589	1.087578
H62	H	0.443867	-0.294915	0.289285
F63	F	1.037757	-0.495017	1.090196
H64	H	0.443854	-0.482308	0.472363
F65	F	0.557351	-0.546870	0.535413
H66	H	0.717433	-0.533928	0.522812
F67	F	0.851606	-0.281941	0.276627
H68	H	0.999825	-0.533676	0.806262
H69	H	0.999828	-0.533678	0.956040
F70	F	1.246564	-0.282166	1.090262
H71	H	1.284492	-0.243494	0.956134
F72	F	0.851586	-0.495172	0.484948
F73	F	1.297141	-0.230578	0.796055
H74	H	1.050385	-0.482107	0.682466
F75	F	1.246558	-0.282141	0.672210
F76	F	0.557380	-0.230340	0.226200
F77	F	0.727798	-0.230322	0.226176
