data_functionalizedCrystal
_audit_creation_method	'MofGen! by Chris Wilmer'
_symmetry_space_group_name_H-M	'P1'
_symmetry_Int_Tables_number	1
_symmetry_cell_setting	triclinic
loop_
_symmetry_equiv_pos_as_xyz
  x,y,z
_cell_length_a	11.026660
_cell_length_b	11.026607
_cell_length_c	9.730223
_cell_angle_alpha	89.999947
_cell_angle_beta	89.999666
_cell_angle_gamma	108.585426
loop_
_atom_site_label
_atom_site_type_symbol
_atom_site_fract_x
_atom_site_fract_y
_atom_site_fract_z
O1	O	1.726710	0.533598	-0.114291
O2	O	1.360134	0.472838	-0.114292
O3	O	1.513040	0.319928	-0.114287
O4	O	1.573804	0.686508	-0.114297
O5	O	1.513039	0.319933	0.114293
O6	O	1.360132	0.472843	0.114288
O7	O	1.726709	0.533602	0.114289
Zn8	Zn	1.543421	0.503223	0.150580
Zn9	Zn	1.543422	0.503217	-0.150584
O10	O	1.573802	0.686512	0.114283
C11	C	1.312474	0.461631	-0.000002
C12	C	1.170461	0.428216	-0.000003
C13	C	1.501830	0.272271	0.000002
C14	C	1.468414	0.130257	-0.000003
C15	C	0.970035	0.485957	-0.000009
C16	C	1.116813	0.520496	-0.000007
C17	C	1.560682	0.076607	-0.000005
C18	C	1.526147	-0.070171	-0.000010
C19	C	1.774369	0.544809	-0.000004
C20	C	1.916382	0.578225	-0.000012
C21	C	1.585013	0.734169	-0.000008
C22	C	1.618429	0.876183	-0.000012
N23	N	1.543429	0.503228	0.356117
N24	N	1.543422	0.503204	-0.356120
C25	C	1.611164	0.435554	0.428045
C26	C	1.611158	0.435538	0.571928
C27	C	1.475678	0.570881	0.571941
C28	C	1.475678	0.570889	0.428061
C29	C	1.689387	0.357419	0.428039
C30	C	1.689380	0.357403	0.571922
H31	H	0.907305	0.381394	0.000014
H32	H	1.107737	0.323645	-0.000092
O33	O	1.343715	0.055297	-0.000191
C34	C	1.318895	-0.022466	-0.118597
H35	H	1.412160	-0.033491	-0.158066
H36	H	1.249191	-0.120655	-0.091978
H37	H	1.275264	0.023866	-0.201491
O38	O	1.685380	0.151570	-0.000187
C39	C	1.710202	0.229341	-0.118587
H40	H	1.616936	0.240365	-0.158056
H41	H	1.779901	0.327530	-0.091961
H42	H	1.753838	0.183018	-0.201484
H43	H	1.179538	0.625067	-0.000001
H44	H	1.647125	0.255087	0.388987
O45	O	0.991257	0.702954	-0.000265
C46	C	1.069071	0.727755	-0.118632
H47	H	1.023012	0.654320	-0.201368
H48	H	1.079705	0.827876	-0.158380
H49	H	1.167417	0.721125	-0.091864
H50	H	1.421578	-0.132899	-0.000020
H51	H	1.420509	0.625981	0.369498
O52	O	1.743136	-0.048865	-0.000194
C53	C	1.767965	0.028906	-0.118594
H54	H	1.674704	0.039940	-0.158063
H55	H	1.837672	0.127092	-0.091968
H56	H	1.811595	-0.017423	-0.201490
H57	H	1.420516	0.625967	0.630534
O58	O	1.807356	0.417715	0.374973
C59	C	1.849880	0.545971	0.419856
H60	H	1.797932	0.555008	0.518707
H61	H	1.957294	0.576758	0.439845
H62	H	1.828803	0.609856	0.337312
O63	O	1.629203	0.239400	0.624984
C64	C	1.500941	0.196724	0.580133
H65	H	1.491808	0.248641	0.481292
H66	H	1.470280	0.089315	0.560138
H67	H	1.437018	0.217703	0.662700
O68	O	1.811518	0.407765	0.618361
C69	C	1.885594	0.333415	0.569964
H70	H	1.839322	0.279283	0.473715
H71	H	1.986107	0.398616	0.544318
H72	H	1.891254	0.262228	0.652722
