data_functionalizedCrystal
_audit_creation_method	'MofGen! by Chris Wilmer'
_symmetry_space_group_name_H-M	'P1'
_symmetry_Int_Tables_number	1
_symmetry_cell_setting	triclinic
loop_
_symmetry_equiv_pos_as_xyz
  x,y,z
_cell_length_a	16.120530
_cell_length_b	18.101397
_cell_length_c	18.101389
_cell_angle_alpha	89.978953
_cell_angle_beta	87.084523
_cell_angle_gamma	87.115827
loop_
_atom_site_label
_atom_site_type_symbol
_atom_site_fract_x
_atom_site_fract_y
_atom_site_fract_z
Zn1	Zn	1.274561	-0.352405	-0.476057
Zn2	Zn	1.607894	-0.019071	-0.142724
Zn3	Zn	1.941227	0.314262	0.190610
Zn4	Zn	1.274469	-0.476226	-0.352206
Zn5	Zn	1.607803	-0.142893	-0.018872
Zn6	Zn	1.941136	0.190440	0.314461
Zn7	Zn	1.135145	-0.346118	-0.345958
Zn8	Zn	1.468479	-0.012785	-0.012625
Zn9	Zn	1.801812	0.320549	0.320709
Zn10	Zn	1.135116	-0.469918	-0.469737
Zn11	Zn	1.468449	-0.136585	-0.136403
Zn12	Zn	1.801782	0.196748	0.196930
O13	O	1.204823	-0.411167	-0.410989
O14	O	1.538156	-0.077833	-0.077656
O15	O	1.871489	0.255500	0.255677
O16	O	1.391215	-0.374101	-0.464887
O17	O	1.724548	-0.040767	-0.131554
O18	O	2.057881	0.292566	0.201779
O19	O	1.255962	-0.458976	-0.247743
O20	O	1.589295	-0.125643	0.085591
O21	O	1.922629	0.207691	0.418924
O22	O	1.153690	-0.243321	-0.363246
O23	O	1.487023	0.090012	-0.029913
O24	O	1.820356	0.423345	0.303421
O25	O	1.391148	-0.465072	-0.373894
O26	O	1.724481	-0.131739	-0.040561
O27	O	2.057814	0.201595	0.292772
O28	O	1.256118	-0.247940	-0.458829
O29	O	1.589451	0.085393	-0.125496
O30	O	1.922784	0.418727	0.207837
O31	O	1.153601	-0.363386	-0.243153
O32	O	1.486934	-0.030053	0.090181
O33	O	1.820268	0.303281	0.423514
O34	O	1.018475	-0.357269	-0.357118
O35	O	1.351809	-0.023936	-0.023784
O36	O	1.685142	0.309397	0.309549
O37	O	1.153639	-0.454321	-0.574209
O38	O	1.486973	-0.120988	-0.240876
O39	O	1.820306	0.212346	0.092457
O40	O	1.018454	-0.448225	-0.448057
O41	O	1.351787	-0.114892	-0.114724
O42	O	1.685120	0.218442	0.218609
O43	O	1.256089	-0.367984	-0.578853
O44	O	1.589422	-0.034651	-0.245519
O45	O	1.922756	0.298682	0.087814
O46	O	1.255933	-0.579020	-0.367766
O47	O	1.589267	-0.245687	-0.034433
O48	O	1.922600	0.087647	0.298901
O49	O	1.153551	-0.574386	-0.454116
O50	O	1.486884	-0.241052	-0.120782
O51	O	1.820217	0.092281	0.212551
C52	C	0.988214	-0.401381	-0.401224
C53	C	1.321548	-0.068048	-0.067891
C54	C	1.654881	0.265286	0.265442
C55	C	0.895548	-0.397212	-0.397064
C56	C	1.228881	-0.063879	-0.063731
C57	C	1.562215	0.269454	0.269602
C58	C	0.725886	-0.389585	-0.389476
C59	C	1.059219	-0.056251	-0.056142
C60	C	1.392553	0.277082	0.277191
C61	C	0.684600	-0.432804	-0.432557
C62	C	1.017933	-0.099470	-0.099224
C63	C	1.351267	0.233863	0.234110
C64	C	0.590194	-0.428559	-0.428335
C65	C	0.923528	-0.095226	-0.095001
C66	C	1.256861	0.238107	0.238332
C67	C	0.820300	-0.393828	-0.393697
C68	C	1.153634	-0.060494	-0.060364
C69	C	1.486967	0.272839	0.272970
C70	C	1.204751	-0.603574	-0.410950
C71	C	1.538085	-0.270241	-0.077617
C72	C	1.871418	0.063093	0.255717
C73	C	1.204797	-0.685890	-0.410962
C74	C	1.538131	-0.352557	-0.077628
C75	C	1.871464	-0.019224	0.255705
C76	C	1.204904	-0.984986	-0.411034
C77	C	1.538237	-0.651653	-0.077701
C78	C	1.871570	-0.318319	0.255633
C79	C	1.269140	-0.956538	-0.356544
C80	C	1.602474	-0.623204	-0.023210
C81	C	1.935807	-0.289871	0.310123
C82	C	1.269363	-0.870929	-0.356702
C83	C	1.602696	-0.537596	-0.023369
C84	C	1.936030	-0.204262	0.309964
C85	C	1.204851	-0.836601	-0.410997
C86	C	1.538184	-0.503268	-0.077664
C87	C	1.871518	-0.169934	0.255669
C88	C	1.228667	-0.868696	-0.490130
C89	C	1.562001	-0.535362	-0.156796
C90	C	1.895334	-0.202029	0.176537
C91	C	1.229165	-0.954363	-0.489839
C92	C	1.562498	-0.621030	-0.156506
C93	C	1.895831	-0.287696	0.176827
C94	C	1.116679	-0.949512	-0.387060
C95	C	1.450012	-0.616178	-0.053727
C96	C	1.783346	-0.282845	0.279607
C97	C	1.117115	-0.863882	-0.385337
C98	C	1.450448	-0.530548	-0.052004
C99	C	1.783781	-0.197215	0.281329
C100	C	1.204820	-0.752740	-0.410982
C101	C	1.538153	-0.419407	-0.077648
C102	C	1.871486	-0.086074	0.255685
C103	C	1.204937	-1.068847	-0.411055
C104	C	1.538270	-0.735514	-0.077722
C105	C	1.871604	-0.402180	0.255611
C106	C	1.422277	-0.420991	-0.420793
C107	C	1.755610	-0.087658	-0.087459
C108	C	2.088944	0.245675	0.245874
C109	C	1.514943	-0.425178	-0.424971
C110	C	1.848277	-0.091844	-0.091637
C111	C	2.181610	0.241489	0.241696
C112	C	1.204871	-0.411150	-0.604153
C113	C	1.538204	-0.077817	-0.270820
C114	C	1.871538	0.255516	0.062513
C115	C	1.204891	-0.411143	-0.686468
C116	C	1.538225	-0.077810	-0.353135
C117	C	1.871558	0.255524	-0.019802
C118	C	1.204917	-0.218009	-0.411046
C119	C	1.538250	0.115324	-0.077712
C120	C	1.871584	0.448658	0.255621
C121	C	1.204957	-0.135697	-0.411070
C122	C	1.538291	0.197637	-0.077736
C123	C	1.871624	0.530970	0.255597
C124	C	1.204940	-0.411007	-0.985562
C125	C	1.538273	-0.077673	-0.652228
C126	C	1.871607	0.255660	-0.318895
C127	C	1.140259	-0.465135	-0.951305
C128	C	1.473593	-0.131802	-0.617972
C129	C	1.806926	0.201531	-0.284638
C130	C	1.140434	-0.465408	-0.865695
C131	C	1.473768	-0.132074	-0.532361
C132	C	1.807101	0.201259	-0.199028
C133	C	1.204915	-0.411074	-0.837178
C134	C	1.538249	-0.077741	-0.503845
C135	C	1.871582	0.255592	-0.170511
C136	C	1.292758	-0.436221	-0.872227
C137	C	1.626091	-0.102888	-0.538894
C138	C	1.959424	0.230446	-0.205561
C139	C	1.292397	-0.436579	-0.957856
C140	C	1.625731	-0.103246	-0.624523
C141	C	1.959064	0.230087	-0.291189
C142	C	1.182542	-0.331639	-0.952984
C143	C	1.515875	0.001695	-0.619651
C144	C	1.849209	0.335028	-0.286317
C145	C	1.180588	-0.332003	-0.867245
C146	C	1.513921	0.001330	-0.533912
C147	C	1.847254	0.334664	-0.200578
C148	C	1.204907	-0.411112	-0.753318
C149	C	1.538240	-0.077778	-0.419985
C150	C	1.871573	0.255555	-0.086651
C151	C	1.204955	-0.410971	-1.069422
C152	C	1.538288	-0.077638	-0.736089
C153	C	1.871621	0.255695	-0.402755
C154	C	1.204823	-0.411132	-0.218579
C155	C	1.538156	-0.077799	0.114755
C156	C	1.871489	0.255535	0.448088
C157	C	1.204964	-0.410938	-0.136271
C158	C	1.538297	-0.077604	0.197062
C159	C	1.871630	0.255729	0.530395
H160	H	0.690334	-0.349400	-0.349424
H161	H	1.023667	-0.016067	-0.016091
H162	H	1.357000	0.317267	0.317242
H163	H	1.254463	-0.849286	-0.298151
H164	H	1.587796	-0.515952	0.035182
H165	H	1.921129	-0.182619	0.368515
Cl166	Cl	1.246421	-0.987373	-0.265888
Cl167	Cl	1.579755	-0.654040	0.067446
Cl168	Cl	1.913088	-0.320707	0.400779
H169	H	1.334135	-0.980940	-0.372552
H170	H	1.667468	-0.647607	-0.039218
H171	H	2.000802	-0.314273	0.294115
H172	H	1.183311	-0.846298	-0.531991
H173	H	1.516644	-0.512964	-0.198658
H174	H	1.849978	-0.179631	0.134675
Cl175	Cl	1.327118	-0.839940	-0.521166
Cl176	Cl	1.660452	-0.506606	-0.187833
Cl177	Cl	1.993785	-0.173273	0.145500
H178	H	1.155223	-0.524156	-0.845874
H179	H	1.488556	-0.190823	-0.512540
H180	H	1.821890	0.142511	-0.179207
Cl181	Cl	1.328729	-0.989616	-0.520479
Cl182	Cl	1.662063	-0.656282	-0.187146
Cl183	Cl	1.995396	-0.322949	0.146188
H184	H	1.095012	-0.970185	-0.330151
H185	H	1.428345	-0.636852	0.003183
H186	H	1.761679	-0.303519	0.336516
Cl187	Cl	1.370260	-0.843761	-0.381682
Cl188	Cl	1.703594	-0.510428	-0.048349
Cl189	Cl	2.036927	-0.177094	0.284984
H190	H	1.119600	-0.309499	-0.971744
H191	H	1.452933	0.023835	-0.638411
H192	H	1.786266	0.357168	-0.305078
Cl193	Cl	1.039383	-0.440326	-0.978552
Cl194	Cl	1.372716	-0.106992	-0.645218
Cl195	Cl	1.706049	0.226341	-0.311885
Cl196	Cl	1.321707	-0.526338	-0.990024
Cl197	Cl	1.655041	-0.193004	-0.656691
Cl198	Cl	1.988374	0.140329	-0.323358
H199	H	1.184427	-0.973079	-0.532053
H200	H	1.517760	-0.639746	-0.198719
H201	H	1.851093	-0.306412	0.134614
H202	H	1.099156	-0.842803	-0.327083
H203	H	1.432490	-0.509470	0.006250
H204	H	1.765823	-0.176137	0.339584
H205	H	1.066679	-0.840227	-0.421800
H206	H	1.400012	-0.506894	-0.088467
H207	H	1.733346	-0.173561	0.244866
H208	H	0.720155	-0.472991	-0.472612
H209	H	1.053488	-0.139658	-0.139279
H210	H	1.386821	0.193676	0.194055
Cl211	Cl	1.042784	-0.977479	-0.448257
Cl212	Cl	1.376117	-0.644146	-0.114923
Cl213	Cl	1.709451	-0.310813	0.218410
H214	H	1.115943	-0.313112	-0.844011
H215	H	1.449277	0.020222	-0.510678
H216	H	1.782610	0.353555	-0.177345
H217	H	1.075296	-0.449213	-0.841738
H218	H	1.408629	-0.115880	-0.508404
H219	H	1.741963	0.217454	-0.175071
Cl220	Cl	1.248022	-0.265939	-0.837274
Cl221	Cl	1.581355	0.067394	-0.503940
Cl222	Cl	1.914689	0.400728	-0.170607
Cl223	Cl	1.162815	-0.555269	-0.985601
Cl224	Cl	1.496148	-0.221935	-0.652267
Cl225	Cl	1.829481	0.111398	-0.318934
H226	H	1.229652	-0.291261	-0.975377
H227	H	1.562986	0.042072	-0.642044
H228	H	1.896319	0.375405	-0.308710
H229	H	1.342224	-0.399080	-0.980835
H230	H	1.675557	-0.065747	-0.647502
H231	H	2.008890	0.267586	-0.314169
Cl232	Cl	1.369166	-0.377535	-0.844252
Cl233	Cl	1.702499	-0.044202	-0.510918
Cl234	Cl	2.035832	0.289131	-0.177585
H235	H	1.312072	-0.493764	-0.851650
H236	H	1.645405	-0.160431	-0.518316
H237	H	1.978738	0.172903	-0.184983
