data_functionalizedCrystal
_audit_creation_method	'MofGen! by Chris Wilmer'
_symmetry_space_group_name_H-M	'P1'
_symmetry_Int_Tables_number	1
_symmetry_cell_setting	triclinic
loop_
_symmetry_equiv_pos_as_xyz
  x,y,z
_cell_length_a	13.032831
_cell_length_b	14.908520
_cell_length_c	13.032268
_cell_angle_alpha	99.985811
_cell_angle_beta	90.886977
_cell_angle_gamma	86.522975
loop_
_atom_site_label
_atom_site_type_symbol
_atom_site_fract_x
_atom_site_fract_y
_atom_site_fract_z
Zn1	Zn	1.453341	-0.608125	-0.815711
Zn2	Zn	1.953341	-0.108125	-0.315711
Zn3	Zn	1.465124	-0.742288	-0.651425
Zn4	Zn	1.965124	-0.242288	-0.151425
Zn5	Zn	1.305991	-0.570509	-0.619794
Zn6	Zn	1.805991	-0.070509	-0.119794
Zn7	Zn	1.271734	-0.737420	-0.801271
Zn8	Zn	1.771734	-0.237420	-0.301271
O9	O	1.374048	-0.664586	-0.722050
O10	O	1.874048	-0.164586	-0.222050
O11	O	1.597505	-0.643703	-0.813198
O12	O	2.097505	-0.143703	-0.313198
O13	O	1.463283	-0.705796	-0.502526
O14	O	1.963283	-0.205796	-0.002526
O15	O	1.334942	-0.449498	-0.638589
O16	O	1.834942	0.050502	-0.138589
O17	O	1.606162	-0.742272	-0.692498
O18	O	2.106162	-0.242272	-0.192498
O19	O	1.443199	-0.477135	-0.782527
O20	O	1.943199	0.022865	-0.282527
O21	O	1.346369	-0.579590	-0.479287
O22	O	1.846369	-0.079590	0.020713
O23	O	1.158846	-0.574869	-0.624587
O24	O	1.658846	-0.074869	-0.124587
O25	O	1.276556	-0.733974	-0.947889
O26	O	1.776556	-0.233974	-0.447889
O27	O	1.133677	-0.697498	-0.757917
O28	O	1.633677	-0.197498	-0.257917
O29	O	1.409982	-0.638982	-0.958498
O30	O	1.909982	-0.138982	-0.458498
O31	O	1.430066	-0.867643	-0.678496
O32	O	1.930066	-0.367643	-0.178496
O33	O	1.287983	-0.864066	-0.788588
O34	O	1.787983	-0.364066	-0.288588
C35	C	1.109287	-0.631574	-0.686253
C36	C	1.609287	-0.131574	-0.186253
C37	C	0.996016	-0.617476	-0.670965
C38	C	1.496016	-0.117476	-0.170965
C39	C	1.356610	-0.898531	-0.735434
C40	C	1.856610	-0.398531	-0.235434
C41	C	1.349239	-0.998628	-0.741207
C42	C	1.849239	-0.498628	-0.241207
C43	C	0.933097	-0.671944	-0.730029
C44	C	1.433097	-0.171944	-0.230029
C45	C	0.816026	-0.657374	-0.714229
C46	C	1.316026	-0.157374	-0.214229
C47	C	1.483459	-1.190413	-0.637541
C48	C	1.983459	-0.690413	-0.137541
C49	C	1.476537	-1.284464	-0.642962
C50	C	1.976537	-0.784464	-0.142962
C51	C	1.328478	-1.280784	-0.757475
C52	C	1.828478	-0.780784	-0.257475
C53	C	1.335400	-1.186733	-0.752054
C54	C	1.835400	-0.686733	-0.252054
C55	C	1.412892	-1.141551	-0.692084
C56	C	1.912892	-0.641551	-0.192084
C57	C	1.419809	-1.047497	-0.686657
C58	C	1.919809	-0.547497	-0.186657
C59	C	1.271756	-1.043820	-0.801176
C60	C	1.771756	-0.543820	-0.301176
C61	C	1.264834	-1.137870	-0.806597
C62	C	1.764834	-0.637870	-0.306597
C63	C	1.639842	-0.697726	-0.757987
C64	C	2.139842	-0.197726	-0.257987
C65	C	1.753108	-0.711849	-0.773302
C66	C	2.253108	-0.211849	-0.273302
C67	C	1.338133	-0.690131	-0.991762
C68	C	1.838133	-0.190131	-0.491762
C69	C	1.322829	-0.701017	-1.106698
C70	C	1.822829	-0.201017	-0.606698
C71	C	1.391578	-0.429732	-0.708640
C72	C	1.891578	0.070268	-0.208640
C73	C	1.399048	-0.329652	-0.702926
C74	C	1.899048	0.170348	-0.202926
C75	C	1.382022	-0.658870	-1.163188
C76	C	1.882022	-0.158870	-0.663188
C77	C	1.366205	-0.670120	-1.281980
C78	C	1.866205	-0.170120	-0.781980
C79	C	1.409886	-0.639082	-0.453391
C80	C	1.909886	-0.139082	0.046609
C81	C	1.425406	-0.627967	-0.338469
C82	C	1.925406	-0.127967	0.161531
H83	H	0.965901	-0.729359	-0.792296
H84	H	1.465901	-0.229359	-0.292296
N85	N	1.503395	-0.998766	-0.621989
N86	N	2.003395	-0.498766	-0.121989
H87	H	1.497074	-0.931770	-0.626828
H88	H	1.997074	-0.431770	-0.126828
H89	H	1.496228	-1.006277	-0.546937
H90	H	1.996228	-0.506277	-0.046937
N91	N	1.567024	-1.141671	-0.572852
N92	N	2.067024	-0.641671	-0.072852
H93	H	1.610675	-1.186897	-0.539116
H94	H	2.110675	-0.686897	-0.039116
H95	H	1.611415	-1.112461	-0.619100
H96	H	2.111415	-0.612461	-0.119100
H97	H	0.783226	-0.599948	-0.651965
H98	H	1.283226	-0.099948	-0.151965
N99	N	1.464674	-0.600047	-1.110781
N100	N	1.964674	-0.100047	-0.610781
H101	H	1.533954	-0.624882	-1.140178
H102	H	2.033954	-0.124882	-0.640178
H103	H	1.451087	-0.535518	-1.123727
H104	H	1.951087	-0.035518	-0.623727
H105	H	1.487793	-0.583546	-1.298892
H106	H	1.987793	-0.083546	-0.798892
H107	H	0.785905	-0.769267	-0.835576
H108	H	1.285905	-0.269267	-0.335576
N109	N	1.240194	-0.759854	-1.159118
N110	N	1.740194	-0.259854	-0.659118
H111	H	1.202865	-0.786436	-1.105099
H112	H	1.702865	-0.286436	-0.605099
H113	H	1.189845	-0.721537	-1.195464
H114	H	1.689845	-0.221537	-0.695464
H115	H	0.963212	-0.560054	-0.608705
H116	H	1.463212	-0.060054	-0.108705
N117	N	1.283545	-0.728939	-1.334388
N118	N	1.783545	-0.228939	-0.834388
H119	H	1.283957	-0.728633	-1.411819
H120	H	1.783957	-0.228633	-0.911819
H121	H	1.297083	-0.793456	-1.321386
H122	H	1.797083	-0.293456	-0.821386
H123	H	1.265394	-1.317589	-0.806308
H124	H	1.765394	-0.817589	-0.306308
N125	N	1.552649	-1.337168	-0.584138
N126	N	2.052649	-0.837168	-0.084138
H127	H	1.602787	-1.294271	-0.545327
H128	H	2.102787	-0.794271	-0.045327
H129	H	1.514712	-1.366537	-0.532896
H130	H	2.014712	-0.866537	-0.032896
H131	H	1.201744	-1.174671	-0.855426
H132	H	1.701744	-0.674671	-0.355426
N133	N	1.195632	-0.991118	-0.860002
N134	N	1.695632	-0.491118	-0.360002
H135	H	1.211771	-0.924680	-0.847467
H136	H	1.711771	-0.424680	-0.347467
H137	H	1.200383	-1.016483	-0.936950
H138	H	1.700383	-0.516483	-0.436950
