data_functionalizedCrystal
_audit_creation_method	'MofGen! by Chris Wilmer'
_symmetry_space_group_name_H-M	'P1'
_symmetry_Int_Tables_number	1
_symmetry_cell_setting	triclinic
loop_
_symmetry_equiv_pos_as_xyz
  x,y,z
_cell_length_a	19.188930
_cell_length_b	14.853576
_cell_length_c	13.330367
_cell_angle_alpha	89.997174
_cell_angle_beta	90.021431
_cell_angle_gamma	96.608390
loop_
_atom_site_label
_atom_site_type_symbol
_atom_site_fract_x
_atom_site_fract_y
_atom_site_fract_z
O1	O	-0.926526	0.112552	-0.083742
O2	O	-0.723266	0.127703	-0.083673
O3	O	-0.830322	-0.011132	-0.083707
O4	O	-0.819470	0.251387	-0.083708
O5	O	-0.830307	-0.011135	0.083140
O6	O	-0.723250	0.127700	0.083174
O7	O	-0.926510	0.112549	0.083105
Cu8	Cu	-0.824879	0.120124	0.098374
Cu9	Cu	-0.824897	0.120128	-0.098942
O10	O	-0.819454	0.251384	0.083139
C11	C	-0.697245	0.127211	-0.000240
C12	C	-0.619736	0.125738	-0.000214
C13	C	-0.829821	-0.044719	-0.000285
C14	C	-0.828345	-0.144794	-0.000290
C15	C	-0.952531	0.113041	-0.000330
C16	C	-1.030040	0.114514	-0.000363
C17	C	-0.575085	0.207202	-0.000230
C18	C	-0.502257	0.205818	-0.000241
C19	C	-0.474082	0.122966	-0.000256
C20	C	-0.518742	0.041491	-0.000235
C21	C	-0.591569	0.042877	-0.000214
N22	N	-0.365894	0.059637	-0.057082
N23	N	-0.296711	0.058326	-0.057104
C24	C	-0.254659	0.118785	-0.000318
N25	N	-0.284403	0.180618	0.056479
N26	N	-0.353592	0.181932	0.056497
C27	C	-0.395114	0.121454	-0.000279
C28	C	-0.131040	0.198754	-0.000344
C29	C	-0.058210	0.197367	-0.000349
C30	C	-0.074697	0.033037	-0.000353
C31	C	-0.147525	0.034427	-0.000338
C32	C	-0.175692	0.117288	-0.000338
C33	C	-0.819955	0.284971	-0.000285
C34	C	-0.821431	0.385046	-0.000287
N35	N	-0.824871	0.120121	0.237156
C36	C	-0.822135	0.432063	-0.091240
C37	C	-0.822110	0.432064	0.090664
C38	C	-0.823494	0.526091	0.090665
C39	C	-0.824197	0.573108	-0.000288
C40	C	-0.823517	0.526099	-0.091241
C41	C	-0.824167	0.573108	0.181617
C42	C	-0.825550	0.667141	0.181622
C43	C	-0.826259	0.714159	0.090668
C44	C	-0.825579	0.667144	-0.000289
C45	C	-0.826282	0.714161	-0.091242
C46	C	-0.825608	0.667146	-0.182200
C47	C	-0.824225	0.573117	-0.182195
C48	C	-0.827641	0.808188	0.090663
C49	C	-0.827664	0.808196	-0.091243
N50	N	-0.824911	0.120124	-0.237724
C51	C	-0.777491	0.181580	0.709794
C52	C	-0.872323	0.058668	0.709731
C53	C	-0.872315	0.058666	0.604713
C54	C	-0.824895	0.120122	0.552230
C55	C	-0.777483	0.181581	0.604766
C56	C	-0.919731	-0.002786	0.552169
C57	C	-0.919725	-0.002791	0.447145
C58	C	-0.872301	0.058662	0.394660
C59	C	-0.824887	0.120123	0.447202
C60	C	-0.777467	0.181579	0.394719
C61	C	-0.730048	0.243036	0.447259
C62	C	-0.730059	0.243033	0.552281
C63	C	-0.872291	0.058665	0.289638
C64	C	-0.777459	0.181580	0.289691
H65	H	-0.598014	0.274673	-0.000232
C66	C	-0.826384	0.718877	-0.282244
N67	N	-0.826970	0.757844	-0.357596
H68	H	-0.910934	0.008637	0.752466
H69	H	-0.821588	0.393780	-0.165296
C70	C	-0.009094	0.286989	-0.000352
N71	N	0.027901	0.354494	-0.000351
H72	H	-0.910902	0.008631	0.246865
C73	C	-0.971881	-0.070401	0.389360
N74	N	-1.011162	-0.121329	0.345836
C75	C	-0.453133	0.295438	-0.000270
N76	N	-0.416134	0.362940	-0.000297
C77	C	-0.487748	-0.049647	-0.000253
N78	N	-0.464404	-0.118294	-0.000264
C79	C	-0.640687	-0.046743	-0.000203
N80	N	-0.677683	-0.114247	-0.000198
H81	H	-0.691441	0.293078	0.404516
C82	C	-0.823476	0.521396	-0.282240
N83	N	-0.822908	0.482436	-0.357593
C84	C	-0.162025	0.289901	-0.000332
N85	N	-0.185362	0.358555	-0.000321
H86	H	-0.828240	0.846470	-0.165309
C87	C	-0.821328	0.380344	0.190706
N88	N	-0.820739	0.341384	0.266061
C89	C	-0.823381	0.521386	0.281657
N90	N	-0.822788	0.482425	0.357011
H91	H	-0.826102	0.705411	0.255685
C92	C	-0.725328	0.249173	0.767588
N93	N	-0.686037	0.300084	0.811120
H94	H	-0.051758	-0.034423	-0.000427
C95	C	-0.196643	-0.055191	-0.000332
N96	N	-0.233638	-0.122696	-0.000326
C97	C	-0.828383	0.859900	0.190711
N98	N	-0.828944	0.898847	0.266072
H99	H	-0.738841	0.231622	0.246966
H100	H	-0.691453	0.293070	0.595066
C101	C	-0.971889	-0.070383	0.609906
N102	N	-1.011175	-0.121302	0.653399
