data_functionalizedCrystal
_audit_creation_method	'MofGen! by Chris Wilmer'
_symmetry_space_group_name_H-M	'P1'
_symmetry_Int_Tables_number	1
_symmetry_cell_setting	triclinic
loop_
_symmetry_equiv_pos_as_xyz
  x,y,z
_cell_length_a	6.817900
_cell_length_b	17.982968
_cell_length_c	17.982959
_cell_angle_alpha	95.926238
_cell_angle_beta	102.451857
_cell_angle_gamma	102.451960
loop_
_atom_site_label
_atom_site_type_symbol
_atom_site_fract_x
_atom_site_fract_y
_atom_site_fract_z
V1	V	-4.009936	-0.237869	-0.106127
O2	O	-4.003034	-0.233013	0.004365
O3	O	-3.956505	-0.236557	-0.209726
O4	O	-3.956507	-0.341468	-0.104817
O5	O	-4.003032	-0.127376	-0.101270
V6	V	-4.494867	-0.224615	-0.092873
O7	O	-4.268105	-0.266943	-0.135201
O8	O	-4.686896	-0.195541	-0.063799
O9	O	-4.325092	-0.225927	0.010726
O10	O	-4.619167	-0.229470	-0.203366
O11	O	-4.619168	-0.335108	-0.097730
O12	O	-4.325090	-0.121016	-0.094183
C13	C	-3.800445	-0.232886	-0.234971
C14	C	-3.838012	-0.232503	-0.319667
C15	C	-4.037393	-0.236136	-0.363349
C16	C	-4.072682	-0.235781	-0.442930
C17	C	-3.908585	-0.231789	-0.478826
C18	C	-3.709188	-0.228158	-0.435138
C19	C	-3.673905	-0.228518	-0.355560
C20	C	-3.851479	-0.226707	-0.756070
C21	C	-3.886778	-0.226345	-0.835654
C22	C	-4.250256	-0.233970	-0.843439
C23	C	-4.214973	-0.234330	-0.763861
C24	C	-4.015583	-0.230704	-0.720181
C25	C	-3.977322	-0.231090	-0.633891
C26	C	-3.946841	-0.231397	-0.565114
C27	C	-3.800446	-0.366709	-0.101148
C28	C	-3.838012	-0.451404	-0.100762
C29	C	-4.037396	-0.495087	-0.104399
C30	C	-4.072681	-0.574666	-0.104036
C31	C	-3.908583	-0.610563	-0.100042
C32	C	-3.709182	-0.566874	-0.096403
C33	C	-3.673896	-0.487295	-0.096760
C34	C	-3.851479	-0.887806	-0.094960
C35	C	-3.886782	-0.967391	-0.094605
C36	C	-4.250264	-0.975178	-0.102236
C37	C	-4.214978	-0.895599	-0.102593
C38	C	-4.015580	-0.851916	-0.098950
C39	C	-3.977321	-0.765627	-0.099342
C40	C	-3.946842	-0.696851	-0.099655
C41	C	-4.144494	-0.229596	0.035967
C42	C	-4.086164	-0.229983	0.120662
C43	C	-4.144493	-0.095770	-0.097854
C44	C	-4.086166	-0.011075	-0.098236
H45	H	-3.575582	-0.224912	-0.464372
H46	H	-3.511552	-0.225564	-0.319995
H47	H	-3.689127	-0.223750	-0.720514
H48	H	-4.348609	-0.866377	-0.105850
O49	O	-3.549888	-0.601812	-0.092422
C50	C	-3.524927	-0.637062	-0.025656
H51	H	-3.676520	-0.648853	-0.006803
H52	H	-3.397503	-0.597096	0.022532
C53	C	-3.278824	-0.699146	-0.066439
C54	C	-3.465019	-0.713634	-0.043288
H55	H	-3.241861	-0.746377	-0.077314
H56	H	-3.295633	-0.675396	-0.111420
H57	H	-3.172659	-0.665839	-0.026279
H58	H	-3.571185	-0.746933	-0.083451
H59	H	-3.448226	-0.737392	0.001685
H60	H	-4.171031	-0.465867	-0.107657
H61	H	-3.511530	-0.451726	-0.093780
H62	H	-4.235033	-0.610229	-0.106993
H63	H	-4.171022	-0.239380	-0.334127
H64	H	-4.412626	-1.010753	-0.105199
H65	H	-4.235035	-0.238741	-0.478493
O66	O	-4.374266	-0.238309	-0.728922
C67	C	-4.399227	-0.305079	-0.693677
H68	H	-4.247634	-0.323931	-0.681888
H69	H	-4.526651	-0.353264	-0.733646
C70	C	-4.645333	-0.264302	-0.631590
C71	C	-4.459137	-0.287453	-0.617105
H72	H	-4.682298	-0.253431	-0.584358
H73	H	-4.628523	-0.219319	-0.655337
H74	H	-4.751497	-0.304460	-0.664900
H75	H	-4.352973	-0.247291	-0.583803
H76	H	-4.475931	-0.332429	-0.593350
O77	O	-4.443812	-0.237394	-0.885937
C78	C	-4.440635	-0.171083	-0.921650
H79	H	-4.276635	-0.145611	-0.926682
H80	H	-4.492572	-0.126658	-0.885522
C81	C	-4.789975	-0.224352	-0.996486
C82	C	-4.588549	-0.193070	-1.002672
H83	H	-4.881221	-0.237913	-1.046463
H84	H	-4.792119	-0.269026	-0.972424
H85	H	-4.833226	-0.187327	-0.966377
H86	H	-4.545292	-0.230099	-1.032773
H87	H	-4.586402	-0.148403	-1.026742
O88	O	-3.727226	-1.002204	-0.090581
C89	C	-3.573564	-0.969845	-0.022029
H90	H	-3.646126	-0.942884	0.021992
H91	H	-3.447534	-0.923608	-0.034845
C92	C	-3.388820	-1.066493	-0.043365
C93	C	-3.477945	-1.033384	0.010704
H94	H	-3.329828	-1.105685	-0.023175
H95	H	-3.492339	-1.088292	-0.089552
H96	H	-3.283807	-1.027955	-0.054041
H97	H	-3.582972	-1.071920	0.021372
H98	H	-3.374440	-1.011592	0.056893
H99	H	-3.753141	-0.223099	-0.864879
H100	H	-3.689136	-0.852254	-0.092020
