data_functionalizedCrystal
_audit_creation_method	'MofGen! by Chris Wilmer'
_symmetry_space_group_name_H-M	'P1'
_symmetry_Int_Tables_number	1
_symmetry_cell_setting	triclinic
loop_
_symmetry_equiv_pos_as_xyz
  x,y,z
_cell_length_a	9.016244
_cell_length_b	12.811445
_cell_length_c	12.811415
_cell_angle_alpha	83.528277
_cell_angle_beta	84.562316
_cell_angle_gamma	84.566518
loop_
_atom_site_label
_atom_site_type_symbol
_atom_site_fract_x
_atom_site_fract_y
_atom_site_fract_z
O1	O	-0.329751	1.393281	0.141419
O2	O	-0.290729	1.087766	0.156783
O3	O	-0.290721	1.248210	-0.003659
O4	O	-0.329760	1.232837	0.301860
O5	O	-0.044038	1.248204	-0.003671
O6	O	-0.044046	1.087760	0.156771
O7	O	-0.083068	1.393276	0.141407
Cu8	Cu	-0.041033	1.240517	0.149088
Cu9	Cu	-0.332764	1.240524	0.149102
O10	O	-0.083077	1.232831	0.301848
C11	C	-0.162012	1.048655	0.155914
C12	C	-0.145993	0.932126	0.153332
N13	N	0.164154	1.240520	0.149077
C14	C	-0.384855	0.713158	0.148512
C15	C	-0.369810	0.603669	0.146085
C16	C	-0.100860	0.603656	0.146060
C17	C	-0.115905	0.713145	0.148487
C18	C	-0.257907	0.767893	0.149711
C19	C	-0.272950	0.877385	0.152129
C20	C	-0.004002	0.877369	0.152112
C21	C	0.011043	0.767880	0.149685
C22	C	0.399063	1.326666	0.063544
C23	C	0.227247	1.326435	0.063220
C24	C	0.244604	1.130910	0.124675
C25	C	0.416560	1.131423	0.124075
C26	C	0.380800	1.263024	0.259312
C27	C	0.208609	1.265503	0.258580
N28	N	0.462048	1.240533	0.149103
C29	C	-0.162005	1.247346	-0.042773
C30	C	-0.145988	1.244766	-0.159303
C31	C	-0.211788	1.432386	0.142275
C32	C	-0.227817	1.548915	0.144858
C33	C	-0.384854	1.239907	-0.378251
C34	C	-0.369813	1.237483	-0.487741
C35	C	-0.100864	1.237488	-0.487775
C36	C	-0.115905	1.239911	-0.378285
C37	C	-0.257905	1.241122	-0.323527
C38	C	-0.272947	1.243553	-0.214035
C39	C	-0.003998	1.243551	-0.214070
C40	C	0.011043	1.241127	-0.323561
C41	C	-0.211796	1.233696	0.340962
C42	C	-0.227822	1.236275	0.457493
H43	H	-0.500478	0.757735	0.149503
H44	H	0.126656	0.723289	0.148692
H45	H	-0.388571	1.244543	-0.169453
H46	H	0.099369	0.921945	0.153086
O47	O	-0.426099	0.936443	0.153438
H48	H	-0.447776	0.977297	0.225990
H49	H	0.014747	1.236493	-0.532377
O50	O	0.436685	1.434943	0.082576
H51	H	0.500688	1.428531	0.153214
O52	O	0.164186	1.239842	-0.382636
H53	H	0.185882	1.167293	-0.423493
H54	H	-0.473187	1.236489	-0.532293
O55	O	0.154205	1.434343	0.082543
H56	H	0.241568	1.487164	0.092200
O57	O	-0.506726	0.544633	0.144762
H58	H	-0.607988	0.601103	0.146004
H59	H	0.099372	1.244545	-0.169503
O60	O	0.191366	1.043927	0.204985
H61	H	0.287706	1.004309	0.246061
O62	O	-0.538002	1.241209	-0.319182
H63	H	-0.607999	1.312193	-0.349232
O64	O	0.052159	0.544472	0.145782
H65	H	0.041238	0.459097	0.144270
O66	O	0.473323	1.307847	-0.044172
H67	H	0.554892	1.237413	-0.037036
H68	H	0.199070	1.312014	-0.018559
H69	H	0.458999	1.065379	0.183998
O70	O	0.487566	1.105302	0.017582
H71	H	0.399003	1.092425	-0.033006
O72	O	0.205388	1.104118	0.019387
H73	H	0.128662	1.168691	-0.015723
H74	H	0.410490	1.341270	0.282649
H75	H	0.154474	1.346139	0.277085
O76	O	0.150318	1.187823	0.346920
H77	H	0.088483	1.129934	0.314010
O78	O	0.434538	1.179844	0.343669
H79	H	0.518697	1.122753	0.307347
