data_functionalizedCrystal
_audit_creation_method	'MofGen! by Chris Wilmer'
_symmetry_space_group_name_H-M	'P1'
_symmetry_Int_Tables_number	1
_symmetry_cell_setting	triclinic
loop_
_symmetry_equiv_pos_as_xyz
  x,y,z
_cell_length_a	17.077404
_cell_length_b	12.594510
_cell_length_c	17.077402
_cell_angle_alpha	89.963297
_cell_angle_beta	90.023718
_cell_angle_gamma	89.979289
loop_
_atom_site_label
_atom_site_type_symbol
_atom_site_fract_x
_atom_site_fract_y
_atom_site_fract_z
Zn1	Zn	1.200061	-0.601831	-0.312432
Zn2	Zn	1.199964	-0.423845	-0.443728
Zn3	Zn	1.068790	-0.423861	-0.312481
Zn4	Zn	1.068759	-0.601777	-0.443661
O5	O	1.134393	-0.512828	-0.378076
O6	O	1.309895	-0.578237	-0.329857
O7	O	1.182535	-0.274901	-0.426367
O8	O	1.086257	-0.447499	-0.202628
O9	O	1.309823	-0.447472	-0.426319
O10	O	1.182701	-0.578253	-0.202592
O11	O	1.086162	-0.274913	-0.329940
O12	O	0.958939	-0.447446	-0.329874
O13	O	1.086204	-0.750730	-0.426204
O14	O	0.958916	-0.578160	-0.426251
O15	O	1.182671	-0.750770	-0.329791
O16	O	1.182506	-0.447419	-0.553566
O17	O	1.086110	-0.578144	-0.553517
C18	C	0.930445	-0.512799	-0.378061
C19	C	0.843196	-0.512812	-0.378074
C20	C	0.802214	-0.580765	-0.428333
C21	C	0.720234	-0.580782	-0.428335
C22	C	0.679236	-0.512840	-0.378081
C23	C	0.720223	-0.444883	-0.327816
C24	C	0.802202	-0.444872	-0.327811
C25	C	0.549353	-0.444909	-0.327831
C26	C	0.467369	-0.444918	-0.327837
C27	C	0.467385	-0.580819	-0.428356
C28	C	0.549364	-0.580808	-0.428351
C29	C	0.590345	-0.512850	-0.378087
C30	C	1.134445	-0.790450	-0.377985
C31	C	1.134467	-0.908755	-0.377946
C32	C	1.186951	-0.978030	-0.325504
C33	C	1.115360	-1.048823	-0.306290
C34	C	1.206100	-1.048762	-0.397105
C35	C	1.062838	-0.977990	-0.358696
C36	C	1.153626	-0.977922	-0.449544
C37	C	1.081986	-1.048683	-0.430358
C38	C	1.339138	-0.512859	-0.378090
C39	C	1.426387	-0.512871	-0.378097
C40	C	1.134315	-0.512797	-0.582023
C41	C	1.134354	-0.512819	-0.669273
C42	C	1.134387	-0.236288	-0.378109
C43	C	1.134517	-0.117983	-0.377927
C44	C	1.184545	-0.580957	-0.710177
C45	C	1.184578	-0.580980	-0.792158
C46	C	1.134423	-0.512858	-0.833233
C47	C	1.084226	-0.444717	-0.792323
C48	C	1.084190	-0.444700	-0.710344
C49	C	1.084307	-0.444754	-0.963193
C50	C	1.084344	-0.444769	-1.045177
C51	C	1.184695	-0.581033	-1.045007
C52	C	1.184659	-0.581017	-0.963028
C53	C	1.134463	-0.512874	-0.922124
C54	C	1.134493	-0.512884	-0.173331
C55	C	1.134535	-0.512907	-0.086081
H56	H	0.835568	-0.389543	-0.286880
H57	H	1.225390	-0.636425	-0.676739
H58	H	1.225455	-0.636457	-0.825458
H59	H	1.002263	-0.947032	-0.342413
H60	H	1.225502	-0.636481	-0.929585
Br61	Br	1.007962	-1.100089	-0.504254
Br62	Br	1.252823	-0.673507	-1.100518
H63	H	1.266658	-1.079853	-0.413316
Br64	Br	1.180643	-0.925973	-0.550449
Br65	Br	1.016278	-0.352314	-1.100922
Br66	Br	1.016184	-0.352273	-0.907680
Br67	Br	1.016148	-0.352278	-0.848066
Br68	Br	1.088377	-1.100734	-0.205360
H69	H	1.043318	-0.389217	-0.677041
Br70	Br	0.605004	-0.673006	-0.496561
Br71	Br	0.857846	-0.672970	-0.496545
H72	H	0.686870	-0.636116	-0.469262
H73	H	0.434014	-0.636156	-0.469280
H74	H	0.582718	-0.389580	-0.286894
Br75	Br	0.664585	-0.352684	-0.259605
Br76	Br	0.411729	-0.352701	-0.259640
Br77	Br	1.260802	-0.926318	-0.251548
