data_functionalizedCrystal
_audit_creation_method	'MofGen! by Chris Wilmer'
_symmetry_space_group_name_H-M	'P1'
_symmetry_Int_Tables_number	1
_symmetry_cell_setting	triclinic
loop_
_symmetry_equiv_pos_as_xyz
  x,y,z
_cell_length_a	15.944551
_cell_length_b	9.798715
_cell_length_c	10.723024
_cell_angle_alpha	90.001978
_cell_angle_beta	96.016696
_cell_angle_gamma	90.000805
loop_
_atom_site_label
_atom_site_type_symbol
_atom_site_fract_x
_atom_site_fract_y
_atom_site_fract_z
O1	O	1.115445	-0.113345	-0.160932
O2	O	0.871009	-0.113379	-0.180773
O3	O	0.998865	-0.113356	0.010795
O4	O	0.987588	-0.113368	-0.352500
O5	O	0.998855	0.113626	0.010795
O6	O	0.870999	0.113604	-0.180773
O7	O	1.115435	0.113637	-0.160931
Zn8	Zn	0.993215	0.149659	-0.170852
Zn9	Zn	0.993228	-0.149400	-0.170853
O10	O	0.987579	0.113615	-0.352500
C11	C	0.839705	0.000108	-0.179949
C12	C	0.746445	0.000095	-0.177480
N13	N	0.993213	0.353758	-0.170851
N14	N	0.993237	-0.353500	-0.170844
C15	C	0.530875	0.000126	-0.052834
C16	C	0.470191	-0.111790	-0.110716
C17	C	0.575693	0.000112	-0.173012
C18	C	0.470204	0.111996	-0.110744
C19	C	0.410756	0.000133	-0.168688
C20	C	0.516238	-0.111897	-0.230927
C21	C	0.516257	0.111990	-0.230938
C22	C	0.455591	0.000047	-0.288907
C23	C	0.670710	0.000098	-0.175500
C24	C	0.315741	0.000137	-0.166210
C25	C	1.146738	0.000147	-0.161755
C26	C	1.239999	0.000151	-0.164225
C27	C	0.998039	0.000133	0.057284
C28	C	0.995584	0.000128	0.195808
C29	C	1.046896	0.421545	-0.090065
C30	C	1.046910	0.578707	-0.090061
C31	C	0.988404	0.000122	-0.398989
C32	C	0.990859	0.000118	-0.537512
C33	C	1.067126	0.000136	0.271694
C34	C	1.064590	0.000131	0.414865
H35	H	0.563637	-0.000009	0.046904
H36	H	0.947277	0.588216	-0.240016
H37	H	1.125835	0.000144	0.480072
H38	H	1.092844	0.363230	-0.020899
Br39	Br	0.916614	0.450944	-0.286120
H40	H	0.929611	0.000121	0.397289
H41	H	0.449793	-0.206404	-0.059886
Br42	Br	1.172348	0.000136	0.203332
Br43	Br	0.890362	0.000094	0.264170
H44	H	0.536520	-0.206616	-0.281719
H45	H	0.423004	-0.000019	-0.388748
H46	H	0.449822	0.206609	-0.059891
Br47	Br	0.550292	0.269695	-0.315592
Br48	Br	1.123525	0.675859	0.025214
