data_functionalizedCrystal
_audit_creation_method	'MofGen! by Chris Wilmer'
_symmetry_space_group_name_H-M	'P1'
_symmetry_Int_Tables_number	1
_symmetry_cell_setting	triclinic
loop_
_symmetry_equiv_pos_as_xyz
  x,y,z
_cell_length_a	14.044191
_cell_length_b	10.654550
_cell_length_c	9.730223
_cell_angle_alpha	89.999957
_cell_angle_beta	90.000766
_cell_angle_gamma	91.161647
loop_
_atom_site_label
_atom_site_type_symbol
_atom_site_fract_x
_atom_site_fract_y
_atom_site_fract_z
O1	O	-0.133232	1.681232	-0.114175
O2	O	0.366768	2.181232	0.385825
O3	O	-0.145925	1.317029	-0.114199
O4	O	0.354075	1.817029	0.385801
O5	O	-0.001558	1.493659	-0.114190
O6	O	0.498442	1.993659	0.385810
O7	O	-0.277599	1.504602	-0.114184
O8	O	0.222401	2.004602	0.385816
O9	O	-0.001554	1.493647	0.114390
O10	O	0.498446	1.993647	0.614390
O11	O	-0.145921	1.317017	0.114381
O12	O	0.354079	1.817017	0.614381
O13	O	-0.133228	1.681219	0.114405
O14	O	0.366772	2.181219	0.614405
Zn15	Zn	-0.139574	1.499116	0.150685
Zn16	Zn	0.360426	1.999116	0.650685
Zn17	Zn	-0.139579	1.499133	-0.150479
Zn18	Zn	0.360421	1.999133	0.349521
O19	O	-0.277595	1.504589	0.114396
O20	O	0.222405	2.004589	0.614396
C21	C	-0.144991	1.270131	0.000087
C22	C	0.355009	1.770131	0.500087
C23	C	-0.142203	1.130408	0.000078
C24	C	0.357797	1.630408	0.500078
C25	C	-0.227204	1.059467	0.000084
C26	C	0.272796	1.559467	0.500084
C27	C	-0.224578	0.928182	0.000107
C28	C	0.275422	1.428182	0.500107
C29	C	-0.051942	0.938791	0.000114
C30	C	0.448058	1.438791	0.500114
C31	C	-0.054569	1.070074	0.000100
C32	C	0.445431	1.570074	0.500100
C33	C	-0.312943	1.509383	0.000107
C34	C	0.187057	2.009383	0.500107
C35	C	-0.418263	1.523662	0.000109
C36	C	0.081737	2.023662	0.500109
C37	C	-0.668055	1.448496	0.000092
C38	C	-0.168055	1.948496	0.500092
C39	C	-0.611092	1.549747	0.000101
C40	C	-0.111092	2.049747	0.500101
C41	C	-0.503792	1.535229	0.000106
C42	C	-0.003792	2.035229	0.500106
C43	C	-0.775365	1.463012	0.000088
C44	C	-0.275365	1.963012	0.500088
C45	C	0.033790	1.488866	0.000096
C46	C	0.533790	1.988866	0.500096
C47	C	0.139110	1.474587	0.000084
C48	C	0.639110	1.974587	0.500084
C49	C	-0.134162	1.728117	0.000115
C50	C	0.365838	2.228117	0.500115
C51	C	-0.136950	1.867841	0.000116
C52	C	0.363050	2.367841	0.500116
N53	N	-0.139570	1.499113	0.356221
N54	N	0.360430	1.999113	0.856221
N55	N	-0.139576	1.499144	-0.356016
N56	N	0.360424	1.999144	0.143984
C57	C	-0.075671	1.577357	0.428151
C58	C	0.424329	2.077357	0.928151
C59	C	-0.075671	1.577370	0.572034
C60	C	0.424329	2.077370	1.072034
C61	C	-0.203478	1.420892	0.572044
C62	C	0.296522	1.920892	1.072044
C63	C	-0.203472	1.420874	0.428164
C64	C	0.296528	1.920874	0.928164
H65	H	0.019406	0.889651	0.000140
H66	H	0.519406	1.389651	0.500140
H67	H	-0.636240	1.350918	0.000089
H68	H	-0.136240	1.850918	0.500089
H69	H	-0.023637	1.641063	0.369578
H70	H	0.476363	2.141063	0.869578
C71	C	-0.318077	0.850146	0.000107
C72	C	0.181923	1.350146	0.500107
H73	H	-0.303966	0.763317	0.000132
H74	H	0.196034	1.263317	0.500132
H75	H	-0.353971	0.869474	-0.079609
H76	H	0.146029	1.369474	0.420391
H77	H	-0.353974	0.869493	0.079822
H78	H	0.146026	1.369493	0.579822
H79	H	0.014653	1.127836	0.000099
H80	H	0.514653	1.627836	0.500099
H81	H	-0.023638	1.641081	0.630595
H82	H	0.476362	2.141081	1.130595
H83	H	-0.642909	1.647332	0.000008
H84	H	-0.142909	2.147332	0.500008
C85	C	-0.273769	1.334813	0.349029
C86	C	0.226231	1.834813	0.849029
H87	H	-0.264606	1.346003	0.253036
H88	H	0.235394	1.846003	0.753036
H89	H	-0.337174	1.355555	0.372599
H90	H	0.162826	1.855555	0.872599
H91	H	-0.262876	1.249781	0.372617
H92	H	0.237124	1.749781	0.872617
C93	C	-0.323596	1.125831	0.000074
C94	C	0.176404	1.625831	0.500074
H95	H	-0.373843	1.064773	0.000093
H96	H	0.126157	1.564773	0.500093
H97	H	-0.328213	1.176817	-0.079642
H98	H	0.171787	1.676817	0.420358
H99	H	-0.328207	1.176829	0.079790
H100	H	0.171793	1.676829	0.579790
C101	C	-0.273773	1.334848	0.651186
C102	C	0.226227	1.834848	1.151186
H103	H	-0.264633	1.346074	0.747178
H104	H	0.235367	1.846074	1.247178
H105	H	-0.262884	1.249816	0.627624
H106	H	0.237116	1.749816	1.127624
H107	H	-0.337179	1.355593	0.627592
H108	H	0.162821	1.855593	1.127592
