data_functionalizedCrystal
_audit_creation_method	'MofGen! by Chris Wilmer'
_symmetry_space_group_name_H-M	'P1'
_symmetry_Int_Tables_number	1
_symmetry_cell_setting	triclinic
loop_
_symmetry_equiv_pos_as_xyz
  x,y,z
_cell_length_a	11.792241
_cell_length_b	11.792254
_cell_length_c	13.330367
_cell_angle_alpha	89.995204
_cell_angle_beta	89.996651
_cell_angle_gamma	84.196007
loop_
_atom_site_label
_atom_site_type_symbol
_atom_site_fract_x
_atom_site_fract_y
_atom_site_fract_z
O1	O	1.506921	0.155566	-0.083327
O2	O	1.176581	0.171599	-0.083350
O3	O	1.349760	-0.001587	-0.083331
O4	O	1.333742	0.328752	-0.083346
O5	O	1.349734	-0.001591	0.083517
O6	O	1.176555	0.171595	0.083497
O7	O	1.506896	0.155562	0.083521
Cu8	Cu	1.341723	0.163578	0.098743
Cu9	Cu	1.341753	0.163583	-0.098573
O10	O	1.333717	0.328748	0.083501
C11	C	1.134277	0.170590	0.000071
C12	C	1.008263	0.167576	0.000062
C13	C	0.777551	0.162033	0.000091
C14	C	0.905936	0.165112	0.000075
C15	C	1.348738	-0.043880	0.000093
C16	C	1.345718	-0.169893	0.000091
C17	C	1.343264	-0.272229	0.000088
C18	C	1.340196	-0.400616	0.000078
C19	C	1.549199	0.156571	0.000098
C20	C	1.675213	0.159586	0.000100
C21	C	1.334738	0.371041	0.000076
C22	C	1.337758	0.497054	0.000070
N23	N	1.341710	0.163574	0.237525
N24	N	1.341775	0.163578	-0.237354
C25	C	1.265066	0.240239	0.710139
C26	C	1.418471	0.086918	0.710124
C27	C	1.418458	0.086914	0.605106
C28	C	1.341749	0.163576	0.552599
C29	C	1.265053	0.240241	0.605111
C30	C	1.495160	0.010259	0.552586
C31	C	1.495151	0.010253	0.447562
C32	C	1.418436	0.086910	0.395053
C33	C	1.341736	0.163577	0.447571
C34	C	1.265027	0.240238	0.395065
C35	C	1.188321	0.316901	0.447581
C36	C	1.188338	0.316897	0.552603
C37	C	1.418419	0.086913	0.290031
C38	C	1.265014	0.240239	0.290037
H39	H	1.202544	0.302662	0.247292
O40	O	1.569556	-0.064171	0.396403
C41	C	1.639945	-0.003117	0.335463
H42	H	1.642762	0.086366	0.367097
H43	H	1.729762	-0.049061	0.334063
H44	H	1.604230	0.002714	0.255952
H45	H	1.480878	0.024500	0.247278
O46	O	1.113965	0.391417	0.396461
C47	C	1.175179	0.461869	0.335723
H48	H	1.263714	0.417263	0.319993
H49	H	1.127921	0.479502	0.261870
H50	H	1.183401	0.545809	0.376190
O51	O	1.113791	0.391209	0.603730
C52	C	1.043394	0.329950	0.664482
H53	H	1.088053	0.241436	0.680208
H54	H	1.025752	0.377201	0.738336
H55	H	0.959453	0.321679	0.624029
O56	O	1.190510	0.314550	0.761259
C57	C	1.120104	0.253288	0.821999
H58	H	1.164764	0.164776	0.837732
H59	H	1.102444	0.300539	0.895851
H60	H	1.036173	0.245011	0.781532
O61	O	1.492923	0.012294	0.761020
C62	C	1.473745	-0.100186	0.735392
H63	H	1.429998	-0.100339	0.659141
H64	H	1.558705	-0.155522	0.731803
H65	H	1.417026	-0.135651	0.794508
O66	O	1.569606	-0.064367	0.603487
C67	C	1.550432	-0.176846	0.577851
H68	H	1.506699	-0.176995	0.501593
H69	H	1.635392	-0.232183	0.574272
H70	H	1.493701	-0.212313	0.636956
