data_functionalizedCrystal
_audit_creation_method	'MofGen! by Chris Wilmer'
_symmetry_space_group_name_H-M	'P1'
_symmetry_Int_Tables_number	1
_symmetry_cell_setting	triclinic
loop_
_symmetry_equiv_pos_as_xyz
  x,y,z
_cell_length_a	12.645330
_cell_length_b	12.759401
_cell_length_c	12.759393
_cell_angle_alpha	90.022649
_cell_angle_beta	89.969952
_cell_angle_gamma	89.984935
loop_
_atom_site_label
_atom_site_type_symbol
_atom_site_fract_x
_atom_site_fract_y
_atom_site_fract_z
Zn1	Zn	-0.422051	-1.606234	-0.594109
Zn2	Zn	-0.599355	-1.606119	-0.418434
Zn3	Zn	-0.422098	-1.430536	-0.418435
Zn4	Zn	-0.599265	-1.430515	-0.594062
O5	O	-0.510692	-1.518351	-0.506260
O6	O	-0.445589	-1.753239	-0.570824
O7	O	-0.575899	-1.582788	-0.271413
O8	O	-0.273744	-1.453899	-0.441759
O9	O	-0.575853	-1.753155	-0.441756
O10	O	-0.273710	-1.582984	-0.570826
O11	O	-0.445669	-1.453788	-0.271414
O12	O	-0.445581	-1.283512	-0.441714
O13	O	-0.575700	-1.453864	-0.741090
O14	O	-0.575745	-1.283497	-0.570746
O15	O	-0.445501	-1.582964	-0.741124
O16	O	-0.747690	-1.582768	-0.441711
O17	O	-0.747624	-1.453753	-0.570745
C18	C	-0.510659	-1.245383	-0.506226
C19	C	-0.510671	-1.128607	-0.506236
C20	C	-0.442804	-1.073722	-0.439170
C21	C	-0.442825	-0.963998	-0.439178
C22	C	-0.578584	-0.964053	-0.573327
C23	C	-0.578567	-1.073775	-0.573313
C24	C	-0.364421	-1.073689	-0.361723
C25	C	-0.364443	-0.963965	-0.361731
C26	C	-0.786122	-1.518274	-0.506245
C27	C	-0.903952	-1.518337	-0.506274
C28	C	-1.071518	-1.437509	-0.587700
C29	C	-0.948959	-1.437095	-0.587438
C30	C	-0.948555	-1.488364	-0.395551
C31	C	-1.071153	-1.487871	-0.396045
C32	C	-1.071044	-1.629634	-0.534674
C33	C	-0.948437	-1.628952	-0.537095
C34	C	-0.234187	-1.518456	-0.506298
C35	C	-0.116357	-1.518501	-0.506314
C36	C	-0.510585	-1.518424	-0.780293
C37	C	-0.510540	-1.518456	-0.897070
C38	C	-0.510718	-0.792384	-0.506282
C39	C	-0.510710	-0.909161	-0.506258
C40	C	-0.442739	-1.585687	-0.951952
C41	C	-0.442701	-1.585712	-1.061676
C42	C	-0.578273	-1.451271	-1.061627
C43	C	-0.578305	-1.451242	-0.951905
C44	C	-0.364471	-1.663309	-0.951981
C45	C	-0.364432	-1.663334	-1.061705
C46	C	-0.510722	-1.518338	-0.233293
C47	C	-0.510469	-1.518510	-0.116517
H48	H	-0.918798	-1.455848	-0.669538
H49	H	-0.386425	-1.744703	-1.091490
Br50	Br	-0.227653	-0.914353	-0.398287
Br51	Br	-0.413529	-1.792095	-0.895251
Br52	Br	-1.120530	-1.468470	-0.724995
Br53	Br	-0.900219	-1.299772	-0.556129
Br54	Br	-0.899977	-1.583567	-0.291714
Br55	Br	-0.670233	-1.360055	-1.136053
Br56	Br	-0.670696	-1.148260	-0.664316
Br57	Br	-0.670732	-0.889633	-0.664349
H58	H	-1.099843	-1.406632	-0.372020
Br59	Br	-0.400892	-1.123253	-0.226036
H60	H	-1.100819	-1.544302	-0.333338
Br61	Br	-0.234489	-1.130462	-0.410526
H62	H	-1.102417	-1.355635	-0.569150
Br63	Br	-0.897540	-1.354370	-0.354779
Br64	Br	-0.413302	-0.907163	-0.232821
Br65	Br	-1.122441	-1.675208	-0.666959
Br66	Br	-0.227638	-1.627036	-0.902369
H67	H	-0.919280	-1.651556	-0.618582
H68	H	-0.286425	-1.634224	-1.095749
Br69	Br	-0.897355	-1.734834	-0.445501
H70	H	-1.100040	-1.689976	-0.475398
H71	H	-0.633511	-1.396492	-0.907225
