data_functionalizedCrystal
_audit_creation_method	'MofGen! by Chris Wilmer'
_symmetry_space_group_name_H-M	'P1'
_symmetry_Int_Tables_number	1
_symmetry_cell_setting	triclinic
loop_
_symmetry_equiv_pos_as_xyz
  x,y,z
_cell_length_a	17.639054
_cell_length_b	13.897447
_cell_length_c	13.897441
_cell_angle_alpha	89.970673
_cell_angle_beta	78.752813
_cell_angle_gamma	101.208112
loop_
_atom_site_label
_atom_site_type_symbol
_atom_site_fract_x
_atom_site_fract_y
_atom_site_fract_z
Zn1	Zn	1.208626	-0.086161	-0.844208
Zn2	Zn	1.708626	0.413839	-0.344208
Zn3	Zn	1.208535	-0.247505	-0.682890
Zn4	Zn	1.708535	0.252495	-0.182890
Zn5	Zn	1.076419	-0.118781	-0.650240
Zn6	Zn	1.576419	0.381219	-0.150240
Zn7	Zn	1.076400	-0.279998	-0.811474
Zn8	Zn	1.576400	0.220002	-0.311474
O9	O	1.142495	-0.183111	-0.747203
O10	O	1.642495	0.316889	-0.247203
O11	O	1.319242	-0.080313	-0.850173
O12	O	1.819242	0.419687	-0.350173
O13	O	1.190979	-0.230482	-0.543570
O14	O	1.690979	0.269518	-0.043570
O15	O	1.094003	0.020539	-0.676005
O16	O	1.594003	0.520539	-0.176005
O17	O	1.319175	-0.198852	-0.731653
O18	O	1.819175	0.301148	-0.231653
O19	O	1.191135	0.044505	-0.818513
O20	O	1.691135	0.544505	-0.318513
O21	O	1.093914	-0.135909	-0.519582
O22	O	1.593914	0.364091	-0.019582
O23	O	0.965788	-0.167417	-0.644264
O24	O	1.465788	0.332583	-0.144264
O25	O	1.093970	-0.254232	-0.950806
O26	O	1.593970	0.245768	-0.450806
O27	O	0.965774	-0.285862	-0.762722
O28	O	1.465774	0.214138	-0.262722
O29	O	1.191116	-0.111820	-0.974855
O30	O	1.691116	0.388180	-0.474855
O31	O	1.190961	-0.386808	-0.699913
O32	O	1.690961	0.113192	-0.199913
O33	O	1.093882	-0.410681	-0.794383
O34	O	1.593882	0.089319	-0.294383
C35	C	0.937097	-0.233706	-0.696399
C36	C	1.437097	0.266294	-0.196399
C37	C	0.849226	-0.255374	-0.674687
C38	C	1.349226	0.244626	-0.174687
C39	C	1.142431	-0.433741	-0.747165
C40	C	1.642431	0.066259	-0.247165
C41	C	1.142476	-0.540944	-0.747199
C42	C	1.642476	-0.040944	-0.247199
C43	C	0.725341	-0.347530	-0.582290
C44	C	1.225341	0.152470	-0.082290
C45	C	0.807909	-0.327162	-0.602699
C46	C	1.307909	0.172838	-0.102699
C47	C	0.807986	-0.203928	-0.726301
C48	C	1.307986	0.296072	-0.226301
C49	C	0.725417	-0.224289	-0.705906
C50	C	1.225417	0.275711	-0.205906
C51	C	0.684101	-0.296090	-0.633899
C52	C	1.184101	0.203910	-0.133899
C53	C	0.684176	-0.172849	-0.757515
C54	C	1.184176	0.327151	-0.257515
C55	C	0.601614	-0.193205	-0.737118
C56	C	1.101614	0.306795	-0.237118
C57	C	0.560293	-0.265000	-0.665113
C58	C	1.060293	0.235000	-0.165113
C59	C	0.601539	-0.316446	-0.613503
C60	C	1.101539	0.183554	-0.113503
C61	C	0.725494	-0.101043	-0.829517
C62	C	1.225494	0.398957	-0.329517
C63	C	0.684253	-0.049603	-0.881126
C64	C	1.184253	0.450397	-0.381126
C65	C	0.601690	-0.069963	-0.860734
C66	C	1.101690	0.430037	-0.360734
C67	C	0.560368	-0.141759	-0.788729
C68	C	1.060368	0.358241	-0.288729
C69	C	0.560444	-0.018518	-0.912344
C70	C	1.060444	0.481482	-0.412344
C71	C	0.477882	-0.038874	-0.891948
C72	C	0.977882	0.461126	-0.391948
C73	C	0.477806	-0.162115	-0.768332
C74	C	0.977806	0.337885	-0.268332
C75	C	1.142514	-0.628004	-0.747230
C76	C	1.642514	-0.128004	-0.247230
C77	C	1.142569	-0.737223	-0.747269
C78	C	1.642569	-0.237223	-0.247269
C79	C	1.348695	-0.132319	-0.798206
C80	C	1.848695	0.367681	-0.298206
C81	C	1.436566	-0.110675	-0.819941
C82	C	1.936566	0.389325	-0.319941
C83	C	1.142551	-0.183012	-0.998810
C84	C	1.642551	0.316988	-0.498810
C85	C	1.142575	-0.182970	-1.106030
C86	C	1.642575	0.317030	-0.606030
C87	C	1.142581	0.068503	-0.747268
C88	C	1.642581	0.568503	-0.247268
C89	C	1.142618	0.175726	-0.747296
C90	C	1.642618	0.675726	-0.247296
C91	C	1.142596	-0.182899	-1.302331
C92	C	1.642596	0.317101	-0.802331
C93	C	1.142582	-0.182942	-1.193094
C94	C	1.642582	0.317058	-0.693094
C95	C	1.142485	-0.183129	-0.496586
C96	C	1.642485	0.316871	0.003414
C97	C	1.142614	-0.182862	-0.389405
C98	C	1.642614	0.317138	0.110595
H99	H	0.444164	-0.220591	-0.709705
H100	H	0.944164	0.279409	-0.209705
H101	H	0.444303	0.003018	-0.933969
H102	H	0.944303	0.503018	-0.433969
H103	H	0.691699	-0.406006	-0.523664
H104	H	1.191699	0.093994	-0.023664
H105	H	0.717904	0.008860	-0.939751
H106	H	1.217904	0.508860	-0.439751
C107	C	0.469471	-0.287393	-0.642677
C108	C	0.969471	0.212607	-0.142677
N109	N	0.401064	-0.304261	-0.625780
N110	N	0.901064	0.195739	-0.125780
C111	C	0.853443	-0.124948	-0.805505
C112	C	1.353443	0.375052	-0.305505
N113	N	0.887680	-0.065461	-0.865165
N114	N	1.387680	0.434539	-0.365165
C115	C	0.853270	-0.383761	-0.545923
C116	C	1.353270	0.116239	-0.045923
N117	N	0.887436	-0.426390	-0.503160
N118	N	1.387436	0.073610	-0.003160
H119	H	0.594095	0.039949	-0.970965
H120	H	1.094095	0.539949	-0.470965
H121	H	0.567897	-0.374922	-0.554876
H122	H	1.067897	0.125078	-0.054876
H123	H	0.792721	-0.084468	-0.846118
H124	H	1.292721	0.415532	-0.346118
