data_functionalizedCrystal
_audit_creation_method	'MofGen! by Chris Wilmer'
_symmetry_space_group_name_H-M	'P1'
_symmetry_Int_Tables_number	1
_symmetry_cell_setting	triclinic
loop_
_symmetry_equiv_pos_as_xyz
  x,y,z
_cell_length_a	15.944551
_cell_length_b	17.699083
_cell_length_c	16.776229
_cell_angle_alpha	90.007545
_cell_angle_beta	89.988667
_cell_angle_gamma	96.609124
loop_
_atom_site_label
_atom_site_type_symbol
_atom_site_fract_x
_atom_site_fract_y
_atom_site_fract_z
O1	O	1.114322	-0.097616	-0.066367
O2	O	1.614322	0.402384	0.433633
O3	O	0.869747	-0.109651	-0.066352
O4	O	1.369747	0.390349	0.433648
O5	O	0.998944	0.006544	-0.066353
O6	O	1.498944	0.506544	0.433647
O7	O	0.985125	-0.213811	-0.066366
O8	O	1.485125	0.286189	0.433634
O9	O	0.998927	0.006551	0.066224
O10	O	1.498927	0.506551	0.566224
O11	O	0.869730	-0.109644	0.066225
O12	O	1.369730	0.390356	0.566225
O13	O	1.114305	-0.097609	0.066209
O14	O	1.614305	0.402391	0.566209
Zn15	Zn	0.992015	-0.103625	0.087266
Zn16	Zn	1.492015	0.396375	0.587266
Zn17	Zn	0.992037	-0.103634	-0.087409
Zn18	Zn	1.492037	0.396366	0.412591
O19	O	0.985107	-0.213804	0.066210
O20	O	1.485107	0.286196	0.566210
C21	C	0.998440	0.034746	-0.000065
C22	C	1.498440	0.534746	0.499935
C23	C	0.996955	0.118766	-0.000064
C24	C	1.496955	0.618766	0.499936
C25	C	0.838445	-0.109147	-0.000062
C26	C	1.338445	0.390853	0.499938
C27	C	0.745203	-0.107650	-0.000056
C28	C	1.245203	0.392350	0.499944
C29	C	1.145606	-0.098112	-0.000083
C30	C	1.645606	0.401888	0.499917
C31	C	1.238849	-0.099610	-0.000094
C32	C	1.738849	0.400390	0.499906
C33	C	1.453547	-0.175213	-0.000080
C34	C	1.953547	0.324787	0.499920
C35	C	1.514649	-0.140109	-0.065445
C36	C	2.014649	0.359891	0.434555
C37	C	1.409569	-0.102319	-0.000083
C38	C	1.909569	0.397681	0.499917
C39	C	1.514610	-0.140085	0.065265
C40	C	2.014610	0.359915	0.565265
C41	C	1.574476	-0.104942	-0.000068
C42	C	2.074476	0.395058	0.499932
C43	C	1.469443	-0.067195	-0.065501
C44	C	1.969443	0.432805	0.434499
C45	C	1.469398	-0.067181	0.065268
C46	C	1.969398	0.432819	0.565268
C47	C	1.530483	-0.032024	-0.000112
C48	C	2.030483	0.467976	0.499888
C49	C	1.314570	-0.100811	-0.000092
C50	C	1.814570	0.399189	0.499908
C51	C	1.669474	-0.106445	-0.000065
C52	C	2.169474	0.393555	0.499935
C53	C	0.985611	-0.242005	-0.000080
C54	C	1.485611	0.257995	0.499920
C55	C	0.987097	-0.326026	-0.000085
C56	C	1.487097	0.173974	0.499915
N57	N	0.992005	-0.103618	0.206478
N58	N	1.492005	0.396382	0.706478
C59	C	1.072791	0.167258	-0.000068
C60	C	1.572791	0.667258	0.499932
C61	C	1.071390	0.246203	-0.000075
C62	C	1.571390	0.746203	0.499925
C63	C	0.994152	0.276656	-0.000072
C64	C	1.494152	0.776656	0.499928
C65	C	0.918310	0.228158	-0.000071
C66	C	1.418310	0.728158	0.499929
C67	C	0.919712	0.149214	-0.000070
C68	C	1.419712	0.649214	0.499930
C69	C	0.912656	0.546531	-0.000077
C70	C	1.412656	1.046531	0.499923
C71	C	0.911260	0.625481	-0.000076
C72	C	1.411260	1.125481	0.499924
C73	C	1.064334	0.643520	-0.000082
C74	C	1.564334	1.143520	0.499918
C75	C	1.065735	0.564576	-0.000081
C76	C	1.565735	1.064576	0.499919
C77	C	0.989894	0.516085	-0.000084
C78	C	1.489894	1.016085	0.499916
C79	C	0.991414	0.430484	-0.000078
C80	C	1.491414	0.930484	0.499922
C81	C	0.992632	0.362256	-0.000073
C82	C	1.492632	0.862256	0.499927
N83	N	0.992053	-0.103635	-0.206620
N84	N	1.492053	0.396365	0.293380
C85	C	1.049231	-0.052188	0.248194
C86	C	1.549231	0.447812	0.748194
C87	C	1.049236	-0.052188	0.331646
C88	C	1.549236	0.447812	0.831646
C89	C	0.992018	-0.103621	0.373380
C90	C	1.492018	0.396379	0.873380
C91	C	0.934786	-0.155053	0.331658
C92	C	1.434786	0.344947	0.831658
C93	C	0.934778	-0.155050	0.248207
C94	C	1.434778	0.344950	0.748207
C95	C	0.934816	-0.155068	0.668205
C96	C	1.434816	0.344932	1.168205
C97	C	0.934830	-0.155069	0.751662
C98	C	1.434830	0.344931	1.251662
C99	C	1.049274	-0.052206	0.751644
C100	C	1.549274	0.447794	1.251644
C101	C	1.049266	-0.052202	0.668194
C102	C	1.549266	0.447798	1.168194
C103	C	0.992032	-0.103632	0.626478
C104	C	1.492032	0.396368	1.126478
C105	C	0.992026	-0.103631	0.535990
C106	C	1.492026	0.396369	1.035990
C107	C	0.992027	-0.103626	0.463867
C108	C	1.492027	0.396374	0.963867
H109	H	1.420114	-0.235718	-0.000149
H110	H	1.920114	0.264282	0.499851
H111	H	1.095861	-0.010323	0.634216
H112	H	1.595861	0.489677	1.134216
Cl113	Cl	0.862893	-0.219733	0.804127
Cl114	Cl	1.362893	0.280267	1.304127
Cl115	Cl	0.862830	-0.219705	0.195764
Cl116	Cl	1.362830	0.280295	0.695764
H117	H	0.855422	0.252959	-0.000074
H118	H	1.355422	0.752959	0.499926
Cl119	Cl	1.162838	0.526297	-0.000086
Cl120	Cl	1.662838	1.026297	0.499914
Cl121	Cl	1.121171	0.012472	0.195737
Cl122	Cl	1.621171	0.512472	0.695737
H123	H	1.126087	0.683011	-0.000084
H124	H	1.626087	1.183011	0.499916
Cl125	Cl	1.169896	0.128983	-0.000063
Cl126	Cl	1.669896	0.628983	0.499937
Cl127	Cl	1.166732	0.307161	-0.000077
Cl128	Cl	1.666732	0.807161	0.499923
Cl129	Cl	0.824371	0.088253	-0.000068
Cl130	Cl	1.324371	0.588253	0.499932
Cl131	Cl	1.545605	-0.187710	-0.150773
Cl132	Cl	2.045605	0.312290	0.349227
Cl133	Cl	1.121225	0.012452	0.804091
Cl134	Cl	1.621225	0.512452	1.304091
H135	H	1.095833	-0.010309	0.365612
H136	H	1.595833	0.489691	0.865612
H137	H	1.534623	-0.170926	0.120526
H138	H	2.034623	0.329074	0.620526
Cl139	Cl	0.862870	-0.219723	0.615769
Cl140	Cl	1.362870	0.280277	1.115769
Cl141	Cl	1.581876	0.061471	-0.000158
Cl142	Cl	2.081876	0.561471	0.499842
H143	H	0.888194	-0.196929	0.365643
H144	H	1.388194	0.303071	0.865643
H145	H	0.848360	0.650272	-0.000073
H146	H	1.348360	1.150272	0.499927
Cl147	Cl	0.817312	0.485582	-0.000083
Cl148	Cl	1.317312	0.985582	0.499917
Cl149	Cl	1.438399	-0.019617	0.150597
Cl150	Cl	1.938399	0.480383	0.650597
Cl151	Cl	1.438701	-0.019634	-0.150914
Cl152	Cl	1.938701	0.480366	0.349086
