data_functionalizedCrystal
_audit_creation_method	'MofGen! by Chris Wilmer'
_symmetry_space_group_name_H-M	'P1'
_symmetry_Int_Tables_number	1
_symmetry_cell_setting	triclinic
loop_
_symmetry_equiv_pos_as_xyz
  x,y,z
_cell_length_a	9.065215
_cell_length_b	10.489716
_cell_length_c	7.540329
_cell_angle_alpha	90.000441
_cell_angle_beta	89.997574
_cell_angle_gamma	84.771917
loop_
_atom_site_label
_atom_site_type_symbol
_atom_site_fract_x
_atom_site_fract_y
_atom_site_fract_z
O1	O	1.959478	0.187027	-0.147444
O2	O	1.530117	0.202373	-0.147450
O3	O	1.754586	0.009136	-0.147453
O4	O	1.735009	0.380265	-0.147441
O5	O	1.754573	0.009133	0.147512
O6	O	1.530104	0.202371	0.147515
O7	O	1.959465	0.187025	0.147521
Cu8	Cu	1.744783	0.194697	0.174451
Cu9	Cu	1.744799	0.194700	-0.174380
O10	O	1.734995	0.380262	0.147524
C11	C	1.475131	0.200898	0.000031
C12	C	1.311310	0.196491	0.000028
C13	C	1.753109	-0.038403	0.000024
C14	C	1.748708	-0.180050	0.000008
C15	C	1.886359	-0.277228	0.000026
C16	C	1.813628	-0.354849	-0.145404
C17	C	1.813583	-0.354816	0.145409
C18	C	1.676034	-0.255806	-0.145542
C19	C	1.676009	-0.255767	0.145401
C20	C	1.603176	-0.333340	-0.000064
C21	C	2.014451	0.188500	0.000036
C22	C	2.178272	0.192907	0.000027
C23	C	1.736473	0.427801	0.000043
C24	C	1.740874	0.569448	0.000048
N25	N	1.744782	0.194695	0.419799
N26	N	1.744811	0.194693	-0.419728
H27	H	2.006093	-0.252120	-0.000120
H28	H	1.483352	-0.358202	-0.000145
H29	H	1.871742	-0.398134	-0.268355
H30	H	1.871714	-0.398080	0.268355
N31	N	1.603154	-0.201451	0.299647
N32	N	1.548679	-0.272341	0.410504
H33	H	1.497234	-0.233983	0.519456
N34	N	1.603192	-0.201735	-0.299950
N35	N	1.594905	-0.083495	-0.324916
H36	H	1.543466	-0.045304	-0.433967
