data_functionalizedCrystal
_audit_creation_method	'MofGen! by Chris Wilmer'
_symmetry_space_group_name_H-M	'P1'
_symmetry_Int_Tables_number	1
_symmetry_cell_setting	triclinic
loop_
_symmetry_equiv_pos_as_xyz
  x,y,z
_cell_length_a	10.654549
_cell_length_b	10.723024
_cell_length_c	9.730223
_cell_angle_alpha	89.996766
_cell_angle_beta	89.997731
_cell_angle_gamma	84.476323
loop_
_atom_site_label
_atom_site_type_symbol
_atom_site_fract_x
_atom_site_fract_y
_atom_site_fract_z
O1	O	1.667813	0.175272	-0.114254
O2	O	1.302332	0.191972	-0.114264
O3	O	1.493503	0.002047	-0.114254
O4	O	1.476642	0.365197	-0.114264
O5	O	1.493490	0.002042	0.114326
O6	O	1.302319	0.191967	0.114316
O7	O	1.667801	0.175267	0.114326
Zn8	Zn	1.485058	0.183616	0.150613
Zn9	Zn	1.485074	0.183623	-0.150551
O10	O	1.476630	0.365192	0.114316
C11	C	1.255528	0.190743	0.000025
C12	C	1.116085	0.187075	0.000021
C13	C	0.905554	0.295444	0.000024
C14	C	1.036574	0.298900	0.000015
C15	C	1.064570	0.071787	0.000022
C16	C	0.933552	0.068332	0.000020
C17	C	1.492270	-0.044455	0.000035
C18	C	1.488599	-0.183010	0.000030
C19	C	1.595568	-0.257977	0.000030
C20	C	1.591776	-0.401181	0.000025
C21	C	1.714605	0.176496	0.000034
C22	C	1.854047	0.180164	0.000028
C23	C	1.477863	0.411694	0.000024
C24	C	1.481534	0.550249	0.000020
N25	N	1.485056	0.183611	0.356149
N26	N	1.485086	0.183619	-0.356087
C27	C	1.569736	0.099548	0.428080
C28	C	1.569748	0.099548	0.571963
C29	C	1.400398	0.267685	0.571972
C30	C	1.400380	0.267678	0.428092
H31	H	1.129319	-0.019263	0.000018
H32	H	1.389955	-0.385339	0.000029
H33	H	0.891616	-0.025548	0.000019
O34	O	1.376066	-0.233054	-0.000160
C35	C	1.367324	-0.307511	-0.118566
H36	H	1.466065	-0.338941	-0.158033
H37	H	1.316647	-0.393260	-0.091949
H38	H	1.312192	-0.250543	-0.201461
O39	O	1.318204	0.349521	0.641705
C40	C	1.339685	0.473245	0.606548
H41	H	1.388083	0.473532	0.502074
H42	H	1.245808	0.533824	0.601629
H43	H	1.402531	0.512425	0.687509
O44	O	1.652025	0.017761	0.358406
C45	C	1.726786	-0.056414	0.452755
H46	H	1.675296	-0.058292	0.555328
H47	H	1.745087	-0.155902	0.411196
H48	H	1.820428	-0.015032	0.468034
H49	H	1.638700	0.031095	0.630524
H50	H	1.689955	-0.216141	0.000041
O51	O	1.318293	0.349400	0.358060
C52	C	1.386200	0.427026	0.274836
H53	H	1.484044	0.378229	0.253273
H54	H	1.333941	0.446276	0.173665
H55	H	1.395527	0.519340	0.330270
O56	O	1.700912	-0.478201	-0.000036
C57	C	1.672830	-0.604035	-0.000005
H58	H	1.574122	-0.609755	-0.043280
H59	H	1.744443	-0.662459	-0.066370
H60	H	1.677218	-0.641646	0.109655
H61	H	0.840824	0.386505	0.000029
O62	O	1.086400	0.410989	0.000077
C63	C	0.988127	0.508947	0.000046
H64	H	0.898838	0.473189	0.043325
H65	H	1.016190	0.589362	0.066407
H66	H	0.969888	0.543500	-0.109615
