data_functionalizedCrystal
_audit_creation_method	'MofGen! by Chris Wilmer'
_symmetry_space_group_name_H-M	'P1'
_symmetry_Int_Tables_number	1
_symmetry_cell_setting	triclinic
loop_
_symmetry_equiv_pos_as_xyz
  x,y,z
_cell_length_a	10.489741
_cell_length_b	17.019294
_cell_length_c	8.965430
_cell_angle_alpha	86.121451
_cell_angle_beta	89.998843
_cell_angle_gamma	83.965561
loop_
_atom_site_label
_atom_site_type_symbol
_atom_site_fract_x
_atom_site_fract_y
_atom_site_fract_z
O1	O	1.692198	0.111286	-0.138239
O2	O	1.320828	0.121732	-0.139603
O3	O	1.516873	0.001736	-0.124171
O4	O	1.496153	0.231282	-0.153671
O5	O	1.516857	0.001744	0.123907
O6	O	1.320812	0.121740	0.108475
O7	O	1.692182	0.111294	0.109839
Cu8	Cu	1.506495	0.116518	0.131808
Cu9	Cu	1.506515	0.116508	-0.161572
O10	O	1.496137	0.231290	0.094407
C11	C	1.273301	0.120947	-0.015466
C12	C	1.131711	0.118587	-0.015171
C13	C	1.064844	0.042236	-0.005346
C14	C	0.972124	0.078300	-0.132293
C15	C	0.972142	0.078326	0.112290
C16	C	1.040856	0.154681	-0.142224
C17	C	1.040883	0.154697	0.102470
C18	C	0.948190	0.190815	-0.024514
C19	C	1.516079	-0.027654	0.003642
C20	C	1.513722	-0.115237	0.014887
C21	C	1.512627	-0.156384	-0.115056
C22	C	1.510404	-0.238677	-0.104485
C23	C	1.509286	-0.279823	0.036030
C24	C	1.510377	-0.238670	0.165983
C25	C	1.512591	-0.156377	0.155411
C26	C	1.502593	-0.528292	0.074717
C27	C	1.500383	-0.610590	0.085279
C28	C	1.500407	-0.610591	-0.185190
C29	C	1.502629	-0.528298	-0.195750
C30	C	1.503714	-0.487152	-0.065798
C31	C	1.507018	-0.363940	0.046838
C32	C	1.505972	-0.403036	-0.076607
C33	C	1.739708	0.112079	-0.014301
C34	C	1.881298	0.114439	-0.014606
C35	C	1.496931	0.260680	-0.033409
C36	C	1.499288	0.348263	-0.044664
N37	N	1.506491	0.116524	0.338157
N38	N	1.506529	0.116496	-0.367920
C39	C	1.415799	0.172000	0.428328
C40	C	1.531029	0.187961	0.525698
C41	C	1.391309	0.100570	0.536914
C42	C	1.621779	0.132521	0.433333
C43	C	1.481983	0.045098	0.444544
C44	C	1.597297	0.061030	0.541873
H45	H	0.941655	0.045991	-0.231549
H46	H	1.499522	-0.644101	-0.290990
F47	F	0.882216	0.272939	-0.035151
F48	F	1.263971	0.082946	0.596295
F49	F	1.505822	-0.407737	0.196382
F50	F	1.509173	-0.282461	0.315531
H51	H	1.115580	-0.020528	0.002567
F52	F	1.499200	-0.654379	0.234842
H53	H	1.071153	0.186958	-0.249894
F54	F	1.080754	0.196893	0.232216
H55	H	1.503502	-0.494803	0.180534
F56	F	1.513826	-0.112601	-0.264613
F57	F	1.315645	0.233375	0.363454
F58	F	1.697671	-0.000309	0.606386
F59	F	0.932348	0.036089	0.252880
F60	F	1.513755	-0.112586	0.293714
H61	H	1.509517	-0.272175	-0.210299
H62	H	1.503541	-0.494803	-0.310173
F63	F	1.507166	-0.359244	-0.226149
H64	H	1.461191	-0.015274	0.408558
H65	H	1.551785	0.248352	0.561647
H66	H	1.719224	0.146076	0.388080
