data_functionalizedCrystal
_audit_creation_method	'MofGen! by Chris Wilmer'
_symmetry_space_group_name_H-M	'P1'
_symmetry_Int_Tables_number	1
_symmetry_cell_setting	triclinic
loop_
_symmetry_equiv_pos_as_xyz
  x,y,z
_cell_length_a	18.050591
_cell_length_b	12.594516
_cell_length_c	12.594510
_cell_angle_alpha	90.031906
_cell_angle_beta	89.971513
_cell_angle_gamma	89.987941
loop_
_atom_site_label
_atom_site_type_symbol
_atom_site_fract_x
_atom_site_fract_y
_atom_site_fract_z
Zn1	Zn	1.135411	0.423763	-0.602037
Zn2	Zn	1.635411	0.923763	-0.102037
Zn3	Zn	1.135331	0.601791	-0.424065
Zn4	Zn	1.635331	1.101791	0.075935
Zn5	Zn	1.011214	0.423815	-0.424048
Zn6	Zn	1.511214	0.923815	0.075952
Zn7	Zn	1.011204	0.601688	-0.601977
Zn8	Zn	1.511204	1.101688	-0.101977
O9	O	1.073290	0.512764	-0.513032
O10	O	1.573290	1.012764	-0.013032
O11	O	1.239325	0.447401	-0.578461
O12	O	1.739325	0.947401	-0.078461
O13	O	1.118838	0.578247	-0.275117
O14	O	1.618838	1.078247	0.224883
O15	O	1.027726	0.274862	-0.447677
O16	O	1.527726	0.774862	0.052323
O17	O	1.239267	0.578197	-0.447705
O18	O	1.739267	1.078197	0.052295
O19	O	1.118973	0.274824	-0.578444
O20	O	1.618973	0.774824	-0.078444
O21	O	1.027649	0.447489	-0.275104
O22	O	1.527649	0.947489	0.224896
O23	O	0.907288	0.447388	-0.447619
O24	O	1.407288	0.947388	0.052381
O25	O	1.027710	0.578021	-0.750931
O26	O	1.527710	1.078021	-0.250931
O27	O	0.907281	0.578071	-0.578342
O28	O	1.407281	1.078071	-0.078342
O29	O	1.118964	0.447301	-0.750975
O30	O	1.618964	0.947301	-0.250975
O31	O	1.118829	0.750723	-0.447647
O32	O	1.618829	1.250723	0.052353
O33	O	1.027633	0.750647	-0.578358
O34	O	1.527633	1.250647	-0.078358
C35	C	0.880338	0.512725	-0.512973
C36	C	1.380338	1.012725	-0.012973
C37	C	0.797792	0.512733	-0.512973
C38	C	1.297792	1.012733	-0.012973
C39	C	1.073241	0.789305	-0.513021
C40	C	1.573241	1.289305	-0.013021
C41	C	1.073289	0.907611	-0.513052
C42	C	1.573289	1.407611	-0.013052
C43	C	1.073345	0.512644	-0.790653
C44	C	1.573345	1.012644	-0.290653
C45	C	1.073368	0.512592	-0.908958
C46	C	1.573368	1.012592	-0.408958
C47	C	0.598324	0.441586	-0.442049
C48	C	1.098324	0.941586	0.057951
C49	C	0.548916	0.538673	-0.415866
C50	C	1.048916	1.038673	0.084134
C51	C	0.646662	0.512766	-0.513021
C52	C	1.146662	1.012766	-0.013021
C53	C	0.548988	0.415713	-0.539202
C54	C	1.048988	0.915713	-0.039202
C55	C	0.500677	0.512788	-0.513065
C56	C	1.000677	1.012788	-0.013065
C57	C	0.598341	0.609903	-0.486787
C58	C	1.098341	1.109903	0.013213
C59	C	0.598418	0.486878	-0.610168
C60	C	1.098418	0.986878	-0.110168
C61	C	0.549032	0.584032	-0.584021
C62	C	1.049032	1.084032	-0.084021
C63	C	0.730760	0.512751	-0.512993
C64	C	1.230760	1.012751	-0.012993
C65	C	0.416580	0.512814	-0.513094
C66	C	0.916580	1.012814	-0.013094
C67	C	1.266996	0.512805	-0.513091
C68	C	1.766996	1.012805	-0.013091
C69	C	1.349541	0.512822	-0.513117
C70	C	1.849541	1.012822	-0.013117
C71	C	1.073359	0.235144	-0.513065
C72	C	1.573359	0.735144	-0.013065
C73	C	1.073389	0.116838	-0.513080
C74	C	1.573389	0.616838	-0.013080
C75	C	1.023682	0.976861	-0.584096
C76	C	1.523682	1.476861	-0.084096
C77	C	1.005586	1.047734	-0.486971
C78	C	1.505586	1.547734	0.013029
C79	C	1.091453	1.047537	-0.610195
C80	C	1.591453	1.547537	-0.110195
C81	C	1.055156	0.976926	-0.415875
C82	C	1.555156	1.476926	0.084125
C83	C	1.141054	0.976722	-0.539165
C84	C	1.641054	1.476722	-0.039165
C85	C	1.122984	1.047563	-0.441972
C86	C	1.622984	1.547563	0.058028
C87	C	1.123019	0.441472	-1.048999
C88	C	1.623019	0.941472	-0.548999
C89	C	1.141151	0.538595	-0.978184
C90	C	1.641151	1.038595	-0.478184
C91	C	1.055269	0.415481	-0.978201
C92	C	1.555269	0.915481	-0.478201
C93	C	1.091567	0.609733	-1.048929
C94	C	1.591567	1.109733	-0.548929
C95	C	1.005653	0.486554	-1.048953
C96	C	1.505653	0.986554	-0.548953
C97	C	1.023759	0.583743	-0.978170
C98	C	1.523759	1.083743	-0.478170
C99	C	1.073278	0.512808	-0.236491
C100	C	1.573278	1.012808	0.263509
C101	C	1.073399	0.512560	-0.118186
C102	C	1.573399	1.012560	0.381814
H103	H	0.619967	0.381456	-0.381965
H104	H	1.119967	0.881456	0.118035
H105	H	0.981784	0.643943	-0.947268
H106	H	1.481784	1.143943	-0.447268
H107	H	1.106971	0.691863	-1.079868
H108	H	1.606971	1.191863	-0.579868
H109	H	0.948391	0.464508	-1.080063
H110	H	1.448391	0.964508	-0.580063
H111	H	1.106775	1.078554	-0.692336
H112	H	1.606775	1.578554	-0.192336
H113	H	1.039948	0.333369	-0.947130
H114	H	1.539948	0.833369	-0.447130
H115	H	1.039767	0.946037	-0.333712
H116	H	1.539767	1.446037	0.166288
H117	H	0.620177	0.464936	-0.692280
H118	H	1.120177	0.964936	-0.192280
H119	H	1.165026	0.381416	-1.080097
H120	H	1.665026	0.881416	-0.580097
H121	H	1.198429	0.560610	-0.947095
H122	H	1.698429	1.060610	-0.447095
C123	C	0.519703	0.304818	-0.569097
C124	C	1.019703	0.804818	-0.069097
N125	N	0.497649	0.221289	-0.591607
N126	N	0.997649	0.721289	-0.091607
C127	C	0.519537	0.568271	-0.304905
C128	C	1.019537	1.068271	0.195095
N129	N	0.497409	0.590557	-0.221328
N130	N	0.997409	1.090557	0.278672
C131	C	1.218389	0.934532	-0.569045
C132	C	1.718389	1.434532	-0.069045
N133	N	1.276635	0.902747	-0.591565
N134	N	1.776635	1.402747	-0.091565
H135	H	0.981657	0.945817	-0.644088
H136	H	1.481657	1.445817	-0.144088
C137	C	0.627504	0.720829	-0.456760
C138	C	1.127504	1.220829	0.043240
N139	N	0.649471	0.804374	-0.434139
N140	N	1.149471	1.304374	0.065861
H141	H	0.948324	1.078950	-0.464907
H142	H	1.448324	1.578950	0.035093
H143	H	0.527525	0.644305	-0.644059
H144	H	1.027525	1.144305	-0.144059
H145	H	1.164977	1.078411	-0.381835
H146	H	1.664977	1.578411	0.118165
