data_functionalizedCrystal
_audit_creation_method	'MofGen! by Chris Wilmer'
_symmetry_space_group_name_H-M	'P1'
_symmetry_Int_Tables_number	1
_symmetry_cell_setting	triclinic
loop_
_symmetry_equiv_pos_as_xyz
  x,y,z
_cell_length_a	29.839135
_cell_length_b	29.839131
_cell_length_c	16.120297
_cell_angle_alpha	92.860396
_cell_angle_beta	92.874904
_cell_angle_gamma	90.037758
loop_
_atom_site_label
_atom_site_type_symbol
_atom_site_fract_x
_atom_site_fract_y
_atom_site_fract_z
Zn1	Zn	0.673889	-0.191715	-0.471386
Zn2	Zn	0.677630	-0.263032	-0.331950
Zn3	Zn	0.602572	-0.187921	-0.331984
Zn4	Zn	0.598730	-0.266820	-0.471306
O5	O	0.638205	-0.227372	-0.401657
O6	O	0.737252	-0.201178	-0.452909
O7	O	0.670847	-0.249896	-0.215293
O8	O	0.612075	-0.125559	-0.350524
O9	O	0.740001	-0.253575	-0.350466
O10	O	0.664471	-0.128346	-0.452942
O11	O	0.615702	-0.194712	-0.215318
O12	O	0.539196	-0.198385	-0.350446
O13	O	0.605526	-0.260030	-0.587978
O14	O	0.536373	-0.256351	-0.452805
O15	O	0.660745	-0.204851	-0.588037
O16	O	0.667122	-0.326401	-0.350389
O17	O	0.609154	-0.329183	-0.452773
C18	C	0.521484	-0.227368	-0.401621
C19	C	0.471549	-0.227377	-0.401626
C20	C	0.160469	-0.200135	-0.455077
C21	C	-0.027205	-0.200139	-0.455101
O22	O	-0.052691	-0.176965	-0.500508
N23	N	-0.049238	-0.227374	-0.401687
C24	C	-0.024349	-0.254607	-0.348260
O25	O	-0.047395	-0.277768	-0.302823
C26	C	0.163324	-0.254601	-0.348233
C27	C	0.185354	-0.227368	-0.401656
C28	C	0.182499	-0.172904	-0.508496
C29	C	0.229414	-0.172905	-0.508492
C30	C	0.254300	-0.200137	-0.455071
C31	C	0.232270	-0.227369	-0.401653
C32	C	0.188213	-0.281831	-0.294802
C33	C	0.235134	-0.281827	-0.294798
C34	C	0.257164	-0.254593	-0.348221
C35	C	0.304071	-0.254602	-0.348228
N36	N	0.326103	-0.227368	-0.401642
C37	C	0.301218	-0.200135	-0.455063
C38	C	-0.122880	-0.254609	-0.348279
C39	C	-0.169798	-0.254611	-0.348287
C40	C	-0.172651	-0.200143	-0.455127
C41	C	-0.125732	-0.200143	-0.455123
C42	C	-0.100847	-0.227374	-0.401693
C43	C	0.399744	-0.200140	-0.455053
C44	C	0.446664	-0.200145	-0.455047
C45	C	0.449513	-0.254612	-0.348204
C46	C	0.402597	-0.254609	-0.348212
C47	C	0.377714	-0.227369	-0.401640
O48	O	0.329585	-0.277760	-0.302838
O49	O	0.324272	-0.176970	-0.500481
C50	C	0.113553	-0.200134	-0.455081
C51	C	0.091523	-0.227365	-0.401662
C52	C	0.116409	-0.254598	-0.348241
C53	C	0.044605	-0.227367	-0.401670
C54	C	0.019719	-0.200135	-0.455092
C55	C	0.041752	-0.172900	-0.508506
C56	C	0.088668	-0.172902	-0.508502
C57	C	0.094376	-0.281832	-0.294827
C58	C	0.047461	-0.281829	-0.294835
C59	C	0.022575	-0.254597	-0.348257
C60	C	0.638139	-0.344093	-0.401587
C61	C	0.638151	-0.394027	-0.401584
C62	C	0.665480	-0.705091	-0.455062
C63	C	0.665527	-0.892766	-0.455112
O64	O	0.688698	-0.918237	-0.500529
N65	N	0.638279	-0.914817	-0.401749
C66	C	0.611015	-0.889947	-0.348374
O67	O	0.587837	-0.913009	-0.302993
C68	C	0.610966	-0.702273	-0.348329
C69	C	0.638219	-0.680224	-0.401689
C70	C	0.692730	-0.683042	-0.508419
C71	C	0.692720	-0.636126	-0.508402
C72	C	0.665459	-0.611259	-0.455029
C73	C	0.638209	-0.633308	-0.401673
C74	C	0.583699	-0.677404	-0.294958
C75	C	0.583689	-0.630483	-0.294953
C76	C	0.610942	-0.608434	-0.348314
C77	C	0.610937	-0.561526	-0.348284
N78	N	0.638185	-0.539474	-0.401646
C79	C	0.665446	-0.564341	-0.455019
C80	C	0.611044	-0.988478	-0.348400
C81	C	0.611056	-1.035396	-0.348411
C82	C	0.665568	-1.038212	-0.455150
C83	C	0.665557	-0.991293	-0.455135
C84	C	0.638292	-0.966427	-0.401763
C85	C	0.665423	-0.465814	-0.454981
C86	C	0.665412	-0.418894	-0.454957
C87	C	0.610898	-0.416083	-0.348221
C88	C	0.610911	-0.462999	-0.348241
C89	C	0.638175	-0.487864	-0.401628
O90	O	0.587775	-0.536026	-0.302898
O91	O	0.688614	-0.541271	-0.500407
C92	C	0.665490	-0.752007	-0.455078
C93	C	0.638239	-0.774056	-0.401722
C94	C	0.610979	-0.749189	-0.348349
C95	C	0.638252	-0.820974	-0.401732
C96	C	0.665513	-0.845841	-0.455105
C97	C	0.692761	-0.823790	-0.508467
C98	C	0.692751	-0.776874	-0.508451
C99	C	0.583730	-0.771240	-0.294986
C100	C	0.583743	-0.818157	-0.295006
C101	C	0.611004	-0.843023	-0.348379
C102	C	0.755383	-0.227377	-0.401693
C103	C	0.805317	-0.227379	-0.401708
C104	C	0.632290	-0.233286	-0.619103
C105	C	0.629769	-0.235806	-0.711765
C106	C	0.638284	-0.110196	-0.401746
C107	C	0.638317	-0.060263	-0.401783
C108	C	0.625151	-0.240398	-0.881420
C109	C	0.651349	-0.214212	-0.922745
C110	C	0.648779	-0.216767	-1.017147
C111	C	0.627720	-0.237844	-0.787010
C112	C	0.644124	-0.221449	-0.185057
C113	C	0.646731	-0.218802	-0.092395
H114	H	0.379489	-0.177957	-0.498556
H115	H	-0.102622	-0.276786	-0.304768
C116	C	0.580908	-0.388724	-0.289520
C117	C	0.580895	-0.337116	-0.289518
C118	C	0.550901	-0.309756	-0.230824
C119	C	0.520920	-0.334003	-0.172131
C120	C	0.520932	-0.385614	-0.172131
C121	C	0.550926	-0.412974	-0.230825
H122	H	0.603090	-0.319164	-0.332968
H123	H	0.550892	-0.271550	-0.230825
H124	H	0.498716	-0.313750	-0.128682
H125	H	0.498737	-0.403566	-0.128681
H126	H	0.550935	-0.451180	-0.230824
H127	H	0.675707	-0.189875	-0.887226
C128	C	0.592247	-0.273276	-0.929397
C129	C	0.589696	-0.275817	-1.025164
C130	C	0.556795	-0.308697	-1.073152
C131	C	0.526445	-0.339036	-1.025372
C132	C	0.528996	-0.336496	-0.929599
C133	C	0.561897	-0.303617	-0.881612
H134	H	0.612163	-0.253357	-1.060538
H135	H	0.554907	-0.310577	-1.144050
H136	H	0.502090	-0.363376	-1.060896
H137	H	0.506529	-0.358956	-0.894225
H138	H	0.563785	-0.301737	-0.810714
H139	H	0.247347	-0.150728	-0.551994
C140	C	0.470896	-0.170185	-0.513813
C141	C	0.443518	-0.140228	-0.572571
C142	C	0.467749	-0.110269	-0.631333
C143	C	0.519356	-0.110267	-0.631339
C144	C	0.546737	-0.140225	-0.572579
C145	C	0.522506	-0.170184	-0.513817
H146	H	0.405313	-0.140229	-0.572568
H147	H	0.447480	-0.088092	-0.674831
H148	H	0.537293	-0.088089	-0.674838
H149	H	0.584942	-0.140224	-0.572582
H150	H	0.542775	-0.192361	-0.470319
H151	H	0.162242	-0.150725	-0.551998
H152	H	0.255393	-0.304002	-0.251287
H153	H	-0.107799	-0.177966	-0.498623
H154	H	-0.192921	-0.177969	-0.498626
H155	H	0.170284	-0.304007	-0.251298
C156	C	-0.194027	-0.284572	-0.289527
C157	C	-0.224499	-0.263275	-0.224147
C158	C	-0.248726	-0.293235	-0.165381
C159	C	-0.242481	-0.344491	-0.171994
C160	C	-0.212008	-0.365791	-0.237376
C161	C	-0.187781	-0.335831	-0.296142
H162	H	-0.229122	-0.225330	-0.219249
H163	H	-0.271284	-0.277467	-0.116980
H164	H	-0.260416	-0.366669	-0.128491
H165	H	-0.207385	-0.403736	-0.242274
H166	H	-0.165223	-0.351599	-0.344543
C167	C	0.378360	-0.284566	-0.289452
C168	C	0.387384	-0.278241	-0.194693
C169	C	0.363150	-0.308194	-0.135925
C170	C	0.329892	-0.344472	-0.171916
C171	C	0.320866	-0.350798	-0.266679
C172	C	0.345100	-0.320845	-0.325447
H173	H	0.412005	-0.251384	-0.168047
H174	H	0.369831	-0.303510	-0.065775
H175	H	0.311952	-0.366645	-0.128412
H176	H	0.296246	-0.377655	-0.293326
H177	H	0.338419	-0.325529	-0.395598
C178	C	0.112895	-0.142942	-0.567266
C179	C	0.103868	-0.149263	-0.662024
C180	C	0.128092	-0.119301	-0.720791
C181	C	0.161342	-0.083016	-0.684799
C182	C	0.170371	-0.076693	-0.590036
C183	C	0.146147	-0.106656	-0.531270
H184	H	0.079253	-0.176125	-0.688672
H185	H	0.121408	-0.123982	-0.790941
H186	H	0.179274	-0.060836	-0.728302
H187	H	0.194986	-0.049832	-0.563389
H188	H	0.152831	-0.101974	-0.461120
C189	C	0.014372	-0.142943	-0.567268
C190	C	-0.019671	-0.164243	-0.632644
C191	C	-0.047054	-0.134285	-0.691398
C192	C	-0.040394	-0.083027	-0.684776
C193	C	-0.006349	-0.061725	-0.619397
C194	C	0.021033	-0.091683	-0.560643
H195	H	-0.024603	-0.202189	-0.637548
H196	H	-0.072255	-0.150055	-0.739796
H197	H	-0.060664	-0.060851	-0.728270
H198	H	-0.001418	-0.023778	-0.614493
H199	H	0.046235	-0.075913	-0.512245
C200	C	0.695390	-0.394642	-0.513660
C201	C	0.731654	-0.361387	-0.477595
C202	C	0.761631	-0.337137	-0.536297
C203	C	0.755345	-0.346141	-0.631064
C204	C	0.719080	-0.379396	-0.667135
C205	C	0.689102	-0.403647	-0.608432
H206	H	0.736309	-0.354721	-0.407438
H207	H	0.788477	-0.312519	-0.509595
H208	H	0.777535	-0.328189	-0.674519
H209	H	0.714425	-0.386063	-0.737291
H210	H	0.662257	-0.428265	-0.635134
H211	H	0.588723	-0.480952	-0.304784
C212	C	0.023232	-0.311789	-0.236065
C213	C	0.032259	-0.305460	-0.141307
C214	C	0.008032	-0.335416	-0.082533
C215	C	-0.025222	-0.371699	-0.118515
C216	C	-0.034250	-0.378029	-0.213277
C217	C	-0.010024	-0.348074	-0.272052
H218	H	0.056877	-0.278600	-0.114667
H219	H	0.014716	-0.330729	-0.012383
H220	H	-0.043156	-0.393874	-0.075006
H221	H	-0.058868	-0.404890	-0.239918
H222	H	-0.016708	-0.352760	-0.342201
H223	H	0.469783	-0.276785	-0.304711
C224	C	0.121745	-0.311793	-0.236062
C225	C	0.155784	-0.290502	-0.170668
C226	C	0.183150	-0.320467	-0.111903
C227	C	0.176477	-0.371723	-0.118531
C228	C	0.142437	-0.393017	-0.183928
C229	C	0.115071	-0.363052	-0.242693
H230	H	0.160724	-0.252557	-0.165759
H231	H	0.208349	-0.304704	-0.063492
H232	H	0.196736	-0.393905	-0.075029
H233	H	0.137497	-0.430962	-0.188837
H234	H	0.089873	-0.378815	-0.291104
C235	C	0.695415	-0.493161	-0.513701
C236	C	0.746670	-0.486478	-0.506978
C237	C	0.776664	-0.513825	-0.565693
C238	C	0.755404	-0.547855	-0.631129
C239	C	0.704146	-0.554540	-0.637854
C240	C	0.674152	-0.527193	-0.579140
H241	H	0.762411	-0.461286	-0.458536
H242	H	0.814608	-0.508876	-0.560714
H243	H	0.777607	-0.568099	-0.674593
H244	H	0.688405	-0.579732	-0.686297
H245	H	0.636207	-0.532142	-0.584118
H246	H	0.714911	-0.618177	-0.551855
H247	H	0.714929	-0.703284	-0.551886
C248	C	0.581055	-0.961127	-0.289678
C249	C	0.544773	-0.929876	-0.325714
C250	C	0.514787	-0.902527	-0.266988
C251	C	0.521083	-0.906430	-0.172225
C252	C	0.557365	-0.937683	-0.136185
C253	C	0.587351	-0.965031	-0.194911
H254	H	0.540112	-0.926985	-0.395867
H255	H	0.487928	-0.879391	-0.293668
H256	H	0.498885	-0.886184	-0.128753
H257	H	0.562027	-0.940573	-0.066032
H258	H	0.614210	-0.988167	-0.168231
H259	H	0.687749	-0.973343	-0.498586
H260	H	0.687766	-1.058466	-0.498607
H261	H	0.588869	-1.053344	-0.304950
H262	H	0.714943	-0.758925	-0.551902
H263	H	0.561507	-0.695348	-0.251506
C264	C	0.553697	-0.603130	-0.236240
C265	C	0.559982	-0.607032	-0.141476
C266	C	0.529992	-0.579680	-0.082762
C267	C	0.493716	-0.548427	-0.118812
C268	C	0.487428	-0.544524	-0.213580
C269	C	0.517419	-0.571876	-0.272294
H270	H	0.586837	-0.630168	-0.114785
H271	H	0.534646	-0.582569	-0.012608
H272	H	0.471515	-0.528180	-0.075348
H273	H	0.460573	-0.521388	-0.240271
H274	H	0.512765	-0.568987	-0.342449
C275	C	0.722748	-0.851149	-0.567181
C276	C	0.759019	-0.882407	-0.531129
C277	C	0.789001	-0.909769	-0.589843
C278	C	0.782712	-0.905874	-0.684607
C279	C	0.746439	-0.874615	-0.720664
C280	C	0.716457	-0.847253	-0.661950
H281	H	0.763676	-0.885292	-0.460974
H282	H	0.815853	-0.932909	-0.563151
H283	H	0.804907	-0.926129	-0.728071
H284	H	0.741783	-0.871730	-0.790818
H285	H	0.689606	-0.824113	-0.688642
C286	C	0.553743	-0.743892	-0.236265
C287	C	0.560037	-0.747801	-0.141504
C288	C	0.530050	-0.720455	-0.082775
C289	C	0.493769	-0.689201	-0.118806
C290	C	0.487474	-0.685292	-0.213572
C291	C	0.517461	-0.712637	-0.272302
H292	H	0.586895	-0.770938	-0.114828
H293	H	0.534710	-0.723350	-0.012623
H294	H	0.471571	-0.668958	-0.075331
H295	H	0.460616	-0.662154	-0.240249
H296	H	0.512801	-0.709743	-0.342454
H297	H	0.561551	-0.836104	-0.251546
