data_functionalizedCrystal
_audit_creation_method	'MofGen! by Chris Wilmer'
_symmetry_space_group_name_H-M	'P1'
_symmetry_Int_Tables_number	1
_symmetry_cell_setting	triclinic
loop_
_symmetry_equiv_pos_as_xyz
  x,y,z
_cell_length_a	21.295420
_cell_length_b	21.295417
_cell_length_c	21.295411
_cell_angle_alpha	90.020597
_cell_angle_beta	90.024693
_cell_angle_gamma	90.027953
loop_
_atom_site_label
_atom_site_type_symbol
_atom_site_fract_x
_atom_site_fract_y
_atom_site_fract_z
Zn1	Zn	0.962359	-0.250710	0.355918
Zn2	Zn	1.462359	0.249290	0.855918
Zn3	Zn	0.962263	-0.355962	0.250646
Zn4	Zn	1.462263	0.144038	0.750646
Zn5	Zn	0.857082	-0.250708	0.250663
Zn6	Zn	1.357082	0.249292	0.750663
Zn7	Zn	0.857053	-0.355942	0.355877
Zn8	Zn	1.357053	0.144058	0.855877
O9	O	0.909689	-0.303331	0.303276
O10	O	1.409689	0.196669	0.803276
O11	O	1.050435	-0.264682	0.341964
O12	O	1.550435	0.235318	0.841964
O13	O	0.948282	-0.342007	0.162558
O14	O	1.448282	0.157993	0.662558
O15	O	0.871100	-0.162619	0.264650
O16	O	1.371100	0.337381	0.764650
O17	O	1.050365	-0.342010	0.264620
O18	O	1.550365	0.157990	0.764620
O19	O	0.948446	-0.162621	0.341980
O20	O	1.448446	0.337379	0.841980
O21	O	0.871006	-0.264677	0.162571
O22	O	1.371006	0.235323	0.662571
O23	O	0.768989	-0.264658	0.264610
O24	O	1.268989	0.235342	0.764610
O25	O	0.871050	-0.341976	0.443972
O26	O	1.371050	0.158024	0.943972
O27	O	0.768967	-0.341973	0.341910
O28	O	1.268967	0.158027	0.841910
O29	O	0.948418	-0.264662	0.444002
O30	O	1.448418	0.235338	0.944002
O31	O	0.948254	-0.444049	0.264580
O32	O	1.448254	0.055951	0.764580
O33	O	0.870957	-0.444034	0.341893
O34	O	1.370957	0.055966	0.841893
C35	C	0.746138	-0.303314	0.303258
C36	C	1.246138	0.196686	0.803258
C37	C	0.676169	-0.303321	0.303265
C38	C	1.176169	0.196679	0.803265
C39	C	0.909609	-0.466882	0.303244
C40	C	1.409609	0.033118	0.803244
C41	C	0.909632	-0.536850	0.303251
C42	C	1.409632	-0.036850	0.803251
C43	C	0.176717	-0.343663	0.343487
C44	C	0.676717	0.156337	0.843487
C45	C	0.242459	-0.343663	0.343480
C46	C	0.742459	0.156337	0.843480
C47	C	0.275330	-0.303345	0.303296
C48	C	0.775330	0.196655	0.803296
C49	C	0.242453	-0.263035	0.263103
C50	C	0.742453	0.236965	0.763103
C51	C	0.176711	-0.263040	0.263106
C52	C	0.676711	0.236960	0.763106
N53	N	0.378570	-0.248227	0.298562
N54	N	0.878570	0.251773	0.798562
N55	N	0.441021	-0.248224	0.298563
N56	N	0.941021	0.251776	0.798563
C57	C	0.473405	-0.303327	0.303282
C58	C	0.973405	0.196673	0.803282
N59	N	0.440977	-0.358435	0.308014
N60	N	0.940977	0.141565	0.808014
N61	N	0.378520	-0.358438	0.308017
N62	N	0.878520	0.141562	0.808017
C63	C	0.346615	-0.303335	0.303287
C64	C	0.846615	0.196665	0.803287
C65	C	0.577560	-0.343638	0.343462
C66	C	1.077560	0.156362	0.843462
C67	C	0.643303	-0.343639	0.343451
C68	C	1.143303	0.156361	0.843451
C69	C	0.643295	-0.263005	0.263077
C70	C	1.143295	0.236995	0.763077
C71	C	0.577553	-0.263010	0.263085
C72	C	1.077553	0.236990	0.763085
C73	C	0.544689	-0.303325	0.303281
C74	C	1.044689	0.196675	0.803281
C75	C	0.949883	-0.569661	0.343546
C76	C	1.449883	-0.069661	0.843546
C77	C	0.949906	-0.635403	0.343562
C78	C	1.449906	-0.135403	0.843562
C79	C	0.909683	-0.668333	0.303271
C80	C	1.409683	-0.168333	0.803271
C81	C	0.869424	-0.635514	0.262974
C82	C	1.369424	-0.135514	0.762974
C83	C	0.869399	-0.569773	0.262964
C84	C	1.369399	-0.069773	0.762964
N85	N	0.904924	-0.771585	0.248180
N86	N	1.404924	-0.271585	0.748180
N87	N	0.904952	-0.834036	0.248191
N88	N	1.404952	-0.334036	0.748191
C89	C	0.909757	-0.866407	0.303300
C90	C	1.409757	-0.366407	0.803300
N91	N	0.914545	-0.833968	0.358398
N92	N	1.414545	-0.333968	0.858398
N93	N	0.914520	-0.771511	0.358386
N94	N	1.414520	-0.271511	0.858386
C95	C	0.909706	-0.739618	0.303278
C96	C	1.409706	-0.239618	0.803278
C97	C	0.950034	-0.970504	0.343615
C98	C	1.450034	-0.470504	0.843615
C99	C	0.950052	-1.036247	0.343631
C100	C	1.450052	-0.536247	0.843631
C101	C	0.869574	-1.036357	0.263038
C102	C	1.369574	-0.536357	0.763038
C103	C	0.869553	-0.970615	0.263027
C104	C	1.369553	-0.470615	0.763027
C105	C	0.909786	-0.937692	0.303314
C106	C	1.409786	-0.437692	0.803314
C107	C	1.073879	-0.303348	0.303294
C108	C	1.573879	0.196652	0.803294
C109	C	1.143847	-0.303356	0.303302
C110	C	1.643847	0.196644	0.803302
C111	C	0.909741	-0.303317	0.467466
C112	C	1.409741	0.196683	0.967466
C113	C	0.909764	-0.303312	0.537434
C114	C	1.409764	0.196688	1.037434
C115	C	0.909787	-0.139140	0.303322
C116	C	1.409787	0.360860	0.803322
C117	C	0.909828	-0.069172	0.303341
C118	C	1.409828	0.430828	0.803341
C119	C	0.909673	-0.303298	0.139724
C120	C	1.409673	0.196702	0.639724
C121	C	0.909773	-0.303127	0.069757
C122	C	1.409773	0.196873	0.569757
C123	C	0.950047	-0.263053	0.570318
C124	C	1.450047	0.236947	1.070318
C125	C	0.950046	-0.263025	0.636060
C126	C	1.450046	0.236975	1.136060
C127	C	0.909769	-0.303268	0.668917
C128	C	1.409769	0.196732	1.168917
C129	C	0.869477	-0.343530	0.636026
C130	C	1.369477	0.156470	1.136026
C131	C	0.869475	-0.343552	0.570284
C132	C	1.369475	0.156448	1.070284
N133	N	0.904913	-0.358336	0.772133
N134	N	1.404913	0.141664	1.272133
N135	N	0.904919	-0.358314	0.834585
N136	N	1.404919	0.141686	1.334585
C137	C	0.909773	-0.303204	0.866992
C138	C	1.409773	0.196796	1.366992
N139	N	0.914632	-0.248117	0.834588
N140	N	1.414632	0.251883	1.334588
N141	N	0.914630	-0.248141	0.772131
N142	N	1.414630	0.251859	1.272131
C143	C	0.909766	-0.303249	0.740202
C144	C	1.409766	0.196751	1.240202
C145	C	0.950057	-0.262913	0.971161
C146	C	1.450057	0.237087	1.471161
C147	C	0.950052	-0.262884	1.036905
C148	C	1.450052	0.237116	1.536905
C149	C	0.869486	-0.343394	1.036869
C150	C	1.369486	0.156606	1.536869
C151	C	0.869488	-0.343417	0.971126
C152	C	1.369488	0.156583	1.471126
C153	C	0.909777	-0.303177	0.938276
C154	C	1.409777	0.196823	1.438276
H155	H	0.149963	-0.376493	0.376216
H156	H	0.649963	0.123507	0.876216
Br157	Br	0.287078	-0.398370	0.398020
Br158	Br	0.787078	0.101630	0.898020
H159	H	0.269220	-0.230208	0.230383
H160	H	0.769220	0.269792	0.730383
H161	H	0.670064	-0.376467	0.376173
H162	H	1.170064	0.123533	0.876173
Br163	Br	0.814815	-0.398059	0.926495
Br164	Br	1.314815	0.101941	1.426495
Br165	Br	0.132100	-0.208333	0.208566
Br166	Br	0.632100	0.291667	0.708566
H167	H	0.836673	-0.662330	0.230170
H168	H	1.336673	-0.162330	0.730170
Br169	Br	0.814809	-0.398142	0.680615
Br170	Br	1.314809	0.101858	1.180615
Br171	Br	1.004634	-0.925819	0.398291
Br172	Br	1.504634	-0.425819	0.898291
Br173	Br	0.814799	-0.398192	0.525653
Br174	Br	1.314799	0.101808	1.025653
H175	H	0.670058	-0.230180	0.230355
H176	H	1.170058	0.269820	0.730355
H177	H	0.982853	-0.230285	0.543575
H178	H	1.482853	0.269715	1.043575
H179	H	0.982829	-1.062960	0.376447
H180	H	1.482829	-0.562960	0.876447
Br181	Br	0.532941	-0.208300	0.208549
Br182	Br	1.032941	0.291700	0.708549
H183	H	0.982860	-0.230143	0.944413
H184	H	1.482860	0.269857	1.444413
Br185	Br	1.004737	-0.208252	1.081534
Br186	Br	1.504737	0.291748	1.581534
H187	H	0.982642	-0.542857	0.376352
H188	H	1.482642	-0.042857	0.876352
H189	H	0.982678	-0.662123	0.376382
H190	H	1.482678	-0.162123	0.876382
Br191	Br	0.814981	-1.081040	0.208360
Br192	Br	1.314981	-0.581040	0.708360
H193	H	0.550800	-0.376466	0.376191
H194	H	1.050800	0.123534	0.876191
Br195	Br	0.814921	-0.926083	0.208339
Br196	Br	1.314921	-0.426083	0.708339
H197	H	0.836621	-0.543058	0.230150
H198	H	1.336621	-0.043058	0.730150
H199	H	0.982849	-0.230238	0.662839
H200	H	1.482849	0.269762	1.162839
Br201	Br	0.814814	-0.398003	1.081452
Br202	Br	1.314814	0.101997	1.581452
