data_functionalizedCrystal
_audit_creation_method	'MofGen! by Chris Wilmer'
_symmetry_space_group_name_H-M	'P1'
_symmetry_Int_Tables_number	1
_symmetry_cell_setting	triclinic
loop_
_symmetry_equiv_pos_as_xyz
  x,y,z
_cell_length_a	29.839134
_cell_length_b	29.839132
_cell_length_c	29.839126
_cell_angle_alpha	89.973634
_cell_angle_beta	90.029638
_cell_angle_gamma	89.959876
loop_
_atom_site_label
_atom_site_type_symbol
_atom_site_fract_x
_atom_site_fract_y
_atom_site_fract_z
Zn1	Zn	0.686742	0.178949	0.254118
Zn2	Zn	0.686659	0.254070	0.178985
Zn3	Zn	0.611614	0.178948	0.178988
Zn4	Zn	0.611567	0.254046	0.254074
O5	O	0.649145	0.216503	0.216541
O6	O	0.749598	0.188925	0.244169
O7	O	0.676689	0.244114	0.116118
O8	O	0.621635	0.116081	0.188974
O9	O	0.749537	0.244115	0.188969
O10	O	0.676830	0.116082	0.244172
O11	O	0.621554	0.188922	0.116120
O12	O	0.548741	0.188899	0.188930
O13	O	0.621554	0.244075	0.316947
O14	O	0.548706	0.244074	0.244096
O15	O	0.676784	0.188902	0.316979
O16	O	0.676643	0.316934	0.188926
O17	O	0.621474	0.316917	0.244093
C18	C	0.532423	0.216484	0.216509
C19	C	0.482488	0.216487	0.216506
C20	C	0.172836	0.245275	0.245230
C21	C	-0.014837	0.245288	0.245250
O22	O	-0.039109	0.269743	0.269654
N23	N	-0.038297	0.216520	0.216575
C24	C	-0.014836	0.187744	0.187894
O25	O	-0.039096	0.163273	0.163508
C26	C	0.172837	0.187730	0.187877
C27	C	0.196294	0.216503	0.216551
C28	C	0.196294	0.274046	0.273903
C29	C	0.243209	0.274044	0.273896
C30	C	0.266667	0.245272	0.245216
C31	C	0.243210	0.216501	0.216544
C32	C	0.196297	0.158953	0.159199
C33	C	0.243218	0.158951	0.159198
C34	C	0.266676	0.187724	0.187872
C35	C	0.313583	0.187727	0.187858
N36	N	0.337043	0.216495	0.216534
C37	C	0.313585	0.245268	0.245213
C38	C	-0.113366	0.187755	0.187905
C39	C	-0.160284	0.187759	0.187909
C40	C	-0.160282	0.245302	0.245265
C41	C	-0.113363	0.245300	0.245259
C42	C	-0.089906	0.216523	0.216581
C43	C	0.412111	0.245262	0.245196
C44	C	0.459031	0.245259	0.245185
C45	C	0.459024	0.187715	0.187830
C46	C	0.412109	0.187719	0.187839
C47	C	0.388653	0.216494	0.216525
O48	O	0.337884	0.163281	0.163471
O49	O	0.337854	0.269729	0.269603
C50	C	0.125921	0.245277	0.245237
C51	C	0.102463	0.216506	0.216565
C52	C	0.125921	0.187734	0.187886
C53	C	0.055545	0.216511	0.216569
C54	C	0.032088	0.245283	0.245248
C55	C	0.055548	0.274051	0.273924
C56	C	0.102463	0.274049	0.273917
C57	C	0.102461	0.158966	0.159211
C58	C	0.055546	0.158971	0.159220
C59	C	0.032088	0.187743	0.187899
C60	C	0.649056	0.333226	0.216514
C61	C	0.649059	0.383160	0.216518
C62	C	0.677892	0.692800	0.187839
C63	C	0.677935	0.880473	0.187849
O64	O	0.702402	0.904735	0.163458
N65	N	0.649192	0.903945	0.216548
C66	C	0.620439	0.880497	0.245249
O67	O	0.595996	0.904767	0.269663
C68	C	0.620399	0.692824	0.245241
C69	C	0.649140	0.669354	0.216537
C70	C	0.706632	0.669330	0.159138
C71	C	0.706619	0.622415	0.159134
C72	C	0.677867	0.598969	0.187831
C73	C	0.649127	0.622439	0.216533
C74	C	0.591648	0.669376	0.273943
C75	C	0.591641	0.622455	0.273940
C76	C	0.620383	0.598985	0.245235
C77	C	0.620362	0.552078	0.245226
N78	N	0.649105	0.528606	0.216527
C79	C	0.677858	0.552051	0.187830
C80	C	0.620461	0.979027	0.245251
C81	C	0.620471	1.025945	0.245252
C82	C	0.677968	1.025918	0.187853
C83	C	0.677956	0.979000	0.187850
C84	C	0.649204	0.955555	0.216552
C85	C	0.677828	0.453525	0.187823
C86	C	0.677812	0.406606	0.187820
C87	C	0.620317	0.406637	0.245221
C88	C	0.620331	0.453552	0.245222
C89	C	0.649091	0.476995	0.216522
O90	O	0.595912	0.527787	0.269609
O91	O	0.702304	0.527772	0.163426
C92	C	0.677905	0.739716	0.187843
C93	C	0.649166	0.763185	0.216545
C94	C	0.620413	0.739740	0.245242
C95	C	0.649175	0.810103	0.216546
C96	C	0.677927	0.833549	0.187849
C97	C	0.706670	0.810077	0.159150
C98	C	0.706657	0.763161	0.159146
C99	C	0.591671	0.763212	0.273941
C100	C	0.591685	0.810128	0.273942
C101	C	0.620437	0.833573	0.245245
C102	C	0.766324	0.216523	0.216574
C103	C	0.816258	0.216531	0.216588
C104	C	0.649230	1.099325	0.216568
C105	C	0.649223	1.049391	0.216555
C106	C	0.649173	0.216486	0.333720
C107	C	0.649185	0.216479	0.383654
C108	C	0.649144	0.216488	0.099819
C109	C	0.649219	0.216369	0.049884
C110	C	0.620485	0.187695	0.693301
C111	C	0.620498	0.187664	0.880974
O112	O	0.596074	0.163236	0.905243
N113	N	0.649206	0.216394	0.904439
C114	C	0.677911	0.245137	0.880983
O115	O	0.702327	0.269576	0.905247
C116	C	0.677896	0.245170	0.693311
C117	C	0.649189	0.216434	0.669848
C118	C	0.591780	0.158963	0.669839
C119	C	0.591779	0.158969	0.622923
C120	C	0.620483	0.187708	0.599470
C121	C	0.649188	0.216441	0.622933
C122	C	0.706599	0.273914	0.669855
C123	C	0.706591	0.273920	0.622934
C124	C	0.677884	0.245185	0.599472
C125	C	0.677891	0.245186	0.552564
N126	N	0.649182	0.216456	0.529099
C127	C	0.620479	0.187717	0.552553
C128	C	0.677918	0.245117	0.979514
C129	C	0.677923	0.245108	1.026431
C130	C	0.620509	0.187636	1.026420
C131	C	0.620507	0.187643	0.979501
C132	C	0.649210	0.216386	0.956049
C133	C	0.620479	0.187732	0.454027
C134	C	0.620481	0.187740	0.407107
C135	C	0.677893	0.245213	0.407123
C136	C	0.677893	0.245204	0.454038
C137	C	0.649182	0.216462	0.477489
O138	O	0.702298	0.269605	0.528267
O139	O	0.596060	0.163288	0.528280
C140	C	0.620487	0.187689	0.740217
C141	C	0.649192	0.216422	0.763679
C142	C	0.677895	0.245161	0.740226
C143	C	0.649196	0.216413	0.810597
C144	C	0.620492	0.187674	0.834050
C145	C	0.591784	0.158944	0.810585
C146	C	0.591783	0.158950	0.763670
C147	C	0.706604	0.273891	0.763691
C148	C	0.706603	0.273882	0.810606
C149	C	0.677899	0.245143	0.834060
H150	H	0.036450	0.135541	0.135866
H151	H	0.121556	0.135536	0.135856
H152	H	0.597047	0.959942	0.268624
H153	H	-0.179379	0.164333	0.164555
C154	C	0.484834	0.276915	0.276722
H155	H	0.516136	0.272799	0.272608
H156	H	0.477171	0.270388	0.306922
H157	H	0.477116	0.307090	0.270083
H158	H	0.597105	0.164338	0.388006
C159	C	0.709593	1.051714	0.156285
H160	H	0.705481	1.083017	0.160401
H161	H	0.703037	1.044048	0.126092
H162	H	0.739775	1.043998	0.162896
C163	C	0.709575	0.953187	0.156279
H164	H	0.726700	0.973874	0.139191
H165	H	0.692400	0.934908	0.136684
H166	H	0.729139	0.934861	0.173488
C167	C	0.709431	0.380792	0.156247
H168	H	0.726559	0.401477	0.139160
H169	H	0.692254	0.362515	0.136651
H170	H	0.728993	0.362462	0.173455
C171	C	0.128261	0.305696	0.305462
H172	H	0.107565	0.322827	0.322544
H173	H	0.146541	0.325248	0.288243
H174	H	0.146584	0.288535	0.325070
H175	H	0.597062	1.045050	0.268622
C176	C	0.170504	0.127298	0.127661
H177	H	0.191200	0.110160	0.110587
H178	H	0.152176	0.144449	0.108051
H179	H	0.152227	0.107747	0.144889
C180	C	0.588900	0.156114	0.479816
H181	H	0.571810	0.139002	0.459118
H182	H	0.569308	0.173288	0.498105
H183	H	0.606107	0.136537	0.498131
C184	C	0.588695	0.380843	0.276791
H185	H	0.571577	0.401538	0.293887
H186	H	0.605872	0.362515	0.296379
H187	H	0.569124	0.362566	0.259584
H188	H	0.393019	0.268692	0.268556
C189	C	-0.087569	0.156103	0.156352
H190	H	-0.108265	0.138977	0.139273
H191	H	-0.069243	0.136547	0.173566
H192	H	-0.069291	0.173263	0.136741
C193	C	0.269007	0.305689	0.305443
H194	H	0.248311	0.322819	0.322525
H195	H	0.287289	0.325242	0.288226
H196	H	0.287330	0.288526	0.325050
C197	C	0.560068	0.835939	0.305520
H198	H	0.542948	0.815252	0.322613
H199	H	0.540506	0.854273	0.288321
H200	H	0.577252	0.854211	0.325117
C201	C	-0.087564	0.276946	0.276804
H202	H	-0.108258	0.294079	0.293885
H203	H	-0.069282	0.296496	0.259584
H204	H	-0.069242	0.259784	0.296413
H205	H	0.177200	0.297475	0.297259
C206	C	0.709504	0.276713	1.052235
H207	H	0.726593	0.293831	1.031543
H208	H	0.729096	0.259531	1.070552
H209	H	0.692301	0.296284	1.070523
H210	H	0.729976	0.297296	0.744600
C211	C	-0.186091	0.276947	0.276815
H212	H	-0.217393	0.272823	0.272711
H213	H	-0.178429	0.307125	0.270190
H214	H	-0.178381	0.270406	0.307012
C215	C	0.269018	0.127295	0.127651
H216	H	0.248325	0.110164	0.110575
H217	H	0.287345	0.107745	0.144871
H218	H	0.287296	0.144452	0.108038
H219	H	0.393009	0.164291	0.164489
C220	C	0.709498	0.276732	0.953722
H221	H	0.726598	0.293835	0.974420
H222	H	0.692300	0.296311	0.935405
H223	H	0.729089	0.259550	0.935435
C224	C	0.738171	0.305529	0.695654
H225	H	0.755257	0.322648	0.674960
H226	H	0.757767	0.288354	0.713973
H227	H	0.720963	0.325099	0.713938
C228	C	0.709460	0.479307	0.156250
H229	H	0.726569	0.458604	0.139155
H230	H	0.729032	0.497583	0.173452
H231	H	0.692287	0.497634	0.136655
C232	C	0.738166	0.305539	0.597139
H233	H	0.755263	0.322647	0.617835
H234	H	0.720963	0.325112	0.578822
H235	H	0.757759	0.288359	0.578852
H236	H	0.478132	0.164291	0.164479
C237	C	0.560035	0.695183	0.305522
H238	H	0.542917	0.674494	0.322614
H239	H	0.540470	0.713515	0.288324
H240	H	0.577217	0.713457	0.325119
H241	H	0.036440	0.297479	0.297274
H242	H	0.568401	0.135572	0.603825
H243	H	0.701273	0.268598	0.473142
C244	C	0.738241	0.596604	0.127564
H245	H	0.755367	0.617292	0.110480
H246	H	0.721069	0.578325	0.107967
H247	H	0.757804	0.578277	0.144774
C248	C	0.560014	0.596667	0.305511
H249	H	0.564123	0.565362	0.301403
H250	H	0.529834	0.604389	0.298907
H251	H	0.566579	0.604335	0.335705
H252	H	0.730048	0.688415	0.135769
H253	H	0.730062	0.744055	0.135772
C254	C	0.588716	0.479370	0.276795
H255	H	0.571592	0.458685	0.293887
H256	H	0.569156	0.497705	0.259595
H257	H	0.605901	0.497641	0.296393
H258	H	0.730080	0.829174	0.135782
C259	C	0.560206	0.127345	0.695630
H260	H	0.543115	0.110234	0.674931
H261	H	0.540614	0.144516	0.713922
H262	H	0.577414	0.107766	0.713942
H263	H	0.568257	0.744126	0.297311
H264	H	0.568407	0.135551	0.744571
H265	H	0.597131	0.164244	0.960401
C266	C	0.709463	0.276825	0.381318
H267	H	0.705344	0.272715	0.350016
H268	H	0.739656	0.270260	0.389020
H269	H	0.702856	0.307009	0.388994
C270	C	0.560206	0.127336	0.836390
H271	H	0.564318	0.131455	0.867692
H272	H	0.566799	0.097151	0.828719
H273	H	0.530014	0.133915	0.828685
C274	C	0.588925	0.156033	1.052224
H275	H	0.593037	0.160151	1.083526
H276	H	0.595513	0.125846	1.044553
H277	H	0.558735	0.162618	1.044518
H278	H	0.729984	0.297281	0.829706
