data_functionalizedCrystal
_audit_creation_method	'MofGen! by Chris Wilmer'
_symmetry_space_group_name_H-M	'P1'
_symmetry_Int_Tables_number	1
_symmetry_cell_setting	triclinic
loop_
_symmetry_equiv_pos_as_xyz
  x,y,z
_cell_length_a	14.908993
_cell_length_b	12.594516
_cell_length_c	14.908694
_cell_angle_alpha	93.268150
_cell_angle_beta	89.788153
_cell_angle_gamma	93.315113
loop_
_atom_site_label
_atom_site_type_symbol
_atom_site_fract_x
_atom_site_fract_y
_atom_site_fract_z
Zn1	Zn	1.403975	-0.357273	-0.429185
Zn2	Zn	1.395219	-0.525641	-0.278832
Zn3	Zn	1.244942	-0.358507	-0.287507
Zn4	Zn	1.253601	-0.546043	-0.437804
O5	O	1.324434	-0.446866	-0.358332
O6	O	1.528637	-0.370552	-0.402003
O7	O	1.367996	-0.495448	-0.154160
O8	O	1.266079	-0.209396	-0.306324
O9	O	1.522204	-0.494251	-0.291539
O10	O	1.382920	-0.208490	-0.410414
O11	O	1.257589	-0.372655	-0.160533
O12	O	1.120268	-0.392439	-0.314682
O13	O	1.280837	-0.529025	-0.562484
O14	O	1.126629	-0.530221	-0.425104
O15	O	1.391316	-0.390336	-0.556151
O16	O	1.376392	-0.677294	-0.299897
O17	O	1.272346	-0.692284	-0.416693
C18	C	1.090824	-0.463679	-0.371770
C19	C	0.990885	-0.470898	-0.377540
C20	C	0.796423	-0.340798	-0.273561
C21	C	0.702522	-0.347578	-0.278979
C22	C	0.709180	-0.491242	-0.393791
C23	C	0.803081	-0.484462	-0.388372
C24	C	0.846699	-0.409237	-0.328256
C25	C	0.940603	-0.402452	-0.322843
C26	C	0.947258	-0.546121	-0.437649
C27	C	0.853357	-0.552901	-0.443068
C28	C	1.324384	-0.723409	-0.358307
C29	C	1.324447	-0.841711	-0.358322
C30	C	1.381153	-0.973535	-0.294895
C31	C	1.297828	-0.907345	-0.277526
C32	C	1.407760	-0.906327	-0.375650
C33	C	1.241173	-0.986306	-0.340985
C34	C	1.351162	-0.985292	-0.439145
C35	C	1.267782	-0.919141	-0.421811
C36	C	1.558957	-0.429988	-0.344842
C37	C	1.658897	-0.422796	-0.339093
C38	C	1.338019	-0.461819	-0.592854
C39	C	1.343808	-0.468191	-0.692793
C40	C	1.324510	-0.169243	-0.358375
C41	C	1.324543	-0.050937	-0.358394
C42	C	1.239698	-0.352305	-0.887229
C43	C	1.245134	-0.358289	-0.981131
C44	C	1.360111	-0.486147	-0.974501
C45	C	1.354675	-0.480163	-0.880599
C46	C	1.294467	-0.413239	-0.836967
C47	C	1.289036	-0.407250	-0.743062
C48	C	1.404009	-0.535114	-0.736435
C49	C	1.409445	-0.541097	-0.830337
C50	C	1.310954	-0.431891	-0.124719
C51	C	1.305340	-0.425207	-0.024771
H52	H	0.976116	-0.341194	-0.273898
H53	H	1.429003	-0.997687	-0.241191
C54	C	1.425605	-0.558729	-1.021769
C55	C	1.513256	-0.527717	-0.993817
C56	C	1.573609	-0.594564	-1.037335
H57	H	1.421109	-0.553620	-1.084897
H58	H	1.411590	-0.630224	-1.007105
H59	H	1.527267	-0.456239	-1.008487
H60	H	1.517780	-0.532830	-0.930695
H61	H	1.559594	-0.666059	-1.022672
H62	H	1.569105	-0.589450	-1.100462
H63	H	1.633086	-0.573538	-1.018371
H64	H	1.458461	-0.595589	-0.865876
C65	C	1.147190	-1.032712	-0.321549
C66	C	1.087999	-1.004581	-0.387732
C67	C	1.001420	-1.047323	-0.369861
H68	H	1.128039	-1.005396	-0.264386
H69	H	1.147761	-1.108115	-0.321711
H70	H	1.087425	-0.929193	-0.387561
H71	H	1.107120	-1.031896	-0.444901
H72	H	1.001991	-1.122726	-0.370023
H73	H	0.982278	-1.020004	-0.312697
H74	H	0.961250	-1.028251	-0.414767
H75	H	1.373745	-1.019431	-0.507444
H76	H	1.448609	-0.584727	-0.695501
H77	H	1.190682	-0.297803	-0.851702
C78	C	1.185628	-0.292004	-1.035543
C79	C	1.131756	-0.232099	-0.977227
C80	C	1.076933	-0.171014	-1.027318
H81	H	1.148484	-0.337763	-1.074429
H82	H	1.222133	-0.245427	-1.070184
H83	H	1.095254	-0.278672	-0.942601
H84	H	1.168876	-0.186320	-0.938340
H85	H	1.113438	-0.124436	-1.061959
H86	H	1.039794	-0.216780	-1.066203
H87	H	1.040380	-0.130353	-0.987758
H88	H	0.831939	-0.279534	-0.224623
H89	H	0.661591	-0.291847	-0.234441
H90	H	1.478175	-0.871344	-0.390276
H91	H	0.817829	-0.614151	-0.492010
H92	H	0.673648	-0.552496	-0.442726
C93	C	1.001729	-0.620608	-0.496992
C94	C	0.977721	-0.726280	-0.478602
C95	C	1.027873	-0.794920	-0.533260
H96	H	1.063918	-0.605942	-0.485214
H97	H	0.989832	-0.610165	-0.558329
H98	H	0.989625	-0.736719	-0.417279
H99	H	0.915541	-0.740980	-0.490385
H100	H	1.015976	-0.784477	-0.594597
H101	H	1.090059	-0.780245	-0.521477
H102	H	1.011585	-0.866626	-0.520796
H103	H	1.240015	-0.352752	-0.707538
H104	H	1.219808	-0.895191	-0.475483
H105	H	1.275267	-0.873226	-0.209206
