data_functionalizedCrystal
_audit_creation_method	'MofGen! by Chris Wilmer'
_symmetry_space_group_name_H-M	'P1'
_symmetry_Int_Tables_number	1
_symmetry_cell_setting	triclinic
loop_
_symmetry_equiv_pos_as_xyz
  x,y,z
_cell_length_a	12.759401
_cell_length_b	18.101395
_cell_length_c	12.759393
_cell_angle_alpha	89.966555
_cell_angle_beta	89.980316
_cell_angle_gamma	90.030218
loop_
_atom_site_label
_atom_site_type_symbol
_atom_site_fract_x
_atom_site_fract_y
_atom_site_fract_z
Zn1	Zn	1.606136	-0.294803	-0.594001
Zn2	Zn	1.605980	-0.418665	-0.418315
Zn3	Zn	1.430438	-0.294840	-0.418337
Zn4	Zn	1.430376	-0.418606	-0.593953
O5	O	1.518232	-0.356729	-0.506151
O6	O	1.753136	-0.311243	-0.570707
O7	O	1.582654	-0.402279	-0.271297
O8	O	1.453835	-0.191202	-0.441668
O9	O	1.753021	-0.402244	-0.441631
O10	O	1.582920	-0.191175	-0.570728
O11	O	1.453684	-0.311306	-0.271313
O12	O	1.283408	-0.311248	-0.441621
O13	O	1.453730	-0.402143	-0.740981
O14	O	1.283363	-0.402178	-0.570646
O15	O	1.582860	-0.311186	-0.741016
O16	O	1.582594	-0.522290	-0.441585
O17	O	1.453579	-0.522247	-0.570625
C18	C	1.245265	-0.356711	-0.506132
C19	C	1.128488	-0.356722	-0.506148
C20	C	1.518092	-0.549139	-0.506121
C21	C	1.518128	-0.631453	-0.506142
C22	C	1.073619	-0.309312	-0.439088
C23	C	0.963895	-0.309330	-0.439102
C24	C	0.963919	-0.404169	-0.573243
C25	C	1.073641	-0.404154	-0.573224
C26	C	1.073604	-0.254555	-0.361646
C27	C	0.963880	-0.254573	-0.361659
C28	C	1.518358	-0.930544	-0.506199
C29	C	1.437374	-0.899222	-0.587589
C30	C	1.436989	-0.813604	-0.587335
C31	C	1.518244	-0.782162	-0.506172
C32	C	1.488263	-0.813321	-0.395446
C33	C	1.487741	-0.898966	-0.395933
C34	C	1.629501	-0.898887	-0.534560
C35	C	1.628847	-0.813236	-0.536988
C36	C	1.518181	-0.698302	-0.506150
C37	C	1.518418	-1.014404	-0.506214
C38	C	1.792265	-0.356746	-0.506172
C39	C	1.909042	-0.356754	-0.506181
C40	C	1.518306	-0.356654	-0.780185
C41	C	1.518337	-0.356622	-0.896962
C42	C	1.518402	-0.163567	-0.506205
C43	C	1.518474	-0.081252	-0.506228
C44	C	1.585584	-0.309256	-0.951844
C45	C	1.585609	-0.309229	-1.061568
C46	C	1.451137	-0.403941	-1.061518
C47	C	1.451108	-0.403963	-0.951796
C48	C	1.663224	-0.254578	-0.951873
C49	C	1.663249	-0.254551	-1.061597
C50	C	1.518219	-0.356750	-0.233184
C51	C	1.518392	-0.356573	-0.116408
H52	H	1.118312	-0.442767	-0.627820
H53	H	0.919249	-0.442787	-0.627854
H54	H	1.103330	-0.269843	-0.280232
H55	H	1.396345	-0.442530	-0.907115
H56	H	0.929801	-0.275055	-0.284315
H57	H	1.740488	-0.275139	-0.917838
C58	C	1.377192	-0.456017	-1.121839
C59	C	1.377217	-0.455994	-1.242529
C60	C	1.303271	-0.508072	-1.302847
C61	C	1.229300	-0.560174	-1.242474
C62	C	1.229272	-0.560200	-1.121778
C63	C	1.303218	-0.508121	-1.061460
H64	H	1.431978	-0.417423	-1.287226
H65	H	1.303293	-0.508053	-1.392195
H66	H	1.174561	-0.598726	-1.287125
H67	H	1.174511	-0.598771	-1.077080
H68	H	1.303197	-0.508141	-0.972112
H69	H	1.107678	-0.200093	-0.390926
H70	H	1.656833	-0.920429	-0.613925
H71	H	1.545393	-0.792956	-0.333151
C72	C	0.923702	-0.177125	-0.391331
C73	C	0.854373	-0.166866	-0.489023
C74	C	0.814201	-0.089422	-0.518706
C75	C	0.843358	-0.022237	-0.450697
C76	C	0.912691	-0.032493	-0.352999
C77	C	0.952863	-0.109937	-0.323316
H78	H	0.832786	-0.216602	-0.539373
H79	H	0.762876	-0.081830	-0.591028
H80	H	0.813620	0.035092	-0.472669
H81	H	0.934278	0.017243	-0.302649
H82	H	1.004188	-0.117529	-0.250993
H83	H	1.634158	-0.200056	-1.095647
H84	H	1.744614	-0.269913	-1.091377
C85	C	1.462261	-0.785134	-0.698262
C86	C	1.482940	-0.840328	-0.787697
C87	C	1.508178	-0.811861	-0.898638
C88	C	1.512738	-0.728201	-0.920143
C89	C	1.492058	-0.673002	-0.830705
C90	C	1.466819	-0.701468	-0.719765
H91	H	1.479566	-0.902262	-0.771780
H92	H	1.523487	-0.852724	-0.964845
H93	H	1.531421	-0.707129	-1.002268
H94	H	1.495432	-0.611067	-0.846623
H95	H	1.451511	-0.660606	-0.653558
H96	H	1.455945	-0.919764	-0.669957
C97	C	1.326755	-0.928379	-0.562530
C98	C	1.237727	-0.873830	-0.537170
C99	C	1.127111	-0.902989	-0.512105
C100	C	1.105524	-0.986697	-0.512401
C101	C	1.194555	-1.041252	-0.537762
C102	C	1.305171	-1.012093	-0.562827
H103	H	1.253705	-0.811859	-0.536950
H104	H	1.061205	-0.862603	-0.493331
H105	H	1.023639	-1.008282	-0.493846
H106	H	1.178577	-1.103222	-0.537982
H107	H	1.371077	-1.052478	-0.581601
C108	C	1.325699	-0.786010	-0.561949
C109	C	1.273542	-0.807171	-0.457290
C110	C	1.162248	-0.779578	-0.431900
C111	C	1.103109	-0.730824	-0.511170
C112	C	1.155266	-0.709660	-0.615836
C113	C	1.266561	-0.737253	-0.641226
H114	H	1.317320	-0.843264	-0.398604
H115	H	1.123638	-0.795245	-0.354419
H116	H	1.020722	-0.710398	-0.492375
H117	H	1.111488	-0.673567	-0.674522
H118	H	1.305170	-0.721586	-0.718707
H119	H	1.689837	-0.919142	-0.475280
H120	H	1.406496	-0.919010	-0.371909
H121	H	1.544168	-0.919689	-0.333224
H122	H	1.407879	-0.791937	-0.370991
H123	H	1.651456	-0.792867	-0.618476
H124	H	1.692377	-0.791828	-0.482028
H125	H	1.641479	-0.197225	-0.922120
