data_functionalizedCrystal
_audit_creation_method	'MofGen! by Chris Wilmer'
_symmetry_space_group_name_H-M	'P1'
_symmetry_Int_Tables_number	1
_symmetry_cell_setting	triclinic
loop_
_symmetry_equiv_pos_as_xyz
  x,y,z
_cell_length_a	21.295417
_cell_length_b	21.295420
_cell_length_c	19.120904
_cell_angle_alpha	87.577302
_cell_angle_beta	87.591662
_cell_angle_gamma	90.028757
loop_
_atom_site_label
_atom_site_type_symbol
_atom_site_fract_x
_atom_site_fract_y
_atom_site_fract_z
Zn1	Zn	-0.265835	0.947123	0.397096
Zn2	Zn	0.234165	1.447123	0.897096
Zn3	Zn	-0.366613	0.951531	0.279640
Zn4	Zn	0.133387	1.451531	0.779640
Zn5	Zn	-0.261359	0.846351	0.279662
Zn6	Zn	0.238641	1.346351	0.779662
Zn7	Zn	-0.371065	0.841817	0.397048
Zn8	Zn	0.128935	1.341817	0.897048
O9	O	-0.316218	0.896705	0.338361
O10	O	0.183782	1.396705	0.838361
O11	O	-0.279213	1.035796	0.381526
O12	O	0.220787	1.535796	0.881526
O13	O	-0.348915	0.941320	0.181361
O14	O	0.151085	1.441320	0.681361
O15	O	-0.173865	0.859771	0.295269
O16	O	0.326135	1.359771	0.795269
O17	O	-0.353254	1.039035	0.295232
O18	O	0.146746	1.539035	0.795232
O19	O	-0.177153	0.933807	0.381547
O20	O	0.322847	1.433807	0.881547
O21	O	-0.271585	0.864045	0.181377
O22	O	0.228415	1.364045	0.681377
O23	O	-0.275902	0.757660	0.295222
O24	O	0.224098	1.257660	0.795222
O25	O	-0.360842	0.852044	0.495336
O26	O	0.139158	1.352044	0.995336
O27	O	-0.356503	0.754329	0.381465
O28	O	0.143497	1.254329	0.881465
O29	O	-0.283530	0.929411	0.495372
O30	O	0.216470	1.429411	0.995372
O31	O	-0.455292	0.936924	0.295185
O32	O	0.044708	1.436924	0.795185
O33	O	-0.458563	0.856318	0.381444
O34	O	0.041437	1.356318	0.881444
C35	C	-0.316200	0.733154	0.338341
C36	C	0.183800	1.233154	0.838341
C37	C	-0.316208	0.663186	0.338349
C38	C	0.183792	1.163186	0.838349
C39	C	-0.358259	0.162011	0.383224
C40	C	0.141741	0.662011	0.883224
C41	C	-0.358259	0.227754	0.383217
C42	C	0.141741	0.727754	0.883217
C43	C	-0.316233	0.262345	0.338383
C44	C	0.183767	0.762345	0.838383
C45	C	-0.274215	0.231189	0.293541
C46	C	0.225785	0.731189	0.793541
C47	C	-0.274221	0.165447	0.293545
C48	C	0.225779	0.665447	0.793545
N49	N	-0.260915	0.365788	0.333103
N50	N	0.239085	0.865788	0.833103
N51	N	-0.260911	0.428240	0.333104
N52	N	0.239089	0.928240	0.833104
C53	C	-0.316215	0.460420	0.338368
C54	C	0.183785	0.960420	0.838368
N55	N	-0.371524	0.427790	0.343646
N56	N	0.128476	0.927790	0.843646
N57	N	-0.371526	0.365333	0.343649
N58	N	0.128474	0.865333	0.843649
C59	C	-0.316223	0.333631	0.338374
C60	C	0.183777	0.833631	0.838374
C61	C	-0.358233	0.562855	0.383197
C62	C	0.141767	1.062855	0.883197
C63	C	-0.358234	0.628599	0.383184
C64	C	0.141766	1.128599	0.883184
C65	C	-0.274185	0.632033	0.293512
C66	C	0.225815	1.132033	0.793512
C67	C	-0.274189	0.566290	0.293520
C68	C	0.225811	1.066290	0.793520
C69	C	-0.316213	0.531705	0.338367
C70	C	0.183787	1.031705	0.838367
C71	C	-0.479768	0.896624	0.338322
C72	C	0.020232	1.396624	0.838322
C73	C	-0.549737	0.896646	0.338329
C74	C	-0.049737	1.396646	0.838329
C75	C	-0.580881	0.938652	0.293460
C76	C	-0.080881	1.438652	0.793460
C77	C	-0.646624	0.938681	0.293476
C78	C	-0.146624	1.438681	0.793476
C79	C	-0.681220	0.896693	0.338354
C80	C	-0.181220	1.396693	0.838354
C81	C	-0.650068	0.854684	0.383231
C82	C	-0.150068	1.354684	0.883231
C83	C	-0.584326	0.854661	0.383219
C84	C	-0.084326	1.354661	0.883219
N85	N	-0.784689	0.841421	0.343701
N86	N	-0.284689	1.341421	0.843701
N87	N	-0.847140	0.841445	0.343708
N88	N	-0.347140	1.341445	0.843708
C89	C	-0.879296	0.896762	0.338394
C90	C	-0.379296	1.396762	0.838394
N91	N	-0.846641	0.952056	0.333058
N92	N	-0.346641	1.452056	0.833058
N93	N	-0.784183	0.952031	0.333047
N94	N	-0.284183	1.452031	0.833047
C95	C	-0.752506	0.896714	0.338372
C96	C	-0.252506	1.396714	0.838372
C97	C	-0.981727	0.938802	0.293540
C98	C	-0.481727	1.438802	0.793540
C99	C	-1.047471	0.938832	0.293560
C100	C	-0.547471	1.438832	0.793560
C101	C	-1.050914	0.854830	0.383312
C102	C	-0.550914	1.354830	0.883312
C103	C	-0.985171	0.854806	0.383295
C104	C	-0.485171	1.354806	0.883295
C105	C	-0.950581	0.896791	0.338405
C106	C	-0.450581	1.396791	0.838405
C107	C	-0.152030	0.896803	0.338416
C108	C	0.347970	1.396803	0.838416
C109	C	-0.082063	0.896845	0.338439
C110	C	0.417937	1.396845	0.838439
C111	C	-0.323182	0.889730	0.521550
C112	C	0.176818	1.389730	1.021550
C113	C	-0.326150	0.886758	0.599614
C114	C	0.173850	1.386758	1.099614
C115	C	-0.316236	1.060895	0.338382
C116	C	0.183764	1.560895	0.838382
C117	C	-0.316244	1.130862	0.338391
C118	C	0.183756	1.630862	0.838391
C119	C	-0.309236	0.903689	0.155885
C120	C	0.190764	1.403689	0.655885
C121	C	-0.306091	0.906784	0.077822
C122	C	0.193909	1.406784	0.577822
C123	C	-0.287293	0.925641	0.636308
C124	C	0.212707	1.425641	1.136308
C125	C	-0.290080	0.922840	0.709658
C126	C	0.209920	1.422840	1.209658
C127	C	-0.331725	0.881160	0.746311
C128	C	0.168275	1.381160	1.246311
C129	C	-0.370583	0.842273	0.709612
C130	C	0.129417	1.342273	1.209612
C131	C	-0.367794	0.845071	0.636264
C132	C	0.132206	1.345071	1.136264
C133	C	-0.342159	0.870694	0.967774
C134	C	0.157841	1.370694	1.467774
C135	C	-0.344947	0.867901	1.041128
C136	C	0.155053	1.367901	1.541128
C137	C	-0.264442	0.948468	1.041168
C138	C	0.235558	1.448468	1.541168
C139	C	-0.261659	0.951264	0.967818
C140	C	0.238341	1.451264	1.467818
C141	C	-0.300514	0.912375	0.931126
C142	C	0.199486	1.412375	1.431126
C143	C	-0.334576	0.878298	0.821286
C144	C	0.165424	1.378298	1.321286
C145	C	-0.297661	0.915235	0.856152
C146	C	0.202339	1.415235	1.356152
H147	H	-0.392452	0.653960	0.419691
H148	H	0.107548	1.153960	0.919691
Cl149	Cl	-0.245301	0.967625	0.810072
Cl150	Cl	0.254699	1.467625	1.310072
H151	H	-1.079081	0.820646	0.419855
H152	H	-0.579081	1.320646	0.919855
Cl153	Cl	-0.416642	0.796185	0.590134
Cl154	Cl	0.083358	1.296185	1.090134
H155	H	-0.239998	0.259357	0.257036
H156	H	0.260002	0.759357	0.757036
Cl157	Cl	-0.391007	0.821805	0.921656
Cl158	Cl	0.108993	1.321805	1.421656
Cl159	Cl	-0.221396	0.126287	0.237179
Cl160	Cl	0.278604	0.626287	0.737179
H161	H	-0.404490	0.808333	0.739462
H162	H	0.095510	1.308333	1.239462
H163	H	-0.258440	0.954504	0.739531
H164	H	0.241560	1.454504	1.239531
H165	H	-0.392480	0.133856	0.419739
H166	H	0.107520	0.633856	0.919739
H167	H	-0.239968	0.660196	0.257005
H168	H	0.260032	1.160196	0.757005
Cl169	Cl	-0.411081	0.266921	0.439585
Cl170	Cl	0.088919	0.766921	0.939585
H171	H	-0.558968	0.820454	0.419758
H172	H	-0.058968	1.320454	0.919758
H173	H	-0.392452	0.534695	0.419712
H174	H	0.107548	1.034695	0.919712
H175	H	-0.953563	0.972991	0.256990
H176	H	-0.453563	1.472991	0.756990
H177	H	-0.232807	0.980128	1.071051
H178	H	0.267193	1.480128	1.571051
Cl179	Cl	-0.221362	0.527129	0.237160
Cl180	Cl	0.278638	1.027129	0.737160
H181	H	-0.671987	0.972889	0.256939
H182	H	-0.171987	1.472889	0.756939
Cl183	Cl	-0.537400	0.991442	0.237038
Cl184	Cl	-0.037400	1.491442	0.737038
H185	H	-0.368487	0.844364	0.851138
H186	H	0.131513	1.344364	1.351138
H187	H	-0.678240	0.820499	0.419772
H188	H	-0.178240	1.320499	0.919772
H189	H	-1.072828	0.973042	0.257024
H190	H	-0.572828	1.473042	0.757024
H191	H	-0.378862	0.833958	1.070969
H192	H	0.121138	1.333958	1.570969
Cl193	Cl	-0.946015	0.801993	0.439702
Cl194	Cl	-0.446015	1.301993	0.939702
H195	H	-0.253383	0.959583	0.606470
H196	H	0.246617	1.459583	1.106470
Cl197	Cl	-0.209302	1.003665	0.921745
Cl198	Cl	0.290698	1.503665	1.421745
