data_functionalizedCrystal
_audit_creation_method	'MofGen! by Chris Wilmer'
_symmetry_space_group_name_H-M	'P1'
_symmetry_Int_Tables_number	1
_symmetry_cell_setting	triclinic
loop_
_symmetry_equiv_pos_as_xyz
  x,y,z
_cell_length_a	12.759400
_cell_length_b	19.077372
_cell_length_c	19.076919
_cell_angle_alpha	85.525334
_cell_angle_beta	92.274856
_cell_angle_gamma	87.684540
loop_
_atom_site_label
_atom_site_type_symbol
_atom_site_fract_x
_atom_site_fract_y
_atom_site_fract_z
Zn1	Zn	-0.375906	-1.061714	-0.355495
Zn2	Zn	0.124094	-0.561714	0.144505
Zn3	Zn	-0.544250	-1.066388	-0.237620
Zn4	Zn	-0.044250	-0.566388	0.262380
Zn5	Zn	-0.375938	-0.948570	-0.242340
Zn6	Zn	0.124062	-0.448570	0.257660
Zn7	Zn	-0.558898	-0.943819	-0.360179
Zn8	Zn	-0.058898	-0.443819	0.139821
O9	O	-0.463748	-1.005123	-0.298908
O10	O	0.036252	-0.505123	0.201092
O11	O	-0.392094	-1.160981	-0.335923
O12	O	0.107906	-0.660981	0.164077
O13	O	-0.515807	-1.054703	-0.139599
O14	O	-0.015807	-0.554703	0.360401
O15	O	-0.228912	-0.963611	-0.257365
O16	O	0.271088	-0.463611	0.242635
O17	O	-0.515775	-1.164415	-0.249321
O18	O	-0.015775	-0.664415	0.250679
O19	O	-0.228888	-1.046738	-0.340499
O20	O	0.271112	-0.546738	0.159501
O21	O	-0.392148	-0.968143	-0.143067
O22	O	0.107852	-0.468143	0.356933
O23	O	-0.406352	-0.849292	-0.261907
O24	O	0.093648	-0.349292	0.238093
O25	O	-0.540741	-0.955514	-0.458204
O26	O	-0.040741	-0.455514	0.041796
O27	O	-0.540772	-0.845802	-0.348482
O28	O	-0.040772	-0.345802	0.151518
O29	O	-0.406297	-1.042131	-0.454763
O30	O	0.093703	-0.542131	0.045237
O31	O	-0.693215	-1.050097	-0.253863
O32	O	-0.193215	-0.550097	0.246137
O33	O	-0.703977	-0.960046	-0.343906
O34	O	-0.203977	-0.460046	0.156094
C35	C	-0.475155	-0.821969	-0.306215
C36	C	0.024845	-0.321969	0.193785
C37	C	-0.480062	-0.743614	-0.309358
C38	C	0.019938	-0.243614	0.190642
C39	C	-0.515173	-0.302366	-0.331936
C40	C	-0.015173	0.197634	0.168064
C41	C	-0.510570	-0.375989	-0.328970
C42	C	-0.010570	0.124011	0.171030
C43	C	-0.438180	-0.414591	-0.282486
C44	C	0.061820	0.085409	0.217514
C45	C	-0.370396	-0.379568	-0.238960
C46	C	0.129604	0.120432	0.261040
C47	C	-0.375005	-0.305946	-0.241923
C48	C	0.124995	0.194054	0.258077
C49	C	-0.416886	-0.634969	-0.268796
C50	C	0.083114	-0.134969	0.231204
C51	C	-0.412280	-0.708595	-0.265837
C52	C	0.087720	-0.208595	0.234163
C53	C	-0.552457	-0.705011	-0.355846
C54	C	-0.052457	-0.205011	0.144154
C55	C	-0.557055	-0.631389	-0.358808
C56	C	-0.057055	-0.131389	0.141192
C57	C	-0.489274	-0.596371	-0.315280
C58	C	0.010726	-0.096371	0.184720
N59	N	-0.433471	-0.489846	-0.279455
N60	N	0.066529	0.010154	0.220545
N61	N	-0.493989	-0.521118	-0.318308
N62	N	0.006011	-0.021118	0.181692
C63	C	-0.736717	-1.005081	-0.298895
C64	C	-0.236717	-0.505081	0.201105
C65	C	-0.853492	-1.005127	-0.298911
C66	C	-0.353492	-0.505127	0.201089
C67	C	-0.902715	-1.052065	-0.252073
C68	C	-0.402715	-0.552065	0.247927
C69	C	-1.012438	-1.052107	-0.252093
C70	C	-0.512438	-0.552107	0.247907
C71	C	-1.023705	-0.958268	-0.345791
C72	C	-0.523705	-0.458268	0.154209
C73	C	-0.913984	-0.958230	-0.345773
C74	C	-0.413984	-0.458230	0.154227
C75	C	-0.842224	-1.098962	-0.205210
C76	C	-0.342224	-0.598962	0.294790
C77	C	-0.891447	-1.145903	-0.158368
C78	C	-0.391447	-0.645903	0.341632
C79	C	-1.001169	-1.145946	-0.158388
C80	C	-0.501169	-0.645946	0.341612
C81	C	-1.061669	-1.099047	-0.205250
C82	C	-0.561669	-0.599047	0.294750
C83	C	-0.189713	-1.005183	-0.298936
C84	C	0.310287	-0.505183	0.201064
C85	C	-0.072935	-1.005208	-0.298948
C86	C	0.427065	-0.505208	0.201052
C87	C	-0.475149	-0.997771	-0.482777
C88	C	0.024851	-0.497771	0.017223
C89	C	-0.480008	-0.994638	-0.561131
C90	C	0.019992	-0.494638	-0.061131
C91	C	-0.452291	-0.188992	-0.291565
C92	C	0.047709	0.311008	0.208435
C93	C	-0.447392	-0.267347	-0.288415
C94	C	0.052608	0.232653	0.211585
C95	C	-0.412296	-1.038261	-0.596151
C96	C	0.087704	-0.538261	-0.096151
C97	C	-0.416857	-1.035309	-0.669773
C98	C	0.083143	-0.535309	-0.169773
C99	C	-0.489137	-0.988737	-0.708374
C100	C	0.010863	-0.488737	-0.208374
C101	C	-0.556851	-0.945109	-0.673348
C102	C	-0.056851	-0.445109	-0.173348
C103	C	-0.552284	-0.948058	-0.599728
C104	C	-0.052284	-0.448058	-0.099728
C105	C	-0.510298	-0.975077	-0.928748
C106	C	-0.010298	-0.475077	-0.428748
C107	C	-0.514862	-0.972133	-1.002374
C108	C	-0.014862	-0.472133	-0.502374
C109	C	-0.374866	-1.062332	-0.998794
C110	C	0.125134	-0.562332	-0.498794
C111	C	-0.370309	-1.065280	-0.925172
C112	C	0.129691	-0.565280	-0.425172
C113	C	-0.438020	-1.021650	-0.890153
C114	C	0.061980	-0.521650	-0.390153
N115	N	-0.493803	-0.985719	-0.783627
N116	N	0.006197	-0.485719	-0.283627
N117	N	-0.433348	-1.024664	-0.814901
N118	N	0.066652	-0.524664	-0.314901
C119	C	-0.452313	-1.012486	-0.115753
C120	C	0.047687	-0.512486	0.384247
C121	C	-0.447150	-1.015756	-0.037394
C122	C	0.052850	-0.515756	0.462606
H123	H	-0.565768	-0.404498	-0.364407
H124	H	-0.065768	0.095502	0.135593
H125	H	-1.072972	-0.920085	-0.383943
H126	H	-0.572972	-0.420085	0.116057
Cl127	Cl	-0.852098	-0.899223	-0.404658
Cl128	Cl	-0.352098	-0.399223	0.095342
H129	H	-0.752881	-1.098931	-0.205187
H130	H	-0.252881	-0.598931	0.294813
Cl131	Cl	-0.289746	-1.117175	-1.042822
Cl132	Cl	0.210254	-0.617175	-0.542822
H133	H	-1.151012	-1.099091	-0.205268
H134	H	-0.651012	-0.599091	0.294732
Cl135	Cl	-0.595421	-0.920228	-0.884734
Cl136	Cl	-0.095421	-0.420228	-0.384734
H137	H	-0.607641	-0.733531	-0.391283
H138	H	-0.107641	-0.233531	0.108717
H139	H	-0.615699	-0.907187	-0.704783
H140	H	-0.115699	-0.407187	-0.204783
Cl141	Cl	-0.606178	-0.253844	-0.390379
Cl142	Cl	-0.106178	0.246156	0.109621
Cl143	Cl	-0.648064	-0.582865	-0.417247
Cl144	Cl	-0.148064	-0.082865	0.082753
Cl145	Cl	-0.605729	-0.913577	-1.050900
Cl146	Cl	-0.105729	-0.413577	-0.550900
H147	H	-0.353318	-0.740024	-0.227990
H148	H	0.146682	-0.240024	0.272010
H149	H	-0.353441	-1.076187	-0.564728
H150	H	0.146559	-0.576187	-0.064728
H151	H	-0.361698	-0.606467	-0.233349
H152	H	0.138302	-0.106467	0.266651
H153	H	-0.607412	-0.912529	-0.571216
H154	H	-0.107412	-0.412529	-0.071216
H155	H	-0.311459	-0.411004	-0.201109
H156	H	0.188541	0.088996	0.298891
Cl157	Cl	-0.331774	-1.090183	-0.713795
Cl158	Cl	0.168226	-0.590183	-0.213795
Cl159	Cl	-0.815393	-1.204864	-0.099466
Cl160	Cl	-0.315393	-0.704864	0.400534
H161	H	-0.319807	-0.277435	-0.206486
H162	H	0.180193	0.222565	0.293514
Cl163	Cl	-0.279441	-1.123831	-0.876651
Cl164	Cl	0.220559	-0.623831	-0.376651
Cl165	Cl	-1.063047	-1.204962	-0.099508
Cl166	Cl	-0.563047	-0.704962	0.400492
