data_functionalizedCrystal
_audit_creation_method	'MofGen! by Chris Wilmer'
_symmetry_space_group_name_H-M	'P1'
_symmetry_Int_Tables_number	1
_symmetry_cell_setting	triclinic
loop_
_symmetry_equiv_pos_as_xyz
  x,y,z
_cell_length_a	14.519709
_cell_length_b	14.971486
_cell_length_c	14.048226
_cell_angle_alpha	90.006640
_cell_angle_beta	89.999158
_cell_angle_gamma	96.352863
loop_
_atom_site_label
_atom_site_type_symbol
_atom_site_fract_x
_atom_site_fract_y
_atom_site_fract_z
O1	O	1.223800	-0.117253	-0.079037
O2	O	0.955315	-0.131060	-0.079066
O3	O	1.096753	0.006039	-0.079044
O4	O	1.082361	-0.254353	-0.079059
O5	O	1.096736	0.006048	0.079277
O6	O	0.955298	-0.131052	0.079255
O7	O	1.223783	-0.117245	0.079284
Zn8	Zn	1.089538	-0.124147	0.104407
Zn9	Zn	1.089560	-0.124158	-0.104189
O10	O	1.082344	-0.254344	0.079262
C11	C	0.920947	-0.130413	0.000091
C12	C	0.818567	-0.128485	0.000080
C13	C	1.096101	0.039369	0.000116
C14	C	1.094172	0.138667	0.000115
N15	N	1.089529	-0.124139	0.246767
C16	C	0.443675	-0.121386	0.000123
C17	C	0.547982	-0.123357	0.000111
C18	C	0.631118	-0.124935	0.000101
C19	C	0.735431	-0.126907	0.000090
C20	C	1.258151	-0.117892	0.000125
C21	C	1.360531	-0.119820	0.000130
C22	C	1.082996	-0.287674	0.000100
C23	C	1.084925	-0.386972	0.000094
C24	C	1.177264	0.195845	0.000125
C25	C	1.175446	0.289146	0.000115
C26	C	1.090536	0.325266	0.000102
C27	C	1.007438	0.268080	0.000090
C28	C	1.009257	0.174781	0.000093
C29	C	1.003653	0.462545	0.000086
C30	C	1.001834	0.555850	0.000085
C31	C	1.169842	0.576909	0.000108
C32	C	1.171661	0.483610	0.000111
C33	C	1.088563	0.426431	0.000100
N34	N	1.089576	-0.124159	-0.246549
C35	C	1.152178	-0.063457	0.296595
C36	C	1.152184	-0.063456	0.396253
C37	C	1.089545	-0.124143	0.446081
C38	C	1.026890	-0.184829	0.396246
C39	C	1.026880	-0.184824	0.296590
C40	C	1.026916	-0.184835	0.603960
C41	C	1.026927	-0.184841	0.703623
C42	C	1.152220	-0.063467	0.703623
C43	C	1.152211	-0.063463	0.603967
C44	C	1.089556	-0.124150	0.554139
H45	H	1.246407	0.166444	0.000141
H46	H	1.203197	-0.014043	0.436822
O47	O	0.965934	-0.243651	0.248142
C48	C	0.909001	-0.195620	0.190496
H49	H	0.907375	-0.125077	0.220543
H50	H	0.835741	-0.231954	0.189368
H51	H	0.937850	-0.190991	0.114966
O52	O	1.212935	-0.004363	0.248261
C53	C	1.197843	0.084199	0.272681
H54	H	1.124004	0.084770	0.300070
H55	H	1.208403	0.129095	0.207170
H56	H	1.248917	0.110346	0.330546
O57	O	1.212991	-0.004544	0.752168
C58	C	1.199583	-0.017569	0.850811
H59	H	1.126301	-0.050838	0.864426
H60	H	1.209779	0.050147	0.888693
H61	H	1.251826	-0.062548	0.879080
H62	H	1.203220	-0.014051	0.563397
O63	O	0.924875	0.303016	0.000032
C64	C	0.851926	0.232538	0.000045
H65	H	0.877854	0.169116	-0.029923
H66	H	0.792657	0.252123	-0.045930
H67	H	0.826279	0.219385	0.075996
O68	O	0.922872	0.407089	-0.000052
C69	C	0.871341	0.423452	-0.082065
H70	H	0.893906	0.494184	-0.109402
H71	H	0.794430	0.417008	-0.063631
H72	H	0.884017	0.372395	-0.139479
H73	H	1.240802	0.454205	0.000128
O74	O	0.965949	-0.243811	0.444498
C75	C	0.910664	-0.297383	0.379145
H76	H	0.909580	-0.260705	0.308114
H77	H	0.837034	-0.310865	0.407945
H78	H	0.940669	-0.363898	0.368531
O79	O	1.250480	0.632576	0.000066
C80	C	1.230672	0.722670	0.000076
H81	H	1.158233	0.726356	-0.029907
H82	H	1.283634	0.764844	-0.045889
H83	H	1.234131	0.749661	0.076027
O84	O	1.256224	0.344594	0.000002
C85	C	1.307775	0.328202	-0.081994
H86	H	1.285209	0.257464	-0.109331
H87	H	1.384681	0.334641	-0.063537
H88	H	1.295123	0.379246	-0.139416
O89	O	0.919413	0.591048	-0.000062
C90	C	0.913352	0.644363	-0.082071
H91	H	0.986022	0.667472	-0.109390
H92	H	0.876527	0.705521	-0.063638
H93	H	0.872606	0.603210	-0.139497
O94	O	0.928627	0.119107	0.000044
C95	C	0.948439	0.029015	0.000071
H96	H	1.020884	0.025322	-0.029892
H97	H	0.895488	-0.013175	-0.045901
H98	H	0.944963	0.002047	0.076025
O99	O	0.965979	-0.243812	0.751880
C100	C	0.910681	-0.297380	0.686534
H101	H	0.909605	-0.260709	0.615498
H102	H	0.837051	-0.310843	0.715336
H103	H	0.940670	-0.363905	0.675927
O104	O	0.966182	-0.243824	0.555450
C105	C	1.015624	-0.299124	0.497807
H106	H	1.087746	-0.263652	0.482877
H107	H	0.977143	-0.313188	0.427730
H108	H	1.021963	-0.365247	0.536200
