data_functionalizedCrystal
_audit_creation_method	'MofGen! by Chris Wilmer'
_symmetry_space_group_name_H-M	'P1'
_symmetry_Int_Tables_number	1
_symmetry_cell_setting	triclinic
loop_
_symmetry_equiv_pos_as_xyz
  x,y,z
_cell_length_a	14.519731
_cell_length_b	14.519709
_cell_length_c	12.996460
_cell_angle_alpha	89.999966
_cell_angle_beta	89.992872
_cell_angle_gamma	96.315501
loop_
_atom_site_label
_atom_site_type_symbol
_atom_site_fract_x
_atom_site_fract_y
_atom_site_fract_z
O1	O	0.120892	-1.223878	-0.085435
O2	O	0.454225	-0.890545	0.247898
O3	O	0.787558	-0.557211	0.581231
O4	O	0.135128	-0.955402	-0.085467
O5	O	0.468461	-0.622069	0.247866
O6	O	0.801795	-0.288736	0.581200
O7	O	-0.006227	-1.096748	-0.085441
O8	O	0.327106	-0.763415	0.247892
O9	O	0.660439	-0.430081	0.581226
O10	O	0.262247	-1.082532	-0.085461
O11	O	0.595580	-0.749199	0.247872
O12	O	0.928914	-0.415865	0.581205
O13	O	-0.006235	-1.096733	0.085693
O14	O	0.327098	-0.763400	0.419026
O15	O	0.660432	-0.430067	0.752360
O16	O	0.135120	-0.955387	0.085667
O17	O	0.468454	-0.622054	0.419000
O18	O	0.801787	-0.288721	0.752334
O19	O	0.120884	-1.223863	0.085699
O20	O	0.454217	-0.890530	0.419032
O21	O	0.787551	-0.557197	0.752365
Cu22	Cu	0.128001	-1.089624	0.101309
Cu23	Cu	0.461335	-0.756291	0.434642
Cu24	Cu	0.794668	-0.422957	0.767975
Cu25	Cu	0.128011	-1.089641	-0.101077
Cu26	Cu	0.461344	-0.756308	0.232256
Cu27	Cu	0.794677	-0.422975	0.565590
O28	O	0.262239	-1.082517	0.085673
O29	O	0.595573	-0.749184	0.419006
O30	O	0.928906	-0.415851	0.752339
C31	C	-0.040591	-1.096075	0.000126
C32	C	0.292743	-0.762741	0.333460
C33	C	0.626076	-0.429408	0.666793
C34	C	-0.142971	-1.094079	0.000127
C35	C	0.190363	-0.760745	0.333460
C36	C	0.523696	-0.427412	0.666793
C37	C	0.134461	-0.921035	0.000096
C38	C	0.467794	-0.587702	0.333429
C39	C	0.801127	-0.254368	0.666763
C40	C	0.132473	-0.818654	0.000084
C41	C	0.465806	-0.485320	0.333418
C42	C	0.799139	-0.151987	0.666751
N43	N	0.127994	-1.089618	0.243656
N44	N	0.461328	-0.756285	0.576989
N45	N	0.794661	-0.422952	0.910322
C46	C	-0.226115	-1.092457	0.000124
C47	C	0.107218	-0.759123	0.333457
C48	C	0.440552	-0.425790	0.666791
C49	C	-0.330424	-1.090430	0.000116
C50	C	0.002910	-0.757097	0.333449
C51	C	0.336243	-0.423763	0.666783
C52	C	-0.413563	-1.088822	0.000109
C53	C	-0.080229	-0.755488	0.333442
C54	C	0.253104	-0.422155	0.666776
C55	C	-0.517878	-1.086795	0.000103
C56	C	-0.184545	-0.753462	0.333436
C57	C	0.148789	-0.420129	0.666770
C58	C	0.296603	-1.083191	0.000103
C59	C	0.629936	-0.749858	0.333437
C60	C	0.963269	-0.416524	0.666770
C61	C	0.398983	-1.085187	0.000096
C62	C	0.732316	-0.751854	0.333429
C63	C	1.065649	-0.418520	0.666763
C64	C	0.121551	-1.258230	0.000133
C65	C	0.454885	-0.924897	0.333467
C66	C	0.788218	-0.591564	0.666800
C67	C	0.123539	-1.360612	0.000138
C68	C	0.456873	-1.027279	0.333472
C69	C	0.790206	-0.693945	0.666805
C70	C	0.125153	-0.443757	0.000132
C71	C	0.458486	-0.110424	0.333465
C72	C	0.791820	0.222909	0.666798
C73	C	0.127186	-0.548065	0.000118
C74	C	0.460519	-0.214732	0.333451
C75	C	0.793852	0.118601	0.666785
C76	C	0.128813	-0.631202	0.000107
C77	C	0.462146	-0.297869	0.333440
C78	C	0.795479	0.035465	0.666774
C79	C	0.130846	-0.735517	0.000095
C80	C	0.464179	-0.402183	0.333429
C81	C	0.797512	-0.068850	0.666762
N82	N	0.128010	-1.089654	-0.243424
N83	N	0.461344	-0.756321	0.089909
N84	N	0.794677	-0.422988	0.423243
C85	C	0.128012	-1.089640	0.663470
C86	C	0.461345	-0.756307	0.996803
C87	C	0.794678	-0.422973	1.330137
C88	C	0.128010	-1.089631	0.546665
C89	C	0.461343	-0.756298	0.879998
C90	C	0.794677	-0.422965	1.213332
C91	C	0.128004	-1.089630	0.453567
C92	C	0.461337	-0.756296	0.786900
C93	C	0.794670	-0.422963	1.120233
C94	C	0.128001	-1.089620	0.336754
C95	C	0.461334	-0.756287	0.670087
C96	C	0.794667	-0.422953	1.003421
