data_functionalizedCrystal
_audit_creation_method	'MofGen! by Chris Wilmer'
_symmetry_space_group_name_H-M	'P1'
_symmetry_Int_Tables_number	1
_symmetry_cell_setting	triclinic
loop_
_symmetry_equiv_pos_as_xyz
  x,y,z
_cell_length_a	21.295419
_cell_length_b	25.639240
_cell_length_c	21.295412
_cell_angle_alpha	89.964267
_cell_angle_beta	89.976510
_cell_angle_gamma	90.047559
loop_
_atom_site_label
_atom_site_type_symbol
_atom_site_fract_x
_atom_site_fract_y
_atom_site_fract_z
Zn1	Zn	0.962339	-0.207957	-0.355889
Zn2	Zn	1.212339	0.042043	-0.105889
Zn3	Zn	1.462339	0.292043	0.144111
Zn4	Zn	1.712339	0.542043	0.394111
Zn5	Zn	0.962239	-0.295391	-0.250605
Zn6	Zn	1.212239	-0.045391	-0.000605
Zn7	Zn	1.462239	0.204609	0.249395
Zn8	Zn	1.712239	0.454609	0.499395
Zn9	Zn	0.857064	-0.207994	-0.250634
Zn10	Zn	1.107064	0.042006	-0.000634
Zn11	Zn	1.357064	0.292006	0.249366
Zn12	Zn	1.607064	0.542006	0.499366
Zn13	Zn	0.857028	-0.295386	-0.355837
Zn14	Zn	1.107028	-0.045386	-0.105837
Zn15	Zn	1.357028	0.204614	0.144163
Zn16	Zn	1.607028	0.454614	0.394163
O17	O	0.909668	-0.251682	-0.303241
O18	O	1.159668	-0.001682	-0.053241
O19	O	1.409668	0.248318	0.196759
O20	O	1.659668	0.498318	0.446759
O21	O	1.050415	-0.219542	-0.341933
O22	O	1.300415	0.030458	-0.091933
O23	O	1.550415	0.280458	0.158067
O24	O	1.800415	0.530458	0.408067
O25	O	0.948261	-0.283815	-0.162520
O26	O	1.198261	-0.033815	0.087480
O27	O	1.448261	0.216185	0.337480
O28	O	1.698261	0.466185	0.587480
O29	O	0.871086	-0.134824	-0.264630
O30	O	1.121086	0.115176	-0.014630
O31	O	1.371086	0.365176	0.235370
O32	O	1.621086	0.615176	0.485370
O33	O	1.050342	-0.283780	-0.264581
O34	O	1.300342	-0.033780	-0.014581
O35	O	1.550342	0.216220	0.235419
O36	O	1.800342	0.466220	0.485419
O37	O	0.948431	-0.134797	-0.341961
O38	O	1.198431	0.115203	-0.091961
O39	O	1.448431	0.365203	0.158039
O40	O	1.698431	0.615203	0.408039
O41	O	0.870990	-0.219605	-0.162541
O42	O	1.120990	0.030395	0.087459
O43	O	1.370990	0.280395	0.337459
O44	O	1.620990	0.530395	0.587459
O45	O	0.768970	-0.219600	-0.264580
O46	O	1.018970	0.030400	-0.014580
O47	O	1.268970	0.280400	0.235420
O48	O	1.518970	0.530400	0.485420
O49	O	0.871024	-0.283771	-0.443933
O50	O	1.121024	-0.033771	-0.193933
O51	O	1.371024	0.216229	0.056067
O52	O	1.621024	0.466229	0.306067
O53	O	0.768943	-0.283807	-0.341872
O54	O	1.018943	-0.033807	-0.091872
O55	O	1.268943	0.216193	0.158128
O56	O	1.518943	0.466193	0.408128
O57	O	0.948396	-0.219537	-0.443972
O58	O	1.198396	0.030463	-0.193972
O59	O	1.448396	0.280463	0.056028
O60	O	1.698396	0.530463	0.306028
O61	O	0.948226	-0.368556	-0.264530
O62	O	1.198226	-0.118556	-0.014530
O63	O	1.448226	0.131444	0.235470
O64	O	1.698226	0.381444	0.485470
O65	O	0.870927	-0.368552	-0.341844
O66	O	1.120927	-0.118552	-0.091844
O67	O	1.370927	0.131448	0.158156
O68	O	1.620927	0.381448	0.408156
C69	C	0.746116	-0.251707	-0.303224
C70	C	0.996116	-0.001707	-0.053224
C71	C	1.246116	0.248293	0.196776
C72	C	1.496116	0.498293	0.446776
C73	C	0.676148	-0.251731	-0.303231
C74	C	0.926148	-0.001731	-0.053231
C75	C	1.176148	0.248269	0.196769
C76	C	1.426148	0.498269	0.446769
C77	C	0.643342	-0.218337	-0.343570
C78	C	0.893342	0.031663	-0.093570
C79	C	1.143342	0.281663	0.156430
C80	C	1.393342	0.531663	0.406430
C81	C	0.577599	-0.218323	-0.343573
C82	C	0.827599	0.031677	-0.093573
C83	C	1.077599	0.281677	0.156427
C84	C	1.327599	0.531677	0.406427
C85	C	0.544665	-0.251712	-0.303242
C86	C	0.794665	-0.001712	-0.053242
C87	C	1.044665	0.248288	0.196758
C88	C	1.294665	0.498288	0.446758
C89	C	0.577479	-0.285108	-0.262895
C90	C	0.827479	-0.035108	-0.012895
C91	C	1.077479	0.214892	0.237105
C92	C	1.327479	0.464892	0.487105
C93	C	0.643221	-0.285117	-0.262890
C94	C	0.893221	-0.035117	-0.012890
C95	C	1.143221	0.214883	0.237110
C96	C	1.393221	0.464883	0.487110
N97	N	0.441388	-0.297459	-0.298318
N98	N	0.691388	-0.047459	-0.048318
N99	N	0.941388	0.202541	0.201682
N100	N	1.191388	0.452541	0.451682
N101	N	0.378936	-0.297448	-0.298327
N102	N	0.628936	-0.047448	-0.048327
N103	N	0.878936	0.202552	0.201673
N104	N	1.128936	0.452552	0.451673
C105	C	0.346591	-0.251685	-0.303256
C106	C	0.596591	-0.001685	-0.053256
C107	C	0.846591	0.248315	0.196744
C108	C	1.096591	0.498315	0.446744
N109	N	0.379056	-0.205931	-0.308189
N110	N	0.629056	0.044069	-0.058189
N111	N	0.879056	0.294069	0.191811
N112	N	1.129056	0.544069	0.441811
N113	N	0.441513	-0.205942	-0.308183
N114	N	0.691513	0.044058	-0.058183
N115	N	0.941513	0.294058	0.191817
N116	N	1.191513	0.544058	0.441817
C117	C	0.473380	-0.251705	-0.303244
C118	C	0.723380	-0.001705	-0.053244
C119	C	0.973380	0.248295	0.196756
C120	C	1.223380	0.498295	0.446756
C121	C	0.242499	-0.218273	-0.343600
C122	C	0.492499	0.031727	-0.093600
C123	C	0.742499	0.281727	0.156400
C124	C	0.992499	0.531727	0.406400
C125	C	0.176755	-0.218258	-0.343598
C126	C	0.426755	0.031742	-0.093598
C127	C	0.676755	0.281742	0.156402
C128	C	0.926755	0.531742	0.406402
C129	C	0.176637	-0.285048	-0.262924
C130	C	0.426637	-0.035048	-0.012924
C131	C	0.676637	0.214952	0.237076
C132	C	0.926637	0.464952	0.487076
C133	C	0.242379	-0.285058	-0.262923
C134	C	0.492379	-0.035058	-0.012923
C135	C	0.742379	0.214942	0.237077
C136	C	0.992379	0.464942	0.487077
C137	C	0.275306	-0.251671	-0.303264
C138	C	0.525306	-0.001671	-0.053264
C139	C	0.775306	0.248329	0.196736
C140	C	1.025306	0.498329	0.446736
C141	C	0.909579	-0.387525	-0.303192
C142	C	1.159579	-0.137525	-0.053192
C143	C	1.409579	0.112475	0.196808
C144	C	1.659579	0.362475	0.446808
C145	C	0.909598	-0.445639	-0.303192
C146	C	1.159598	-0.195639	-0.053192
C147	C	1.409598	0.054361	0.196808
C148	C	1.659598	0.304361	0.446808
C149	C	0.949961	-0.805949	-0.343580
C150	C	1.199961	-0.555949	-0.093580
C151	C	1.449961	-0.305949	0.156420
C152	C	1.699961	-0.055949	0.406420
C153	C	0.949980	-0.860554	-0.343593
C154	C	1.199980	-0.610554	-0.093593
C155	C	1.449980	-0.360554	0.156407
C156	C	1.699980	-0.110554	0.406407
O157	O	0.984192	-0.888746	-0.377881
O158	O	1.234192	-0.638746	-0.127881
O159	O	1.484192	-0.388746	0.122119
O160	O	1.734192	-0.138746	0.372119
N161	N	0.909755	-0.887921	-0.303302
N162	N	1.159755	-0.637921	-0.053302
N163	N	1.409755	-0.387921	0.196698
N164	N	1.659755	-0.137921	0.446698
C165	C	0.869505	-0.860682	-0.263001
C166	C	1.119505	-0.610682	-0.013001
C167	C	1.369505	-0.360682	0.236999
C168	C	1.619505	-0.110682	0.486999
O169	O	0.835292	-0.888974	-0.228732
O170	O	1.085292	-0.638974	0.021268
O171	O	1.335292	-0.388974	0.271268
O172	O	1.585292	-0.138974	0.521268
C173	C	0.869483	-0.806078	-0.262992
C174	C	1.119483	-0.556078	-0.012992
C175	C	1.369483	-0.306078	0.237008
C176	C	1.619483	-0.056078	0.487008
C177	C	0.909715	-0.778714	-0.303280
C178	C	1.159715	-0.528714	-0.053280
C179	C	1.409715	-0.278714	0.196720
C180	C	1.659715	-0.028714	0.446720
C181	C	0.990189	-0.778584	-0.383866
C182	C	1.240189	-0.528584	-0.133866
C183	C	1.490189	-0.278584	0.116134
C184	C	1.740189	-0.028584	0.366134
C185	C	0.990171	-0.723984	-0.383852
C186	C	1.240171	-0.473984	-0.133852
C187	C	1.490171	-0.223984	0.116148
C188	C	1.740171	0.026016	0.366148
C189	C	0.949925	-0.696748	-0.343552
C190	C	1.199925	-0.446748	-0.093552
C191	C	1.449925	-0.196748	0.156448
C192	C	1.699925	0.053252	0.406448
C193	C	0.909697	-0.724113	-0.303266
C194	C	1.159697	-0.474113	-0.053266
C195	C	1.409697	-0.224113	0.196734
C196	C	1.659697	0.025887	0.446734
C197	C	0.829230	-0.778840	-0.222694
C198	C	1.079230	-0.528840	0.027306
C199	C	1.329230	-0.278840	0.277306
C200	C	1.579230	-0.028840	0.527306
C201	C	0.829212	-0.724233	-0.222688
C202	C	1.079212	-0.474233	0.027312
C203	C	1.329212	-0.224233	0.277312
C204	C	1.579212	0.025767	0.527312
C205	C	0.869444	-0.696868	-0.262977
C206	C	1.119444	-0.446868	-0.012977
C207	C	1.369444	-0.196868	0.237023
C208	C	1.619444	0.053132	0.487023
C209	C	0.869433	-0.642277	-0.262953
C210	C	1.119433	-0.392277	-0.012953
C211	C	1.369433	-0.142277	0.237047
C212	C	1.619433	0.107723	0.487047
N213	N	0.909658	-0.614909	-0.303243
N214	N	1.159658	-0.364909	-0.053243
N215	N	1.409658	-0.114909	0.196757
N216	N	1.659658	0.135091	0.446757
C217	C	0.949904	-0.642145	-0.343543
C218	C	1.199904	-0.392145	-0.093543
C219	C	1.449904	-0.142145	0.156457
C220	C	1.699904	0.107855	0.406457
C221	C	0.869551	-0.975352	-0.263024
C222	C	1.119551	-0.725352	-0.013024
C223	C	1.369551	-0.475352	0.236976
C224	C	1.619551	-0.225352	0.486976
C225	C	0.869575	-1.029955	-0.263029
C226	C	1.119575	-0.779955	-0.013029
C227	C	1.369575	-0.529955	0.236971
C228	C	1.619575	-0.279955	0.486971
C229	C	0.950050	-1.029823	-0.343622
C230	C	1.200050	-0.779823	-0.093622
C231	C	1.450050	-0.529823	0.156378
C232	C	1.700050	-0.279823	0.406378
C233	C	0.950029	-0.975219	-0.343613
C234	C	1.200029	-0.725219	-0.093613
C235	C	1.450029	-0.475219	0.156387
C236	C	1.700029	-0.225219	0.406387
C237	C	0.909776	-0.947985	-0.303314
C238	C	1.159776	-0.697985	-0.053314
C239	C	1.409776	-0.447985	0.196686
C240	C	1.659776	-0.197985	0.446686
C241	C	0.949864	-0.527480	-0.343511
C242	C	1.199864	-0.277480	-0.093511
C243	C	1.449864	-0.027480	0.156489
C244	C	1.699864	0.222520	0.406489
C245	C	0.949844	-0.472875	-0.343492
C246	C	1.199844	-0.222875	-0.093492
C247	C	1.449844	0.027125	0.156508
C248	C	1.699844	0.277125	0.406508
C249	C	0.869368	-0.473011	-0.262901
C250	C	1.119368	-0.223011	-0.012901
C251	C	1.369368	0.026989	0.237099
C252	C	1.619368	0.276989	0.487099
C253	C	0.869389	-0.527612	-0.262918
C254	C	1.119389	-0.277612	-0.012918
C255	C	1.369389	-0.027612	0.237082
C256	C	1.619389	0.222388	0.487082
C257	C	0.909640	-0.554845	-0.303228
C258	C	1.159640	-0.304845	-0.053228
C259	C	1.409640	-0.054845	0.196772
C260	C	1.659640	0.195155	0.446772
O261	O	0.835237	-0.614050	-0.228684
O262	O	1.085237	-0.364050	0.021316
O263	O	1.335237	-0.114050	0.271316
O264	O	1.585237	0.135950	0.521316
O265	O	0.984106	-0.613846	-0.377812
O266	O	1.234106	-0.363846	-0.127812
O267	O	1.484106	-0.113846	0.122188
O268	O	1.734106	0.136154	0.372188
C269	C	1.073858	-0.251657	-0.303259
C270	C	1.323858	-0.001657	-0.053259
C271	C	1.573858	0.248343	0.196741
C272	C	1.823858	0.498343	0.446741
C273	C	1.143826	-0.251647	-0.303267
C274	C	1.393826	-0.001647	-0.053267
C275	C	1.643826	0.248353	0.196733
C276	C	1.893826	0.498353	0.446733
C277	C	0.909717	-0.251650	-0.467432
C278	C	1.159717	-0.001650	-0.217432
C279	C	1.409717	0.248350	0.032568
C280	C	1.659717	0.498350	0.282568
C281	C	0.909738	-0.251636	-0.537400
C282	C	1.159738	-0.001636	-0.287400
C283	C	1.409738	0.248364	-0.037400
C284	C	1.659738	0.498364	0.212600
C285	C	0.909774	-0.115309	-0.303305
C286	C	1.159774	0.134691	-0.053305
C287	C	1.409774	0.384691	0.196695
C288	C	1.659774	0.634691	0.446695
C289	C	0.909819	-0.057195	-0.303332
C290	C	1.159819	0.192805	-0.053332
C291	C	1.409819	0.442805	0.196668
C292	C	1.659819	0.692805	0.446668
C293	C	0.869513	-0.218198	-0.570268
C294	C	1.119513	0.031802	-0.320268
C295	C	1.369513	0.281802	-0.070268
C296	C	1.619513	0.531802	0.179732
C297	C	0.869511	-0.218188	-0.636010
C298	C	1.119511	0.031812	-0.386010
C299	C	1.369511	0.281812	-0.136010
C300	C	1.619511	0.531812	0.113990
C301	C	0.909745	-0.251611	-0.668882
C302	C	1.159745	-0.001611	-0.418882
C303	C	1.409745	0.248389	-0.168882
C304	C	1.659745	0.498389	0.081118
C305	C	0.949972	-0.285055	-0.636007
C306	C	1.199972	-0.035055	-0.386007
C307	C	1.449972	0.214945	-0.136007
C308	C	1.699972	0.464945	0.113993
C309	C	0.949969	-0.285068	-0.570265
C310	C	1.199969	-0.035068	-0.320265
C311	C	1.449969	0.214932	-0.070265
C312	C	1.699969	0.464932	0.179735
N313	N	0.964849	-0.255592	-0.772120
N314	N	1.214849	-0.005592	-0.522120
N315	N	1.464849	0.244408	-0.272120
N316	N	1.714849	0.494408	-0.022120
N317	N	0.964850	-0.255577	-0.834572
N318	N	1.214850	-0.005577	-0.584572
N319	N	1.464850	0.244423	-0.334572
N320	N	1.714850	0.494423	-0.084572
C321	C	0.909756	-0.251576	-0.866957
C322	C	1.159756	-0.001576	-0.616957
C323	C	1.409756	0.248424	-0.366957
C324	C	1.659756	0.498424	-0.116957
N325	N	0.854659	-0.247580	-0.834532
N326	N	1.104659	0.002420	-0.584532
N327	N	1.354659	0.252420	-0.334532
N328	N	1.604659	0.502420	-0.084532
N329	N	0.854659	-0.247592	-0.772075
N330	N	1.104659	0.002408	-0.522075
N331	N	1.354659	0.252408	-0.272075
N332	N	1.604659	0.502408	-0.022075
C333	C	0.909753	-0.251601	-0.740168
C334	C	1.159753	-0.001601	-0.490168
C335	C	1.409753	0.248399	-0.240168
C336	C	1.659753	0.498399	0.009832
C337	C	0.869526	-0.218126	-0.971111
C338	C	1.119526	0.031874	-0.721111
C339	C	1.369526	0.281874	-0.471111
C340	C	1.619526	0.531874	-0.221111
C341	C	0.869523	-0.218120	-1.036854
C342	C	1.119523	0.031880	-0.786854
C343	C	1.369523	0.281880	-0.536854
C344	C	1.619523	0.531880	-0.286854
C345	C	0.949989	-0.284984	-1.036849
C346	C	1.199989	-0.034984	-0.786849
C347	C	1.449989	0.215016	-0.536849
C348	C	1.699989	0.465016	-0.286849
C349	C	0.949987	-0.284993	-0.971107
C350	C	1.199987	-0.034993	-0.721107
C351	C	1.449987	0.215007	-0.471107
C352	C	1.699987	0.465007	-0.221107
C353	C	0.909756	-0.251561	-0.938241
C354	C	1.159756	-0.001561	-0.688241
C355	C	1.409756	0.248439	-0.438241
C356	C	1.659756	0.498439	-0.188241
C357	C	0.909655	-0.251677	-0.139690
C358	C	1.159655	-0.001677	0.110310
C359	C	1.409655	0.248323	0.360310
C360	C	1.659655	0.498323	0.610310
C361	C	0.909756	-0.251543	-0.069722
C362	C	1.159756	-0.001543	0.180278
C363	C	1.409756	0.248457	0.430278
C364	C	1.659756	0.498457	0.680278
H365	H	0.550884	-0.191127	-0.376421
H366	H	0.800884	0.058873	-0.126421
H367	H	1.050884	0.308873	0.123579
H368	H	1.300884	0.558873	0.373579
H369	H	0.982608	-0.450596	-0.376299
H370	H	1.232608	-0.200596	-0.126299
H371	H	1.482608	0.049404	0.123701
H372	H	1.732608	0.299404	0.373701
H373	H	0.550660	-0.312293	-0.230058
H374	H	0.800660	-0.062293	0.019942
H375	H	1.050660	0.187707	0.269942
H376	H	1.300660	0.437707	0.519942
H377	H	0.836756	-0.190956	-0.662776
H378	H	1.086756	0.059044	-0.412776
H379	H	1.336756	0.309044	-0.162776
H380	H	1.586756	0.559044	0.087224
H381	H	0.269090	-0.312253	-0.230077
H382	H	0.519090	-0.062253	0.019923
H383	H	0.769090	0.187747	0.269923
H384	H	1.019090	0.437747	0.519923
H385	H	0.836821	-1.052230	-0.230215
H386	H	1.086821	-0.802230	0.019785
H387	H	1.336821	-0.552230	0.269785
H388	H	1.586821	-0.302230	0.519785
H389	H	0.269310	-0.191084	-0.376445
H390	H	0.519310	0.058916	-0.126445
H391	H	0.769310	0.308916	0.123555
H392	H	1.019310	0.558916	0.373555
H393	H	0.982750	-0.312197	-1.063613
H394	H	1.232750	-0.062197	-0.813613
H395	H	1.482750	0.187803	-0.563613
H396	H	1.732750	0.437803	-0.313613
H397	H	0.982730	-0.312269	-0.662775
H398	H	1.232730	-0.062269	-0.412775
H399	H	1.482730	0.187731	-0.162775
H400	H	1.732730	0.437731	0.087225
H401	H	0.982635	-0.549647	-0.376339
H402	H	1.232635	-0.299647	-0.126339
H403	H	1.482635	-0.049647	0.123661
H404	H	1.732635	0.200353	0.373661
H405	H	0.982727	-0.312297	-0.543505
H406	H	1.232727	-0.062297	-0.293505
H407	H	1.482727	0.187703	-0.043505
H408	H	1.732727	0.437703	0.206495
H409	H	0.982744	-0.312221	-0.944346
H410	H	1.232744	-0.062221	-0.694346
H411	H	1.482744	0.187779	-0.444346
H412	H	1.732744	0.437779	-0.194346
H413	H	0.836602	-0.450827	-0.230088
H414	H	1.086602	-0.200827	0.019912
H415	H	1.336602	0.049173	0.269912
H416	H	1.586602	0.299173	0.519912
H417	H	0.836762	-0.190892	-1.063614
H418	H	1.086762	0.059108	-0.813614
H419	H	1.336762	0.309108	-0.563614
H420	H	1.586762	0.559108	-0.313614
H421	H	0.670147	-0.191150	-0.376419
H422	H	0.920147	0.058850	-0.126419
H423	H	1.170147	0.308850	0.123581
H424	H	1.420147	0.558850	0.373581
H425	H	0.669931	-0.312311	-0.230040
H426	H	0.919931	-0.062311	0.019960
H427	H	1.169931	0.187689	0.269960
H428	H	1.419931	0.437689	0.519960
H429	H	1.022930	-0.701707	-0.416660
H430	H	1.272930	-0.451707	-0.166660
H431	H	1.522930	-0.201707	0.083340
H432	H	1.772930	0.048293	0.333340
H433	H	0.836775	-0.953180	-0.230202
H434	H	1.086775	-0.703180	0.019798
H435	H	1.336775	-0.453180	0.269798
H436	H	1.586775	-0.203180	0.519798
H437	H	0.836634	-0.549893	-0.230107
H438	H	1.086634	-0.299893	0.019893
H439	H	1.336634	-0.049893	0.269893
H440	H	1.586634	0.200107	0.519893
H441	H	0.836752	-0.190977	-0.543512
H442	H	1.086752	0.059023	-0.293512
H443	H	1.336752	0.309023	-0.043512
H444	H	1.586752	0.559023	0.206488
H445	H	0.796469	-0.801111	-0.189886
H446	H	1.046469	-0.551111	0.060114
H447	H	1.296469	-0.301111	0.310114
H448	H	1.546469	-0.051111	0.560114
H449	H	0.150046	-0.191062	-0.376446
H450	H	0.400046	0.058938	-0.126446
H451	H	0.650046	0.308938	0.123554
H452	H	0.900046	0.558938	0.373554
H453	H	0.982820	-1.052008	-0.376437
H454	H	1.232820	-0.802008	-0.126437
H455	H	1.482820	-0.552008	0.123563
H456	H	1.732820	-0.302008	0.373563
H457	H	0.796431	-0.702061	-0.189873
H458	H	1.046431	-0.452061	0.060127
H459	H	1.296431	-0.202061	0.310127
H460	H	1.546431	0.047939	0.560127
H461	H	0.149822	-0.312234	-0.230087
H462	H	0.399822	-0.062234	0.019913
H463	H	0.649822	0.187766	0.269913
H464	H	0.899822	0.437766	0.519913
H465	H	0.836767	-0.190904	-0.944350
H466	H	1.086767	0.059096	-0.694350
H467	H	1.336767	0.309096	-0.444350
H468	H	1.586767	0.559096	-0.194350
H469	H	1.022962	-0.800754	-0.416686
H470	H	1.272962	-0.550754	-0.166686
H471	H	1.522962	-0.300754	0.083314
H472	H	1.772962	-0.050754	0.333314
H473	H	0.982789	-0.952942	-0.376420
H474	H	1.232789	-0.702942	-0.126420
H475	H	1.482789	-0.452942	0.123580
H476	H	1.732789	-0.202942	0.373580
