data_functionalizedCrystal
_audit_creation_method	'MofGen! by Chris Wilmer'
_symmetry_space_group_name_H-M	'P1'
_symmetry_Int_Tables_number	1
_symmetry_cell_setting	triclinic
loop_
_symmetry_equiv_pos_as_xyz
  x,y,z
_cell_length_a	29.839131
_cell_length_b	21.395364
_cell_length_c	21.395355
_cell_angle_alpha	90.024552
_cell_angle_beta	90.020172
_cell_angle_gamma	90.056371
loop_
_atom_site_label
_atom_site_type_symbol
_atom_site_fract_x
_atom_site_fract_y
_atom_site_fract_z
Zn1	Zn	-0.178726	0.957813	0.354254
Zn2	Zn	-0.253841	0.957696	0.249474
Zn3	Zn	-0.178746	0.853028	0.249491
Zn4	Zn	-0.253849	0.852977	0.354214
O5	O	-0.216291	0.905378	0.301858
O6	O	-0.188679	1.045475	0.340365
O7	O	-0.243885	0.943783	0.161798
O8	O	-0.115876	0.866998	0.263412
O9	O	-0.243866	1.045389	0.263383
O10	O	-0.115862	0.943983	0.340381
O11	O	-0.188712	0.866884	0.161811
O12	O	-0.188720	0.765343	0.263373
O13	O	-0.243879	0.866912	0.441897
O14	O	-0.243898	0.765306	0.340313
O15	O	-0.188687	0.943934	0.441927
O16	O	-0.316710	0.943734	0.263344
O17	O	-0.316716	0.866798	0.340296
C18	C	-0.216313	0.742591	0.301841
C19	C	-0.216333	0.672949	0.301848
C20	C	-0.187644	0.640303	0.341994
C21	C	-0.187632	0.574868	0.341997
C22	C	-0.216317	0.542081	0.301859
C23	C	-0.245008	0.574735	0.261705
C24	C	-0.245016	0.640169	0.261699
C25	C	-0.256775	0.438346	0.296820
C26	C	-0.256768	0.372913	0.296830
C27	C	-0.216292	0.340260	0.301873
C28	C	-0.175823	0.373048	0.306919
C29	C	-0.175831	0.438483	0.306914
C30	C	-0.216311	0.471129	0.301861
C31	C	-0.187588	0.236662	0.342024
C32	C	-0.187575	0.171225	0.342022
C33	C	-0.244955	0.171093	0.261734
C34	C	-0.244964	0.236529	0.261733
C35	C	-0.216281	0.269309	0.301881
C36	C	-0.333013	0.905265	0.301827
C37	C	-0.382948	0.905274	0.301835
C38	C	-0.692575	0.945512	0.261848
C39	C	-0.880248	0.945589	0.261872
O40	O	-0.904500	0.979711	0.227850
N41	N	-0.903733	0.905508	0.301905
C42	C	-0.880296	0.865408	0.341939
O43	O	-0.904577	0.831323	0.375994
C44	C	-0.692624	0.865334	0.341917
C45	C	-0.669142	0.905413	0.301876
C46	C	-0.669093	0.985588	0.221811
C47	C	-0.622178	0.985566	0.221803
C48	C	-0.598744	0.945467	0.261832
C49	C	-0.622226	0.905391	0.301868
C50	C	-0.669188	0.825238	0.381953
C51	C	-0.622267	0.825224	0.381945
C52	C	-0.598785	0.865303	0.341904
C53	C	-0.551878	0.865271	0.341889
N54	N	-0.528393	0.905351	0.301856
C55	C	-0.551827	0.945450	0.261827
C56	C	-0.978827	0.865449	0.341946
C57	C	-1.025744	0.865466	0.341951
C58	C	-1.025694	0.945648	0.261885
C59	C	-0.978775	0.945627	0.261878
C60	C	-0.955342	0.905530	0.301913
C61	C	-0.453301	0.945400	0.261813
C62	C	-0.406381	0.945372	0.261806
C63	C	-0.406436	0.865193	0.341874
C64	C	-0.453352	0.865218	0.341878
C65	C	-0.476783	0.905326	0.301845
O66	O	-0.527597	0.831172	0.375898
O67	O	-0.527537	0.979540	0.227786
C68	C	-0.739491	0.945534	0.261856
C69	C	-0.762973	0.905458	0.301893
C70	C	-0.739539	0.865359	0.341921
C71	C	-0.809891	0.905475	0.301897
C72	C	-0.833324	0.945574	0.261869
C73	C	-0.809840	0.985654	0.221835
C74	C	-0.762924	0.985632	0.221827
C75	C	-0.763024	0.825278	0.381955
C76	C	-0.809939	0.825303	0.381959
C77	C	-0.833373	0.865402	0.341930
C78	C	-0.099112	0.905509	0.301903
C79	C	-0.049178	0.905565	0.301922
C80	C	-0.216269	1.068802	0.301876
C81	C	-0.216260	1.138443	0.301884
C82	C	-0.216282	0.905430	0.465282
C83	C	-0.216278	0.905452	0.534923
C84	C	-0.216267	0.905362	0.139071
C85	C	-0.216145	0.905462	0.069430
C86	C	-0.187538	0.945556	0.567652
C87	C	-0.187518	0.945555	0.633088
C88	C	-0.216247	0.905457	0.665791
C89	C	-0.244989	0.865346	0.633054
C90	C	-0.245005	0.865343	0.567620
C91	C	-0.256699	0.900471	0.769455
C92	C	-0.256685	0.900478	0.834888
C93	C	-0.216200	0.905461	0.867612
C94	C	-0.175728	0.910451	0.834895
C95	C	-0.175743	0.910449	0.769461
C96	C	-0.216234	0.905455	0.736744
C97	C	-0.187436	0.945566	0.971294
C98	C	-0.187416	0.945561	1.036731
C99	C	-0.244891	0.865355	1.036696
C100	C	-0.244907	0.865357	0.971260
C101	C	-0.216180	0.905466	0.938563
H102	H	-0.289720	0.346222	0.292724
F103	F	-0.157116	0.675187	0.384723
H104	H	-0.164211	0.144646	0.374713
F105	F	-0.156962	0.988241	0.532858
H106	H	-0.268408	0.832683	0.540972
H107	H	-0.603190	0.792572	0.414548
F108	F	-0.275498	0.822674	0.936426
F109	F	-0.478344	0.822550	0.384482
H110	H	-0.603062	1.018203	0.189201
F111	F	-0.275481	0.136203	0.219013
F112	F	-0.299793	0.895181	0.734634
H113	H	-0.268327	0.263109	0.229044
F114	F	-0.275463	0.822674	1.071497
H115	H	-0.289737	0.464927	0.292713
F116	F	-0.737939	1.028292	0.179212
H117	H	-0.268363	0.548036	0.229025
H118	H	-0.164230	0.263353	0.374712
H119	H	-0.289639	0.896418	0.861521
H120	H	-0.164043	0.978222	0.944671
H121	H	-0.142761	0.914510	0.861537
F122	F	-0.275550	0.674914	0.218967
F123	F	-0.381393	0.988032	0.219187
F124	F	-0.275563	0.822669	0.667860
F125	F	-0.156921	0.988231	0.667928
H126	H	-0.164268	0.548282	0.374688
H127	H	-0.142864	0.346464	0.311026
F128	F	-0.132761	0.473376	0.312282
F129	F	-0.694169	0.782585	0.424575
H130	H	-0.828928	1.018302	0.189241
H131	H	-1.044781	0.978298	0.229292
F132	F	-0.381488	0.822521	0.384475
F133	F	-1.050731	0.822801	0.384560
F134	F	-0.478232	0.988088	0.219205
H135	H	-0.688168	1.018244	0.189215
H136	H	-0.829054	0.792660	0.414564
H137	H	-0.959659	0.978263	0.229274
H138	H	-0.959751	0.832795	0.374548
F139	F	-0.738090	0.782598	0.424562
H140	H	-0.142790	0.914510	0.742825
F141	F	-0.156830	0.988254	1.071564
