data_functionalizedCrystal
_audit_creation_method	'MofGen! by Chris Wilmer'
_symmetry_space_group_name_H-M	'P1'
_symmetry_Int_Tables_number	1
_symmetry_cell_setting	triclinic
loop_
_symmetry_equiv_pos_as_xyz
  x,y,z
_cell_length_a	9.065215
_cell_length_b	10.723024
_cell_length_c	8.140239
_cell_angle_alpha	89.997644
_cell_angle_beta	89.997810
_cell_angle_gamma	84.741283
loop_
_atom_site_label
_atom_site_type_symbol
_atom_site_fract_x
_atom_site_fract_y
_atom_site_fract_z
O1	O	1.959361	0.182967	-0.136590
O2	O	2.459361	0.682967	0.363410
O3	O	1.529991	0.197980	-0.136597
O4	O	2.029991	0.697980	0.363403
O5	O	1.754580	0.008937	-0.136587
O6	O	2.254580	0.508937	0.363413
O7	O	1.734772	0.372009	-0.136600
O8	O	2.234772	0.872009	0.363400
O9	O	1.754568	0.008935	0.136640
O10	O	2.254568	0.508935	0.636640
O11	O	1.529978	0.197978	0.136630
O12	O	2.029978	0.697978	0.636630
O13	O	1.959349	0.182964	0.136637
O14	O	2.459349	0.682964	0.636637
Zn15	Zn	1.744662	0.190471	0.180014
Zn16	Zn	2.244662	0.690471	0.680014
Zn17	Zn	1.744678	0.190474	-0.179974
Zn18	Zn	2.244678	0.690474	0.320026
O19	O	1.734760	0.372007	0.136628
O20	O	2.234760	0.872007	0.636628
C21	C	1.475006	0.196537	0.000016
C22	C	1.975006	0.696537	0.500016
C23	C	1.311187	0.192225	0.000013
C24	C	1.811187	0.692225	0.500013
C25	C	1.753132	-0.037569	0.000024
C26	C	2.253132	0.462431	0.500024
C27	C	1.748820	-0.176141	0.000019
C28	C	2.248820	0.323859	0.500019
C29	C	1.874488	-0.250614	0.000018
C30	C	2.374488	0.249386	0.500018
C31	C	1.870033	-0.393836	0.000012
C32	C	2.370033	0.106164	0.500012
C33	C	2.014334	0.184408	0.000021
C34	C	2.514334	0.684408	0.500021
C35	C	2.178152	0.188719	0.000013
C36	C	2.678152	0.688719	0.500013
C37	C	1.736207	0.418514	0.000012
C38	C	2.236207	0.918514	0.500012
C39	C	1.740520	0.557085	0.000007
C40	C	2.240520	1.057085	0.500007
N41	N	1.744661	0.190468	0.425697
N42	N	2.244661	0.690468	0.925697
N43	N	1.744690	0.190467	-0.425657
N44	N	2.244690	0.690467	0.074343
H45	H	1.985375	-0.208343	0.000030
H46	H	2.485375	0.291657	0.500030
O47	O	1.998247	-0.470352	-0.000063
O48	O	2.498247	0.029648	0.499937
C49	C	1.965257	-0.596316	-0.000025
C50	C	2.465257	-0.096316	0.499975
H51	H	1.849293	-0.602492	-0.051751
H52	H	2.349293	-0.102492	0.448249
H53	H	2.049388	-0.654410	-0.079353
H54	H	2.549388	-0.154410	0.420647
H55	H	1.970412	-0.633905	0.131055
H56	H	2.470412	-0.133905	0.631055
H57	H	1.632932	-0.378926	0.000019
H58	H	2.132932	0.121074	0.500019
H59	H	1.637933	-0.218413	0.000006
H60	H	2.137933	0.281587	0.500006
