data_functionalizedCrystal
_audit_creation_method	'MofGen! by Chris Wilmer'
_symmetry_space_group_name_H-M	'P1'
_symmetry_Int_Tables_number	1
_symmetry_cell_setting	triclinic
loop_
_symmetry_equiv_pos_as_xyz
  x,y,z
_cell_length_a	14.519709
_cell_length_b	15.995343
_cell_length_c	13.596369
_cell_angle_alpha	89.989290
_cell_angle_beta	90.000291
_cell_angle_gamma	83.584665
loop_
_atom_site_label
_atom_site_type_symbol
_atom_site_fract_x
_atom_site_fract_y
_atom_site_fract_z
O1	O	1.223666	0.109760	-0.081674
O2	O	0.955165	0.122686	-0.081705
O3	O	1.096759	-0.005654	-0.081671
O4	O	1.082072	0.238100	-0.081709
O5	O	1.096745	-0.005661	0.081912
O6	O	0.955151	0.122679	0.081878
O7	O	1.223652	0.109754	0.081909
Zn8	Zn	1.089399	0.116215	0.107866
Zn9	Zn	1.089418	0.116224	-0.107662
O10	O	1.082058	0.238093	0.081874
C11	C	0.920799	0.122080	0.000082
C12	C	0.818421	0.120275	0.000071
C13	C	0.443538	0.113630	0.000117
C14	C	0.547842	0.115475	0.000104
C15	C	0.630976	0.116952	0.000093
C16	C	0.735287	0.118798	0.000082
C17	C	1.096146	-0.036853	0.000123
C18	C	1.094329	-0.129807	0.000131
C19	C	1.091032	-0.299998	0.000108
C20	C	0.988823	-0.323497	0.000094
C21	C	0.986900	-0.420177	-0.000288
C22	C	1.087784	-0.467563	0.000087
C23	C	1.139185	-0.438383	-0.093133
C24	C	1.140397	-0.341589	-0.093200
C25	C	1.141877	-0.341698	0.092831
C26	C	1.138104	-0.438199	0.094045
C27	C	1.085955	-0.562264	0.000071
C28	C	1.092865	-0.205297	0.000117
C29	C	1.258017	0.110359	0.000119
C30	C	1.360395	0.112164	0.000124
C31	C	1.082671	0.269293	0.000078
C32	C	1.084487	0.362246	0.000064
N33	N	1.089393	0.116209	0.254957
N34	N	1.089431	0.116224	-0.254754
C35	C	1.089416	0.116225	0.656248
C36	C	1.089407	0.116223	0.544597
C37	C	1.089405	0.116217	0.455606
C38	C	1.089395	0.116214	0.343948
H39	H	0.946656	-0.439264	0.066516
C40	C	1.236279	-0.481916	0.102135
C41	C	1.278372	-0.453891	0.186779
C42	C	1.368811	-0.494151	0.194262
H43	H	1.270855	-0.469144	0.045850
H44	H	1.234495	-0.541014	0.106098
H45	H	1.280162	-0.394806	0.182808
H46	H	1.243823	-0.466663	0.243079
H47	H	1.367026	-0.553249	0.198225
H48	H	1.403378	-0.481376	0.137972
H49	H	1.397379	-0.475148	0.251697
H50	H	1.217107	-0.327566	0.093745
H51	H	1.103928	-0.458518	-0.162783
C52	C	1.238118	-0.480856	-0.097463
C53	C	1.237075	-0.568206	-0.101615
C54	C	1.328193	-0.607361	-0.105616
H55	H	1.270811	-0.466645	-0.040439
H56	H	1.267938	-0.462381	-0.154401
H57	H	1.207268	-0.586674	-0.044683
H58	H	1.204401	-0.582441	-0.158637
H59	H	1.358013	-0.588887	-0.162553
H60	H	1.360879	-0.593144	-0.048590
H61	H	1.327498	-0.666632	-0.108442
C62	C	1.098712	-0.304015	0.186974
C63	C	1.025623	-0.242606	0.163439
C64	C	0.985818	-0.207882	0.250131
H65	H	1.144156	-0.279096	0.223689
H66	H	1.075828	-0.347038	0.225025
H67	H	1.048508	-0.199590	0.125404
H68	H	0.980160	-0.267504	0.126736
H69	H	0.962934	-0.250905	0.288182
H70	H	1.031269	-0.182968	0.286840
H71	H	0.936218	-0.166218	0.234175
C72	C	0.933518	-0.445004	-0.089849
C73	C	0.931625	-0.532327	-0.090411
C74	C	0.882448	-0.555226	-0.172897
H75	H	0.963026	-0.428443	-0.147914
H76	H	0.871924	-0.417871	-0.087347
H77	H	0.993208	-0.559450	-0.092922
H78	H	0.902109	-0.548909	-0.032365
H79	H	0.820854	-0.528093	-0.170395
H80	H	0.911961	-0.538660	-0.230956
H81	H	0.881150	-0.614475	-0.173285
H82	H	0.949200	-0.295556	0.066935
C83	C	0.936938	-0.284771	-0.088889
C84	C	0.935460	-0.197148	-0.085439
C85	C	0.887689	-0.161449	-0.167404
H86	H	0.875221	-0.299178	-0.088432
H87	H	0.967266	-0.305578	-0.147293
H88	H	0.905129	-0.176348	-0.027050
H89	H	0.997163	-0.182718	-0.085909
H90	H	0.918017	-0.182256	-0.225809
H91	H	0.825975	-0.175861	-0.166940
H92	H	0.886687	-0.101994	-0.165079
C93	C	1.093426	-0.306081	-0.186509
C94	C	1.064231	-0.371812	-0.242297
C95	C	1.020944	-0.339138	-0.328254
H96	H	1.135954	-0.277992	-0.223810
H97	H	1.041322	-0.267425	-0.169669
H98	H	1.116328	-0.410454	-0.259139
H99	H	1.021692	-0.399907	-0.205026
H100	H	0.968840	-0.300481	-0.311413
H101	H	1.063477	-0.311049	-0.365546
H102	H	1.001122	-0.383730	-0.366112
C103	C	1.240283	-0.321870	-0.098647
C104	C	1.252462	-0.274791	-0.183549
C105	C	1.344457	-0.256604	-0.188601
H106	H	1.280593	-0.372873	-0.100833
H107	H	1.254111	-0.290449	-0.042296
H108	H	1.238644	-0.306212	-0.239885
H109	H	1.212174	-0.223779	-0.181382
H110	H	1.358285	-0.225182	-0.132250
H111	H	1.384759	-0.307610	-0.190783
H112	H	1.352731	-0.224652	-0.246201
C113	C	1.088257	-0.463195	0.185971
C114	C	1.088654	-0.550746	0.188285
C115	C	1.042745	-0.573805	0.272953
H116	H	1.026099	-0.437338	0.185219
H117	H	1.119019	-0.445315	0.242594
H118	H	1.057891	-0.568618	0.131677
H119	H	1.150800	-0.576624	0.189053
H120	H	1.073506	-0.555925	0.329576
H121	H	0.980589	-0.547943	0.272193
H122	H	1.043016	-0.633210	0.274539
