data_functionalizedCrystal
_audit_creation_method	'MofGen! by Chris Wilmer'
_symmetry_space_group_name_H-M	'P1'
_symmetry_Int_Tables_number	1
_symmetry_cell_setting	triclinic
loop_
_symmetry_equiv_pos_as_xyz
  x,y,z
_cell_length_a	21.295419
_cell_length_b	19.805407
_cell_length_c	19.805399
_cell_angle_alpha	90.017803
_cell_angle_beta	89.985581
_cell_angle_gamma	90.000967
loop_
_atom_site_label
_atom_site_type_symbol
_atom_site_fract_x
_atom_site_fract_y
_atom_site_fract_z
Zn1	Zn	0.250669	1.034852	0.382750
Zn2	Zn	0.355937	1.034815	0.269587
Zn3	Zn	0.250681	0.921666	0.269578
Zn4	Zn	0.355899	0.921679	0.382738
O5	O	0.303297	0.978253	0.326163
O6	O	0.264644	1.129564	0.367747
O7	O	0.341996	1.019786	0.174869
O8	O	0.162590	0.936691	0.284591
O9	O	0.341984	1.129537	0.284608
O10	O	0.162581	1.019848	0.367738
O11	O	0.264665	0.936656	0.174862
O12	O	0.264628	0.826952	0.284580
O13	O	0.341919	0.936712	0.477456
O14	O	0.341931	0.826961	0.367718
O15	O	0.264607	1.019860	0.477465
O16	O	0.444022	1.019798	0.284596
O17	O	0.443994	0.936677	0.367727
C18	C	0.303277	0.802397	0.326147
C19	C	0.303284	0.727165	0.326156
C20	C	0.263084	0.691836	0.369512
C21	C	0.263087	0.621147	0.369515
C22	C	0.303294	0.585790	0.326164
C23	C	0.343496	0.621124	0.282802
C24	C	0.343489	0.691811	0.282797
C25	C	0.343524	0.336051	0.282823
C26	C	0.343529	0.265359	0.282833
C27	C	0.263122	0.265387	0.369541
C28	C	0.263115	0.336074	0.369536
C29	C	0.303314	0.371402	0.326172
C30	C	0.303310	0.448051	0.326169
C31	C	0.303302	0.509142	0.326170
C32	C	0.139106	0.978272	0.326165
C33	C	0.069138	0.978280	0.326166
C34	C	0.036262	0.935003	0.369444
C35	C	-0.029481	0.935010	0.369454
C36	C	-0.062344	0.978286	0.326173
C37	C	-0.029459	1.021571	0.282891
C38	C	0.036282	1.021568	0.282888
N39	N	-0.165553	0.983468	0.266931
N40	N	-0.228004	0.983466	0.266936
C41	C	-0.260419	0.978298	0.326182
N42	N	-0.228023	0.973118	0.385423
N43	N	-0.165566	0.973115	0.385417
C44	C	-0.133630	0.978294	0.326172
C45	C	-0.364581	0.935026	0.369474
C46	C	-0.430325	0.935037	0.369485
C47	C	-0.430302	1.021595	0.282916
C48	C	-0.364560	1.021587	0.282912
C49	C	-0.331703	0.978299	0.326190
C50	C	0.466848	0.978253	0.326176
C51	C	0.536816	0.978315	0.326204
C52	C	0.303257	0.978291	0.502706
C53	C	0.303240	0.978307	0.577938
C54	C	0.303317	1.154796	0.326180
C55	C	0.303326	1.230028	0.326187
C56	C	0.303291	0.978254	0.150307
C57	C	0.303130	0.978369	0.075075
C58	C	0.262982	1.021603	0.613288
C59	C	0.262963	1.021610	0.683976
C60	C	0.303207	0.978324	0.719314
C61	C	0.343468	0.935023	0.683959
C62	C	0.343482	0.935013	0.613272
C63	C	0.343409	0.935061	0.969032
C64	C	0.343392	0.935076	1.039724
C65	C	0.262890	1.021658	1.039737
C66	C	0.262905	1.021648	0.969050
C67	C	0.303162	0.978345	0.933701
C68	C	0.303181	0.978337	0.857053
C69	C	0.303192	0.978335	0.795961
H70	H	0.376223	0.720576	0.247491
H71	H	0.376230	0.592330	0.247502
H72	H	0.063009	0.899753	0.404682
C73	C	0.387206	0.227091	0.235686
C74	C	0.422397	0.273158	0.197694
C75	C	0.462630	0.237931	0.154252
H76	H	0.414725	0.199528	0.261457
H77	H	0.363102	0.199514	0.206206
H78	H	0.446498	0.300723	0.227170
H79	H	0.394894	0.300723	0.171909
H80	H	0.438526	0.210354	0.124772
H81	H	0.490145	0.210369	0.180029
H82	H	0.486507	0.269182	0.128466
C83	C	0.219180	1.068517	0.574962
C84	C	0.156893	1.053773	0.592145
C85	C	0.116523	1.096970	0.556849
H86	H	0.228311	1.114019	0.586526
H87	H	0.224910	1.062308	0.527793
H88	H	0.151166	1.059988	0.639303
H89	H	0.147743	1.008279	0.580579
H90	H	0.122253	1.090761	0.509680
H91	H	0.125659	1.142469	0.568416
H92	H	0.074256	1.086968	0.568498
H93	H	-0.337828	0.899788	0.404723
C94	C	-0.466136	0.888123	0.416451
C95	C	-0.530743	0.897404	0.407209
C96	C	-0.563752	0.854205	0.450470
H97	H	-0.455441	0.842616	0.406580
H98	H	-0.455404	0.898041	0.461944
H99	H	-0.541471	0.887482	0.361727
H100	H	-0.541456	0.942903	0.417086
H101	H	-0.553020	0.864123	0.495962
H102	H	-0.553052	0.808700	0.440594
H103	H	-0.607591	0.860501	0.444209
C104	C	0.219392	0.374339	0.416628
C105	C	0.184174	0.328269	0.454587
C106	C	0.143881	0.363493	0.497967
H107	H	0.243434	0.401933	0.446137
H108	H	0.191897	0.401885	0.390793
H109	H	0.211665	0.300734	0.480420
H110	H	0.160119	0.300674	0.425096
H111	H	0.116386	0.391039	0.472132
H112	H	0.167928	0.391085	0.527471
H113	H	0.119976	0.332239	0.523723
C114	C	0.387211	0.374485	0.235859
C115	C	0.427592	0.415100	0.274109
C116	C	0.467843	0.450523	0.230867
H117	H	0.411218	0.343377	0.210031
H118	H	0.363114	0.402084	0.206412
H119	H	0.451687	0.387503	0.303544
H120	H	0.403603	0.446220	0.299935
H121	H	0.443746	0.478122	0.201420
H122	H	0.491845	0.419410	0.205042
H123	H	0.495242	0.478088	0.256813
C124	C	-0.065023	1.068628	0.235871
C125	C	-0.022156	1.106540	0.197978
C126	C	-0.054893	1.149905	0.154663
H127	H	-0.090665	1.042804	0.206318
H128	H	-0.090660	1.098161	0.261751
H129	H	0.003471	1.077010	0.172100
H130	H	0.003487	1.132377	0.227513
H131	H	-0.080530	1.179438	0.180542
H132	H	-0.080533	1.124076	0.125114
H133	H	-0.025812	1.175637	0.128952
C134	C	0.219268	1.068607	0.930562
C135	C	0.227905	1.059339	0.861091
C136	C	0.187716	1.102585	0.825616
H137	H	0.176948	1.058739	0.942070
H138	H	0.228479	1.114104	0.942108
H139	H	0.218690	1.013852	0.849550
H140	H	0.270217	1.069211	0.849563
H141	H	0.196927	1.148082	0.837162
H142	H	0.145398	1.092714	0.837130
H143	H	0.193575	1.096307	0.778477
C144	C	-0.466088	1.068507	0.235950
C145	C	-0.530699	1.059238	0.245204
C146	C	-0.563686	1.102438	0.201945
H147	H	-0.455388	1.114014	0.245815
H148	H	-0.455342	1.058583	0.190457
H149	H	-0.541440	1.069167	0.290687
H150	H	-0.541417	1.013740	0.235334
H151	H	-0.552941	1.092514	0.156451
H152	H	-0.552982	1.147942	0.211814
H153	H	-0.607528	1.096150	0.208213
H154	H	0.063050	1.056810	0.247645
H155	H	-0.337791	1.056825	0.247667
C156	C	0.387010	0.887970	0.930616
C157	C	0.351364	0.844577	0.890045
C158	C	0.391507	0.801180	0.854646
H159	H	0.414457	0.913775	0.902986
H160	H	0.410968	0.862151	0.961759
H161	H	0.327416	0.870393	0.858905
H162	H	0.323919	0.818756	0.917658
H163	H	0.415465	0.775360	0.885790
H164	H	0.418952	0.826990	0.827020
H165	H	0.367327	0.771728	0.827119
H166	H	0.230182	1.056868	0.712755
C167	C	0.219197	1.068594	1.078239
C168	C	0.227780	1.059327	1.147707
C169	C	0.187538	1.102546	1.183194
H170	H	0.228379	1.114096	1.066744
H171	H	0.176890	1.058685	1.066689
H172	H	0.270078	1.069240	1.159252
H173	H	0.218594	1.013834	1.159222
H174	H	0.145231	1.092637	1.171644
H175	H	0.196723	1.148045	1.171694
H176	H	0.193352	1.096259	1.230331
C177	C	-0.065073	0.887950	0.416472
C178	C	-0.022227	0.850032	0.454363
C179	C	-0.054989	0.806669	0.497678
H180	H	-0.090724	0.913775	0.446026
H181	H	-0.090702	0.858420	0.390593
H182	H	0.003392	0.879558	0.480241
H183	H	0.003426	0.824193	0.424827
H184	H	-0.080619	0.777139	0.471799
H185	H	-0.080639	0.832500	0.527228
H186	H	-0.025923	0.780933	0.523388
C187	C	0.387109	0.887999	1.077970
C188	C	0.422356	0.850059	1.031885
C189	C	0.462625	0.806682	1.067092
H190	H	0.414591	0.913815	1.105550
H191	H	0.363029	0.858483	1.105528
H192	H	0.446434	0.879571	1.004339
H193	H	0.394890	0.824230	1.004303
H194	H	0.438546	0.777166	1.094650
H195	H	0.490104	0.832503	1.094671
H196	H	0.486541	0.780931	1.035829
C197	C	0.387264	0.888065	0.722237
C198	C	0.449551	0.902781	0.705029
C199	C	0.489915	0.859532	0.740269
H200	H	0.381576	0.894230	0.769409
H201	H	0.378085	0.842576	0.710632
H202	H	0.458726	0.948260	0.716638
H203	H	0.455258	0.896612	0.657863
H204	H	0.480736	0.814043	0.728664
H205	H	0.484222	0.865701	0.787439
H206	H	0.532180	0.869507	0.728594
H207	H	0.376258	0.899750	0.584491
H208	H	0.230344	0.720619	0.404816
H209	H	0.230353	0.592385	0.404822
H210	H	0.230388	0.236614	0.404848
