data_functionalizedCrystal
_audit_creation_method	'MofGen! by Chris Wilmer'
_symmetry_space_group_name_H-M	'P1'
_symmetry_Int_Tables_number	1
_symmetry_cell_setting	triclinic
loop_
_symmetry_equiv_pos_as_xyz
  x,y,z
_cell_length_a	16.109301
_cell_length_b	14.519709
_cell_length_c	15.186229
_cell_angle_alpha	89.995307
_cell_angle_beta	89.999006
_cell_angle_gamma	83.570864
loop_
_atom_site_label
_atom_site_type_symbol
_atom_site_fract_x
_atom_site_fract_y
_atom_site_fract_z
O1	O	1.103336	0.118541	-0.073182
O2	O	1.353336	0.368541	0.176818
O3	O	1.603336	0.618541	0.426818
O4	O	1.853336	0.868541	0.676818
O5	O	0.861299	0.133293	-0.073195
O6	O	1.111299	0.383293	0.176805
O7	O	1.361299	0.633293	0.426805
O8	O	1.611299	0.883293	0.676805
O9	O	0.988735	-0.008335	-0.073180
O10	O	1.238735	0.241665	0.176820
O11	O	1.488735	0.491665	0.426820
O12	O	1.738735	0.741665	0.676820
O13	O	0.975900	0.260169	-0.073197
O14	O	1.225900	0.510169	0.176803
O15	O	1.475900	0.760169	0.426803
O16	O	1.725900	1.010169	0.676803
O17	O	0.988726	-0.008337	0.073277
O18	O	1.238726	0.241663	0.323277
O19	O	1.488726	0.491663	0.573277
O20	O	1.738726	0.741663	0.823277
O21	O	0.861291	0.133291	0.073263
O22	O	1.111291	0.383291	0.323263
O23	O	1.361291	0.633291	0.573263
O24	O	1.611291	0.883291	0.823263
O25	O	1.103327	0.118539	0.073275
O26	O	1.353327	0.368539	0.323275
O27	O	1.603327	0.618539	0.573275
O28	O	1.853327	0.868539	0.823275
Zn29	Zn	0.982308	0.125915	0.096522
Zn30	Zn	1.232308	0.375915	0.346522
Zn31	Zn	1.482308	0.625915	0.596522
Zn32	Zn	1.732308	0.875915	0.846522
Zn33	Zn	0.982319	0.125917	-0.096442
Zn34	Zn	1.232319	0.375917	0.153558
Zn35	Zn	1.482319	0.625917	0.403558
Zn36	Zn	1.732319	0.875917	0.653558
O37	O	0.975892	0.260167	0.073261
O38	O	1.225892	0.510167	0.323261
O39	O	1.475892	0.760167	0.573261
O40	O	1.725892	1.010167	0.823261
C41	C	0.830319	0.132694	0.000032
C42	C	1.080319	0.382694	0.250032
C43	C	1.330319	0.632694	0.500032
C44	C	1.580319	0.882694	0.750032
C45	C	0.738021	0.130903	0.000028
C46	C	0.988021	0.380903	0.250028
C47	C	1.238021	0.630903	0.500028
C48	C	1.488021	0.880903	0.750028
C49	C	0.429158	0.209085	0.000038
C50	C	0.679158	0.459085	0.250038
C51	C	0.929158	0.709085	0.500038
C52	C	1.179158	0.959085	0.750038
C53	C	0.515881	0.210777	0.000033
C54	C	0.765881	0.460777	0.250033
C55	C	1.015881	0.710777	0.500033
C56	C	1.265881	0.960777	0.750033
C57	C	0.535463	0.042740	0.000032
C58	C	0.785463	0.292740	0.250032
C59	C	1.035463	0.542740	0.500032
C60	C	1.285463	0.792740	0.750032
C61	C	0.448742	0.041049	0.000031
C62	C	0.698742	0.291049	0.250031
C63	C	0.948742	0.541049	0.500031
C64	C	1.198742	0.791049	0.750031
C65	C	0.395591	0.124224	0.000038
C66	C	0.645591	0.374224	0.250038
C67	C	0.895591	0.624224	0.500038
C68	C	1.145591	0.874224	0.750038
C69	C	0.569036	0.127607	0.000034
C70	C	0.819036	0.377607	0.250034
C71	C	1.069036	0.627607	0.500034
C72	C	1.319036	0.877607	0.750034
C73	C	0.663065	0.129441	0.000029
C74	C	0.913065	0.379441	0.250029
C75	C	1.163065	0.629441	0.500029
C76	C	1.413065	0.879441	0.750029
C77	C	0.301556	0.122391	0.000042
C78	C	0.551556	0.372391	0.250042
C79	C	0.801556	0.622391	0.500042
C80	C	1.051556	0.872391	0.750042
C81	C	0.988132	-0.042695	0.000049
C82	C	1.238132	0.207305	0.250049
C83	C	1.488132	0.457305	0.500049
C84	C	1.738132	0.707305	0.750049
C85	C	0.986340	-0.145072	0.000049
C86	C	1.236340	0.104928	0.250049
C87	C	1.486340	0.354928	0.500049
C88	C	1.736340	0.604928	0.750049
C89	C	0.979741	-0.519954	0.000026
C90	C	1.229741	-0.269954	0.250026
C91	C	1.479741	-0.019954	0.500026
C92	C	1.729741	0.230046	0.750026
C93	C	0.981574	-0.415650	0.000033
C94	C	1.231574	-0.165650	0.250033
C95	C	1.481574	0.084350	0.500033
C96	C	1.731574	0.334350	0.750033
C97	C	0.983040	-0.332516	0.000038
C98	C	1.233040	-0.082516	0.250038
C99	C	1.483040	0.167484	0.500038
C100	C	1.733040	0.417484	0.750038
C101	C	0.984873	-0.228206	0.000043
C102	C	1.234873	0.021794	0.250043
C103	C	1.484873	0.271794	0.500043
C104	C	1.734873	0.521794	0.750043
C105	C	1.134307	0.119138	0.000046
C106	C	1.384307	0.369138	0.250046
C107	C	1.634307	0.619138	0.500046
C108	C	1.884307	0.869138	0.750046
C109	C	1.226606	0.120929	0.000045
C110	C	1.476606	0.370929	0.250045
C111	C	1.726606	0.620929	0.500045
C112	C	1.976606	0.870929	0.750045
C113	C	0.976494	0.294526	0.000030
C114	C	1.226494	0.544526	0.250030
C115	C	1.476494	0.794526	0.500030
C116	C	1.726494	1.044526	0.750030
C117	C	0.978287	0.396904	0.000024
C118	C	1.228287	0.646904	0.250024
C119	C	1.478287	0.896904	0.500024
C120	C	1.728287	1.146904	0.750024
N121	N	0.982306	0.125912	0.228215
N122	N	1.232306	0.375912	0.478215
N123	N	1.482306	0.625912	0.728215
N124	N	1.732306	0.875912	0.978215
N125	N	0.982327	0.125912	-0.228134
N126	N	1.232327	0.375912	0.021866
N127	N	1.482327	0.625912	0.271866
N128	N	1.732327	0.875912	0.521866
C129	C	1.038754	0.063220	0.453944
C130	C	1.288754	0.313220	0.703944
C131	C	1.538754	0.563220	0.953944
C132	C	1.788754	0.813220	1.203944
C133	C	1.038756	0.063218	0.546134
C134	C	1.288756	0.313218	0.796134
C135	C	1.538756	0.563218	1.046134
C136	C	1.788756	0.813218	1.296134
C137	C	0.925873	0.188607	0.546130
C138	C	1.175873	0.438607	0.796130
C139	C	1.425873	0.688607	1.046130
C140	C	1.675873	0.938607	1.296130
C141	C	0.925867	0.188604	0.453942
C142	C	1.175867	0.438604	0.703942
C143	C	1.425867	0.688604	0.953942
C144	C	1.675867	0.938604	1.203942
C145	C	0.982312	0.125912	0.407851
C146	C	1.232312	0.375912	0.657851
C147	C	1.482312	0.625912	0.907851
C148	C	1.732312	0.875912	1.157851
C149	C	0.982321	0.125913	0.592229
C150	C	1.232321	0.375913	0.842229
C151	C	1.482321	0.625913	1.092229
C152	C	1.732321	0.875913	1.342229
C153	C	0.982323	0.125911	0.692185
C154	C	1.232323	0.375911	0.942185
C155	C	1.482323	0.625911	1.192185
C156	C	1.732323	0.875911	1.442185
C157	C	0.982309	0.125912	0.307889
C158	C	1.232309	0.375912	0.557889
C159	C	1.482309	0.625912	0.807889
C160	C	1.732309	0.875912	1.057889
H161	H	0.385884	0.276812	0.000044
H162	H	0.635884	0.526812	0.250044
H163	H	0.885884	0.776812	0.500044
H164	H	1.135884	1.026812	0.750044
Cl165	Cl	1.109712	-0.015599	0.604076
Cl166	Cl	1.359712	0.234401	0.854076
Cl167	Cl	1.609712	0.484401	1.104076
Cl168	Cl	1.859712	0.734401	1.354076
Cl169	Cl	1.109710	-0.015596	0.396006
Cl170	Cl	1.359710	0.234404	0.646006
Cl171	Cl	1.609710	0.484404	0.896006
Cl172	Cl	1.859710	0.734404	1.146006
Cl173	Cl	0.406540	-0.065642	0.000019
Cl174	Cl	0.656540	0.184358	0.250019
Cl175	Cl	0.906540	0.434358	0.500019
Cl176	Cl	1.156540	0.684358	0.750019
Cl177	Cl	0.558075	0.317464	0.000030
Cl178	Cl	0.808075	0.567464	0.250030
Cl179	Cl	1.058075	0.817464	0.500030
Cl180	Cl	1.308075	1.067464	0.750030
Cl181	Cl	0.602287	-0.061817	0.000031
Cl182	Cl	0.852287	0.188183	0.250031
Cl183	Cl	1.102287	0.438183	0.500031
Cl184	Cl	1.352287	0.688183	0.750031
Cl185	Cl	0.854920	0.267420	0.604076
Cl186	Cl	1.104920	0.517420	0.854076
Cl187	Cl	1.354920	0.767420	1.104076
Cl188	Cl	1.604920	1.017420	1.354076
H189	H	0.879902	0.239655	0.416411
H190	H	1.129902	0.489655	0.666411
H191	H	1.379902	0.739655	0.916411
H192	H	1.629902	0.989655	1.166411
