data_functionalizedCrystal
_audit_creation_method	'MofGen! by Chris Wilmer'
_symmetry_space_group_name_H-M	'P1'
_symmetry_Int_Tables_number	1
_symmetry_cell_setting	triclinic
loop_
_symmetry_equiv_pos_as_xyz
  x,y,z
_cell_length_a	15.538191
_cell_length_b	17.699083
_cell_length_c	16.776229
_cell_angle_alpha	89.999079
_cell_angle_beta	90.001809
_cell_angle_gamma	114.722446
loop_
_atom_site_label
_atom_site_type_symbol
_atom_site_fract_x
_atom_site_fract_y
_atom_site_fract_z
O1	O	1.250475	0.245986	0.066265
O2	O	1.750475	0.745986	0.566265
O3	O	0.976016	0.158539	0.066276
O4	O	1.476016	0.658539	0.566276
O5	O	1.121000	0.314570	0.066251
O6	O	1.621000	0.814570	0.566251
O7	O	1.105492	0.089954	0.066290
O8	O	1.605492	0.589954	0.566290
O9	O	1.120987	0.314546	-0.066326
O10	O	1.620987	0.814546	0.433674
O11	O	0.976003	0.158515	-0.066301
O12	O	1.476003	0.658515	0.433699
O13	O	1.250462	0.245962	-0.066312
O14	O	1.750462	0.745962	0.433688
Zn15	Zn	1.113230	0.202235	-0.087355
Zn16	Zn	1.613230	0.702235	0.412645
Zn17	Zn	1.113248	0.202266	0.087320
Zn18	Zn	1.613248	0.702266	0.587320
O19	O	1.105478	0.089930	-0.066286
O20	O	1.605478	0.589930	0.433714
C21	C	0.940893	0.149378	-0.000011
C22	C	1.440893	0.649378	0.499989
C23	C	0.836257	0.122125	-0.000008
C24	C	1.336257	0.622125	0.499992
C25	C	1.120438	0.342603	-0.000041
C26	C	1.620438	0.842603	0.499959
C27	C	1.118771	0.426166	-0.000051
C28	C	1.618771	0.926166	0.499949
N29	N	1.113225	0.202215	-0.206567
N30	N	1.613225	0.702215	0.293433
C31	C	0.549086	0.392872	-0.000043
C32	C	1.049086	0.892872	0.499957
C33	C	0.450762	0.367245	-0.000038
C34	C	0.950762	0.867245	0.499962
C35	C	0.427989	0.223099	-0.000013
C36	C	0.927989	0.723099	0.499987
C37	C	0.526313	0.248714	-0.000022
C38	C	1.026313	0.748714	0.499978
C39	C	0.586855	0.333602	-0.000036
C40	C	1.086855	0.833602	0.499964
C41	C	0.564082	0.189444	-0.000015
C42	C	1.064082	0.689444	0.499985
C43	C	0.662398	0.215057	-0.000020
C44	C	1.162398	0.715057	0.499980
C45	C	0.722945	0.299940	-0.000031
C46	C	1.222945	0.799940	0.499969
C47	C	0.685171	0.359215	-0.000041
C48	C	1.185171	0.859215	0.499959
C49	C	0.503539	0.104556	0.000005
C50	C	1.003539	0.604556	0.500005
C51	C	0.541308	0.045286	0.000012
C52	C	1.041308	0.545286	0.500012
C53	C	0.639625	0.070899	0.000002
C54	C	1.139625	0.570899	0.500002
C55	C	0.700173	0.155782	-0.000010
C56	C	1.200173	0.655782	0.499990
C57	C	0.677400	0.011624	0.000011
C58	C	1.177400	0.511624	0.500011
C59	C	0.775716	0.037238	0.000006
C60	C	1.275716	0.537238	0.500006
C61	C	0.798489	0.181396	-0.000015
C62	C	1.298489	0.681396	0.499985
C63	C	1.285585	0.255123	-0.000023
C64	C	1.785585	0.755123	0.499977
C65	C	1.390221	0.282375	-0.000021
C66	C	1.890221	0.782375	0.499979
C67	C	1.203873	0.498041	-0.000060
C68	C	1.703873	0.998041	0.499940
C69	C	1.202301	0.576554	-0.000062
C70	C	1.702301	1.076554	0.499938
C71	C	1.115625	0.583192	-0.000060
C72	C	1.615625	1.083192	0.499940
C73	C	1.030517	0.511309	-0.000048
C74	C	1.530517	1.011309	0.499952
C75	C	1.032090	0.432797	-0.000040
C76	C	1.532090	0.932797	0.499960
C77	C	1.024171	0.827938	-0.000077
C78	C	1.524171	1.327938	0.499923
C79	C	1.022604	0.906458	-0.000087
C80	C	1.522604	1.406458	0.499913
C81	C	1.194382	0.971696	-0.000099
C82	C	1.694382	1.471696	0.499901
C83	C	1.195955	0.893184	-0.000091
C84	C	1.695955	1.393184	0.499909
C85	C	1.110847	0.821308	-0.000075
C86	C	1.610847	1.321308	0.499925
C87	C	1.112552	0.736175	-0.000072
C88	C	1.612552	1.236175	0.499928
C89	C	1.113919	0.668323	-0.000069
C90	C	1.613919	1.168323	0.499931
C91	C	1.106041	1.061897	-0.000021
C92	C	1.606041	1.561897	0.499979
C93	C	1.107708	0.978335	-0.000091
C94	C	1.607708	1.478335	0.499909
C95	C	1.056199	0.232542	-0.751745
C96	C	1.556199	0.732542	-0.251745
C97	C	1.056197	0.232535	-0.668293
C98	C	1.556197	0.732535	-0.168293
C99	C	1.113252	0.202274	-0.626566
C100	C	1.613252	0.702274	-0.126566
C101	C	1.170320	0.172024	-0.668296
C102	C	1.670320	0.672024	-0.168296
C103	C	1.170327	0.172037	-0.751747
C104	C	1.670327	0.672037	-0.251747
C105	C	1.170295	0.171973	-0.331749
C106	C	1.670295	0.671973	0.168251
C107	C	1.170282	0.171960	-0.248292
C108	C	1.670282	0.671960	0.251708
C109	C	1.056166	0.232471	-0.248295
C110	C	1.556166	0.732471	0.251705
C111	C	1.056173	0.232484	-0.331745
C112	C	1.556173	0.732484	0.168255
C113	C	1.113244	0.202239	-0.373468
C114	C	1.613244	0.702239	0.126532
C115	C	1.113247	0.202249	-0.463956
C116	C	1.613247	0.702249	0.036044
C117	C	1.113244	0.202258	-0.536079
C118	C	1.613244	0.702258	-0.036079
N119	N	1.113261	0.202293	0.206531
N120	N	1.613261	0.702293	0.706531
H121	H	0.803000	0.320793	-0.000025
H122	H	1.303000	0.820793	0.499975
N123	N	1.231867	0.139393	-0.623296
N124	N	1.731867	0.639393	-0.123296
H125	H	1.223205	0.143973	-0.564098
H126	H	1.723205	0.643973	-0.064098
H127	H	1.213120	0.079206	-0.637891
H128	H	1.713120	0.579206	-0.137891
N129	N	0.994668	0.265189	-0.796748
N130	N	1.494668	0.765189	-0.296748
H131	H	0.948455	0.219571	-0.831379
H132	H	1.448455	0.719571	-0.331379
H133	H	0.958586	0.284364	-0.757600
H134	H	1.458586	0.784364	-0.257600
N135	N	0.612105	-0.079930	0.000032
N136	N	1.112105	0.420070	0.500032
H137	H	0.570817	-0.093760	0.049184
H138	H	1.070817	0.406240	0.549184
H139	H	0.570856	-0.093722	-0.049141
H140	H	1.070856	0.406278	0.450859
N141	N	0.932378	0.750425	-0.000063
N142	N	1.432378	1.250425	0.499937
H143	H	0.946519	0.699677	-0.000052
H144	H	1.446519	1.199677	0.499948
H145	H	0.894609	0.749919	0.049087
H146	H	1.394609	1.249919	0.549087
N147	N	1.294091	0.654075	-0.000082
N148	N	1.794091	1.154075	0.499918
H149	H	1.279946	0.704820	-0.000082
H150	H	1.779946	1.204820	0.499918
H151	H	1.331883	0.654602	0.049062
H152	H	1.831883	1.154602	0.549062
N153	N	0.994619	0.265108	-0.203296
N154	N	1.494619	0.765108	0.296704
H155	H	0.948406	0.219480	-0.168675
H156	H	1.448406	0.719480	0.331325
H157	H	1.035809	0.313441	-0.168716
H158	H	1.535809	0.813441	0.331284
N159	N	0.750474	0.450774	-0.000063
N160	N	1.250474	0.950774	0.499937
H161	H	0.791781	0.464624	0.049080
H162	H	1.291781	0.964624	0.549080
H163	H	0.791703	0.464536	-0.049245
H164	H	1.291703	0.964536	0.450755
N165	N	0.816453	-0.026691	0.000011
N166	N	1.316453	0.473309	0.500011
H167	H	0.856733	-0.019282	-0.049136
H168	H	1.356733	0.480718	0.450864
H169	H	0.856694	-0.019236	0.049189
H170	H	1.356694	0.480764	0.549189
N171	N	1.231828	0.139328	-0.203281
N172	N	1.731828	0.639328	0.296719
H173	H	1.213118	0.079128	-0.217810
H174	H	1.713118	0.579128	0.282190
H175	H	1.300421	0.173142	-0.217810
H176	H	1.800421	0.673142	0.282190
H177	H	0.598383	0.461996	-0.000059
H178	H	1.098383	0.961996	0.499941
N179	N	1.231893	0.139402	-0.376744
N180	N	1.731893	0.639402	0.123256
H181	H	1.268046	0.120243	-0.337645
H182	H	1.768046	0.620243	0.162355
H183	H	1.190759	0.091114	-0.411398
H184	H	1.690759	0.591114	0.088602
H185	H	0.952019	0.911855	-0.000087
H186	H	1.452019	1.411855	0.499913
N187	N	0.410024	0.431177	-0.000040
N188	N	0.910024	0.931177	0.499960
H189	H	0.463298	0.488837	-0.000049
H190	H	0.963298	0.988837	0.499951
H191	H	0.369721	0.423685	-0.049186
H192	H	0.869721	0.923685	0.450814
H193	H	0.959944	0.516719	-0.000041
H194	H	1.459944	1.016719	0.499959
N195	N	1.286180	1.049222	-0.000101
N196	N	1.786180	1.549222	0.499899
H197	H	1.341325	1.033102	-0.000105
H198	H	1.841325	1.533102	0.499895
H199	H	1.289264	1.083215	-0.049251
H200	H	1.789264	1.583215	0.450749
H201	H	1.009735	0.257170	-0.634324
H202	H	1.509735	0.757170	-0.134324
N203	N	0.863793	0.272954	-0.000041
N204	N	1.363793	0.772954	0.499959
H205	H	0.851673	0.300024	0.049098
H206	H	1.351673	0.800024	0.549098
H207	H	0.931778	0.280112	-0.000073
H208	H	1.431778	0.780112	0.499927
N209	N	0.362689	0.131545	0.000007
N210	N	0.862689	0.631545	0.500007
H211	H	0.294675	0.124312	0.000010
H212	H	0.794675	0.624312	0.500010
H213	H	0.374895	0.104541	-0.049139
H214	H	0.874895	0.604541	0.450861
H215	H	1.009709	0.257123	-0.365715
H216	H	1.509709	0.757123	0.134285
H217	H	1.274454	0.492646	-0.000067
H218	H	1.774454	0.992646	0.499933
H219	H	1.216792	0.147406	-0.785717
H220	H	1.716792	0.647406	-0.285717
H221	H	1.266535	0.887787	-0.000097
H222	H	1.766535	1.387787	0.499903
H223	H	0.423484	0.083705	0.000012
H224	H	0.923484	0.583705	0.500012
N225	N	0.940307	0.355266	-0.000047
N226	N	1.440307	0.855266	0.499953
H227	H	0.937133	0.321239	0.049101
H228	H	1.437133	0.821239	0.549101
H229	H	0.885206	0.371442	-0.000082
H230	H	1.385206	0.871442	0.499918
N231	N	0.476008	-0.046268	0.000032
N232	N	0.976008	0.453732	0.500032
H233	H	0.407993	-0.053502	0.000035
H234	H	0.907993	0.446498	0.500035
H235	H	0.488214	-0.073272	-0.049114
H236	H	0.988214	0.426728	0.450886
