data_functionalizedCrystal
_audit_creation_method	'MofGen! by Chris Wilmer'
_symmetry_space_group_name_H-M	'P1'
_symmetry_Int_Tables_number	1
_symmetry_cell_setting	triclinic
loop_
_symmetry_equiv_pos_as_xyz
  x,y,z
_cell_length_a	11.169417
_cell_length_b	15.297510
_cell_length_c	11.169409
_cell_angle_alpha	99.641876
_cell_angle_beta	90.019513
_cell_angle_gamma	80.290662
loop_
_atom_site_label
_atom_site_type_symbol
_atom_site_fract_x
_atom_site_fract_y
_atom_site_fract_z
Zn1	Zn	1.752152	0.359055	0.761138
Zn2	Zn	1.717240	0.509948	0.595170
Zn3	Zn	1.551425	0.359111	0.560487
Zn4	Zn	1.516661	0.509875	0.795800
O5	O	1.634370	0.434497	0.678149
O6	O	1.915469	0.379078	0.739132
O7	O	1.695183	0.489993	0.422632
O8	O	1.607211	0.232859	0.558083
O9	O	1.889820	0.489939	0.617196
O10	O	1.754685	0.232818	0.705501
O11	O	1.573359	0.379174	0.397150
O12	O	1.378865	0.379103	0.591692
O13	O	1.547961	0.489815	0.959139
O14	O	1.353325	0.489869	0.764576
O15	O	1.720976	0.379008	0.933674
O16	O	1.661474	0.636183	0.650805
O17	O	1.514109	0.636130	0.798207
C18	C	1.322548	0.434485	0.678132
C19	C	1.189144	0.434502	0.678159
C20	C	1.580263	0.668890	0.732057
C21	C	1.557226	0.769164	0.755159
C22	C	1.799454	1.051806	0.513512
C23	C	1.821098	0.957593	0.491800
C24	C	1.755132	0.910481	0.557638
C25	C	1.667518	0.957591	0.645191
C26	C	1.645866	1.051813	0.666899
C27	C	1.601544	0.910488	0.711025
C28	C	1.513930	0.957598	0.798578
C29	C	1.492281	1.051811	0.820282
C30	C	1.558247	1.098923	0.754444
C31	C	1.623197	0.816267	0.689318
C32	C	1.469608	0.816274	0.842705
C33	C	1.447964	0.910486	0.864417
C34	C	1.947409	0.434510	0.678166
C35	C	2.080808	0.434516	0.678174
C36	C	1.634485	0.434397	0.991168
C37	C	1.634534	0.434355	1.124559
C38	C	1.688709	1.199190	0.624069
C39	C	1.711836	1.098915	0.601057
C40	C	1.634339	0.434532	0.366332
C41	C	1.634581	0.434321	0.232884
H42	H	1.772759	0.833769	0.539954
H43	H	1.892432	0.919240	0.420514
O44	O	1.534900	1.200541	0.777871
H45	H	1.438662	1.225458	0.759288
H46	H	1.853147	1.090173	0.459909
O47	O	1.398454	0.765475	0.913731
H48	H	1.428239	0.692046	0.883939
O49	O	1.397779	1.102628	0.914706
H50	H	1.355553	1.054043	0.956849
O51	O	1.353451	0.961307	0.958827
H52	H	1.397285	1.004171	1.029800
H53	H	1.694532	0.777918	0.618031
