data_functionalizedCrystal
_audit_creation_method	'MofGen! by Chris Wilmer'
_symmetry_space_group_name_H-M	'P1'
_symmetry_Int_Tables_number	1
_symmetry_cell_setting	triclinic
loop_
_symmetry_equiv_pos_as_xyz
  x,y,z
_cell_length_a	14.044191
_cell_length_b	12.503572
_cell_length_c	11.792241
_cell_angle_alpha	86.452757
_cell_angle_beta	88.692596
_cell_angle_gamma	93.837835
loop_
_atom_site_label
_atom_site_type_symbol
_atom_site_fract_x
_atom_site_fract_y
_atom_site_fract_z
O1	O	1.264548	0.089269	0.267796
O2	O	1.514548	0.339269	0.517796
O3	O	1.764548	0.589269	0.767796
O4	O	2.014548	0.839269	1.017796
O5	O	0.988528	0.089283	0.257907
O6	O	1.238528	0.339283	0.507907
O7	O	1.488528	0.589283	0.757907
O8	O	1.738528	0.839283	1.007907
O9	O	1.133235	0.089268	0.098311
O10	O	1.383235	0.339268	0.348311
O11	O	1.633235	0.589268	0.598311
O12	O	1.883235	0.839268	0.848311
O13	O	1.119840	0.089284	0.427393
O14	O	1.369840	0.339284	0.677393
O15	O	1.619840	0.589284	0.927393
O16	O	1.869840	0.839284	1.177393
O17	O	1.122353	-0.089373	0.110335
O18	O	1.372353	0.160627	0.360335
O19	O	1.622353	0.410627	0.610335
O20	O	1.872353	0.660627	0.860335
O21	O	0.977645	-0.089358	0.269932
O22	O	1.227645	0.160642	0.519932
O23	O	1.477645	0.410642	0.769932
O24	O	1.727645	0.660642	1.019932
O25	O	1.253665	-0.089372	0.279820
O26	O	1.503665	0.160628	0.529820
O27	O	1.753665	0.410628	0.779820
O28	O	2.003665	0.660628	1.029820
Cu29	Cu	1.114661	-0.105676	0.275974
Cu30	Cu	1.364661	0.144324	0.525974
Cu31	Cu	1.614661	0.394324	0.775974
Cu32	Cu	1.864661	0.644324	1.025974
Cu33	Cu	1.127531	0.105587	0.261754
Cu34	Cu	1.377531	0.355587	0.511754
Cu35	Cu	1.627531	0.605587	0.761754
Cu36	Cu	1.877531	0.855587	1.011754
O37	O	1.108957	-0.089357	0.439417
O38	O	1.358957	0.160643	0.689417
O39	O	1.608957	0.410643	0.939417
O40	O	1.858957	0.660643	1.189417
C41	C	0.947750	-0.000036	0.259594
C42	C	1.197750	0.249964	0.509594
C43	C	1.447750	0.499964	0.759594
C44	C	1.697750	0.749964	1.009594
C45	C	0.842458	-0.000031	0.246692
C46	C	1.092458	0.249969	0.496692
C47	C	1.342458	0.499969	0.746692
C48	C	1.592458	0.749969	0.996692
N49	N	1.105616	-0.254268	0.285976
N50	N	1.355616	-0.004268	0.535976
N51	N	1.605616	0.245732	0.785976
N52	N	1.855616	0.495732	1.035976
C53	C	0.592520	-0.000039	0.314609
C54	C	0.842520	0.249961	0.564609
C55	C	1.092520	0.499961	0.814609
C56	C	1.342520	0.749961	1.064609
C57	C	0.649679	-0.000041	0.223123
C58	C	0.899679	0.249959	0.473123
C59	C	1.149679	0.499959	0.723123
C60	C	1.399679	0.749959	0.973123
C61	C	0.756951	-0.000036	0.236240
C62	C	1.006951	0.249964	0.486240
C63	C	1.256951	0.499964	0.736240
C64	C	1.506951	0.749964	0.986240
C65	C	0.485238	-0.000044	0.301494
C66	C	0.735238	0.249956	0.551494
C67	C	0.985238	0.499956	0.801494
C68	C	1.235238	0.749956	1.051494
C69	C	1.092310	-0.473382	0.300698
C70	C	1.342310	-0.223382	0.550698
C71	C	1.592310	0.026618	0.800698
C72	C	1.842310	0.276618	1.050698
C73	C	1.149887	-0.526715	0.237025
C74	C	1.399887	-0.276715	0.487025
C75	C	1.649887	-0.026715	0.737025
C76	C	1.899887	0.223285	0.987025
C77	C	1.142483	-0.648637	0.245217
C78	C	1.392483	-0.398637	0.495217
C79	C	1.642483	-0.148637	0.745217
C80	C	1.892483	0.101363	0.995217
C81	C	1.099713	-0.351448	0.292508
C82	C	1.349713	-0.101448	0.542508
C83	C	1.599713	0.148552	0.792508
C84	C	1.849713	0.398552	1.042508
C85	C	1.294443	-0.000051	0.278133
C86	C	1.544443	0.249949	0.528133
C87	C	1.794443	0.499949	0.778133
C88	C	2.044443	0.749949	1.028133
C89	C	1.399735	-0.000049	0.291035
C90	C	1.649735	0.249951	0.541035
C91	C	1.899735	0.499951	0.791035
C92	C	2.149735	0.749951	1.041035
C93	C	1.126953	-0.000052	0.061953
C94	C	1.376953	0.249948	0.311953
C95	C	1.626953	0.499948	0.561953
C96	C	1.876953	0.749948	0.811953
C97	C	1.124434	-0.000051	-0.064297
C98	C	1.374434	0.249949	0.185703
C99	C	1.624434	0.499949	0.435703
C100	C	1.874434	0.749949	0.685703
N101	N	1.136584	0.254178	0.251744
N102	N	1.386584	0.504178	0.501744
N103	N	1.636584	0.754178	0.751744
N104	N	1.886584	1.004178	1.001744
C105	C	1.119804	-0.000033	-0.295446
C106	C	1.369804	0.249967	-0.045446
C107	C	1.619804	0.499967	0.204554
C108	C	1.869804	0.749967	0.454554
C109	C	1.122376	-0.000043	-0.166818
C110	C	1.372376	0.249957	0.083182
C111	C	1.622376	0.499957	0.333182
C112	C	1.872376	0.749957	0.583182
C113	C	1.115240	-0.000035	0.475775
C114	C	1.365240	0.249965	0.725775
C115	C	1.615240	0.499965	0.975775
C116	C	1.865240	0.749965	1.225775
C117	C	1.117759	-0.000029	0.602024
C118	C	1.367759	0.249971	0.852024
C119	C	1.617759	0.499971	1.102024
C120	C	1.867759	0.749971	1.352024
H121	H	0.618055	0.000030	0.134942
H122	H	0.868055	0.250030	0.384942
H123	H	1.118055	0.500030	0.634942
H124	H	1.368055	0.750030	0.884942
H125	H	1.037461	-0.519284	0.361359
H126	H	1.287461	-0.269284	0.611359
H127	H	1.537461	-0.019284	0.861359
H128	H	1.787461	0.230716	1.111359
H129	H	0.624147	-0.000031	0.402778
H130	H	0.874147	0.249969	0.652778
H131	H	1.124147	0.499969	0.902778
H132	H	1.374147	0.749969	1.152778
H133	H	1.204741	-0.480807	0.176361
H134	H	1.454741	-0.230807	0.426361
H135	H	1.704741	0.019193	0.676361
H136	H	1.954741	0.269193	0.926361
