data_functionalizedCrystal
_audit_creation_method	'MofGen! by Chris Wilmer'
_symmetry_space_group_name_H-M	'P1'
_symmetry_Int_Tables_number	1
_symmetry_cell_setting	triclinic
loop_
_symmetry_equiv_pos_as_xyz
  x,y,z
_cell_length_a	27.440280
_cell_length_b	23.196402
_cell_length_c	23.196401
_cell_angle_alpha	60.008822
_cell_angle_beta	90.008388
_cell_angle_gamma	59.994614
loop_
_atom_site_label
_atom_site_type_symbol
_atom_site_fract_x
_atom_site_fract_y
_atom_site_fract_z
Zr1	Zr	0.469496	0.630945	-0.075648
O2	O	0.391662	0.751220	-0.167691
O3	O	0.493355	0.510676	-0.047435
O4	O	0.493333	0.630944	-0.167700
O5	O	0.391703	0.630952	0.047446
O6	O	0.573535	0.630934	-0.167704
O7	O	0.391684	0.630953	-0.047425
O8	O	0.573573	0.415798	0.047429
O9	O	0.391664	0.846088	-0.167687
O10	O	0.563386	0.560135	-0.035401
O11	O	0.503546	0.560141	0.035403
O12	O	0.503521	0.701740	-0.106194
O13	O	0.443682	0.701746	-0.035390
Zr14	Zr	0.597440	0.630928	0.075656
Zr15	Zr	0.597409	0.630930	-0.075653
Zr16	Zr	0.469527	0.630942	0.075661
Zr17	Zr	0.469500	0.782247	-0.075641
Zr18	Zr	0.597436	0.479625	0.075649
O19	O	0.573581	0.751196	0.047443
O20	O	0.573538	0.751200	-0.167699
O21	O	0.391706	0.751217	0.047451
O22	O	0.675274	0.510652	0.167699
O23	O	0.675230	0.510655	-0.047443
O24	O	0.493398	0.510673	0.167707
O25	O	0.675233	0.630921	-0.047438
O26	O	0.573603	0.630929	0.167709
O27	O	0.493401	0.630938	0.167712
O28	O	0.675252	0.630919	0.047434
O29	O	0.493338	0.846076	-0.167691
O30	O	0.573598	0.415797	0.167699
O31	O	0.675272	0.415785	0.167695
O32	O	0.675247	0.415787	0.047425
O33	O	0.391689	0.846086	-0.047416
O34	O	0.493362	0.846074	-0.047421
O35	O	0.563415	0.560133	0.106202
O36	O	0.623254	0.560127	0.035398
O37	O	0.563389	0.701732	-0.035395
O38	O	0.503550	0.701738	0.035409
C39	C	0.533463	0.441680	-0.000004
C40	C	0.533462	0.377448	-0.000007
C41	C	0.564694	0.347275	-0.036968
C42	C	0.564699	0.286914	-0.036963
C43	C	0.533462	0.256740	-0.000005
C44	C	0.502229	0.286917	0.036965
C45	C	0.502229	0.347272	0.036964
C46	C	0.481128	0.194717	-0.005277
C47	C	0.481126	0.134367	-0.005281
C48	C	0.533463	0.070585	0.000002
C49	C	0.585800	0.067167	0.005276
C50	C	0.585800	0.127521	0.005275
C51	C	0.533459	0.191296	0.000001
C52	C	0.564703	-0.025039	-0.036955
C53	C	0.564711	-0.085405	-0.036944
C54	C	0.502235	-0.085394	0.036979
C55	C	0.502233	-0.025036	0.036973
C56	C	0.533466	0.005141	0.000002
C57	C	0.373468	0.630955	0.000011
C58	C	0.319166	0.630961	0.000013
C59	C	-0.017542	0.630919	-0.052262
C60	C	-0.068560	0.630913	-0.052263
O61	O	-0.094944	0.630883	-0.096698
N62	N	-0.094067	0.630914	0.000002
C63	C	-0.068551	0.630912	0.052274
O64	O	-0.094931	0.630911	0.096730
C65	C	-0.017531	0.630912	0.052277
C66	C	0.007970	0.630920	0.000005
C67	C	0.007959	0.630926	-0.104530
C68	C	0.058973	0.630933	-0.104530
C69	C	0.084485	0.630934	-0.052263
C70	C	0.058984	0.630927	0.000005
C71	C	0.007987	0.630904	0.104552
C72	C	0.059010	0.630904	0.104550
C73	C	0.084511	0.630911	0.052278
C74	C	0.135510	0.630935	0.052272
N75	N	0.161017	0.630934	0.000007
C76	C	0.135505	0.630934	-0.052260
C77	C	-0.175694	0.630911	0.052265
C78	C	-0.226715	0.630917	0.052260
C79	C	-0.226721	0.630916	-0.052276
C80	C	-0.175701	0.630916	-0.052273
C81	C	-0.150187	0.630910	0.000001
C82	C	0.242637	0.630950	-0.052257
C83	C	0.293654	0.630960	-0.052254
C84	C	0.293656	0.630956	0.052284
C85	C	0.242642	0.630950	0.052280
C86	C	0.217135	0.630944	0.000006
O87	O	0.161927	0.630961	0.096686
O88	O	0.161896	0.630924	-0.096703
C89	C	0.693467	0.630918	-0.000003
C90	C	0.747770	0.630912	-0.000005
C91	C	0.533430	0.630939	-0.189260
C92	C	0.533417	0.630940	-0.253495
C93	C	0.533472	0.820193	0.000012
C94	C	0.533474	0.884424	0.000015
C95	C	0.502171	0.704854	-0.320621
C96	C	0.502186	0.704855	-0.380976
C97	C	0.533439	0.630938	-0.374201
C98	C	0.564692	0.557014	-0.307063
C99	C	0.564680	0.557015	-0.246710
C100	C	0.528999	0.574311	-0.441521
C101	C	0.529006	0.574313	-0.501874
C102	C	0.533477	0.630932	-0.560349
C103	C	0.537928	0.687563	-0.558469
C104	C	0.537917	0.687564	-0.498116
C105	C	0.533455	0.630929	-0.439640
C106	C	0.502246	0.704852	-0.692922
C107	C	0.502265	0.704850	-0.753277
C108	C	0.564767	0.557007	-0.679361
C109	C	0.564751	0.557011	-0.619008
C110	C	0.533488	0.630936	-0.625793
C111	C	0.533506	0.630933	0.189269
C112	C	0.533519	0.630932	0.253503
C113	C	0.693463	0.441662	-0.000011
C114	C	0.747764	0.377423	-0.000016
C115	C	0.533502	0.441677	0.189260
C116	C	0.533513	0.377444	0.253492
C117	C	0.693501	0.441659	0.189254
C118	C	0.747815	0.377420	0.253483
C119	C	0.373434	0.820214	-0.189245
C120	C	0.319121	0.884453	-0.253475
C121	C	0.373473	0.820211	0.000019
C122	C	0.319172	0.884449	0.000024
C123	C	0.533434	0.820195	-0.189252
C124	C	0.533423	0.884428	-0.253484
C125	C	0.742014	0.347261	-0.036981
C126	C	0.793030	0.286911	-0.037000
C127	C	0.849797	0.256720	-0.000049
C128	C	0.855546	0.286889	0.036917
C129	C	0.804530	0.347242	0.036931
C130	C	0.564769	0.347276	0.320619
C131	C	0.564778	0.286931	0.380977
C132	C	0.533533	0.256751	0.374208
C133	C	0.502274	0.286926	0.307074
C134	C	0.502262	0.347274	0.246717
C135	C	0.804563	0.347249	0.246687
C136	C	0.855601	0.286898	0.307032
C137	C	0.849891	0.256714	0.374172
C138	C	0.793138	0.286891	0.380966
C139	C	0.742100	0.347245	0.320622
C140	C	0.262373	0.914631	-0.246679
C141	C	0.211335	0.975001	-0.307023
C142	C	0.217045	1.005187	-0.374163
C143	C	0.273798	0.975007	-0.380958
C144	C	0.324835	0.914643	-0.320614
C145	C	0.324922	0.914618	0.036983
C146	C	0.273906	0.974985	0.036985
C147	C	0.217139	1.005178	0.000032
C148	C	0.211390	0.975006	-0.036931
C149	C	0.262406	0.914644	-0.036937
C150	C	0.564673	0.914589	-0.246692
C151	C	0.564674	0.974934	-0.307038
C152	C	0.533420	1.005122	-0.374177
C153	C	0.502169	0.974956	-0.380968
C154	C	0.502172	0.914607	-0.320622
H155	H	0.590137	-0.000471	-0.067056
H156	H	0.809220	0.371793	0.067037
H157	H	0.476789	0.765046	-0.698447
H158	H	0.590127	0.371841	-0.067070
H159	H	0.278440	0.999593	-0.435631
H160	H	0.590235	0.262370	0.435634
C161	C	0.423557	0.138132	-0.011085
H162	H	0.392390	0.184753	-0.014219
H163	H	0.412564	0.141602	-0.052115
H164	H	0.430200	0.090366	0.029511
C165	C	0.160900	1.071576	-0.440535
H166	H	0.126288	1.085213	-0.426866
H167	H	0.160882	1.118672	-0.467846
H168	H	0.160889	1.051786	-0.467835
H169	H	0.901807	0.262335	0.301487
H170	H	0.901772	0.262299	0.067001
H171	H	0.788497	0.262306	0.435640
C172	C	0.599066	-0.118595	-0.077605
H173	H	0.617661	-0.091971	-0.099627
H174	H	0.628641	-0.175577	-0.045710
H175	H	0.572086	-0.108698	-0.112575
C176	C	0.321706	0.630965	-0.109752
H177	H	0.355741	0.630976	-0.102273
H178	H	0.333338	0.583677	-0.107587
H179	H	0.293344	0.678257	-0.154870
C180	C	0.599137	0.380468	0.328076
H181	H	0.594662	0.420727	0.282519
H182	H	0.583710	0.404017	0.353151
H183	H	0.640248	0.337132	0.353153
H184	H	0.257712	0.890056	-0.192015
C185	C	0.906035	0.190320	0.440544
H186	H	0.940648	0.176673	0.426874
H187	H	0.906053	0.210092	0.467854
H188	H	0.906048	0.143223	0.467843
H189	H	0.628416	0.124734	0.009570
H190	H	0.628420	0.015229	0.009586
H191	H	0.165164	0.999598	-0.067017
H192	H	0.590133	0.262342	-0.067062
H193	H	0.257716	0.890082	-0.067031
H194	H	0.541543	0.733673	-0.496589
C195	C	0.467885	0.380449	0.172880
H196	H	0.472346	0.420716	0.137897
H197	H	0.483315	0.337110	0.167597
H198	H	0.426778	0.404000	0.167591
C199	C	0.423553	0.264884	-0.011103
H200	H	0.431048	0.300338	-0.010346
H201	H	0.393241	0.294406	-0.054086
H202	H	0.410856	0.243193	0.027538
C203	C	0.786696	0.253727	-0.077656
H204	H	0.745580	0.280344	-0.099647
H205	H	0.805284	0.263620	-0.112639
H206	H	0.805306	0.196742	-0.045754
C207	C	0.810855	0.380443	0.172841
H208	H	0.851965	0.353830	0.177446
H209	H	0.792250	0.370552	0.147758
H210	H	0.792245	0.437428	0.147765
C211	C	0.599056	0.881387	-0.172846
H212	H	0.594583	0.841129	-0.137871
H213	H	0.640160	0.857835	-0.167556
H214	H	0.583628	0.924719	-0.167550
C215	C	0.533555	0.190364	0.440604
H216	H	0.556651	0.176718	0.481550
H217	H	0.493752	0.210142	0.440620
H218	H	0.550289	0.143266	0.440612
C219	C	0.214583	0.630950	-0.109760
H220	H	0.237080	0.630963	-0.140889
H221	H	0.214674	0.583663	-0.088302
H222	H	0.174685	0.678244	-0.135578
H223	H	0.165129	0.999563	-0.301477
H224	H	0.221874	0.630956	0.094839
H225	H	0.525355	0.528205	-0.393912
H226	H	0.476801	-0.109961	0.067071
H227	H	0.891332	0.207576	-0.000066
H228	H	0.278598	0.999540	0.067088
H229	H	0.695896	0.371802	0.326166
C230	C	0.467916	0.253714	0.299636
H231	H	0.472410	0.213445	0.345200
H232	H	0.426805	0.297032	0.274564
H233	H	0.483350	0.230154	0.274567
H234	H	-0.012769	0.630898	0.147117
C235	C	0.161027	1.071571	0.000047
H236	H	0.172587	1.085205	0.027358
H237	H	0.137934	1.118668	-0.047034
H238	H	0.137949	1.051791	0.019843
C239	C	0.387254	0.881444	-0.328099
H240	H	0.383340	0.908065	-0.376729
H241	H	0.408474	0.891321	-0.306094
H242	H	0.408454	0.824461	-0.306103
H243	H	0.476798	-0.000465	0.067068
C244	C	0.599045	1.008115	-0.299560
H245	H	0.594577	1.048374	-0.345112
H246	H	0.583616	1.031662	-0.274483
H247	H	0.640155	0.964775	-0.274477
H248	H	0.371140	0.890040	0.067079
H249	H	0.533423	1.054262	-0.423309
H250	H	0.476723	0.999545	-0.435640
H251	H	0.476796	0.262345	0.067057
C252	C	0.467868	0.380470	0.077617
H253	H	0.449262	0.353859	0.099627
H254	H	0.494839	0.370582	0.112585
H255	H	0.438292	0.437454	0.045711
H256	H	0.476722	0.890058	-0.326162
H257	H	0.079734	0.630936	-0.147093
C258	C	-0.020096	0.630918	-0.162024
H259	H	-0.054132	0.630910	-0.154546
H260	H	-0.031726	0.678204	-0.207139
H261	H	0.008265	0.583624	-0.159850
C262	C	-0.147650	0.630913	-0.109766
H263	H	-0.170153	0.630907	-0.140890
H264	H	-0.147736	0.678197	-0.135582
H265	H	-0.107753	0.583616	-0.088293
H266	H	-0.247480	0.630923	0.094819
C267	C	-0.254786	0.630909	-0.109768
H268	H	-0.232295	0.630916	-0.140902
H269	H	-0.254694	0.583621	-0.088297
H270	H	-0.294685	0.678201	-0.135583
C271	C	-0.147641	0.630922	0.109762
H272	H	-0.170146	0.630931	0.140880
H273	H	-0.107744	0.583638	0.135583
H274	H	-0.147738	0.678219	0.088290
H275	H	0.079783	0.630896	0.147121
H276	H	0.314435	0.630960	0.094838
H277	H	0.476716	0.765050	-0.326152
C278	C	0.599063	0.475706	-0.299605
H279	H	0.617673	0.431683	-0.250979
H280	H	0.572096	0.472640	-0.321625
H281	H	0.628636	0.472625	-0.321599
C282	C	0.467808	0.786164	-0.454823
H283	H	0.449183	0.830190	-0.450220
H284	H	0.494774	0.789241	-0.479898
H285	H	0.438246	0.789226	-0.479907
H286	H	0.541565	0.733670	-0.606082
H287	H	0.590214	0.496822	-0.673843
C288	C	0.467892	0.786160	-0.827118
H289	H	0.449268	0.830183	-0.822511
H290	H	0.494862	0.789236	-0.852187
H291	H	0.438331	0.789229	-0.852208
C292	C	0.599114	0.475705	-0.545167
H293	H	0.617726	0.431681	-0.549774
H294	H	0.628676	0.472626	-0.520071
H295	H	0.572136	0.472639	-0.520105
H296	H	0.525378	0.528204	-0.503400
H297	H	0.590125	0.496824	-0.192051
H298	H	0.695796	0.371841	-0.067079
