data_functionalizedCrystal
_audit_creation_method	'MofGen! by Chris Wilmer'
_symmetry_space_group_name_H-M	'P1'
_symmetry_Int_Tables_number	1
_symmetry_cell_setting	triclinic
loop_
_symmetry_equiv_pos_as_xyz
  x,y,z
_cell_length_a	15.944551
_cell_length_b	15.944551
_cell_length_c	14.421503
_cell_angle_alpha	89.995753
_cell_angle_beta	89.996059
_cell_angle_gamma	96.501262
loop_
_atom_site_label
_atom_site_type_symbol
_atom_site_fract_x
_atom_site_fract_y
_atom_site_fract_z
O1	O	1.114530	-0.108319	-0.077017
O2	O	1.614530	0.391681	0.422983
O3	O	0.869981	-0.121675	-0.077040
O4	O	1.369981	0.378325	0.422960
O5	O	0.998934	0.007277	-0.077020
O6	O	1.498934	0.507277	0.422980
O7	O	0.985577	-0.237272	-0.077038
O8	O	1.485577	0.262728	0.422962
O9	O	0.998910	0.007256	0.077204
O10	O	1.498910	0.507256	0.577204
O11	O	0.869957	-0.121697	0.077183
O12	O	1.369957	0.378303	0.577183
O13	O	1.114507	-0.108341	0.077206
O14	O	1.614507	0.391659	0.577206
Cu15	Cu	0.992230	-0.115021	0.091277
Cu16	Cu	1.492230	0.384979	0.591277
Cu17	Cu	0.992258	-0.114995	-0.091110
Cu18	Cu	1.492258	0.385005	0.408890
O19	O	0.985554	-0.237294	0.077186
O20	O	1.485554	0.262706	0.577186
C21	C	0.838675	-0.121132	0.000069
C22	C	1.338675	0.378868	0.500069
C23	C	0.745429	-0.119470	0.000060
C24	C	1.245429	0.380530	0.500060
C25	C	0.998367	0.038561	0.000092
C26	C	1.498367	0.538561	0.500092
C27	C	0.996705	0.131807	0.000093
C28	C	1.496705	0.631807	0.500093
C29	C	0.530572	-0.035565	0.000084
C30	C	1.030572	0.464435	0.500084
C31	C	0.469564	-0.074517	-0.075959
C32	C	0.969564	0.425483	0.424041
C33	C	0.574703	-0.116462	0.000071
C34	C	1.074703	0.383538	0.500071
C35	C	0.469563	-0.074557	0.076093
C36	C	0.969563	0.425443	0.576093
C37	C	0.409790	-0.113551	0.000086
C38	C	0.909790	0.386449	0.500086
C39	C	0.514923	-0.155436	-0.076035
C40	C	1.014923	0.344564	0.423965
C41	C	0.514928	-0.155465	0.076086
C42	C	1.014928	0.344535	0.576086
C43	C	0.453937	-0.194476	0.000024
C44	C	0.953937	0.305524	0.500024
C45	C	0.669705	-0.118137	0.000062
C46	C	1.169705	0.381863	0.500062
C47	C	0.314789	-0.111883	0.000089
C48	C	0.814789	0.388117	0.500089
C49	C	1.145813	-0.108885	0.000096
C50	C	1.645813	0.391115	0.500096
C51	C	1.239059	-0.110547	0.000098
C52	C	1.739059	0.389453	0.500098
C53	C	0.986120	-0.268577	0.000072
C54	C	1.486120	0.231423	0.500072
C55	C	0.987782	-0.361823	0.000066
C56	C	1.487782	0.138177	0.500066
N57	N	0.992216	-0.115038	0.219558
N58	N	1.492216	0.384962	0.719558
C59	C	0.912801	0.346663	0.000072
C60	C	1.412801	0.846663	0.500072
C61	C	0.951752	0.407670	0.076117
C62	C	1.451752	0.907670	0.576117
C63	C	0.993698	0.302533	0.000085
C64	C	1.493698	0.802533	0.500085
C65	C	0.951794	0.407675	-0.075935
C66	C	1.451794	0.907675	0.424065
C67	C	0.990787	0.467445	0.000074
C68	C	1.490787	0.967445	0.500074
C69	C	1.032671	0.362311	0.076193
C70	C	1.532671	0.862311	0.576193
C71	C	1.032702	0.362309	-0.075927
C72	C	1.532702	0.862309	0.424073
C73	C	1.071711	0.423298	0.000136
C74	C	1.571711	0.923298	0.500136
C75	C	0.995372	0.207530	0.000092
C76	C	1.495372	0.707530	0.500092
C77	C	0.989119	0.562446	0.000073
C78	C	1.489119	1.062446	0.500073
C79	C	0.932574	-0.174643	0.469202
C80	C	1.432574	0.325357	0.969202
C81	C	1.008473	-0.190952	0.531011
C82	C	1.508473	0.309048	1.031011
C83	C	0.992234	-0.115021	0.408719
C84	C	1.492234	0.384979	0.908719
C85	C	0.916352	-0.098736	0.531005
C86	C	1.416352	0.401264	1.031005
C87	C	0.992244	-0.115007	0.591441
C88	C	1.492244	0.384993	1.091441
C89	C	1.068171	-0.131367	0.469167
C90	C	1.568171	0.368633	0.969167
C91	C	0.976000	-0.039118	0.469156
C92	C	1.476000	0.460882	0.969156
C93	C	1.051954	-0.055394	0.530936
C94	C	1.551954	0.444606	1.030936
C95	C	0.992227	-0.115032	0.303458
C96	C	1.492227	0.384968	0.803458
C97	C	0.992260	-0.114996	0.696700
C98	C	1.492260	0.385004	1.196700
N99	N	0.992263	-0.114987	0.780608
N100	N	1.492263	0.385013	1.280608
H101	H	0.563905	0.031573	-0.000005
H102	H	1.063905	0.531573	0.499995
O103	O	0.957764	0.045871	0.433134
O104	O	1.457764	0.545871	0.933134
H105	H	1.006667	0.095449	0.458948
H106	H	1.506667	0.595449	0.958948
O107	O	0.906471	0.434306	-0.161090
O108	O	1.406471	0.934306	0.338910
H109	H	0.939460	0.415257	-0.224144
H110	H	1.439460	0.915257	0.275856
H111	H	0.845652	0.313356	0.000141
H112	H	1.345652	0.813356	0.500141
H113	H	0.917525	0.427769	0.140401
H114	H	1.417525	0.927769	0.640401
O115	O	1.026693	-0.275954	0.567026
O116	O	1.526693	0.224046	1.067026
H117	H	1.027136	-0.274950	0.643982
H118	H	1.527136	0.225050	1.143982
H119	H	0.535050	-0.189662	0.140373
H120	H	1.035050	0.310338	0.640373
H121	H	0.420779	-0.261683	-0.000023
H122	H	0.920779	0.238317	0.499977
O123	O	0.442947	-0.029239	0.161257
O124	O	0.942947	0.470761	0.661257
H125	H	0.473951	0.036697	0.161096
H126	H	0.973951	0.536697	0.661096
O127	O	0.831347	-0.080486	0.566987
O128	O	1.331347	0.419514	1.066987
H129	H	0.781937	-0.130070	0.542252
H130	H	1.281937	0.369930	1.042252
O131	O	1.118855	0.011403	0.566636
O132	O	1.618855	0.511403	1.066636
H133	H	1.181747	-0.002316	0.541738
H134	H	1.681747	0.497684	1.041738
O135	O	1.077940	0.335831	0.161453
O136	O	1.577940	0.835831	0.661453
H137	H	1.078784	0.266322	0.160807
H138	H	1.578784	0.766322	0.660807
O139	O	0.865813	-0.241479	0.433294
O140	O	1.365813	0.258521	0.933294
H141	H	0.819484	-0.211217	0.390960
H142	H	1.319484	0.288783	0.890960
H143	H	1.066899	0.342188	-0.140214
H144	H	1.566899	0.842188	0.359786
O145	O	0.442921	-0.029187	-0.161106
O146	O	0.942921	0.470813	0.338894
H147	H	0.473905	0.036757	-0.160945
H148	H	0.973905	0.536757	0.339055
O149	O	1.153204	-0.149707	0.433354
O150	O	1.653204	0.350293	0.933354
H151	H	1.145283	-0.207909	0.390538
H152	H	1.645283	0.292091	0.890538
O153	O	0.541404	-0.200683	-0.161310
O154	O	1.041404	0.299317	0.338690
H155	H	0.610914	-0.201519	-0.160671
H156	H	1.110914	0.298481	0.339329
H157	H	1.138919	0.456457	0.000186
H158	H	1.638919	0.956457	0.500186
