data_functionalizedCrystal
_audit_creation_method	'MofGen! by Chris Wilmer'
_symmetry_space_group_name_H-M	'P1'
_symmetry_Int_Tables_number	1
_symmetry_cell_setting	triclinic
loop_
_symmetry_equiv_pos_as_xyz
  x,y,z
_cell_length_a	17.699083
_cell_length_b	9.565339
_cell_length_c	17.699083
_cell_angle_alpha	90.000658
_cell_angle_beta	83.283015
_cell_angle_gamma	89.997515
loop_
_atom_site_label
_atom_site_type_symbol
_atom_site_fract_x
_atom_site_fract_y
_atom_site_fract_z
O1	O	1.004075	0.116067	0.095706
O2	O	1.504075	0.616067	0.595706
O3	O	0.783697	0.116113	0.108158
O4	O	1.283697	0.616113	0.608158
O5	O	0.900112	0.116076	-0.008257
O6	O	1.400112	0.616076	0.491743
O7	O	0.887660	0.116103	0.212121
O8	O	1.387660	0.616103	0.712121
O9	O	0.900103	-0.116444	-0.008250
O10	O	1.400103	0.383556	0.491750
O11	O	0.783688	-0.116407	0.108166
O12	O	1.283688	0.383593	0.608166
O13	O	1.004066	-0.116453	0.095713
O14	O	1.504066	0.383547	0.595713
Zn15	Zn	0.893876	-0.153348	0.101940
Zn16	Zn	1.393876	0.346652	0.601940
Zn17	Zn	0.893888	0.153007	0.101931
Zn18	Zn	1.393888	0.653007	0.601931
O19	O	0.887651	-0.116417	0.212128
O20	O	1.387651	0.383583	0.712128
C21	C	0.755495	-0.000141	0.107716
C22	C	1.255495	0.499859	0.607716
C23	C	0.671477	-0.000124	0.106377
C24	C	1.171477	0.499876	0.606377
N25	N	0.893873	-0.362427	0.101946
N26	N	1.393873	0.137573	0.601946
C27	C	0.622856	-0.000116	0.174710
C28	C	1.122856	0.499884	0.674710
C29	C	0.543913	-0.000134	0.173448
C30	C	1.043913	0.499866	0.673448
C31	C	0.513592	-0.000151	0.103852
C32	C	1.013592	0.499849	0.603852
C33	C	0.562219	-0.000163	0.035513
C34	C	1.062219	0.499837	0.535513
C35	C	0.641161	-0.000155	0.036776
C36	C	1.141161	0.499845	0.536776
C37	C	0.243856	-0.000198	0.030418
C38	C	0.743856	0.499802	0.530418
C39	C	0.164908	-0.000202	0.029160
C40	C	0.664908	0.499798	0.529160
C41	C	0.146608	-0.000178	0.167090
C42	C	0.646608	0.499822	0.667090
C43	C	0.225550	-0.000170	0.168353
C44	C	0.725550	0.499830	0.668353
C45	C	0.274170	-0.000189	0.100015
C46	C	0.774170	0.499811	0.600015
C47	C	0.359769	-0.000172	0.101384
C48	C	0.859769	0.499828	0.601384
C49	C	0.427995	-0.000158	0.102481
C50	C	0.927995	0.499842	0.602481
C51	C	0.840018	-0.453613	0.155767
C52	C	1.340018	0.046387	0.655767
C53	C	0.908386	-0.546805	0.170327
C54	C	1.408386	-0.046805	0.670327
C55	C	0.825535	-0.546791	0.087392
C56	C	1.325535	-0.046791	0.587392
C57	C	0.962274	-0.453567	0.116541
C58	C	1.462274	0.046433	0.616541
C59	C	0.879379	-0.453545	0.033576
C60	C	1.379379	0.046455	0.533576
C61	C	0.947796	-0.546694	0.048107
C62	C	1.447796	-0.046694	0.548107
C63	C	1.032268	-0.000196	0.096156
C64	C	1.532268	0.499804	0.596156
C65	C	1.116286	-0.000204	0.097494
C66	C	1.616286	0.499796	0.597494
C67	C	0.899662	-0.000184	-0.036451
C68	C	1.399662	0.499816	0.463549
C69	C	0.898323	-0.000184	-0.120469
C70	C	1.398323	0.499816	0.379531
N71	N	0.893896	0.362087	0.101919
N72	N	1.393896	0.862087	0.601919
C73	C	0.966656	-0.000201	-0.169090
C74	C	1.466656	0.499799	0.330910
C75	C	0.965394	-0.000188	-0.248033
C76	C	1.465394	0.499812	0.251967
C77	C	0.895798	-0.000169	-0.278354
C78	C	1.395798	0.499831	0.221646
C79	C	0.827459	-0.000149	-0.229727
C80	C	1.327459	0.499851	0.270273
C81	C	0.828722	-0.000151	-0.150785
C82	C	1.328722	0.499849	0.349215
C83	C	0.822364	-0.000136	-0.548090
C84	C	1.322364	0.499864	-0.048090
C85	C	0.821106	-0.000138	-0.627038
C86	C	1.321106	0.499862	-0.127038
C87	C	0.959036	-0.000173	-0.645338
C88	C	1.459036	0.499827	-0.145338
C89	C	0.960299	-0.000175	-0.566396
C90	C	1.460299	0.499825	-0.066396
C91	C	0.891961	-0.000148	-0.517776
C92	C	1.391961	0.499852	-0.017776
C93	C	0.893330	-0.000159	-0.432177
C94	C	1.393330	0.499841	0.067823
C95	C	0.894427	-0.000168	-0.363951
C96	C	1.394427	0.499832	0.136049
C97	C	0.888102	-0.000153	0.240322
C98	C	1.388102	0.499847	0.740322
C99	C	0.889440	-0.000144	0.324340
C100	C	1.389440	0.499856	0.824340
H101	H	0.647537	-0.000102	0.231384
H102	H	1.147537	0.499898	0.731384
H103	H	0.107012	-0.000169	0.222734
H104	H	0.607012	0.499831	0.722734
H105	H	0.920661	-0.587768	0.228135
H106	H	1.420661	-0.087768	0.728135
H107	H	0.773078	-0.000138	-0.111198
H108	H	1.273078	0.499862	0.388802
H109	H	1.023330	-0.000225	-0.144409
H110	H	1.523330	0.499775	0.355591
H111	H	0.537526	-0.000196	-0.021154
H112	H	1.037526	0.499804	0.478846
H113	H	0.770792	-0.000124	-0.254420
H114	H	1.270792	0.499876	0.245580
H115	H	0.504328	-0.000126	0.229092
H116	H	1.004328	0.499874	0.729092
H117	H	1.021038	-0.000204	-0.287618
H118	H	1.521038	0.499796	0.212382
H119	H	0.993398	-0.587307	0.002578
H120	H	1.493398	-0.087307	0.502578
H121	H	0.794517	-0.412744	0.201323
H122	H	1.294517	0.087256	0.701323
H123	H	1.020089	-0.412789	0.128909
H124	H	1.520089	0.087211	0.628909
H125	H	0.867083	-0.412549	-0.024213
H126	H	1.367083	0.087451	0.475787
H127	H	0.767734	-0.587745	0.075094
H128	H	1.267734	-0.087745	0.575094
H129	H	1.014680	-0.000188	-0.684934
H130	H	1.514680	0.499812	-0.184934
H131	H	0.250232	-0.000150	0.225025
H132	H	0.750232	0.499850	0.725025
H133	H	0.140225	-0.000217	-0.027517
H134	H	0.640225	0.499783	0.472483
H135	H	1.016971	-0.000198	-0.541714
H136	H	1.516971	0.499802	-0.041714
H137	H	0.764429	-0.000125	-0.651721
H138	H	1.264429	0.499875	-0.151721
H139	H	0.766718	-0.000114	-0.508512
H140	H	1.266718	0.499886	-0.008512
H141	H	0.680748	-0.000160	-0.018868
H142	H	1.180748	0.499840	0.481132
H143	H	0.283434	-0.000215	-0.025228
H144	H	0.783434	0.499785	0.474772
