data_functionalizedCrystal
_audit_creation_method	'MofGen! by Chris Wilmer'
_symmetry_space_group_name_H-M	'P1'
_symmetry_Int_Tables_number	1
_symmetry_cell_setting	triclinic
loop_
_symmetry_equiv_pos_as_xyz
  x,y,z
_cell_length_a	16.704494
_cell_length_b	21.606444
_cell_length_c	21.606444
_cell_angle_alpha	90.002006
_cell_angle_beta	63.427255
_cell_angle_gamma	56.634334
loop_
_atom_site_label
_atom_site_type_symbol
_atom_site_fract_x
_atom_site_fract_y
_atom_site_fract_z
Zr1	Zr	0.878558	-0.116071	0.631109
O2	O	1.046002	-0.221539	0.538931
O3	O	0.711109	-0.079132	0.654757
O4	O	0.878552	-0.214893	0.661404
O5	O	0.878565	0.016071	0.532284
O6	O	0.878552	-0.214891	0.763256
O7	O	0.878560	-0.085778	0.532284
O8	O	0.579027	0.027960	0.751366
O9	O	1.178090	-0.226780	0.544174
O10	O	0.779985	-0.068943	0.746423
O11	O	0.779989	0.007065	0.670412
O12	O	0.977131	-0.152776	0.678238
O13	O	0.977136	-0.076768	0.602227
Zr14	Zr	0.878567	0.046370	0.793551
Zr15	Zr	0.878558	-0.116068	0.793551
Zr16	Zr	0.878567	0.046367	0.631109
Zr17	Zr	1.089222	-0.124430	0.639471
Zr18	Zr	0.667902	0.054729	0.785189
O19	O	1.046015	0.009431	0.769903
O20	O	1.046002	-0.221536	0.769903
O21	O	1.046015	0.009427	0.538931
O22	O	0.711122	0.151838	0.885729
O23	O	0.711109	-0.079128	0.885729
O24	O	0.711122	0.151834	0.654757
O25	O	0.878559	-0.085773	0.892376
O26	O	0.878572	0.145192	0.763256
O27	O	0.878572	0.145190	0.661404
O28	O	0.878565	0.016077	0.892376
O29	O	1.178090	-0.226778	0.673294
O30	O	0.579035	0.157077	0.751366
O31	O	0.579034	0.157079	0.880486
O32	O	0.579027	0.027962	0.880486
O33	O	1.178097	-0.097664	0.544175
O34	O	1.178097	-0.097662	0.673294
O35	O	0.779993	0.083075	0.746423
O36	O	0.779989	0.007067	0.822434
O37	O	0.977135	-0.076766	0.754249
O38	O	0.977140	-0.000758	0.678238
C39	C	0.615053	-0.024395	0.701870
C40	C	0.525621	-0.020846	0.698320
C41	C	0.878562	-0.034854	0.509140
C42	C	0.878563	-0.034855	0.440179
C43	C	0.878574	0.168335	0.712330
C44	C	0.878577	0.237294	0.712330
C45	C	0.357547	-0.093525	0.771022
C46	C	0.273517	-0.090193	0.767689
C47	C	0.273524	-0.010845	0.688324
C48	C	0.357554	-0.014177	0.691658
C49	C	0.399563	-0.055520	0.733007
C50	C	0.483601	-0.058856	0.736336
C51	C	0.483600	0.020496	0.656976
C52	C	0.399570	0.023828	0.653643
C53	C	1.142071	-0.045307	0.722790
C54	C	1.231504	-0.048855	0.726340
C55	C	0.878551	-0.238036	0.712330
C56	C	0.878547	-0.306995	0.712330
C57	C	0.981485	0.225933	0.676740
C58	C	0.981482	0.290731	0.676736
C59	C	0.878570	0.366888	0.712328
C60	C	0.775654	0.378248	0.747920
C61	C	0.775658	0.313451	0.747918
C62	C	0.775634	0.639567	0.747925
C63	C	0.775638	0.704365	0.747925
C64	C	0.981458	0.616847	0.676743
C65	C	0.981462	0.552050	0.676742
C66	C	0.878547	0.563415	0.712329
C67	C	0.878552	0.493153	0.712332
C68	C	0.878564	0.437149	0.712331
C69	C	0.878563	-0.090967	0.407781
C70	C	0.878557	-0.090964	0.342986
C71	C	0.878559	-0.034852	0.310589
C72	C	0.878556	0.021266	0.342993
C73	C	0.878553	0.021266	0.407789
C74	C	0.878564	0.021268	0.081680
C75	C	0.878570	0.021263	0.016878
C76	C	0.878568	-0.090961	0.016877
C77	C	0.878565	-0.090961	0.081673
C78	C	0.878556	-0.034842	0.114073
C79	C	0.878560	-0.034844	0.184331
C80	C	0.878563	-0.034852	0.240329
C81	C	0.878562	-0.034847	0.915520
C82	C	0.878562	-0.034846	0.984481
C83	C	0.615053	-0.024391	0.905060
C84	C	0.525620	-0.020842	0.970471
C85	C	0.615065	0.178791	0.701870
C86	C	0.525636	0.251299	0.698320
C87	C	0.615064	0.178794	0.905061
C88	C	0.525635	0.251303	0.970472
C89	C	1.142060	-0.248495	0.519600
C90	C	1.231489	-0.321004	0.454189
C91	C	1.142071	-0.045310	0.519600
C92	C	1.231504	-0.048859	0.454189
C93	C	1.142060	-0.248492	0.722790
C94	C	1.231488	-0.321000	0.726340
C95	C	0.483620	-0.058858	0.961512
C96	C	0.399600	-0.055538	1.022967
C97	C	0.357576	-0.014197	1.093380
C98	C	0.399585	0.023820	1.102338
C99	C	0.483609	0.020495	1.040884
C100	C	0.483641	0.325033	0.736330
C101	C	0.399625	0.393167	0.732992
C102	C	0.357600	0.387567	0.691648
C103	C	0.399602	0.313825	0.653634
C104	C	0.483623	0.245692	0.656968
C105	C	0.483637	0.245679	1.040873
C106	C	0.399620	0.313802	1.102340
C107	C	0.357599	0.387549	1.093404
C108	C	0.399606	0.393171	1.022995
C109	C	0.483627	0.325049	0.961530
C110	C	1.273498	-0.315380	0.383788
C111	C	1.357540	-0.383504	0.322322
C112	C	1.399566	-0.457252	0.331258
C113	C	1.357553	-0.462874	0.401666
C114	C	1.273518	-0.394751	0.463131
C115	C	1.273513	-0.010850	0.463149
C116	C	1.357557	-0.014189	0.401695
C117	C	1.399583	-0.055532	0.331282
C118	C	1.357570	-0.093546	0.322323
C119	C	1.273534	-0.090212	0.383777
C120	C	1.273488	-0.315374	0.767691
C121	C	1.357504	-0.383496	0.771041
C122	C	1.399526	-0.457244	0.733035
C123	C	1.357518	-0.462868	0.691683
C124	C	1.273498	-0.394746	0.688338
H125	H	0.517807	-0.092522	0.770003
Cl126	Cl	0.346801	-0.103332	1.011688
Cl127	Cl	0.346738	0.075809	0.601672
H128	H	0.365380	0.453225	1.015730
Cl129	Cl	0.878555	-0.161505	0.302257
H130	H	0.289158	-0.011496	1.143413
Cl131	Cl	0.346824	0.306715	1.190845
H132	H	0.365358	0.057479	1.159677
Cl133	Cl	1.110839	0.602562	0.631999
H134	H	1.239311	-0.399338	0.654662
Cl135	Cl	0.536392	0.068299	1.052160
H136	H	0.517811	0.329639	0.904208
H137	H	1.239285	-0.255338	0.376497
Cl138	Cl	0.536453	0.332094	0.788313
H139	H	0.391760	-0.127194	0.804685
H140	H	0.365437	0.453204	0.763951
Cl141	Cl	0.536435	0.068269	0.609176
Cl142	Cl	0.251970	0.473183	1.170683
H143	H	0.878551	0.066959	0.434167
H144	H	1.391733	-0.378911	0.264998
H145	H	1.467992	-0.512716	0.281203
H146	H	0.289185	0.443051	0.688939
Cl147	Cl	0.220696	-0.137972	0.815483
H148	H	1.065280	0.281474	0.647756
H149	H	1.239315	-0.399339	0.520453
Cl150	Cl	1.410394	-0.555591	0.412888
Cl151	Cl	1.220704	0.041126	0.551661
H152	H	1.391749	0.016771	0.409003
Cl153	Cl	1.410303	-0.376408	0.823025
H154	H	1.468010	-0.058241	0.281249
Cl155	Cl	0.646253	0.800109	0.792670
H156	H	1.065288	0.163925	0.647760
Cl157	Cl	0.346755	0.306797	0.601663
Cl158	Cl	1.410410	-0.145514	0.233798
H159	H	1.239332	-0.121162	0.376471
Cl160	Cl	0.536436	-0.110840	0.873000
H161	H	1.065264	0.490041	0.647762
Cl162	Cl	1.220676	-0.222671	0.815477
Cl163	Cl	1.505157	-0.542876	0.737246
Cl164	Cl	0.646255	0.653863	0.792665
Cl165	Cl	1.410369	-0.555587	0.643901
H166	H	0.517804	0.185657	0.626018
H167	H	0.517838	0.185636	1.048163
H168	H	0.691861	0.440261	0.776896
Cl169	Cl	0.646283	0.327735	0.792660
Cl170	Cl	0.220659	0.041155	0.636375
H171	H	0.878569	-0.136655	0.108047
Cl172	Cl	0.878573	-0.161511	-0.023856
Cl173	Cl	0.878568	-0.161516	0.448499
H174	H	0.878570	0.066959	-0.009498
H175	H	0.878550	0.066957	0.316614
Cl176	Cl	0.878559	0.091814	0.122405
