data_functionalizedCrystal
_audit_creation_method	'MofGen! by Chris Wilmer'
_symmetry_space_group_name_H-M	'P1'
_symmetry_Int_Tables_number	1
_symmetry_cell_setting	triclinic
loop_
_symmetry_equiv_pos_as_xyz
  x,y,z
_cell_length_a	14.853558
_cell_length_b	23.532357
_cell_length_c	13.330367
_cell_angle_alpha	89.989812
_cell_angle_beta	89.992972
_cell_angle_gamma	83.229713
loop_
_atom_site_label
_atom_site_type_symbol
_atom_site_fract_x
_atom_site_fract_y
_atom_site_fract_z
O1	O	1.195540	0.074329	-0.083424
O2	O	0.932980	0.083192	-0.083430
O3	O	1.072201	-0.004138	-0.083406
O4	O	1.056319	0.161660	-0.083448
O5	O	1.072181	-0.004140	0.083441
O6	O	0.932960	0.083190	0.083417
O7	O	1.195520	0.074327	0.083423
Cu8	Cu	1.064238	0.078759	0.098655
Cu9	Cu	1.064262	0.078761	-0.098661
O10	O	1.056299	0.161658	0.083399
C11	C	0.899385	0.082791	-0.000007
C12	C	0.799315	0.081590	-0.000008
C13	C	1.071794	-0.025358	0.000021
C14	C	1.070599	-0.088582	0.000030
C15	C	0.752312	0.081028	-0.090960
C16	C	0.752288	0.081019	0.090943
C17	C	0.658267	0.079888	0.090945
C18	C	0.611265	0.079326	-0.000007
C19	C	0.658283	0.079895	-0.090961
C20	C	0.611244	0.079313	0.181897
C21	C	0.517217	0.078181	0.181903
C22	C	0.470212	0.077624	0.090949
C23	C	0.517235	0.078193	-0.000008
C24	C	0.470232	0.077631	-0.090960
C25	C	0.517253	0.078205	-0.181919
C26	C	0.611277	0.079337	-0.181915
C27	C	0.376188	0.076491	0.090945
C28	C	0.376203	0.076499	-0.090961
C29	C	1.063112	-0.480624	-0.090973
C30	C	1.061977	-0.540029	-0.090979
O31	O	1.061368	-0.570747	-0.168327
N32	N	1.061403	-0.569743	-0.000031
C33	C	1.061955	-0.540050	0.090927
O34	O	1.061362	-0.570779	0.168284
C35	C	1.063084	-0.480646	0.090932
C36	C	1.063667	-0.450935	-0.000021
C37	C	1.063694	-0.450913	-0.181918
C38	C	1.064831	-0.391513	-0.181912
C39	C	1.065386	-0.361824	-0.090961
C40	C	1.064804	-0.391535	-0.000015
C41	C	1.063630	-0.450953	0.181890
C42	C	1.064758	-0.391545	0.181887
C43	C	1.065341	-0.361834	0.090934
C44	C	1.066496	-0.302446	0.090943
N45	N	1.067070	-0.272731	-0.000004
C46	C	1.066515	-0.302420	-0.090956
C47	C	1.059583	-0.664802	0.090911
C48	C	1.058460	-0.724205	0.090907
C49	C	1.058480	-0.724180	-0.090999
C50	C	1.059609	-0.664776	-0.090995
C51	C	1.060157	-0.635087	-0.000037
C52	C	1.068903	-0.177676	-0.090936
C53	C	1.070044	-0.118271	-0.090922
C54	C	1.070019	-0.118301	0.090984
C55	C	1.068883	-0.177701	0.090970
C56	C	1.068322	-0.207387	0.000002
O57	O	1.067101	-0.271690	0.168252
O58	O	1.067096	-0.271683	-0.168300
C59	C	1.229114	0.074729	-0.000002
C60	C	1.329185	0.075929	-0.000007
C61	C	1.056706	0.182877	-0.000030
C62	C	1.057900	0.246101	-0.000046
N63	N	1.064228	0.078757	0.237436
N64	N	1.064279	0.078758	-0.237443
C65	C	1.002612	0.117416	0.710048
C66	C	1.125936	0.040102	0.710038
C67	C	1.125925	0.040100	0.605019
C68	C	1.064259	0.078757	0.552511
C69	C	1.002602	0.117416	0.605020
C70	C	1.187587	0.001445	0.552502
C71	C	1.187580	0.001443	0.447477
C72	C	1.125908	0.040098	0.394966
C73	C	1.064248	0.078758	0.447483
C74	C	1.002581	0.117415	0.394974
C75	C	0.940917	0.156073	0.447488
C76	C	0.940930	0.156071	0.552510
C77	C	1.125895	0.040099	0.289945
C78	C	1.002571	0.117416	0.289946
H79	H	0.337939	0.076044	-0.165026
H80	H	1.068417	-0.201894	0.165032
C81	C	1.207595	-0.076160	0.329673
C82	C	1.255251	-0.041179	0.389882
H83	H	1.249342	-0.102509	0.294149
H84	H	1.170158	-0.096555	0.370752
H85	H	1.170975	-0.053140	0.283273
H86	H	1.291866	-0.064199	0.436287
H87	H	1.292703	-0.020782	0.348799
H88	H	0.649521	0.079766	0.255945
H89	H	1.065302	-0.367328	-0.255976
H90	H	0.478972	0.077745	-0.255972
C91	C	0.886155	0.190399	0.286494
C92	C	0.873133	0.198565	0.389763
H93	H	0.844306	0.216629	0.250857
H94	H	0.946255	0.196656	0.269281
H95	H	0.876721	0.152376	0.269308
H96	H	0.882574	0.236587	0.406951
H97	H	0.813019	0.192313	0.406983
C98	C	0.742825	0.080891	0.270746
C99	C	0.803952	0.081631	0.190914
H100	H	0.774725	0.081265	0.332466
H101	H	0.698974	0.113634	0.266962
H102	H	0.713331	0.047264	0.266958
H103	H	0.833441	0.115260	0.194698
H104	H	0.847818	0.048885	0.194700
H105	H	1.063156	-0.475134	0.255954
C106	C	0.770677	0.130311	-0.246008
C107	C	0.803995	0.081662	-0.190937
H108	H	0.802590	0.130703	-0.307727
H109	H	0.707963	0.129548	-0.259023
H110	H	0.778899	0.163674	-0.208628
H111	H	0.795767	0.048298	-0.228315
H112	H	0.866724	0.082419	-0.177926
H113	H	1.237799	-0.030026	0.595258
C114	C	0.526647	0.078292	0.361710
C115	C	0.465534	0.077559	0.281881
H116	H	0.494736	0.077913	0.423432
H117	H	0.570498	0.045549	0.357936
H118	H	0.556142	0.111919	0.357910
H119	H	0.436044	0.043930	0.285677
H120	H	0.421667	0.110305	0.285658
C121	C	1.063844	-0.444907	-0.361716
C122	C	1.063092	-0.483541	-0.281905
H123	H	1.063483	-0.465049	-0.423447
H124	H	1.011704	-0.417437	-0.357931
H125	H	1.116864	-0.426039	-0.357905
H126	H	1.010068	-0.502406	-0.285712
H127	H	1.115237	-0.511021	-0.285692
H128	H	1.060083	-0.640589	-0.165057
H129	H	0.649570	0.079804	-0.255968
C130	C	0.886202	0.190405	0.713504
C131	C	0.873161	0.198567	0.610235
H132	H	0.844370	0.216644	0.749142
H133	H	0.876762	0.152390	0.730727
H134	H	0.946316	0.196657	0.730680
H135	H	0.813049	0.192311	0.593058
H136	H	0.882594	0.236591	0.593005
C137	C	1.056737	-0.815234	-0.171765
C138	C	1.057859	-0.756821	-0.190978
H139	H	1.056347	-0.835385	-0.233485
H140	H	1.109126	-0.829275	-0.134404
H141	H	1.003966	-0.820657	-0.134388
H142	H	1.110633	-0.751397	-0.228348
H143	H	1.005464	-0.742776	-0.228355
H144	H	0.952351	0.148893	0.247200
C145	C	1.064598	-0.397540	0.361695
C146	C	1.065352	-0.358912	0.281874
H147	H	1.064967	-0.377393	0.423420
H148	H	1.011582	-0.416403	0.357893
H149	H	1.116742	-0.425014	0.357912
H150	H	1.013203	-0.331439	0.285652
H151	H	1.118373	-0.340039	0.285677
H152	H	1.060031	-0.640633	0.164984
C153	C	1.179775	-0.058430	0.742395
C154	C	1.193709	-0.002392	0.767757
H155	H	1.221618	-0.084666	0.778029
H156	H	1.119673	-0.064673	0.759623
H157	H	1.188600	-0.063958	0.672331
H158	H	1.184877	0.003137	0.837819
H159	H	1.253826	0.003853	0.750535
H160	H	0.337906	0.076030	0.165002
H161	H	1.057999	-0.748392	0.164970
C162	C	1.069018	-0.171666	-0.270743
C163	C	1.068272	-0.210299	-0.190929
H164	H	1.068631	-0.191807	-0.332472
H165	H	1.016889	-0.144188	-0.266941
H166	H	1.122049	-0.152808	-0.266952
H167	H	1.015237	-0.229154	-0.194716
H168	H	1.120406	-0.237787	-0.194732
H169	H	1.176105	0.008627	0.247192
C170	C	1.071735	-0.027244	0.171742
C171	C	1.070623	-0.085658	0.190955
H172	H	1.072097	-0.007091	0.233462
H173	H	1.124506	-0.021816	0.134387
H174	H	1.019346	-0.013209	0.134359
H175	H	1.123016	-0.099694	0.228332
H176	H	1.017847	-0.091090	0.228325
H177	H	1.070521	-0.094083	-0.164990
H178	H	0.952403	0.148889	0.752808
