data_functionalizedCrystal
_audit_creation_method	'MofGen! by Chris Wilmer'
_symmetry_space_group_name_H-M	'P1'
_symmetry_Int_Tables_number	1
_symmetry_cell_setting	triclinic
loop_
_symmetry_equiv_pos_as_xyz
  x,y,z
_cell_length_a	14.971486
_cell_length_b	14.971506
_cell_length_c	9.130313
_cell_angle_alpha	89.997059
_cell_angle_beta	90.001434
_cell_angle_gamma	83.618258
loop_
_atom_site_label
_atom_site_type_symbol
_atom_site_fract_x
_atom_site_fract_y
_atom_site_fract_z
O1	O	1.186952	0.116561	-0.121626
O2	O	1.686952	0.616561	0.378374
O3	O	0.926553	0.130520	-0.121665
O4	O	1.426553	0.630520	0.378335
O5	O	1.063722	-0.006658	-0.121640
O6	O	1.563722	0.493342	0.378360
O7	O	1.049782	0.253740	-0.121650
O8	O	1.549782	0.753740	0.378350
O9	O	1.063713	-0.006662	0.121958
O10	O	1.563713	0.493338	0.621958
O11	O	0.926543	0.130516	0.121934
O12	O	1.426543	0.630516	0.621934
O13	O	1.186943	0.116557	0.121973
O14	O	1.686943	0.616557	0.621973
Cu15	Cu	1.056742	0.123536	0.144196
Cu16	Cu	1.556742	0.623536	0.644196
Cu17	Cu	1.056753	0.123541	-0.143888
Cu18	Cu	1.556753	0.623541	0.356112
O19	O	1.049773	0.253736	0.121949
O20	O	1.549773	0.753736	0.621949
C21	C	0.893223	0.129894	0.000129
C22	C	1.393223	0.629894	0.500129
C23	C	0.793926	0.128023	0.000114
C24	C	1.293926	0.628023	0.500114
C25	C	0.736707	0.208612	0.000113
C26	C	1.236707	0.708612	0.500113
C27	C	0.643407	0.206849	0.000135
C28	C	1.143407	0.706849	0.500135
C29	C	0.607329	0.124496	0.000148
C30	C	1.107329	0.624496	0.500148
C31	C	0.664556	0.043901	0.000153
C32	C	1.164556	0.543901	0.500153
C33	C	0.757853	0.045665	0.000142
C34	C	1.257853	0.545665	0.500142
C35	C	0.470093	0.040230	0.000173
C36	C	0.970093	0.540230	0.500173
C37	C	0.376789	0.038466	0.000182
C38	C	0.876789	0.538466	0.500182
C39	C	0.355647	0.201414	0.000167
C40	C	0.855647	0.701414	0.500167
C41	C	0.448944	0.203178	0.000156
C42	C	0.948944	0.703178	0.500156
C43	C	0.506165	0.122582	0.000158
C44	C	1.006165	0.622582	0.500158
C45	C	1.063091	-0.039984	0.000157
C46	C	1.563091	0.460016	0.500157
C47	C	1.061213	-0.139281	0.000150
C48	C	1.561213	0.360719	0.500150
C49	C	1.134631	-0.577563	0.000162
C50	C	1.634631	-0.077563	0.500162
C51	C	1.136389	-0.484263	0.000172
C52	C	1.636389	0.015737	0.500172
C53	C	1.055796	-0.427043	0.000154
C54	C	1.555796	0.072957	0.500154
C55	C	0.973441	-0.463127	0.000142
C56	C	1.473441	0.036873	0.500142
C57	C	0.971685	-0.556426	0.000143
C58	C	1.471685	-0.056426	0.500143
C59	C	0.977108	-0.268664	0.000137
C60	C	1.477108	0.231336	0.500137
C61	C	0.978864	-0.175359	0.000134
C62	C	1.478864	0.324641	0.500134
C63	C	1.141812	-0.196501	0.000166
C64	C	1.641812	0.303499	0.500166
C65	C	1.140055	-0.289800	0.000166
C66	C	1.640055	0.210200	0.500166
C67	C	1.057700	-0.325878	0.000152
C68	C	1.557700	0.174122	0.500152
C69	C	1.220272	0.117184	0.000176
C70	C	1.720272	0.617184	0.500176
C71	C	1.319569	0.119054	0.000181
C72	C	1.819569	0.619054	0.500181
C73	C	1.050404	0.287062	0.000148
C74	C	1.550404	0.787062	0.500148
C75	C	1.052282	0.386358	0.000145
C76	C	1.552282	0.886358	0.500145
N77	N	1.056741	0.123533	0.346819
N78	N	1.556741	0.623533	0.846819
N79	N	1.056762	0.123538	-0.346510
N80	N	1.556762	0.623538	0.153490
C81	C	1.117500	0.062816	0.423481
C82	C	1.617500	0.562816	0.923481
C83	C	1.117508	0.062816	0.576818
C84	C	1.617508	0.562816	1.076818
C85	C	0.995996	0.184258	0.576816
C86	C	1.495996	0.684258	1.076816
C87	C	0.995984	0.184253	0.423482
C88	C	1.495984	0.684253	0.923482
H89	H	0.516680	-0.025399	0.000178
H90	H	1.016680	0.474601	0.500178
H91	H	0.946502	0.233696	0.361059
H92	H	1.446502	0.733696	0.861059
C93	C	1.184321	-0.003981	0.339156
C94	C	1.684321	0.496019	0.839156
H95	H	1.220502	-0.040147	0.406781
H96	H	1.720502	0.459853	0.906781
H97	H	1.221585	0.028251	0.279325
H98	H	1.721585	0.528251	0.779325
H99	H	1.152095	-0.041274	0.279358
H100	H	1.652095	0.458726	0.779358
H101	H	0.907821	-0.416531	0.000137
H102	H	1.407821	0.083469	0.500137
C103	C	0.881103	-0.596117	0.000123
C104	C	1.381103	-0.096117	0.500123
H105	H	0.891599	-0.659877	0.000141
H106	H	1.391599	-0.159877	0.500141
H107	H	0.847918	-0.576485	-0.084830
H108	H	1.347918	-0.076485	0.415170
H109	H	0.847914	-0.576485	0.085077
H110	H	1.347914	-0.076485	0.585077
C111	C	0.929177	0.251052	0.661150
C112	C	1.429177	0.751052	1.161150
H113	H	0.937892	0.242367	0.763451
H114	H	1.437892	0.742367	1.263451
H115	H	0.869471	0.241241	0.636038
H116	H	1.369471	0.741241	1.136038
H117	H	0.938961	0.310766	0.636003
H118	H	1.438961	0.810766	1.136003
C119	C	0.776385	0.299201	0.000099
C120	C	1.276385	0.799201	0.500099
H121	H	0.728941	0.346943	0.000115
H122	H	1.228941	0.846943	0.500115
H123	H	0.812335	0.303279	-0.084853
H124	H	1.312335	0.803279	0.415147
H125	H	0.812344	0.303274	0.085054
H126	H	1.312344	0.803274	0.585054
C127	C	0.580469	0.295496	0.000129
C128	C	1.080469	0.795496	0.500129
H129	H	0.615319	0.344794	0.000102
H130	H	1.115319	0.844794	0.500102
H131	H	0.543640	0.298199	0.085083
H132	H	1.043640	0.798199	0.585083
H133	H	0.543629	0.298193	-0.084824
H134	H	1.043629	0.798193	0.415176
C135	C	0.337103	-0.052119	0.000204
C136	C	0.837103	0.447881	0.500204
H137	H	0.384542	-0.099866	0.000224
H138	H	0.884542	0.400134	0.500224
H139	H	0.301144	-0.056196	-0.084740
H140	H	0.801144	0.443804	0.415260
H141	H	0.301151	-0.056186	0.085167
H142	H	0.801151	0.443814	0.585167
H143	H	0.478316	0.270236	0.000132
H144	H	0.978316	0.770236	0.500132
H145	H	0.635173	-0.023152	0.000184
H146	H	1.135173	0.476848	0.500184
C147	C	0.820795	-0.042982	0.000128
C148	C	1.320795	0.457018	0.500128
H149	H	0.785947	-0.092281	0.000121
H150	H	1.285947	0.407719	0.500121
H151	H	0.857638	-0.045685	0.085069
H152	H	1.357638	0.454315	0.585069
H153	H	0.857621	-0.045675	-0.084838
H154	H	1.357621	0.454325	0.415162
C155	C	1.223284	-0.640497	0.000182
C156	C	1.723284	-0.140497	0.500182
H157	H	1.272579	-0.605644	0.000208
H158	H	1.772579	-0.105644	0.500208
H159	H	1.225995	-0.677332	-0.084763
H160	H	1.725995	-0.177332	0.415237
H161	H	1.225978	-0.677331	0.085144
H162	H	1.725978	-0.177331	0.585144
H163	H	1.203445	-0.454893	0.000187
H164	H	1.703445	0.045107	0.500187
C165	C	0.292709	0.290066	0.000168
C166	C	0.792709	0.790066	0.500168
H167	H	0.231976	0.277224	0.000193
H168	H	0.731976	0.777224	0.500193
H169	H	0.303648	0.323828	-0.084788
H170	H	0.803648	0.823828	0.415212
H171	H	0.303661	0.323832	0.085119
H172	H	0.803661	0.823832	0.585119
H173	H	1.205681	-0.336387	0.000171
H174	H	1.705681	0.163613	0.500171
H175	H	1.208869	-0.167123	0.000043
H176	H	1.708869	0.332877	0.500043
C177	C	1.184347	-0.003970	0.661141
C178	C	1.684347	0.496030	1.161141
H179	H	1.220531	-0.040126	0.593518
H180	H	1.720531	0.459874	1.093518
H181	H	1.152142	-0.041259	0.720969
H182	H	1.652142	0.458741	1.220969
H183	H	1.221618	0.028278	0.720943
H184	H	1.721618	0.528278	1.220943
H185	H	0.910045	-0.298035	0.000145
H186	H	1.410045	0.201965	0.500145
C187	C	0.890218	-0.112415	0.000133
C188	C	1.390218	0.387585	0.500133
H189	H	0.903062	-0.051684	0.000121
H190	H	1.403062	0.448316	0.500121
H191	H	0.856455	-0.123363	0.085082
H192	H	1.356455	0.376637	0.585082
H193	H	0.856452	-0.123358	-0.084825
H194	H	1.356452	0.376642	0.415175
