data_functionalizedCrystal
_audit_creation_method	'MofGen! by Chris Wilmer'
_symmetry_space_group_name_H-M	'P1'
_symmetry_Int_Tables_number	1
_symmetry_cell_setting	triclinic
loop_
_symmetry_equiv_pos_as_xyz
  x,y,z
_cell_length_a	8.559649
_cell_length_b	8.559649
_cell_length_c	7.088929
_cell_angle_alpha	84.655305
_cell_angle_beta	95.325015
_cell_angle_gamma	69.778664
loop_
_atom_site_label
_atom_site_type_symbol
_atom_site_fract_x
_atom_site_fract_y
_atom_site_fract_z
O1	O	2.108185	-0.036318	-0.158958
O2	O	1.632699	0.047464	-0.158966
O3	O	1.912333	-0.232170	-0.158956
O4	O	1.828551	0.243316	-0.158967
O5	O	1.949713	-0.269616	0.159020
O6	O	1.670079	0.010018	0.159011
O7	O	2.145565	-0.073764	0.159019
Cu8	Cu	1.911235	-0.035292	0.188049
Cu9	Cu	1.867029	0.008992	-0.187995
O10	O	1.865930	0.205870	0.159010
C11	C	1.937372	-0.311202	0.000029
C12	C	1.956270	-0.490900	0.000021
C13	C	1.591080	0.035090	0.000021
C14	C	1.411380	0.053990	0.000018
C15	C	2.187183	-0.061390	0.000028
C16	C	2.366882	-0.080288	0.000018
C17	C	1.840891	0.284902	0.000020
C18	C	1.821992	0.464602	0.000016
N19	N	1.942338	-0.066441	0.452538
N20	N	1.835940	0.040127	-0.452484
H21	H	2.085691	-0.590279	0.000030
H22	H	1.725671	0.150563	0.465866
C23	C	2.091324	-0.215640	0.562851
N24	N	2.203537	-0.328017	0.645941
H25	H	1.692565	-0.436011	0.000028
H26	H	1.466259	-0.209707	0.000012
H27	H	1.311990	0.183419	0.000005
