data_functionalizedCrystal
_audit_creation_method	'MofGen! by Chris Wilmer'
_symmetry_space_group_name_H-M	'P1'
_symmetry_Int_Tables_number	1
_symmetry_cell_setting	triclinic
loop_
_symmetry_equiv_pos_as_xyz
  x,y,z
_cell_length_a	16.109318
_cell_length_b	8.597304
_cell_length_c	15.186229
_cell_angle_alpha	82.296375
_cell_angle_beta	90.000224
_cell_angle_gamma	84.406681
loop_
_atom_site_label
_atom_site_type_symbol
_atom_site_fract_x
_atom_site_fract_y
_atom_site_fract_z
O1	O	1.104792	0.201860	-0.088467
O2	O	1.604792	0.701860	0.411533
O3	O	0.862939	0.226937	-0.090387
O4	O	1.362939	0.726937	0.409613
O5	O	0.988625	-0.014070	-0.072091
O6	O	1.488625	0.485930	0.427909
O7	O	0.979106	0.442867	-0.106763
O8	O	1.479106	0.942867	0.393237
O9	O	0.988616	-0.014074	0.074367
O10	O	1.488616	0.485926	0.574367
O11	O	0.862931	0.226933	0.056071
O12	O	1.362931	0.726933	0.556071
O13	O	1.104783	0.201857	0.057991
O14	O	1.604783	0.701857	0.557991
Zn15	Zn	0.983856	0.214394	0.080284
Zn16	Zn	1.483856	0.714394	0.580284
Zn17	Zn	0.983867	0.214399	-0.112680
Zn18	Zn	1.483867	0.714399	0.387320
O19	O	0.979097	0.442864	0.039695
O20	O	1.479097	0.942864	0.539695
C21	C	0.831952	0.225914	-0.017083
C22	C	1.331952	0.725914	0.482917
C23	C	0.739632	0.222855	-0.016857
C24	C	1.239632	0.722855	0.483143
C25	C	0.987598	-0.072543	0.005573
C26	C	1.487598	0.427457	0.505573
C27	C	0.984542	-0.246769	0.018787
C28	C	1.484542	0.253231	0.518787
C29	C	0.440481	0.212975	-0.095926
C30	C	0.940481	0.712975	0.404074
C31	C	0.527226	0.215839	-0.096149
C32	C	1.027226	0.715839	0.403851
C33	C	0.527235	0.215814	0.063529
C34	C	1.027235	0.715814	0.563529
C35	C	0.440493	0.212938	0.063752
C36	C	0.940493	0.712938	0.563752
C37	C	0.397117	0.211527	-0.015979
C38	C	0.897117	0.711527	0.484021
C39	C	0.570605	0.217267	-0.016425
C40	C	1.070605	0.717267	0.483575
C41	C	0.664658	0.220372	-0.016665
C42	C	1.164658	0.720372	0.483335
C43	C	0.303059	0.208418	-0.015738
C44	C	0.803059	0.708418	0.484262
C45	C	1.135770	0.202879	-0.015315
C46	C	1.635770	0.702879	0.484685
C47	C	1.228090	0.205939	-0.015546
C48	C	1.728090	0.705939	0.484454
C49	C	0.980124	0.501336	-0.037971
C50	C	1.480124	1.001336	0.462029
C51	C	0.983181	0.675562	-0.051190
C52	C	1.483181	1.175562	0.448810
N53	N	0.983854	0.214390	0.211977
N54	N	1.483854	0.714390	0.711977
N55	N	0.983875	0.214390	-0.244372
N56	N	1.483875	0.714390	0.255628
C57	C	1.039527	0.107708	0.445799
C58	C	1.539527	0.607708	0.945799
C59	C	1.039530	0.107705	0.537989
C60	C	1.539530	0.607705	1.037989
C61	C	0.928196	0.321077	0.521800
C62	C	1.428196	0.821077	1.021800
C63	C	0.928190	0.321072	0.429612
C64	C	1.428190	0.821072	0.929612
C65	C	0.983860	0.214390	0.391614
C66	C	1.483860	0.714390	0.891614
C67	C	0.983869	0.214391	0.575991
C68	C	1.483869	0.714391	1.075991
C69	C	0.983871	0.214388	0.675948
C70	C	1.483871	0.714388	1.175948
C71	C	0.983857	0.214390	0.291651
C72	C	1.483857	0.714390	0.791651
H73	H	0.405168	0.211823	-0.160848
H74	H	0.905168	0.711823	0.339152
Cl75	Cl	0.385974	0.211114	0.164265
Cl76	Cl	0.885974	0.711114	0.664265
Cl77	Cl	0.581737	0.217653	-0.196658
Cl78	Cl	1.081737	0.717653	0.303342
H79	H	1.084858	0.020833	0.582104
H80	H	1.584858	0.520833	1.082104
Cl81	Cl	0.581769	0.217606	0.163755
Cl82	Cl	1.081769	0.717606	0.663755
Cl83	Cl	0.984993	-0.221321	-0.159308
Cl84	Cl	1.484993	0.278679	0.340692
Cl85	Cl	0.982717	-0.349888	0.126909
Cl86	Cl	1.482717	0.150112	0.626909
Cl87	Cl	1.109509	-0.026413	0.398034
Cl88	Cl	1.609509	0.473587	0.898034
Cl89	Cl	0.858217	0.455193	0.569573
Cl90	Cl	1.358217	0.955193	1.069573
H91	H	0.882855	0.407946	0.385491
H92	H	1.382855	0.907946	0.885491
