data_functionalizedCrystal
_audit_creation_method	'MofGen! by Chris Wilmer'
_symmetry_space_group_name_H-M	'P1'
_symmetry_Int_Tables_number	1
_symmetry_cell_setting	triclinic
loop_
_symmetry_equiv_pos_as_xyz
  x,y,z
_cell_length_a	14.560438
_cell_length_b	18.760487
_cell_length_c	14.560438
_cell_angle_alpha	90.036188
_cell_angle_beta	60.000905
_cell_angle_gamma	60.020077
loop_
_atom_site_label
_atom_site_type_symbol
_atom_site_fract_x
_atom_site_fract_y
_atom_site_fract_z
Zr1	Zr	1.005276	0.686682	-0.119963
O2	O	1.196879	0.572863	-0.266698
O3	O	0.813674	0.721574	-0.074983
O4	O	1.005278	0.721570	-0.266584
O5	O	1.005273	0.572870	0.076043
O6	O	1.005278	0.838873	-0.266491
O7	O	1.005275	0.572867	-0.075097
O8	O	0.662533	0.838879	0.076248
O9	O	1.348017	0.572863	-0.266695
O10	O	0.892482	0.823996	-0.055727
O11	O	0.892480	0.736457	0.056998
O12	O	1.118069	0.736453	-0.168587
O13	O	1.118067	0.648913	-0.055862
Zr14	Zr	1.005271	0.873771	0.121238
Zr15	Zr	1.005275	0.873767	-0.119815
Zr16	Zr	1.005272	0.686687	0.121089
Zr17	Zr	1.246323	0.686682	-0.119958
Zr18	Zr	0.764224	0.873771	0.121233
O19	O	1.196873	0.838880	0.076258
O20	O	1.196879	0.838873	-0.266487
O21	O	1.196873	0.572870	0.076047
O22	O	0.813668	0.987591	0.267973
O23	O	0.813674	0.987584	-0.074772
O24	O	0.813668	0.721580	0.267762
O25	O	1.005274	0.987584	-0.074769
O26	O	1.005269	0.838884	0.267859
O27	O	1.005269	0.721581	0.267766
O28	O	1.005272	0.987587	0.076372
O29	O	1.348017	0.721571	-0.266577
O30	O	0.662530	0.838883	0.267852
O31	O	0.662530	0.987590	0.267970
O32	O	0.662533	0.987587	0.076366
O33	O	1.348014	0.572867	-0.075091
O34	O	1.348013	0.721574	-0.074973
O35	O	0.892478	0.824001	0.169862
O36	O	0.892480	0.911541	0.057137
O37	O	1.118067	0.823997	-0.055723
O38	O	1.118065	0.736457	0.057002
C39	C	0.703760	0.780226	0.000632
C40	C	0.601429	0.780226	0.000630
C41	C	0.553353	0.825919	-0.058212
C42	C	0.457194	0.825923	-0.058201
C43	C	0.457197	0.734533	0.059494
C44	C	0.553348	0.734535	0.059489
C45	C	1.005274	0.546212	0.000452
C46	C	1.005274	0.466790	0.000389
C47	C	1.123032	0.085276	-0.058078
C48	C	0.887515	0.176678	0.059749
C49	C	0.887513	0.251300	0.059652
C50	C	1.005273	0.242913	0.000688
C51	C	1.123034	0.159904	-0.058180
C52	C	0.769754	0.334314	0.118510
C53	C	0.769747	0.408942	0.118414
C54	C	0.887508	0.400556	0.059456
C55	C	1.005274	0.317541	0.000587
C56	C	1.123034	0.309154	-0.058378
C57	C	1.240801	0.226139	-0.117241
C58	C	1.240795	0.151518	-0.117138
C59	C	0.887515	0.475177	0.059353
C60	C	1.123035	0.383781	-0.058479
C61	C	1.306787	0.780227	0.000643
C62	C	1.409118	0.780227	0.000645
C63	C	1.005279	0.780221	-0.300882
C64	C	1.005280	0.780219	-0.403215
C65	C	1.005273	1.014241	0.000823
C66	C	1.005273	1.093663	0.000886
C67	C	1.123032	0.734523	-0.510203
C68	C	1.123026	0.734533	-0.606352
C69	C	0.887506	0.825936	-0.488511
C70	C	0.887513	0.825931	-0.392365
C71	C	1.005268	0.780233	0.302157
C72	C	1.005267	0.780235	0.404490
C73	C	0.703759	1.014241	0.000817
C74	C	0.601428	1.093663	0.000878
C75	C	0.703755	0.780232	0.302151
C76	C	0.601422	0.780234	0.404482
C77	C	0.703754	1.014247	0.302337
C78	C	0.601421	1.093671	0.404731
C79	C	1.306793	0.546207	-0.301062
C80	C	1.409126	0.466783	-0.403456
C81	C	1.306788	0.546213	0.000458
C82	C	1.409119	0.466791	0.000397
C83	C	1.306792	0.780221	-0.300876
C84	C	1.409125	0.780219	-0.403207
C85	C	0.553373	1.085263	-0.058017
C86	C	0.457236	1.159882	-0.057982
C87	C	0.409148	1.242899	0.000955
C88	C	0.457212	1.251297	0.059852
C89	C	0.553355	1.176679	0.059810
C90	C	0.553366	1.176672	0.393975
C91	C	0.457226	1.251306	0.490175
C92	C	0.409138	1.242938	0.597131
C93	C	0.457203	1.159928	0.607885
C94	C	0.553347	1.085296	0.511685
C95	C	1.457193	0.383782	-0.392700
C96	C	1.553362	0.309147	-0.488901
C97	C	1.601455	0.317515	-0.595856
C98	C	1.553384	0.400525	-0.606610
C99	C	1.457223	0.475158	-0.510411
C100	C	1.457184	0.475190	0.059282
C101	C	1.553348	0.400572	0.059220
C102	C	1.601439	0.317555	0.000280
C103	C	1.553370	0.309157	-0.058613
C104	C	1.457214	0.383774	-0.058557
C105	C	0.553343	0.825931	0.511471
C106	C	0.457199	0.825923	0.607618
C107	C	0.457219	0.734519	0.489773
C108	C	0.553367	0.734523	0.393629
H109	H	0.592490	0.697326	0.107410
H110	H	1.218912	0.697324	-0.693463
H111	H	1.592469	0.407427	0.107182
Br112	Br	0.278655	1.344235	0.727679
Br113	Br	1.400607	0.038857	-0.197016
Br114	Br	0.727695	0.887952	-0.247154
H115	H	0.673854	0.476529	0.166343
H116	H	0.592468	1.183530	0.107776
H117	H	0.592505	1.183502	0.306894
Br118	Br	0.391927	1.148586	0.753049
Br119	Br	1.618665	0.411868	-0.751774
Br120	Br	1.391994	0.587800	-0.525029
H121	H	0.418040	0.697332	0.107414
Br122	Br	0.391933	1.363970	0.139837
Br123	Br	0.392013	1.363951	0.475554
H124	H	1.218931	0.376941	-0.106483
H125	H	1.679755	0.256738	-0.674179
H126	H	0.418052	0.863131	-0.106114
H127	H	1.336681	0.219320	-0.165255
H128	H	1.592485	0.241564	-0.480123
Br129	Br	0.727686	0.887965	-0.473795
H130	H	1.418035	0.542780	0.107286
Br131	Br	1.282852	-0.027380	-0.137951
H132	H	0.592462	1.017715	0.520459
Br133	Br	1.731938	0.216296	0.000216
Br134	Br	0.618599	0.887930	-0.138088
Br135	Br	0.727707	0.188057	0.139758
H136	H	0.418113	1.153027	-0.105943
Br137	Br	0.618635	0.672492	0.248417
H138	H	1.218926	0.697301	-0.519044
Br139	Br	0.278667	1.344158	0.001001
H140	H	0.673881	0.341135	0.166515
H141	H	1.592541	0.241554	-0.106601
Br142	Br	1.391941	0.372400	-0.247557
H143	H	0.791630	0.542764	0.107289
H144	H	1.418083	0.376923	-0.106506
Br145	Br	0.618617	0.972606	-0.138017
H146	H	0.592471	0.863149	0.520315
Br147	Br	0.391959	0.887938	0.752819
Br148	Br	0.391994	0.672487	0.475053
