data_functionalizedCrystal
_audit_creation_method	'MofGen! by Chris Wilmer'
_symmetry_space_group_name_H-M	'P1'
_symmetry_Int_Tables_number	1
_symmetry_cell_setting	triclinic
loop_
_symmetry_equiv_pos_as_xyz
  x,y,z
_cell_length_a	11.792254
_cell_length_b	17.699092
_cell_length_c	16.776229
_cell_angle_alpha	90.004970
_cell_angle_beta	89.992926
_cell_angle_gamma	96.257517
loop_
_atom_site_label
_atom_site_type_symbol
_atom_site_fract_x
_atom_site_fract_y
_atom_site_fract_z
O1	O	-1.505665	0.103783	0.066284
O2	O	-1.172332	0.437117	0.399618
O3	O	-0.838998	0.770450	0.732951
O4	O	-1.175198	0.114464	0.066286
O5	O	-0.841865	0.447798	0.399619
O6	O	-0.508532	0.781131	0.732952
O7	O	-1.349763	-0.001015	0.066283
O8	O	-1.016430	0.332318	0.399616
O9	O	-0.683097	0.665652	0.732950
O10	O	-1.331100	0.219262	0.066287
O11	O	-0.997767	0.552596	0.399620
O12	O	-0.664433	0.885929	0.732954
O13	O	-1.349740	-0.001022	-0.066293
O14	O	-1.016407	0.332311	0.267040
O15	O	-0.683073	0.665644	0.600373
O16	O	-1.175175	0.114457	-0.066291
O17	O	-0.841842	0.447790	0.267043
O18	O	-0.508508	0.781124	0.600376
O19	O	-1.505642	0.103776	-0.066292
O20	O	-1.172308	0.437109	0.267041
O21	O	-0.838975	0.770443	0.600374
Zn22	Zn	-1.340405	0.109115	-0.087341
Zn23	Zn	-1.007071	0.442449	0.245992
Zn24	Zn	-0.673738	0.775782	0.579326
Zn25	Zn	-1.340435	0.109125	0.087334
Zn26	Zn	-1.007102	0.442458	0.420668
Zn27	Zn	-0.673769	0.775792	0.754001
O28	O	-1.331077	0.219255	-0.066290
O29	O	-0.997743	0.552589	0.267044
O30	O	-0.664410	0.885922	0.600377
C31	C	-1.132904	0.113788	-0.000002
C32	C	-0.799571	0.447121	0.333331
C33	C	-0.466237	0.780454	0.666664
C34	C	-1.006915	0.111774	-0.000002
C35	C	-0.673582	0.445107	0.333332
C36	C	-0.340248	0.778441	0.666665
C37	C	-1.349081	-0.029219	-0.000004
C38	C	-1.015748	0.304114	0.333329
C39	C	-0.682415	0.637448	0.666663
C40	C	-1.347070	-0.113248	-0.000000
C41	C	-1.013737	0.220086	0.333333
C42	C	-0.680404	0.553419	0.666666
C43	C	-1.547936	0.104452	-0.000002
C44	C	-1.214603	0.437786	0.333331
C45	C	-0.881269	0.771119	0.666664
C46	C	-1.673925	0.106466	0.000002
C47	C	-1.340592	0.439800	0.333336
C48	C	-1.007258	0.773133	0.666669
C49	C	-0.904598	0.110138	0.000002
C50	C	-0.571265	0.443471	0.333335
C51	C	-0.237931	0.776804	0.666668
C52	C	-0.776236	0.108091	0.000002
C53	C	-0.442902	0.441425	0.333335
C54	C	-0.109569	0.774758	0.666669
C55	C	-1.346141	-0.152716	0.072268
C56	C	-1.012807	0.180617	0.405602
C57	C	-0.679474	0.513950	0.738935
C58	C	-1.344244	-0.231669	0.072269
C59	C	-1.010911	0.101664	0.405602
C60	C	-0.677577	0.434997	0.738936
C61	C	-1.343285	-0.271153	0.000001
C62	C	-1.009951	0.062180	0.333334
C63	C	-0.676618	0.395514	0.666668
C64	C	-1.344211	-0.231679	-0.072273
C65	C	-1.010878	0.101655	0.261060
C66	C	-0.677544	0.434988	0.594394
C67	C	-1.346100	-0.152726	-0.072273
C68	C	-1.012766	0.180607	0.261060
C69	C	-0.679433	0.513940	0.594393
C70	C	-1.336593	-0.550085	-0.072274
C71	C	-1.003259	-0.216751	0.261059
C72	C	-0.669926	0.116582	0.594392
C73	C	-1.334707	-0.629043	-0.072268
C74	C	-1.001374	-0.295710	0.261065
C75	C	-0.668041	0.037624	0.594398
C76	C	-1.334737	-0.629028	0.072268
C77	C	-1.001404	-0.295694	0.405601
C78	C	-0.668070	0.037639	0.738935
C79	C	-1.336626	-0.550075	0.072268
C80	C	-1.003292	-0.216742	0.405601
C81	C	-0.669959	0.116591	0.738935
C82	C	-1.337546	-0.510607	-0.000005
C83	C	-1.004212	-0.177274	0.333328
C84	C	-0.670879	0.156059	0.666661
C85	C	-1.339600	-0.424997	-0.000006
C86	C	-1.006267	-0.091664	0.333328
C87	C	-0.672934	0.241670	0.666661
C88	C	-1.341238	-0.356763	0.000000
C89	C	-1.007905	-0.023429	0.333334
C90	C	-0.674572	0.309904	0.666667
C91	C	-1.331759	0.247459	-0.000001
C92	C	-0.998425	0.580793	0.333332
C93	C	-0.665092	0.914126	0.666666
C94	C	-1.333770	0.331488	0.000001
C95	C	-1.000436	0.664821	0.333334
C96	C	-0.667103	0.998155	0.666667
N97	N	-1.340392	0.109108	-0.206552
N98	N	-1.007059	0.442442	0.126781
N99	N	-0.673726	0.775775	0.460115
C100	C	-1.417713	0.057995	-0.248270
C101	C	-1.084380	0.391329	0.085063
C102	C	-0.751046	0.724662	0.418396
C103	C	-1.417719	0.057995	-0.331723
C104	C	-1.084386	0.391328	0.001611
C105	C	-0.751053	0.724661	0.334944
C106	C	-1.340409	0.109111	-0.373455
C107	C	-1.007076	0.442445	-0.040122
C108	C	-0.673743	0.775778	0.293212
C109	C	-1.263080	0.160227	-0.331731
C110	C	-0.929747	0.493560	0.001602
C111	C	-0.596414	0.826893	0.334936
C112	C	-1.263069	0.160223	-0.248280
C113	C	-0.929736	0.493556	0.085053
C114	C	-0.596403	0.826890	0.418386
C115	C	-1.263121	0.160242	-0.668278
C116	C	-0.929788	0.493575	-0.334945
C117	C	-0.596455	0.826909	-0.001611
C118	C	-1.263140	0.160243	-0.751735
C119	C	-0.929807	0.493576	-0.418401
C120	C	-0.596474	0.826910	-0.085068
C121	C	-1.417771	0.058013	-0.751720
C122	C	-1.084438	0.391347	-0.418387
C123	C	-0.751105	0.724680	-0.085054
C124	C	-1.417760	0.058010	-0.668270
C125	C	-1.084427	0.391343	-0.334936
C126	C	-0.751094	0.724677	-0.001603
C127	C	-1.340428	0.109122	-0.626553
C128	C	-1.007095	0.442456	-0.293220
C129	C	-0.673761	0.775789	0.040114
C130	C	-1.340421	0.109121	-0.536065
C131	C	-1.007087	0.442455	-0.202731
C132	C	-0.673754	0.775788	0.130602
C133	C	-1.340421	0.109117	-0.463942
C134	C	-1.007088	0.442450	-0.130608
C135	C	-0.673755	0.775783	0.202725
N136	N	-1.340457	0.109126	0.206546
N137	N	-1.007123	0.442459	0.539879
N138	N	-0.673790	0.775793	0.873212
H139	H	-1.346928	-0.120575	0.131118
H140	H	-1.013594	0.212759	0.464451
H141	H	-0.680261	0.546092	0.797784
Br142	Br	-1.522652	-0.011376	-0.388343
Br143	Br	-1.189319	0.321957	-0.055010
Br144	Br	-0.855986	0.655290	0.278324
Br145	Br	-1.158148	0.229596	-0.388365
Br146	Br	-0.824815	0.562929	-0.055031
Br147	Br	-0.491482	0.896263	0.278302
H148	H	-1.480672	0.016374	-0.214297
H149	H	-1.147339	0.349707	0.119036
H150	H	-0.814006	0.683040	0.452369
Br151	Br	-1.522690	-0.011360	-0.611635
Br152	Br	-1.189356	0.321973	-0.278302
Br153	Br	-0.856023	0.655306	0.055031
H154	H	-1.333923	-0.661188	-0.131122
H155	H	-1.000590	-0.327855	0.202212
H156	H	-0.667257	0.005478	0.535545
H157	H	-1.346841	-0.120591	-0.131122
H158	H	-1.013507	0.212742	0.202212
H159	H	-0.680174	0.546076	0.535545
Br160	Br	-1.158122	0.229589	-0.191662
Br161	Br	-0.824789	0.562922	0.141671
Br162	Br	-0.491455	0.896256	0.475004
H163	H	-1.480736	0.016392	-0.785695
H164	H	-1.147403	0.349726	-0.452362
H165	H	-0.814070	0.683059	-0.119028
H166	H	-1.333982	-0.661171	0.131117
H167	H	-1.000649	-0.327838	0.464450
H168	H	-0.667315	0.005495	0.797783
H169	H	-1.343423	-0.263832	-0.131115
H170	H	-1.010090	0.069501	0.202218
H171	H	-0.676757	0.402834	0.535552
H172	H	-1.337365	-0.517961	-0.131124
H173	H	-1.004031	-0.184628	0.202210
H174	H	-0.670698	0.148705	0.535543
H175	H	-1.200157	0.201861	-0.634319
H176	H	-0.866823	0.535194	-0.300986
H177	H	-0.533490	0.868527	0.032348
Br178	Br	-1.342981	-0.285231	0.170352
Br179	Br	-1.009647	0.048102	0.503685
Br180	Br	-0.676314	0.381436	0.837019
H181	H	-1.200181	0.201870	-0.785712
H182	H	-0.866848	0.535203	-0.452379
H183	H	-0.533514	0.868537	-0.119045
H184	H	-1.337412	-0.517932	0.131116
H185	H	-1.004079	-0.184598	0.464450
H186	H	-0.670745	0.148735	0.797783
