data_functionalizedCrystal
_audit_creation_method	'MofGen! by Chris Wilmer'
_symmetry_space_group_name_H-M	'P1'
_symmetry_Int_Tables_number	1
_symmetry_cell_setting	triclinic
loop_
_symmetry_equiv_pos_as_xyz
  x,y,z
_cell_length_a	12.827885
_cell_length_b	12.759401
_cell_length_c	12.759399
_cell_angle_alpha	90.016641
_cell_angle_beta	90.030910
_cell_angle_gamma	90.019449
loop_
_atom_site_label
_atom_site_type_symbol
_atom_site_fract_x
_atom_site_fract_y
_atom_site_fract_z
Zn1	Zn	-0.590845	-1.606248	0.418173
Zn2	Zn	-0.416102	-1.606142	0.593888
Zn3	Zn	-0.416119	-1.430551	0.418229
Zn4	Zn	-0.590802	-1.430537	0.593815
O5	O	-0.503467	-1.518370	0.506026
O6	O	-0.567677	-1.753255	0.441489
O7	O	-0.269868	-1.582811	0.570641
O8	O	-0.439322	-1.453908	0.271200
O9	O	-0.439294	-1.753177	0.570587
O10	O	-0.567693	-1.582991	0.271159
O11	O	-0.269880	-1.453805	0.441584
O12	O	-0.439279	-1.283528	0.441513
O13	O	-0.737044	-1.453884	0.570461
O14	O	-0.567618	-1.283518	0.570516
O15	O	-0.737076	-1.582978	0.441418
O16	O	-0.439252	-1.582798	0.740900
O17	O	-0.567602	-1.453782	0.740846
C18	C	-0.503446	-1.245402	0.506013
C19	C	-0.503462	-1.128626	0.506033
C20	C	-0.503443	-1.518305	0.778993
C21	C	-0.503468	-1.518374	0.895770
C22	C	-0.776037	-1.518441	0.505925
C23	C	-0.892191	-1.518472	0.505882
C24	C	-0.943991	-1.582358	0.442015
C25	C	-1.064042	-1.582391	0.441969
C26	C	-0.231957	-1.518359	0.506051
C27	C	-0.115805	-1.518532	0.505798
C28	C	-0.503488	-1.792403	0.506040
C29	C	-0.503498	-1.909180	0.506046
C30	C	-0.570183	-1.073786	0.573307
C31	C	-0.570204	-0.964062	0.573311
C32	C	-0.436774	-0.964027	0.438764
C33	C	-0.436759	-1.073749	0.438756
C34	C	-0.503514	-1.518463	0.231993
C35	C	-0.503534	-1.518503	0.115216
C36	C	-0.436712	-1.585629	0.950625
C37	C	-0.436747	-1.585697	1.060349
C38	C	-0.570297	-1.451244	1.060353
C39	C	-0.570267	-1.451183	0.950631
H40	H	-0.899463	-1.637026	0.387366
H41	H	-1.108589	-1.637090	0.387293
H42	H	-0.936719	-1.463794	0.560520
H43	H	-0.382465	-0.919333	0.383991
O44	O	-1.062558	-1.453423	0.571088
C45	C	-0.999437	-1.513261	0.638931
H46	H	-0.983210	-1.592904	0.601871
H47	H	-0.922633	-1.470516	0.652968
H48	H	-1.041426	-1.524750	0.716812
O49	O	-0.635226	-1.386118	1.113765
C50	C	-0.702807	-1.445932	1.177109
H51	H	-0.666025	-1.525581	1.193509
H52	H	-0.716792	-1.403172	1.254291
H53	H	-0.780250	-1.457408	1.134753
H54	H	-0.624633	-1.396415	0.905965
O55	O	-0.635126	-0.910744	0.638513
C56	C	-0.702722	-0.847306	0.578788
H57	H	-0.709318	-0.880393	0.496047
H58	H	-0.783076	-0.846095	0.616888
H59	H	-0.670433	-0.764133	0.575134
O60	O	-0.635082	-1.126932	0.638683
C61	C	-0.693959	-1.054994	0.698077
H62	H	-0.697658	-0.976791	0.655053
H63	H	-0.776272	-1.086731	0.709377
H64	H	-0.655558	-1.043289	0.777826
O65	O	-0.371842	-1.126865	0.373369
C66	C	-0.312984	-1.054904	0.313979
H67	H	-0.309296	-0.976678	0.357011
H68	H	-0.230665	-1.086575	0.302669
H69	H	-0.351393	-1.043270	0.234234
H70	H	-0.382322	-1.640342	0.905960
H71	H	-0.382389	-1.640464	1.105007
