data_functionalizedCrystal
_audit_creation_method	'MofGen! by Chris Wilmer'
_symmetry_space_group_name_H-M	'P1'
_symmetry_Int_Tables_number	1
_symmetry_cell_setting	triclinic
loop_
_symmetry_equiv_pos_as_xyz
  x,y,z
_cell_length_a	23.096457
_cell_length_b	20.875641
_cell_length_c	20.875620
_cell_angle_alpha	119.330165
_cell_angle_beta	92.958405
_cell_angle_gamma	57.596876
loop_
_atom_site_label
_atom_site_type_symbol
_atom_site_fract_x
_atom_site_fract_y
_atom_site_fract_z
Zr1	Zr	-0.129393	0.702111	-0.643673
O2	O	-0.221704	0.835932	-0.546138
O3	O	-0.097862	0.568292	-0.670168
O4	O	-0.223313	0.702113	-0.675047
O5	O	-0.000972	0.702109	-0.541285
O6	O	-0.228259	0.702113	-0.780605
O7	O	-0.096253	0.702111	-0.541260
O8	O	-0.003849	0.462732	-0.771878
O9	O	-0.225381	0.941491	-0.550012
O10	O	-0.092011	0.623333	-0.764359
O11	O	-0.017212	0.623332	-0.685600
O12	O	-0.164915	0.780889	-0.691344
O13	O	-0.090117	0.780888	-0.612586
Zr14	Zr	0.014681	0.702109	-0.812067
Zr15	Zr	-0.137281	0.702112	-0.812027
Zr16	Zr	0.022569	0.702109	-0.643713
Zr17	Zr	-0.135257	0.870465	-0.649851
Zr18	Zr	0.020546	0.533755	-0.805889
O19	O	-0.016850	0.835928	-0.785572
O20	O	-0.232920	0.835932	-0.785515
O21	O	-0.005634	0.835928	-0.546195
O22	O	0.106993	0.568288	-0.909601
O23	O	-0.109078	0.568292	-0.909545
O24	O	0.118209	0.568288	-0.670225
O25	O	-0.113739	0.702111	-0.914455
O26	O	0.108601	0.702107	-0.780693
O27	O	0.113547	0.702107	-0.675135
O28	O	-0.018458	0.702109	-0.914480
O29	O	-0.231652	0.941491	-0.683830
O30	O	0.116940	0.462729	-0.771910
O31	O	0.110670	0.462729	-0.905728
O32	O	-0.010120	0.462732	-0.905696
O33	O	-0.104592	0.941488	-0.550043
O34	O	-0.110862	0.941489	-0.683862
O35	O	0.050203	0.623331	-0.764396
O36	O	-0.024595	0.623332	-0.843154
O37	O	-0.097499	0.780888	-0.770140
O38	O	-0.022701	0.780887	-0.691381
C39	C	-0.050020	0.491525	-0.720143
C40	C	-0.047530	0.420054	-0.717520
C41	C	-0.247437	0.702114	-0.727820
C42	C	-0.311949	0.702115	-0.727803
C43	C	-0.085404	0.386478	-0.757397
C44	C	-0.083058	0.319319	-0.754935
C45	C	-0.042842	0.285742	-0.712591
C46	C	-0.004963	0.319321	-0.672713
C47	C	-0.007305	0.386474	-0.675180
C48	C	-0.031645	0.084898	-0.700809
C49	C	-0.029307	0.017742	-0.698343
C50	C	-0.107402	0.017743	-0.780566
C51	C	-0.109744	0.084902	-0.783026
C52	C	-0.071862	0.118472	-0.743151
N53	N	-0.040444	0.217097	-0.710071
N54	N	-0.074256	0.187111	-0.745676
C55	C	-0.380308	0.784355	-0.689694
C56	C	-0.440925	0.784356	-0.689714
C57	C	-0.433179	0.702113	-0.727832
C58	C	-0.364808	0.619862	-0.765950
C59	C	-0.304193	0.619863	-0.765935
N60	N	-0.498336	0.640894	-0.719911
N61	N	-0.555920	0.640899	-0.719921
C62	C	-0.615806	0.702105	-0.727880
N63	N	-0.615939	0.763319	-0.735815
N64	N	-0.558350	0.763317	-0.735801
C65	C	-0.498902	0.702102	-0.727853
C66	C	-0.749896	0.784352	-0.689792
C67	C	-0.810514	0.784350	-0.689817
C68	C	-0.734393	0.619853	-0.766048
C69	C	-0.673779	0.619857	-0.766027
C70	C	-0.681535	0.702109	-0.727895
C71	C	0.132726	0.702107	-0.727920
C72	C	0.197237	0.702105	-0.727937
C73	C	-0.047489	0.702110	-0.517286
C74	C	-0.044140	0.702110	-0.445815
C75	C	-0.064692	0.912695	-0.735597
C76	C	-0.067181	0.984166	-0.738219
C77	C	-0.095059	0.702114	-0.412224
C78	C	-0.091909	0.702109	-0.345073
C79	C	-0.037842	0.702107	-0.311510
C80	C	0.013082	0.702101	-0.345107
C81	C	0.009934	0.702099	-0.412260
C82	C	-0.022797	0.702107	-0.110673
C83	C	-0.019654	0.702111	-0.043513
C84	C	-0.124645	0.702117	-0.043485
C85	C	-0.127791	0.702121	-0.110637
C86	C	-0.076864	0.702110	-0.144230
N87	N	-0.034623	0.702105	-0.242869
N88	N	-0.080082	0.702105	-0.212873
C89	C	-0.067223	0.702111	0.061546
C90	C	-0.070574	0.702115	-0.009922
C91	C	-0.059887	0.491525	-0.930727
C92	C	-0.060746	0.420054	-0.999575
C93	C	0.140061	0.491521	-0.720193
C94	C	0.207063	0.420050	-0.717587
C95	C	0.130194	0.491522	-0.930777
C96	C	0.193847	0.420050	-0.999642
C97	C	-0.244906	0.912699	-0.524963
C98	C	-0.308559	0.984170	-0.456098
C99	C	-0.054825	0.912695	-0.525013
C100	C	-0.053966	0.984166	-0.456165
C101	C	-0.254773	0.912699	-0.735547
C102	C	-0.321774	0.984171	-0.738153
C103	C	-0.096346	0.386492	-0.990776
C104	C	-0.097168	0.319347	-1.055460
C105	C	-0.062384	0.285761	-1.128942
C106	C	-0.026783	0.319330	-1.137739
C107	C	-0.025966	0.386479	-1.073056
C108	C	0.273724	0.386485	-0.757494
C109	C	0.336685	0.319339	-0.755043
C110	C	0.332983	0.285754	-0.712690
C111	C	0.266314	0.319326	-0.672778
C112	C	0.203355	0.386475	-0.675225
C113	C	0.184695	0.386486	-1.073100
C114	C	0.244497	0.319340	-1.137812
C115	C	0.313451	0.285754	-1.129065
C116	C	0.322602	0.319324	-1.055600
C117	C	0.262800	0.386474	-0.990889
C118	C	-0.299407	1.017742	-0.382641
C119	C	-0.359210	1.084909	-0.317929
C120	C	-0.428164	1.118498	-0.326676
C121	C	-0.437314	1.084924	-0.400141
C122	C	-0.377512	1.017763	-0.464851
C123	C	-0.018372	1.017735	-0.464964
C124	C	-0.017568	1.084899	-0.400281
C125	C	-0.052354	1.118487	-0.326799
C126	C	-0.087952	1.084914	-0.318002
C127	C	-0.088760	1.017757	-0.382684
C128	C	-0.318049	1.017734	-0.780514
C129	C	-0.380999	1.084880	-0.782977
C130	C	-0.447673	1.118467	-0.743074
C131	C	-0.451397	1.084897	-0.700712
C132	C	-0.388448	1.017747	-0.698253
H133	H	-0.113898	0.291981	-0.787406
O134	O	-0.392469	0.981547	-0.652562
H135	H	-0.364950	0.994433	-0.607590
H136	H	-0.116273	1.112272	-0.258164
H137	H	0.378752	0.291968	-1.048489
H138	H	0.149079	0.413794	-0.642730
O139	O	-0.153125	0.121119	-0.828693
H140	H	-0.132673	0.064751	-0.889834
O141	O	0.071397	0.702097	-0.308906
H142	H	0.124419	0.640595	-0.350297
O143	O	-0.148258	-0.018463	-0.823574
H144	H	-0.139872	-0.070803	-0.814750
O145	O	-0.376969	1.121077	-0.828670
H146	H	-0.403451	1.195158	-0.789875
H147	H	0.276753	0.413822	-0.791983
O148	O	-0.230452	0.531164	-0.807055
H149	H	-0.198982	0.527223	-0.765401
H150	H	-0.756212	0.851326	-0.658743
H151	H	-0.498925	1.173145	-0.745082
H152	H	-0.133371	0.702111	-0.317723
H153	H	0.270262	0.413792	-0.931079
H154	H	-0.505692	1.112253	-0.668224
H155	H	-0.118157	0.413816	-0.791874
O156	O	-0.387394	0.981581	-0.544079
H157	H	-0.334231	0.929249	-0.587615
H158	H	0.390963	0.292013	-0.787547
H159	H	0.001536	0.291975	-1.197577
O160	O	-0.225039	0.981525	-0.373197
H161	H	-0.228734	1.016171	-0.311242
O162	O	0.012449	0.422659	-1.082552
H163	H	-0.011585	0.453244	-1.116285
O164	O	-0.884251	0.873055	-0.648712
H165	H	-0.879455	0.930246	-0.622190
O166	O	0.019139	0.981534	-0.544213
H167	H	0.076931	0.950954	-0.549938
H168	H	-0.166107	0.702125	-0.016127
O169	O	0.400891	0.213313	-0.710067
H170	H	0.447864	0.195611	-0.744945
H171	H	0.362139	0.231077	-1.181763
O172	O	-0.726026	0.531143	-0.807161
H173	H	-0.779659	0.544957	-0.800766
H174	H	-0.351745	1.112233	-0.258116
O175	O	0.009197	0.121117	-0.657787
H176	H	0.048732	0.108225	-0.698834
H177	H	-0.493464	1.112282	-0.407254
H178	H	0.128554	0.413822	-1.080236
H179	H	0.003442	-0.009592	-0.663857
H180	H	0.024376	0.702110	-0.016189
H181	H	0.263310	0.291971	-0.638294
O182	O	0.234620	0.283129	-1.217044
H183	H	0.176625	0.317756	-1.212248
O184	O	-0.492663	1.190947	-0.256879
H185	H	-0.474708	1.208641	-0.204332
H186	H	0.027786	0.291973	-0.638240
H187	H	0.011423	1.112222	-0.407459
O188	O	-0.051456	1.190896	-0.257035
H189	H	-0.020846	1.208577	-0.275506
O190	O	-0.127144	0.981542	-0.373190
H191	H	-0.151188	1.016179	-0.311225
H192	H	0.023534	0.413814	-0.642706
H193	H	-0.263765	0.990398	-0.813008
H194	H	-0.386630	0.851331	-0.658647
O195	O	-0.063269	0.213338	-1.198705
H196	H	-0.007530	0.152142	-1.231940
H197	H	-0.139089	0.702121	-0.439544
H198	H	-0.358504	0.552899	-0.796987
O199	O	-0.514670	0.873057	-0.648610
H200	H	-0.519269	0.912488	-0.586846
O201	O	-0.600042	0.531155	-0.807119
H202	H	-0.604836	0.473965	-0.833623
O203	O	-0.135561	0.283140	-1.045963
H204	H	-0.159596	0.317767	-0.983998
H205	H	-0.171816	0.702122	-0.137962
H206	H	0.051399	0.702095	-0.439610
O207	O	0.032132	0.702091	-0.146901
H208	H	0.029452	0.763587	-0.105526
O209	O	-0.133873	0.422718	-0.911525
H210	H	-0.158772	0.388100	-0.916286
