data_functionalizedCrystal
_audit_creation_method	'MofGen! by Chris Wilmer'
_symmetry_space_group_name_H-M	'P1'
_symmetry_Int_Tables_number	1
_symmetry_cell_setting	triclinic
loop_
_symmetry_equiv_pos_as_xyz
  x,y,z
_cell_length_a	12.811445
_cell_length_b	11.892095
_cell_length_c	16.109304
_cell_angle_alpha	86.109116
_cell_angle_beta	83.755707
_cell_angle_gamma	99.333684
loop_
_atom_site_label
_atom_site_type_symbol
_atom_site_fract_x
_atom_site_fract_y
_atom_site_fract_z
O1	O	1.409668	0.238497	0.098584
O2	O	1.101827	0.206943	0.112531
O3	O	1.264203	0.223587	-0.015491
O4	O	1.247292	0.221852	0.226606
O5	O	1.250664	0.034192	-0.004833
O6	O	1.088288	0.017547	0.123189
O7	O	1.396130	0.049102	0.109242
Zn8	Zn	1.240059	0.003254	0.117907
Zn9	Zn	1.257897	0.252790	0.103865
O10	O	1.233754	0.032457	0.237264
C11	C	1.055665	0.108207	0.117404
C12	C	0.938289	0.096176	0.116036
N13	N	1.227893	-0.167047	0.127490
C14	C	0.732483	0.280068	0.101860
C15	C	0.622198	0.268769	0.100575
C16	C	0.607431	0.062279	0.112186
C17	C	0.717716	0.073578	0.113471
C18	C	0.780239	0.182477	0.108307
C19	C	0.890527	0.193775	0.109586
C20	C	0.875757	-0.012714	0.121203
C21	C	0.765471	-0.024013	0.119917
C22	C	1.354728	-0.390694	0.027546
C23	C	1.346232	-0.509907	0.034250
C24	C	1.202400	-0.524688	0.147599
C25	C	1.210897	-0.405475	0.140895
C26	C	1.287064	-0.338482	0.080867
C27	C	1.295565	-0.219267	0.074167
C28	C	1.151729	-0.234051	0.187511
C29	C	1.143232	-0.353264	0.194216
C30	C	1.442291	0.147840	0.104368
C31	C	1.559668	0.159878	0.105736
N32	N	1.270071	0.423092	0.094276
C33	C	1.256748	0.128822	-0.041136
C34	C	1.254693	0.128619	-0.133427
C35	C	1.257325	0.231367	-0.351564
C36	C	1.255384	0.231167	-0.438280
C37	C	1.240629	0.024679	-0.426657
C38	C	1.242562	0.024879	-0.339942
C39	C	1.250916	0.128227	-0.302398
C40	C	1.247041	0.127827	-0.475830
C41	C	1.244937	0.127609	-0.569851
C42	C	1.253018	0.128445	-0.208371
C43	C	1.241209	0.127225	0.262908
C44	C	1.243264	0.127435	0.355199
H45	H	0.941432	0.282445	0.105381
H46	H	1.096635	-0.191527	0.230931
O47	O	0.927249	-0.117992	0.128170
H48	H	0.986589	-0.116825	0.072386
H49	H	1.260601	0.315154	-0.478307
H50	H	1.233830	-0.059464	-0.457236
O51	O	1.436875	-0.318425	-0.037193
H52	H	1.482498	-0.374760	-0.073147
O53	O	1.419223	-0.566226	-0.023250
H54	H	1.473619	-0.499608	-0.066108
O55	O	1.120237	-0.596963	0.212322
H56	H	1.074598	-0.540633	0.248269
O57	O	0.799917	0.397521	0.096279
H58	H	0.859946	0.408573	0.039927
H59	H	1.237337	-0.059116	-0.299909
H60	H	0.583320	0.348238	0.095328
H61	H	0.556505	-0.026381	0.116397
H62	H	1.264124	0.315520	-0.320999
H63	H	0.714550	-0.112675	0.124125
O64	O	1.061093	-0.425520	0.258966
H65	H	1.005843	-0.485120	0.227130
H66	H	1.357587	-0.164721	0.025292
