data_functionalizedCrystal
_audit_creation_method	'MofGen! by Chris Wilmer'
_symmetry_space_group_name_H-M	'P1'
_symmetry_Int_Tables_number	1
_symmetry_cell_setting	triclinic
loop_
_symmetry_equiv_pos_as_xyz
  x,y,z
_cell_length_a	8.559649
_cell_length_b	23.532407
_cell_length_c	7.088929
_cell_angle_alpha	83.810936
_cell_angle_beta	95.325015
_cell_angle_gamma	76.313671
loop_
_atom_site_label
_atom_site_type_symbol
_atom_site_fract_x
_atom_site_fract_y
_atom_site_fract_z
O1	O	2.103931	-0.012759	-0.158953
O2	O	1.638258	0.016674	-0.158972
O3	O	1.885141	-0.081561	-0.158927
O4	O	1.857049	0.085477	-0.158998
O5	O	1.918135	-0.094716	0.159054
O6	O	1.671252	0.003519	0.159009
O7	O	2.136925	-0.025913	0.159028
Cu8	Cu	1.907101	-0.012398	0.188053
Cu9	Cu	1.868082	0.003159	-0.187997
O10	O	1.890043	0.072322	0.158983
C11	C	1.595190	0.012327	0.000017
C12	C	1.417704	0.018967	0.000011
C13	C	1.900923	-0.109325	0.000069
C14	C	1.898774	-0.172453	0.000083
C15	C	2.031375	-0.577085	-0.000016
C16	C	2.029376	-0.636401	-0.000031
O17	O	2.152300	-0.678272	-0.000096
N18	N	1.882606	-0.652904	-0.000035
C19	C	1.737825	-0.610085	-0.000045
O20	O	1.612802	-0.629568	-0.000052
C21	C	1.739824	-0.550769	-0.000044
C22	C	1.886605	-0.534272	-0.000020
C23	C	2.178143	-0.560586	0.000006
C24	C	2.180142	-0.501274	0.000024
C25	C	2.035372	-0.458461	0.000020
C26	C	1.888603	-0.474960	-0.000002
C27	C	1.595042	-0.507952	-0.000067
C28	C	1.597054	-0.448633	-0.000067
C29	C	1.743835	-0.432135	-0.000043
C30	C	1.745832	-0.372834	0.000013
N31	N	1.892601	-0.356332	0.000017
C32	C	2.037371	-0.399145	0.000021
C33	C	1.733637	-0.734653	-0.000050
C34	C	1.731637	-0.793968	-0.000037
C35	C	2.023189	-0.820279	-0.000027
C36	C	2.025188	-0.760964	-0.000026
C37	C	1.880406	-0.718150	-0.000045
C38	C	2.041558	-0.274584	0.000061
C39	C	2.043544	-0.215266	0.000087
C40	C	1.751993	-0.188959	0.000066
C41	C	1.750006	-0.248272	0.000050
C42	C	1.894801	-0.291084	0.000041
O43	O	1.622971	-0.330931	0.000071
O44	O	2.162371	-0.379652	0.000003
C45	C	2.179993	-0.021566	0.000035
C46	C	2.357478	-0.028205	0.000029
C47	C	1.874260	0.100086	-0.000016
C48	C	1.876407	0.163214	-0.000044
N49	N	1.934557	-0.023341	0.452546
N50	N	1.840639	0.014096	-0.452490
H51	H	2.159463	-0.309436	0.000046
H52	H	2.031909	-0.062136	0.534220
N53	N	1.440905	-0.402450	-0.000078
H54	H	1.364596	-0.402136	-0.117961
H55	H	1.389191	-0.411931	0.117869
H56	H	1.634126	-0.154091	0.000070
N57	N	2.201864	-0.197473	0.000124
H58	H	2.293268	-0.233599	0.000118
H59	H	2.196820	-0.168552	-0.117746
H60	H	1.333473	0.064435	-0.000018
H61	H	1.743305	0.052893	0.465846
N62	N	1.469015	-0.088434	0.000057
H63	H	1.526859	-0.088467	-0.117814
H64	H	1.551220	-0.098184	0.118016
H65	H	2.299665	-0.487847	0.000036
H66	H	2.144710	-0.747536	-0.000008
N67	N	2.334302	-0.606758	0.000012
H68	H	2.427567	-0.587296	0.000027
H69	H	2.352057	-0.636821	0.117898
N70	N	2.179340	-0.866463	-0.000023
H71	H	2.155788	-0.906540	-0.000033
H72	H	2.231115	-0.856960	-0.117900
N73	N	1.573331	-0.811761	-0.000011
H74	H	1.481932	-0.775634	-0.000004
H75	H	1.553901	-0.830914	-0.117892
H76	H	1.615732	-0.699796	-0.000049
H77	H	1.475517	-0.521372	-0.000098
N78	N	1.591702	-0.266072	0.000051
H79	H	1.500296	-0.229948	0.000058
H80	H	1.572291	-0.285222	-0.117844
