data_functionalizedCrystal
_audit_creation_method	'MofGen! by Chris Wilmer'
_symmetry_space_group_name_H-M	'P1'
_symmetry_Int_Tables_number	1
_symmetry_cell_setting	triclinic
loop_
_symmetry_equiv_pos_as_xyz
  x,y,z
_cell_length_a	16.120444
_cell_length_b	12.645331
_cell_length_c	16.120297
_cell_angle_alpha	87.121877
_cell_angle_beta	84.384883
_cell_angle_gamma	92.925586
loop_
_atom_site_label
_atom_site_type_symbol
_atom_site_fract_x
_atom_site_fract_y
_atom_site_fract_z
Zn1	Zn	-0.356772	1.566073	0.489466
Zn2	Zn	-0.023439	1.899406	0.822799
Zn3	Zn	0.309895	2.232739	1.156132
Zn4	Zn	-0.489462	1.565936	0.356778
Zn5	Zn	-0.156129	1.899269	0.690111
Zn6	Zn	0.177204	2.232603	1.023445
Zn7	Zn	-0.349706	1.398263	0.349711
Zn8	Zn	-0.016372	1.731596	0.683044
Zn9	Zn	0.316961	2.064930	1.016378
Zn10	Zn	-0.496501	1.379279	0.496500
Zn11	Zn	-0.163168	1.712612	0.829833
Zn12	Zn	0.170166	2.045946	1.163166
O13	O	-0.423110	1.477388	0.423113
O14	O	-0.089777	1.810721	0.756447
O15	O	0.243556	2.144054	1.089780
O16	O	-0.374385	1.714400	0.471878
O17	O	-0.041052	2.047734	0.805211
O18	O	0.292281	2.381067	1.138545
O19	O	-0.465020	1.551581	0.238878
O20	O	-0.131687	1.884915	0.572212
O21	O	0.201646	2.218248	0.905545
O22	O	-0.233677	1.428525	0.362348
O23	O	0.099656	1.761859	0.695682
O24	O	0.432989	2.095192	1.029015
O25	O	-0.471872	1.714300	0.374393
O26	O	-0.138539	2.047633	0.707726
O27	O	0.194794	2.380966	1.041060
O28	O	-0.238869	1.551815	0.465026
O29	O	0.094464	1.885148	0.798359
O30	O	0.427798	2.218481	1.131692
O31	O	-0.362342	1.428393	0.233686
O32	O	-0.029008	1.761726	0.567020
O33	O	0.304325	2.095059	0.900353
O34	O	-0.369167	1.247399	0.369169
O35	O	-0.035833	1.580732	0.702502
O36	O	0.297500	1.914066	1.035836
O37	O	-0.483869	1.396170	0.612528
O38	O	-0.150535	1.729503	0.945862
O39	O	0.182798	2.062837	1.279195
O40	O	-0.477016	1.233452	0.477014
O41	O	-0.143683	1.566785	0.810347
O42	O	0.189650	1.900118	1.143681
O43	O	-0.381210	1.533407	0.607361
O44	O	-0.047877	1.866740	0.940694
O45	O	0.285456	2.200073	1.274027
O46	O	-0.607362	1.533173	0.381214
O47	O	-0.274028	1.866507	0.714547
O48	O	0.059305	2.199840	1.047880
O49	O	-0.612533	1.396037	0.483867
O50	O	-0.279200	1.729371	0.817200
O51	O	0.054134	2.062704	1.150533
C52	C	-0.423089	1.201961	0.423088
C53	C	-0.089756	1.535294	0.756422
C54	C	0.243578	1.868628	1.089755
C55	C	-0.423101	1.084129	0.423098
C56	C	-0.089768	1.417463	0.756432
C57	C	0.243565	1.750796	1.089765
C58	C	-0.354974	0.925300	0.355594
C59	C	-0.021641	1.258634	0.688928
C60	C	0.311693	1.591967	1.022261
C61	C	-0.355127	1.047868	0.355320
C62	C	-0.021794	1.381201	0.688653
C63	C	0.311539	1.714535	1.021986
C64	C	-0.509931	1.035259	0.403494
C65	C	-0.176598	1.368592	0.736827
C66	C	0.156736	1.701926	1.070160
C67	C	-0.509554	0.912714	0.403038
C68	C	-0.176221	1.246048	0.736371
C69	C	0.157112	1.579381	1.069704
C70	C	-0.405250	0.912495	0.510498
C71	C	-0.071916	1.245828	0.843831
C72	C	0.261417	1.579161	1.177164
C73	C	-0.403258	1.035267	0.509906
C74	C	-0.069924	1.368601	0.843240
C75	C	0.263409	1.701934	1.176573
C76	C	-0.640276	1.462558	0.434088
C77	C	-0.306943	1.795891	0.767422
C78	C	0.026391	2.129225	1.100755
C79	C	-0.733182	1.456309	0.438811
C80	C	-0.399849	1.789642	0.772145
C81	C	-0.066515	2.122976	1.105478
C82	C	-0.942093	1.510052	0.398792
C83	C	-0.608759	1.843386	0.732126
C84	C	-0.275426	2.176719	1.065459
C85	C	-0.903277	1.444919	0.447443
C86	C	-0.569944	1.778252	0.780777
C87	C	-0.236610	2.111585	1.114110
C88	C	-0.808627	1.451258	0.442639
C89	C	-0.475294	1.784591	0.775972
C90	C	-0.141961	2.117925	1.109306
C91	C	-1.036751	1.503714	0.403595
C92	C	-0.703418	1.837048	0.736929
C93	C	-0.370084	2.170381	1.070262
C94	C	-0.205097	1.492303	0.412114
C95	C	0.128236	1.825636	0.745447
C96	C	0.461569	2.158970	1.078781
C97	C	-0.112193	1.498659	0.407427
C98	C	0.221140	1.831992	0.740760
C99	C	0.554474	2.165325	1.074093
C100	C	-0.434113	1.462686	0.641119
C101	C	-0.100779	1.796019	0.974453
C102	C	0.232554	2.129353	1.307786
C103	C	-0.438801	1.456421	0.734021
C104	C	-0.105468	1.789754	1.067354
C105	C	0.227865	2.123088	1.400687
C106	C	-0.423132	1.753890	0.423139
C107	C	-0.089799	2.087223	0.756473
C108	C	0.243535	2.420556	1.089806
C109	C	-0.423141	1.871719	0.423150
C110	C	-0.089808	2.205052	0.756484
C111	C	0.243525	2.538385	1.089817
C112	C	-0.412090	1.492097	0.205953
C113	C	-0.078757	1.825431	0.539286
C114	C	0.254577	2.158764	0.872619
C115	C	-0.407166	1.498584	0.113040
C116	C	-0.073833	1.831917	0.446373
C117	C	0.259501	2.165250	0.779707
C118	C	-0.447343	1.444945	0.904111
C119	C	-0.114010	1.778278	1.237444
C120	C	0.219323	2.111612	1.570777
C121	C	-0.398627	1.510056	0.942955
C122	C	-0.065294	1.843390	1.276289
C123	C	0.268040	2.176723	1.609622
C124	C	-0.403380	1.503671	1.037599
C125	C	-0.070046	1.837004	1.370933
C126	C	0.263287	2.170338	1.704266
C127	C	-0.442592	1.451329	0.809458
C128	C	-0.109258	1.784662	1.142792
C129	C	0.224075	2.117995	1.476125
H130	H	-0.449644	1.059527	0.562572
H131	H	-0.116310	1.392860	0.895906
H132	H	0.217023	1.726193	1.229239
H133	H	-0.353349	1.570595	0.905131
H134	H	-0.020016	1.903928	1.238465
H135	H	0.313317	2.237261	1.571798
H136	H	-0.941130	1.384394	0.492703
H137	H	-0.607797	1.717728	0.826036
H138	H	-0.274463	2.051061	1.159370
N139	N	-0.507314	1.364769	0.954218
N140	N	-0.173981	1.698102	1.287551
N141	N	0.159352	2.031436	1.620885
H142	H	-0.566293	1.378149	0.942111
H143	H	-0.232960	1.711482	1.275445
H144	H	0.100373	2.044816	1.608778
H145	H	-0.493516	1.290945	0.938396
H146	H	-0.160183	1.624278	1.271729
H147	H	0.173150	1.957611	1.605062
H148	H	-0.454954	0.877057	0.560778
H149	H	-0.121621	1.210390	0.894111
H150	H	0.211712	1.543723	1.227444
H151	H	-0.904244	1.570572	0.353535
H152	H	-0.570911	1.903905	0.686868
H153	H	-0.237577	2.237238	1.020201
H154	H	-0.290600	1.081382	0.367097
H155	H	0.042734	1.414715	0.700430
H156	H	0.376067	1.748048	1.033763
H157	H	-0.290242	0.899274	0.367199
H158	H	0.043092	1.232607	0.700533
H159	H	0.376425	1.565940	1.033866
H160	H	-0.525990	1.068942	0.340482
H161	H	-0.192657	1.402275	0.673815
H162	H	0.140676	1.735609	1.007148
H163	H	-0.366593	1.080587	0.290501
H164	H	-0.033260	1.413921	0.623834
H165	H	0.300074	1.747254	0.957168
N166	N	-0.369927	0.888579	0.270339
N167	N	-0.036593	1.221912	0.603672
N168	N	0.296740	1.555245	0.937006
H169	H	-0.426942	0.908841	0.256349
H170	H	-0.093609	1.242174	0.589683
H171	H	0.239724	1.575508	0.923016
H172	H	-0.325838	0.923188	0.227263
H173	H	0.007496	1.256521	0.560596
H174	H	0.340829	1.589855	0.893929
N175	N	-0.530346	0.878861	0.318633
N176	N	-0.197013	1.212194	0.651966
N177	N	0.136320	1.545528	0.985299
H178	H	-0.539669	0.943526	0.282071
H179	H	-0.206335	1.276860	0.615404
H180	H	0.126998	1.610193	0.948738
H181	H	-0.482586	0.839829	0.291682
H182	H	-0.149252	1.173162	0.625015
H183	H	0.184081	1.506496	0.958348
N184	N	-0.318654	1.078015	0.529614
N185	N	0.014679	1.411349	0.862948
N186	N	0.348012	1.744682	1.196281
H187	H	-0.281005	1.017399	0.536438
H188	H	0.052329	1.350732	0.869771
H189	H	0.385662	1.684066	1.203104
H190	H	-0.293344	1.128838	0.482495
H191	H	0.039989	1.462171	0.815828
H192	H	0.373322	1.795504	1.149162
N193	N	-0.578788	0.864904	0.465683
N194	N	-0.245454	1.198237	0.799016
N195	N	0.087879	1.531570	1.132350
H196	H	-0.569468	0.888545	0.523134
H197	H	-0.236135	1.221879	0.856467
H198	H	0.097199	1.555212	1.189800
H199	H	-0.634173	0.889149	0.449941
H200	H	-0.300840	1.222482	0.783275
H201	H	0.032494	1.555816	1.116608
N202	N	-0.578736	1.065338	0.466904
N203	N	-0.245403	1.398671	0.800237
N204	N	0.087930	1.732004	1.133570
H205	H	-0.580880	1.145081	0.465662
H206	H	-0.247547	1.478414	0.798996
H207	H	0.085786	1.811748	1.132329
H208	H	-0.633948	1.033002	0.453064
H209	H	-0.300615	1.366335	0.786397
H210	H	0.032718	1.699668	1.119730
N211	N	-0.323156	0.875315	0.535277
N212	N	0.010177	1.208648	0.868611
N213	N	0.343511	1.541982	1.201944
H214	H	-0.325069	0.795243	0.538712
H215	H	0.008265	1.128576	0.872045
H216	H	0.341598	1.461910	1.205378
H217	H	-0.276508	0.903483	0.492210
H218	H	0.056826	1.236816	0.825543
H219	H	0.390159	1.570150	1.158877
