data_functionalizedCrystal
_audit_creation_method	'MofGen! by Chris Wilmer'
_symmetry_space_group_name_H-M	'P1'
_symmetry_Int_Tables_number	1
_symmetry_cell_setting	triclinic
loop_
_symmetry_equiv_pos_as_xyz
  x,y,z
_cell_length_a	19.077241
_cell_length_b	19.077068
_cell_length_c	15.298259
_cell_angle_alpha	97.833723
_cell_angle_beta	82.229381
_cell_angle_gamma	94.707771
loop_
_atom_site_label
_atom_site_type_symbol
_atom_site_fract_x
_atom_site_fract_y
_atom_site_fract_z
Zn1	Zn	-0.992535	0.163467	-0.569739
Zn2	Zn	-1.006277	0.299954	-0.426602
Zn3	Zn	-0.894705	0.188297	-0.415119
Zn4	Zn	-0.869881	0.286055	-0.569661
O5	O	-0.940850	0.234443	-0.495280
O6	O	-1.092382	0.176998	-0.555590
O7	O	-1.007617	0.301352	-0.300499
O8	O	-0.912320	0.086971	-0.430857
O9	O	-1.102479	0.277275	-0.450427
O10	O	-0.984195	0.068729	-0.544455
O11	O	-0.925646	0.219318	-0.292062
O12	O	-0.793388	0.205839	-0.430781
O13	O	-0.870011	0.253585	-0.694251
O14	O	-0.775150	0.277661	-0.544323
O15	O	-0.960124	0.163520	-0.694309
O16	O	-0.983547	0.396143	-0.450352
O17	O	-0.883337	0.385931	-0.555457
C18	C	-0.758852	0.242937	-0.486298
C19	C	-0.680989	0.246585	-0.482477
C20	C	-0.639138	0.196149	-0.535525
C21	C	-0.565979	0.199574	-0.531927
C22	C	-0.534671	0.253438	-0.475286
C23	C	-0.576528	0.303876	-0.422232
C24	C	-0.649687	0.300447	-0.425826
C25	C	-0.316437	0.269281	-0.458652
C26	C	-0.243272	0.272707	-0.455065
C27	C	-0.232729	0.168405	-0.564759
C28	C	-0.305888	0.164983	-0.568352
C29	C	-0.347739	0.215419	-0.515295
N30	N	-0.459891	0.256942	-0.471609
N31	N	-0.422519	0.211912	-0.518967
C32	C	-0.910766	0.204232	-0.727485
C33	C	-0.897946	0.191358	-0.826437
C34	C	-0.932256	0.416452	-0.504163
C35	C	-0.928640	0.494309	-0.507995
C36	C	-0.123559	0.225914	-0.504291
C37	C	-0.201421	0.222272	-0.508112
C38	C	-0.949494	0.051721	-0.486384
C39	C	-0.953177	-0.026145	-0.482592
C40	C	-0.979143	0.536172	-0.455122
C41	C	-0.975745	0.609326	-0.458733
C42	C	-0.921840	0.640616	-0.515212
C43	C	-0.871334	0.598747	-0.568091
C44	C	-0.874736	0.525594	-0.564485
C45	C	-0.906073	0.858833	-0.531865
C46	C	-0.902674	0.931992	-0.535465
C47	C	-1.007086	0.942566	-0.426108
C48	C	-1.010480	0.869411	-0.422503
C49	C	-0.959976	0.827548	-0.475385
N50	N	-0.918365	0.715391	-0.518902
N51	N	-0.963455	0.752774	-0.471699
C52	C	-1.032524	0.325917	-1.122929
C53	C	-1.044565	0.338018	-1.029959
C54	C	-1.007912	0.301354	-0.979074
C55	C	-0.959214	0.252587	-1.021168
C56	C	-0.947168	0.240489	-1.114148
C57	C	-0.922556	0.215926	-0.970293
C58	C	-0.873858	0.167160	-1.012387
C59	C	-0.861814	0.155064	-1.105357
C60	C	-0.898468	0.191728	-1.156242
C61	C	-0.934602	0.228024	-0.877313
C62	C	-0.849246	0.142596	-0.868532
C63	C	-0.837205	0.130496	-0.961502
C64	C	-0.970859	0.264485	-0.263978
C65	C	-0.983824	0.277155	-0.165024
H66	H	-0.350503	0.310350	-0.415450
O67	O	-0.825766	0.484876	-0.615942
C68	C	-0.860132	0.433151	-0.673343
H69	H	-0.913556	0.451852	-0.682703
H70	H	-0.825922	0.424591	-0.740537
H71	H	-0.868708	0.381185	-0.643206
O72	O	-0.192086	0.119469	-0.616422
C73	C	-0.197773	0.122495	-0.706750
H74	H	-0.214680	0.176952	-0.714849
H75	H	-0.144249	0.113044	-0.748090
H76	H	-0.238985	0.079939	-0.730351
H77	H	-0.683761	0.341517	-0.382628
H78	H	-0.974256	0.267726	-0.843049
H79	H	-0.551032	0.347730	-0.376109
O80	O	-1.068161	0.361611	-1.172224
C81	C	-1.113743	0.407231	-1.115139
H82	H	-1.093527	0.419619	-1.047562
H83	H	-1.115119	0.458582	-1.145061
H84	H	-1.169439	0.380384	-1.106632
H85	H	-1.023036	0.510702	-0.409127
O86	O	-0.857098	0.818130	-0.583326
C87	C	-0.891450	0.766403	-0.640739
H88	H	-0.944877	0.785094	-0.650103
H89	H	-0.857233	0.757855	-0.707930
H90	H	-0.900018	0.714432	-0.610611
O91	O	-0.212977	0.325062	-0.399962
C92	C	-0.265600	0.368854	-0.353920
H93	H	-0.319493	0.338107	-0.352049
H94	H	-0.253186	0.386360	-0.283087
H95	H	-0.266672	0.417506	-0.389390
O96	O	-1.062866	0.838920	-0.367764
C97	C	-1.103482	0.787848	-0.418642
H98	H	-1.070505	0.769274	-0.484323
H99	H	-1.119975	0.740685	-0.380322
H100	H	-1.152807	0.812286	-0.432422
O101	O	-1.056243	0.983141	-0.374792
C102	C	-1.124345	0.959403	-0.396904
H103	H	-1.123804	0.901758	-0.428583
H104	H	-1.164236	0.963776	-0.334117
H105	H	-1.140065	0.993480	-0.445889
H106	H	-1.016870	0.643409	-0.415677
H107	H	-0.858784	0.957463	-0.581474
H108	H	-1.017718	0.311210	-0.903374
H109	H	-0.819399	0.112742	-0.827101
O110	O	-0.819031	0.629089	-0.623086
C111	C	-0.823610	0.598901	-0.711698
H112	H	-0.879915	0.575536	-0.718018
H113	H	-0.809615	0.641562	-0.757745
H114	H	-0.785002	0.555195	-0.730986
H115	H	-1.084208	0.377730	-0.995692
H116	H	-0.888668	0.181876	-1.231947
O117	O	-0.814418	0.107749	-1.146143
C118	C	-0.746821	0.129285	-1.120734
H119	H	-0.752845	0.165067	-1.054470
H120	H	-0.718216	0.080606	-1.113534
H121	H	-0.714741	0.159592	-1.173650
O122	O	-0.669438	0.143762	-0.590570
C123	C	-0.616805	0.099993	-0.636635
H124	H	-0.569492	0.104710	-0.597491
H125	H	-0.639297	0.042569	-0.644595
H126	H	-0.599067	0.117305	-0.705068
O127	O	-0.525240	0.150679	-0.583509
C128	C	-0.473621	0.185147	-0.640810
H129	H	-0.464236	0.242807	-0.611344
H130	H	-0.421968	0.157474	-0.648890
H131	H	-0.492916	0.183030	-0.708530
O132	O	-0.336397	0.112637	-0.623248
C133	C	-0.387385	0.071922	-0.572520
H134	H	-0.405918	0.104818	-0.506740
H135	H	-0.434578	0.055452	-0.610869
H136	H	-0.362891	0.022573	-0.558931
O137	O	-0.789811	0.083181	-1.002296
C138	C	-0.722209	0.104711	-0.976900
H139	H	-0.728225	0.140490	-0.910632
H140	H	-0.693604	0.056031	-0.969712
H141	H	-0.690135	0.135022	-1.029816
