data_functionalizedCrystal
_audit_creation_method	'MofGen! by Chris Wilmer'
_symmetry_space_group_name_H-M	'P1'
_symmetry_Int_Tables_number	1
_symmetry_cell_setting	triclinic
loop_
_symmetry_equiv_pos_as_xyz
  x,y,z
_cell_length_a	18.760490
_cell_length_b	12.477989
_cell_length_c	12.477989
_cell_angle_alpha	60.281692
_cell_angle_beta	90.016763
_cell_angle_gamma	64.393906
loop_
_atom_site_label
_atom_site_type_symbol
_atom_site_fract_x
_atom_site_fract_y
_atom_site_fract_z
Zr1	Zr	0.745383	1.151890	-0.203311
O2	O	0.647891	1.353586	-0.377018
O3	O	0.768151	0.935596	-0.140557
O4	O	0.786304	1.130934	-0.363295
O5	O	0.623517	1.179868	0.010609
O6	O	0.903585	1.131009	-0.363280
O7	O	0.629738	1.158248	-0.154280
O8	O	0.871113	0.781585	0.035158
O9	O	0.655989	1.529292	-0.387829
O10	O	0.873988	1.030024	-0.125264
O11	O	0.781820	1.046103	-0.002220
O12	O	0.803193	1.276088	-0.264466
O13	O	0.711025	1.292167	-0.141422
Zr14	Zr	0.922512	1.186492	0.059691
Zr15	Zr	0.932433	1.152010	-0.203288
Zr16	Zr	0.735462	1.186372	0.059668
Zr17	Zr	0.758300	1.432122	-0.220553
Zr18	Zr	0.909596	0.906260	0.076933
O19	O	0.899745	1.402786	-0.003063
O20	O	0.913852	1.353756	-0.376985
O21	O	0.633784	1.402615	-0.003097
O22	O	1.020005	0.984796	0.233398
O23	O	1.034112	0.935767	-0.140523
O24	O	0.754044	0.984626	0.233365
O25	O	1.044378	1.158514	-0.154229
O26	O	0.881592	1.207448	0.219675
O27	O	0.764311	1.207373	0.219660
O28	O	1.038158	1.180134	0.010660
O29	O	0.804669	1.529388	-0.387811
O30	O	0.863226	0.808994	0.244191
O31	O	1.011906	0.809089	0.244209
O32	O	1.019792	0.781681	0.035176
O33	O	0.648103	1.556701	-0.178796
O34	O	0.796783	1.556797	-0.178778
O35	O	0.864703	1.062294	0.120846
O36	O	0.956871	1.046215	-0.002198
O37	O	0.886076	1.292279	-0.141400
O38	O	0.793908	1.308358	-0.018356
C39	C	0.817791	0.818664	-0.050243
C40	C	0.812308	0.699698	-0.042923
C41	C	0.599977	1.169041	-0.071839
C42	C	0.520569	1.168990	-0.071849
C43	C	0.188021	1.157439	-0.162622
C44	C	0.181283	1.181262	0.019064
C45	C	0.255927	1.181185	0.019049
C46	C	0.296622	1.169232	-0.071802
C47	C	0.262673	1.157357	-0.162638
C48	C	0.289885	1.193045	0.109891
C49	C	0.364534	1.192966	0.109880
C50	C	0.405227	1.181024	0.019022
C51	C	0.371274	1.169150	-0.071818
C52	C	0.411969	1.157197	-0.162669
C53	C	0.378014	1.145333	-0.253516
C54	C	0.303367	1.145415	-0.253495
C55	C	0.479874	1.180943	0.019002
C56	C	0.486621	1.157115	-0.162685
C57	C	1.067919	1.169341	-0.071781
C58	C	1.147326	1.169392	-0.071771
C59	C	0.846358	1.126059	-0.400756
C60	C	0.850570	1.111420	-0.512398
C61	C	0.850104	1.519718	-0.093377
C62	C	0.855588	1.638684	-0.100697
C63	C	0.821538	1.212323	0.257136
C64	C	0.817326	1.226962	0.368778
C65	C	1.051762	0.818814	-0.050214
C66	C	1.125686	0.699899	-0.042884
C67	C	0.805381	0.861796	0.278703
C68	C	0.795686	0.757469	0.397665
C69	C	1.039352	0.861946	0.278733
C70	C	1.109065	0.757670	0.397704
C71	C	0.628543	1.476436	-0.422353
C72	C	0.558831	1.580712	-0.541324
C73	C	0.616133	1.519568	-0.093406
C74	C	0.542209	1.638483	-0.100736
C75	C	0.862514	1.476586	-0.422323
C76	C	0.872210	1.580913	-0.541285
C77	C	1.117138	0.635602	-0.103692
C78	C	1.186592	0.523881	-0.096830
C79	C	1.264593	0.476452	-0.029153
C80	C	1.273140	0.540761	0.031656
C81	C	1.203688	0.652486	0.024787
C82	C	1.189921	0.700307	0.389346
C83	C	1.255431	0.602343	0.501121
C84	C	1.240083	0.561735	0.621252
C85	C	1.159219	0.619108	0.629607
C86	C	1.093711	0.717078	0.517833
C87	C	0.477975	1.638088	-0.532967
C88	C	0.412466	1.736087	-0.644744
C89	C	0.427815	1.776701	-0.764876
C90	C	0.508679	1.719321	-0.773230
C91	C	0.574186	1.621331	-0.661455
C92	C	0.550758	1.702790	-0.039940
C93	C	0.481307	1.814538	-0.046832
C94	C	0.403306	1.861970	-0.114514
C95	C	0.394759	1.797657	-0.175318
C96	C	0.464210	1.685918	-0.168432
H97	H	0.519749	1.147389	-0.236671
Br98	Br	1.174974	0.436626	-0.179362
H99	H	0.411159	1.135592	-0.327482
Br100	Br	1.215303	0.739727	0.107329
H101	H	0.488282	1.866884	0.002688
Br102	Br	1.210773	0.755403	0.226324
H103	H	0.924874	1.542177	-0.582035
Br104	Br	0.338901	1.909690	-0.916561
H105	H	0.521166	1.752401	-0.871055
Br106	Br	1.365166	0.524496	0.489752
Br107	Br	1.379005	0.476373	0.123504
Br108	Br	0.452592	1.598651	-0.250944
Br109	Br	0.903388	0.927864	-0.485183
H110	H	1.053633	0.674214	-0.158818
H111	H	1.293432	0.481960	0.712256
H112	H	0.160372	1.147786	-0.236591
Br113	Br	0.924345	0.703304	-0.192470
Br114	Br	0.731603	1.783953	-0.532066
Br115	Br	0.656608	1.638449	0.051918
Br116	Br	0.743563	0.635053	0.048880
Br117	Br	0.683917	1.543467	-0.672819
Br118	Br	0.309058	2.013620	-0.123845
Br119	Br	1.138403	0.563983	0.792654
H120	H	0.148150	1.190984	0.093038
Br121	Br	0.457123	1.582988	-0.369945
Br122	Br	0.234665	1.209246	0.233196
H123	H	0.785648	1.337081	-0.647545
Br124	Br	0.288894	1.862043	-0.267163
H125	H	0.275717	1.135754	-0.327458
H126	H	0.346629	1.782790	-0.637917
H127	H	0.392174	1.202628	0.183851
H128	H	1.321139	0.385476	-0.023568
Br129	Br	0.525957	1.197024	0.142295
Br130	Br	0.983978	0.794910	0.529199
