data_functionalizedCrystal
_audit_creation_method	'MofGen! by Chris Wilmer'
_symmetry_space_group_name_H-M	'P1'
_symmetry_Int_Tables_number	1
_symmetry_cell_setting	triclinic
loop_
_symmetry_equiv_pos_as_xyz
  x,y,z
_cell_length_a	16.992694
_cell_length_b	10.540539
_cell_length_c	16.053802
_cell_angle_alpha	92.593658
_cell_angle_beta	87.249047
_cell_angle_gamma	87.596857
loop_
_atom_site_label
_atom_site_type_symbol
_atom_site_fract_x
_atom_site_fract_y
_atom_site_fract_z
O1	O	1.045174	0.264306	-0.069318
O2	O	0.816873	0.261349	-0.069343
O3	O	0.936232	0.078573	-0.069329
O4	O	0.925815	0.447082	-0.069332
O5	O	0.929662	0.088589	0.069529
O6	O	0.810303	0.271366	0.069516
O7	O	1.038604	0.274322	0.069540
Zn8	Zn	0.923410	0.274434	0.091575
Zn9	Zn	0.932067	0.261237	-0.091377
O10	O	0.919245	0.457098	0.069526
C11	C	0.784355	0.262556	0.000083
C12	C	0.697247	0.251215	0.000074
C13	C	0.647620	0.360635	0.000073
C14	C	0.565773	0.349973	0.000085
C15	C	0.533555	0.229889	0.000091
C16	C	0.583189	0.120461	0.000094
C17	C	0.665034	0.131125	0.000088
C18	C	0.289709	0.185691	0.000114
C19	C	0.207858	0.175036	0.000117
C20	C	0.190447	0.404549	0.000110
C21	C	0.272294	0.415202	0.000099
C22	C	0.321921	0.305774	0.000106
N23	N	0.449895	0.218988	0.000100
N24	N	0.405579	0.316677	0.000103
C25	C	0.932166	0.036210	0.000099
C26	C	0.929829	-0.104941	0.000094
C27	C	0.840283	-0.296162	-0.000227
C28	C	0.842638	-0.149316	0.000086
C29	C	0.968037	-0.157237	0.079393
C30	C	0.965058	-0.304035	0.079460
C31	C	0.974303	-0.315790	-0.078448
C32	C	0.975156	-0.168814	-0.079496
C33	C	1.071123	0.273115	0.000112
C34	C	1.158230	0.284456	0.000117
C35	C	0.923311	0.499461	0.000097
C36	C	0.925649	0.640612	0.000096
N37	N	0.917508	0.283440	0.216434
N38	N	0.937975	0.252222	-0.216237
C39	C	0.968315	0.205700	0.260134
C40	C	0.964193	0.212013	0.347540
C41	C	0.909269	0.296073	0.391245
C42	C	0.858458	0.373817	0.347539
C43	C	0.862576	0.367497	0.260134
C44	C	0.891281	0.323645	0.652653
C45	C	0.887169	0.329962	0.740063
C46	C	0.992904	0.168156	0.740059
C47	C	0.997020	0.161848	0.652652
C48	C	0.946206	0.239587	0.608954
N49	N	0.905057	0.302531	0.480588
N50	N	0.950415	0.233122	0.519612
H51	H	0.525369	0.439075	0.000084
H52	H	0.808532	-0.331853	-0.057095
F53	F	0.837203	0.406382	0.606152
H54	H	0.330106	0.096587	0.000120
F55	F	1.026777	0.116237	0.213628
H56	H	0.803306	-0.325268	0.056314
H57	H	0.806696	-0.106338	0.057018
H58	H	1.034274	0.104863	0.775646
H59	H	0.150032	0.493638	0.000105
F60	F	0.548899	-0.007342	0.000105
F61	F	0.799998	0.463275	0.394054
H62	H	0.947229	-0.134851	-0.138159
F63	F	0.808498	0.450235	0.213627
F64	F	0.173572	0.047221	0.000138
F65	F	1.051548	-0.120480	0.083259
F66	F	0.717852	0.014665	0.000091
H67	H	0.812311	-0.113678	-0.056760
H68	H	0.298520	0.512986	0.000084
H69	H	1.038951	-0.139421	-0.084277
F70	F	0.920857	-0.338827	0.156929
H71	H	1.005563	0.148710	0.383120
H72	H	1.041744	0.093400	0.617070
H73	H	0.673844	0.458420	0.000068
H74	H	1.027595	-0.346303	0.083064
H75	H	0.936097	-0.112911	0.138399
H76	H	0.842440	0.398419	0.775644
F77	F	0.941130	-0.365886	-0.157008
H78	H	1.037306	-0.357589	-0.078974
