data_functionalizedCrystal
_audit_creation_method	'MofGen! by Chris Wilmer'
_symmetry_space_group_name_H-M	'P1'
_symmetry_Int_Tables_number	1
_symmetry_cell_setting	triclinic
loop_
_symmetry_equiv_pos_as_xyz
  x,y,z
_cell_length_a	10.489711
_cell_length_b	10.489716
_cell_length_c	9.730223
_cell_angle_alpha	90.002678
_cell_angle_beta	89.998239
_cell_angle_gamma	84.528072
loop_
_atom_site_label
_atom_site_type_symbol
_atom_site_fract_x
_atom_site_fract_y
_atom_site_fract_z
O1	O	1.694053	0.179784	-0.114326
O2	O	1.322851	0.196716	-0.114317
O3	O	1.516914	0.002649	-0.114327
O4	O	1.499989	0.373851	-0.114316
O5	O	1.516912	0.002654	0.114253
O6	O	1.322848	0.196721	0.114263
O7	O	1.694050	0.179789	0.114254
Zn8	Zn	1.508449	0.188256	0.150550
Zn9	Zn	1.508452	0.188249	-0.150613
O10	O	1.499986	0.373856	0.114264
C11	C	1.275317	0.195448	-0.000026
C12	C	1.133686	0.191646	-0.000023
C13	C	1.515642	-0.044880	-0.000041
C14	C	1.511837	-0.186511	-0.000053
C15	C	0.951289	0.308352	-0.000035
C16	C	1.043441	0.250053	-0.112737
C17	C	1.043412	0.250027	0.112625
C18	C	0.973501	0.126509	-0.112847
C19	C	0.973462	0.126500	0.112616
C20	C	1.065587	0.068111	-0.000112
C21	C	1.630843	-0.284198	-0.000044
C22	C	1.567958	-0.361554	-0.112740
C23	C	1.567929	-0.361513	0.112622
C24	C	1.449002	-0.262002	-0.112843
C25	C	1.448990	-0.261956	0.112620
C26	C	1.386018	-0.339263	-0.000104
C27	C	1.741584	0.181057	-0.000040
C28	C	1.883215	0.184859	-0.000052
C29	C	1.501259	0.421385	-0.000025
C30	C	1.505064	0.563016	-0.000022
N31	N	1.508456	0.188259	0.356087
N32	N	1.508455	0.188235	-0.356150
C33	C	1.594410	0.102356	0.428009
C34	C	1.594407	0.102340	0.571892
C35	C	1.422492	0.274143	0.571918
C36	C	1.422490	0.274151	0.428038
C37	C	1.680376	0.016464	0.356057
C38	C	1.766338	-0.069446	0.427979
C39	C	1.766335	-0.069461	0.571862
C40	C	1.680370	0.016433	0.643823
H41	H	0.901590	0.409854	-0.000144
C42	C	1.246079	-0.372275	-0.000180
C43	C	1.195919	-0.450111	0.119050
C44	C	1.055984	-0.483130	0.118965
C45	C	0.966208	-0.438312	-0.000351
C46	C	1.016366	-0.360470	-0.119590
C47	C	1.156301	-0.327452	-0.119505
H48	H	1.262378	-0.483293	0.207383
H49	H	1.018854	-0.540753	0.207234
H50	H	0.862619	-0.462754	-0.000414
H51	H	0.949907	-0.327289	-0.207923
H52	H	1.193431	-0.269828	-0.207774
C53	C	1.085323	0.320639	-0.241442
C54	C	1.177907	0.250473	-0.345386
C55	C	1.219787	0.321069	-0.474082
C56	C	1.169085	0.461832	-0.498834
C57	C	1.076496	0.532007	-0.394887
C58	C	1.034616	0.461410	-0.266191
H59	H	1.215445	0.146264	-0.327066
H60	H	1.288328	0.269120	-0.551031
H61	H	1.200087	0.514092	-0.594103
H62	H	1.038958	0.636215	-0.413207
H63	H	0.966075	0.513359	-0.189242
H64	H	1.734358	-0.259532	-0.000161
H65	H	1.398796	-0.218430	0.207905
C66	C	1.635815	-0.420235	0.241342
C67	C	1.778385	-0.404095	0.266061
C68	C	1.846281	-0.462813	0.394774
C69	C	1.771608	-0.537672	0.498766
C70	C	1.629031	-0.553816	0.474050
C71	C	1.561134	-0.495098	0.345338
H72	H	1.833669	-0.348677	0.189077
H73	H	1.951827	-0.450862	0.413070
H74	H	1.821870	-0.581139	0.594047
H75	H	1.573746	-0.609234	0.551034
H76	H	1.455588	-0.507049	0.327041
H77	H	1.618196	-0.405056	-0.208022
H78	H	0.942698	0.074303	-0.208239
H79	H	1.680366	0.016404	0.760983
H80	H	1.115053	-0.033485	-0.000172
C81	C	1.381188	-0.203511	-0.241712
C82	C	1.372354	-0.057811	-0.265572
C83	C	1.304546	0.000681	-0.394441
C84	C	1.245572	-0.086527	-0.499449
C85	C	1.254404	-0.232236	-0.475592
C86	C	1.322212	-0.290729	-0.346723
H87	H	1.416011	0.006754	-0.187836
H88	H	1.298008	0.108545	-0.412102
H89	H	1.195377	-0.043228	-0.594846
H90	H	1.210746	-0.296801	-0.553328
H91	H	1.328749	-0.398593	-0.329063
H92	H	0.942443	0.074292	0.207900
H93	H	1.074362	0.302303	0.207907
H94	H	1.680390	0.016471	0.238901
H95	H	1.836321	-0.139385	0.369381
H96	H	1.836319	-0.139420	0.630420
H97	H	1.352503	0.344076	0.630519
H98	H	1.352497	0.344101	0.369479
