data_functionalizedCrystal
_audit_creation_method	'MofGen! by Chris Wilmer'
_symmetry_space_group_name_H-M	'P1'
_symmetry_Int_Tables_number	1
_symmetry_cell_setting	triclinic
loop_
_symmetry_equiv_pos_as_xyz
  x,y,z
_cell_length_a	18.627243
_cell_length_b	18.627245
_cell_length_c	18.627297
_cell_angle_alpha	90.002039
_cell_angle_beta	59.997824
_cell_angle_gamma	119.999685
loop_
_atom_site_label
_atom_site_type_symbol
_atom_site_fract_x
_atom_site_fract_y
_atom_site_fract_z
O1	O	0.633240	-0.492484	-0.021356
O2	O	0.486232	-0.388088	0.021256
O3	O	0.633235	-0.388087	-0.125751
O4	O	0.486237	-0.492485	0.125650
O5	O	0.513833	-0.507489	-0.125750
O6	O	0.366830	-0.507489	0.021256
O7	O	0.513838	-0.611886	-0.021356
Zn8	Zn	0.421376	-0.578645	-0.000050
Zn9	Zn	0.578694	-0.421328	-0.000051
O10	O	0.366835	-0.611886	0.125650
C11	C	0.356044	-0.256979	0.030935
C12	C	0.406443	-0.162282	0.024836
C13	C	0.269040	-0.300580	0.031539
C14	C	0.356039	-0.386983	0.030943
C15	C	0.406432	-0.431286	0.024852
C16	C	0.269035	-0.430386	0.031548
C17	C	0.226044	-0.386979	0.030935
C18	C	0.137446	-0.431279	0.024835
C19	C	0.398838	-0.300583	0.031548
O20	O	-0.104350	-0.611881	-0.021369
O21	O	0.104442	-0.507482	0.021239
O22	O	0.104453	-0.507489	-0.125766
O23	O	-0.104360	-0.611875	0.125635
O24	O	0.104457	-0.388084	-0.125773
O25	O	0.104446	-0.388078	0.021231
O26	O	-0.104345	-0.492477	-0.021377
Zn27	Zn	0.000051	-0.421319	-0.000074
Zn28	Zn	0.000046	-0.578640	-0.000064
O29	O	-0.104356	-0.492470	0.125628
C30	C	0.644032	-0.386986	-0.387050
C31	C	0.593636	-0.431285	-0.431350
C32	C	0.731038	-0.300587	-0.430453
C33	C	0.644032	-0.386986	-0.257049
C34	C	0.593635	-0.431287	-0.162352
C35	C	0.731037	-0.300588	-0.300650
C36	C	0.774032	-0.256986	-0.387049
C37	C	0.862632	-0.162290	-0.431348
C38	C	0.601235	-0.430390	-0.300651
C39	C	0.774046	-0.612982	-0.031065
C40	C	0.862649	-0.568681	-0.024971
C41	C	0.731054	-0.699380	-0.031674
C42	C	0.644041	-0.612985	-0.031058
C43	C	0.593641	-0.568686	-0.024957
C44	C	0.601246	-0.699383	-0.031667
C45	C	0.644046	-0.742983	-0.031064
C46	C	0.593651	-0.837679	-0.024969
C47	C	0.731049	-0.569580	-0.031668
O48	O	0.513853	0.125721	-0.021375
O49	O	0.366846	-0.125678	0.021232
O50	O	0.513856	0.021315	-0.125772
O51	O	0.366843	-0.021272	0.125629
O52	O	0.633253	0.021311	-0.125765
O53	O	0.486243	-0.125682	0.021240
O54	O	0.633250	0.125717	-0.021368
Zn55	Zn	0.578703	0.000017	-0.000063
Zn56	Zn	0.421393	0.000022	-0.000073
O57	O	0.486240	-0.021275	0.125637
O58	O	1.104430	0.125707	-0.492538
O59	O	0.895633	-0.125690	-0.388147
O60	O	0.895628	0.021307	-0.388137
O61	O	1.104435	-0.021290	-0.492548
O62	O	0.895631	0.021311	-0.507540
O63	O	0.895636	-0.125686	-0.507550
O64	O	1.104433	0.125711	-0.611941
Zn65	Zn	1.000035	0.000013	-0.578704
Zn66	Zn	1.000031	0.000008	-0.421384
O67	O	1.104438	-0.021286	-0.611951
O68	O	0.486231	-0.492490	-0.611948
O69	O	0.633235	-0.388087	-0.507553
O70	O	0.486230	-0.388090	-0.507544
O71	O	0.633237	-0.492487	-0.611956
O72	O	0.366830	-0.507490	-0.388142
O73	O	0.513836	-0.507487	-0.388151
O74	O	0.366832	-0.611890	-0.492545
Zn75	Zn	0.421376	-0.578646	-0.421390
Zn76	Zn	0.578691	-0.421331	-0.578708
O77	O	0.513837	-0.611887	-0.492554
C78	C	0.226037	-0.742989	0.386948
C79	C	0.137437	-0.837686	0.431246
C80	C	0.269030	-0.699389	0.430353
C81	C	0.356038	-0.612988	0.256949
C82	C	0.406435	-0.568687	0.162252
C83	C	0.398834	-0.569585	0.300552
C84	C	0.356036	-0.612990	0.386950
C85	C	0.406432	-0.568691	0.431252
C86	C	0.269032	-0.699387	0.300549
C87	C	0.356073	-0.256995	-0.387073
C88	C	0.406473	-0.162299	-0.431376
C89	C	0.398871	-0.300599	-0.430474
C90	C	0.226065	-0.386990	-0.257069
C91	C	0.137460	-0.431286	-0.162372
C92	C	0.269060	-0.430398	-0.300668
C93	C	0.356070	-0.386997	-0.387067
C94	C	0.406468	-0.431300	-0.431364
C95	C	0.269063	-0.300593	-0.300674
C96	C	-0.355975	-0.612964	0.386929
C97	C	-0.406373	-0.568662	0.431227
C98	C	-0.398774	-0.699362	0.430336
C99	C	-0.225968	-0.612970	0.256931
C100	C	-0.137363	-0.568673	0.162234
C101	C	-0.268966	-0.699367	0.300535
C102	C	-0.355976	-0.742966	0.386934
C103	C	-0.406376	-0.837662	0.431237
C104	C	-0.268964	-0.569563	0.300530
C105	C	0.774043	0.030962	-0.387056
C106	C	0.862639	0.024856	-0.431349
C107	C	0.731051	0.031564	-0.430463
C108	C	0.644049	0.030986	-0.257064
C109	C	0.593654	0.024905	-0.162369
C110	C	0.601253	0.031588	-0.300669
C111	C	0.644048	0.030966	-0.387064
C112	C	0.593653	0.024863	-0.431366
C113	C	0.731051	0.031584	-0.300660
O114	O	0.633303	0.125701	-0.611972
O115	O	0.486281	-0.125700	-0.507577
O116	O	0.633272	0.021288	-0.507558
O117	O	0.486311	-0.021287	-0.611991
O118	O	0.513861	0.021292	-0.388162
O119	O	0.366869	-0.125696	-0.388181
O120	O	0.513891	0.125706	-0.492576
Zn121	Zn	0.421421	0.000006	-0.421421
Zn122	Zn	0.578751	0.000000	-0.578731
O123	O	0.366900	-0.021282	-0.492594
C124	C	0.356047	-0.030927	0.386929
C125	C	0.406443	-0.024826	0.431231
C126	C	0.269046	-0.031525	0.430327
C127	C	0.356047	-0.030947	0.256928
C128	C	0.406442	-0.024866	0.162234
C129	C	0.269045	-0.031545	0.300525
C130	C	0.226053	-0.030923	0.386920
C131	C	0.137458	-0.024816	0.431213
C132	C	0.398842	-0.031549	0.300533
H133	H	0.468845	-0.265576	0.032531
O134	O	0.226270	-0.515037	0.032597
C135	C	0.297215	-0.519852	-0.042749
H136	H	0.377368	-0.461514	-0.068693
H137	H	0.283254	-0.518290	-0.095562
C138	C	0.186855	-0.677679	0.013199
C139	C	0.285300	-0.606032	-0.018661
H140	H	0.179503	-0.730840	0.028056
H141	H	0.139055	-0.674436	0.063960
H142	H	0.175232	-0.676366	-0.030817
H143	H	0.296916	-0.607340	0.025359
H144	H	0.333101	-0.609278	-0.069414
H145	H	0.767008	-0.265581	-0.265636
O146	O	0.773845	-0.258799	-0.515094
C147	C	0.702899	-0.254425	-0.519930
H148	H	0.643607	-0.260085	-0.452701
H149	H	0.663986	-0.310669	-0.540914
C150	C	0.830884	-0.159072	-0.670257
C151	C	0.758065	-0.166017	-0.587686
H152	H	0.864913	-0.104541	-0.712054
H153	H	0.878682	-0.162021	-0.667001
H154	H	0.798446	-0.205947	-0.687731
H155	H	0.790506	-0.119150	-0.570208
H156	H	0.710274	-0.163058	-0.590941
O157	O	0.517601	-0.515024	-0.258899
C158	C	0.437463	-0.519787	-0.254492
H159	H	0.469888	-0.461461	-0.308731
H160	H	0.386267	-0.518157	-0.187734
C161	C	0.335459	-0.677615	-0.199971
C162	C	0.375283	-0.605983	-0.266594
H163	H	0.297100	-0.730786	-0.207432
H164	H	0.389447	-0.674408	-0.202937
H165	H	0.292802	-0.676246	-0.144346
H166	H	0.417949	-0.607347	-0.322216
H167	H	0.321300	-0.609193	-0.263637
H168	H	0.531240	0.032565	-0.265661
O169	O	0.773807	0.032599	-0.515111
C170	C	0.702846	-0.042740	-0.519914
H171	H	0.622699	-0.068667	-0.461572
H172	H	0.716790	-0.095565	-0.518346
C173	C	0.813197	0.013186	-0.677745
C174	C	0.714759	-0.018653	-0.606092
H175	H	0.820547	0.028041	-0.730905
H176	H	0.861007	0.063942	-0.674510
H177	H	0.824805	-0.030840	-0.676427
H178	H	0.703156	0.025376	-0.607405
H179	H	0.666947	-0.069402	-0.609329
H180	H	-0.233028	-0.498597	0.265502
H181	H	0.767034	0.032562	-0.265654
H182	H	0.531229	-0.734388	-0.032637
H183	H	0.233069	-0.032523	0.265512
O184	O	0.226261	-0.032494	0.514954
C185	C	0.297244	0.042847	0.519737
H186	H	0.356535	0.096436	0.452484
H187	H	0.336152	0.025526	0.540735
C188	C	0.169308	0.010332	0.670046
C189	C	0.242125	0.076154	0.587446
H190	H	0.135309	0.030876	0.711815
H191	H	0.121486	-0.040429	0.666826
H192	H	0.201743	-0.004096	0.687533
H193	H	0.209688	0.090572	0.569956
H194	H	0.289941	0.126918	0.590665
O195	O	0.773826	-0.741263	-0.032734
C196	C	0.702883	-0.817031	0.042599
H197	H	0.622729	-0.838848	0.068544
H198	H	0.716837	-0.801519	0.095418
C199	C	0.813262	-0.864484	-0.013375
C200	C	0.714814	-0.891284	0.018486
H201	H	0.820623	-0.910286	-0.028246
H202	H	0.861059	-0.813436	-0.064127
H203	H	0.824878	-0.851557	0.030646
H204	H	0.703204	-0.904200	-0.025538
H205	H	0.667015	-0.942336	0.069231
O206	O	0.226299	-0.258704	-0.258959
C207	C	0.297243	-0.182950	-0.254554
H208	H	0.377395	-0.161142	-0.308761
H209	H	0.283273	-0.198478	-0.187776
C210	C	0.186890	-0.135471	-0.200147
C211	C	0.285335	-0.108681	-0.266729
H212	H	0.179542	-0.089659	-0.207653
H213	H	0.139091	-0.186509	-0.203111
H214	H	0.175260	-0.148411	-0.144505
H215	H	0.296958	-0.095752	-0.322368
H216	H	0.333135	-0.057639	-0.263775
O217	O	0.482478	-0.258902	-0.515125
C218	C	0.562614	-0.254532	-0.519921
H219	H	0.530193	-0.308738	-0.461568
H220	H	0.613885	-0.187758	-0.518371
C221	C	0.664508	-0.200158	-0.677754
C222	C	0.624687	-0.266740	-0.606086
H223	H	0.702801	-0.207684	-0.730905
H224	H	0.610520	-0.203099	-0.674523
H225	H	0.707227	-0.144520	-0.676450
H226	H	0.581960	-0.322375	-0.607385
H227	H	0.678669	-0.263808	-0.609319
H228	H	0.767030	-0.498593	-0.032637
H229	H	0.468846	-0.498597	0.265543
H230	H	0.233032	-0.734393	0.501347
O231	O	0.482443	-0.032602	0.258820
C232	C	0.562605	0.042749	0.254408
H233	H	0.530212	0.068701	0.308611
H234	H	0.613853	0.095552	0.187628
C235	C	0.664486	-0.013202	0.200008
C236	C	0.624700	0.018668	0.266585
H237	H	0.702793	-0.028054	0.207514
H238	H	0.610482	-0.063967	0.202976
H239	H	0.707186	0.030805	0.144363
H240	H	0.581992	-0.025343	0.322226
H241	H	0.678699	0.069425	0.263625
H242	H	0.233059	-0.265571	0.032519
H243	H	0.233044	-0.734394	0.265547
H244	H	0.233062	-0.501390	-0.265660
O245	O	-0.225898	-0.741047	0.258812
C246	C	-0.125404	-0.693977	0.234445
H247	H	-0.117060	-0.652361	0.278320
H248	H	-0.070792	-0.649366	0.162923
C249	C	-0.110922	-0.810157	0.191285
C250	C	-0.100676	-0.759048	0.245179
H251	H	-0.095666	-0.850294	0.197903
H252	H	-0.178625	-0.841867	0.207698
H253	H	-0.065412	-0.772971	0.131688
H254	H	-0.146195	-0.796232	0.304775
H255	H	-0.032980	-0.727345	0.228776
O256	O	-0.482390	-0.741281	0.514982
C257	C	-0.562502	-0.817043	0.519749
H258	H	-0.530053	-0.838807	0.461382
H259	H	-0.613779	-0.801549	0.518200
C260	C	-0.664430	-0.864603	0.677583
C261	C	-0.624576	-0.891338	0.605899
H262	H	-0.702725	-0.910431	0.730726
H263	H	-0.610459	-0.813559	0.674373
H264	H	-0.707155	-0.851691	0.676280
H265	H	-0.581843	-0.904239	0.607197
H266	H	-0.678542	-0.942386	0.609112
