data_functionalizedCrystal
_audit_creation_method	'MofGen! by Chris Wilmer'
_symmetry_space_group_name_H-M	'P1'
_symmetry_Int_Tables_number	1
_symmetry_cell_setting	triclinic
loop_
_symmetry_equiv_pos_as_xyz
  x,y,z
_cell_length_a	19.077105
_cell_length_b	12.759400
_cell_length_c	12.759393
_cell_angle_alpha	90.031564
_cell_angle_beta	92.319079
_cell_angle_gamma	87.711168
loop_
_atom_site_label
_atom_site_type_symbol
_atom_site_fract_x
_atom_site_fract_y
_atom_site_fract_z
Zn1	Zn	1.076056	-0.482833	0.658529
Zn2	Zn	1.075986	-0.658548	0.482845
Zn3	Zn	0.958353	-0.475819	0.475808
Zn4	Zn	0.958346	-0.651401	0.651430
O5	O	1.017185	-0.567150	0.567153
O6	O	1.174539	-0.512069	0.641140
O7	O	1.060355	-0.634364	0.334889
O8	O	0.974000	-0.329730	0.500072
O9	O	1.174487	-0.641166	0.512066
O10	O	1.060476	-0.334884	0.634317
O11	O	0.973931	-0.500113	0.329719
O12	O	0.859861	-0.493183	0.493188
O13	O	0.973987	-0.628985	0.799394
O14	O	0.859855	-0.622183	0.622217
O15	O	1.060468	-0.505139	0.804610
O16	O	1.060348	-0.804619	0.505182
O17	O	0.973918	-0.799368	0.629040
C18	C	1.017144	-0.840115	0.567128
C19	C	1.017190	-0.956895	0.567157
C20	C	0.834320	-0.556147	0.556169
C21	C	0.756090	-0.551465	0.551495
C22	C	1.062244	-1.014459	0.502741
C23	C	1.062287	-1.124185	0.502776
C24	C	0.972217	-1.118774	0.631645
C25	C	0.972178	-1.009049	0.631615
C26	C	1.114243	-1.017584	0.428336
C27	C	1.114286	-1.127311	0.428371
C28	C	0.719352	-0.616530	0.616372
C29	C	0.645846	-0.612117	0.611986
C30	C	0.609079	-0.542644	0.542716
C31	C	0.645822	-0.477572	0.477837
C32	C	0.719326	-0.481980	0.482229
C33	C	0.389242	-0.522241	0.522392
C34	C	0.315733	-0.517840	0.518002
C35	C	0.315762	-0.652384	0.652153
C36	C	0.389268	-0.656791	0.656535
C37	C	0.426004	-0.591715	0.591659
N38	N	0.533944	-0.538134	0.538229
N39	N	0.501138	-0.596221	0.596153
C40	C	1.200765	-0.578197	0.578180
C41	C	1.278995	-0.582905	0.582879
C42	C	1.017235	-0.567047	0.841189
C43	C	1.017256	-0.567003	0.957967
C44	C	1.017246	-0.293121	0.567201
C45	C	1.017273	-0.176346	0.567222
C46	C	1.017177	-0.567180	0.294185
C47	C	1.017292	-0.566936	0.177416
C48	C	1.062293	-0.502511	1.015547
C49	C	1.062309	-0.502474	1.125272
C50	C	0.972250	-0.631431	1.119828
C51	C	0.972230	-0.631462	1.010104
C52	C	1.114290	-0.428062	1.018692
C53	C	1.114307	-0.428025	1.128417
H54	H	0.935498	-0.962181	0.684077
Br55	Br	1.089986	-0.290994	0.967628
Br56	Br	0.911146	-0.718904	1.190592
Br57	Br	0.911092	-0.718969	0.931961
Br58	Br	0.595991	-0.700421	0.700040
Br59	Br	0.265834	-0.423560	0.423976
H60	H	0.749283	-0.673107	0.672775
Br61	Br	0.439162	-0.751086	0.750541
H62	H	0.935570	-1.161251	0.684126
Br63	Br	1.081685	-0.297282	1.183220
H64	H	1.168818	-0.453091	1.161465
Br65	Br	0.439089	-0.433917	0.434352
H66	H	0.285844	-0.705364	0.704972
Br67	Br	0.595924	-0.383275	0.383837
Br68	Br	1.205065	-0.973263	0.470201
H69	H	1.094732	-0.982465	0.349839
H70	H	1.166074	-1.164366	0.460689
Br71	Br	1.200568	-0.481857	0.967127
H72	H	0.749237	-0.428992	0.429405
H73	H	1.099724	-1.156298	0.346117
