data_functionalizedCrystal
_audit_creation_method	'MofGen! by Chris Wilmer'
_symmetry_space_group_name_H-M	'P1'
_symmetry_Int_Tables_number	1
_symmetry_cell_setting	triclinic
loop_
_symmetry_equiv_pos_as_xyz
  x,y,z
_cell_length_a	6.817900
_cell_length_b	15.233341
_cell_length_c	17.110515
_cell_angle_alpha	83.988734
_cell_angle_beta	80.939177
_cell_angle_gamma	104.957012
loop_
_atom_site_label
_atom_site_type_symbol
_atom_site_fract_x
_atom_site_fract_y
_atom_site_fract_z
V1	V	4.021136	0.283278	-0.110018
O2	O	4.031441	0.278007	0.004735
O3	O	3.950874	0.281224	-0.217617
O4	O	3.980235	0.406878	-0.108568
O5	O	4.001876	0.151482	-0.105069
V6	V	4.506625	0.267528	-0.096264
O7	O	4.278082	0.317826	-0.140190
O8	O	4.699876	0.232980	-0.066092
O9	O	4.353680	0.269582	0.011335
O10	O	4.613717	0.272800	-0.211017
O11	O	4.643281	0.399324	-0.101213
O12	O	4.324319	0.143928	-0.097714
C13	C	3.790314	0.276725	-0.243840
C14	C	3.814203	0.275870	-0.331805
C15	C	3.940150	0.270812	-0.829116
C16	C	3.917720	0.271620	-0.746464
C17	C	4.088070	0.276548	-0.709179
C18	C	4.280868	0.280679	-0.754552
C19	C	4.303298	0.279878	-0.837203
C20	C	4.029431	0.279199	-0.459829
C21	C	4.006984	0.279997	-0.377171
C22	C	3.643838	0.270940	-0.369089
C23	C	3.666283	0.270134	-0.451742
C24	C	3.859080	0.274269	-0.497108
C25	C	4.065147	0.277371	-0.624695
C26	C	3.882004	0.273453	-0.581591
C27	C	3.827766	0.437009	-0.104736
C28	C	3.875464	0.538052	-0.104262
C29	C	3.924240	0.598427	-0.176531
C30	C	3.871491	0.572620	-0.031546
C31	C	3.916294	0.667555	-0.031098
C32	C	3.965070	0.727930	-0.103368
C33	C	3.969043	0.693371	-0.176085
C34	C	3.912305	0.702121	0.041618
C35	C	3.957108	0.797061	0.042069
C36	C	4.005899	0.857439	-0.030201
C37	C	4.009872	0.822874	-0.102922
C38	C	4.058649	0.883249	-0.175191
C39	C	4.062637	0.848687	-0.247913
C40	C	4.017834	0.753748	-0.248356
C41	C	4.050702	0.952377	-0.029758
C42	C	4.103451	0.978193	-0.174745
C43	C	4.147116	1.113794	-0.101551
C44	C	4.099478	1.012752	-0.102028
C45	C	4.177581	0.274079	0.037554
C46	C	4.132930	0.274940	0.125518
H47	H	3.760740	0.268257	-0.709530
H48	H	3.831766	0.523457	0.027292
H49	H	3.927493	0.570282	-0.235740
H50	H	4.419571	0.284698	-0.724189
Cl51	Cl	4.279289	0.283563	-0.577815
Cl52	Cl	4.164783	1.054087	-0.265604
H53	H	4.186414	0.282565	-0.496756
Cl54	Cl	4.545664	0.285073	-0.894236
Cl55	Cl	3.850967	0.626218	0.132465
H56	H	3.953853	0.825193	0.101284
Cl57	Cl	4.221168	0.286216	-0.330303
H58	H	4.102343	0.897856	-0.306754
H59	H	4.021076	0.725598	-0.307562
H60	H	4.047465	0.980514	0.029450
H61	H	3.801429	0.266801	-0.859467
H62	H	3.743310	0.269445	-0.611952
H63	H	3.527553	0.266104	-0.482091
H64	H	3.486870	0.267575	-0.332144
