data_functionalizedCrystal
_audit_creation_method	'MofGen! by Chris Wilmer'
_symmetry_space_group_name_H-M	'P1'
_symmetry_Int_Tables_number	1
_symmetry_cell_setting	triclinic
loop_
_symmetry_equiv_pos_as_xyz
  x,y,z
_cell_length_a	12.827893
_cell_length_b	12.759400
_cell_length_c	12.759393
_cell_angle_alpha	89.968436
_cell_angle_beta	90.019703
_cell_angle_gamma	89.985345
loop_
_atom_site_label
_atom_site_type_symbol
_atom_site_fract_x
_atom_site_fract_y
_atom_site_fract_z
Zn1	Zn	1.597679	0.418205	0.594015
Zn2	Zn	1.597574	0.593924	0.418335
Zn3	Zn	1.422919	0.418260	0.418351
Zn4	Zn	1.422908	0.593843	0.593973
O5	O	1.510270	0.506058	0.506169
O6	O	1.743901	0.441526	0.570722
O7	O	1.574367	0.570679	0.271316
O8	O	1.446150	0.271231	0.441677
O9	O	1.743824	0.570626	0.441651
O10	O	1.574546	0.271191	0.570737
O11	O	1.446048	0.441619	0.271328
O12	O	1.276682	0.441540	0.441636
O13	O	1.446131	0.570487	0.741000
O14	O	1.276673	0.570540	0.570665
O15	O	1.574535	0.441447	0.741031
O16	O	1.574356	0.740934	0.441610
O17	O	1.446029	0.740874	0.570650
C18	C	1.510208	0.779025	0.506147
C19	C	1.510277	0.895802	0.506172
C20	C	1.238760	0.506038	0.506149
C21	C	1.122607	0.506054	0.506165
C22	C	1.510343	0.505952	0.780202
C23	C	1.510374	0.505907	0.896979
C24	C	1.070846	0.569987	0.569914
C25	C	0.950796	0.570006	0.569932
C26	C	1.782840	0.506079	0.506189
C27	C	1.898993	0.506088	0.506198
C28	C	1.510361	0.232025	0.506214
C29	C	1.510400	0.115248	0.506233
C30	C	1.577171	0.950660	0.439055
C31	C	1.577235	1.060384	0.439088
C32	C	1.443503	1.060382	0.573357
C33	C	1.443445	0.950660	0.573329
C34	C	1.654377	0.950662	0.361533
C35	C	1.654441	1.060386	0.361565
C36	C	1.510257	0.506088	0.233201
C37	C	1.510429	0.505837	0.116425
C38	C	1.577243	0.438709	0.951859
C39	C	1.577268	0.438671	1.061583
C40	C	1.443552	0.573037	1.061538
C41	C	1.443523	0.573069	0.951815
C42	C	1.654447	0.361137	0.951886
C43	C	1.654472	0.361099	1.061610
H44	H	1.115408	0.624705	0.624482
H45	H	0.906282	0.624744	0.624507
Br46	Br	1.048345	0.414833	0.415224
H47	H	1.731306	0.390306	0.917851
Br48	Br	1.352748	0.664248	0.877338
H49	H	1.388984	0.905995	0.627991
H50	H	1.389122	0.627716	1.106199
Br51	Br	1.606036	0.232316	1.118369
Br52	Br	1.789226	0.900887	0.397953
Br53	Br	1.352809	1.134838	0.664497
Br54	Br	1.606063	0.894070	0.232665
H55	H	1.735408	0.382892	1.091390
H56	H	0.943500	0.451353	0.451614
Br57	Br	1.618361	0.225529	0.902279
H58	H	1.731332	1.094331	0.390779
H59	H	1.632820	1.090249	0.280184
