data_functionalizedCrystal
_audit_creation_method	'MofGen! by Chris Wilmer'
_symmetry_space_group_name_H-M	'P1'
_symmetry_Int_Tables_number	1
_symmetry_cell_setting	triclinic
loop_
_symmetry_equiv_pos_as_xyz
  x,y,z
_cell_length_a	10.540539
_cell_length_b	11.026607
_cell_length_c	9.616153
_cell_angle_alpha	90.001858
_cell_angle_beta	89.996361
_cell_angle_gamma	83.444246
loop_
_atom_site_label
_atom_site_type_symbol
_atom_site_fract_x
_atom_site_fract_y
_atom_site_fract_z
O1	O	0.532601	-1.614776	-0.115633
O2	O	0.471954	-1.260944	-0.115637
O3	O	0.319340	-1.445932	-0.115633
O4	O	0.685216	-1.429788	-0.115637
O5	O	0.319327	-1.445923	0.115658
O6	O	0.471942	-1.260934	0.115655
O7	O	0.532589	-1.614766	0.115658
Zn8	Zn	0.502263	-1.437849	0.152379
Zn9	Zn	0.502280	-1.437862	-0.152357
O10	O	0.685203	-1.429778	0.115655
C11	C	0.460760	-1.215631	0.000009
C12	C	0.427407	-1.080628	0.000007
C13	C	0.271765	-1.444717	0.000010
C14	C	0.130023	-1.441094	0.000003
C15	C	0.543783	-1.660079	0.000010
C16	C	0.577136	-1.795082	0.000002
C17	C	-0.083807	-1.302290	-0.000518
C18	C	0.063615	-1.305962	0.000003
C19	C	0.082603	-1.506121	0.132082
C20	C	-0.064952	-1.501509	0.132193
C21	C	-0.064853	-1.504268	-0.130828
C22	C	0.082401	-1.505513	-0.132575
C23	C	0.732778	-1.430993	0.000008
C24	C	0.874519	-1.434616	0.000007
N25	N	0.502253	-1.437849	0.360354
C26	C	0.519499	-1.007621	0.000005
C27	C	0.485030	-0.868088	0.000004
N28	N	0.502282	-1.437871	-0.360332
C29	C	0.420639	-1.536860	0.419354
C30	C	0.421006	-1.537230	0.580521
C31	C	0.641364	-1.466202	0.581132
C32	C	0.640899	-1.466901	0.419914
C33	C	0.445915	-1.310219	0.419787
C34	C	0.443112	-1.311060	0.581015
H35	H	0.095016	-1.254795	-0.094677
H36	H	0.623862	-1.048417	0.000012
N37	N	0.103985	-1.237710	0.125626
H38	H	0.025972	-1.205125	0.180884
H39	H	0.162290	-1.294848	0.185701
N40	N	0.725789	-1.375066	0.368202
H41	H	0.726149	-1.374805	0.263172
H42	H	0.692421	-1.291163	0.403423
H43	H	0.317940	-1.520178	0.380570
H44	H	0.686040	-1.560000	0.382302
H45	H	0.459311	-1.631022	0.378813
H46	H	0.460068	-1.631933	0.619080
H47	H	0.704795	-1.396034	0.619441
N48	N	0.289162	-1.026607	0.000026
H49	H	0.284135	-0.934586	0.000028
H50	H	0.245443	-1.054611	-0.085714
H51	H	0.318573	-1.520268	0.620100
H52	H	0.686841	-1.558246	0.621499
H53	H	-0.124094	-1.248913	-0.095234
N54	N	0.125891	-1.446288	0.262294
H55	H	0.181568	-1.508366	0.319137
H56	H	0.176159	-1.377064	0.235926
N57	N	0.524288	-1.212603	0.369251
H58	H	0.595932	-1.250798	0.308158
H59	H	0.468052	-1.149648	0.314159
H60	H	-0.105981	-1.460537	-0.230936
N61	N	-0.099078	-1.633560	-0.131997
H62	H	-0.018459	-1.692567	-0.128905
H63	H	-0.153609	-1.646881	-0.048231
H64	H	0.380661	-0.827297	-0.000031
N65	N	0.312327	-1.274348	0.365957
H66	H	0.286973	-1.340477	0.302488
H67	H	0.250960	-1.263308	0.446833
H68	H	-0.125665	-1.249122	0.093667
N69	N	0.307389	-1.282589	0.631690
H70	H	0.284315	-1.351537	0.692390
H71	H	0.299402	-1.204345	0.687225
N72	N	0.715388	-0.849095	0.000014
H73	H	0.720419	-0.941116	0.000017
H74	H	0.759112	-0.821096	-0.085729
N75	N	0.513739	-1.208817	0.634350
H76	H	0.585417	-1.243407	0.697565
H77	H	0.550140	-1.165988	0.553236
H78	H	-0.103684	-1.453443	0.230924
H79	H	0.126694	-1.605358	0.136994
N80	N	-0.100309	-1.630233	0.140141
H81	H	-0.020062	-1.689719	0.143564
H82	H	-0.152600	-1.639486	0.226712
N83	N	0.122824	-1.442572	-0.262012
H84	H	0.171785	-1.372624	-0.234901
H85	H	0.179038	-1.502809	-0.320625
N86	N	0.143055	-1.636022	-0.143149
H87	H	0.238898	-1.637588	-0.149040
H88	H	0.120136	-1.682830	-0.058232
