data_functionalizedCrystal
_audit_creation_method	'MofGen! by Chris Wilmer'
_symmetry_space_group_name_H-M	'P1'
_symmetry_Int_Tables_number	1
_symmetry_cell_setting	triclinic
loop_
_symmetry_equiv_pos_as_xyz
  x,y,z
_cell_length_a	16.109301
_cell_length_b	16.109304
_cell_length_c	14.586319
_cell_angle_alpha	89.999019
_cell_angle_beta	89.999213
_cell_angle_gamma	83.462059
loop_
_atom_site_label
_atom_site_type_symbol
_atom_site_fract_x
_atom_site_fract_y
_atom_site_fract_z
O1	O	1.103132	0.106866	-0.076177
O2	O	1.603132	0.606866	0.423823
O3	O	0.861070	0.120165	-0.076190
O4	O	1.361070	0.620165	0.423810
O5	O	0.988749	-0.007515	-0.076184
O6	O	1.488749	0.492485	0.423816
O7	O	0.975453	0.234546	-0.076183
O8	O	1.475453	0.734546	0.423817
O9	O	0.988741	-0.007517	0.076297
O10	O	1.488741	0.492483	0.576297
O11	O	0.861061	0.120163	0.076290
O12	O	1.361061	0.620163	0.576290
O13	O	1.103123	0.106864	0.076304
O14	O	1.603123	0.606864	0.576304
Cu15	Cu	0.982091	0.113514	0.090220
Cu16	Cu	1.482091	0.613514	0.590220
Cu17	Cu	0.982102	0.113516	-0.090106
Cu18	Cu	1.482102	0.613516	0.409894
O19	O	0.975444	0.234545	0.076297
O20	O	1.475444	0.734545	0.576297
C21	C	0.830091	0.119626	0.000048
C22	C	1.330091	0.619626	0.500048
C23	C	0.737795	0.118010	0.000043
C24	C	1.237795	0.618010	0.500043
C25	C	0.988206	-0.038491	0.000055
C26	C	1.488206	0.461509	0.500055
C27	C	0.986590	-0.130786	0.000048
C28	C	1.486590	0.369214	0.500048
C29	C	0.515524	0.190018	0.000053
C30	C	1.015524	0.690018	0.500053
C31	C	0.428803	0.188494	0.000059
C32	C	0.928803	0.688494	0.500059
C33	C	0.448676	0.037005	0.000055
C34	C	0.948676	0.537005	0.500055
C35	C	0.535395	0.038530	0.000056
C36	C	1.035395	0.538530	0.500056
C37	C	0.568816	0.115039	0.000050
C38	C	1.068816	0.615039	0.500050
C39	C	0.395377	0.111990	0.000055
C40	C	0.895377	0.611990	0.500055
C41	C	0.301351	0.110337	0.000062
C42	C	0.801351	0.610337	0.500062
C43	C	0.662848	0.116693	0.000046
C44	C	1.162848	0.616693	0.500046
C45	C	0.982861	-0.343123	-0.083066
C46	C	1.482861	0.156877	0.416934
C47	C	0.981335	-0.429843	-0.083065
C48	C	1.481335	0.070157	0.416935
C49	C	0.981330	-0.429842	0.083178
C50	C	1.481330	0.070158	0.583178
C51	C	0.982850	-0.343122	0.083176
C52	C	1.482850	0.156878	0.583176
C53	C	0.983620	-0.299766	0.000052
C54	C	1.483620	0.200234	0.500052
C55	C	0.980573	-0.473205	0.000054
C56	C	1.480573	0.026795	0.500054
C57	C	0.978919	-0.567231	0.000056
C58	C	1.478919	-0.067231	0.500056
C59	C	0.985273	-0.205734	0.000050
C60	C	1.485273	0.294266	0.500050
C61	C	1.134102	0.107404	0.000064
C62	C	1.634102	0.607404	0.500064
C63	C	1.226398	0.109019	0.000063
C64	C	1.726398	0.609019	0.500063
C65	C	0.975987	0.265520	0.000057
C66	C	1.475987	0.765520	0.500057
C67	C	0.977603	0.357816	0.000057
C68	C	1.477603	0.857816	0.500057
N69	N	0.982090	0.113511	0.217052
N70	N	1.482090	0.613511	0.717052
N71	N	0.982110	0.113511	-0.216938
N72	N	1.482110	0.613511	0.283062
C73	C	1.038645	0.056993	0.452061
C74	C	1.538645	0.556993	0.952061
C75	C	1.038647	0.056991	0.548042
C76	C	1.538647	0.556991	1.048042
C77	C	0.925549	0.170032	0.548046
C78	C	1.425549	0.670032	1.048046
C79	C	0.925543	0.170029	0.452066
C80	C	1.425543	0.670029	0.952066
C81	C	0.982096	0.113511	0.404077
C82	C	1.482096	0.613511	0.904077
C83	C	0.982104	0.113512	0.596037
C84	C	1.482104	0.613512	1.096037
C85	C	0.982106	0.113510	0.700104
C86	C	1.482106	0.613510	1.200104
C87	C	0.982093	0.113512	0.300003
C88	C	1.482093	0.613512	0.800003
H89	H	0.542732	0.252316	0.000056
H90	H	1.042732	0.752316	0.500056
Cl91	Cl	1.109737	-0.014061	0.391735
Cl92	Cl	1.609737	0.485939	0.891735
H93	H	0.879490	0.216053	0.412995
H94	H	1.379490	0.716053	0.912995
Cl95	Cl	0.602396	-0.055737	0.000059
Cl96	Cl	1.102396	0.444263	0.500059
H97	H	0.980704	-0.465154	0.150855
H98	H	1.480704	0.034846	0.650855
H99	H	0.385416	0.249550	0.000064
H100	H	0.885416	0.749550	0.500064
H101	H	0.980716	-0.465140	-0.150748
H102	H	1.480716	0.034860	0.349252
Cl103	Cl	0.406654	-0.059172	0.000056
Cl104	Cl	0.906654	0.440828	0.500056
Cl105	Cl	0.983824	-0.288619	-0.187565
Cl106	Cl	1.483824	0.211381	0.312435
H107	H	1.084694	0.010969	0.587109
H108	H	1.584694	0.510969	1.087109
H109	H	0.983463	-0.307820	0.150864
H110	H	1.483463	0.192180	0.650864
H111	H	0.879505	0.216049	0.587129
H112	H	1.379505	0.716049	1.087129
