data_functionalizedCrystal
_audit_creation_method	'MofGen! by Chris Wilmer'
_symmetry_space_group_name_H-M	'P1'
_symmetry_Int_Tables_number	1
_symmetry_cell_setting	triclinic
loop_
_symmetry_equiv_pos_as_xyz
  x,y,z
_cell_length_a	10.968094
_cell_length_b	17.699083
_cell_length_c	16.176319
_cell_angle_alpha	90.007696
_cell_angle_beta	102.120057
_cell_angle_gamma	95.987747
loop_
_atom_site_label
_atom_site_type_symbol
_atom_site_fract_x
_atom_site_fract_y
_atom_site_fract_z
O1	O	1.655288	-0.106121	0.167041
O2	O	1.291980	-0.116289	0.115287
O3	O	1.483899	-0.001081	0.142633
O4	O	1.463370	-0.221330	0.139694
O5	O	1.483872	-0.001073	0.280123
O6	O	1.291954	-0.116282	0.252776
O7	O	1.655262	-0.106114	0.304530
Cu8	Cu	1.473605	-0.111197	0.291207
Cu9	Cu	1.473637	-0.111206	0.128610
O10	O	1.463343	-0.221323	0.277184
C11	C	1.245483	-0.115547	0.177410
C12	C	1.106973	-0.113338	0.157680
C13	C	0.902045	-0.110057	0.199709
C14	C	1.045200	-0.112346	0.220110
C15	C	1.483150	0.027125	0.211273
C16	C	1.480943	0.111157	0.210959
C17	C	1.701759	-0.106856	0.242405
C18	C	1.840269	-0.109066	0.262130
C19	C	1.464092	-0.249528	0.208542
C20	C	1.466299	-0.333560	0.208851
N21	N	1.473593	-0.111190	0.405571
C22	C	1.593595	0.159069	0.227008
C23	C	1.591514	0.238026	0.226704
C24	C	1.476780	0.269068	0.210358
C25	C	1.364119	0.221149	0.194305
C26	C	1.366201	0.142194	0.194603
C27	C	1.355719	0.539565	0.193102
C28	C	1.353646	0.618526	0.192808
C29	C	1.581032	0.635396	0.225203
C30	C	1.583114	0.556441	0.225501
C31	C	1.470454	0.508530	0.209444
C32	C	1.472712	0.422916	0.209772
C33	C	1.474521	0.354680	0.210035
N34	N	1.473659	-0.111207	0.014248
C35	C	1.558600	-0.060197	0.460947
C36	C	1.558606	-0.060196	0.547495
C37	C	1.473610	-0.111193	0.578666
C38	C	1.388594	-0.162189	0.523282
C39	C	1.388583	-0.162185	0.436734
C40	C	1.388637	-0.162203	0.872316
C41	C	1.388657	-0.162204	0.958870
C42	C	1.558660	-0.060214	0.983077
C43	C	1.558649	-0.060211	0.896530
C44	C	1.473629	-0.111203	0.841153
C45	C	1.473621	-0.111203	0.747307
C46	C	1.473623	-0.111198	0.672510
H47	H	1.683247	0.277033	0.239774
H48	H	1.260210	0.643797	0.179497
C49	C	1.220532	-0.262995	0.490652
C50	C	1.295155	-0.218241	0.557539
H51	H	1.162840	-0.297596	0.511801
H52	H	1.272372	-0.290509	0.464271
H53	H	1.175756	-0.231229	0.450528
H54	H	1.339937	-0.250007	0.597660
H55	H	1.243307	-0.190726	0.583934
H56	H	1.319360	-0.203708	0.391646
C57	C	1.717376	0.477427	0.173948
C58	C	1.709232	0.522319	0.243467
H59	H	1.795235	0.456359	0.185041
H60	H	1.711851	0.507873	0.125224
H61	H	1.650574	0.437594	0.164443
H62	H	1.776029	0.562155	0.252968
H63	H	1.714769	0.491871	0.292205
C64	C	1.678827	0.763922	0.239120
C65	C	1.704874	0.688064	0.242840
H66	H	1.755281	0.796433	0.250005
H67	H	1.631770	0.773400	0.280359
H68	H	1.631781	0.773379	0.184466
H69	H	1.751912	0.678605	0.297496
H70	H	1.751951	0.678582	0.201599
H71	H	1.270700	0.246430	0.180990
H72	H	1.687025	0.133801	0.240324
C73	C	1.313135	-0.207499	0.728905
C74	C	1.295206	-0.218266	0.811455
H75	H	1.255450	-0.242112	0.691331
H76	H	1.396370	-0.216172	0.726570
H77	H	1.299722	-0.156912	0.712826
H78	H	1.308628	-0.268851	0.827536
H79	H	1.211950	-0.209598	0.813793
C80	C	0.914877	-0.110275	0.053356
C81	C	0.830385	-0.108919	0.107173
H82	H	0.870638	-0.109569	-0.003773
H83	H	0.955988	-0.155141	0.062290
H84	H	0.975297	-0.067024	0.065045
H85	H	0.769971	-0.152173	0.095487
H86	H	0.789254	-0.064048	0.098234
H87	H	1.274468	0.103184	0.181535
H88	H	1.627818	-0.018673	0.435576
H89	H	1.263984	0.500564	0.180028
C90	C	1.726683	0.040597	0.562734
C91	C	1.652068	-0.004155	0.608368
H92	H	1.784392	0.075191	0.600318
H93	H	1.674839	0.068120	0.521613
H94	H	1.771437	0.008830	0.535335
H95	H	1.607306	0.027613	0.635762
H96	H	1.703918	-0.031679	0.649505
C97	C	1.039874	-0.112256	0.356964
C98	C	0.911929	-0.110208	0.354666
H99	H	1.084108	-0.112965	0.414094
H100	H	1.070795	-0.068541	0.330566
H101	H	1.051487	-0.156658	0.327802
H102	H	0.900315	-0.065802	0.383823
H103	H	0.880998	-0.153927	0.381076
C104	C	1.726686	0.040612	0.929151
C105	C	1.652074	-0.004151	0.862268
H106	H	1.784355	0.075225	0.907997
H107	H	1.771475	0.008859	0.969271
H108	H	1.674826	0.068119	0.955537
H109	H	1.703933	-0.031663	0.835886
H110	H	1.607282	0.027605	0.822134
C111	C	1.220576	-0.263011	0.926249
C112	C	1.295211	-0.218257	0.993132
H113	H	1.162886	-0.297609	0.947403
H114	H	1.272410	-0.290528	0.899865
H115	H	1.175800	-0.231245	0.886127
H116	H	1.339995	-0.250023	1.033252
H117	H	1.243371	-0.190738	1.019530
H118	H	1.627884	-0.018691	1.028174
H119	H	1.098289	-0.113188	0.288659
H120	H	1.053887	-0.112493	0.089130
