data_functionalizedCrystal
_audit_creation_method	'MofGen! by Chris Wilmer'
_symmetry_space_group_name_H-M	'P1'
_symmetry_Int_Tables_number	1
_symmetry_cell_setting	triclinic
loop_
_symmetry_equiv_pos_as_xyz
  x,y,z
_cell_length_a	13.635800
_cell_length_b	23.752966
_cell_length_c	23.753023
_cell_angle_alpha	82.896721
_cell_angle_beta	79.932472
_cell_angle_gamma	100.066535
loop_
_atom_site_label
_atom_site_type_symbol
_atom_site_fract_x
_atom_site_fract_y
_atom_site_fract_z
V1	V	-1.985891	-0.079884	0.178712
O2	O	-1.988839	0.003095	0.174980
O3	O	-1.953502	-0.157681	0.177808
O4	O	-1.953505	-0.078981	0.256510
O5	O	-1.988836	-0.076149	0.095733
V6	V	-2.229827	-0.069920	0.168749
O7	O	-2.111751	-0.101740	0.200568
O8	O	-2.329066	-0.048063	0.146893
O9	O	-2.150613	0.007877	0.169653
O10	O	-2.285578	-0.152899	0.172481
O11	O	-2.285582	-0.073654	0.251728
O12	O	-2.150610	-0.070822	0.090951
C13	C	-1.874275	-0.176636	0.175071
C14	C	-1.888382	-0.240238	0.174850
V15	V	-1.485891	-0.079884	0.178712
O16	O	-1.488839	0.003095	0.174980
O17	O	-1.453502	-0.157681	0.177808
O18	O	-1.453505	-0.078981	0.256510
O19	O	-1.488836	-0.076149	0.095733
V20	V	-1.729827	-0.069920	0.168749
O21	O	-1.611751	-0.101740	0.200568
O22	O	-1.829066	-0.048063	0.146893
O23	O	-1.650613	0.007877	0.169653
O24	O	-1.785578	-0.152899	0.172481
O25	O	-1.785582	-0.073654	0.251728
O26	O	-1.650610	-0.070822	0.090951
C27	C	-2.066424	-0.637578	0.176409
C28	C	-2.079696	-0.697341	0.176210
O29	O	-2.163478	-0.730741	0.178565
N30	N	-1.995889	-0.724305	0.173241
C31	C	-1.898807	-0.691504	0.170475
O32	O	-1.828742	-0.719926	0.167932
C33	C	-1.885538	-0.631742	0.170678
C34	C	-1.969349	-0.604781	0.173642
C35	C	-2.150229	-0.610616	0.179374
C36	C	-2.136958	-0.550857	0.179571
C37	C	-2.039883	-0.518060	0.176804
C38	C	-1.956079	-0.545022	0.173840
C39	C	-1.788458	-0.598943	0.167917
C40	C	-1.775196	-0.539178	0.168121
C41	C	-1.859008	-0.512216	0.171085
C42	C	-1.845733	-0.452466	0.171271
N43	N	-1.929539	-0.425502	0.174240
C44	C	-2.026614	-0.458299	0.177007
C45	C	-1.926679	-0.817006	0.170051
C46	C	-1.939946	-0.876766	0.169844
C47	C	-2.120834	-0.882599	0.175580
C48	C	-2.107565	-0.822838	0.175782
C49	C	-2.010486	-0.790043	0.173020
C50	C	-1.998737	-0.332801	0.177422
C51	C	-1.985457	-0.273036	0.177617
C52	C	-1.804571	-0.267208	0.171884
C53	C	-1.817849	-0.326967	0.171686
C54	C	-1.914940	-0.359762	0.174457
O55	O	-1.761982	-0.419029	0.168920
O56	O	-2.096667	-0.429870	0.179558
C57	C	-1.874279	-0.076246	0.275462
C58	C	-1.888387	-0.076023	0.339064
C59	C	-2.061511	0.026829	0.172389
C60	C	-2.037023	0.090431	0.172613
C61	C	-2.061508	-0.073560	0.071996
C62	C	-2.037019	-0.073780	0.008393
C63	C	-1.374275	-0.176636	0.175071
C64	C	-1.388382	-0.240238	0.174850
C65	C	-1.989642	-0.127136	0.741862
C66	C	-2.002914	-0.126935	0.801625
O67	O	-2.021423	-0.171420	0.839665
N68	N	-1.995894	-0.074405	0.823129
C69	C	-1.975610	-0.022072	0.784868
O70	O	-1.970859	0.022628	0.808647
C71	C	-1.962345	-0.022274	0.725107
C72	C	-1.969357	-0.074807	0.703606
C73	C	-1.996653	-0.179666	0.720360
C74	C	-1.983380	-0.179866	0.660601
C75	C	-1.963094	-0.127537	0.622345
C76	C	-1.956083	-0.075008	0.643847
C77	C	-1.942068	0.030058	0.686847
C78	C	-1.928804	0.029852	0.627083
C79	C	-1.935816	-0.022682	0.605581
C80	C	-1.922524	-0.022879	0.545832
N81	N	-1.929544	-0.075410	0.524327
C82	C	-1.949829	-0.127739	0.562583
C83	C	-2.003470	-0.021653	0.910372
C84	C	-2.016728	-0.021450	0.970131
C85	C	-2.044033	-0.126314	0.986884
C86	C	-2.030768	-0.126516	0.927122
C87	C	-2.010490	-0.074183	0.888867
C88	C	-1.921952	-0.128156	0.437085
C89	C	-1.908672	-0.128352	0.377321
C90	C	-1.881373	-0.023488	0.360574
C91	C	-1.894647	-0.023292	0.420333
C92	C	-1.914941	-0.075631	0.458588
O93	O	-1.904017	0.021582	0.507757
O94	O	-1.954590	-0.172431	0.538796
C95	C	-1.374279	-0.076246	0.275462
C96	C	-1.388387	-0.076023	0.339064
C97	C	-1.561511	0.026829	0.172389
C98	C	-1.537023	0.090431	0.172613
C99	C	-1.561508	-0.073560	0.071996
C100	C	-1.537019	-0.073780	0.008393
C101	C	-1.485457	-0.273036	0.177617
C102	C	-1.498728	-0.332799	0.177418
C103	C	-1.414922	-0.359762	0.174448
C104	C	-1.317839	-0.326961	0.171683
C105	C	-1.304570	-0.267200	0.171886
C106	C	-1.485461	-0.078782	0.371860
C107	C	-1.498729	-0.078565	0.431620
C108	C	-1.414923	-0.075592	0.458584
C109	C	-1.317841	-0.072831	0.425783
C110	C	-1.304573	-0.073044	0.366023
C111	C	-1.612442	0.123228	0.169848
C112	C	-1.589442	0.182991	0.170050
C113	C	-1.491025	0.209954	0.173021
C114	C	-1.415601	0.177153	0.175784
C115	C	-1.438599	0.117393	0.175579
C116	C	-1.438594	-0.076746	-0.018555
C117	C	-1.415568	-0.076946	-0.078318
C118	C	-1.490970	-0.074184	-0.111129
C119	C	-1.589402	-0.071216	-0.084177
C120	C	-1.612426	-0.071012	-0.024416
H121	H	-2.053710	-0.251086	0.180028
Cl122	Cl	-1.682536	-0.225965	0.168399
Cl123	Cl	-1.343773	0.076169	0.179058
Cl124	Cl	-1.736173	-0.067292	0.009456
H125	H	-1.335469	0.199117	0.178203
H126	H	-1.864852	0.019116	0.329415
Cl127	Cl	-1.620780	-0.374022	0.180891
Cl128	Cl	-1.182528	-0.069582	0.324802
H129	H	-1.377185	-0.078995	0.008152
Cl130	Cl	-1.977957	0.044144	0.862283
Cl131	Cl	-1.736174	0.089344	0.166112
Cl132	Cl	-1.590834	-0.082519	0.337976
H133	H	-1.249611	-0.070411	0.447746
Cl134	Cl	-2.212934	-0.788951	0.179512
Cl135	Cl	-1.947460	-0.193954	0.485168
H136	H	-1.225519	-0.240500	0.169630
Cl137	Cl	-2.069513	-0.192099	1.034988
H138	H	-1.650869	0.209689	0.167800
H139	H	-1.553707	-0.251089	0.180031
H140	H	-1.577786	-0.080816	0.458319
H141	H	-1.335414	-0.079363	-0.100253
H142	H	-2.205209	-0.528912	0.181989
Cl143	Cl	-1.462010	-0.074444	-0.186257
H144	H	-1.425741	-0.075420	0.507244
Cl145	Cl	-1.834573	-0.910651	0.166104
Cl146	Cl	-1.462130	0.285084	0.173279
Cl147	Cl	-1.804624	-0.775782	0.166571
H148	H	-1.650788	-0.068966	-0.110901
H149	H	-2.077797	-0.359496	0.179679
H150	H	-2.229281	-0.637314	0.181629
H151	H	-1.989096	-0.222645	0.643101
Cl152	Cl	-2.242876	-0.923842	0.179063
Cl153	Cl	-1.683083	-0.632821	0.164185
H154	H	-1.749604	-0.348921	0.169276
Cl155	Cl	-1.653147	-0.497953	0.164650
H156	H	-1.936349	0.072837	0.704342
H157	H	-2.013173	-0.222281	0.751503
Cl158	Cl	-2.039587	-0.192560	0.900099
Cl159	Cl	-1.917488	-0.194399	0.350295
H160	H	-1.912295	0.072468	0.595937
Cl161	Cl	-1.885821	0.042751	0.447364
Cl162	Cl	-2.007890	0.044595	0.997153
Cl163	Cl	-1.431619	-0.434892	0.174192
H164	H	-1.249609	-0.348924	0.169265
