data_functionalizedCrystal
_audit_creation_method	'MofGen! by Chris Wilmer'
_symmetry_space_group_name_H-M	'P1'
_symmetry_Int_Tables_number	1
_symmetry_cell_setting	triclinic
loop_
_symmetry_equiv_pos_as_xyz
  x,y,z
_cell_length_a	10.654549
_cell_length_b	11.792240
_cell_length_c	10.868271
_cell_angle_alpha	90.010280
_cell_angle_beta	89.996217
_cell_angle_gamma	95.660903
loop_
_atom_site_label
_atom_site_type_symbol
_atom_site_fract_x
_atom_site_fract_y
_atom_site_fract_z
O1	O	1.667392	-0.159412	-0.102322
O2	O	1.301870	-0.174601	-0.102334
O3	O	1.493501	-0.001856	-0.102290
O4	O	1.475761	-0.332156	-0.102366
O5	O	1.493482	-0.001863	0.102354
O6	O	1.301851	-0.174608	0.102311
O7	O	1.667373	-0.159419	0.102322
Zn8	Zn	1.484609	-0.167015	0.134808
Zn9	Zn	1.484634	-0.167005	-0.134820
O10	O	1.475742	-0.332163	0.102279
C11	C	1.255066	-0.173489	-0.000012
C12	C	1.115632	-0.170153	-0.000015
C13	C	1.492377	0.040434	0.000039
C14	C	1.489042	0.166455	0.000060
C15	C	0.904838	-0.268718	-0.000032
C16	C	1.035850	-0.271862	-0.000040
C17	C	1.064396	-0.065293	0.000006
C18	C	0.933387	-0.062151	0.000006
C19	C	1.482909	0.397182	0.000079
C20	C	1.486316	0.268789	0.000068
C21	C	1.714177	-0.160530	-0.000002
C22	C	1.853611	-0.163867	-0.000007
N23	N	1.484601	-0.167020	0.318823
C24	C	1.476866	0.625547	-0.000009
C25	C	1.480201	0.499525	0.000093
C26	C	1.484609	-0.167022	0.430160
C27	C	1.484625	-0.167013	0.569838
N28	N	1.484643	-0.166999	0.681166
H29	H	0.839888	-0.351543	-0.000044
C30	C	0.877034	0.053200	0.000041
N31	N	0.834589	0.140079	0.000067
C32	C	1.092194	-0.387207	-0.000058
N33	N	1.134630	-0.474090	-0.000069
H34	H	1.129365	0.017520	0.000020
