data_functionalizedCrystal
_audit_creation_method	'MofGen! by Chris Wilmer'
_symmetry_space_group_name_H-M	'P1'
_symmetry_Int_Tables_number	1
_symmetry_cell_setting	triclinic
loop_
_symmetry_equiv_pos_as_xyz
  x,y,z
_cell_length_a	14.044220
_cell_length_b	12.376457
_cell_length_c	13.262508
_cell_angle_alpha	116.815184
_cell_angle_beta	88.642361
_cell_angle_gamma	77.668079
loop_
_atom_site_label
_atom_site_type_symbol
_atom_site_fract_x
_atom_site_fract_y
_atom_site_fract_z
O1	O	1.261991	-0.017081	0.249784
O2	O	0.986567	-0.020100	0.240058
O3	O	1.140811	-0.068360	0.083030
O4	O	1.107747	0.031179	0.406812
O5	O	1.102266	0.131700	0.122230
O6	O	0.948023	0.179960	0.279258
O7	O	1.223446	0.182979	0.288984
Zn8	Zn	1.079615	0.213233	0.290345
Zn9	Zn	1.130399	-0.050354	0.238697
O10	O	1.069203	0.231239	0.446012
C11	C	0.932218	0.078618	0.255402
C12	C	0.827699	0.074704	0.242709
N13	N	1.044962	0.393124	0.325593
N14	N	1.165059	-0.230248	0.203441
C15	C	0.636321	0.067595	0.219511
C16	C	0.573689	0.095272	0.309523
C17	C	0.467200	0.091316	0.296616
C18	C	0.742820	0.071550	0.232417
C19	C	1.277797	0.084258	0.273639
C20	C	1.382317	0.088164	0.286331
C21	C	1.123230	0.018852	0.060942
C22	C	1.128258	-0.019344	-0.063276
C23	C	1.245499	0.685415	0.121597
C24	C	1.269747	0.559493	0.096926
C25	C	1.213552	0.517894	0.154090
C26	C	1.133107	0.602230	0.235930
C27	C	1.108861	0.728167	0.260610
C28	C	1.076915	0.560646	0.293103
C29	C	0.996469	0.644982	0.374943
C30	C	0.972227	0.770906	0.399618
C31	C	1.028421	0.812504	0.342454
C32	C	1.101160	0.434710	0.268424
C33	C	0.964523	0.477462	0.407437
C34	C	0.940275	0.603384	0.432108
C35	C	1.058381	0.309212	-0.327965
C36	C	1.053649	0.345100	-0.211255
C37	C	1.072301	0.253992	-0.174254
C38	C	1.095685	0.126990	-0.253975
C39	C	1.100410	0.091098	-0.370696
C40	C	1.114330	0.035879	-0.216985
C41	C	1.137715	-0.091124	-0.296706
C42	C	1.142439	-0.127009	-0.413414
C43	C	1.123787	-0.035901	-0.450415
C44	C	1.109606	0.071770	-0.100265
C45	C	1.151635	-0.146344	-0.142995
C46	C	1.156367	-0.182232	-0.259705
C47	C	1.086784	0.144025	0.468099
C48	C	1.081758	0.182213	0.592315
H49	H	0.600045	0.121937	0.396279
H50	H	1.090557	0.175176	-0.035366
H51	H	0.609967	0.040933	0.132763
H52	H	1.335245	0.490831	0.030294
H53	H	1.166660	0.366054	0.201790
H54	H	1.233299	0.415362	0.134000
H55	H	0.918766	0.443595	0.453987
N56	N	1.306092	0.730296	0.059954
H57	H	1.303865	0.683676	-0.024734
H58	H	1.376464	0.714412	0.075366
N59	N	1.171718	-0.244622	-0.103103
H60	H	1.165170	-0.202615	-0.017068
H61	H	1.240614	-0.299519	-0.136024
N62	N	1.002265	0.948325	0.369065
H63	H	1.050070	0.961873	0.320428
H64	H	1.005905	1.002334	0.452322
H65	H	0.906730	0.839577	0.466266
N66	N	0.853509	0.694349	0.520373
H67	H	0.846681	0.780433	0.527327
H68	H	0.864225	0.697046	0.596423
N69	N	1.067189	0.292693	-0.048376
H70	H	1.049544	0.386972	-0.003488
H71	H	1.133214	0.257470	-0.031943
H72	H	1.034619	0.448505	-0.146355
N73	N	1.038274	0.407467	-0.367872
H74	H	1.044819	0.365457	-0.453907
H75	H	1.087179	0.460376	-0.341345
H76	H	1.127643	-0.065115	-0.545448
H77	H	1.161472	-0.230422	-0.478321
H78	H	1.175406	-0.285639	-0.324629
