data_functionalizedCrystal
_audit_creation_method	'MofGen! by Chris Wilmer'
_symmetry_space_group_name_H-M	'P1'
_symmetry_Int_Tables_number	1
_symmetry_cell_setting	triclinic
loop_
_symmetry_equiv_pos_as_xyz
  x,y,z
_cell_length_a	23.532407
_cell_length_b	23.532407
_cell_length_c	14.586319
_cell_angle_alpha	90.001839
_cell_angle_beta	89.996242
_cell_angle_gamma	97.151323
loop_
_atom_site_label
_atom_site_type_symbol
_atom_site_fract_x
_atom_site_fract_y
_atom_site_fract_z
O1	O	-0.069134	0.755259	-0.076111
O2	O	0.180866	1.005259	0.173889
O3	O	0.430866	1.255259	0.423889
O4	O	0.680866	1.505259	0.673889
O5	O	-0.079137	0.589395	-0.076136
O6	O	0.170863	0.839395	0.173864
O7	O	0.420863	1.089395	0.423864
O8	O	0.670863	1.339395	0.673864
O9	O	0.008796	0.677329	-0.076135
O10	O	0.258796	0.927329	0.173865
O11	O	0.508796	1.177329	0.423865
O12	O	0.758796	1.427329	0.673865
O13	O	-0.157067	0.667325	-0.076113
O14	O	0.092933	0.917325	0.173887
O15	O	0.342933	1.167325	0.423887
O16	O	0.592933	1.417325	0.673887
O17	O	0.008797	0.677323	0.076346
O18	O	0.258797	0.927323	0.326346
O19	O	0.508797	1.177323	0.576346
O20	O	0.758797	1.427323	0.826346
O21	O	-0.079136	0.589389	0.076345
O22	O	0.170864	0.839389	0.326345
O23	O	0.420864	1.089389	0.576345
O24	O	0.670864	1.339389	0.826345
O25	O	-0.069133	0.755253	0.076369
O26	O	0.180867	1.005253	0.326369
O27	O	0.430867	1.255253	0.576369
O28	O	0.680867	1.505253	0.826369
Cu29	Cu	-0.074134	0.672320	0.090280
Cu30	Cu	0.175866	0.922320	0.340280
Cu31	Cu	0.425866	1.172320	0.590280
Cu32	Cu	0.675866	1.422320	0.840280
Cu33	Cu	-0.074136	0.672328	-0.090047
Cu34	Cu	0.175864	0.922328	0.159953
Cu35	Cu	0.425864	1.172328	0.409953
Cu36	Cu	0.675864	1.422328	0.659953
O37	O	-0.157066	0.667319	0.076368
O38	O	0.092934	0.917319	0.326368
O39	O	0.342934	1.167319	0.576368
O40	O	0.592934	1.417319	0.826368
C41	C	-0.078882	0.568176	0.000101
C42	C	0.171118	0.818176	0.250101
C43	C	0.421118	1.068176	0.500101
C44	C	0.671118	1.318176	0.750101
C45	C	-0.078116	0.504959	0.000090
C46	C	0.171884	0.754959	0.250090
C47	C	0.421884	1.004959	0.500090
C48	C	0.671884	1.254959	0.750090
C49	C	-0.125350	0.105856	0.000138
C50	C	0.124650	0.355856	0.250138
C51	C	0.374650	0.605856	0.500138
C52	C	0.624650	0.855856	0.750138
C53	C	-0.124638	0.046456	0.000144
C54	C	0.125362	0.296456	0.250144
C55	C	0.375362	0.546456	0.500144
C56	C	0.625362	0.796456	0.750144
O57	O	-0.168424	0.009711	0.000183
O58	O	0.081576	0.259711	0.250183
O59	O	0.331576	0.509711	0.500183
O60	O	0.581576	0.759711	0.750183
N61	N	-0.072362	0.023830	0.000135
N62	N	0.177638	0.273830	0.250135
N63	N	0.427638	0.523830	0.500135
N64	N	0.677638	0.773830	0.750135
C65	C	-0.020794	0.060607	0.000131
C66	C	0.229206	0.310607	0.250131
C67	C	0.479206	0.560607	0.500131
C68	C	0.729206	0.810607	0.750131
O69	O	0.023737	0.035908	0.000125
O70	O	0.273737	0.285908	0.250125
O71	O	0.523737	0.535908	0.500125
O72	O	0.773737	0.785908	0.750125
C73	C	-0.021506	0.120006	0.000132
C74	C	0.228494	0.370006	0.250132
C75	C	0.478494	0.620006	0.500132
C76	C	0.728494	0.870006	0.750132
C77	C	-0.073785	0.142629	0.000131
C78	C	0.176215	0.392629	0.250131
C79	C	0.426215	0.642629	0.500131
C80	C	0.676215	0.892629	0.750131
C81	C	-0.177625	0.128479	0.000138
C82	C	0.072375	0.378479	0.250138
C83	C	0.322375	0.628479	0.500138
C84	C	0.572375	0.878479	0.750138
C85	C	-0.178336	0.187876	0.000131
C86	C	0.071664	0.437876	0.250131
C87	C	0.321664	0.687876	0.500131
C88	C	0.571664	0.937876	0.750131
C89	C	-0.126772	0.224649	0.000124
C90	C	0.123228	0.474649	0.250124
C91	C	0.373228	0.724649	0.500124
C92	C	0.623228	0.974649	0.750124
C93	C	-0.074496	0.202025	0.000124
C94	C	0.175504	0.452025	0.250124
C95	C	0.425504	0.702025	0.500124
C96	C	0.675504	0.952025	0.750124
C97	C	0.030062	0.156783	0.000134
C98	C	0.280062	0.406783	0.250134
C99	C	0.530062	0.656783	0.500134
C100	C	0.780062	0.906783	0.750134
C101	C	0.029345	0.216185	0.000136
C102	C	0.279345	0.466185	0.250136
C103	C	0.529345	0.716185	0.500136
C104	C	0.779345	0.966185	0.750136
C105	C	-0.022934	0.238808	0.000135
C106	C	0.227066	0.488808	0.250135
C107	C	0.477066	0.738808	0.500135
C108	C	0.727066	0.988808	0.750135
C109	C	-0.023643	0.298194	0.000109
C110	C	0.226357	0.548194	0.250109
C111	C	0.476357	0.798194	0.500109
C112	C	0.726357	1.048194	0.750109
N113	N	-0.075920	0.320820	0.000117
N114	N	0.174080	0.570820	0.250117
N115	N	0.424080	0.820820	0.500117
N116	N	0.674080	1.070820	0.750117
C117	C	-0.127484	0.284048	0.000125
C118	C	0.122516	0.534048	0.250125
C119	C	0.372516	0.784048	0.500125
C120	C	0.622516	1.034048	0.750125
C121	C	-0.019302	-0.064135	0.000130
C122	C	0.230698	0.185865	0.250130
C123	C	0.480698	0.435865	0.500130
C124	C	0.730698	0.685865	0.750130
C125	C	-0.018589	-0.123533	0.000123
C126	C	0.231411	0.126467	0.250123
C127	C	0.481411	0.376467	0.500123
C128	C	0.731411	0.626467	0.750123
C129	C	-0.122434	-0.137680	0.000137
C130	C	0.127566	0.112320	0.250137
C131	C	0.377566	0.362320	0.500137
C132	C	0.627566	0.612320	0.750137
C133	C	-0.123146	-0.078281	0.000138
C134	C	0.126854	0.171719	0.250138
C135	C	0.376854	0.421719	0.500138
C136	C	0.626854	0.671719	0.750138
C137	C	-0.071578	-0.041509	0.000139
C138	C	0.178422	0.208491	0.250139
C139	C	0.428422	0.458491	0.500139
C140	C	0.678422	0.708491	0.750139
C141	C	-0.128974	0.408784	0.000109
C142	C	0.121026	0.658784	0.250109
C143	C	0.371026	0.908784	0.500109
C144	C	0.621026	1.158784	0.750109
C145	C	-0.129680	0.468186	0.000098
C146	C	0.120320	0.718186	0.250098
C147	C	0.370320	0.968186	0.500098
C148	C	0.620320	1.218186	0.750098
C149	C	-0.025836	0.482329	0.000088
C150	C	0.224164	0.732329	0.250088
C151	C	0.474164	0.982329	0.500088
C152	C	0.724164	1.232329	0.750088
C153	C	-0.025129	0.422932	0.000094
C154	C	0.224871	0.672932	0.250094
C155	C	0.474871	0.922932	0.500094
C156	C	0.724871	1.172932	0.750094
C157	C	-0.076702	0.386160	0.000108
C158	C	0.173298	0.636160	0.250108
C159	C	0.423298	0.886160	0.500108
C160	C	0.673298	1.136160	0.750108
O161	O	0.020119	0.334974	0.000074
O162	O	0.270119	0.584974	0.250074
O163	O	0.520119	0.834974	0.500074
O164	O	0.770119	1.084974	0.750074
O165	O	-0.172007	0.308755	0.000143
O166	O	0.077993	0.558755	0.250143
O167	O	0.327993	0.808755	0.500143
O168	O	0.577993	1.058755	0.750143
C169	C	-0.178283	0.667577	0.000130
C170	C	0.071717	0.917577	0.250130
C171	C	0.321717	1.167577	0.500130
C172	C	0.571717	1.417577	0.750130
C173	C	-0.241500	0.668343	0.000139
C174	C	0.008500	0.918343	0.250139
C175	C	0.258500	1.168343	0.500139
C176	C	0.508500	1.418343	0.750139
C177	C	-0.640603	0.621110	0.000085
C178	C	-0.390603	0.871110	0.250085
C179	C	-0.140603	1.121110	0.500085
C180	C	0.109397	1.371110	0.750085
C181	C	-0.700003	0.621821	0.000079
C182	C	-0.450003	0.871821	0.250079
C183	C	-0.200003	1.121821	0.500079
C184	C	0.049997	1.371821	0.750079
O185	O	-0.736748	0.578035	0.000039
O186	O	-0.486748	0.828035	0.250039
O187	O	-0.236748	1.078035	0.500039
O188	O	0.013252	1.328035	0.750039
N189	N	-0.722629	0.674097	0.000088
N190	N	-0.472629	0.924097	0.250088
N191	N	-0.222629	1.174097	0.500088
N192	N	0.027371	1.424097	0.750088
C193	C	-0.685852	0.725666	0.000094
C194	C	-0.435852	0.975666	0.250094
C195	C	-0.185852	1.225666	0.500094
C196	C	0.064148	1.475666	0.750094
O197	O	-0.710551	0.770196	0.000100
O198	O	-0.460551	1.020196	0.250100
O199	O	-0.210551	1.270196	0.500100
O200	O	0.039449	1.520196	0.750100
C201	C	-0.626453	0.724954	0.000094
C202	C	-0.376453	0.974954	0.250094
C203	C	-0.126453	1.224954	0.500094
C204	C	0.123547	1.474954	0.750094
C205	C	-0.603830	0.672674	0.000094
C206	C	-0.353830	0.922674	0.250094
C207	C	-0.103830	1.172674	0.500094
C208	C	0.146170	1.422674	0.750094
C209	C	-0.617980	0.568834	0.000084
C210	C	-0.367980	0.818834	0.250084
C211	C	-0.117980	1.068834	0.500084
C212	C	0.132020	1.318834	0.750084
C213	C	-0.558584	0.568123	0.000092
C214	C	-0.308584	0.818123	0.250092
C215	C	-0.058584	1.068123	0.500092
C216	C	0.191416	1.318123	0.750092
C217	C	-0.521811	0.619687	0.000101
C218	C	-0.271811	0.869687	0.250101
C219	C	-0.021811	1.119687	0.500101
C220	C	0.228189	1.369687	0.750101
C221	C	-0.544434	0.671963	0.000102
C222	C	-0.294434	0.921963	0.250102
C223	C	-0.044434	1.171963	0.500102
C224	C	0.205566	1.421963	0.750102
C225	C	-0.589676	0.776521	0.000093
C226	C	-0.339676	1.026521	0.250093
C227	C	-0.089676	1.276521	0.500093
C228	C	0.160324	1.526521	0.750093
C229	C	-0.530274	0.775805	0.000092
C230	C	-0.280274	1.025805	0.250092
C231	C	-0.030274	1.275805	0.500092
C232	C	0.219726	1.525805	0.750092
C233	C	-0.507651	0.723525	0.000092
C234	C	-0.257651	0.973525	0.250092
C235	C	-0.007651	1.223525	0.500092
C236	C	0.242349	1.473525	0.750092
C237	C	-0.448265	0.722816	0.000119
C238	C	-0.198265	0.972816	0.250119
C239	C	0.051735	1.222816	0.500119
C240	C	0.301735	1.472816	0.750119
N241	N	-0.425639	0.670539	0.000110
N242	N	-0.175639	0.920539	0.250110
N243	N	0.074361	1.170539	0.500110
N244	N	0.324361	1.420539	0.750110
C245	C	-0.462412	0.618975	0.000101
C246	C	-0.212412	0.868975	0.250101
C247	C	0.037588	1.118975	0.500101
C248	C	0.287588	1.368975	0.750101
C249	C	-0.810594	0.727157	0.000093
C250	C	-0.560594	0.977157	0.250093
C251	C	-0.310594	1.227157	0.500093
C252	C	-0.060594	1.477157	0.750093
C253	C	-0.869992	0.727870	0.000100
C254	C	-0.619992	0.977870	0.250100
C255	C	-0.369992	1.227870	0.500100
C256	C	-0.119992	1.477870	0.750100
C257	C	-0.884140	0.624025	0.000083
C258	C	-0.634140	0.874025	0.250083
C259	C	-0.384140	1.124025	0.500083
C260	C	-0.134140	1.374025	0.750083
C261	C	-0.824740	0.623313	0.000083
C262	C	-0.574740	0.873313	0.250083
C263	C	-0.324740	1.123313	0.500083
C264	C	-0.074740	1.373313	0.750083
C265	C	-0.787968	0.674881	0.000084
C266	C	-0.537968	0.924881	0.250084
C267	C	-0.287968	1.174881	0.500084
C268	C	-0.037968	1.424881	0.750084
C269	C	-0.337675	0.617485	0.000119
C270	C	-0.087675	0.867485	0.250119
C271	C	0.162325	1.117485	0.500119
C272	C	0.412325	1.367485	0.750119
C273	C	-0.278273	0.616779	0.000130
C274	C	-0.028273	0.866779	0.250130
C275	C	0.221727	1.116779	0.500130
C276	C	0.471727	1.366779	0.750130
C277	C	-0.264131	0.720623	0.000142
C278	C	-0.014131	0.970623	0.250142
C279	C	0.235869	1.220623	0.500142
C280	C	0.485869	1.470623	0.750142
C281	C	-0.323527	0.721330	0.000135
C282	C	-0.073527	0.971330	0.250135
C283	C	0.176473	1.221330	0.500135
C284	C	0.426473	1.471330	0.750135
C285	C	-0.360299	0.669757	0.000120
C286	C	-0.110299	0.919757	0.250120
C287	C	0.139701	1.169757	0.500120
C288	C	0.389701	1.419757	0.750120
O289	O	-0.411486	0.766579	0.000155
O290	O	-0.161486	1.016579	0.250155
O291	O	0.088514	1.266579	0.500155
O292	O	0.338514	1.516579	0.750155
O293	O	-0.437704	0.574452	0.000083
O294	O	-0.187704	0.824452	0.250083
O295	O	0.062296	1.074452	0.500083
O296	O	0.312296	1.324452	0.750083
C297	C	0.030013	0.677071	0.000101
C298	C	0.280013	0.927071	0.250101
C299	C	0.530013	1.177071	0.500101
C300	C	0.780013	1.427071	0.750101
C301	C	0.093230	0.676305	0.000086
C302	C	0.343230	0.926305	0.250086
C303	C	0.593230	1.176305	0.500086
C304	C	0.843230	1.426305	0.750086
C305	C	-0.069388	0.776472	0.000130
C306	C	0.180612	1.026472	0.250130
C307	C	0.430612	1.276472	0.500130
C308	C	0.680612	1.526472	0.750130
C309	C	-0.070154	0.839689	0.000135
C310	C	0.179846	1.089689	0.250135
C311	C	0.429846	1.339689	0.500135
C312	C	0.679846	1.589689	0.750135
N313	N	-0.074133	0.672320	0.217111
N314	N	0.175867	0.922320	0.467111
N315	N	0.425867	1.172320	0.717111
N316	N	0.675867	1.422320	0.967111
N317	N	-0.074133	0.672333	-0.216878
N318	N	0.175867	0.922333	0.033122
N319	N	0.425867	1.172333	0.283122
N320	N	0.675867	1.422333	0.533122
C321	C	-0.035209	0.711269	0.452119
C322	C	0.214791	0.961269	0.702119
C323	C	0.464791	1.211269	0.952119
C324	C	0.714791	1.461269	1.202119
C325	C	-0.035208	0.711271	0.548100
C326	C	0.214792	0.961271	0.798100
C327	C	0.464792	1.211271	1.048100
C328	C	0.714792	1.461271	1.298100
C329	C	-0.113059	0.633379	0.548108
C330	C	0.136941	0.883379	0.798108
C331	C	0.386941	1.133379	1.048108
C332	C	0.636941	1.383379	1.298108
C333	C	-0.113057	0.633375	0.452128
C334	C	0.136943	0.883375	0.702128
C335	C	0.386943	1.133375	0.952128
C336	C	0.636943	1.383375	1.202128
C337	C	-0.074133	0.672324	0.404136
C338	C	0.175867	0.922324	0.654136
C339	C	0.425867	1.172324	0.904136
C340	C	0.675867	1.422324	1.154136
C341	C	-0.074133	0.672329	0.596097
C342	C	0.175867	0.922329	0.846097
C343	C	0.425867	1.172329	1.096097
C344	C	0.675867	1.422329	1.346097
C345	C	-0.074132	0.672331	0.700164
C346	C	0.175868	0.922331	0.950164
C347	C	0.425868	1.172331	1.200164
C348	C	0.675868	1.422331	1.450164
C349	C	-0.074133	0.672321	0.300062
C350	C	0.175867	0.922321	0.550062
C351	C	0.425867	1.172321	0.800062
C352	C	0.675867	1.422321	1.050062
H353	H	-0.170970	0.378851	0.000123
H354	H	0.079030	0.628851	0.250123
H355	H	0.329030	0.878851	0.500123
H356	H	0.579030	1.128851	0.750123
Br357	Br	0.017618	0.764126	0.386990
Br358	Br	0.267618	1.014126	0.636990
Br359	Br	0.517618	1.264126	0.886990
Br360	Br	0.767618	1.514126	1.136990
Br361	Br	0.017622	0.764125	0.613217
Br362	Br	0.267622	1.014125	0.863217
Br363	Br	0.517622	1.264125	1.113217
Br364	Br	0.767622	1.514125	1.363217
Br365	Br	-0.247575	0.545823	0.000136
Br366	Br	0.002425	0.795823	0.250136
Br367	Br	0.252425	1.045823	0.500136
Br368	Br	0.502425	1.295823	0.750136
Br369	Br	-0.527891	0.497168	0.000083
Br370	Br	-0.277891	0.747168	0.250083
Br371	Br	-0.027891	0.997168	0.500083
Br372	Br	0.222109	1.247168	0.750083
H373	H	0.071339	0.246123	0.000136
H374	H	0.321339	0.496123	0.250136
H375	H	0.571339	0.746123	0.500136
H376	H	0.821339	0.996123	0.750136
H377	H	-0.144751	0.601669	0.587193
H378	H	0.105249	0.851669	0.837193
H379	H	0.355249	1.101669	1.087193
H380	H	0.605249	1.351669	1.337193
H381	H	-0.144753	0.601658	0.413058
H382	H	0.105247	0.851658	0.663058
H383	H	0.355247	1.101658	0.913058
H384	H	0.605247	1.351658	1.163058
H385	H	-0.172255	0.486602	0.000096
H386	H	0.077745	0.736602	0.250096
H387	H	0.327745	0.986602	0.500096
H388	H	0.577745	1.236602	0.750096
H389	H	-0.220908	0.206289	0.000130
H390	H	0.029092	0.456289	0.250130
H391	H	0.279092	0.706289	0.500130
H392	H	0.529092	0.956289	0.750130
Br393	Br	-0.667876	0.498844	0.000068
Br394	Br	-0.417876	0.748844	0.250068
Br395	Br	-0.167876	0.998844	0.500068
Br396	Br	0.082124	1.248844	0.750068
H397	H	-0.367608	0.575489	0.000106
H398	H	-0.117608	0.825489	0.250106
H399	H	0.132392	1.075489	0.500106
H400	H	0.382392	1.325489	0.750106
H401	H	-0.219617	0.098544	0.000147
H402	H	0.030383	0.348544	0.250147
H403	H	0.280383	0.598544	0.500147
H404	H	0.530383	0.848544	0.750147
H405	H	-0.164421	-0.167632	0.000147
H406	H	0.085579	0.082368	0.250147
H407	H	0.335579	0.332368	0.500147
H408	H	0.585579	0.582368	0.750147
Br409	Br	-0.194099	-0.047586	0.000137
Br410	Br	0.055901	0.202414	0.250137
Br411	Br	0.305901	0.452414	0.500137
Br412	Br	0.555901	0.702414	0.750137
Br413	Br	0.052364	-0.154227	0.000096
Br414	Br	0.302364	0.095773	0.250096
Br415	Br	0.552364	0.345773	0.500096
Br416	Br	0.802364	0.595773	0.750096
H417	H	-0.234180	0.762605	0.000154
H418	H	0.015820	1.012605	0.250154
H419	H	0.265820	1.262605	0.500154
H420	H	0.515820	1.512605	0.750154
Br421	Br	0.050690	-0.014235	0.000122
Br422	Br	0.300690	0.235765	0.250122
Br423	Br	0.550690	0.485765	0.500122
Br424	Br	0.800690	0.735765	0.750122
Br425	Br	0.045822	0.392228	0.000098
Br426	Br	0.295822	0.642228	0.250098
Br427	Br	0.545822	0.892228	0.500098
Br428	Br	0.795822	1.142228	0.750098
H429	H	-0.888406	0.770441	0.000114
H430	H	-0.638406	1.020441	0.250114
H431	H	-0.388406	1.270441	0.500114
H432	H	-0.138406	1.520441	0.750114
Br433	Br	-0.760694	0.797149	0.000104
Br434	Br	-0.510694	1.047149	0.250104
Br435	Br	-0.260694	1.297149	0.500104
Br436	Br	-0.010694	1.547149	0.750104
H437	H	0.016146	0.512280	0.000079
H438	H	0.266146	0.762280	0.250079
H439	H	0.516146	1.012280	0.500079
H440	H	0.766146	1.262280	0.750079
Br441	Br	-0.620363	0.847477	0.000071
Br442	Br	-0.370363	1.097477	0.250071
Br443	Br	-0.120363	1.347477	0.500071
Br444	Br	0.129637	1.597477	0.750071
Br445	Br	-0.480371	0.845794	0.000087
Br446	Br	-0.230371	1.095794	0.250087
Br447	Br	0.019629	1.345794	0.500087
Br448	Br	0.269629	1.595794	0.750087
H449	H	-0.806326	0.580742	0.000087
H450	H	-0.556326	0.830742	0.250087
H451	H	-0.306326	1.080742	0.500087
H452	H	-0.056326	1.330742	0.750087
Br453	Br	0.101018	0.126097	0.000115
Br454	Br	0.351018	0.376097	0.250115
Br455	Br	0.601018	0.626097	0.500115
Br456	Br	0.851018	0.876097	0.750115
H457	H	-0.914091	0.582038	0.000076
H458	H	-0.664091	0.832038	0.250076
H459	H	-0.414091	1.082038	0.500076
H460	H	-0.164091	1.332038	0.750076
H461	H	-0.341947	0.763901	0.000148
H462	H	-0.091947	1.013901	0.250148
H463	H	0.158053	1.263901	0.500148
H464	H	0.408053	1.513901	0.750148
