data_functionalizedCrystal
_audit_creation_method	'MofGen! by Chris Wilmer'
_symmetry_space_group_name_H-M	'P1'
_symmetry_Int_Tables_number	1
_symmetry_cell_setting	triclinic
loop_
_symmetry_equiv_pos_as_xyz
  x,y,z
_cell_length_a	14.044220
_cell_length_b	14.044220
_cell_length_c	16.776229
_cell_angle_alpha	89.992645
_cell_angle_beta	89.997978
_cell_angle_gamma	93.188878
loop_
_atom_site_label
_atom_site_type_symbol
_atom_site_fract_x
_atom_site_fract_y
_atom_site_fract_z
O1	O	1.277172	0.230170	-0.066207
O2	O	1.000500	0.221864	-0.066227
O3	O	1.134683	0.087681	-0.066209
O4	O	1.142989	0.364353	-0.066224
O5	O	1.134663	0.087671	0.066367
O6	O	1.000480	0.221854	0.066350
O7	O	1.277151	0.230159	0.066370
Zn8	Zn	1.138812	0.226005	0.087409
Zn9	Zn	1.138839	0.226019	-0.087266
O10	O	1.142968	0.364342	0.066352
C11	C	0.964868	0.218223	0.000059
C12	C	0.858725	0.207379	0.000052
C13	C	0.664388	0.187553	0.000069
C14	C	0.613258	0.264467	0.000068
C15	C	0.505122	0.253435	0.000077
C16	C	0.772534	0.198583	0.000059
C17	C	1.131037	0.052054	0.000079
C18	C	1.120193	-0.054088	0.000079
C19	C	1.100366	-0.248426	0.000067
C20	C	1.177281	-0.299556	0.000070
C21	C	1.166249	-0.407692	0.000063
C22	C	1.111397	-0.140280	0.000074
C23	C	1.312783	0.233800	0.000082
C24	C	1.418926	0.244645	0.000085
C25	C	1.146614	0.399969	0.000062
C26	C	1.157459	0.506112	0.000057
N27	N	1.138801	0.225995	0.206620
N28	N	1.138857	0.226022	-0.206477
C29	C	1.198239	0.166607	0.248345
C30	C	1.198245	0.166607	0.331798
C31	C	1.138816	0.226000	0.373523
C32	C	1.079371	0.285391	0.331793
C33	C	1.079361	0.285385	0.248342
C34	C	1.079407	0.285412	0.668340
C35	C	1.079423	0.285415	0.751796
C36	C	1.198290	0.166634	0.751795
C37	C	1.198281	0.166629	0.668345
C38	C	1.138833	0.226015	0.626621
C39	C	1.138826	0.226013	0.536133
C40	C	1.138826	0.226007	0.464010
H41	H	1.251414	-0.262117	0.000022
H42	H	1.031004	0.333768	0.634375
C43	C	1.001603	-0.298516	0.000104
C44	C	1.010161	-0.397367	0.000122
C45	C	0.919203	-0.443552	0.000171
H46	H	0.967818	-0.280678	-0.046114
H47	H	0.967886	-0.280638	0.046357
H48	H	1.043863	-0.415237	-0.046126
H49	H	1.043930	-0.415232	0.046337
H50	H	0.885486	-0.425674	0.046424
H51	H	0.885424	-0.425707	-0.046048
H52	H	0.924997	-0.510626	0.000191
C53	C	0.663214	0.363298	-0.000127
C54	C	0.720211	0.374079	-0.068359
C55	C	0.766235	0.465112	-0.068580
H56	H	0.702045	0.370909	0.046041
H57	H	0.616935	0.410131	-0.000177
H58	H	0.766484	0.327261	-0.068302
H59	H	0.681404	0.366488	-0.114539
H60	H	0.719956	0.511944	-0.068629
H61	H	0.805060	0.472714	-0.022409
H62	H	0.804906	0.472442	-0.114878
C63	C	1.262581	0.102014	0.202966
C64	C	1.206748	0.039256	0.155082
C65	C	1.265974	-0.020277	0.113272
H66	H	1.297975	0.066554	0.239697
H67	H	1.305229	0.139667	0.170341
H68	H	1.164117	0.001608	0.187704
H69	H	1.171356	0.074690	0.118337
H70	H	1.308622	0.017375	0.080647
H71	H	1.301365	-0.055731	0.150008
H72	H	1.228101	-0.062860	0.080773
C73	C	1.262896	0.102108	0.376955
C74	C	1.314966	0.050122	0.322552
C75	C	1.374548	-0.009294	0.364121
H76	H	1.225315	0.059354	0.409525
H77	H	1.305588	0.139830	0.409478
H78	H	1.272280	0.012403	0.290042
H79	H	1.352565	0.092851	0.289980
H80	H	1.417240	0.028428	0.396644
H81	H	1.336960	-0.052041	0.396690
H82	H	1.409891	-0.044567	0.327215
C83	C	1.014727	0.349773	0.797059
C84	C	0.919600	0.326273	0.776795
C85	C	0.859979	0.385526	0.818484
H86	H	1.030341	0.414406	0.783408
H87	H	1.023187	0.341260	0.852742
H88	H	0.911145	0.334794	0.721124
H89	H	0.903956	0.261650	0.790448
H90	H	0.868438	0.377013	0.874167
H91	H	0.875601	0.450155	0.804829
H92	H	0.795428	0.369584	0.804746
C93	C	1.262836	0.102039	0.623187
C94	C	1.314873	0.050009	0.677591
C95	C	1.374340	-0.009514	0.636023
H96	H	1.305558	0.139659	0.590619
H97	H	1.225147	0.059322	0.590662
H98	H	1.352559	0.092721	0.710103
H99	H	1.272176	0.012370	0.710161
H100	H	1.336651	-0.052232	0.603497
H101	H	1.417055	0.028113	0.603455
H102	H	1.409647	-0.044830	0.672929
C103	C	1.014950	0.349843	0.377236
C104	C	1.027699	0.337159	0.459250
C105	C	0.968382	0.396530	0.501135
H106	H	0.950318	0.334109	0.363668
H107	H	1.030712	0.414463	0.363593
H108	H	1.011932	0.272553	0.472888
H109	H	1.092319	0.352900	0.472843
H110	H	0.984143	0.461150	0.487492
H111	H	0.903753	0.380790	0.487560
H112	H	0.977030	0.387938	0.556786
H113	H	0.626951	0.113425	0.000077
C114	C	1.262663	0.102023	0.797141
C115	C	1.206873	0.039233	0.845046
C116	C	1.266138	-0.020305	0.886820
H117	H	1.305324	0.139641	0.829753
H118	H	1.298040	0.066596	0.760365
H119	H	1.171513	0.074656	0.881818
H120	H	1.164214	0.001594	0.812454
H121	H	1.301515	-0.055732	0.850044
H122	H	1.308797	0.017321	0.919428
H123	H	1.228293	-0.062921	0.919323
C124	C	1.014797	0.349971	0.203181
C125	C	0.962772	0.402006	0.257582
C126	C	0.903291	0.461519	0.216011
H127	H	0.972068	0.312344	0.170635
H128	H	1.052474	0.392686	0.170634
H129	H	0.925098	0.359296	0.290116
H130	H	1.005476	0.439651	0.290130
H131	H	0.940968	0.504234	0.183463
H132	H	0.860568	0.423885	0.183466
H133	H	0.867991	0.496839	0.252915
