data_functionalizedCrystal
_audit_creation_method	'MofGen! by Chris Wilmer'
_symmetry_space_group_name_H-M	'P1'
_symmetry_Int_Tables_number	1
_symmetry_cell_setting	triclinic
loop_
_symmetry_equiv_pos_as_xyz
  x,y,z
_cell_length_a	10.967926
_cell_length_b	13.339070
_cell_length_c	9.482900
_cell_angle_alpha	101.886775
_cell_angle_beta	92.549900
_cell_angle_gamma	99.822081
loop_
_atom_site_label
_atom_site_type_symbol
_atom_site_fract_x
_atom_site_fract_y
_atom_site_fract_z
O1	O	1.670433	0.180968	0.297609
O2	O	1.321968	0.183216	0.210305
O3	O	1.456208	0.033239	0.243942
O4	O	1.536194	0.330945	0.263973
O5	O	1.428983	0.063831	0.478912
O6	O	1.294744	0.213808	0.445276
O7	O	1.643209	0.211560	0.532580
Cu8	Cu	1.466490	0.215478	0.510383
Cu9	Cu	1.498686	0.179299	0.232502
O10	O	1.508969	0.361537	0.498943
C11	C	1.262845	0.196037	0.316388
C12	C	1.127233	0.188650	0.282411
C13	C	1.052670	0.201204	0.388985
C14	C	0.912507	0.193569	0.353872
C15	C	1.429084	0.010309	0.358040
C16	C	1.388812	-0.103595	0.347944
C17	C	1.701955	-0.455938	0.426400
C18	C	1.739796	-0.348919	0.435894
C19	C	1.652053	-0.287583	0.413907
C20	C	1.526463	-0.333276	0.382425
C21	C	1.488617	-0.440304	0.372941
C22	C	1.438715	-0.271949	0.360448
C23	C	1.313125	-0.317642	0.328966
C24	C	1.275285	-0.424660	0.319482
C25	C	1.363028	-0.485996	0.341469
C26	C	1.476561	-0.164921	0.369932
C27	C	1.263223	-0.149287	0.316473
C28	C	1.225382	-0.256306	0.306978
C29	C	1.702332	0.198739	0.426494
C30	C	1.837945	0.206125	0.460461
C31	C	1.536093	0.384467	0.384842
C32	C	1.576366	0.498370	0.394929
N33	N	1.443854	0.240923	0.705831
N34	N	1.521330	0.153845	0.037056
C35	C	1.491999	0.186799	0.790094
C36	C	1.473177	0.207978	0.952795
H37	H	1.092598	0.217598	0.506223
O38	O	1.787196	-0.515440	0.448019
C39	C	1.847252	-0.478188	0.588276
H40	H	1.785389	-0.433116	0.660299
H41	H	1.938920	-0.424527	0.582933
C42	C	1.948576	-0.626226	0.562953
C43	C	1.872590	-0.570875	0.651416
H44	H	1.964211	-0.683398	0.601900
H45	H	1.908119	-0.651322	0.468457
H46	H	2.024957	-0.581497	0.558508
H47	H	1.796205	-0.615600	0.655845
H48	H	1.913035	-0.545789	0.745915
H49	H	0.872582	0.177165	0.236627
H50	H	1.842051	-0.311723	0.461529
O51	O	1.377973	0.314917	0.763206
C52	C	1.336889	0.361148	0.653275
H53	H	1.333540	0.305413	0.543895
H54	H	1.403734	0.436758	0.653881
C55	C	1.210353	0.453258	0.814472
C56	C	1.206229	0.384799	0.680130
H57	H	1.129758	0.467852	0.831039
H58	H	1.238035	0.422114	0.888537
H59	H	1.266063	0.516258	0.814961
H60	H	1.150532	0.321796	0.679650
H61	H	1.178534	0.415933	0.606066
H62	H	1.547148	0.124776	0.741784
H63	H	0.877867	0.222523	0.577707
O64	O	1.586779	0.079612	0.979345
C65	C	1.510072	0.002853	0.872342
H66	H	1.431422	0.037378	0.829859
H67	H	1.469564	-0.065674	0.921032
C68	C	1.683846	-0.077466	0.799251
C69	C	1.587252	-0.035059	0.747064
H70	H	1.731453	-0.100857	0.721976
H71	H	1.735524	-0.025755	0.871344
H72	H	1.650074	-0.134566	0.839826
H73	H	1.621024	0.022047	0.706507
H74	H	1.535580	-0.086762	0.674960
H75	H	1.123124	-0.293525	0.281346
O76	O	1.688675	-0.183639	0.422902
C77	C	1.656946	-0.159438	0.289704
H78	H	1.577563	-0.221831	0.228052
H79	H	1.740970	-0.156477	0.223078
C80	C	1.713518	0.023914	0.393213
C81	C	1.616011	-0.052714	0.317495
H82	H	1.688272	0.089747	0.410353
H83	H	1.734899	0.007610	0.482949
H84	H	1.783529	0.026367	0.337680
H85	H	1.546008	-0.055176	0.373035
H86	H	1.594617	-0.036408	0.227768
H87	H	1.087303	0.172247	0.165174
H88	H	1.578817	-0.127728	0.395565
O89	O	1.153302	-0.469029	0.288658
C90	C	1.111754	-0.453938	0.153039
H91	H	1.194427	-0.440167	0.086228
H92	H	1.064025	-0.383358	0.169391
C93	C	0.917629	-0.568314	0.155116
C94	C	1.019168	-0.551408	0.073053
H95	H	0.860513	-0.628435	0.105778
H96	H	0.945617	-0.578478	0.246488
H97	H	0.877869	-0.509490	0.168737
H98	H	1.058935	-0.610225	0.059449
H99	H	0.991183	-0.541256	-0.018323
O100	O	1.178148	-0.089575	0.295084
C101	C	1.238477	0.014687	0.310234
H102	H	1.340472	0.016789	0.290016
H103	H	1.231097	0.060104	0.424384
C104	C	1.051297	0.061801	0.224728
C105	C	1.176567	0.064383	0.199884
H106	H	1.013106	0.092459	0.156664
H107	H	1.010650	-0.008441	0.214526
H108	H	1.045164	0.099648	0.319856
H109	H	1.182698	0.026526	0.104764
H110	H	1.217214	0.134620	0.210067
H111	H	1.332224	-0.573141	0.333735
O112	O	1.407178	0.281854	1.010296
C113	C	1.285449	0.255980	0.942710
H114	H	1.261973	0.168615	0.894888
H115	H	1.278720	0.300338	0.852796
C116	C	1.222118	0.393116	1.113677
C117	C	1.193280	0.285811	1.054953
H118	H	1.165263	0.411521	1.182910
H119	H	1.304130	0.410551	1.159209
H120	H	1.216511	0.430068	1.038736
H121	H	1.198903	0.248861	1.129890
H122	H	1.111267	0.268370	1.009436
