data_functionalizedCrystal
_audit_creation_method	'MofGen! by Chris Wilmer'
_symmetry_space_group_name_H-M	'P1'
_symmetry_Int_Tables_number	1
_symmetry_cell_setting	triclinic
loop_
_symmetry_equiv_pos_as_xyz
  x,y,z
_cell_length_a	14.853558
_cell_length_b	14.519709
_cell_length_c	13.330367
_cell_angle_alpha	89.996657
_cell_angle_beta	89.992835
_cell_angle_gamma	83.655639
loop_
_atom_site_label
_atom_site_type_symbol
_atom_site_fract_x
_atom_site_fract_y
_atom_site_fract_z
O1	O	1.196421	0.120361	-0.083413
O2	O	1.696421	0.620361	0.416587
O3	O	0.933966	0.134713	-0.083418
O4	O	1.433966	0.634713	0.416582
O5	O	1.072152	-0.006705	-0.083407
O6	O	1.572152	0.493295	0.416593
O7	O	1.058235	0.261778	-0.083425
O8	O	1.558235	0.761778	0.416575
O9	O	1.072131	-0.006702	0.083440
O10	O	1.572131	0.493298	0.583440
O11	O	0.933945	0.134716	0.083429
O12	O	1.433945	0.634716	0.583429
O13	O	1.196400	0.120364	0.083434
O14	O	1.696400	0.620364	0.583434
Cu15	Cu	1.065171	0.127540	0.098666
Cu16	Cu	1.565171	0.627540	0.598666
Cu17	Cu	1.065196	0.127537	-0.098650
Cu18	Cu	1.565196	0.627537	0.401350
O19	O	1.058214	0.261781	0.083422
O20	O	1.558214	0.761781	0.583422
C21	C	0.900366	0.134066	0.000005
C22	C	1.400366	0.634066	0.500005
C23	C	0.800282	0.132122	0.000003
C24	C	1.300282	0.632122	0.500003
C25	C	0.753273	0.131208	-0.090949
C26	C	1.253273	0.631208	0.409051
C27	C	0.753248	0.131200	0.090954
C28	C	1.253248	0.631200	0.590954
C29	C	0.659214	0.129369	0.090956
C30	C	1.159214	0.629369	0.590956
C31	C	0.612205	0.128456	0.000004
C32	C	1.112205	0.628456	0.500004
C33	C	0.659230	0.129374	-0.090950
C34	C	1.159230	0.629374	0.409050
C35	C	0.612182	0.128441	0.181908
C36	C	1.112182	0.628441	0.681908
C37	C	0.518142	0.126609	0.181914
C38	C	1.018142	0.626609	0.681914
C39	C	0.471131	0.125702	0.090960
C40	C	0.971131	0.625702	0.590960
C41	C	0.518162	0.126621	0.000003
C42	C	1.018162	0.626621	0.500003
C43	C	0.471153	0.125708	-0.090949
C44	C	0.971153	0.625708	0.409051
C45	C	0.518181	0.126634	-0.181908
C46	C	1.018181	0.626634	0.318092
C47	C	0.612218	0.128467	-0.181903
C48	C	1.112218	0.628467	0.318097
C49	C	0.377094	0.123869	0.090956
C50	C	0.877094	0.623869	0.590956
C51	C	0.377110	0.123873	-0.090950
C52	C	0.877110	0.623873	0.409050
C53	C	1.071493	-0.041063	0.000017
C54	C	1.571493	0.458937	0.500017
C55	C	1.069550	-0.143443	0.000017
C56	C	1.569550	0.356557	0.500017
C57	C	1.062394	-0.518336	-0.000009
C58	C	1.562394	-0.018336	0.499991
C59	C	1.064381	-0.414029	-0.000001
C60	C	1.564381	0.085971	0.499999
C61	C	1.065972	-0.330893	0.000005
C62	C	1.565972	0.169107	0.500005
C63	C	1.067959	-0.226579	0.000011
C64	C	1.567959	0.273421	0.500011
C65	C	1.230000	0.121011	0.000008
C66	C	1.730000	0.621011	0.500008
C67	C	1.330085	0.122955	0.000004
C68	C	1.830085	0.622955	0.500004
C69	C	1.058873	0.296139	-0.000004
C70	C	1.558873	0.796139	0.499996
C71	C	1.060817	0.398520	-0.000011
C72	C	1.560817	0.898520	0.499989
N73	N	1.065160	0.127542	0.237447
N74	N	1.565160	0.627542	0.737447
N75	N	1.065214	0.127527	-0.237432
N76	N	1.565214	0.627527	0.262568
C77	C	1.010397	0.071507	0.289975
C78	C	1.510397	0.571507	0.789975
C79	C	1.119933	0.183572	0.289947
C80	C	1.619933	0.683572	0.789947
C81	C	1.119944	0.183572	0.394966
C82	C	1.619944	0.683572	0.894966
C83	C	1.065181	0.127537	0.447494
C84	C	1.565181	0.627537	0.947494
C85	C	1.010408	0.071503	0.395003
C86	C	1.510408	0.571503	0.895003
C87	C	1.174722	0.239598	0.447464
C88	C	1.674722	0.739598	0.947464
C89	C	1.174736	0.239599	0.552489
C90	C	1.674736	0.739599	1.052489
C91	C	1.119968	0.183568	0.605018
C92	C	1.619968	0.683568	1.105018
C93	C	1.065192	0.127533	0.552522
C94	C	1.565192	0.627533	1.052522
C95	C	1.010430	0.071498	0.605050
C96	C	1.510430	0.571498	1.105050
C97	C	0.955648	0.015466	0.552555
C98	C	1.455648	0.515466	1.052555
C99	C	0.955640	0.015472	0.447533
C100	C	1.455640	0.515472	0.947533
C101	C	1.119976	0.183562	0.710040
C102	C	1.619976	0.683562	1.210040
C103	C	1.010441	0.071493	0.710078
C104	C	1.510441	0.571493	1.210078
H105	H	0.650517	0.129219	-0.255957
H106	H	1.150517	0.629219	0.244043
H107	H	1.219313	0.285212	0.404688
H108	H	1.719313	0.785212	0.904688
H109	H	0.338841	0.123135	-0.165016
H110	H	0.838841	0.623135	0.334984
H111	H	1.164582	0.229179	0.752777
H112	H	1.664582	0.729179	1.252777
H113	H	0.479860	0.125854	0.255978
H114	H	0.979860	0.625854	0.755978
C115	C	0.374033	0.123822	-0.262664
C116	C	0.874033	0.623822	0.237336
C117	C	0.466502	0.125631	-0.281881
C118	C	0.966502	0.625631	0.218119
H119	H	0.342128	0.123208	-0.324383
H120	H	0.842128	0.623208	0.175617
H121	H	0.365423	0.069783	-0.225302
H122	H	0.865423	0.569783	0.274698
H123	H	0.351836	0.177258	-0.225288
H124	H	0.851836	0.677258	0.274712
H125	H	0.488701	0.072191	-0.319251
H126	H	0.988701	0.572191	0.180749
H127	H	0.475117	0.179675	-0.319260
H128	H	0.975117	0.679675	0.180740
H129	H	1.164524	0.229188	0.247173
H130	H	1.664524	0.729188	0.747173
C131	C	0.897429	0.134026	-0.171729
C132	C	1.397429	0.634026	0.328271
C133	C	0.804961	0.132221	-0.190928
C134	C	1.304961	0.632221	0.309072
H135	H	0.929339	0.134645	-0.233453
H136	H	1.429339	0.634645	0.266547
H137	H	0.906039	0.188059	-0.134367
H138	H	1.406039	0.688059	0.365633
H139	H	0.919623	0.080585	-0.134357
H140	H	1.419623	0.580585	0.365643
H141	H	0.782766	0.185666	-0.228293
H142	H	1.282766	0.685666	0.271707
H143	H	0.796346	0.078182	-0.228305
H144	H	1.296346	0.578182	0.271695
H145	H	1.219342	0.285224	0.595221
H146	H	1.719342	0.785224	1.095221
H147	H	0.650465	0.129177	0.255956
H148	H	1.150465	0.629177	0.755956
H149	H	0.338806	0.123123	0.165013
H150	H	0.838806	0.623123	0.665013
C151	C	0.974790	-0.083065	0.742426
C152	C	1.474790	0.416935	1.242426
C153	C	0.950244	0.009897	0.767816
C154	C	1.450244	0.509897	1.267816
H155	H	0.937630	-0.121090	0.778077
H156	H	1.437630	0.378910	1.278077
H157	H	0.966937	-0.091072	0.672375
H158	H	1.466937	0.408928	1.172375
H159	H	1.036447	-0.100082	0.759624
H160	H	1.536447	0.399918	1.259624
H161	H	0.888588	0.026916	0.750611
H162	H	1.388588	0.526916	1.250611
H163	H	0.958089	0.017909	0.837883
H164	H	1.458089	0.517909	1.337883
H165	H	0.965793	0.025891	0.247229
H166	H	1.465793	0.525891	0.747229
C167	C	0.907012	-0.034301	0.286556
C168	C	1.407012	0.465699	0.786556
C169	C	0.895445	-0.046129	0.389829
C170	C	1.395445	0.453871	0.889829
H171	H	0.869858	-0.072340	0.250932
H172	H	1.369858	0.427660	0.750932
H173	H	0.890352	0.028760	0.269347
H174	H	1.390352	0.528760	0.769347
H175	H	0.968672	-0.051317	0.269351
H176	H	1.468672	0.448683	0.769351
H177	H	0.833786	-0.029107	0.407036
H178	H	1.333786	0.470893	0.907036
H179	H	0.912100	-0.109205	0.407046
H180	H	1.412100	0.390795	0.907046
H181	H	0.791529	0.131937	0.165003
H182	H	1.291529	0.631937	0.665003
H183	H	0.911065	-0.030161	0.595337
H184	H	1.411065	0.469839	1.095337
