data_functionalizedCrystal
_audit_creation_method	'MofGen! by Chris Wilmer'
_symmetry_space_group_name_H-M	'P1'
_symmetry_Int_Tables_number	1
_symmetry_cell_setting	triclinic
loop_
_symmetry_equiv_pos_as_xyz
  x,y,z
_cell_length_a	19.121063
_cell_length_b	10.686220
_cell_length_c	10.686551
_cell_angle_alpha	90.308082
_cell_angle_beta	91.787201
_cell_angle_gamma	83.347164
loop_
_atom_site_label
_atom_site_type_symbol
_atom_site_fract_x
_atom_site_fract_y
_atom_site_fract_z
Zn1	Zn	-0.171149	-1.960178	0.576393
Zn2	Zn	-0.298212	-1.934959	0.377034
Zn3	Zn	-0.189107	-1.733026	0.384180
Zn4	Zn	-0.296789	-1.741490	0.602695
O5	O	-0.238814	-1.842413	0.485075
O6	O	-0.181084	-2.132864	0.535949
O7	O	-0.291850	-1.894076	0.203100
O8	O	-0.088483	-1.770171	0.401661
O9	O	-0.274436	-2.114336	0.389481
O10	O	-0.075289	-1.937058	0.542879
O11	O	-0.211691	-1.745717	0.208351
O12	O	-0.210311	-1.558117	0.427165
O13	O	-0.272012	-1.784596	0.774087
O14	O	-0.289425	-1.564336	0.587707
O15	O	-0.179704	-1.945265	0.754764
O16	O	-0.396264	-1.902282	0.414984
O17	O	-0.395219	-1.760141	0.580777
C18	C	-0.251663	-1.515583	0.511066
C19	C	-0.257175	-1.375765	0.522216
C20	C	-0.421212	-1.829430	0.499984
C21	C	-0.499236	-1.823994	0.506394
C22	C	-0.223696	-1.868688	0.811038
C23	C	-0.217254	-1.879884	0.949944
C24	C	-0.536407	-1.895514	0.423148
C25	C	-0.609719	-1.890409	0.429183
C26	C	-0.645858	-1.813778	0.518461
C27	C	-0.608681	-1.742256	0.601716
C28	C	-0.535371	-1.747368	0.595685
C29	C	-0.867182	-1.794644	0.540991
C30	C	-0.940498	-1.789534	0.547013
C31	C	-0.941530	-1.937690	0.374481
C32	C	-0.868219	-1.942789	0.368454
C33	C	-0.831048	-1.871272	0.451713
C34	C	-0.720794	-1.808556	0.524630
C35	C	-0.756113	-1.876502	0.445549
C36	C	-0.055701	-1.855484	0.470134
C37	C	0.022331	-1.861053	0.463766
C38	C	-0.225915	-2.170519	0.458984
C39	C	-0.220419	-2.310339	0.447865
C40	C	-0.253820	-1.816317	0.160371
C41	C	-0.260055	-1.805378	0.021430
H42	H	-0.506988	-1.957909	0.350444
H43	H	-0.184734	-1.361289	0.375679
C44	C	-0.826298	-1.716042	0.632638
N45	N	-0.795500	-1.656860	0.701693
C46	C	-0.716358	-1.960792	0.347344
N47	N	-0.686408	-2.024273	0.273372
C48	C	-0.161085	-1.977637	1.010829
N49	N	-0.118779	-2.051260	1.056688
H50	H	-0.750227	-1.746160	0.597317
H51	H	-0.292868	-1.324808	0.594399
H52	H	-0.301629	-1.733028	0.976364
H53	H	-0.505106	-1.689131	0.663474
C54	C	-0.828474	-2.027054	0.270212
N55	N	-0.798539	-2.090509	0.196202
H56	H	-0.971802	-1.995916	0.306698
C57	C	-0.980249	-1.705239	0.645236
N58	N	-1.010189	-1.641752	0.719215
H59	H	-0.639981	-1.948647	0.361394
C60	C	-0.648438	-1.657956	0.699918
N61	N	-0.678382	-1.594454	0.773881
