data_functionalizedCrystal
_audit_creation_method	'MofGen! by Chris Wilmer'
_symmetry_space_group_name_H-M	'P1'
_symmetry_Int_Tables_number	1
_symmetry_cell_setting	triclinic
loop_
_symmetry_equiv_pos_as_xyz
  x,y,z
_cell_length_a	12.594517
_cell_length_b	18.215405
_cell_length_c	18.215399
_cell_angle_alpha	90.027541
_cell_angle_beta	90.020001
_cell_angle_gamma	90.022532
loop_
_atom_site_label
_atom_site_type_symbol
_atom_site_fract_x
_atom_site_fract_y
_atom_site_fract_z
Zn1	Zn	1.627204	-0.292996	0.416121
Zn2	Zn	2.127204	0.207004	0.916121
Zn3	Zn	1.627078	-0.416067	0.293056
Zn4	Zn	2.127078	0.083933	0.793056
Zn5	Zn	1.449212	-0.293018	0.293068
Zn6	Zn	1.949212	0.206982	0.793068
Zn7	Zn	1.449169	-0.416025	0.416080
Zn8	Zn	1.949169	0.083975	0.916080
O9	O	1.538165	-0.354526	0.354581
O10	O	2.038165	0.145474	0.854581
O11	O	1.776133	-0.309330	0.399808
O12	O	2.276133	0.190670	0.899808
O13	O	1.603449	-0.399772	0.190073
O14	O	2.103449	0.100228	0.690073
O15	O	1.472893	-0.190031	0.309414
O16	O	1.972893	0.309969	0.809414
O17	O	1.776040	-0.399750	0.309393
O18	O	2.276040	0.100250	0.809393
O19	O	1.603663	-0.190014	0.399820
O20	O	2.103663	0.309986	0.899820
O21	O	1.472771	-0.309368	0.190082
O22	O	1.972771	0.190632	0.690082
O23	O	1.300260	-0.309327	0.309374
O24	O	1.800260	0.190673	0.809374
O25	O	1.472820	-0.399677	0.519070
O26	O	1.972820	0.100323	1.019070
O27	O	1.300229	-0.399699	0.399751
O28	O	1.800229	0.100301	0.899751
O29	O	1.603622	-0.309289	0.519100
O30	O	2.103622	0.190711	1.019100
O31	O	1.603407	-0.519046	0.309353
O32	O	2.103407	-0.019046	0.809353
O33	O	1.472698	-0.519015	0.399739
O34	O	1.972698	-0.019015	0.899739
C35	C	1.261625	-0.354512	0.354560
C36	C	1.761625	0.145488	0.854560
C37	C	1.143319	-0.354523	0.354568
C38	C	1.643319	0.145477	0.854568
C39	C	1.538063	-0.545733	0.354556
C40	C	2.038063	-0.045733	0.854556
C41	C	1.538117	-0.627532	0.354570
C42	C	2.038117	-0.127532	0.854570
C43	C	1.606242	-0.815656	0.401708
C44	C	2.106242	-0.315656	0.901708
C45	C	1.606280	-0.892515	0.401722
C46	C	2.106280	-0.392515	0.901722
C47	C	1.470221	-0.892645	0.307500
C48	C	1.970221	-0.392645	0.807500
C49	C	1.470178	-0.815788	0.307491
C50	C	1.970178	-0.315788	0.807491
C51	C	1.538194	-0.777295	0.354594
C52	C	2.038194	-0.277295	0.854594
C53	C	1.538276	-0.931011	0.354617
C54	C	2.038276	-0.431011	0.854617
C55	C	1.538317	-1.014345	0.354632
C56	C	2.038317	-0.514345	0.854632
C57	C	1.538152	-0.693956	0.354580
C58	C	2.038152	-0.193956	0.854580
C59	C	1.074052	-0.305303	0.305506
C60	C	1.574052	0.194697	0.805506
C61	C	1.003230	-0.372431	0.287401
C62	C	1.503230	0.127569	0.787401
C63	C	1.003342	-0.287428	0.372686
C64	C	1.503342	0.212572	0.872686
C65	C	1.074056	-0.421686	0.336427
C66	C	1.574056	0.078314	0.836427
C67	C	1.074173	-0.336639	0.421744
C68	C	1.574173	0.163361	0.921744
C69	C	1.003383	-0.403813	0.403664
C70	C	1.503383	0.096187	0.903664
C71	C	1.815786	-0.354542	0.354604
C72	C	2.315786	0.145458	0.854604
C73	C	1.934092	-0.354548	0.354613
C74	C	2.434092	0.145452	0.854613
C75	C	1.538230	-0.354476	0.546534
C76	C	2.038230	0.145524	1.046534
C77	C	1.538258	-0.354454	0.628333
C78	C	2.038258	0.145546	1.128333
C79	C	1.538297	-0.162574	0.354623
C80	C	2.038297	0.337426	0.854623
C81	C	1.538353	-0.080775	0.354641
C82	C	2.038353	0.419225	0.854641
C83	C	1.538162	-0.354524	0.163375
C84	C	2.038162	0.145476	0.663375
C85	C	1.538341	-0.354338	0.081577
C86	C	2.038341	0.145662	0.581577
C87	C	1.606391	-0.307345	0.816544
C88	C	2.106391	0.192655	1.316544
C89	C	1.606403	-0.307323	0.893403
C90	C	2.106403	0.192677	1.393403
C91	C	1.470201	-0.401450	0.893360
C92	C	1.970201	0.098550	1.393360
C93	C	1.470183	-0.401467	0.816503
C94	C	1.970183	0.098533	1.316503
C95	C	1.538284	-0.354415	0.778097
C96	C	2.038284	0.145585	1.278097
C97	C	1.538314	-0.354377	0.931813
C98	C	2.038314	0.145623	1.431813
C99	C	1.538328	-0.354354	1.015147
C100	C	2.038328	0.145646	1.515147
C101	C	1.538270	-0.354437	0.694758
C102	C	2.038270	0.145563	1.194758
H103	H	1.661623	-0.784317	0.440063
H104	H	2.161623	-0.284317	0.940063
H105	H	1.661689	-0.923744	0.440089
H106	H	2.161689	-0.423744	0.940089
C107	C	1.395321	-0.773585	0.255666
C108	C	1.895321	-0.273585	0.755666
H109	H	1.405029	-0.722299	0.262414
H110	H	1.905029	-0.222299	0.762414
H111	H	1.410942	-0.786197	0.206229
H112	H	1.910942	-0.286197	0.706229
H113	H	1.323801	-0.786213	0.266397
H114	H	1.823801	-0.286213	0.766397
H115	H	1.414846	-0.923995	0.269150
H116	H	1.914846	-0.423995	0.769150
C117	C	0.961112	-0.392884	0.210690
C118	C	1.461112	0.107116	0.710690
H119	H	0.919606	-0.436320	0.213963
H120	H	1.419606	0.063680	0.713963
H121	H	0.918542	-0.353959	0.192334
H122	H	1.418542	0.146041	0.692334
H123	H	1.019210	-0.400999	0.178447
H124	H	1.519210	0.099001	0.678447
H125	H	1.105081	-0.263719	0.263965
H126	H	1.605081	0.236281	0.763965
H127	H	1.661861	-0.268992	0.924703
H128	H	2.161861	0.231008	1.424703
C129	C	1.395302	-0.453209	0.935606
C130	C	1.895302	0.046791	1.435606
H131	H	1.354731	-0.481241	0.901698
H132	H	1.854731	0.018759	1.401698
H133	H	1.436005	-0.485269	0.965585
H134	H	1.936005	0.014731	1.465585
H135	H	1.348946	-0.425046	0.965589
H136	H	1.848946	0.074954	1.465589
H137	H	1.104988	-0.478455	0.321059
H138	H	1.604988	0.021545	0.821059
C139	C	0.961716	-0.460119	0.459737
C140	C	1.461716	0.039881	0.959737
H141	H	0.986059	-0.507746	0.446762
H142	H	1.486059	-0.007746	0.946762
H143	H	0.987080	-0.447812	0.507296
H144	H	1.487080	0.052188	1.007296
H145	H	0.886291	-0.459544	0.459730
H146	H	1.386291	0.040456	0.959730
C147	C	0.961381	-0.210765	0.393371
C148	C	1.461381	0.289235	0.893371
H149	H	0.919918	-0.214155	0.436798
H150	H	1.419918	0.285845	0.936798
H151	H	1.019540	-0.178564	0.401568
H152	H	1.519540	0.321436	0.901568
H153	H	0.918780	-0.192284	0.354505
H154	H	1.418780	0.307716	0.854505
C155	C	1.395270	-0.453252	0.774208
C156	C	1.895270	0.046748	1.274208
H157	H	1.354726	-0.481280	0.808088
H158	H	1.854726	0.018720	1.308088
H159	H	1.348905	-0.425108	0.744225
H160	H	1.848905	0.074892	1.244225
H161	H	1.435972	-0.485326	0.744226
H162	H	1.935972	0.014674	1.244226
C163	C	1.116311	-0.316155	0.498437
C164	C	1.616311	0.183845	0.998437
H165	H	1.092145	-0.268434	0.511222
H166	H	1.592145	0.231566	1.011222
H167	H	1.091064	-0.350641	0.533430
H168	H	1.591064	0.149359	1.033430
H169	H	1.191733	-0.316736	0.497966
H170	H	1.691733	0.183264	0.997966
H171	H	1.661840	-0.269030	0.785276
H172	H	2.161840	0.230970	1.285276
