data_functionalizedCrystal
_audit_creation_method	'MofGen! by Chris Wilmer'
_symmetry_space_group_name_H-M	'P1'
_symmetry_Int_Tables_number	1
_symmetry_cell_setting	triclinic
loop_
_symmetry_equiv_pos_as_xyz
  x,y,z
_cell_length_a	6.817900
_cell_length_b	14.125369
_cell_length_c	16.306216
_cell_angle_alpha	95.868573
_cell_angle_beta	103.467292
_cell_angle_gamma	100.397648
loop_
_atom_site_label
_atom_site_type_symbol
_atom_site_fract_x
_atom_site_fract_y
_atom_site_fract_z
V1	V	-4.010671	-0.133865	-0.262692
O2	O	-4.014604	0.005658	-0.258033
O3	O	-3.946801	-0.264687	-0.260568
O4	O	-3.962323	-0.132146	-0.377411
O5	O	-3.998975	-0.127801	-0.140380
V6	V	-4.496297	-0.117136	-0.248103
O7	O	-4.267317	-0.170561	-0.294696
O8	O	-4.689849	-0.080440	-0.216099
O9	O	-4.336961	0.013686	-0.250228
O10	O	-4.609761	-0.256660	-0.252762
O11	O	-4.625391	-0.123201	-0.370415
O12	O	-4.321438	-0.118856	-0.133384
C13	C	-3.788037	-0.296568	-0.256339
C14	C	-3.817102	-0.403519	-0.255366
C15	C	-4.055923	-0.651665	-0.257181
C16	C	-3.870424	-0.599337	-0.253617
C17	C	-3.840757	-0.490374	-0.254591
C18	C	-4.085598	-0.760638	-0.256208
C19	C	-3.807836	-0.127497	-0.405384
C20	C	-3.849488	-0.126957	-0.499165
C21	C	-4.000673	-0.125019	-0.839922
C22	C	-4.204341	-0.131401	-0.809458
C23	C	-4.161048	-0.131593	-0.711866
C24	C	-3.925670	-0.125981	-0.670868
C25	C	-3.801199	-0.030557	-0.691313
C26	C	-3.845896	-0.029963	-0.788912
C27	C	-3.903640	-0.213721	-0.813584
C28	C	-3.864853	-0.215604	-0.716262
C29	C	-3.883268	-0.126521	-0.575326
C30	C	-4.043066	-0.124472	-0.935463
C31	C	-4.159066	0.045562	-0.254454
C32	C	-4.109239	0.152512	-0.255432
C33	C	-4.139267	-0.123507	-0.105407
C34	C	-4.076855	-0.124043	-0.011625
H35	H	-4.258299	-0.200183	-0.698827
H36	H	-3.910084	0.037134	-0.804240
O37	O	-3.723418	-0.209378	-0.836731
C38	C	-3.533844	-0.288636	-0.920200
C39	C	-3.738026	-0.293701	-0.894038
H40	H	-3.545602	-0.356792	-0.966550
H41	H	-3.402270	-0.283782	-0.861103
H42	H	-3.502547	-0.221537	-0.952362
H43	H	-3.769519	-0.360794	-0.861894
H44	H	-3.869487	-0.298502	-0.953164
O45	O	-3.707733	-0.643655	-0.249061
C46	C	-3.589478	-0.794260	-0.243998
C47	C	-3.773880	-0.744186	-0.249146
H48	H	-3.642900	-0.875551	-0.244083
H49	H	-3.464984	-0.761505	-0.182798
H50	H	-3.524050	-0.782797	-0.301368
H51	H	-3.839481	-0.755632	-0.191820
H52	H	-3.898243	-0.776949	-0.310382
H53	H	-4.192440	-0.614633	-0.260962
O54	O	-4.292986	-0.055346	-0.830419
C55	C	-4.406671	0.086210	-0.779556
C56	C	-4.306340	0.000096	-0.755708
H57	H	-4.417460	0.131071	-0.719165
H58	H	-4.568027	0.057417	-0.823416
H59	H	-4.308660	0.133936	-0.813748
H60	H	-4.404186	-0.047664	-0.721484
H61	H	-4.144963	0.028956	-0.711887
O62	O	-4.224851	-0.055489	-0.675806
C63	C	-4.449151	-0.004477	-0.593660
C64	C	-4.377108	-0.090759	-0.634469
H65	H	-4.572230	-0.032960	-0.560214
H66	H	-4.516264	0.037906	-0.645314
H67	H	-4.312161	0.045513	-0.545187
H68	H	-4.513994	-0.140819	-0.682934
H69	H	-4.309926	-0.133068	-0.582768
O70	O	-3.664882	-0.019750	-0.812032
C71	C	-3.498317	-0.007413	-0.926787
C72	C	-3.703462	-0.019015	-0.900731
H73	H	-3.529433	-0.006795	-0.998498
H74	H	-3.422235	-0.070762	-0.909570
H75	H	-3.391376	0.063983	-0.891563
H76	H	-3.810558	-0.090375	-0.935941
H77	H	-3.779379	0.044386	-0.917930
H78	H	-4.008455	-0.285427	-0.849248
O79	O	-3.850744	0.048797	-0.653163
C80	C	-3.858120	0.139829	-0.521014
C81	C	-3.801954	0.049913	-0.564108
H82	H	-3.818656	0.140772	-0.449005
H83	H	-4.030308	0.136644	-0.545779
H84	H	-3.766836	0.208681	-0.536358
H85	H	-3.893098	-0.018985	-0.548782
H86	H	-3.629734	0.053184	-0.539340
H87	H	-3.628363	-0.022979	-0.663842
O88	O	-3.974709	-0.299734	-0.701667
C89	C	-4.056506	-0.397808	-0.596760
C90	C	-3.931942	-0.302513	-0.613184
H91	H	-4.022007	-0.400077	-0.525223
H92	H	-4.011542	-0.462599	-0.629831
H93	H	-4.228321	-0.401268	-0.623075
H94	H	-3.760098	-0.298958	-0.586868
H95	H	-3.977078	-0.237767	-0.580130
H96	H	-4.323278	-0.199763	-0.843848
H97	H	-3.695794	-0.217078	-0.688848
