data_functionalizedCrystal
_audit_creation_method	'MofGen! by Chris Wilmer'
_symmetry_space_group_name_H-M	'P1'
_symmetry_Int_Tables_number	1
_symmetry_cell_setting	triclinic
loop_
_symmetry_equiv_pos_as_xyz
  x,y,z
_cell_length_a	13.897449
_cell_length_b	18.050590
_cell_length_c	13.897441
_cell_angle_alpha	90.022679
_cell_angle_beta	89.979267
_cell_angle_gamma	89.990680
loop_
_atom_site_label
_atom_site_type_symbol
_atom_site_fract_x
_atom_site_fract_y
_atom_site_fract_z
Zn1	Zn	1.474767	0.295610	-0.545434
Zn2	Zn	1.974767	0.795610	-0.045434
Zn3	Zn	1.474688	0.419815	-0.384158
Zn4	Zn	1.974688	0.919815	0.115842
Zn5	Zn	1.313456	0.295646	-0.384153
Zn6	Zn	1.813456	0.795646	0.115847
Zn7	Zn	1.313465	0.419766	-0.545411
Zn8	Zn	1.813465	0.919766	-0.045411
O9	O	1.394094	0.357709	-0.464789
O10	O	1.894094	0.857709	0.035211
O11	O	1.609738	0.312092	-0.524053
O12	O	2.109738	0.812092	-0.024053
O13	O	1.453264	0.403379	-0.249176
O14	O	1.953264	0.903379	0.250824
O15	O	1.334884	0.191716	-0.405555
O16	O	1.834884	0.691716	0.094445
O17	O	1.609681	0.403344	-0.405564
O18	O	2.109681	0.903344	0.094436
O19	O	1.453398	0.191690	-0.524048
O20	O	1.953398	0.691690	-0.024048
O21	O	1.334808	0.312152	-0.249172
O22	O	1.834808	0.812152	0.250828
O23	O	1.178476	0.312105	-0.405532
O24	O	1.678476	0.812105	0.094468
O25	O	1.334899	0.403261	-0.680395
O26	O	1.834899	0.903261	-0.180395
O27	O	1.178483	0.403295	-0.524007
O28	O	1.678483	0.903295	-0.024007
O29	O	1.453407	0.312045	-0.680413
O30	O	1.953407	0.812045	-0.180413
O31	O	1.453273	0.523733	-0.405541
O32	O	1.953273	1.023733	0.094459
O33	O	1.334823	0.523697	-0.524012
O34	O	1.834823	1.023697	-0.024012
C35	C	1.143480	0.357699	-0.464767
C36	C	1.643480	0.857699	0.035233
C37	C	1.036266	0.357713	-0.464780
C38	C	1.536266	0.857713	0.035220
C39	C	0.839971	0.357715	-0.464806
C40	C	1.339971	0.857715	0.035194
C41	C	0.949204	0.357712	-0.464789
C42	C	1.449204	0.857712	0.035211
C43	C	1.394149	0.164004	-0.464803
C44	C	1.894149	0.664004	0.035197
C45	C	1.394172	0.081458	-0.464809
C46	C	1.894172	0.581458	0.035191
C47	C	1.458617	-0.118007	-0.529266
C48	C	1.958617	0.381993	-0.029266
C49	C	1.482186	-0.167376	-0.441268
C50	C	1.982186	0.332624	0.058732
C51	C	1.394163	-0.069673	-0.464814
C52	C	1.894163	0.430327	0.035186
C53	C	1.370629	-0.167385	-0.552815
C54	C	1.870629	0.332615	-0.052815
C55	C	1.394155	-0.215658	-0.464827
C56	C	1.894155	0.284342	0.035173
C57	C	1.417777	-0.117955	-0.376770
C58	C	1.917777	0.382045	0.123230
C59	C	1.306180	-0.117959	-0.488376
C60	C	1.806180	0.382041	0.011624
C61	C	1.329715	-0.167306	-0.400318
C62	C	1.829715	0.332694	0.099682
C63	C	1.394169	0.014426	-0.464808
C64	C	1.894169	0.514426	0.035192
C65	C	1.394148	-0.299754	-0.464823
C66	C	1.894148	0.200246	0.035177
C67	C	1.645687	0.357720	-0.464812
C68	C	2.145687	0.857720	0.035188
C69	C	1.752901	0.357724	-0.464821
C70	C	2.252901	0.857724	0.035179
C71	C	1.394066	0.550661	-0.464796
C72	C	1.894066	1.050661	0.035204
C73	C	1.394142	0.633207	-0.464831
C74	C	1.894142	1.133207	0.035169
C75	C	1.394163	0.357643	-0.716382
C76	C	1.894163	0.857643	-0.216382
C77	C	1.394192	0.357615	-0.823596
C78	C	1.894192	0.857615	-0.323596
C79	C	1.394218	0.357565	-1.019891
C80	C	1.894218	0.857565	-0.519891
C81	C	1.394201	0.357595	-0.910659
C82	C	1.894201	0.857595	-0.410659
C83	C	1.394082	0.357721	-0.214175
C84	C	1.894082	0.857721	0.285825
C85	C	1.394239	0.357540	-0.106961
C86	C	1.894239	0.857540	0.393039
H87	H	1.513168	-0.096361	-0.583698
H88	H	2.013168	0.403639	-0.083698
H89	H	1.556588	-0.189082	-0.421338
H90	H	2.056588	0.310918	0.078662
Br91	Br	1.451074	-0.081924	-0.252698
Br92	Br	1.951074	0.418076	0.247302
Br93	Br	1.238870	-0.203174	-0.309380
Br94	Br	1.738870	0.296826	0.190620
H95	H	1.231798	-0.096238	-0.508331
H96	H	1.731798	0.403762	-0.008331
Br97	Br	1.337459	-0.203579	-0.676842
Br98	Br	1.837459	0.296421	-0.176842
