data_functionalizedCrystal
_audit_creation_method	'MofGen! by Chris Wilmer'
_symmetry_space_group_name_H-M	'P1'
_symmetry_Int_Tables_number	1
_symmetry_cell_setting	triclinic
loop_
_symmetry_equiv_pos_as_xyz
  x,y,z
_cell_length_a	12.827892
_cell_length_b	19.077367
_cell_length_c	19.076919
_cell_angle_alpha	94.478002
_cell_angle_beta	87.724465
_cell_angle_gamma	87.686146
loop_
_atom_site_label
_atom_site_type_symbol
_atom_site_fract_x
_atom_site_fract_y
_atom_site_fract_z
Zn1	Zn	-0.373958	-1.061714	0.355438
Zn2	Zn	0.126042	-0.561714	0.855438
Zn3	Zn	-0.541404	-1.066387	0.237564
Zn4	Zn	-0.041404	-0.566387	0.737564
Zn5	Zn	-0.373984	-0.948569	0.242289
Zn6	Zn	0.126016	-0.448569	0.742289
Zn7	Zn	-0.555967	-0.943817	0.360130
Zn8	Zn	-0.055967	-0.443817	0.860130
O9	O	-0.461328	-1.005122	0.298855
O10	O	0.038672	-0.505122	0.798855
O11	O	-0.390065	-1.160982	0.335860
O12	O	0.109935	-0.660982	0.835860
O13	O	-0.513112	-1.054702	0.139544
O14	O	-0.013112	-0.554702	0.639544
O15	O	-0.227743	-0.963612	0.257312
O16	O	0.272257	-0.463612	0.757312
O17	O	-0.513087	-1.164415	0.249259
O18	O	-0.013087	-0.664415	0.749259
O19	O	-0.227725	-1.046739	0.340442
O20	O	0.272275	-0.546739	0.840442
O21	O	-0.390109	-0.968142	0.143015
O22	O	0.109891	-0.468142	0.643015
O23	O	-0.404230	-0.849291	0.261862
O24	O	0.095770	-0.349291	0.761862
O25	O	-0.537907	-0.955512	0.458155
O26	O	-0.037907	-0.455512	0.958155
O27	O	-0.537932	-0.845800	0.348439
O28	O	-0.037932	-0.345800	0.848439
O29	O	-0.404186	-1.042131	0.454707
O30	O	0.095814	-0.542131	0.954707
O31	O	-0.689573	-1.050094	0.253809
O32	O	-0.189573	-0.550094	0.753809
O33	O	-0.700273	-0.960043	0.343858
O34	O	-0.200273	-0.460043	0.843858
C35	C	-0.472665	-0.821967	0.306173
C36	C	0.027335	-0.321967	0.806173
C37	C	-0.477541	-0.743613	0.309320
C38	C	0.022459	-0.243613	0.809320
C39	C	-0.410123	-0.708595	0.265796
C40	C	0.089877	-0.208595	0.765796
C41	C	-0.414714	-0.634973	0.268753
C42	C	0.085286	-0.134973	0.768753
C43	C	-0.486717	-0.596368	0.315238
C44	C	0.013283	-0.096368	0.815238
C45	C	-0.554141	-0.631390	0.358763
C46	C	-0.054141	-0.131390	0.858763
C47	C	-0.549555	-0.705012	0.355802
C48	C	-0.049555	-0.205012	0.855802
C49	C	-0.507913	-0.375991	0.328916
C50	C	-0.007913	0.124009	0.828916
C51	C	-0.512492	-0.302364	0.331875
C52	C	-0.012492	0.197636	0.831875
C53	C	-0.373065	-0.305951	0.241864
C54	C	0.126935	0.194049	0.741864
C55	C	-0.368481	-0.379574	0.238910
C56	C	0.131519	0.120426	0.738910
C57	C	-0.435909	-0.414590	0.282433
C58	C	0.064091	0.085410	0.782433
N59	N	-0.491409	-0.521114	0.318263
N60	N	0.008591	-0.021114	0.818263
N61	N	-0.431222	-0.489843	0.279404
N62	N	0.068778	0.010157	0.779404
C63	C	-0.732840	-1.005078	0.298845
C64	C	-0.232840	-0.505078	0.798845
C65	C	-0.848992	-1.005123	0.298861
C66	C	-0.348992	-0.505123	0.798861
C67	C	-0.895447	-1.049733	0.254348
C68	C	-0.395447	-0.549733	0.754348
C69	C	-1.015496	-1.049780	0.254364
C70	C	-0.515496	-0.549780	0.754364
C71	C	-0.188756	-1.005184	0.298881
C72	C	0.311244	-0.505184	0.798881
C73	C	-0.072602	-1.005211	0.298891
C74	C	0.427398	-0.505211	0.798891
C75	C	-0.472668	-0.997770	0.482724
C76	C	0.027332	-0.497770	0.982724
C77	C	-0.477501	-0.994637	0.561079
C78	C	0.022499	-0.494637	1.061079
C79	C	-0.449943	-0.188992	0.291503
C80	C	0.050057	0.311008	0.791503
C81	C	-0.445075	-0.267347	0.288352
C82	C	0.054925	0.232653	0.788352
C83	C	-0.449955	-1.012486	0.115700
C84	C	0.050045	-0.512486	0.615700
C85	C	-0.444820	-1.015755	0.037340
C86	C	0.055180	-0.515755	0.537340
C87	C	-0.410153	-1.038261	0.596096
C88	C	0.089847	-0.538261	1.096096
C89	C	-0.414690	-1.035308	0.669718
C90	C	0.085310	-0.535308	1.169718
C91	C	-0.486581	-0.988736	0.708322
C92	C	0.013419	-0.488736	1.208322
C93	C	-0.553931	-0.945107	0.673300
C94	C	-0.053931	-0.445107	1.173300
C95	C	-0.549389	-0.948057	0.599679
C96	C	-0.049389	-0.448057	1.099679
C97	C	-0.507628	-0.975076	0.928697
C98	C	-0.007628	-0.475076	1.428697
C99	C	-0.512168	-0.972132	1.002323
C100	C	-0.012168	-0.472132	1.502323
C101	C	-0.372924	-1.062332	0.998737
C102	C	0.127076	-0.562332	1.498737
C103	C	-0.368392	-1.065280	0.925115
C104	C	0.131608	-0.565280	1.425115
C105	C	-0.435739	-1.021649	0.890099
C106	C	0.064261	-0.521649	1.390099
N107	N	-0.491222	-0.985718	0.783576
N108	N	0.008778	-0.485718	1.283576
N109	N	-0.431092	-1.024664	0.814846
N110	N	0.068908	-0.524664	1.314846
H111	H	-0.359822	-0.606465	0.233308
H112	H	0.140178	-0.106465	0.733308
H113	H	-0.604454	-0.733522	0.391244
H114	H	-0.104454	-0.233522	0.891244
H115	H	-0.562817	-0.404492	0.364355
H116	H	-0.062817	0.095508	0.864355
F117	F	-0.630786	-0.590303	0.408227
F118	F	-0.130786	-0.090303	0.908227
F119	F	-0.333483	-0.749675	0.216324
F120	F	0.166517	-0.249675	0.716324
F121	F	-0.579305	-0.928640	0.891440
F122	F	-0.079305	-0.428640	1.391440
F123	F	-0.291838	-0.420655	0.189440
F124	F	0.208162	0.079345	0.689440
H125	H	-1.032639	-0.967014	0.337001
H126	H	-0.532639	-0.467014	0.837001
F127	F	-0.291876	-1.114850	0.884035
F128	F	0.208124	-0.614850	1.384035
F129	F	-0.301310	-0.268680	0.195546
F130	F	0.198690	0.231320	0.695546
F131	F	-1.067737	-1.099698	0.204546
F132	F	-0.567737	-0.599698	0.704546
F133	F	-0.589129	-0.261279	0.381354
F134	F	-0.089129	0.238721	0.881354
F135	F	-0.913168	-0.955251	0.348694
F136	F	-0.413168	-0.455251	0.848694
F137	F	-0.831272	-1.099612	0.204522
F138	F	-0.331272	-0.599612	0.704522
F139	F	-0.630439	-0.895538	0.714386
F140	F	-0.130439	-0.395538	1.214386
H141	H	-0.351614	-1.076188	0.564670
H142	H	0.148386	-0.576188	1.064670
F143	F	-0.343043	-1.081763	0.706982
F144	F	0.156957	-0.581763	1.206982
H145	H	-0.318093	-1.097853	1.027255
H146	H	0.181907	-0.597853	1.527255
H147	H	-0.570712	-0.934204	1.033753
H148	H	-0.070712	-0.434204	1.533753
F149	F	-0.621067	-0.901625	0.562411
F150	F	-0.121067	-0.401625	1.062411
