data_functionalizedCrystal
_audit_creation_method	'MofGen! by Chris Wilmer'
_symmetry_space_group_name_H-M	'P1'
_symmetry_Int_Tables_number	1
_symmetry_cell_setting	triclinic
loop_
_symmetry_equiv_pos_as_xyz
  x,y,z
_cell_length_a	12.759401
_cell_length_b	15.296363
_cell_length_c	12.759393
_cell_angle_alpha	80.283087
_cell_angle_beta	89.980784
_cell_angle_gamma	99.692239
loop_
_atom_site_label
_atom_site_type_symbol
_atom_site_fract_x
_atom_site_fract_y
_atom_site_fract_z
Zn1	Zn	1.533860	-0.359159	-0.521543
Zn2	Zn	1.503333	-0.510088	-0.315412
Zn3	Zn	1.358152	-0.359211	-0.345869
Zn4	Zn	1.327742	-0.510022	-0.491064
O5	O	1.430772	-0.434620	-0.418472
O6	O	1.676830	-0.379186	-0.494208
O7	O	1.484025	-0.490123	-0.172421
O8	O	1.406962	-0.232925	-0.394674
O9	O	1.654402	-0.490073	-0.342764
O10	O	1.536054	-0.232887	-0.523741
O11	O	1.377362	-0.379275	-0.194798
O12	O	1.207098	-0.379211	-0.365120
O13	O	1.355133	-0.489960	-0.642138
O14	O	1.184756	-0.490010	-0.471794
O15	O	1.506567	-0.379122	-0.664531
O16	O	1.454538	-0.636358	-0.313210
O17	O	1.325532	-0.636309	-0.442261
C18	C	1.157806	-0.434610	-0.418455
C19	C	1.041026	-0.434627	-0.418469
C20	C	0.888103	-0.376989	-0.497421
C21	C	0.997828	-0.376986	-0.497410
C22	C	0.974493	-0.492280	-0.339540
C23	C	0.864769	-0.492286	-0.339556
C24	C	0.901577	-0.310422	-0.588564
C25	C	1.011302	-0.310420	-0.588553
C26	C	1.383451	-0.669076	-0.371146
C27	C	1.363303	-0.769378	-0.350935
C28	C	1.575203	-1.051733	-0.563025
C29	C	1.594140	-0.957494	-0.582013
C30	C	1.536432	-0.910461	-0.524246
C31	C	1.459784	-0.957674	-0.447486
C32	C	1.440851	-1.051922	-0.428489
C33	C	1.402081	-0.910650	-0.389711
C34	C	1.325433	-0.957863	-0.312950
C35	C	1.306503	-1.052102	-0.293958
C36	C	1.364210	-1.099135	-0.351726
C37	C	1.421014	-0.816402	-0.408707
C38	C	1.286663	-0.816591	-0.274172
C39	C	1.267725	-0.910830	-0.255183
C40	C	1.704803	-0.434631	-0.418489
C41	C	1.821579	-0.434636	-0.418496
C42	C	1.430863	-0.434527	-0.692524
C43	C	1.430902	-0.434488	-0.809309
C44	C	1.478306	-0.199248	-0.466005
C45	C	1.498562	-0.098946	-0.486261
C46	C	1.375417	-0.376736	-0.985561
C47	C	1.375386	-0.376761	-0.875832
C48	C	1.486462	-0.492187	-0.852521
C49	C	1.486499	-0.492156	-0.962249
C50	C	1.311284	-0.310098	-0.999019
C51	C	1.311253	-0.310124	-0.889289
C52	C	1.430754	-0.434647	-0.145499
C53	C	1.430970	-0.434432	-0.028766
H54	H	1.009672	-0.539219	-0.275271
H55	H	1.347193	-0.240199	-1.042917
O56	O	1.223846	-1.103027	-0.211156
H57	H	1.161746	-1.145982	-0.249473
H58	H	1.353793	-0.243741	-0.868673
O59	O	1.637433	-1.102457	-0.625333
H60	H	1.611382	-1.175921	-0.599233
H61	H	1.531673	-0.539183	-0.798349
O62	O	1.343908	-1.200782	-0.331209
H63	H	1.317686	-1.225647	-0.405414
O64	O	1.198457	-0.334933	-0.844809
H65	H	1.143261	-0.347069	-0.910051
H66	H	1.040302	-0.335528	-0.660730
O67	O	1.185074	-0.961755	-0.172375
H68	H	1.181618	-1.035187	-0.168866
O69	O	0.857157	-0.335323	-0.691278
H70	H	0.770171	-0.335300	-0.691229
H71	H	0.880934	-0.244006	-0.572957
O72	O	1.224408	-0.765877	-0.211859
H73	H	1.250441	-0.692412	-0.237972
H74	H	1.531746	-0.539130	-0.997423
H75	H	0.810606	-0.539236	-0.275295
H76	H	1.483422	-0.777969	-0.471205
O77	O	1.069433	-0.217820	-0.578528
H78	H	1.050457	-0.168104	-0.646678
O79	O	1.556846	-0.808818	-0.544726
H80	H	1.619832	-0.783888	-0.607812
O81	O	1.676828	-0.906570	-0.664773
H82	H	1.713779	-0.955105	-0.701748
H83	H	1.228948	-0.335122	-1.027991
