data_functionalizedCrystal
_audit_creation_method	'MofGen! by Chris Wilmer'
_symmetry_space_group_name_H-M	'P1'
_symmetry_Int_Tables_number	1
_symmetry_cell_setting	triclinic
loop_
_symmetry_equiv_pos_as_xyz
  x,y,z
_cell_length_a	27.732048
_cell_length_b	27.732048
_cell_length_c	26.210047
_cell_angle_alpha	89.999521
_cell_angle_beta	89.996535
_cell_angle_gamma	82.642655
loop_
_atom_site_label
_atom_site_type_symbol
_atom_site_fract_x
_atom_site_fract_y
_atom_site_fract_z
O1	O	0.640931	0.057510	-0.042369
O2	O	0.500138	0.066256	-0.042385
O3	O	0.574907	-0.008514	-0.042367
O4	O	0.566162	0.132279	-0.042387
O5	O	0.574893	-0.008502	0.042491
O6	O	0.500123	0.066267	0.042473
O7	O	0.640917	0.057522	0.042489
Cu8	Cu	0.570519	0.061896	0.050229
Cu9	Cu	0.570536	0.061882	-0.050125
O10	O	0.566147	0.132291	0.042471
C11	C	0.482124	0.066078	0.000042
C12	C	0.428469	0.065525	0.000036
C13	C	0.089654	0.106229	0.000053
C14	C	-0.112006	0.104178	0.000057
O15	O	-0.143262	0.141398	0.000074
N16	N	-0.131130	0.059843	0.000063
C17	C	-0.099835	0.016017	0.000071
O18	O	-0.120728	-0.021740	0.000081
C19	C	0.101824	0.018068	0.000069
C20	C	0.120944	0.062407	0.000059
C21	C	0.108775	0.150563	0.000043
C22	C	0.159187	0.151076	0.000039
C23	C	0.190477	0.107253	0.000045
C24	C	0.171356	0.062919	0.000055
C25	C	0.133117	-0.025757	0.000081
C26	C	0.183535	-0.025240	0.000082
C27	C	0.202655	0.019098	0.000071
C28	C	0.253059	0.019609	0.000057
N29	N	0.272183	0.063944	0.000051
C30	C	0.240892	0.107766	0.000045
C31	C	-0.205709	0.014943	0.000070
C32	C	-0.256124	0.014430	0.000070
C33	C	-0.268291	0.102591	0.000057
C34	C	-0.217876	0.103104	0.000054
C35	C	-0.186585	0.059278	0.000065
C36	C	0.346761	0.108839	0.000036
C37	C	0.397178	0.109347	0.000030
C38	C	0.409341	0.021186	0.000045
C39	C	0.358929	0.020678	0.000049
C40	C	0.327639	0.064508	0.000046
O41	O	0.284343	-0.017592	0.000046
O42	O	0.261794	0.145518	0.000047
C43	C	0.039242	0.105716	0.000057
C44	C	0.020120	0.061382	0.000067
C45	C	0.051411	0.017560	0.000073
C46	C	-0.030294	0.060869	0.000066
C47	C	-0.061585	0.104691	0.000060
C48	C	-0.042461	0.149026	0.000054
C49	C	0.007951	0.149539	0.000050
C50	C	0.032287	-0.026775	0.000078
C51	C	-0.018125	-0.027284	0.000082
C52	C	-0.049416	0.016538	0.000076
C53	C	0.574716	-0.026515	0.000064
C54	C	0.574164	-0.080170	0.000068
C55	C	0.614867	-0.418985	0.000046
C56	C	0.612816	-0.620645	0.000039
O57	O	0.650037	-0.651900	0.000021
N58	N	0.568481	-0.639768	0.000034
C59	C	0.524656	-0.608474	0.000028
O60	O	0.486899	-0.629367	0.000019
C61	C	0.526707	-0.406815	0.000032
C62	C	0.571045	-0.387694	0.000042
C63	C	0.659202	-0.399864	0.000056
C64	C	0.659714	-0.349452	0.000060
C65	C	0.615892	-0.318161	0.000056
C66	C	0.571557	-0.337282	0.000046
C67	C	0.482882	-0.375521	0.000022
C68	C	0.483399	-0.325104	0.000022
C69	C	0.527737	-0.305983	0.000032
C70	C	0.528247	-0.255580	0.000046
N71	N	0.572583	-0.236456	0.000051
C72	C	0.616405	-0.267747	0.000056
C73	C	0.523582	-0.714348	0.000027
C74	C	0.523069	-0.764762	0.000027
C75	C	0.611230	-0.776930	0.000037
C76	C	0.611742	-0.726514	0.000041
C77	C	0.567917	-0.695224	0.000032
C78	C	0.617477	-0.161878	0.000066
C79	C	0.617986	-0.111461	0.000073
C80	C	0.529825	-0.099298	0.000060
C81	C	0.529316	-0.149710	0.000056
C82	C	0.573147	-0.180999	0.000057
O83	O	0.491047	-0.224296	0.000059
O84	O	0.654156	-0.246844	0.000054
C85	C	0.614355	-0.469397	0.000042
C86	C	0.570021	-0.488518	0.000033
C87	C	0.526198	-0.457228	0.000028
C88	C	0.569508	-0.538933	0.000033
C89	C	0.613330	-0.570223	0.000037
C90	C	0.657665	-0.551100	0.000042
C91	C	0.658177	-0.500688	0.000046
C92	C	0.481863	-0.476351	0.000023
C93	C	0.481355	-0.526764	0.000019
C94	C	0.525177	-0.558054	0.000024
C95	C	0.658931	0.057699	0.000061
C96	C	0.712586	0.058252	0.000064
C97	C	0.566338	0.150292	0.000040
C98	C	0.566891	0.203947	0.000032
N99	N	0.570510	0.061905	0.120813
N100	N	0.570548	0.061868	-0.120709
C101	C	0.603640	0.028781	0.473336
C102	C	0.603651	0.028774	0.686994
O103	O	0.631801	0.000614	0.714623
N104	N	0.570538	0.061871	0.713707
C105	C	0.537419	0.094970	0.687003
O106	O	0.509251	0.123117	0.714626
C107	C	0.537406	0.094974	0.473345
C108	C	0.570524	0.061878	0.446635
C109	C	0.636755	-0.004312	0.446625
C110	C	0.636754	-0.004308	0.393214
C111	C	0.603638	0.028789	0.366513
C112	C	0.570523	0.061882	0.393223
C113	C	0.504284	0.128070	0.446641
C114	C	0.504283	0.128067	0.393223
C115	C	0.537401	0.094971	0.366513
C116	C	0.537405	0.094983	0.313111
N117	N	0.570518	0.061886	0.286397
C118	C	0.603634	0.028789	0.313098
C119	C	0.537428	0.094966	0.799176
C120	C	0.537432	0.094965	0.852590
C121	C	0.603664	0.028769	0.852578
C122	C	0.603662	0.028773	0.799163
C123	C	0.570541	0.061869	0.772463
C124	C	0.603629	0.028800	0.200931
C125	C	0.603626	0.028808	0.147514
C126	C	0.537393	0.095002	0.147531
C127	C	0.537397	0.094996	0.200943
C128	C	0.570517	0.061891	0.227641
O129	O	0.509267	0.123125	0.285449
O130	O	0.631790	0.000639	0.285466
C131	C	0.603641	0.028777	0.526747
C132	C	0.570527	0.061871	0.553457
C133	C	0.537410	0.094968	0.526756
C134	C	0.570530	0.061870	0.606872
C135	C	0.603646	0.028773	0.633573
C136	C	0.636759	-0.004323	0.606859
C137	C	0.636758	-0.004320	0.553448
C138	C	0.504298	0.128064	0.553470
C139	C	0.504302	0.128058	0.606881
C140	C	0.537418	0.094961	0.633582
H141	H	-0.271687	-0.021674	0.000070
N142	N	0.475244	-0.785376	0.000022
H143	H	0.473068	-0.806022	-0.031435
H144	H	0.473085	-0.805997	0.031500
H145	H	0.477330	0.155015	0.531734
H146	H	0.694282	-0.485125	0.000054
N147	N	0.112502	-0.073579	0.000095
H148	H	0.139981	-0.101257	0.000103
H149	H	0.091851	-0.075706	0.031555
N150	N	0.658494	-0.810686	0.000043
H151	H	0.660245	-0.831873	-0.031415
H152	H	0.686635	-0.790894	0.000063
N153	N	0.179804	0.198898	0.000039
H154	H	0.216490	0.192581	0.000041
H155	H	0.168335	0.218056	-0.031419
N156	N	0.659563	-0.705893	0.000048
H157	H	0.661737	-0.685248	0.031505
H158	H	0.687215	-0.733396	0.000033
N159	N	0.468558	0.163760	0.475441
H160	H	0.447299	0.145429	0.497602
H161	H	0.486895	0.185033	0.497575
N162	N	0.704931	-0.584854	0.000051
H163	H	0.697874	-0.619691	0.000048
H164	H	0.724276	-0.578701	-0.031404
N165	N	0.672484	-0.040005	0.475419
H166	H	0.693460	-0.060963	0.450385
H167	H	0.693713	-0.021637	0.497571
N168	N	0.664753	-0.195616	0.000074
H169	H	0.666500	-0.216805	0.031530
H170	H	0.666491	-0.216773	-0.031404
N171	N	-0.038740	-0.075112	0.000096
H172	H	-0.059384	-0.077283	0.031556
H173	H	-0.059363	-0.077273	-0.031378
N174	N	0.481497	-0.170338	0.000047
H175	H	0.479312	-0.190987	0.031500
H176	H	0.453842	-0.142837	0.000028
H177	H	0.343360	-0.015426	0.000050
N178	N	0.217283	-0.072510	0.000096
H179	H	0.197517	-0.100672	0.000104
H180	H	0.238467	-0.074226	-0.031362
N181	N	0.672480	-0.040019	0.635664
H182	H	0.667452	-0.034995	0.673553
H183	H	0.667154	-0.074274	0.626329
N184	N	0.482561	-0.065544	0.000069
H185	H	0.489618	-0.030706	0.000075
H186	H	0.463222	-0.071691	-0.031390
H187	H	0.445246	-0.542327	0.000016
H188	H	0.630598	0.001842	0.222662
N189	N	0.706471	-0.433609	0.000061
H190	H	0.734630	-0.413838	0.000067
H191	H	0.708174	-0.454788	0.031521
N192	N	0.028574	0.197359	0.000045
H193	H	0.049220	0.199536	-0.031412
H194	H	0.001071	0.225012	0.000063
N195	N	0.476310	-0.680602	0.000019
H196	H	0.448150	-0.700372	0.000018
H197	H	0.474595	-0.659420	0.031477
N198	N	0.639346	-0.006896	0.118712
H199	H	0.621035	-0.028171	0.096552
H200	H	0.660604	0.011459	0.096578
H201	H	0.446777	-0.391080	0.000011
N202	N	0.468562	0.163767	0.364424
H203	H	0.447299	0.145442	0.342264
H204	H	0.447618	0.184722	0.389484
H205	H	0.446177	-0.450879	0.000018
H206	H	0.434827	-0.014492	0.000048
N207	N	-0.076215	0.196293	0.000045
H208	H	-0.111052	0.189235	0.000048
H209	H	-0.070064	0.215636	0.031500
N210	N	0.066033	-0.074043	0.000089
H211	H	0.046264	-0.102203	0.000094
H212	H	0.087216	-0.075758	-0.031370
H213	H	0.654093	-0.095896	0.000082
N214	N	0.707536	-0.328832	0.000069
H215	H	0.735215	-0.356310	0.000070
H216	H	0.709677	-0.308181	-0.031388
N217	N	0.436129	-0.291355	0.000010
H218	H	0.407967	-0.311122	0.000003
H219	H	0.434412	-0.270174	0.031469
N220	N	-0.197260	0.150927	0.000048
H221	H	-0.176618	0.153113	0.031505
H222	H	-0.176635	0.153075	-0.031429
H223	H	0.663720	-0.031259	0.371469
N224	N	0.501712	0.130662	0.881394
H225	H	0.506735	0.125643	0.919285
H226	H	0.507036	0.164917	0.872056
H227	H	0.630629	0.001823	0.777418
H228	H	0.630629	0.001821	0.874327
H229	H	0.412743	0.145454	0.000021
H230	H	0.083302	0.186251	0.000039
H231	H	0.510434	0.121950	0.222691
H232	H	0.510456	0.121918	0.777440
H233	H	0.510432	0.121951	0.125783
H234	H	0.663725	-0.031269	0.531704
N235	N	0.313012	0.156108	0.000029
H236	H	0.291824	0.157867	0.031487
H237	H	0.332811	0.184244	0.000002
H238	H	-0.293777	0.138273	0.000053
N239	N	-0.171963	-0.032329	0.000084
H240	H	-0.191733	-0.060489	0.000087
H241	H	-0.150777	-0.034045	-0.031373
N242	N	0.468578	0.163755	0.635687
H243	H	0.447599	0.184718	0.610662
H244	H	0.447350	0.145388	0.657845
