data_functionalizedCrystal
_audit_creation_method	'MofGen! by Chris Wilmer'
_symmetry_space_group_name_H-M	'P1'
_symmetry_Int_Tables_number	1
_symmetry_cell_setting	triclinic
loop_
_symmetry_equiv_pos_as_xyz
  x,y,z
_cell_length_a	18.050590
_cell_length_b	18.050589
_cell_length_c	16.959447
_cell_angle_alpha	89.973357
_cell_angle_beta	90.000229
_cell_angle_gamma	90.017386
loop_
_atom_site_label
_atom_site_type_symbol
_atom_site_fract_x
_atom_site_fract_y
_atom_site_fract_z
Zn1	Zn	1.135296	-0.295860	-0.446622
Zn2	Zn	1.135206	-0.420061	-0.314452
Zn3	Zn	1.011114	-0.295866	-0.314493
Zn4	Zn	1.011064	-0.419989	-0.446624
O5	O	1.073170	-0.357944	-0.380548
O6	O	1.239209	-0.312363	-0.429071
O7	O	1.118728	-0.403619	-0.203846
O8	O	1.027647	-0.191941	-0.332037
O9	O	1.239142	-0.403613	-0.331966
O10	O	1.118883	-0.191936	-0.429111
O11	O	1.027559	-0.312374	-0.203877
O12	O	0.907183	-0.312304	-0.332039
O13	O	1.027560	-0.403490	-0.557235
O14	O	0.907146	-0.403496	-0.429115
O15	O	1.118833	-0.312293	-0.557233
O16	O	1.118679	-0.523976	-0.331968
O17	O	1.027472	-0.523923	-0.429075
C18	C	0.880218	-0.357893	-0.380582
C19	C	0.797672	-0.357889	-0.380615
C20	C	0.598223	-0.407622	-0.433280
C21	C	0.548830	-0.339904	-0.452725
C22	C	0.646542	-0.357931	-0.380576
C23	C	0.548853	-0.425687	-0.361130
C24	C	0.500557	-0.357977	-0.380541
C25	C	0.598236	-0.290177	-0.400060
C26	C	0.598264	-0.376006	-0.308431
C27	C	0.548893	-0.308242	-0.327849
C28	C	0.730640	-0.357905	-0.380599
C29	C	0.416460	-0.357995	-0.380518
C30	C	1.073080	-0.550896	-0.380535
C31	C	1.073110	-0.633442	-0.380555
C32	C	1.023561	-0.832891	-0.433343
C33	C	1.005462	-0.882331	-0.361221
C34	C	1.073183	-0.784572	-0.380566
C35	C	1.091318	-0.882213	-0.452696
C36	C	1.073252	-0.930557	-0.380582
C37	C	1.055049	-0.832925	-0.308405
C38	C	1.140936	-0.832803	-0.399929
C39	C	1.122864	-0.882222	-0.327757
C40	C	1.073141	-0.700474	-0.380557
C41	C	1.073294	-1.014654	-0.380582
C42	C	1.266876	-0.357995	-0.380514
C43	C	1.349421	-0.358017	-0.380500
C44	C	1.073201	-0.357882	-0.586716
C45	C	1.073214	-0.357856	-0.674573
C46	C	1.073280	-0.164238	-0.380578
C47	C	1.073327	-0.081693	-0.380591
C48	C	1.025781	-0.405260	-1.046052
C49	C	1.120825	-0.310296	-1.046045
C50	C	1.120805	-0.310312	-0.963499
C51	C	1.073273	-0.357803	-0.922226
C52	C	1.025761	-0.405279	-0.963498
C53	C	1.168321	-0.262842	-0.922221
C54	C	1.168304	-0.262856	-0.839670
C55	C	1.120768	-0.310345	-0.798395
C56	C	1.073254	-0.357822	-0.839672
C57	C	1.025722	-0.405313	-0.798399
C58	C	0.978203	-0.452787	-0.839675
C59	C	0.978225	-0.452767	-0.922223
C60	C	1.120746	-0.310365	-0.715846
C61	C	1.025702	-0.405332	-0.715845
C62	C	1.073182	-0.357952	-0.175181
C63	C	1.073313	-0.357769	-0.087325
H64	H	0.619837	-0.232879	-0.416561
H65	H	0.939506	-0.491458	-0.806059
H66	H	1.207024	-0.224182	-0.955832
H67	H	1.206996	-0.224200	-0.806070
H68	H	0.527157	-0.482968	-0.344700
H69	H	1.159527	-0.271635	-1.079655
H70	H	0.986989	-0.443999	-0.682246
C71	C	0.519808	-0.251439	-0.267622
H72	H	0.536809	-0.203368	-0.281553
H73	H	0.537483	-0.263852	-0.216540
H74	H	0.467182	-0.252045	-0.267633
H75	H	0.527116	-0.324631	-0.513722
C76	C	0.925966	-0.504987	-0.967627
H77	H	0.932793	-0.498179	-1.022701
H78	H	0.876069	-0.494111	-0.954120
H79	H	0.936809	-0.554894	-0.954083
C80	C	1.179591	-0.911307	-0.267407
H81	H	1.166611	-0.894340	-0.216221
H82	H	1.227551	-0.893600	-0.280719
H83	H	1.179592	-0.963934	-0.268040
C84	C	1.112035	-0.911424	-0.535096
H85	H	1.155878	-0.940339	-0.531556
H86	H	1.120220	-0.870810	-0.569656
H87	H	1.072789	-0.941147	-0.554908
H88	H	0.987090	-0.443910	-1.079662
C89	C	1.173005	-0.258147	-0.670446
H90	H	1.201314	-0.229858	-0.706850
H91	H	1.205338	-0.286568	-0.638222
H92	H	1.144600	-0.225784	-0.638265
C93	C	1.218290	-0.803417	-0.422064
H94	H	1.231083	-0.820270	-0.473346
H95	H	1.253669	-0.821060	-0.385091
H96	H	1.217839	-0.750793	-0.421426
C97	C	0.627626	-0.396665	-0.226057
H98	H	0.610749	-0.444831	-0.212329
H99	H	0.610002	-0.361875	-0.188472
H100	H	0.680251	-0.396054	-0.226556
H101	H	0.619885	-0.449570	-0.477899
C102	C	0.966792	-0.803621	-0.493550
H103	H	0.918699	-0.820581	-0.479665
H104	H	0.979177	-0.821221	-0.544654
H105	H	0.967469	-0.750995	-0.493458
H106	H	1.039672	-0.811365	-0.247395
C107	C	0.928102	-0.911724	-0.339099
H108	H	0.892876	-0.894838	-0.376643
H109	H	0.914902	-0.894123	-0.288227
H110	H	0.928801	-0.964348	-0.338798
