data_functionalizedCrystal
_audit_creation_method	'MofGen! by Chris Wilmer'
_symmetry_space_group_name_H-M	'P1'
_symmetry_Int_Tables_number	1
_symmetry_cell_setting	triclinic
loop_
_symmetry_equiv_pos_as_xyz
  x,y,z
_cell_length_a	14.908783
_cell_length_b	16.120484
_cell_length_c	14.908308
_cell_angle_alpha	95.986071
_cell_angle_beta	89.788727
_cell_angle_gamma	96.375081
loop_
_atom_site_label
_atom_site_type_symbol
_atom_site_fract_x
_atom_site_fract_y
_atom_site_fract_z
Zn1	Zn	1.328321	-0.293306	-0.602922
Zn2	Zn	1.329270	-0.425026	-0.459340
Zn3	Zn	1.186687	-0.292398	-0.443847
Zn4	Zn	1.169365	-0.441084	-0.601788
O5	O	1.253411	-0.362954	-0.526974
O6	O	1.454642	-0.304438	-0.590834
O7	O	1.318002	-0.400333	-0.331096
O8	O	1.212327	-0.175168	-0.458939
O9	O	1.455339	-0.401213	-0.485345
O10	O	1.316385	-0.175834	-0.575811
O11	O	1.213247	-0.302892	-0.319713
O12	O	1.058194	-0.318462	-0.457839
O13	O	1.182804	-0.428581	-0.728127
O14	O	1.045468	-0.427701	-0.573878
O15	O	1.299589	-0.320009	-0.728960
O16	O	1.301206	-0.544507	-0.484246
O17	O	1.183725	-0.556305	-0.588901
C18	C	1.019110	-0.374726	-0.514055
C19	C	0.918872	-0.379784	-0.508551
C20	C	0.729768	-0.288674	-0.608237
C21	C	0.635586	-0.293423	-0.603068
C22	C	0.636325	-0.394028	-0.493039
C23	C	0.730507	-0.389278	-0.498208
C24	C	0.777225	-0.336600	-0.555810
C25	C	0.871409	-0.331856	-0.560983
C26	C	0.872146	-0.432455	-0.450950
C27	C	0.777964	-0.437205	-0.445781
C28	C	1.240712	-0.580834	-0.538153
C29	C	1.235360	-0.674041	-0.542969
C30	C	1.225593	-0.844693	-0.551783
C31	C	1.281389	-0.880366	-0.502190
C32	C	1.275955	-0.975323	-0.507093
C33	C	1.231026	-0.749728	-0.546880
C34	C	1.488626	-0.351136	-0.539945
C35	C	1.588861	-0.346099	-0.545472
C36	C	1.239159	-0.376187	-0.762178
C37	C	1.233085	-0.381827	-0.862408
C38	C	1.266182	-0.144222	-0.515773
C39	C	1.271625	-0.051012	-0.511000
C40	C	1.343279	-0.279349	-1.051618
C41	C	1.337575	-0.284644	-1.145793
C42	C	1.215971	-0.397710	-1.144933
C43	C	1.221675	-0.392414	-1.050758
C44	C	1.285331	-0.333232	-1.004104
C45	C	1.291039	-0.327941	-0.909928
C46	C	1.169431	-0.441002	-0.909070
C47	C	1.163727	-0.446297	-1.003245
C48	C	1.267663	-0.349708	-0.292685
C49	C	1.273924	-0.343824	-0.192454
H50	H	0.909445	-0.288964	-0.607886
C51	C	1.155541	-0.899774	-0.614103
N52	N	1.102775	-0.941270	-0.661037
C53	C	1.361059	-0.262838	-0.858610
N54	N	1.413797	-0.213798	-0.819959
H55	H	1.395115	-0.231164	-1.013632
C56	C	0.924356	-0.485180	-0.393279
N57	N	0.963681	-0.524892	-0.349844
C58	C	1.351430	-0.825285	-0.439848
N59	N	1.404180	-0.783794	-0.392891
C60	C	1.401324	-0.225370	-1.198055
N61	N	1.449343	-0.180722	-1.237419
H62	H	1.164145	-0.445892	-1.182935
H63	H	1.122248	-0.484880	-0.870374
C64	C	0.781160	-0.230733	-0.671602
N65	N	0.819867	-0.187090	-0.719330
C66	C	0.583387	-0.240703	-0.660744
N67	N	0.544070	-0.200992	-0.704189
C68	C	1.093702	-0.511388	-1.054574
N69	N	1.040958	-0.560415	-1.093235
H70	H	0.598272	-0.436905	-0.446132
H71	H	0.739913	-0.480091	-0.398881
