data_functionalizedCrystal
_audit_creation_method	'MofGen! by Chris Wilmer'
_symmetry_space_group_name_H-M	'P1'
_symmetry_Int_Tables_number	1
_symmetry_cell_setting	triclinic
loop_
_symmetry_equiv_pos_as_xyz
  x,y,z
_cell_length_a	16.109302
_cell_length_b	16.109304
_cell_length_c	15.186229
_cell_angle_alpha	89.999066
_cell_angle_beta	89.994701
_cell_angle_gamma	83.462209
loop_
_atom_site_label
_atom_site_type_symbol
_atom_site_fract_x
_atom_site_fract_y
_atom_site_fract_z
O1	O	1.103131	0.106869	-0.073263
O2	O	1.603131	0.606869	0.426737
O3	O	0.861070	0.120167	-0.073255
O4	O	1.361070	0.620167	0.426745
O5	O	0.988749	-0.007513	-0.073259
O6	O	1.488749	0.492487	0.426741
O7	O	0.975452	0.234549	-0.073258
O8	O	1.475452	0.734549	0.426742
O9	O	0.988740	-0.007514	0.073198
O10	O	1.488740	0.492486	0.573198
O11	O	0.861061	0.120166	0.073202
O12	O	1.361061	0.620166	0.573202
O13	O	1.103123	0.106867	0.073195
O14	O	1.603123	0.606867	0.573195
Zn15	Zn	0.982091	0.113516	0.096452
Zn16	Zn	1.482091	0.613516	0.596452
Zn17	Zn	0.982102	0.113518	-0.096512
Zn18	Zn	1.482102	0.613518	0.403488
O19	O	0.975444	0.234547	0.073199
O20	O	1.475444	0.734547	0.573199
C21	C	0.830090	0.119628	-0.000025
C22	C	1.330090	0.619628	0.499975
C23	C	0.737795	0.118012	-0.000023
C24	C	1.237795	0.618012	0.499977
C25	C	0.525450	0.114276	0.079802
C26	C	1.025450	0.614276	0.579802
C27	C	0.438729	0.112750	0.079799
C28	C	0.938729	0.612750	0.579799
C29	C	0.438749	0.112756	-0.079876
C30	C	0.938749	0.612756	0.420124
C31	C	0.525468	0.114277	-0.079872
C32	C	1.025468	0.614277	0.420128
C33	C	0.568816	0.115041	-0.000030
C34	C	1.068816	0.615041	0.499970
C35	C	0.395377	0.111994	-0.000038
C36	C	0.895377	0.611994	0.499962
C37	C	0.301351	0.110338	-0.000041
C38	C	0.801351	0.610338	0.499959
C39	C	0.662848	0.116695	-0.000026
C40	C	1.162848	0.616695	0.499974
C41	C	0.988206	-0.038488	-0.000033
C42	C	1.488206	0.461512	0.499967
C43	C	0.986590	-0.130784	-0.000039
C44	C	1.486590	0.369216	0.499961
C45	C	0.982861	-0.343120	-0.079869
C46	C	1.482861	0.156880	0.420131
C47	C	0.981334	-0.429840	-0.079868
C48	C	1.481334	0.070160	0.420132
C49	C	0.981329	-0.429839	0.079807
C50	C	1.481329	0.070161	0.579807
C51	C	0.982849	-0.343120	0.079806
C52	C	1.482849	0.156880	0.579806
C53	C	0.983619	-0.299763	-0.000035
C54	C	1.483619	0.200237	0.499965
C55	C	0.980573	-0.473202	-0.000033
C56	C	1.480573	0.026798	0.499967
C57	C	0.978918	-0.567228	-0.000031
C58	C	1.478918	-0.067228	0.499969
C59	C	0.985272	-0.205731	-0.000037
C60	C	1.485272	0.294269	0.499963
C61	C	1.134102	0.107407	-0.000037
C62	C	1.634102	0.607407	0.499963
C63	C	1.226397	0.109022	-0.000045
C64	C	1.726397	0.609022	0.499955
C65	C	0.975987	0.265523	-0.000029
C66	C	1.475987	0.765523	0.499971
C67	C	0.977603	0.357818	-0.000029
C68	C	1.477603	0.857818	0.499971
N69	N	0.982089	0.113514	0.228144
N70	N	1.482089	0.613514	0.728144
N71	N	0.982110	0.113514	-0.228205
N72	N	1.482110	0.613514	0.271795
C73	C	1.038645	0.056996	0.453865
C74	C	1.538645	0.556996	0.953865
C75	C	1.038647	0.056994	0.546055
C76	C	1.538647	0.556994	1.046055
C77	C	0.925548	0.170034	0.546068
C78	C	1.425548	0.670034	1.046068
C79	C	0.925542	0.170032	0.453880
C80	C	1.425542	0.670032	0.953880
C81	C	0.982095	0.113514	0.407781
C82	C	1.482095	0.613514	0.907781
C83	C	0.982104	0.113514	0.592159
C84	C	1.482104	0.613514	1.092159
C85	C	0.982106	0.113513	0.692115
C86	C	1.482106	0.613513	1.192115
C87	C	0.982092	0.113514	0.307819
C88	C	1.482092	0.613514	0.807819
H89	H	0.403445	0.112134	-0.144881
H90	H	0.903445	0.612134	0.355119
H91	H	0.560779	0.114897	-0.144886
H92	H	1.060779	0.614897	0.355114
C93	C	0.980486	-0.477540	0.167628
C94	C	1.480486	0.022460	0.667628
N95	N	0.979852	-0.513468	0.233776
N96	N	1.479852	-0.013468	0.733776
C97	C	0.863342	0.232199	0.596785
C98	C	1.363342	0.732199	1.096785
N99	N	0.816487	0.279023	0.634985
N100	N	1.316487	0.779023	1.134985
H101	H	0.560740	0.114899	0.144815
H102	H	1.060740	0.614899	0.644815
C103	C	1.100848	-0.005182	0.403160
C104	C	1.600848	0.494818	0.903160
N105	N	1.147698	-0.052019	0.364971
N106	N	1.647698	0.447981	0.864971
H107	H	0.980715	-0.465137	-0.144877
H108	H	1.480715	0.034863	0.355123
H109	H	0.983485	-0.307821	-0.144881
H110	H	1.483485	0.192179	0.355119
C111	C	0.983683	-0.295424	0.167634
C112	C	1.483683	0.204576	0.667634
N113	N	0.984309	-0.259500	0.233783
N114	N	1.484309	0.240500	0.733783
C115	C	1.100850	-0.005186	0.596743
C116	C	1.600850	0.494814	1.096743
N117	N	1.147700	-0.052026	0.634921
N118	N	1.647700	0.447974	1.134921
H119	H	0.403424	0.112127	0.144807
H120	H	0.903424	0.612127	0.644807
C121	C	0.863368	0.232246	0.403184
C122	C	1.363368	0.732246	0.903184
N123	N	0.816553	0.279117	0.365000
N124	N	1.316553	0.779117	0.865000
