data_functionalizedCrystal
_audit_creation_method	'MofGen! by Chris Wilmer'
_symmetry_space_group_name_H-M	'P1'
_symmetry_Int_Tables_number	1
_symmetry_cell_setting	triclinic
loop_
_symmetry_equiv_pos_as_xyz
  x,y,z
_cell_length_a	17.038272
_cell_length_b	13.448316
_cell_length_c	14.971486
_cell_angle_alpha	89.993189
_cell_angle_beta	87.362843
_cell_angle_gamma	89.999047
loop_
_atom_site_label
_atom_site_type_symbol
_atom_site_fract_x
_atom_site_fract_y
_atom_site_fract_z
O1	O	1.037595	-0.082569	0.194251
O2	O	0.809961	-0.082598	0.191166
O3	O	0.929879	-0.082575	0.062965
O4	O	0.917677	-0.082591	0.322452
O5	O	0.929864	0.082808	0.062955
O6	O	0.809946	0.082786	0.191157
O7	O	1.037580	0.082815	0.194241
Cu8	Cu	0.923762	0.097901	0.192698
Cu9	Cu	0.923779	-0.097684	0.192709
O10	O	0.917662	0.082793	0.322442
C11	C	0.780822	0.000090	0.188356
C12	C	0.694019	0.000079	0.179986
N13	N	0.923755	0.235466	0.192690
N14	N	0.923793	-0.235248	0.192711
C15	C	0.643995	0.000076	0.256830
C16	C	0.562435	0.000090	0.248961
C17	C	0.530901	0.000101	0.164246
C18	C	0.580933	0.000108	0.087397
C19	C	0.662491	0.000101	0.095267
C20	C	0.285111	0.000129	0.136442
C21	C	0.203547	0.000133	0.128577
C22	C	0.185054	0.000117	0.290142
C23	C	0.266615	0.000104	0.298005
C24	C	0.316639	0.000116	0.221155
C25	C	0.447535	0.000112	0.156200
C26	C	0.400004	0.000112	0.229202
C27	C	1.066719	0.000125	0.197051
C28	C	1.153522	0.000129	0.205421
C29	C	0.929326	0.000116	0.029595
C30	C	0.927691	0.000115	-0.069825
C31	C	0.976871	0.287516	0.135949
C32	C	0.976876	0.391619	0.135948
C33	C	0.923768	0.443670	0.192694
C34	C	0.870646	0.391613	0.249438
C35	C	0.870638	0.287511	0.249433
C36	C	0.870667	0.608593	0.249446
C37	C	0.870676	0.712701	0.249452
C38	C	0.976906	0.712701	0.135961
C39	C	0.976898	0.608599	0.135956
C40	C	0.923777	0.556549	0.192701
C41	C	0.998140	0.000125	-0.121776
C42	C	0.996598	0.000115	-0.215190
C43	C	0.924607	0.000102	-0.256653
C44	C	0.854153	0.000089	-0.204695
C45	C	0.855695	0.000092	-0.111282
C46	C	0.850944	0.000085	-0.399398
C47	C	0.849402	0.000084	-0.492817
C48	C	0.991847	0.000108	-0.503306
C49	C	0.993389	0.000111	-0.409893
C50	C	0.922935	0.000100	-0.357942
C51	C	0.918215	0.000099	0.355812
C52	C	0.919850	0.000094	0.455232
H53	H	0.669662	0.000066	0.325813
C54	C	0.546243	0.000121	-0.005790
N55	N	0.520116	0.000128	-0.075980
C56	C	1.035320	0.551345	0.073533
N57	N	1.079322	0.508222	0.026511
C58	C	0.812223	0.551340	0.311859
N59	N	0.768203	0.508217	0.358867
H60	H	1.053965	0.000125	-0.257485
C61	C	1.035337	0.769958	0.073537
N62	N	1.079347	0.813089	0.026523
H63	H	0.703221	0.000103	0.032692
C64	C	0.434694	0.000100	0.322385
N65	N	0.460829	0.000086	0.392571
H66	H	0.795537	0.000072	-0.238461
H67	H	0.421851	0.000149	0.087226
H68	H	0.292283	0.000084	0.366988
H69	H	0.798329	0.000084	-0.068984
H70	H	0.521707	0.000085	0.311535
C71	C	0.770208	0.000057	-0.538424
N72	N	0.710558	0.000033	-0.572775
C73	C	1.072583	0.000129	-0.364287
N74	N	1.132232	0.000141	-0.329936
H75	H	0.144317	0.000109	0.352708
H76	H	0.827384	0.245133	0.295636
H77	H	1.020127	0.433998	0.089745
C78	C	0.168863	0.000144	0.035381
N79	N	0.142738	0.000150	-0.034811
C80	C	0.340127	0.000136	0.051904
N81	N	0.381569	0.000140	-0.011775
H82	H	1.020121	0.245143	0.089743
H83	H	0.827429	0.755076	0.295659
H84	H	0.827400	0.433999	0.295638
H85	H	1.056763	0.000141	-0.088024
H86	H	0.793572	0.000074	-0.357101
H87	H	1.049214	0.000113	-0.545610
