data_functionalizedCrystal
_audit_creation_method	'MofGen! by Chris Wilmer'
_symmetry_space_group_name_H-M	'P1'
_symmetry_Int_Tables_number	1
_symmetry_cell_setting	triclinic
loop_
_symmetry_equiv_pos_as_xyz
  x,y,z
_cell_length_a	17.699077
_cell_length_b	23.532407
_cell_length_c	16.776229
_cell_angle_alpha	89.998549
_cell_angle_beta	90.003019
_cell_angle_gamma	83.064627
loop_
_atom_site_label
_atom_site_type_symbol
_atom_site_fract_x
_atom_site_fract_y
_atom_site_fract_z
O1	O	1.003714	0.071993	0.066286
O2	O	0.783287	0.081367	0.066291
O3	O	0.900147	-0.006233	0.066274
O4	O	0.886853	0.159593	0.066303
O5	O	0.900137	-0.006217	-0.066303
O6	O	0.783276	0.081382	-0.066286
O7	O	1.003703	0.072009	-0.066291
Zn8	Zn	0.893488	0.076698	-0.087338
Zn9	Zn	0.893502	0.076678	0.087338
O10	O	0.886843	0.159608	-0.066273
C11	C	0.755086	0.081039	0.000003
C12	C	0.671073	0.080033	0.000004
C13	C	0.631602	0.079568	-0.072264
C14	C	0.552665	0.078613	-0.072265
C15	C	0.513198	0.078129	0.000003
C16	C	0.552675	0.078593	0.072277
C17	C	0.631612	0.079543	0.072277
C18	C	0.234331	0.074760	0.072278
C19	C	0.155388	0.073812	0.072272
C20	C	0.155384	0.073831	-0.072265
C21	C	0.234321	0.074781	-0.072264
C22	C	0.273791	0.075242	0.000009
C23	C	0.359384	0.076275	0.000009
C24	C	0.427606	0.077099	0.000004
C25	C	0.899803	-0.027442	-0.000017
C26	C	0.898786	-0.090662	-0.000023
C27	C	0.961557	-0.489586	0.000019
C28	C	0.960612	-0.548989	0.000025
O29	O	1.018802	-0.585567	0.000054
N30	N	0.891138	-0.571813	0.000026
C31	C	0.822606	-0.535231	0.000030
O32	O	0.763427	-0.560100	0.000032
C33	C	0.823552	-0.475830	0.000029
C34	C	0.893030	-0.453009	0.000020
C35	C	1.031029	-0.466764	0.000011
C36	C	1.031975	-0.407365	0.000004
C37	C	0.963448	-0.370788	0.000004
C38	C	0.893975	-0.393610	0.000012
C39	C	0.755021	-0.439249	0.000038
C40	C	0.755973	-0.379844	0.000038
C41	C	0.825451	-0.357023	0.000029
C42	C	0.826393	-0.297634	0.000006
N43	N	0.895867	-0.274809	0.000005
C44	C	0.964394	-0.311386	0.000004
C45	C	0.820624	-0.659980	0.000032
C46	C	0.819677	-0.719380	0.000026
C47	C	0.957683	-0.733133	0.000024
C48	C	0.958629	-0.673732	0.000023
C49	C	0.890097	-0.637155	0.000031
C50	C	0.966374	-0.186644	-0.000013
C51	C	0.967313	-0.127239	-0.000023
C52	C	0.829307	-0.113491	-0.000017
C53	C	0.828368	-0.172891	-0.000010
C54	C	0.896907	-0.209466	-0.000005
O55	O	0.768234	-0.261021	-0.000019
O56	O	1.023563	-0.286509	0.000012
C57	C	1.031904	0.072336	-0.000001
C58	C	1.115917	0.073342	0.000003
C59	C	0.887187	0.180817	0.000019
C60	C	0.888204	0.244037	0.000030
N61	N	0.893484	0.076711	-0.206549
C62	C	0.847870	0.042167	-0.751726
C63	C	0.847868	0.042172	-0.668274
C64	C	0.893505	0.076673	-0.626548
C65	C	0.939153	0.111167	-0.668279
C66	C	0.939159	0.111158	-0.751730
C67	C	0.939134	0.111200	-0.331732
C68	C	0.939123	0.111207	-0.248275
C69	C	0.847842	0.042214	-0.248276
C70	C	0.847848	0.042206	-0.331727
C71	C	0.893499	0.076697	-0.373450
C72	C	0.893501	0.076691	-0.463939
C73	C	0.893499	0.076683	-0.536061
N74	N	0.893512	0.076660	0.206549
H75	H	0.266459	0.075134	0.131127
H76	H	1.023892	-0.108662	-0.000033
C77	C	0.988816	0.148509	-0.797077
C78	C	1.040346	0.113920	-0.844955
C79	C	1.086113	0.148305	-0.886731
H80	H	0.957694	0.174754	-0.829707
H81	H	1.016040	0.169047	-0.760302
H82	H	1.013124	0.093392	-0.881726
H83	H	1.071484	0.087676	-0.812344
H84	H	1.113338	0.168842	-0.849956
H85	H	1.054986	0.174548	-0.919357
H86	H	1.121087	0.124841	-0.919215
C87	C	0.674327	0.080081	0.150824
C88	C	0.622868	0.079470	0.214115
C89	C	0.662187	0.079971	0.286486
H90	H	0.711147	0.047263	0.153938
H91	H	0.699077	0.113662	0.153876
H92	H	0.598131	0.045892	0.211064
H93	H	0.586047	0.112285	0.211028
H94	H	0.686937	0.113552	0.289538
H95	H	0.699006	0.047152	0.289591
H96	H	0.627278	0.079562	0.329437
C97	C	0.277281	0.075216	-0.150670
C98	C	0.331498	0.026791	-0.154887
C99	C	0.371093	0.027174	-0.227099
H100	H	0.242559	0.074772	-0.193778
H101	H	0.302098	0.108768	-0.153677
H102	H	0.306682	-0.006752	-0.151887
H103	H	0.366236	0.027225	-0.111796
H104	H	0.395910	0.060725	-0.230106
H105	H	0.336365	0.026731	-0.270201
H106	H	0.407888	-0.005679	-0.229967
C107	C	1.040868	-0.226254	-0.000052
C108	C	1.101904	-0.193543	-0.000083
C109	C	1.170538	-0.230011	-0.000135
H110	H	1.043489	-0.249725	0.046169
H111	H	1.043408	-0.249705	-0.046302
H112	H	1.099365	-0.170102	0.046162
H113	H	1.099308	-0.170072	-0.046300
H114	H	1.173078	-0.253462	-0.046385
H115	H	1.173151	-0.253481	0.046087
H116	H	1.211959	-0.207822	-0.000163
H117	H	0.663729	0.079967	-0.131113
H118	H	0.520533	0.078225	-0.131113
C119	C	1.107356	-0.382516	0.000131
C120	C	1.111930	-0.348807	0.068329
C121	C	1.181360	-0.325907	0.068472
H122	H	1.148090	-0.412756	0.000175
H123	H	1.110608	-0.359597	-0.046077
H124	H	1.108686	-0.371725	0.114525
H125	H	1.071212	-0.318558	0.068299
H126	H	1.184612	-0.302988	0.022264
H127	H	1.222089	-0.356151	0.068514
H128	H	1.184470	-0.303029	0.114739
C129	C	0.509687	0.078094	0.150658
C130	C	0.432106	0.077179	0.135193
C131	C	0.392482	0.076729	0.207379
H132	H	0.528556	0.045056	0.180406
H133	H	0.516557	0.111457	0.180365
H134	H	0.425241	0.043820	0.105498
H135	H	0.413215	0.110214	0.105457
H136	H	0.399352	0.110091	0.237086
H137	H	0.411358	0.043690	0.237122
H138	H	0.339839	0.076113	0.196896
H139	H	1.086836	-0.496540	0.000014
H140	H	0.123238	0.073453	-0.131113
H141	H	0.976305	0.139286	-0.365693
H142	H	0.810682	0.014114	-0.365696
H143	H	0.976316	0.139255	-0.634299
C144	C	1.034007	-0.648878	0.000146
C145	C	1.038583	-0.615170	0.068345
C146	C	1.108008	-0.592264	0.068482
H147	H	1.074746	-0.679115	0.000185
H148	H	1.037252	-0.625957	-0.046061
H149	H	1.035346	-0.638090	0.114541
H150	H	0.997861	-0.584925	0.068321
H151	H	1.111253	-0.569343	0.022275
H152	H	1.148741	-0.622504	0.068519
H153	H	1.111119	-0.569386	0.114751
C154	C	1.032109	-0.772827	-0.000132
C155	C	1.073963	-0.762546	-0.068350
C156	C	1.142518	-0.799106	-0.068526
H157	H	1.060709	-0.765953	0.046046
H158	H	1.021620	-0.811479	-0.000171
H159	H	1.084454	-0.723902	-0.068304
H160	H	1.045386	-0.769423	-0.114539
H161	H	1.132029	-0.837759	-0.068564
H162	H	1.171111	-0.792230	-0.022344
H163	H	1.170921	-0.792140	-0.114814
C164	C	0.754934	-0.073743	0.000152
C165	C	0.751458	-0.039251	0.068370
C166	C	0.682952	-0.002632	0.068564
H167	H	0.752357	-0.050229	-0.046026
H168	H	0.713394	-0.095818	0.000201
H169	H	0.792986	-0.017179	0.068313
H170	H	0.754022	-0.062749	0.114559
H171	H	0.641413	-0.024706	0.068614
H172	H	0.680381	0.020878	0.022383
H173	H	0.680582	0.020771	0.114852
H174	H	0.771793	-0.191472	-0.000025
C175	C	0.744165	-0.744043	0.000068
C176	C	0.684360	-0.699289	0.000086
C177	C	0.614786	-0.721984	0.000140
H178	H	0.740811	-0.766922	-0.046149
H179	H	0.740887	-0.766911	0.046322
H180	H	0.687637	-0.676431	-0.046164
H181	H	0.687689	-0.676406	0.046299
H182	H	0.611507	-0.744852	0.046394
H183	H	0.611440	-0.744863	-0.046078
H184	H	0.574200	-0.691622	0.000160
C185	C	0.746235	-0.620242	0.000191
C186	C	0.742733	-0.585748	0.068408
C187	C	0.674214	-0.549144	0.068588
H188	H	0.743656	-0.596730	-0.045988
H189	H	0.704707	-0.642328	0.000234
H190	H	0.784249	-0.563664	0.068358
H191	H	0.745299	-0.609245	0.114598
H192	H	0.632686	-0.571230	0.068631
H193	H	0.671640	-0.525636	0.022406
H194	H	0.671825	-0.525739	0.114876
H195	H	0.123257	0.073417	0.131125
H196	H	0.810702	0.014076	-0.785693
C197	C	0.679507	-0.463905	0.000093
C198	C	0.619707	-0.419148	0.000119
C199	C	0.550129	-0.441837	0.000182
H200	H	0.676145	-0.486783	-0.046124
H201	H	0.676232	-0.486773	0.046347
H202	H	0.622981	-0.396289	-0.046130
H203	H	0.623044	-0.396266	0.046333
H204	H	0.546854	-0.464705	0.046436
H205	H	0.546775	-0.464715	-0.046035
H206	H	0.509547	-0.411473	0.000208
H207	H	0.700165	-0.350065	0.000045
H208	H	0.810703	0.014083	-0.634305
H209	H	0.810674	0.014128	-0.214295
C210	C	0.988761	0.148682	-0.203115
C211	C	1.028759	0.178875	-0.257515
C212	C	1.074496	0.213395	-0.215943
H213	H	0.957628	0.174974	-0.170569
H214	H	1.023802	0.125321	-0.170567
H215	H	0.993722	0.202234	-0.290049
H216	H	1.059907	0.152597	-0.290064
H217	H	1.109537	0.190033	-0.183395
H218	H	1.043357	0.239683	-0.183398
H219	H	1.101645	0.233880	-0.252847
