data_functionalizedCrystal
_audit_creation_method	'MofGen! by Chris Wilmer'
_symmetry_space_group_name_H-M	'P1'
_symmetry_Int_Tables_number	1
_symmetry_cell_setting	triclinic
loop_
_symmetry_equiv_pos_as_xyz
  x,y,z
_cell_length_a	19.805407
_cell_length_b	19.805405
_cell_length_c	19.805399
_cell_angle_alpha	90.028055
_cell_angle_beta	90.021725
_cell_angle_gamma	90.034402
loop_
_atom_site_label
_atom_site_type_symbol
_atom_site_fract_x
_atom_site_fract_y
_atom_site_fract_z
Zn1	Zn	-1.034704	0.269457	-0.382756
Zn2	Zn	-0.534704	0.769457	0.117244
Zn3	Zn	-1.034605	0.382645	-0.269567
Zn4	Zn	-0.534605	0.882645	0.230433
Zn5	Zn	-0.921519	0.269478	-0.269577
Zn6	Zn	-0.421519	0.769478	0.230423
Zn7	Zn	-0.921469	0.382612	-0.382710
Zn8	Zn	-0.421469	0.882612	0.117290
O9	O	-0.978074	0.326048	-0.326152
O10	O	-0.478074	0.826048	0.173848
O11	O	-1.129407	0.284477	-0.367757
O12	O	-0.629407	0.784477	0.132243
O13	O	-1.019584	0.367656	-0.174852
O14	O	-0.519584	0.867656	0.325148
O15	O	-0.936595	0.174758	-0.284614
O16	O	-0.436595	0.674758	0.215386
O17	O	-1.129335	0.367636	-0.284597
O18	O	-0.629335	0.867636	0.215403
O19	O	-1.019752	0.174743	-0.367766
O20	O	-0.519752	0.674743	0.132234
O21	O	-0.936499	0.284513	-0.174859
O22	O	-0.436499	0.784513	0.325141
O23	O	-0.826795	0.284480	-0.284568
O24	O	-0.326795	0.784480	0.215432
O25	O	-0.936510	0.367578	-0.477432
O26	O	-0.436510	0.867578	0.022568
O27	O	-0.826759	0.367599	-0.367687
O28	O	-0.326759	0.867599	0.132313
O29	O	-1.019703	0.284444	-0.477467
O30	O	-0.519703	0.784444	0.022533
O31	O	-1.019535	0.477357	-0.284552
O32	O	-0.519535	0.977357	0.215448
O33	O	-0.936414	0.477333	-0.367677
O34	O	-0.436414	0.977333	0.132323
C35	C	-0.802218	0.326039	-0.326124
C36	C	-0.302218	0.826039	0.173876
C37	C	-0.726986	0.326051	-0.326128
C38	C	-0.226986	0.826051	0.173872
C39	C	-0.265236	0.282819	-0.369530
C40	C	0.234764	0.782819	0.130470
C41	C	-0.335925	0.282821	-0.369526
C42	C	0.164075	0.782821	0.130474
C43	C	-0.371224	0.326051	-0.326160
C44	C	0.128776	0.826051	0.173840
C45	C	-0.335832	0.369285	-0.282799
C46	C	0.164168	0.869285	0.217201
C47	C	-0.265145	0.369286	-0.282807
C48	C	0.234855	0.869286	0.217193
C49	C	-0.620905	0.369284	-0.282770
C50	C	-0.120905	0.869284	0.217230
C51	C	-0.691597	0.369278	-0.282765
C52	C	-0.191597	0.869278	0.217235
C53	C	-0.691685	0.282819	-0.369490
C54	C	-0.191685	0.782819	0.130510
C55	C	-0.620998	0.282819	-0.369497
C56	C	-0.120998	0.782819	0.130503
C57	C	-0.585612	0.326057	-0.326139
C58	C	-0.085612	0.826057	0.173861
C59	C	-0.508963	0.326055	-0.326144
C60	C	-0.008963	0.826055	0.173856
C61	C	-0.447872	0.326049	-0.326151
C62	C	0.052128	0.826049	0.173849
C63	C	-0.977977	0.501904	-0.326123
C64	C	-0.477977	1.001904	0.173877
C65	C	-0.977998	0.577136	-0.326134
C66	C	-0.477998	1.077136	0.173866
C67	C	-0.154617	0.326054	-0.326176
C68	C	0.345383	0.826054	0.173824
C69	C	-0.229849	0.326049	-0.326171
C70	C	0.270151	0.826049	0.173829
C71	C	-1.021268	0.612414	-0.369464
C72	C	-0.521268	1.112414	0.130536
C73	C	-1.021284	0.683102	-0.369475
C74	C	-0.521284	1.183102	0.130525
C75	C	-0.978034	0.718511	-0.326151
C76	C	-0.478034	1.218511	0.173849
C77	C	-0.934759	0.683229	-0.282819
C78	C	-0.434759	1.183229	0.217181
C79	C	-0.934739	0.612541	-0.282812
C80	C	-0.434739	1.112541	0.217188
C81	C	-0.934835	0.968302	-0.282846
C82	C	-0.434835	1.468302	0.217154
C83	C	-0.934859	1.038994	-0.282855
C84	C	-0.434859	1.538994	0.217145
C85	C	-1.021380	1.038862	-0.369510
C86	C	-0.521380	1.538862	0.130490
C87	C	-1.021361	0.968175	-0.369503
C88	C	-0.521361	1.468175	0.130497
C89	C	-0.978084	0.932899	-0.326173
C90	C	-0.478084	1.432899	0.173827
C91	C	-0.978066	0.856250	-0.326163
C92	C	-0.478066	1.356250	0.173837
C93	C	-0.978055	0.795158	-0.326158
C94	C	-0.478055	1.295158	0.173842
C95	C	-0.978112	0.326005	-0.502695
C96	C	-0.478112	0.826005	-0.002695
C97	C	-0.978128	0.325987	-0.577927
C98	C	-0.478128	0.825987	-0.077927
C99	C	-0.978162	1.149505	-0.326190
C100	C	-0.478162	1.649505	0.173810
C101	C	-0.978127	1.074273	-0.326190
C102	C	-0.478127	1.574273	0.173810
C103	C	-1.021448	0.282697	-0.613290
C104	C	-0.521448	0.782697	-0.113290
C105	C	-1.021455	0.282677	-0.683979
C106	C	-0.521455	0.782677	-0.183979
C107	C	-0.978145	0.325952	-0.719303
C108	C	-0.478145	0.825952	-0.219303
C109	C	-0.934821	0.369244	-0.683935
C110	C	-0.434821	0.869244	-0.183935
C111	C	-0.934811	0.369259	-0.613248
C112	C	-0.434811	0.869259	-0.113248
C113	C	-0.934859	0.369181	-0.969008
C114	C	-0.434859	0.869181	-0.469008
C115	C	-0.934873	0.369163	-1.039700
C116	C	-0.434873	0.869163	-0.539700
C117	C	-1.021503	0.282598	-1.039739
C118	C	-0.521503	0.782598	-0.539739
C119	C	-1.021493	0.282614	-0.969052
C120	C	-0.521493	0.782614	-0.469052
C121	C	-0.978166	0.325903	-0.933690
C122	C	-0.478166	0.825903	-0.433690
C123	C	-0.978159	0.325923	-0.857042
C124	C	-0.478159	0.825923	-0.357042
C125	C	-0.978156	0.325936	-0.795950
C126	C	-0.478156	0.825936	-0.295950
C127	C	-0.978075	0.326041	-0.150296
C128	C	-0.478075	0.826041	0.349704
C129	C	-0.978190	0.325869	-0.075065
C130	C	-0.478190	0.825869	0.424935
H131	H	-0.720336	0.404484	-0.247450
H132	H	-0.220336	0.904484	0.252550
H133	H	-1.056779	0.247348	-1.068540
H134	H	-0.556779	0.747348	-0.568540
H135	H	-0.592102	0.404488	-0.247463
H136	H	-0.092102	0.904488	0.252537
H137	H	-1.056763	0.247378	-0.940295
H138	H	-0.556763	0.747378	-0.440295
H139	H	-1.056524	0.711822	-0.404754
H140	H	-0.556524	1.211822	0.095246
O141	O	-0.892732	0.411221	-1.073911
O142	O	-0.392732	0.911221	-0.573911
C143	C	-0.854499	0.449444	-1.027543
C144	C	-0.354499	0.949444	-0.527543
H145	H	-0.852165	0.421733	-0.977160
H146	H	-0.352165	0.921733	-0.477160
H147	H	-0.879244	0.500855	-1.020017
H148	H	-0.379244	1.000855	-0.520017
C149	C	-0.785328	0.493216	-1.116998
C150	C	-0.285328	0.993216	-0.616998
C151	C	-0.782456	0.459178	-1.055119
C152	C	-0.282456	0.959178	-0.555119
H153	H	-0.740889	0.499223	-1.134008
H154	H	-0.240889	0.999223	-0.634008
H155	H	-0.811087	0.467466	-1.148237
H156	H	-0.311087	0.967466	-0.648237
H157	H	-0.805952	0.536055	-1.110718
H158	H	-0.305952	1.036055	-0.610718
H159	H	-0.761840	0.416337	-1.061401
H160	H	-0.261840	0.916337	-0.561401
H161	H	-0.756691	0.484920	-1.023881
H162	H	-0.256691	0.984920	-0.523881
O163	O	-0.586740	0.240899	-0.411721
O164	O	-0.086740	0.740899	0.088279
C165	C	-0.604050	0.255771	-0.479150
C166	C	-0.104050	0.755771	0.020850
H167	H	-0.623453	0.309847	-0.482466
H168	H	-0.123453	0.809847	0.017534
H169	H	-0.645110	0.219505	-0.496905
H170	H	-0.145110	0.719505	0.003095
C171	C	-0.517452	0.181540	-0.520271
C172	C	-0.017452	0.681540	-0.020271
C173	C	-0.541278	0.247959	-0.524345
C174	C	-0.041278	0.747959	-0.024345
H175	H	-0.478732	0.176719	-0.548151
H176	H	0.021268	0.676719	-0.048151
H177	H	-0.505791	0.171519	-0.474843
H178	H	-0.005791	0.671519	0.025157
H179	H	-0.551674	0.151326	-0.535066
H180	H	-0.051674	0.651326	-0.035066
H181	H	-0.507058	0.278171	-0.509543
H182	H	-0.007058	0.778171	-0.009543
H183	H	-0.552931	0.257986	-0.569772
H184	H	-0.052931	0.757986	-0.069772
H185	H	-0.364579	0.404486	-0.247493
H186	H	0.135421	0.904486	0.252507
O187	O	-0.230693	0.411185	-0.240653
O188	O	0.269307	0.911185	0.259347
C189	C	-0.189817	0.372596	-0.196998
C190	C	0.310183	0.872596	0.303002
H191	H	-0.179268	0.321332	-0.220961
H192	H	0.320732	0.821332	0.279039
H193	H	-0.217039	0.365095	-0.146849
H194	H	0.282961	0.865095	0.353151
C195	C	-0.135601	0.472786	-0.155255
C196	C	0.364399	0.972786	0.344745
C197	C	-0.122640	0.409825	-0.184689
C198	C	0.377360	0.909825	0.315311
H199	H	-0.094164	0.495752	-0.147659
H200	H	0.405836	0.995752	0.352341
H201	H	-0.163141	0.498785	-0.184664
H202	H	0.336859	0.998785	0.315336
H203	H	-0.158287	0.466526	-0.113467
H204	H	0.341713	0.966526	0.386533
H205	H	-0.099962	0.416086	-0.226480
H206	H	0.400038	0.916086	0.273520
H207	H	-0.095094	0.383828	-0.155286
H208	H	0.404906	0.883828	0.344714
H209	H	-0.899599	0.939585	-0.247565
H210	H	-0.399599	1.439585	0.252435
H211	H	-1.056732	0.247427	-0.712768
H212	H	-0.556732	0.747427	-0.212768
O213	O	-0.230874	0.240920	-0.411690
O214	O	0.269126	0.740920	0.088310
C215	C	-0.189997	0.279514	-0.455352
C216	C	0.310003	0.779514	0.044648
H217	H	-0.179365	0.330776	-0.431387
H218	H	0.320635	0.830776	0.068613
H219	H	-0.217260	0.287018	-0.505494
H220	H	0.282740	0.787018	-0.005494
C221	C	-0.135939	0.179329	-0.497116
C222	C	0.364061	0.679329	0.002884
C223	C	-0.122875	0.242288	-0.467680
C224	C	0.377125	0.742288	0.032320
H225	H	-0.094536	0.156366	-0.504724
H226	H	0.405464	0.656366	-0.004724
H227	H	-0.163480	0.153327	-0.467702
H228	H	0.336520	0.653327	0.032298
H229	H	-0.158659	0.185591	-0.538898
H230	H	0.341341	0.685591	-0.038898
H231	H	-0.100163	0.236025	-0.425895
H232	H	0.399837	0.736025	0.074105
H233	H	-0.095329	0.268289	-0.497087
H234	H	0.404671	0.768289	0.002913
O235	O	-1.063302	0.578125	-0.411615
O236	O	-0.563302	1.078125	0.088385
C237	C	-1.101507	0.624424	-0.449852
C238	C	-0.601507	1.124424	0.050148
H239	H	-1.073796	0.674835	-0.452169
H240	H	-0.573796	1.174835	0.047831
H241	H	-1.152931	0.631910	-0.425120
H242	H	-0.652931	1.131910	0.074880
C243	C	-1.145242	0.534872	-0.519051
C244	C	-0.645242	1.034872	-0.019051
C245	C	-1.111203	0.596786	-0.521902
C246	C	-0.611203	1.096786	-0.021902
H247	H	-1.151226	0.517823	-0.563495
H248	H	-0.651226	1.017823	-0.063495
H249	H	-1.119505	0.503679	-0.493289
H250	H	-0.619505	1.003679	0.006711
H251	H	-1.188091	0.541119	-0.498438
H252	H	-0.688091	1.041119	0.001562
H253	H	-1.068351	0.590537	-0.542507
H254	H	-0.568351	1.090537	-0.042507
H255	H	-1.136933	0.627978	-0.547670
H256	H	-0.636933	1.127978	-0.047670
H257	H	-0.899528	0.404504	-0.584456
H258	H	-0.399528	0.904504	-0.084456
O259	O	-0.370195	0.240758	-0.411662
O260	O	0.129805	0.740758	0.088338
C261	C	-0.323881	0.202611	-0.449946
C262	C	0.176119	0.702611	0.050054
H263	H	-0.273481	0.200237	-0.422231
H264	H	0.226519	0.700237	0.077769
H265	H	-0.316373	0.227456	-0.501312
H266	H	0.183627	0.727456	-0.001312
C267	C	-0.413416	0.133499	-0.493858
C268	C	0.086584	0.633499	0.006142
C269	C	-0.351515	0.130579	-0.459815
C270	C	0.148485	0.630579	0.040185
H271	H	-0.430463	0.089067	-0.499948
H272	H	0.069537	0.589067	0.000052
H273	H	-0.444619	0.159201	-0.468067
H274	H	0.055381	0.659201	0.031933
H275	H	-0.407151	0.154207	-0.536659
H276	H	0.092849	0.654207	-0.036659
H277	H	-0.357783	0.109879	-0.417012
H278	H	0.142217	0.609879	0.082988
H279	H	-0.320314	0.104871	-0.485598
H280	H	0.179686	0.604871	0.014402
O281	O	-0.892804	1.073465	-0.240867
O282	O	-0.392804	1.573465	0.259133
C283	C	-0.849073	1.114357	-0.279372
C284	C	-0.349073	1.614357	0.220628
H285	H	-0.872925	1.124893	-0.330687
H286	H	-0.372925	1.624893	0.169313
H287	H	-0.798901	1.087157	-0.286764
H288	H	-0.298901	1.587157	0.213236
C289	C	-0.807561	1.168598	-0.179104
C290	C	-0.307561	1.668598	0.320896
C291	C	-0.836859	1.181542	-0.242128
C292	C	-0.336859	1.681542	0.257872
H293	H	-0.800023	1.210039	-0.156130
H294	H	-0.300023	1.710039	0.343870
H295	H	-0.837021	1.141046	-0.153162
H296	H	-0.337021	1.641046	0.346838
H297	H	-0.765754	1.145929	-0.185273
H298	H	-0.265754	1.645929	0.314727
H299	H	-0.878668	1.204203	-0.235959
H300	H	-0.378668	1.704203	0.264041
H301	H	-0.807405	1.209099	-0.268069
H302	H	-0.307405	1.709099	0.231931
O303	O	-0.892647	0.717594	-0.240806
O304	O	-0.392647	1.217594	0.259194
C305	C	-0.825175	0.700361	-0.255520
C306	C	-0.325175	1.200361	0.244480
H307	H	-0.821719	0.680901	-0.309587
H308	H	-0.321719	1.180901	0.190413
H309	H	-0.807491	0.659367	-0.219211
H310	H	-0.307491	1.159367	0.280789
C311	C	-0.784271	0.787101	-0.181198
C312	C	-0.284271	1.287101	0.318802
C313	C	-0.780025	0.763205	-0.247607
C314	C	-0.280025	1.263205	0.252393
H315	H	-0.756420	0.825864	-0.176314
H316	H	-0.256420	1.325864	0.323686
H317	H	-0.829728	0.798709	-0.171283
H318	H	-0.329728	1.298709	0.328717
H319	H	-0.769536	0.752933	-0.150948
H320	H	-0.269536	1.252933	0.349052
H321	H	-0.794768	0.797369	-0.277855
H322	H	-0.294768	1.297369	0.222145
H323	H	-0.734569	0.751603	-0.257527
H324	H	-0.234569	1.251603	0.242473
O325	O	-0.892866	0.411268	-0.934596
O326	O	-0.392866	0.911268	-0.434596
C327	C	-0.931356	0.455014	-0.893715
C328	C	-0.431356	0.955014	-0.393715
H329	H	-0.982663	0.431152	-0.883129
H330	H	-0.482663	0.931152	-0.383129
H331	H	-0.938768	0.505164	-0.920951
H332	H	-0.438768	1.005164	-0.420951
C333	C	-0.831066	0.496599	-0.839570
C334	C	-0.331066	0.996599	-0.339570
C335	C	-0.894080	0.467288	-0.826563
C336	C	-0.394080	0.967288	-0.326563
H337	H	-0.808072	0.504173	-0.798149
H338	H	-0.308072	1.004173	-0.298149
H339	H	-0.805134	0.467128	-0.867114
H340	H	-0.305134	0.967128	-0.367114
H341	H	-0.837251	0.538387	-0.862269
H342	H	-0.337251	1.038387	-0.362269
H343	H	-0.887893	0.425496	-0.803873
H344	H	-0.387893	0.925496	-0.303873
H345	H	-0.920010	0.496752	-0.799014
H346	H	-0.420010	0.996752	-0.299014
H347	H	-1.056582	0.939347	-0.404778
H348	H	-0.556582	1.439347	0.095222
H349	H	-1.056616	1.067593	-0.404793
H350	H	-0.556616	1.567593	0.095207
H351	H	-0.720505	0.247615	-0.404796
H352	H	-0.220505	0.747615	0.095204
H353	H	-0.899503	0.583819	-0.247529
H354	H	-0.399503	1.083819	0.252471
H355	H	-1.056718	0.247460	-0.584535
H356	H	-0.556718	0.747460	-0.084535
H357	H	-0.899554	0.404476	-0.712701
H358	H	-0.399554	0.904476	-0.212701
