data_functionalizedCrystal
_audit_creation_method	'MofGen! by Chris Wilmer'
_symmetry_space_group_name_H-M	'P1'
_symmetry_Int_Tables_number	1
_symmetry_cell_setting	triclinic
loop_
_symmetry_equiv_pos_as_xyz
  x,y,z
_cell_length_a	8.597340
_cell_length_b	10.723024
_cell_length_c	7.681481
_cell_angle_alpha	84.204337
_cell_angle_beta	103.474906
_cell_angle_gamma	84.901851
loop_
_atom_site_label
_atom_site_type_symbol
_atom_site_fract_x
_atom_site_fract_y
_atom_site_fract_z
O1	O	2.101734	0.172565	0.172446
O2	O	1.637890	0.192447	0.102070
O3	O	1.880512	0.000857	0.138888
O4	O	1.859112	0.364155	0.135628
O5	O	1.910374	-0.022778	0.436278
O6	O	1.667752	0.168812	0.399459
O7	O	2.131596	0.148930	0.469836
Zn8	Zn	1.904415	0.155118	0.481865
Zn9	Zn	1.865071	0.186258	0.090041
O10	O	1.888974	0.340520	0.433018
C11	C	1.593429	0.179811	0.241753
C12	C	1.416458	0.177357	0.214902
C13	C	1.893886	-0.057450	0.287345
C14	C	1.889226	-0.195972	0.286631
C15	C	2.024983	-0.271870	0.307227
C16	C	2.020171	-0.415040	0.306490
C17	C	2.176057	0.161566	0.330149
C18	C	2.353027	0.164021	0.356988
C19	C	1.875600	0.398826	0.284557
C20	C	1.880259	0.537350	0.285259
N21	N	1.931279	0.133865	0.749275
N22	N	1.838220	0.207501	-0.177368
H23	H	1.335366	0.186898	0.072699
H24	H	1.764034	-0.397442	0.267639
O25	O	1.449937	0.152478	0.526547
C26	C	1.563929	0.045026	0.553289
H27	H	1.580172	0.020550	0.417114
H28	H	1.684014	0.065494	0.638915
H29	H	1.519782	-0.037851	0.625462
O30	O	2.044531	0.044040	0.855976
C31	C	2.012475	-0.075856	0.806237
H32	H	1.937472	-0.064943	0.660968
H33	H	2.130894	-0.136895	0.818064
H34	H	1.943140	-0.122683	0.899456
H35	H	2.144774	-0.230857	0.325413
H36	H	2.136390	-0.480257	0.324129
H37	H	1.769435	-0.236985	0.268445
O38	O	1.725083	0.297233	0.715573
C39	C	1.800632	0.382702	0.620410
H40	H	1.921960	0.335123	0.611358
H41	H	1.721213	0.412867	0.478657
H42	H	1.819813	0.469225	0.694260
