data_functionalizedCrystal
_audit_creation_method	'MofGen! by Chris Wilmer'
_symmetry_space_group_name_H-M	'P1'
_symmetry_Int_Tables_number	1
_symmetry_cell_setting	triclinic
loop_
_symmetry_equiv_pos_as_xyz
  x,y,z
_cell_length_a	10.868271
_cell_length_b	11.792241
_cell_length_c	11.792241
_cell_angle_alpha	84.193416
_cell_angle_beta	89.994719
_cell_angle_gamma	89.999893
loop_
_atom_site_label
_atom_site_type_symbol
_atom_site_fract_x
_atom_site_fract_y
_atom_site_fract_z
O1	O	0.102203	-1.506908	-0.155568
O2	O	0.602203	-1.006908	0.344432
O3	O	0.102232	-1.176567	-0.171601
O4	O	0.602232	-0.676567	0.328399
O5	O	0.102208	-1.349754	0.001586
O6	O	0.602208	-0.849754	0.501586
O7	O	0.102227	-1.333721	-0.328755
O8	O	0.602227	-0.833721	0.171245
O9	O	-0.102436	-1.349740	0.001592
O10	O	0.397564	-0.849740	0.501592
O11	O	-0.102413	-1.176553	-0.171595
O12	O	0.397587	-0.676553	0.328405
O13	O	-0.102441	-1.506894	-0.155562
O14	O	0.397559	-1.006894	0.344438
Zn15	Zn	-0.134919	-1.341721	-0.163577
Zn16	Zn	0.365081	-0.841721	0.336423
Zn17	Zn	0.134709	-1.341740	-0.163586
Zn18	Zn	0.634709	-0.841740	0.336414
O19	O	-0.102418	-1.333707	-0.328749
O20	O	0.397582	-0.833707	0.171251
C21	C	-0.000087	-1.134269	-0.170591
C22	C	0.499913	-0.634269	0.329409
C23	C	-0.000076	-1.008255	-0.167576
C24	C	0.499924	-0.508255	0.332424
N25	N	-0.318933	-1.341717	-0.163570
N26	N	0.181067	-0.841717	0.336430
C27	C	-0.000120	-1.549192	-0.156572
C28	C	0.499880	-1.049192	0.343428
C29	C	-0.000123	-1.675206	-0.159587
C30	C	0.499877	-1.175206	0.340413
C31	C	-0.569939	-1.341734	-0.163584
C32	C	-0.069939	-0.841734	0.336416
C33	C	-0.430261	-1.341721	-0.163580
C34	C	0.069739	-0.841721	0.336420
N35	N	0.318723	-1.341754	-0.163584
N36	N	0.818723	-0.841754	0.336416
C37	C	-0.000114	-1.348740	0.043880
C38	C	0.499886	-0.848740	0.543880
C39	C	-0.000112	-1.345726	0.169894
C40	C	0.499888	-0.845726	0.669894
C41	C	-0.000112	-0.777543	-0.162034
C42	C	0.499888	-0.277543	0.337966
C43	C	-0.000092	-0.905928	-0.165113
C44	C	0.499908	-0.405928	0.334887
C45	C	-0.000093	-1.334721	-0.371043
C46	C	0.499907	-0.834721	0.128957
C47	C	-0.000087	-1.337736	-0.497057
C48	C	0.499913	-0.837736	0.002943
C49	C	-0.000091	-1.340183	0.400606
C50	C	0.499909	-0.840183	0.900606
C51	C	-0.000102	-1.343262	0.272221
C52	C	0.499898	-0.843262	0.772221
