data_functionalizedCrystal
_audit_creation_method	'MofGen! by Chris Wilmer'
_symmetry_space_group_name_H-M	'P1'
_symmetry_Int_Tables_number	1
_symmetry_cell_setting	triclinic
loop_
_symmetry_equiv_pos_as_xyz
  x,y,z
_cell_length_a	12.645331
_cell_length_b	11.169416
_cell_length_c	12.645323
_cell_angle_alpha	89.977729
_cell_angle_beta	90.021793
_cell_angle_gamma	89.988939
loop_
_atom_site_label
_atom_site_type_symbol
_atom_site_fract_x
_atom_site_fract_y
_atom_site_fract_z
Zn1	Zn	1.620763	0.477807	0.599480
Zn2	Zn	1.620665	0.678528	0.422234
Zn3	Zn	1.443481	0.477854	0.422224
Zn4	Zn	1.443477	0.678443	0.599450
O5	O	1.532097	0.578158	0.510847
O6	O	1.769098	0.504449	0.575985
O7	O	1.597122	0.651964	0.273886
O8	O	1.467040	0.309898	0.445746
O9	O	1.769025	0.651918	0.445763
O10	O	1.597289	0.309864	0.575975
O11	O	1.466945	0.504530	0.273878
O12	O	1.295133	0.504447	0.445717
O13	O	1.467034	0.651773	0.747801
O14	O	1.295130	0.651819	0.575923
O15	O	1.597286	0.504366	0.747823
O16	O	1.597118	0.846467	0.445734
O17	O	1.466939	0.846404	0.575933
C18	C	1.256667	0.578130	0.510816
C19	C	1.138837	0.578146	0.510828
C20	C	1.532046	0.889983	0.510854
C21	C	1.532122	1.023383	0.510893
C22	C	0.971239	0.485008	0.429367
C23	C	1.093799	0.485249	0.429008
C24	C	1.094328	0.704578	0.480322
C25	C	0.971729	0.704069	0.479767
C26	C	0.971683	0.546056	0.623110
C27	C	1.094288	0.543232	0.622486
C28	C	1.808602	0.578188	0.510878
C29	C	1.926432	0.578200	0.510892
C30	C	1.532170	0.578055	0.787352
C31	C	1.532202	0.578011	0.905183
C32	C	1.532169	1.265116	0.510877
C33	C	1.532180	1.131716	0.510926
C34	C	1.532084	0.578175	0.235417
C35	C	1.532258	0.577881	0.117588
C36	C	1.450265	0.670725	0.950051
C37	C	1.449977	0.670376	1.072610
C38	C	1.502322	0.451325	1.073076
C39	C	1.501694	0.451937	0.950478
C40	C	1.644293	0.610718	0.950376
C41	C	1.643725	0.613433	1.072982
H42	H	1.123891	0.391495	0.448128
H43	H	1.123080	0.506495	0.345850
C44	C	0.931419	0.357967	0.454914
N45	N	0.901418	0.262276	0.474157
H46	H	1.468720	0.764886	0.920581
C47	C	1.726763	0.519500	0.911167
N48	N	1.788872	0.450793	0.881627
H49	H	0.940394	0.506019	0.346698
H50	H	0.942709	0.613933	0.683853
C51	C	1.135735	0.742033	0.370678
N52	N	1.166920	0.770237	0.288091
C53	C	1.135702	0.628248	0.708935
N54	N	1.166891	0.692295	0.774045
H55	H	1.468668	0.764207	1.102707
H56	H	1.558798	0.380476	0.920795
C57	C	1.133755	0.800896	0.558011
N58	N	1.163458	0.873442	0.616524
H59	H	1.367681	0.649308	0.919237
H60	H	0.943087	0.731328	0.397730
C61	C	1.730595	0.528843	1.114331
N62	N	1.796023	0.465118	1.145470
C63	C	1.392884	0.413240	1.114549
N64	N	1.310454	0.384560	1.145787
C65	C	0.931685	0.801054	0.556480
N66	N	0.901529	0.874106	0.614255
C67	C	1.580468	0.355387	1.112465
N68	N	1.639321	0.283125	1.142148
H69	H	1.366935	0.648660	1.101935
C70	C	1.391017	0.414559	0.911837
N71	N	1.307650	0.386408	0.882738
H72	H	0.940778	0.455471	0.650855
H73	H	1.123384	0.450192	0.645490
C74	C	1.681175	0.733332	0.908627
N75	N	1.708942	0.825691	0.877182
H76	H	1.666303	0.706573	1.102073
