data_functionalizedCrystal
_audit_creation_method	'MofGen! by Chris Wilmer'
_symmetry_space_group_name_H-M	'P1'
_symmetry_Int_Tables_number	1
_symmetry_cell_setting	triclinic
loop_
_symmetry_equiv_pos_as_xyz
  x,y,z
_cell_length_a	10.654541
_cell_length_b	17.699092
_cell_length_c	16.176319
_cell_angle_alpha	89.994879
_cell_angle_beta	89.993951
_cell_angle_gamma	83.885148
loop_
_atom_site_label
_atom_site_type_symbol
_atom_site_fract_x
_atom_site_fract_y
_atom_site_fract_z
O1	O	1.665993	0.106295	-0.068718
O2	O	1.300338	0.116425	-0.068725
O3	O	1.493491	0.001237	-0.068719
O4	O	1.472840	0.221484	-0.068723
O5	O	1.493464	0.001230	0.068774
O6	O	1.300311	0.116418	0.068768
O7	O	1.665967	0.106288	0.068775
Cu8	Cu	1.483137	0.111352	0.081326
Cu9	Cu	1.483168	0.111361	-0.081275
O10	O	1.472814	0.221476	0.068770
C11	C	1.492736	-0.026968	0.000026
C12	C	1.490511	-0.111000	0.000022
C13	C	1.253539	0.115678	0.000021
C14	C	1.114135	0.113454	0.000018
C15	C	1.489483	-0.150470	-0.074926
C16	C	1.487384	-0.229426	-0.074927
C17	C	1.486322	-0.268912	0.000021
C18	C	1.487346	-0.229436	0.074975
C19	C	1.489436	-0.150481	0.074976
C20	C	1.478917	-0.547855	0.074976
C21	C	1.476831	-0.626816	0.074970
C22	C	1.476865	-0.626800	-0.074926
C23	C	1.478954	-0.547845	-0.074926
C24	C	1.479972	-0.508376	0.000028
C25	C	1.482245	-0.422762	0.000028
C26	C	1.484058	-0.354525	0.000022
C27	C	1.083759	0.251192	0.000005
C28	C	1.003081	0.319014	-0.000004
C29	C	0.872100	0.316919	-0.000005
C30	C	0.821795	0.246996	0.000006
C31	C	0.902473	0.179175	0.000016
C32	C	1.033456	0.181277	0.000014
C33	C	0.932848	0.041438	0.000035
C34	C	1.063830	0.043531	0.000030
C35	C	0.882543	-0.028485	0.000046
C36	C	0.963222	-0.096308	0.000050
C37	C	1.094211	-0.094211	0.000050
C38	C	1.144508	-0.024290	0.000040
C39	C	1.712765	0.107035	0.000028
C40	C	1.852170	0.109259	0.000025
C41	C	1.473569	0.249681	0.000023
C42	C	1.475794	0.333713	0.000021
N43	N	1.483124	0.111345	0.195691
N44	N	1.483191	0.111362	-0.195641
C45	C	1.568678	0.060361	0.238958
C46	C	1.568684	0.060361	0.325505
C47	C	1.483141	0.111348	0.368784
C48	C	1.397578	0.162335	0.325511
C49	C	1.397567	0.162331	0.238966
C50	C	1.397621	0.162349	0.674540
C51	C	1.397642	0.162350	0.761091
C52	C	1.568738	0.060378	0.761079
C53	C	1.568727	0.060375	0.674533
C54	C	1.483160	0.111358	0.631268
C55	C	1.483153	0.111358	0.537424
C56	C	1.483154	0.111353	0.462627
H57	H	1.490354	-0.118327	-0.135958
C58	C	1.058423	0.395925	-0.000021
C59	C	1.027882	0.452460	0.071366
C60	C	1.083220	0.529370	0.071351
C61	C	1.169100	0.549745	-0.000051
C62	C	1.199645	0.493210	-0.071444
C63	C	1.144307	0.416299	-0.071429
H64	H	0.964305	0.437377	0.124227
H65	H	1.060608	0.571221	0.124201
H66	H	1.210065	0.606679	-0.000063
H67	H	1.263222	0.508292	-0.124305
H68	H	1.166919	0.374448	-0.124279
C69	C	1.486275	-0.272840	-0.157375
C70	C	1.593856	-0.335137	-0.177979
C71	C	1.592753	-0.378548	-0.260433
C72	C	1.484068	-0.359662	-0.322283
C73	C	1.376479	-0.297361	-0.301681
C74	C	1.377582	-0.253950	-0.219227
H75	H	1.674318	-0.349121	-0.132192
H76	H	1.672398	-0.424667	-0.275683
H77	H	1.483252	-0.391797	-0.383320
H78	H	1.296017	-0.283378	-0.347467
H79	H	1.297937	-0.207832	-0.203976
C80	C	1.475655	-0.670251	0.157420
C81	C	1.366914	-0.651385	0.219244
C82	C	1.365741	-0.694820	0.301688
C83	C	1.473308	-0.757121	0.322307
C84	C	1.582056	-0.775989	0.260481
C85	C	1.583230	-0.732554	0.178037
H86	H	1.287279	-0.605264	0.203982
H87	H	1.285237	-0.680852	0.347456
H88	H	1.472439	-0.789274	0.383337
H89	H	1.661691	-0.822110	0.275743
H90	H	1.663733	-0.746522	0.132270
H91	H	0.922252	-0.153234	0.000059
H92	H	1.327899	0.203847	0.203739
C93	C	1.480068	-0.504447	0.157423
C94	C	1.478924	-0.547885	0.239862
C95	C	1.480086	-0.504474	0.322314
C96	C	1.482392	-0.417627	0.322326
C97	C	1.483536	-0.374185	0.239884
C98	C	1.482374	-0.417595	0.157433
H99	H	1.477217	-0.612179	0.239856
H100	H	1.479239	-0.536633	0.383343
H101	H	1.483252	-0.385492	0.383361
H102	H	1.485243	-0.309891	0.239890
H103	H	1.483221	-0.385436	0.096403
H104	H	1.479825	-0.515700	-0.135957
H105	H	1.190410	0.252905	-0.000012
C106	C	1.475728	-0.670218	-0.157379
C107	C	1.583295	-0.732521	-0.177990
C108	C	1.582163	-0.775937	-0.260440
C109	C	1.473463	-0.757048	-0.322278
C110	C	1.365887	-0.694742	-0.301668
C111	C	1.367020	-0.651326	-0.219218
H112	H	1.663769	-0.746506	-0.132213
H113	H	1.661798	-0.822060	-0.275696
H114	H	1.472624	-0.789187	-0.383312
H115	H	1.285414	-0.680757	-0.347445
H116	H	1.287385	-0.605203	-0.203962
H117	H	1.251158	-0.022576	0.000030
H118	H	0.775890	-0.030186	0.000050
H119	H	0.806411	0.372145	-0.000007
H120	H	1.486474	-0.261591	0.136000
C121	C	1.662797	0.004282	0.373103
C122	C	1.756930	-0.051786	0.325505
C123	C	1.851045	-0.107867	0.373105
C124	C	1.851027	-0.107881	0.468301
C125	C	1.756891	-0.051812	0.515904
C126	C	1.662776	0.004269	0.468305
H127	H	1.756946	-0.051777	0.255030
H128	H	1.920731	-0.149373	0.337865
H129	H	1.920697	-0.149396	0.503537
H130	H	1.756875	-0.051821	0.586379
H131	H	1.593090	0.045775	0.503544
C132	C	1.303532	0.218435	0.808700
C133	C	1.160538	0.216355	0.796829
C134	C	1.066436	0.272437	0.844439
C135	C	1.115326	0.330600	0.903920
C136	C	1.258327	0.332683	0.915793
C137	C	1.352430	0.276601	0.868184
H138	H	1.124340	0.173297	0.752796
H139	H	0.960577	0.270894	0.835649
H140	H	1.045665	0.372115	0.939163
H141	H	1.294525	0.375741	0.959827
H142	H	1.458288	0.278143	0.876973
C143	C	1.303513	0.218433	0.626951
C144	C	1.209456	0.274544	0.674552
C145	C	1.115346	0.330632	0.626956
C146	C	1.115293	0.330609	0.531760
C147	C	1.209353	0.274496	0.484153
C148	C	1.303463	0.218409	0.531749
H149	H	1.209493	0.274563	0.745027
H150	H	1.045717	0.372170	0.662199
H151	H	1.045627	0.372128	0.496527
H152	H	1.209317	0.274477	0.413678
H153	H	1.373093	0.176870	0.496506
H154	H	1.490256	-0.118344	0.136006
H155	H	1.327922	0.203847	0.360754
H156	H	0.715142	0.245297	0.000016
H157	H	1.159893	-0.149439	0.000061
H158	H	1.638388	0.018859	0.639298
H159	H	1.638341	0.018845	0.203726
H160	H	1.638408	0.018862	0.796315
