data_functionalizedCrystal
_audit_creation_method	'MofGen! by Chris Wilmer'
_symmetry_space_group_name_H-M	'P1'
_symmetry_Int_Tables_number	1
_symmetry_cell_setting	triclinic
loop_
_symmetry_equiv_pos_as_xyz
  x,y,z
_cell_length_a	12.811457
_cell_length_b	12.811415
_cell_length_c	7.540329
_cell_angle_alpha	84.565547
_cell_angle_beta	95.428989
_cell_angle_gamma	84.559489
loop_
_atom_site_label
_atom_site_type_symbol
_atom_site_fract_x
_atom_site_fract_y
_atom_site_fract_z
O1	O	1.393277	0.141365	0.053878
O2	O	1.087763	0.156740	0.002263
O3	O	1.248206	-0.003707	0.053883
O4	O	1.232834	0.301811	0.002258
O5	O	1.248196	-0.003709	0.348847
O6	O	1.087753	0.156738	0.297227
O7	O	1.393267	0.141363	0.348841
Cu8	Cu	1.240509	0.149050	0.349967
Cu9	Cu	1.240521	0.149053	0.001138
O10	O	1.232824	0.301809	0.297222
C11	C	1.048650	0.155877	0.143593
C12	C	0.932122	0.153299	0.125265
C13	C	0.713144	0.148431	0.412432
C14	C	0.603656	0.146007	0.395220
C15	C	0.603656	0.146021	0.073631
C16	C	0.713144	0.148444	0.090843
C17	C	0.767885	0.149651	0.260249
C18	C	0.877374	0.152082	0.277458
C19	C	0.877373	0.152088	-0.044128
C20	C	0.767885	0.149664	-0.061340
C21	C	1.247340	-0.042815	0.207514
C22	C	1.244760	-0.159345	0.225836
C23	C	1.239904	-0.378302	-0.061346
C24	C	1.237480	-0.487792	-0.044140
C25	C	1.237481	-0.487815	0.277451
C26	C	1.239905	-0.378325	0.260245
C27	C	1.241118	-0.323573	0.090841
C28	C	1.243549	-0.214082	0.073638
C29	C	1.243542	-0.214106	0.395226
C30	C	1.241118	-0.323596	0.412432
C31	C	1.432380	0.142225	0.207507
C32	C	1.548908	0.144804	0.225824
C33	C	1.233691	0.340918	0.143586
C34	C	1.236270	0.457448	0.125253
N35	N	1.240509	0.149048	0.595316
N36	N	1.240529	0.149047	-0.244208
H37	H	0.559090	0.145020	0.519143
Cl38	Cl	1.235925	-0.556660	0.490392
H39	H	0.559070	0.145021	-0.064288
H40	H	0.921954	0.153087	-0.168048
H41	H	0.723301	0.148677	-0.199265
H42	H	1.240901	-0.333723	-0.199279
Cl43	Cl	1.239585	-0.392436	0.625383
Cl44	Cl	0.946188	0.153601	0.490422
Cl45	Cl	1.245077	-0.145252	-0.139323
H46	H	1.236488	-0.532348	-0.168067
Cl47	Cl	0.781962	0.149962	0.625390
Cl48	Cl	1.245079	-0.145299	0.586560
