data_functionalizedCrystal
_audit_creation_method	'MofGen! by Chris Wilmer'
_symmetry_space_group_name_H-M	'P1'
_symmetry_Int_Tables_number	1
_symmetry_cell_setting	triclinic
loop_
_symmetry_equiv_pos_as_xyz
  x,y,z
_cell_length_a	11.792241
_cell_length_b	19.288864
_cell_length_c	10.868271
_cell_angle_alpha	89.981837
_cell_angle_beta	89.994719
_cell_angle_gamma	83.664831
loop_
_atom_site_label
_atom_site_type_symbol
_atom_site_fract_x
_atom_site_fract_y
_atom_site_fract_z
O1	O	0.141581	0.922152	-0.102718
O2	O	0.474915	1.255486	0.230616
O3	O	0.808248	1.588819	0.563949
O4	O	0.160680	0.720000	-0.102634
O5	O	0.494014	1.053334	0.230700
O6	O	0.827347	1.386667	0.564033
O7	O	-0.014114	0.825982	-0.102669
O8	O	0.319219	1.159315	0.230664
O9	O	0.652553	1.492649	0.563998
O10	O	0.316376	0.816171	-0.102682
O11	O	0.649709	1.149504	0.230651
O12	O	0.983042	1.482837	0.563984
O13	O	-0.014121	0.825973	0.101976
O14	O	0.319213	1.159306	0.435309
O15	O	0.652546	1.492640	0.768642
O16	O	0.160674	0.719991	0.102011
O17	O	0.494007	1.053325	0.435344
O18	O	0.827340	1.386658	0.768678
O19	O	0.141575	0.922144	0.101927
O20	O	0.474908	1.255477	0.435260
O21	O	0.808241	1.588810	0.768594
Zn22	Zn	0.151123	0.821066	0.134461
Zn23	Zn	0.484456	1.154399	0.467794
Zn24	Zn	0.817790	1.487733	0.801127
Zn25	Zn	0.151132	0.821078	-0.135167
Zn26	Zn	0.484465	1.154411	0.198166
Zn27	Zn	0.817799	1.487744	0.531499
O28	O	0.316369	0.816162	0.101962
O29	O	0.649702	1.149495	0.435296
O30	O	0.983036	1.482828	0.768629
C31	C	0.160063	0.694116	-0.000300
C32	C	0.493396	1.027449	0.333033
C33	C	0.826729	1.360783	0.666366
C34	C	0.158218	0.617002	-0.000268
C35	C	0.491551	0.950335	0.333065
C36	C	0.824884	1.283668	0.666398
C37	C	-0.056399	0.825361	-0.000347
C38	C	0.276934	1.158695	0.332986
C39	C	0.610268	1.492028	0.666320
C40	C	-0.182385	0.823517	-0.000347
C41	C	0.150949	1.156850	0.332986
C42	C	0.484282	1.490183	0.666319
C43	C	0.260779	0.572888	-0.000292
C44	C	0.594113	0.906221	0.333042
C45	C	0.927446	1.239555	0.666375
C46	C	0.259046	0.500431	-0.000305
C47	C	0.592379	0.833765	0.333028
C48	C	0.925713	1.167098	0.666362
C49	C	0.154746	0.472091	-0.000320
C50	C	0.488079	0.805424	0.333013
C51	C	0.821412	1.138758	0.666347
C52	C	0.052171	0.516215	-0.000290
C53	C	0.385504	0.849548	0.333044
C54	C	0.718837	1.182881	0.666377
C55	C	0.053907	0.588670	-0.000264
C56	C	0.387240	0.922003	0.333070
C57	C	0.720573	1.255337	0.666403
C58	C	0.072756	0.363366	-0.072054
C59	C	0.406090	0.696700	0.261279
C60	C	0.739423	1.030033	0.594613
C61	C	0.071024	0.290912	-0.072088
C62	C	0.404358	0.624245	0.261246
C63	C	0.737691	0.957579	0.594579
C64	C	0.149387	0.248615	-0.000394
C65	C	0.482720	0.581948	0.332939
C66	C	0.816053	0.915282	0.666272
C67	C	0.229500	0.278780	0.071317
C68	C	0.562833	0.612113	0.404650
C69	C	0.896167	0.945447	0.737983
C70	C	0.231236	0.351235	0.071343
C71	C	0.564570	0.684569	0.404676
C72	C	0.897903	1.017902	0.738009
C73	C	0.152852	0.393526	-0.000347
C74	C	0.486185	0.726860	0.332986
C75	C	0.819518	1.060193	0.666319
C76	C	0.250076	0.125935	-0.000431
C77	C	0.583409	0.459268	0.332903
C78	C	0.916743	0.792602	0.666236
C79	C	0.248339	0.053477	-0.000436
C80	C	0.581672	0.386810	0.332897
C81	C	0.915005	0.720144	0.666230
C82	C	0.041460	0.069262	-0.000433
C83	C	0.374794	0.402595	0.332900
C84	C	0.708127	0.735929	0.666233
C85	C	0.043201	0.141718	-0.000415
C86	C	0.376534	0.475052	0.332918
C87	C	0.709867	0.808385	0.666252
C88	C	0.147512	0.170050	-0.000419
C89	C	0.480845	0.503383	0.332914
C90	C	0.814178	0.836717	0.666247
C91	C	-0.413046	0.820125	-0.000366
C92	C	-0.079712	1.153458	0.332967
C93	C	0.253621	1.486791	0.666300
C94	C	-0.284689	0.822009	-0.000356
C95	C	0.048644	1.155343	0.332977
C96	C	0.381978	1.488676	0.666311
C97	C	0.358654	0.816782	-0.000362
C98	C	0.691987	1.150116	0.332971
C99	C	1.025321	1.483449	0.666304
C100	C	0.484640	0.818627	-0.000370
C101	C	0.817973	1.151961	0.332963
C102	C	1.151306	1.485294	0.666297
C103	C	0.142192	0.948028	-0.000409
C104	C	0.475526	1.281361	0.332924
C105	C	0.808859	1.614695	0.666258
C106	C	0.144037	1.025142	-0.000449
C107	C	0.477371	1.358475	0.332884
C108	C	0.810704	1.691809	0.666217
N109	N	0.151116	0.821063	0.318475
N110	N	0.484450	1.154397	0.651808
N111	N	0.817783	1.487730	0.985142
N112	N	0.151130	0.821086	-0.319181
N113	N	0.484463	1.154419	0.014152
N114	N	0.817796	1.487753	0.347485
C115	C	0.151130	0.821074	0.569481
C116	C	0.484463	1.154407	0.902814
C117	C	0.817796	1.487741	1.236148
C118	C	0.151126	0.821066	0.429803
C119	C	0.484459	1.154399	0.763137
C120	C	0.817792	1.487732	1.096470
H121	H	0.345717	0.595951	-0.000298
H122	H	0.679051	0.929284	0.333036
H123	H	1.012384	1.262618	0.666369
H124	H	0.342567	0.464507	-0.000321
H125	H	0.675900	0.797840	0.333013
H126	H	1.009233	1.131174	0.666346
F127	F	0.316493	0.383337	0.147664
F128	F	0.649826	0.716670	0.480997
F129	F	0.983159	1.050003	0.814331
F130	F	-0.055258	0.635621	-0.000239
F131	F	0.278075	0.968954	0.333095
F132	F	0.611408	1.302288	0.666428
F133	F	-0.058833	0.486052	-0.000299
F134	F	0.274500	0.819386	0.333034
F135	F	0.607833	1.152719	0.666367
F136	F	-0.065961	0.188669	-0.000396
F137	F	0.267372	0.522003	0.332937
F138	F	0.600706	0.855336	0.666270
F139	F	0.361091	0.156090	-0.000426
F140	F	0.694425	0.489424	0.332907
F141	F	1.027758	0.822757	0.666241
F142	F	0.312907	0.233770	0.147624
F143	F	0.646240	0.567103	0.480957
F144	F	0.979573	0.900437	0.814290
F145	F	0.357505	0.006527	-0.000455
F146	F	0.690838	0.339860	0.332878
F147	F	1.024172	0.673194	0.666212
H148	H	0.005796	0.266358	-0.130484
H149	H	0.339129	0.599691	0.202849
H150	H	0.672463	0.933024	0.536183
F151	F	-0.069545	0.039105	-0.000437
F152	F	0.263788	0.372439	0.332896
F153	F	0.597122	0.705772	0.666230
H154	H	0.008942	0.397800	-0.130443
H155	H	0.342275	0.731133	0.202890
H156	H	0.675609	1.064466	0.536224
