data_functionalizedCrystal
_audit_creation_method	'MofGen! by Chris Wilmer'
_symmetry_space_group_name_H-M	'P1'
_symmetry_Int_Tables_number	1
_symmetry_cell_setting	triclinic
loop_
_symmetry_equiv_pos_as_xyz
  x,y,z
_cell_length_a	21.395362
_cell_length_b	29.839126
_cell_length_c	21.395361
_cell_angle_alpha	90.025490
_cell_angle_beta	89.953415
_cell_angle_gamma	89.960696
loop_
_atom_site_label
_atom_site_type_symbol
_atom_site_fract_x
_atom_site_fract_y
_atom_site_fract_z
Zn1	Zn	0.957831	-0.254237	0.249221
Zn2	Zn	0.957742	-0.179105	0.353988
Zn3	Zn	0.853054	-0.179094	0.249257
Zn4	Zn	0.853015	-0.254181	0.353994
O5	O	0.905410	-0.216654	0.301615
O6	O	1.045497	-0.244299	0.263101
O7	O	0.943834	-0.116236	0.340108
O8	O	0.867007	-0.189080	0.161575
O9	O	1.045432	-0.189100	0.340073
O10	O	0.943986	-0.244288	0.161548
O11	O	0.866920	-0.116228	0.263163
O12	O	0.765371	-0.189026	0.263169
O13	O	0.866940	-0.317055	0.340082
O14	O	0.765342	-0.244192	0.340118
O15	O	0.943948	-0.317097	0.263106
O16	O	0.943796	-0.189045	0.441667
O17	O	0.866853	-0.244203	0.441671
C18	C	0.742623	-0.216602	0.301648
C19	C	0.672981	-0.216590	0.301677
C20	C	0.640270	-0.245272	0.341798
C21	C	0.574834	-0.245292	0.341783
C22	C	0.542113	-0.216622	0.301653
C23	C	0.574833	-0.187938	0.261525
C24	C	0.640267	-0.187922	0.261537
C25	C	0.438393	-0.176179	0.296610
C26	C	0.372960	-0.176194	0.296602
C27	C	0.340293	-0.216672	0.301612
C28	C	0.373066	-0.257136	0.306644
C29	C	0.438500	-0.257120	0.306656
C30	C	0.471161	-0.216637	0.301635
C31	C	0.236628	-0.245378	0.341719
C32	C	0.171192	-0.245399	0.341699
C33	C	0.171191	-0.188041	0.261444
C34	C	0.236627	-0.188024	0.261461
C35	C	0.269341	-0.216692	0.301601
C36	C	0.905449	-0.333832	0.301591
C37	C	0.905466	-0.383767	0.301581
C38	C	0.865429	-0.693409	0.261453
C39	C	0.865447	-0.881082	0.261409
O40	O	0.831375	-0.905346	0.227353
N41	N	0.905495	-0.904552	0.301463
C42	C	0.945539	-0.881101	0.341534
O43	O	0.979599	-0.905370	0.375606
C44	C	0.945518	-0.693429	0.341580
C45	C	0.905471	-0.669961	0.301519
C46	C	0.825386	-0.669941	0.221395
C47	C	0.825384	-0.623026	0.221404
C48	C	0.865426	-0.599578	0.261470
C49	C	0.905470	-0.623046	0.301528
C50	C	0.985558	-0.669979	0.381653
C51	C	0.985548	-0.623058	0.381662
C52	C	0.945502	-0.599590	0.341601
C53	C	0.945510	-0.552682	0.341603
N54	N	0.905462	-0.529212	0.301549
C55	C	0.865420	-0.552660	0.261483
C56	C	0.945549	-0.979632	0.341506
C57	C	0.945555	-1.026550	0.341494
C58	C	0.865462	-1.026527	0.261370
C59	C	0.865459	-0.979609	0.261379
C60	C	0.905500	-0.956162	0.301452
C61	C	0.865420	-0.454134	0.261504
C62	C	0.865424	-0.407215	0.261515
C63	C	0.945514	-0.407241	0.341641
C64	C	0.945513	-0.454157	0.341628
C65	C	0.905461	-0.477602	0.301558
O66	O	0.979559	-0.528390	0.375646
O67	O	0.831356	-0.528383	0.227426
C68	C	0.865431	-0.740324	0.261444
C69	C	0.905475	-0.763792	0.301501
C70	C	0.945517	-0.740344	0.341567
C71	C	0.905481	-0.810710	0.301489
C72	C	0.865439	-0.834158	0.261423
C73	C	0.825391	-0.810688	0.221369
C74	C	0.825389	-0.763772	0.221378
C75	C	0.985565	-0.763814	0.381621
C76	C	0.985564	-0.810730	0.381609
C77	C	0.945522	-0.834178	0.341543
C78	C	1.068834	-0.216707	0.301582
C79	C	1.138475	-0.216729	0.301568
C80	C	0.905328	-0.216629	0.464403
C81	C	0.905350	-0.216633	0.534044
C82	C	0.905408	-0.099932	0.301594
C83	C	0.905513	-0.049997	0.301427
C84	C	0.905511	-0.216689	0.138192
C85	C	0.905553	-0.216704	0.068550
C86	C	0.945449	-0.187942	0.566734
C87	C	0.945478	-0.187952	0.632169
C88	C	0.905397	-0.216649	0.664912
C89	C	0.865295	-0.245346	0.632214
C90	C	0.865271	-0.245338	0.566780
C91	C	0.848982	-0.220156	0.768643
C92	C	0.849004	-0.220160	0.834076
C93	C	0.905470	-0.216675	0.866733
C94	C	0.961915	-0.213176	0.833949
C95	C	0.961891	-0.213168	0.768515
C96	C	0.905418	-0.216661	0.735865
C97	C	0.945604	-0.187993	0.970376
C98	C	0.945634	-0.188007	1.035812
C99	C	0.865445	-0.245398	1.035856
C100	C	0.865420	-0.245387	0.970420
C101	C	0.905499	-0.216682	0.937684
H102	H	0.832813	-0.388109	0.228889
H103	H	0.832850	-0.960504	0.228758
H104	H	0.548195	-0.268650	0.374453
H105	H	1.007850	-0.210321	0.741824
H106	H	0.802997	-0.222995	0.742060
H107	H	0.465182	-0.290067	0.310750
H108	H	1.007894	-0.210338	0.860537
H109	H	0.978292	-0.164644	1.062427
H110	H	0.978134	-0.164588	0.658791
H111	H	0.666902	-0.268617	0.374483
H112	H	0.346469	-0.290097	0.310722
H113	H	0.263266	-0.268724	0.374400
H114	H	0.978241	-0.164622	0.943721
H115	H	0.832813	-0.268765	1.062514
H116	H	0.666901	-0.164566	0.228864
H117	H	0.978155	-0.960546	0.374141
H118	H	0.792772	-0.603923	0.188785
H119	H	0.803043	-0.223005	0.860763
H120	H	0.144559	-0.268758	0.374369
H121	H	0.144551	-0.164699	0.228767
H122	H	0.832661	-0.268711	0.658878
H123	H	0.263261	-0.164666	0.228793
H124	H	0.346281	-0.143246	0.292509
H125	H	0.792789	-0.829787	0.188743
H126	H	0.792775	-0.689027	0.188768
H127	H	0.464986	-0.143214	0.292527
H128	H	0.978129	-0.473265	0.374242
H129	H	0.548187	-0.164596	0.228850
H130	H	0.832806	-0.473218	0.228874
H131	H	1.018181	-0.829833	0.414230
H132	H	0.978117	-0.388141	0.374260
H133	H	0.832765	-0.268748	0.943802
H134	H	0.832617	-0.268702	0.540163
H135	H	0.832859	-1.045627	0.228745
H136	H	0.978172	-1.045653	0.374108
H137	H	1.018168	-0.689078	0.414276
H138	H	1.018159	-0.603970	0.414291
H139	H	0.792779	-0.744669	0.188756
H140	H	0.978085	-0.164570	0.540082
H141	H	1.018171	-0.744728	0.414251
