data_functionalizedCrystal
_audit_creation_method	'MofGen! by Chris Wilmer'
_symmetry_space_group_name_H-M	'P1'
_symmetry_Int_Tables_number	1
_symmetry_cell_setting	triclinic
loop_
_symmetry_equiv_pos_as_xyz
  x,y,z
_cell_length_a	26.210047
_cell_length_b	17.699083
_cell_length_c	17.699083
_cell_angle_alpha	83.283015
_cell_angle_beta	90.003602
_cell_angle_gamma	89.997010
loop_
_atom_site_label
_atom_site_type_symbol
_atom_site_fract_x
_atom_site_fract_y
_atom_site_fract_z
O1	O	0.042358	-1.004082	-0.095700
O2	O	0.542358	-0.504082	0.404300
O3	O	0.042375	-0.783704	-0.108153
O4	O	0.542375	-0.283704	0.391847
O5	O	0.042362	-0.900119	0.008263
O6	O	0.542362	-0.400119	0.508263
O7	O	0.042372	-0.887667	-0.212116
O8	O	0.542372	-0.387667	0.287884
O9	O	-0.042496	-0.900097	0.008244
O10	O	0.457504	-0.400097	0.508244
O11	O	-0.042483	-0.783681	-0.108171
O12	O	0.457517	-0.283681	0.391829
O13	O	-0.042500	-1.004060	-0.095719
O14	O	0.457500	-0.504060	0.404281
Cu15	Cu	-0.050239	-0.893868	-0.101946
Cu16	Cu	0.449761	-0.393868	0.398054
Cu17	Cu	0.050115	-0.893895	-0.101925
Cu18	Cu	0.550115	-0.393895	0.398075
O19	O	-0.042486	-0.887644	-0.212134
O20	O	0.457514	-0.387644	0.287866
C21	C	-0.000052	-0.755495	-0.107716
C22	C	0.499948	-0.255495	0.392284
C23	C	-0.000045	-0.671477	-0.106377
C24	C	0.499955	-0.171477	0.393623
C25	C	-0.000067	-0.899662	0.036451
C26	C	0.499933	-0.399662	0.536451
C27	C	-0.000067	-0.898323	0.120469
C28	C	0.499933	-0.398323	0.620469
N29	N	-0.120823	-0.893855	-0.101961
N30	N	0.379177	-0.393855	0.398039
C31	C	-0.473343	-0.945438	-0.050388
C32	C	0.026657	-0.445438	0.449612
C33	C	-0.687002	-0.945455	-0.050377
C34	C	-0.187002	-0.445455	0.449623
O35	O	-0.714629	-0.989284	-0.006531
O36	O	-0.214629	-0.489284	0.493469
N37	N	-0.713717	-0.893899	-0.101908
N38	N	-0.213717	-0.393899	0.398092
C39	C	-0.687015	-0.842332	-0.153442
C40	C	-0.187015	-0.342332	0.346558
O41	O	-0.714640	-0.798475	-0.197267
O42	O	-0.214640	-0.298475	0.302733
C43	C	-0.473357	-0.842312	-0.153449
C44	C	0.026643	-0.342312	0.346551
C45	C	-0.446644	-0.893877	-0.101919
C46	C	0.053356	-0.393877	0.398081
C47	C	-0.446631	-0.996998	0.001138
C48	C	0.053369	-0.496998	0.501138
C49	C	-0.393219	-0.996996	0.001132
C50	C	0.106781	-0.496996	0.501132
C51	C	-0.366520	-0.945434	-0.050400
C52	C	0.133480	-0.445434	0.449600
C53	C	-0.393233	-0.893875	-0.101925
C54	C	0.106767	-0.393875	0.398075
C55	C	-0.446655	-0.790742	-0.204978
C56	C	0.053345	-0.290742	0.295022
C57	C	-0.393238	-0.790740	-0.204974
C58	C	0.106762	-0.290740	0.295026
C59	C	-0.366525	-0.842305	-0.153445
C60	C	0.133475	-0.342305	0.346555
C61	C	-0.313123	-0.842311	-0.153463
C62	C	0.186877	-0.342311	0.346537
N63	N	-0.286407	-0.893867	-0.101932
N64	N	0.213593	-0.393867	0.398068
C65	C	-0.313106	-0.945429	-0.050400
C66	C	0.186894	-0.445429	0.449600
C67	C	-0.799188	-0.842347	-0.153436
C68	C	-0.299188	-0.342347	0.346564
C69	C	-0.852602	-0.842352	-0.153436
C70	C	-0.352602	-0.342352	0.346564
C71	C	-0.852586	-0.945475	-0.050370
C72	C	-0.352586	-0.445475	0.449630
C73	C	-0.799171	-0.945472	-0.050374
C74	C	-0.299171	-0.445472	0.449626
C75	C	-0.772473	-0.893903	-0.101905
C76	C	-0.272473	-0.393903	0.398095
C77	C	-0.200938	-0.945421	-0.050417
C78	C	0.299062	-0.445421	0.449583
C79	C	-0.147522	-0.945417	-0.050429
C80	C	0.352478	-0.445417	0.449571
C81	C	-0.147543	-0.842292	-0.153493
C82	C	0.352457	-0.342292	0.346507
C83	C	-0.200955	-0.842299	-0.153483
C84	C	0.299045	-0.342299	0.346517
C85	C	-0.227651	-0.893866	-0.101939
C86	C	0.272349	-0.393866	0.398061
O87	O	-0.285463	-0.798499	-0.197280
O88	O	0.214537	-0.298499	0.302720
O89	O	-0.285471	-0.989268	-0.006571
O90	O	0.214529	-0.489268	0.493429
C91	C	-0.526755	-0.945440	-0.050382
C92	C	-0.026755	-0.445440	0.449618
C93	C	-0.553467	-0.893880	-0.101908
C94	C	-0.053467	-0.393880	0.398092
C95	C	-0.526769	-0.842319	-0.153439
C96	C	-0.026769	-0.342319	0.346561
C97	C	-0.606881	-0.893886	-0.101907
C98	C	-0.106881	-0.393886	0.398093
C99	C	-0.633580	-0.945448	-0.050375
C100	C	-0.133580	-0.445448	0.449625
C101	C	-0.606865	-0.997004	0.001156
C102	C	-0.106865	-0.497004	0.501156
C103	C	-0.553454	-0.997002	0.001150
C104	C	-0.053454	-0.497002	0.501150
C105	C	-0.553484	-0.790763	-0.204970
C106	C	-0.053484	-0.290763	0.295030
C107	C	-0.606895	-0.790769	-0.204961
C108	C	-0.106895	-0.290769	0.295039
C109	C	-0.633594	-0.842331	-0.153429
C110	C	-0.133594	-0.342331	0.346571
N111	N	0.120699	-0.893914	-0.101904
N112	N	0.620699	-0.393914	0.398096
C113	C	-0.000072	-1.032268	-0.096156
C114	C	0.499928	-0.532268	0.403844
C115	C	-0.000074	-1.116286	-0.097494
C116	C	0.499926	-0.616286	0.402506
C117	C	-0.000042	-0.622856	-0.174711
C118	C	0.499958	-0.122856	0.325289
C119	C	-0.000049	-0.543913	-0.173448
C120	C	0.499951	-0.043913	0.326552
C121	C	-0.000055	-0.513592	-0.103852
C122	C	0.499945	-0.013592	0.396148
C123	C	-0.000059	-0.562219	-0.035513
C124	C	0.499941	-0.062219	0.464487
C125	C	-0.000056	-0.641161	-0.036776
C126	C	0.499944	-0.141161	0.463224
C127	C	-0.000072	-0.243856	-0.030418
C128	C	0.499928	0.256144	0.469582
C129	C	-0.000074	-0.164908	-0.029160
C130	C	0.499926	0.335092	0.470840
C131	C	-0.000065	-0.146608	-0.167090
C132	C	0.499935	0.353392	0.332910
C133	C	-0.000062	-0.225550	-0.168353
C134	C	0.499938	0.274450	0.331647
C135	C	-0.000069	-0.274170	-0.100015
C136	C	0.499931	0.225830	0.399985
C137	C	-0.000063	-0.359769	-0.101384
C138	C	0.499937	0.140231	0.398616
C139	C	-0.000058	-0.427995	-0.102481
C140	C	0.499942	0.072005	0.397519
C141	C	-0.000056	-0.888102	-0.240322
C142	C	0.499944	-0.388102	0.259678
C143	C	-0.000053	-0.889440	-0.324340
C144	C	0.499947	-0.389440	0.175660
C145	C	-0.000073	-0.966656	0.169090
C146	C	0.499927	-0.466656	0.669090
C147	C	-0.000069	-0.965394	0.248033
C148	C	0.499931	-0.465394	0.748033
C149	C	-0.000062	-0.895798	0.278354
C150	C	0.499938	-0.395798	0.778354
C151	C	-0.000054	-0.827459	0.229727
C152	C	0.499946	-0.327459	0.729727
C153	C	-0.000055	-0.828722	0.150785
C154	C	0.499945	-0.328722	0.650785
C155	C	-0.000050	-0.822364	0.548090
C156	C	0.499950	-0.322364	1.048090
C157	C	-0.000050	-0.821106	0.627038
C158	C	0.499950	-0.321106	1.127038
C159	C	-0.000063	-0.959036	0.645338
C160	C	0.499937	-0.459036	1.145338
C161	C	-0.000064	-0.960299	0.566396
C162	C	0.499936	-0.460299	1.066396
C163	C	-0.000054	-0.891961	0.517776
C164	C	0.499946	-0.391961	1.017776
C165	C	-0.000058	-0.893330	0.432177
C166	C	0.499942	-0.393330	0.932177
C167	C	-0.000061	-0.894427	0.363951
C168	C	0.499939	-0.394427	0.863951
H169	H	-0.125774	-0.987410	-0.008468
H170	H	0.374226	-0.487410	0.491532
H171	H	-0.222705	-0.800317	-0.195450
H172	H	0.277295	-0.300317	0.304550
H173	H	-0.000075	-1.021038	0.287617
H174	H	0.499925	-0.521038	0.787617
H175	H	-0.777424	-0.987460	-0.008415
H176	H	-0.277424	-0.487460	0.491585
H177	H	-0.874333	-0.987460	-0.008412
H178	H	-0.374333	-0.487460	0.491588
H179	H	-0.000042	-0.766718	0.508512
H180	H	0.499958	-0.266718	1.008512
Br181	Br	-0.643142	-0.720787	-0.274904
Br182	Br	-0.143142	-0.220787	0.225096
H183	H	-0.000079	-0.283434	0.025228
H184	H	0.499921	0.216566	0.525228
H185	H	-0.628612	-1.038990	0.043112
H186	H	-0.128612	-0.538990	0.543112
H187	H	-0.000037	-0.647537	-0.231384
H188	H	0.499963	-0.147537	0.268616
H189	H	-0.000046	-0.504328	-0.229092
H190	H	0.499954	-0.004328	0.270908
Br191	Br	-0.000056	-0.080619	-0.259837
Br192	Br	0.499944	0.419381	0.240163
Br193	Br	-0.000041	-0.726647	0.668186
Br194	Br	0.499959	-0.226647	1.168186
H195	H	-0.000045	-0.770792	0.254420
H196	H	0.499955	-0.270792	0.754420
Br197	Br	-0.000043	-0.735980	0.084797
Br198	Br	0.499957	-0.235980	0.584797
Br199	Br	-0.237160	-1.015406	0.019537
Br200	Br	0.262840	-0.515406	0.519537
Br201	Br	-0.000073	-1.054754	0.525250
Br202	Br	0.499927	-0.554754	1.025250
H203	H	-0.000082	-1.023330	0.144409
H204	H	0.499918	-0.523330	0.644409
H205	H	-0.371473	-1.038982	0.043093
H206	H	0.128527	-0.538982	0.543093
H207	H	-0.000072	-0.537526	0.021154
H208	H	0.499928	-0.037526	0.521154
H209	H	-0.000055	-0.250232	-0.225025
H210	H	0.499945	0.249768	0.274975
H211	H	-0.000059	-0.680748	0.018868
H212	H	0.499941	-0.180748	0.518868
Br213	Br	-0.482856	-1.066983	0.071084
Br214	Br	0.017144	-0.566983	0.571084
Br215	Br	-0.888849	-0.772382	-0.223383
Br216	Br	-0.388849	-0.272382	0.276617
H217	H	-0.000079	-0.140225	0.027517
H218	H	0.499921	0.359775	0.527517
H219	H	-0.777454	-0.800351	-0.195401
H220	H	-0.277454	-0.300351	0.304599
Br221	Br	-0.482897	-0.720758	-0.274914
Br222	Br	0.017103	-0.220758	0.225086
H223	H	-0.371503	-0.748743	-0.246936
H224	H	0.128497	-0.248743	0.253064
H225	H	-0.125797	-0.800313	-0.195451
H226	H	0.374203	-0.300313	0.304549
H227	H	-0.000069	-1.014680	0.684934
H228	H	0.499931	-0.514680	1.184934
H229	H	-0.531708	-1.038991	0.043110
H230	H	-0.031708	-0.538991	0.543110
H231	H	-0.531750	-0.748774	-0.246932
H232	H	-0.031750	-0.248774	0.253068
