data_functionalizedCrystal
_audit_creation_method	'MofGen! by Chris Wilmer'
_symmetry_space_group_name_H-M	'P1'
_symmetry_Int_Tables_number	1
_symmetry_cell_setting	triclinic
loop_
_symmetry_equiv_pos_as_xyz
  x,y,z
_cell_length_a	22.610064
_cell_length_b	14.853567
_cell_length_c	14.853559
_cell_angle_alpha	96.366808
_cell_angle_beta	90.012760
_cell_angle_gamma	89.998830
loop_
_atom_site_label
_atom_site_type_symbol
_atom_site_fract_x
_atom_site_fract_y
_atom_site_fract_z
O1	O	-0.049141	-1.196360	0.117685
O2	O	0.450859	-0.696360	0.617685
O3	O	-0.049151	-0.933900	0.131706
O4	O	0.450849	-0.433900	0.631706
O5	O	-0.049145	-1.072145	-0.006535
O6	O	0.450855	-0.572145	0.493465
O7	O	-0.049147	-1.058115	0.255926
O8	O	0.450853	-0.558115	0.755926
O9	O	0.049224	-1.072135	-0.006499
O10	O	0.549224	-0.572135	0.493501
O11	O	0.049219	-0.933891	0.131742
O12	O	0.549219	-0.433891	0.631742
O13	O	0.049228	-1.196351	0.117720
O14	O	0.549228	-0.696351	0.617720
Zn15	Zn	0.064842	-1.065119	0.124737
Zn16	Zn	0.564842	-0.565119	0.624737
Zn17	Zn	-0.064764	-1.065131	0.124690
Zn18	Zn	0.435236	-0.565131	0.624690
O19	O	0.049223	-1.058106	0.255961
O20	O	0.549223	-0.558106	0.755961
C21	C	0.000033	-0.900307	0.131089
C22	C	0.500033	-0.400307	0.631089
C23	C	0.000029	-0.800223	0.129185
C24	C	0.500029	-0.300223	0.629185
N25	N	0.153294	-1.065117	0.124768
N26	N	0.653294	-0.565117	0.624768
N27	N	-0.153216	-1.065140	0.124651
N28	N	0.346784	-0.565140	0.624651
C29	C	0.438140	-1.003882	0.185906
C30	C	0.938140	-0.503882	0.685906
C31	C	0.376220	-1.003880	0.185915
C32	C	0.876220	-0.503880	0.685915
O33	O	0.344199	-0.951788	0.237937
O34	O	0.844199	-0.451788	0.737937
N35	N	0.345246	-1.065111	0.124732
N36	N	0.845246	-0.565111	0.624732
C37	C	0.376196	-1.126342	0.063530
C38	C	0.876196	-0.626342	0.563530
O39	O	0.344165	-1.178423	0.011489
O40	O	0.844165	-0.678423	0.511489
C41	C	0.438115	-1.126339	0.063517
C42	C	0.938115	-0.626339	0.563517
C43	C	0.469085	-1.065110	0.124711
C44	C	0.969085	-0.565110	0.624711
C45	C	0.469110	-0.942657	0.247094
C46	C	0.969110	-0.442657	0.747094
C47	C	0.531026	-0.942661	0.247086
C48	C	1.031026	-0.442661	0.747086
C49	C	0.561971	-1.003890	0.185891
C50	C	1.061971	-0.503890	0.685891
C51	C	0.531001	-1.065114	0.124703
C52	C	1.031001	-0.565114	0.624703
C53	C	0.469064	-1.187566	0.002311
C54	C	0.969064	-0.687566	0.502311
C55	C	0.530987	-1.187557	0.002304
C56	C	1.030987	-0.687557	0.502304
C57	C	0.561957	-1.126328	0.063497
C58	C	1.061957	-0.626328	0.563497
C59	C	0.623862	-1.126346	0.063499
C60	C	1.123862	-0.626346	0.563499
N61	N	0.654835	-1.065115	0.124683
N62	N	1.154835	-0.565115	0.624683
C63	C	0.623890	-1.003887	0.185878
C64	C	1.123890	-0.503887	0.685878
C65	C	0.246163	-1.126342	0.063559
C66	C	0.746163	-0.626342	0.563559
C67	C	0.184245	-1.126349	0.063575
C68	C	0.684245	-0.626349	0.563575
C69	C	0.184273	-1.003886	0.185960
C70	C	0.684273	-0.503886	0.685960
C71	C	0.246192	-1.003883	0.185947
C72	C	0.746192	-0.503883	0.685947
C73	C	0.277136	-1.065111	0.124742
C74	C	0.777136	-0.565111	0.624742
C75	C	0.753917	-1.003900	0.185858
C76	C	1.253917	-0.503900	0.685858
C77	C	0.815838	-1.003912	0.185847
C78	C	1.315838	-0.503912	0.685847
C79	C	0.815805	-1.126372	0.063460
C80	C	1.315805	-0.626372	0.563460
C81	C	0.753889	-1.126364	0.063473
C82	C	1.253889	-0.626364	0.563473
C83	C	0.722947	-1.065120	0.124676
C84	C	1.222947	-0.565120	0.624676
O85	O	0.655922	-1.178409	0.011502
O86	O	1.155922	-0.678409	0.511502
O87	O	0.655928	-0.951807	0.237903
O88	O	1.155928	-0.451807	0.737903
C89	C	0.000039	-1.071506	-0.040106
C90	C	0.500039	-0.571506	0.459894
C91	C	0.000035	-1.069605	-0.140190
C92	C	0.500035	-0.569605	0.359810
C93	C	0.000044	-1.229944	0.118338
C94	C	0.500044	-0.729944	0.618338
C95	C	0.000044	-1.330028	0.120242
C96	C	0.500044	-0.830028	0.620242
C97	C	0.000043	-0.387692	0.039019
C98	C	0.500043	0.112308	0.539019
C99	C	0.000041	-0.366406	0.203252
C100	C	0.500041	0.133594	0.703252
C101	C	0.000039	-0.460440	0.205042
C102	C	0.500039	0.039560	0.705042
C103	C	0.000038	-0.518104	0.123819
C104	C	0.500038	-0.018104	0.623819
C105	C	0.000039	-0.481735	0.040806
C106	C	0.500039	0.018265	0.540806
C107	C	0.000032	-0.496816	0.288054
C108	C	0.500032	0.003184	0.788054
C109	C	0.000030	-0.590855	0.289847
C110	C	0.500030	-0.090855	0.789847
C111	C	0.000033	-0.648521	0.208623
C112	C	0.500033	-0.148521	0.708623
C113	C	0.000034	-0.612147	0.125607
C114	C	0.500034	-0.112147	0.625607
C115	C	0.000033	-0.669811	0.044384
C116	C	0.500033	-0.169811	0.544384
C117	C	0.000039	-0.633438	-0.038633
C118	C	0.500039	-0.133438	0.461367
C119	C	0.000042	-0.539401	-0.040417
C120	C	0.500042	-0.039401	0.459583
C121	C	0.000030	-0.742559	0.210408
C122	C	0.500030	-0.242559	0.710408
C123	C	0.000030	-0.763854	0.046172
C124	C	0.500030	-0.263854	0.546172
C125	C	-0.053586	-1.061546	-0.563384
C126	C	0.446414	-0.561546	-0.063384
C127	C	0.053660	-1.061536	-0.563340
C128	C	0.553660	-0.561536	-0.063340
C129	C	0.053660	-1.063329	-0.469307
C130	C	0.553660	-0.563329	0.030693
C131	C	0.000037	-1.064230	-0.422308
C132	C	0.500037	-0.564230	0.077692
C133	C	-0.053587	-1.063337	-0.469342
C134	C	0.446413	-0.563337	0.030658
C135	C	0.107283	-1.064213	-0.422265
C136	C	0.607283	-0.564213	0.077735
C137	C	0.107286	-1.066006	-0.328226
C138	C	0.607286	-0.566006	0.171774
C139	C	0.053662	-1.066913	-0.281226
C140	C	0.553662	-0.566913	0.218774
C141	C	0.000036	-1.066021	-0.328266
C142	C	0.500036	-0.566021	0.171734
C143	C	-0.053588	-1.066921	-0.281266
C144	C	0.446412	-0.566921	0.218734
C145	C	-0.107215	-1.066036	-0.328306
C146	C	0.392785	-0.566036	0.171694
C147	C	-0.107211	-1.064244	-0.422342
C148	C	0.392789	-0.564244	0.077658
C149	C	0.053659	-1.068704	-0.187189
C150	C	0.553659	-0.568704	0.312811
C151	C	-0.053589	-1.068712	-0.187224
C152	C	0.446411	-0.568712	0.312776
C153	C	0.000038	-1.058745	0.289532
C154	C	0.500038	-0.558745	0.789532
C155	C	0.000037	-1.060646	0.389616
C156	C	0.500037	-0.560646	0.889616
H157	H	0.841052	-0.954052	0.235681
H158	H	1.341052	-0.454052	0.735681
H159	H	0.271404	-0.954025	0.235776
H160	H	0.771404	-0.454025	0.735776
H161	H	0.000037	-0.319450	0.269380
H162	H	0.500037	0.180550	0.769380
H163	H	-0.150871	-1.063522	-0.460649
H164	H	0.349129	-0.563522	0.039351
H165	H	0.000050	-0.358073	-0.028572
H166	H	0.500050	0.141927	0.471428
H167	H	0.000031	-0.810799	-0.019971
H168	H	0.500031	-0.310799	0.480029
H169	H	0.150952	-1.066730	-0.289935
H170	H	0.650952	-0.566730	0.210065
H171	H	0.728731	-0.954029	0.235694
H172	H	1.228731	-0.454029	0.735694
H173	H	0.000027	-0.449859	0.354181
H174	H	0.500027	0.050141	0.854181
H175	H	0.000061	-0.509777	-0.108006
H176	H	0.500061	-0.009777	0.391994
H177	H	0.097321	-1.069405	-0.148891
H178	H	0.597321	-0.569405	0.351109
H179	H	0.000025	-0.620461	0.357445
H180	H	0.500025	-0.120461	0.857445
H181	H	0.000026	-0.772169	0.277999
H182	H	0.500026	-0.272169	0.777999
H183	H	0.556238	-0.892801	0.296913
H184	H	1.056238	-0.392801	0.796913
H185	H	0.443920	-0.892794	0.296927
H186	H	0.943920	-0.392794	0.796927
H187	H	-0.097256	-1.069449	-0.148964
H188	H	0.402744	-0.569449	0.351036
H189	H	0.097317	-1.060797	-0.601612
H190	H	0.597317	-0.560797	-0.101612
H191	H	-0.150875	-1.066762	-0.290026
H192	H	0.349125	-0.566762	0.209974
H193	H	-0.097248	-1.060829	-0.601688
H194	H	0.402752	-0.560829	-0.101688
H195	H	0.159066	-0.954029	0.235787
H196	H	0.659066	-0.454029	0.735787
H197	H	0.271355	-1.176208	0.013721
H198	H	0.771355	-0.676208	0.513721
H199	H	0.159033	-1.176217	0.013755
H200	H	0.659033	-0.676217	0.513755
H201	H	0.150941	-1.063475	-0.460538
H202	H	0.650941	-0.563475	0.039462
H203	H	0.443856	-1.237423	-0.047518
H204	H	0.943856	-0.737423	0.452482
H205	H	0.556179	-1.237415	-0.047539
H206	H	1.056179	-0.737415	0.452461
H207	H	0.841010	-1.176226	0.013637
H208	H	1.341010	-0.676226	0.513637
H209	H	0.000034	-0.680401	-0.104765
H210	H	0.500034	-0.180401	0.395235
H211	H	0.728673	-1.176231	0.013653
H212	H	1.228673	-0.676231	0.513653
