data_functionalizedCrystal
_audit_creation_method	'MofGen! by Chris Wilmer'
_symmetry_space_group_name_H-M	'P1'
_symmetry_Int_Tables_number	1
_symmetry_cell_setting	triclinic
loop_
_symmetry_equiv_pos_as_xyz
  x,y,z
_cell_length_a	12.784905
_cell_length_b	17.699092
_cell_length_c	16.776229
_cell_angle_alpha	90.001732
_cell_angle_beta	90.006240
_cell_angle_gamma	78.196844
loop_
_atom_site_label
_atom_site_type_symbol
_atom_site_fract_x
_atom_site_fract_y
_atom_site_fract_z
O1	O	1.410305	0.004741	0.066293
O2	O	1.100768	0.037159	0.066292
O3	O	1.264277	-0.089802	0.066291
O4	O	1.246796	0.131703	0.066294
O5	O	1.264259	-0.089802	-0.066286
O6	O	1.100749	0.037160	-0.066284
O7	O	1.410287	0.004742	-0.066284
Zn8	Zn	1.255515	0.020951	-0.087333
Zn9	Zn	1.255539	0.020950	0.087342
O10	O	1.246777	0.131704	-0.066282
C11	C	1.061154	0.039268	0.000004
C12	C	0.943144	0.045541	0.000004
C13	C	0.747085	-0.082270	0.000016
C14	C	0.636205	-0.076379	0.000016
C15	C	0.610502	0.063213	0.000010
C16	C	0.721382	0.057322	0.000010
C17	C	0.789670	-0.015422	0.000012
C18	C	0.900552	-0.021312	0.000006
C19	C	0.874848	0.118280	0.000005
C20	C	0.763968	0.124171	0.000005
C21	C	1.263640	-0.117958	0.000004
C22	C	1.261756	-0.201855	0.000007
C23	C	1.260884	-0.241266	0.072276
C24	C	1.259107	-0.320094	0.072277
C25	C	1.258211	-0.359511	0.000008
C26	C	1.259080	-0.320094	-0.072266
C27	C	1.260849	-0.241266	-0.072266
C28	C	1.251944	-0.637999	-0.072267
C29	C	1.250178	-0.716833	-0.072261
C30	C	1.250202	-0.716827	0.072276
C31	C	1.251971	-0.637999	0.072275
C32	C	1.252835	-0.598588	0.000002
C33	C	1.254759	-0.513113	0.000002
C34	C	1.256294	-0.444986	0.000008
C35	C	1.449901	0.002633	0.000006
C36	C	1.567910	-0.003640	0.000012
C37	C	1.247414	0.159860	0.000007
C38	C	1.249298	0.243756	0.000008
N39	N	1.255506	0.020951	-0.206545
C40	C	1.319859	0.062649	-0.248257
C41	C	1.319870	0.062645	-0.331710
C42	C	1.255523	0.020948	-0.373448
C43	C	1.191168	-0.020755	-0.331729
C44	C	1.191163	-0.020755	-0.248278
C45	C	1.191190	-0.020755	-0.668276
C46	C	1.191198	-0.020750	-0.751733
C47	C	1.319897	0.062645	-0.751707
C48	C	1.319892	0.062644	-0.668257
C49	C	1.255542	0.020939	-0.626545
C50	C	1.255531	0.020942	-0.536057
C51	C	1.255527	0.020948	-0.463934
N52	N	1.255557	0.020944	0.206553
H53	H	0.802686	-0.141501	0.000012
H54	H	1.261544	-0.209176	-0.131114
H55	H	0.601537	-0.130814	0.000021
C56	C	0.707924	0.244970	0.068153
C57	C	0.688898	0.204127	0.000004
H58	H	0.661574	0.294330	0.068151
H59	H	0.780045	0.251029	0.068144
H60	H	0.695038	0.217253	0.114382
H61	H	0.701792	0.231841	-0.046226
H62	H	0.616759	0.198070	0.000005
C63	C	1.033403	0.171238	0.000032
C64	C	0.921659	0.191767	0.000023
H65	H	1.062300	0.216605	0.000052
H66	H	1.056846	0.141610	-0.046203
H67	H	1.056845	0.141585	0.046262
H68	H	0.898216	0.221414	-0.046211
H69	H	0.898206	0.221406	0.046263
C70	C	1.165800	-0.394207	0.156169
C71	C	1.258164	-0.363403	0.151725
H72	H	1.165221	-0.420936	0.205224
H73	H	1.165012	-0.428972	0.113145
H74	H	1.104527	-0.353601	0.153163
H75	H	1.319438	-0.404010	0.154725
H76	H	1.258962	-0.328636	0.194761
C77	C	1.462883	0.058028	-0.845528
C78	C	1.390648	0.108481	-0.797557
H79	H	1.506562	0.086327	-0.873827
H80	H	1.424564	0.033202	-0.882326
H81	H	1.506525	0.020346	-0.812958
H82	H	1.347000	0.146160	-0.830128
H83	H	1.428970	0.133319	-0.760755
C84	C	1.165739	-0.394237	-0.156117
C85	C	1.258099	-0.363424	-0.151703
H86	H	1.165144	-0.420990	-0.205158
H87	H	1.104470	-0.353639	-0.153121
H88	H	1.164977	-0.428989	-0.113071
H89	H	1.258857	-0.328667	-0.194747
H90	H	1.319385	-0.404026	-0.154708
C91	C	1.161159	-0.599242	-0.195488
C92	C	1.252927	-0.594700	-0.151714
H93	H	1.161780	-0.572516	-0.244542
H94	H	1.099488	-0.576458	-0.165811
H95	H	1.159984	-0.651835	-0.205811
H96	H	1.254098	-0.542107	-0.141387
H97	H	1.314614	-0.617481	-0.181398
C98	C	1.326224	0.164037	-0.154411
C99	C	1.390590	0.108487	-0.202384
H100	H	1.369895	0.192338	-0.126097
H101	H	1.287909	0.139204	-0.117625
H102	H	1.277228	0.198251	-0.186980
H103	H	1.439581	0.074269	-0.169814
H104	H	1.428923	0.133322	-0.239174
C105	C	1.447067	0.145094	-0.323302
C106	C	1.390600	0.108488	-0.377560
H107	H	1.490728	0.173401	-0.351610
H108	H	1.490718	0.107411	-0.290752
H109	H	1.398045	0.179308	-0.290757
H110	H	1.439622	0.074270	-0.410102
H111	H	1.346945	0.146175	-0.410124
C112	C	1.260719	-0.249184	0.215148
C113	C	1.261866	-0.197942	0.151717
H114	H	1.261316	-0.222436	0.264192
H115	H	1.321993	-0.289776	0.212144
H116	H	1.198056	-0.270082	0.212133
H117	H	1.324533	-0.177048	0.154728
H118	H	1.200585	-0.157336	0.154723
H119	H	1.372286	0.096602	-0.634278
C120	C	0.554450	0.184003	0.068170
C121	C	0.535423	0.143166	0.000017
H122	H	0.508092	0.233360	0.068177
H123	H	0.626568	0.190070	0.068158
H124	H	0.541575	0.156278	0.114397
H125	H	0.548306	0.170888	-0.046210
H126	H	0.463288	0.137102	0.000022
H127	H	1.252707	-0.605910	0.131124
H128	H	1.138781	-0.054710	-0.365719
C129	C	1.247486	-0.837660	0.136468
C130	C	1.249237	-0.760148	0.151722
H131	H	1.246886	-0.864401	0.185514
H132	H	1.309154	-0.860427	0.106778
H133	H	1.185217	-0.840721	0.106775
H134	H	1.311510	-0.757087	0.181411
H135	H	1.187562	-0.737375	0.181424
H136	H	1.249445	-0.748924	-0.131114
H137	H	1.138760	-0.054710	-0.214317
C138	C	1.013183	-0.038817	-0.642644
C139	C	1.120431	-0.066586	-0.622446
H140	H	0.969493	-0.067109	-0.614348
H141	H	1.004002	-0.044779	-0.698314
H142	H	0.993316	0.014268	-0.628956
H143	H	1.140300	-0.119671	-0.636140
H144	H	1.129617	-0.060632	-0.566764
C145	C	0.914816	-0.158700	0.000027
C146	C	0.975617	-0.101270	0.000016
H147	H	0.961158	-0.208063	0.000040
H148	H	0.871034	-0.153506	-0.046204
H149	H	0.871035	-0.153485	0.046261
H150	H	1.019393	-0.106482	-0.046222
H151	H	1.019417	-0.106466	0.046251
H152	H	1.138796	-0.054708	-0.785713
