data_functionalizedCrystal
_audit_creation_method	'MofGen! by Chris Wilmer'
_symmetry_space_group_name_H-M	'P1'
_symmetry_Int_Tables_number	1
_symmetry_cell_setting	triclinic
loop_
_symmetry_equiv_pos_as_xyz
  x,y,z
_cell_length_a	15.538191
_cell_length_b	9.565339
_cell_length_c	10.489741
_cell_angle_alpha	89.999484
_cell_angle_beta	65.905634
_cell_angle_gamma	90.003605
loop_
_atom_site_label
_atom_site_type_symbol
_atom_site_fract_x
_atom_site_fract_y
_atom_site_fract_z
O1	O	1.247110	0.116277	-0.412975
O2	O	0.973847	0.116276	-0.266160
O3	O	1.116696	0.116268	-0.528122
O4	O	1.104260	0.116285	-0.151013
O5	O	1.116685	-0.116252	-0.528104
O6	O	0.973836	-0.116244	-0.266143
O7	O	1.247099	-0.116243	-0.412957
Zn8	Zn	1.110465	-0.153161	-0.339547
Zn9	Zn	1.110480	0.153194	-0.339570
O10	O	1.104249	-0.116236	-0.150996
C11	C	0.938850	0.000015	-0.250791
C12	C	0.834587	0.000015	-0.205036
N13	N	1.110462	-0.362241	-0.339535
C14	C	0.543713	0.000017	-0.659594
C15	C	0.445739	0.000020	-0.616569
C16	C	0.424937	0.000030	-0.374562
C17	C	0.522912	0.000020	-0.417567
C18	C	0.582292	0.000015	-0.560085
C19	C	0.561491	0.000019	-0.318057
C20	C	0.659456	0.000016	-0.361059
C21	C	0.718843	0.000015	-0.503571
C22	C	0.680258	0.000013	-0.603087
C23	C	0.502109	0.000034	-0.175540
C24	C	0.540688	0.000032	-0.076031
C25	C	0.638655	0.000020	-0.119032
C26	C	0.698042	0.000019	-0.261544
C27	C	0.677241	0.000022	-0.019516
C28	C	0.775206	0.000020	-0.062518
C29	C	0.796007	0.000016	-0.304546
C30	C	1.044379	-0.453440	-0.218407
C31	C	1.129404	-0.546618	-0.233022
C32	C	1.025474	-0.546619	-0.324928
C33	C	1.195530	-0.453366	-0.354112
C34	C	1.091544	-0.453359	-0.446043
C35	C	1.176630	-0.546495	-0.460734
C36	C	1.282096	0.000020	-0.428327
C37	C	1.386359	0.000030	-0.474081
C38	C	1.115752	0.000009	-0.575198
C39	C	1.112941	0.000011	-0.715491
N40	N	1.110491	0.362273	-0.339595
C41	C	1.022051	0.000021	-0.740418
C42	C	1.064981	-0.114623	-0.852945
C43	C	1.065014	0.114623	-0.852947
C44	C	1.155909	-0.114728	-0.826171
C45	C	1.155929	0.114622	-0.826158
C46	C	1.198926	-0.000050	-0.938689
C47	C	1.105194	0.000027	-0.103919
C48	C	1.108004	0.000033	0.036374
H49	H	0.844359	0.000004	-0.420598
H50	H	0.947321	-0.000095	-0.655237
F51	F	0.971402	-0.400029	-0.084463
F52	F	0.816268	0.000021	0.043390
H53	H	1.075497	-0.412364	-0.536040
F54	F	1.296690	-0.000129	-1.049775
H55	H	1.194359	0.211551	-0.813390
H56	H	1.026549	0.211555	-0.865628
H57	H	0.376577	0.000040	-0.258523
H58	H	0.798612	0.000032	-0.538581
H59	H	1.267432	-0.412577	-0.366379
F60	F	0.743460	-0.000009	-0.754771
H61	H	0.592064	0.000004	-0.775646
F62	F	1.150346	-0.600161	-0.115336
H63	H	1.232589	-0.587096	-0.563227
H64	H	0.422340	0.000040	-0.140533
F65	F	0.404684	0.000004	-0.722492
H66	H	0.492328	0.000042	0.040008
F67	F	0.931515	-0.600162	-0.308756
F68	F	1.014710	-0.241311	-0.869572
F69	F	1.206130	-0.241554	-0.809748
H70	H	0.628879	0.000040	0.096522
