data_functionalizedCrystal
_audit_creation_method	'MofGen! by Chris Wilmer'
_symmetry_space_group_name_H-M	'P1'
_symmetry_Int_Tables_number	1
_symmetry_cell_setting	triclinic
loop_
_symmetry_equiv_pos_as_xyz
  x,y,z
_cell_length_a	29.839131
_cell_length_b	12.759401
_cell_length_c	12.759393
_cell_angle_alpha	90.018496
_cell_angle_beta	89.962110
_cell_angle_gamma	89.958419
loop_
_atom_site_label
_atom_site_type_symbol
_atom_site_fract_x
_atom_site_fract_y
_atom_site_fract_z
Zn1	Zn	-0.178825	-1.606060	-0.593935
Zn2	Zn	-0.253963	-1.605873	-0.418236
Zn3	Zn	-0.178848	-1.430362	-0.418275
Zn4	Zn	-0.253929	-1.430269	-0.593877
O5	O	-0.216391	-1.518141	-0.506081
O6	O	-0.188797	-1.753056	-0.570636
O7	O	-0.244024	-1.582551	-0.271220
O8	O	-0.115978	-1.453787	-0.441617
O9	O	-0.244001	-1.752919	-0.441551
O10	O	-0.115961	-1.582871	-0.570674
O11	O	-0.188837	-1.453605	-0.271248
O12	O	-0.188803	-1.283329	-0.441561
O13	O	-0.243942	-1.453628	-0.740906
O14	O	-0.243965	-1.283260	-0.570575
O15	O	-0.188763	-1.582781	-0.740949
O16	O	-0.316826	-1.582461	-0.441495
O17	O	-0.316801	-1.453446	-0.570538
C18	C	-0.216383	-1.245174	-0.506066
C19	C	-0.216390	-1.128397	-0.506085
C20	C	-0.333114	-1.517951	-0.506029
C21	C	-0.383048	-1.517966	-0.506041
C22	C	-0.216346	-1.518215	-0.780114
C23	C	-0.216327	-1.518246	-0.896891
C24	C	-0.692692	-1.585441	-0.438986
C25	C	-0.880365	-1.585571	-0.439027
O26	O	-0.904631	-1.642790	-0.381974
N27	N	-0.903833	-1.518359	-0.506160
C28	C	-0.880380	-1.451114	-0.573292
O29	O	-0.904648	-1.393957	-0.630402
C30	C	-0.692708	-1.450991	-0.573256
C31	C	-0.669243	-1.518200	-0.506111
C32	C	-0.669227	-1.652646	-0.371848
C33	C	-0.622311	-1.652609	-0.371834
C34	C	-0.598861	-1.585367	-0.438959
C35	C	-0.622327	-1.518163	-0.506098
C36	C	-0.669256	-1.383752	-0.640393
C37	C	-0.622335	-1.383729	-0.640380
C38	C	-0.598869	-1.450938	-0.573235
C39	C	-0.551962	-1.450884	-0.573209
N40	N	-0.528494	-1.518096	-0.506076
C41	C	-0.551944	-1.585338	-0.438951
C42	C	-0.978911	-1.451183	-0.573305
C43	C	-1.025829	-1.451212	-0.573313
C44	C	-1.025811	-1.585670	-0.439049
C45	C	-0.978892	-1.585635	-0.439036
C46	C	-0.955443	-1.518395	-0.506172
C47	C	-0.453418	-1.585254	-0.438927
C48	C	-0.406498	-1.585208	-0.438916
C49	C	-0.406521	-1.450754	-0.573184
C50	C	-0.453436	-1.450796	-0.573191
C51	C	-0.476884	-1.518054	-0.506059
O52	O	-0.527668	-1.393703	-0.630240
O53	O	-0.527668	-1.642503	-0.381867
C54	C	-0.739608	-1.585479	-0.439000
C55	C	-0.763073	-1.518274	-0.506138
C56	C	-0.739624	-1.451033	-0.573263
C57	C	-0.809991	-1.518304	-0.506146
C58	C	-0.833441	-1.585545	-0.439021
C59	C	-0.809973	-1.652757	-0.371888
C60	C	-0.763058	-1.652720	-0.371875
C61	C	-0.763092	-1.383820	-0.640396
C62	C	-0.810007	-1.383862	-0.640404
C63	C	-0.833457	-1.451104	-0.573279
C64	C	-0.099213	-1.518360	-0.506156
C65	C	-0.049279	-1.518454	-0.506188
C66	C	-0.216400	-1.792174	-0.506096
C67	C	-0.216404	-1.908951	-0.506102
C68	C	-0.245159	-1.073527	-0.573152
C69	C	-0.245165	-0.963803	-0.573163
C70	C	-0.187632	-0.963829	-0.439032
C71	C	-0.187624	-1.073551	-0.439027
C72	C	-0.273925	-1.128373	-0.640210
C73	C	-0.302696	-1.073503	-0.707282
C74	C	-0.302702	-0.963779	-0.707293
C75	C	-0.273936	-0.908925	-0.640233
C76	C	-0.187593	-1.585505	-0.951777
C77	C	-0.187576	-1.585530	-1.061501
C78	C	-0.245032	-1.451034	-1.061444
C79	C	-0.245046	-1.451004	-0.951722
C80	C	-0.158873	-1.652747	-0.896946
C81	C	-0.130137	-1.720013	-0.951832
C82	C	-0.130121	-1.720038	-1.061556
C83	C	-0.158841	-1.652797	-1.116394
C84	C	-0.216404	-1.518128	-0.233113
C85	C	-0.216297	-1.518301	-0.116337
H86	H	-0.387394	-1.639938	-0.384235
N87	N	-0.099166	-1.792537	-0.892687
H88	H	-0.067062	-1.776294	-0.911795
H89	H	-0.103578	-1.782282	-0.814870
N90	N	-0.158882	-1.652722	-0.778603
H91	H	-0.150622	-1.580660	-0.752176
H92	H	-0.189711	-1.672008	-0.752226
N93	N	-0.099121	-1.792565	-1.120758
H94	H	-0.080930	-1.835151	-1.069370
H95	H	-0.117401	-1.841163	-1.166278
H96	H	-0.158820	-1.652811	-1.205739
H97	H	-0.268415	-1.396289	-1.106102
H98	H	-0.268437	-1.396220	-0.907032
H99	H	-0.472503	-1.640025	-0.384264
N100	N	-0.333731	-0.904592	-0.779627
H101	H	-0.326795	-0.923727	-0.854724
H102	H	-0.365807	-0.923663	-0.763069
N103	N	-0.597005	-1.725115	-0.299429
H104	H	-0.618986	-1.767717	-0.256920
H105	H	-0.577508	-1.773697	-0.342244
N106	N	-0.156617	-0.904668	-0.366689
H107	H	-0.135823	-0.859176	-0.409466
H108	H	-0.174893	-0.859172	-0.317947
N109	N	-0.333720	-1.132654	-0.779610
H110	H	-0.315487	-1.178227	-0.828372
H111	H	-0.354510	-1.178067	-0.736742
H112	H	-0.688315	-1.707408	-0.317186
H113	H	-0.273924	-1.217716	-0.640207
N114	N	-0.273937	-0.790579	-0.640253
H115	H	-0.296525	-0.764140	-0.692920
H116	H	-0.282146	-0.764189	-0.568113
H117	H	-1.044911	-1.640422	-0.384393
N118	N	-0.953584	-1.658127	-0.366621
H119	H	-0.975563	-1.700724	-0.324101
H120	H	-0.934085	-1.706716	-0.409426
N121	N	-1.051136	-1.378705	-0.645715
H122	H	-1.029157	-1.336107	-0.688234
H123	H	-1.070569	-1.421450	-0.694381
H124	H	-0.472543	-1.396072	-0.627869
H125	H	-0.688354	-1.329018	-0.695065
N126	N	-0.953623	-1.378650	-0.645715
H127	H	-0.975613	-1.336078	-0.688235
H128	H	-0.934192	-1.330038	-0.602902
H129	H	-0.387420	-1.396003	-0.627834
N130	N	-0.156595	-1.132742	-0.366696
H131	H	-0.138376	-1.081350	-0.324209
H132	H	-0.174855	-1.178226	-0.317996
H133	H	-0.744003	-1.329065	-0.695059
N134	N	-0.597044	-1.311207	-0.712795
H135	H	-0.619031	-1.268640	-0.755327
H136	H	-0.577613	-1.262590	-0.669986
N137	N	-0.737752	-1.725217	-0.299460
H138	H	-0.759732	-1.767816	-0.256948
H139	H	-0.718252	-1.773803	-0.342266
H140	H	-0.829074	-1.707505	-0.317230
H141	H	-0.829109	-1.329123	-0.695080
