data_functionalizedCrystal
_audit_creation_method	'MofGen! by Chris Wilmer'
_symmetry_space_group_name_H-M	'P1'
_symmetry_Int_Tables_number	1
_symmetry_cell_setting	triclinic
loop_
_symmetry_equiv_pos_as_xyz
  x,y,z
_cell_length_a	14.971486
_cell_length_b	14.971486
_cell_length_c	14.048226
_cell_angle_alpha	89.998099
_cell_angle_beta	90.000107
_cell_angle_gamma	96.385872
loop_
_atom_site_label
_atom_site_type_symbol
_atom_site_fract_x
_atom_site_fract_y
_atom_site_fract_z
O1	O	-1.186945	0.116561	0.079039
O2	O	-0.686945	0.616561	0.579039
O3	O	-0.926545	0.130520	0.079064
O4	O	-0.426545	0.630520	0.579064
O5	O	-1.063725	-0.006660	0.079058
O6	O	-0.563725	0.493340	0.579058
O7	O	-1.049766	0.253741	0.079045
O8	O	-0.549766	0.753741	0.579045
O9	O	-1.063712	-0.006661	-0.079264
O10	O	-0.563712	0.493339	0.420736
O11	O	-0.926532	0.130519	-0.079258
O12	O	-0.426532	0.630519	0.420742
O13	O	-1.186932	0.116560	-0.079282
O14	O	-0.686932	0.616560	0.420718
Zn15	Zn	-1.056730	0.123539	-0.104407
Zn16	Zn	-0.556730	0.623539	0.395593
Zn17	Zn	-1.056747	0.123541	0.104188
Zn18	Zn	-0.556747	0.623541	0.604188
O19	O	-1.049753	0.253739	-0.079276
O20	O	-0.549753	0.753739	0.420724
C21	C	-1.063094	-0.039985	-0.000099
C22	C	-0.563094	0.460015	0.499901
C23	C	-1.061223	-0.139282	-0.000087
C24	C	-0.561223	0.360718	0.499913
C25	C	-0.893214	0.129895	-0.000094
C26	C	-0.393214	0.629895	0.499906
C27	C	-0.793917	0.128024	-0.000084
C28	C	-0.293917	0.628024	0.499916
N29	N	-1.056725	0.123538	-0.246767
N30	N	-0.556725	0.623538	0.253233
C31	C	-1.220263	0.117185	-0.000123
C32	C	-0.720263	0.617185	0.499877
C33	C	-1.319561	0.119056	-0.000126
C34	C	-0.819561	0.619056	0.499874
C35	C	-0.736692	0.208614	-0.000089
C36	C	-0.236692	0.708614	0.499911
C37	C	-0.643392	0.206850	-0.000103
C38	C	-0.143392	0.706850	0.499897
C39	C	-0.607320	0.124497	-0.000105
C40	C	-0.107320	0.624497	0.499895
C41	C	-0.664552	0.043902	-0.000103
C42	C	-0.164552	0.543902	0.499897
C43	C	-0.757850	0.045666	-0.000095
C44	C	-0.257850	0.545666	0.499905
C45	C	-0.470090	0.040231	-0.000116
C46	C	0.029910	0.540231	0.499884
C47	C	-0.376786	0.038466	-0.000121
C48	C	0.123214	0.538466	0.499879
C49	C	-0.355632	0.201415	-0.000123
C50	C	0.144368	0.701415	0.499877
C51	C	-0.448930	0.203179	-0.000116
C52	C	0.051070	0.703179	0.499884
C53	C	-0.506156	0.122584	-0.000112
C54	C	-0.006156	0.622584	0.499888
C55	C	-1.050384	0.287065	-0.000117
C56	C	-0.550384	0.787065	0.499883
C57	C	-1.052254	0.386362	-0.000123
C58	C	-0.552254	0.886362	0.499877
C59	C	-0.971665	0.443587	-0.000114
C60	C	-0.471665	0.943587	0.499886
C61	C	-0.973428	0.536887	-0.000102
C62	C	-0.473428	1.036887	0.499898
C63	C	-1.055781	0.572959	-0.000104
C64	C	-0.555781	1.072959	0.499896
C65	C	-1.136377	0.515726	-0.000110
C66	C	-0.636377	1.015726	0.499890
C67	C	-1.134613	0.422429	-0.000116
C68	C	-0.634613	0.922429	0.499884
C69	C	-1.140048	0.710189	-0.000100
C70	C	-0.640048	1.210189	0.499900
C71	C	-1.141812	0.803493	-0.000096
C72	C	-0.641812	1.303493	0.499904
C73	C	-0.978863	0.824647	-0.000086
C74	C	-0.478863	1.324647	0.499914
C75	C	-0.977099	0.731349	-0.000092
C76	C	-0.477099	1.231349	0.499908
C77	C	-1.057695	0.674123	-0.000099
C78	C	-0.557695	1.174123	0.499901
C79	C	-1.111027	0.177879	-0.296590
C80	C	-0.611027	0.677879	0.203410
C81	C	-1.111039	0.177875	-0.396247
C82	C	-0.611039	0.677875	0.103753
C83	C	-1.056742	0.123534	-0.446081
C84	C	-0.556742	0.623534	0.053919
C85	C	-1.002438	0.069187	-0.396252
C86	C	-0.502438	0.569187	0.103748
C87	C	-1.002432	0.069186	-0.296596
C88	C	-0.502432	0.569186	0.203404
C89	C	-1.002453	0.069193	-0.603966
C90	C	-0.502453	0.569193	-0.103966
C91	C	-1.002457	0.069194	-0.703629
C92	C	-0.502457	0.569194	-0.203629
C93	C	-1.111060	0.177881	-0.703617
C94	C	-0.611060	0.677881	-0.203617
C95	C	-1.111054	0.177881	-0.603962
C96	C	-0.611054	0.677881	-0.103962
C97	C	-1.056748	0.123535	-0.554139
C98	C	-0.556748	0.623535	-0.054139
N99	N	-1.056760	0.123535	0.246549
N100	N	-0.556760	0.623535	0.746549
H101	H	-0.766054	0.275675	-0.000087
H102	H	-0.266054	0.775675	0.499913
H103	H	-1.155274	0.222136	-0.744187
H104	H	-0.655274	0.722136	-0.244187
H105	H	-1.155259	0.222123	-0.436808
H106	H	-0.655259	0.722123	0.063192
H107	H	-0.596802	0.272474	-0.000106
H108	H	-0.096802	0.772474	0.499894
H109	H	-0.516682	-0.025399	-0.000114
H110	H	-0.016682	0.474601	0.499886
H111	H	-1.155262	0.222134	-0.563390
H112	H	-0.655262	0.722134	-0.063390
O113	O	-0.943895	0.010582	-0.757377
O114	O	-0.443895	0.510582	-0.257377
H115	H	-0.986731	-0.037408	-0.802786
H116	H	-0.486731	0.462592	-0.302786
H117	H	-0.958232	0.024937	-0.563404
H118	H	-0.458232	0.524937	-0.063404
H119	H	-0.907804	0.583476	-0.000092
H120	H	-0.407804	1.083476	0.499908
H121	H	-1.205678	0.663597	-0.000098
H122	H	-0.705678	1.163597	0.499902
O123	O	-0.625652	-0.044925	-0.000113
O124	O	-0.125652	0.455075	0.499887
H125	H	-0.583654	-0.049635	0.064417
H126	H	-0.083654	0.450365	0.564417
H127	H	-0.958233	0.024937	-0.436834
H128	H	-0.458233	0.524937	0.063166
H129	H	-0.904604	0.414225	-0.000123
H130	H	-0.404604	0.914225	0.499877
H131	H	-0.804443	-0.019958	-0.000090
H132	H	-0.304443	0.480042	0.499910
H133	H	-0.958213	0.024936	-0.256032
H134	H	-0.458213	0.524936	0.243968
H135	H	-1.203430	0.545104	-0.000114
H136	H	-0.703430	1.045104	0.499886
H137	H	-1.208871	0.832859	-0.000096
H138	H	-0.708871	1.332859	0.499904
H139	H	-0.913239	0.871245	-0.000083
H140	H	-0.413239	1.371245	0.499917
O141	O	-1.221534	0.360702	-0.000138
O142	O	-0.721534	0.860702	0.499862
H143	H	-1.260952	0.373533	0.064384
H144	H	-0.760952	0.873533	0.564384
O145	O	-0.487843	0.292000	-0.000126
O146	O	0.012157	0.792000	0.499874
H147	H	-0.432377	0.347747	-0.000144
H148	H	0.067623	0.847747	0.499856
O149	O	-0.293917	0.288348	-0.000138
O150	O	0.206083	0.788348	0.499862
H151	H	-0.222981	0.273290	-0.000158
H152	H	0.277019	0.773290	0.499842
H153	H	-1.155236	0.222135	-0.256022
H154	H	-0.655236	0.722135	0.243978
O155	O	-0.337873	-0.050354	-0.000141
O156	O	0.162127	0.449646	0.499859
H157	H	-0.360850	-0.089101	0.064379
H158	H	0.139150	0.410899	0.564379
O159	O	-0.888279	0.692436	-0.000094
O160	O	-0.388279	1.192436	0.499906
H161	H	-0.832531	0.747901	-0.000080
H162	H	-0.332531	1.247901	0.499920
