data_functionalizedCrystal
_audit_creation_method	'MofGen! by Chris Wilmer'
_symmetry_space_group_name_H-M	'P1'
_symmetry_Int_Tables_number	1
_symmetry_cell_setting	triclinic
loop_
_symmetry_equiv_pos_as_xyz
  x,y,z
_cell_length_a	19.188930
_cell_length_b	14.853567
_cell_length_c	18.266242
_cell_angle_alpha	90.002654
_cell_angle_beta	89.990385
_cell_angle_gamma	96.610144
loop_
_atom_site_label
_atom_site_type_symbol
_atom_site_fract_x
_atom_site_fract_y
_atom_site_fract_z
O1	O	0.091155	-1.195859	-0.060839
O2	O	0.102014	-0.933340	-0.060853
O3	O	-0.005046	-1.072175	-0.060831
O4	O	0.198215	-1.057024	-0.060860
O5	O	-0.005048	-1.072160	0.060931
O6	O	0.102011	-0.933325	0.060909
O7	O	0.091153	-1.195844	0.060923
Zn8	Zn	0.096582	-1.064582	0.080249
Zn9	Zn	0.096585	-1.064602	-0.080178
O10	O	0.198212	-1.057009	0.060901
C11	C	0.101521	-0.899746	0.000027
C12	C	0.100046	-0.799671	0.000022
C13	C	-0.031060	-1.071677	0.000052
C14	C	-0.108569	-1.070204	0.000058
C15	C	0.091646	-1.229438	0.000042
C16	C	0.093120	-1.329513	0.000042
C17	C	-0.153221	-1.151668	0.000066
C18	C	-0.226050	-1.150285	0.000054
C19	C	-0.254223	-1.067432	0.000049
C20	C	-0.209561	-0.985957	0.000037
C21	C	-0.136734	-0.987343	0.000042
N22	N	-0.362440	-1.004096	0.041484
N23	N	-0.431623	-1.002785	0.041481
C24	C	-0.473645	-1.063251	0.000034
N25	N	-0.443873	-1.125091	-0.041401
N26	N	-0.374684	-1.126405	-0.041395
C27	C	-0.333190	-1.065920	0.000044
C28	C	-0.597267	-1.143220	0.000028
C29	C	-0.670096	-1.141833	0.000012
C30	C	-0.653606	-0.977503	0.000003
C31	C	-0.580778	-0.978893	0.000011
C32	C	-0.552613	-1.061754	0.000028
C33	C	0.224226	-1.057507	0.000017
C34	C	0.301736	-1.058980	0.000006
N35	N	0.096579	-1.064575	0.189735
C36	C	0.030218	-0.387525	0.000049
C37	C	0.157407	-0.365537	0.000030
C38	C	0.158794	-0.459563	0.000027
C39	C	0.095891	-0.517574	0.000034
C40	C	0.031602	-0.481560	0.000044
C41	C	0.223081	-0.495585	0.000010
C42	C	0.224470	-0.589616	0.000007
C43	C	0.161567	-0.647629	0.000019
C44	C	0.097276	-0.611610	0.000030
C45	C	0.034373	-0.669621	0.000037
C46	C	-0.029919	-0.633603	0.000053
C47	C	-0.031301	-0.539574	0.000056
C48	C	0.162949	-0.741659	0.000015
C49	C	0.035757	-0.763656	0.000032
N50	N	0.096582	-1.064616	-0.189665
C51	C	0.049189	-1.126094	0.772022
C52	C	0.049191	-1.126095	0.695377
C53	C	0.096579	-1.064603	0.657048
C54	C	0.143981	-1.003120	0.695370
C55	C	0.143982	-1.003127	0.772013
N56	N	0.105361	-0.984789	0.536717
N57	N	0.105355	-0.984786	0.463909
C58	C	0.096577	-1.064580	0.426126
N59	N	0.087792	-1.144381	0.463901
N60	N	0.087794	-1.144384	0.536716
C61	C	0.096582	-1.064589	0.573941
C62	C	0.049183	-1.126065	0.304706
C63	C	0.049190	-1.126067	0.228059
C64	C	0.143976	-1.003084	0.228054
C65	C	0.143973	-1.003090	0.304698
C66	C	0.096573	-1.064579	0.343020
H67	H	-0.130295	-1.219140	0.000077
N68	N	0.000774	-1.188887	0.811181
N69	N	0.022985	-1.244758	0.853954
H70	H	-0.011211	-1.289096	0.881618
N71	N	-0.094164	-0.692879	0.000067
N72	N	-0.107571	-0.747810	0.051389
H73	H	-0.152942	-0.789679	0.051400
H74	H	0.010596	-1.176160	0.664177
H75	H	0.182566	-0.953054	0.664158
N76	N	-0.271662	-1.233510	0.000061
N77	N	-0.246506	-1.307484	0.000074
H78	H	-0.278717	-1.366263	0.000080
N79	N	0.192402	-0.940321	0.811142
N80	N	0.234714	-0.885425	0.776915
H81	H	0.268911	-0.841067	0.804550
N82	N	-0.028498	-0.822911	0.000056
N83	N	-0.071229	-0.819775	0.051394
H84	H	-0.116610	-0.861625	0.051413
N85	N	-0.238346	-0.901333	0.000026
N86	N	-0.303371	-0.900106	0.000023
H87	H	-0.323701	-0.840337	0.000011
H88	H	-0.100377	-0.921003	0.000036
H89	H	0.274293	-0.448345	-0.000003
N90	N	-0.535162	-0.895678	0.000028
N91	N	-0.492698	-0.878115	0.051359
H92	H	-0.460481	-0.819341	0.051370
H93	H	-0.022127	-0.358195	0.000065
H94	H	0.182562	-0.953025	0.335895
H95	H	-0.574334	-1.210691	0.000038
N96	N	0.000787	-1.188900	0.343851
N97	N	0.023026	-1.244773	0.386603
H98	H	-0.011151	-1.289157	0.414246
H99	H	0.215294	-0.770981	0.000004
H100	H	0.182563	-0.953020	0.196847
H101	H	0.010599	-1.176134	0.196865
H102	H	-0.706452	-1.208174	0.000014
H103	H	-0.083644	-0.510239	0.000087
H104	H	-0.676543	-0.910043	-0.000005
H105	H	0.208620	-0.318299	0.000018
H106	H	0.276821	-0.618933	-0.000006
