data_functionalizedCrystal
_audit_creation_method	'MofGen! by Chris Wilmer'
_symmetry_space_group_name_H-M	'P1'
_symmetry_Int_Tables_number	1
_symmetry_cell_setting	triclinic
loop_
_symmetry_equiv_pos_as_xyz
  x,y,z
_cell_length_a	6.817900
_cell_length_b	11.102183
_cell_length_c	11.102228
_cell_angle_alpha	91.947977
_cell_angle_beta	108.604565
_cell_angle_gamma	108.603876
loop_
_atom_site_label
_atom_site_type_symbol
_atom_site_fract_x
_atom_site_fract_y
_atom_site_fract_z
V1	V	-4.111506	-0.175841	-0.396254
O2	O	-4.070550	0.008447	-0.388713
O3	O	-4.088272	-0.348661	-0.393542
O4	O	-4.088281	-0.173138	-0.569075
O5	O	-4.070541	-0.168291	-0.211965
V6	V	-4.588611	-0.153798	-0.374212
O7	O	-4.386843	-0.224195	-0.444606
O8	O	-4.763471	-0.105445	-0.325861
O9	O	-4.388638	0.019022	-0.376924
O10	O	-4.746963	-0.338086	-0.381753
O11	O	-4.746972	-0.161348	-0.558501
O12	O	-4.388629	-0.156502	-0.201391
C13	C	-3.938581	-0.390791	-0.387290
C14	C	-4.001039	-0.532073	-0.386225
C15	C	-3.938591	-0.166892	-0.611199
C16	C	-4.001052	-0.165825	-0.752481
C17	C	-4.090554	-0.281708	-0.837004
C18	C	-4.149254	-0.280703	-0.969754
C19	C	-4.028933	-0.047920	-0.933444
C20	C	-3.970248	-0.048927	-0.800697
C21	C	-4.420005	-0.423234	-1.177141
C22	C	-4.509477	-0.539122	-1.261668
C23	C	-4.425255	-0.638130	-1.230453
C24	C	-4.251515	-0.621253	-1.114711
C25	C	-4.162027	-0.505362	-1.030190
C26	C	-4.246298	-0.406360	-1.061406
C27	C	-3.699484	0.093596	-0.593308
C28	C	-3.609980	0.209489	-0.508784
C29	C	-3.694182	0.308508	-0.539994
C30	C	-3.867887	0.291645	-0.655737
C31	C	-3.957391	0.175752	-0.740262
C32	C	-3.873189	0.076732	-0.709042
C33	C	-3.880691	-0.495794	-0.153446
C34	C	-3.849857	-0.544028	-0.036560
C35	C	-3.908551	-0.676776	-0.035566
C36	C	-3.998092	-0.761295	-0.151470
C37	C	-4.028926	-0.713061	-0.268355
C38	C	-3.970218	-0.580308	-0.269337
C39	C	-4.149287	-0.749340	-0.501132
C40	C	-4.090580	-0.616592	-0.502129
C41	C	-4.238828	-0.833859	-0.617036
C42	C	-4.269649	-0.785624	-0.733924
C43	C	-4.210947	-0.652867	-0.734913
C44	C	-4.121414	-0.568357	-0.619014
C45	C	-4.201672	0.061145	-0.383172
C46	C	-4.118453	0.202426	-0.384246
C47	C	-4.201661	-0.162752	-0.159261
C48	C	-4.118437	-0.163812	-0.017977
H49	H	-4.020564	-0.491619	-0.935959
C50	C	-4.124451	-0.410286	-0.783964
H51	H	-4.076666	-0.394292	-0.692798
H52	H	-4.276510	-0.462002	-0.817319
H53	H	-4.041054	-0.453881	-0.809039
H54	H	-3.621236	0.402891	-0.471182
H55	H	-3.630909	0.012969	-0.567884
H56	H	-4.182928	-0.701875	-1.089314
H57	H	-4.236087	-0.613606	-0.830097
H58	H	-3.832834	-0.387700	-0.154242
H59	H	-4.498110	-0.732489	-1.299285
H60	H	-4.650945	-0.552855	-1.355905
H61	H	-4.488620	-0.342627	-1.202561
C62	C	-3.874635	-0.729838	0.093004
H63	H	-3.812893	-0.660495	0.161890
H64	H	-4.012745	-0.785010	0.094176
H65	H	-3.777298	-0.776728	0.102272
C66	C	-3.995028	0.080657	-0.986486
H67	H	-4.042774	0.064662	-1.077650
H68	H	-4.078407	0.124260	-0.961415
H69	H	-3.842954	0.132367	-0.953127
H70	H	-4.073580	-0.460263	-0.619808
H71	H	-4.098836	0.162028	-0.834506
H72	H	-4.286628	-0.941948	-0.616218
C73	C	-3.418895	0.228049	-0.381471
H74	H	-3.377635	0.311256	-0.335611
H75	H	-3.465021	0.164835	-0.331092
H76	H	-3.296119	0.219529	-0.399174
C77	C	-4.368129	-0.878591	-0.861399
H78	H	-4.398665	-0.964558	-0.844066
H79	H	-4.500945	-0.868424	-0.913442
H80	H	-4.265497	-0.860159	-0.905326
H81	H	-3.776954	-0.475199	0.057806
H82	H	-3.936450	0.372275	-0.681151
H83	H	-4.045903	-0.869385	-0.150650
