data_functionalizedCrystal
_audit_creation_method	'MofGen! by Chris Wilmer'
_symmetry_space_group_name_H-M	'P1'
_symmetry_Int_Tables_number	1
_symmetry_cell_setting	triclinic
loop_
_symmetry_equiv_pos_as_xyz
  x,y,z
_cell_length_a	13.897448
_cell_length_b	13.897449
_cell_length_c	14.908854
_cell_angle_alpha	86.725954
_cell_angle_beta	86.672404
_cell_angle_gamma	89.982380
loop_
_atom_site_label
_atom_site_type_symbol
_atom_site_fract_x
_atom_site_fract_y
_atom_site_fract_z
Zn1	Zn	-0.352517	-1.443205	-0.510204
Zn2	Zn	-0.523143	-1.452412	-0.359347
Zn3	Zn	-0.361864	-1.291207	-0.359349
Zn4	Zn	-0.513775	-1.281879	-0.510147
O5	O	-0.437825	-1.367176	-0.434762
O6	O	-0.375160	-1.579406	-0.490216
O7	O	-0.509582	-1.438785	-0.233104
O8	O	-0.225641	-1.311420	-0.379385
O9	O	-0.500518	-1.586171	-0.379382
O10	O	-0.218774	-1.423093	-0.490218
O11	O	-0.391090	-1.320348	-0.233105
O12	O	-0.382006	-1.154990	-0.379330
O13	O	-0.484551	-1.295522	-0.636399
O14	O	-0.493615	-1.148136	-0.490121
O15	O	-0.366076	-1.414048	-0.636441
O16	O	-0.656884	-1.429740	-0.379327
O17	O	-0.650001	-1.304450	-0.490119
C18	C	-0.437809	-1.116564	-0.434720
C19	C	-0.437824	-1.009350	-0.434723
C20	C	-0.437825	-0.922280	-0.434734
C21	C	-0.437828	-0.813046	-0.434757
C22	C	-0.688441	-1.367107	-0.434736
C23	C	-0.795653	-1.367164	-0.434755
C24	C	-0.991945	-1.367262	-0.434812
C25	C	-0.882714	-1.367205	-0.434783
C26	C	-0.186229	-1.367270	-0.434808
C27	C	-0.079014	-1.367310	-0.434828
C28	C	-0.423226	-1.352717	-0.670068
C29	C	-0.417005	-1.346556	-0.770342
C30	C	-0.437838	-0.618767	-0.434794
C31	C	-0.437836	-0.725982	-0.434780
C32	C	-0.528697	-1.458329	-0.958767
C33	C	-0.522855	-1.452543	-1.052983
C34	C	-0.399474	-1.329204	-1.052991
C35	C	-0.405316	-1.334990	-0.958775
C36	C	-0.469931	-1.399553	-0.911667
C37	C	-0.475777	-1.405334	-0.817449
C38	C	-0.352392	-1.282000	-0.817459
C39	C	-0.346550	-1.276215	-0.911675
C40	C	-0.452297	-1.381633	-0.200371
C41	C	-0.458246	-1.387982	-0.100098
H42	H	-0.528386	-1.457909	-0.779094
H43	H	-0.304541	-1.234140	-0.779100
H44	H	-0.346862	-1.276645	-1.091364
Br45	Br	-0.616400	-1.545932	-0.894829
H46	H	-0.570707	-1.500405	-1.091328
H47	H	-0.293940	-1.223651	-0.950044
