data_functionalizedCrystal
_audit_creation_method	'MofGen! by Chris Wilmer'
_symmetry_space_group_name_H-M	'P1'
_symmetry_Int_Tables_number	1
_symmetry_cell_setting	triclinic
loop_
_symmetry_equiv_pos_as_xyz
  x,y,z
_cell_length_a	13.897449
_cell_length_b	25.639239
_cell_length_c	13.897441
_cell_angle_alpha	90.034305
_cell_angle_beta	90.020733
_cell_angle_gamma	90.039966
loop_
_atom_site_label
_atom_site_type_symbol
_atom_site_fract_x
_atom_site_fract_y
_atom_site_fract_z
Zn1	Zn	1.474562	-0.208116	0.545356
Zn2	Zn	1.807895	0.125217	0.878690
Zn3	Zn	2.141229	0.458550	1.212023
Zn4	Zn	1.474397	-0.295559	0.384047
Zn5	Zn	1.807730	0.037775	0.717381
Zn6	Zn	2.141063	0.371108	1.050714
Zn7	Zn	1.313251	-0.208141	0.384075
Zn8	Zn	1.646584	0.125192	0.717408
Zn9	Zn	1.979918	0.458525	1.050741
Zn10	Zn	1.313174	-0.295524	0.545300
Zn11	Zn	1.646507	0.037809	0.878633
Zn12	Zn	1.979840	0.371142	1.211967
O13	O	1.393846	-0.251835	0.464695
O14	O	1.727179	0.081498	0.798028
O15	O	2.060513	0.414831	1.131361
O16	O	1.609522	-0.219720	0.523970
O17	O	1.942855	0.113614	0.857304
O18	O	2.276188	0.446947	1.190637
O19	O	1.452984	-0.283987	0.249069
O20	O	1.786317	0.049346	0.582402
O21	O	2.119650	0.382679	0.915736
O22	O	1.334751	-0.134973	0.405504
O23	O	1.668084	0.198361	0.738837
O24	O	2.001417	0.531694	1.072171
O25	O	1.609400	-0.283963	0.405457
O26	O	1.942734	0.049370	0.738791
O27	O	2.276067	0.382703	1.072124
O28	O	1.453265	-0.134954	0.523997
O29	O	1.786598	0.198379	0.857330
O30	O	2.119932	0.531712	1.190664
O31	O	1.334591	-0.219762	0.249089
O32	O	1.667924	0.113571	0.582423
O33	O	2.001257	0.446905	0.915756
O34	O	1.178259	-0.219729	0.405449
O35	O	1.511592	0.113605	0.738783
O36	O	1.844926	0.446938	1.072116
O37	O	1.334619	-0.283905	0.680289
O38	O	1.667952	0.049429	1.013622
O39	O	2.001286	0.382762	1.346956
O40	O	1.178202	-0.283929	0.523901
O41	O	1.511536	0.049404	0.857234
O42	O	1.844869	0.382738	1.190567
O43	O	1.453190	-0.219686	0.680331
O44	O	1.786523	0.113647	1.013664
O45	O	2.119857	0.446980	1.346997
O46	O	1.452909	-0.368719	0.405403
O47	O	1.786242	-0.035386	0.738736
O48	O	2.119575	0.297947	1.072069
O49	O	1.334459	-0.368694	0.523874
O50	O	1.667792	-0.035361	0.857208
O51	O	2.001125	0.297972	1.190541
C52	C	1.143232	-0.251828	0.464673
C53	C	1.476565	0.081505	0.798006
C54	C	1.809898	0.414838	1.131339
C55	C	1.036018	-0.251838	0.464686
C56	C	1.369351	0.081496	0.798019
C57	C	1.702684	0.414829	1.131353
C58	C	0.839722	-0.251840	0.464711
C59	C	1.173056	0.081494	0.798045
C60	C	1.506389	0.414827	1.131378
C61	C	0.948955	-0.251837	0.464695
C62	C	1.282288	0.081496	0.798028
C63	C	1.615622	0.414830	1.131361
C64	C	1.393684	-0.387678	0.464650
C65	C	1.727017	-0.054344	0.797984
C66	C	2.060350	0.278989	1.131317
C67	C	1.393702	-0.445792	0.464664
C68	C	1.727036	-0.112458	0.797997
C69	C	2.060369	0.220875	1.131330
C70	C	1.455684	-0.806155	0.403111
C71	C	1.789017	-0.472822	0.736445
C72	C	2.122350	-0.139489	1.069778
C73	C	1.455721	-0.860760	0.403124
C74	C	1.789054	-0.527426	0.736458
C75	C	2.122388	-0.194093	1.069791
O76	O	1.508251	-0.888997	0.350742
O77	O	1.841585	-0.555664	0.684075
O78	O	2.174918	-0.222330	1.017409
N79	N	1.394015	-0.888074	0.464758
N80	N	1.727349	-0.554741	0.798092
N81	N	2.060682	-0.221408	1.131425
C82	C	1.332275	-0.860782	0.526391
C83	C	1.665609	-0.527448	0.859724
C84	C	1.998942	-0.194115	1.193057
O85	O	1.279794	-0.889029	0.578817
O86	O	1.613127	-0.555695	0.912150
O87	O	1.946460	-0.222362	1.245484
C88	C	1.332243	-0.806178	0.526382
C89	C	1.665577	-0.472845	0.859715
C90	C	1.998910	-0.139512	1.193048
C91	C	1.393946	-0.778867	0.464737
C92	C	1.727280	-0.445533	0.798070
C93	C	2.060613	-0.112200	1.131403
C94	C	1.517382	-0.778844	0.341472
C95	C	1.850716	-0.445510	0.674806
C96	C	2.184049	-0.112177	1.008139
C97	C	1.517343	-0.724243	0.341458
C98	C	1.850677	-0.390910	0.674792
C99	C	2.184010	-0.057576	1.008125
C100	C	1.455606	-0.696954	0.403084
C101	C	1.788939	-0.363621	0.736417
C102	C	2.122273	-0.030288	1.069750
C103	C	1.393907	-0.724266	0.464723
C104	C	1.727241	-0.390933	0.798056
C105	C	2.060574	-0.057599	1.131390
C106	C	1.270509	-0.778887	0.588018
C107	C	1.603842	-0.445553	0.921351
C108	C	1.937175	-0.112220	1.254685
C109	C	1.270483	-0.724280	0.588004
C110	C	1.603816	-0.390946	0.921338
C111	C	1.937150	-0.057613	1.254671
C112	C	1.332186	-0.696968	0.526359
C113	C	1.665519	-0.363635	0.859693
C114	C	1.998852	-0.030301	1.193026
C115	C	1.332131	-0.642377	0.526334
C116	C	1.665464	-0.309043	0.859668
C117	C	1.998798	0.024290	1.193001
N118	N	1.393837	-0.615062	0.464700
N119	N	1.727170	-0.281729	0.798033
N120	N	2.060503	0.051604	1.131367
C121	C	1.455574	-0.642351	0.403075
C122	C	1.788907	-0.309018	0.736408
C123	C	2.122241	0.024316	1.069742
C124	C	1.332348	-0.975452	0.526405
C125	C	1.665681	-0.642119	0.859739
C126	C	1.999015	-0.308786	1.193072
C127	C	1.332374	-1.030055	0.526410
C128	C	1.665707	-0.696721	0.859743
C129	C	1.999041	-0.363388	1.193077
C130	C	1.455821	-1.030029	0.403145
C131	C	1.789155	-0.696695	0.736478
C132	C	2.122488	-0.363362	1.069812
C133	C	1.455790	-0.975426	0.403136
C134	C	1.789123	-0.642092	0.736469
C135	C	2.122456	-0.308759	1.069803
C136	C	1.394054	-0.948138	0.464771
C137	C	1.727387	-0.614804	0.798105
C138	C	2.060720	-0.281471	1.131438
C139	C	1.455487	-0.527686	0.403050
C140	C	1.788820	-0.194353	0.736383
C141	C	2.122154	0.138981	1.069716
C142	C	1.455440	-0.473081	0.403038
C143	C	1.788773	-0.139747	0.736372
C144	C	2.122107	0.193586	1.069705
C145	C	1.331997	-0.473111	0.526307
C146	C	1.665330	-0.139778	0.859640
C147	C	1.998663	0.193556	1.192973
C148	C	1.332040	-0.527712	0.526315
C149	C	1.665373	-0.194378	0.859648
C150	C	1.998706	0.138955	1.192981
C151	C	1.393793	-0.554998	0.464683
C152	C	1.727126	-0.221664	0.798016
C153	C	2.060460	0.111669	1.131350
O154	O	1.279630	-0.614105	0.578693
O155	O	1.612963	-0.280772	0.912026
O156	O	1.946297	0.052562	1.245359
O157	O	1.508056	-0.614097	0.350666
O158	O	1.841389	-0.280764	0.684000
O159	O	2.174722	0.052569	1.017333
C160	C	1.645439	-0.251843	0.464717
C161	C	1.978772	0.081491	0.798050
C162	C	2.312105	0.414824	1.131384
C163	C	1.752653	-0.251846	0.464727
C164	C	2.085986	0.081488	0.798060
C165	C	2.419319	0.414821	1.131393
C166	C	1.393914	-0.251789	0.716288
C167	C	1.727248	0.081544	1.049621
C168	C	2.060581	0.414878	1.382954
C169	C	1.393943	-0.251769	0.823502
C170	C	1.727277	0.081564	1.156835
C171	C	2.060610	0.414897	1.490168
C172	C	1.394035	-0.115462	0.464760
C173	C	1.727368	0.217871	0.798093
C174	C	2.060702	0.551205	1.131427
C175	C	1.394116	-0.057348	0.464788
C176	C	1.727449	0.275985	0.798121
C177	C	2.060782	0.609319	1.131455
C178	C	1.393833	-0.251843	0.214080
C179	C	1.727167	0.081490	0.547414
C180	C	2.060500	0.414823	0.880747
C181	C	1.393991	-0.251716	0.106867
C182	C	1.727324	0.081617	0.440200
C183	C	2.060658	0.414951	0.773533
C184	C	1.393970	-0.251734	1.019797
C185	C	1.727303	0.081599	1.353130
C186	C	2.060636	0.414933	1.686464
C187	C	1.393952	-0.251755	0.910564
C188	C	1.727285	0.081578	1.243898
C189	C	2.060619	0.414912	1.577231
H190	H	1.505686	-0.450845	0.352836
H191	H	1.839019	-0.117512	0.686170
H192	H	2.172352	0.215822	1.019503
H193	H	1.506034	-0.953192	0.352940
H194	H	1.839367	-0.619858	0.686273
H195	H	2.172701	-0.286525	1.019607
N196	N	1.203960	-0.808329	0.654520
N197	N	1.537293	-0.474995	0.987854
N198	N	1.870626	-0.141662	1.321187
H199	H	1.243151	-0.830942	0.699264
H200	H	1.576484	-0.497609	1.032597
H201	H	1.909817	-0.164275	1.365931
H202	H	1.159293	-0.830995	0.615235
H203	H	1.492626	-0.497662	0.948568
H204	H	1.825959	-0.164328	1.281902
N205	N	1.265747	-0.946019	0.592873
N206	N	1.599080	-0.612686	0.926207
N207	N	1.932414	-0.279353	1.259540
H208	H	1.280691	-0.955490	0.661808
H209	H	1.614025	-0.622156	0.995141
H210	H	1.947358	-0.288823	1.328475
H211	H	1.196871	-0.955581	0.577742
H212	H	1.530205	-0.622247	0.911075
H213	H	1.863538	-0.288914	1.244408
N214	N	1.203897	-0.694848	0.654486
N215	N	1.537230	-0.361515	0.987820
N216	N	1.870564	-0.028181	1.321153
H217	H	1.164818	-0.720439	0.693535
H218	H	1.498152	-0.387106	1.026868
H219	H	1.831485	-0.053772	1.360201
H220	H	1.159260	-0.672234	0.615181
H221	H	1.492593	-0.338901	0.948514
H222	H	1.825926	-0.005567	1.281848
N223	N	1.265481	-0.557173	0.592790
N224	N	1.598814	-0.223840	0.926123
N225	N	1.932148	0.109493	1.259457
H226	H	1.226363	-0.531598	0.631824
H227	H	1.559696	-0.198265	0.965157
H228	H	1.893029	0.135069	1.298491
H229	H	1.304739	-0.579785	0.637474
H230	H	1.638072	-0.246452	0.970807
H231	H	1.971406	0.086882	1.304140
H232	H	1.506095	-1.052257	0.352969
H233	H	1.839428	-0.718924	0.686303
H234	H	2.172762	-0.385591	1.019636
H235	H	1.505774	-0.549896	0.352865
H236	H	1.839108	-0.216563	0.686199
H237	H	2.172441	0.116771	1.019532
H238	H	1.282120	-1.052287	0.576599
H239	H	1.615454	-0.718954	0.909932
H240	H	1.948787	-0.385620	1.243265
N241	N	1.265404	-0.443673	0.592765
N242	N	1.598738	-0.110340	0.926099
N243	N	1.932071	0.222994	1.259432
H244	H	1.274750	-0.404939	0.583399
H245	H	1.608084	-0.071605	0.916732
H246	H	1.941417	0.261728	1.250066
H247	H	1.280388	-0.453179	0.661672
H248	H	1.613721	-0.119846	0.995005
H249	H	1.947054	0.213488	1.328339
H250	H	1.567662	-0.801056	0.291289
H251	H	1.900995	-0.467723	0.624623
H252	H	2.234328	-0.134390	0.957956
N253	N	1.583909	-0.694789	0.274984
N254	N	1.917242	-0.361456	0.608317
N255	N	2.250575	-0.028123	0.941651
H256	H	1.623025	-0.720369	0.235958
H257	H	1.956358	-0.387036	0.569291
H258	H	2.289692	-0.053702	0.902625
H259	H	1.628511	-0.672099	0.314294
H260	H	1.961845	-0.338765	0.647628
H261	H	2.295178	-0.005432	0.980961
