data_functionalizedCrystal
_audit_creation_method	'MofGen! by Chris Wilmer'
_symmetry_space_group_name_H-M	'P1'
_symmetry_Int_Tables_number	1
_symmetry_cell_setting	triclinic
loop_
_symmetry_equiv_pos_as_xyz
  x,y,z
_cell_length_a	16.625546
_cell_length_b	12.645331
_cell_length_c	16.625539
_cell_angle_alpha	90.008658
_cell_angle_beta	89.971468
_cell_angle_gamma	89.979378
loop_
_atom_site_label
_atom_site_type_symbol
_atom_site_fract_x
_atom_site_fract_y
_atom_site_fract_z
Zn1	Zn	-0.321055	-1.620639	-0.455717
Zn2	Zn	-0.455894	-1.620523	-0.320879
Zn3	Zn	-0.321074	-1.443371	-0.320917
Zn4	Zn	-0.455845	-1.443321	-0.455689
O5	O	-0.388467	-1.531963	-0.388301
O6	O	-0.338954	-1.768971	-0.437826
O7	O	-0.438038	-1.596995	-0.208052
O8	O	-0.208239	-1.466955	-0.338826
O9	O	-0.438019	-1.768886	-0.338762
O10	O	-0.208225	-1.597194	-0.437863
O11	O	-0.338987	-1.466842	-0.208080
O12	O	-0.338940	-1.295017	-0.338799
O13	O	-0.437936	-1.466870	-0.568525
O14	O	-0.437955	-1.294980	-0.437815
O15	O	-0.338906	-1.597146	-0.568546
O16	O	-0.568719	-1.596947	-0.338734
O17	O	-0.568684	-1.466758	-0.437778
C18	C	-0.388445	-1.256534	-0.388309
C19	C	-0.388455	-1.138704	-0.388331
C20	C	-0.451084	-0.971152	-0.450301
C21	C	-0.450884	-1.093712	-0.450558
C22	C	-0.303531	-1.094232	-0.411556
C23	C	-0.303911	-0.971634	-0.411995
C24	C	-0.410059	-0.971466	-0.302949
C25	C	-0.411918	-1.094072	-0.303406
C26	C	-0.597958	-1.531863	-0.388267
C27	C	-0.687579	-1.531917	-0.388279
C28	C	-1.015754	-1.532102	-0.388363
C29	C	-0.924446	-1.532047	-0.388342
C30	C	-0.851670	-1.532009	-0.388321
C31	C	-0.760355	-1.531956	-0.388301
C32	C	-0.178158	-1.532093	-0.388352
C33	C	-0.088537	-1.532148	-0.388374
C34	C	-0.388414	-1.532015	-0.598610
C35	C	-0.388391	-1.532038	-0.688231
C36	C	-0.388486	-0.808469	-0.388298
C37	C	-0.388485	-0.926299	-0.388312
C38	C	-0.388373	-1.532055	-0.761013
C39	C	-0.388343	-1.532080	-0.852322
C40	C	-0.388315	-1.532105	-0.925098
C41	C	-0.388286	-1.532131	-1.016413
C42	C	-0.388462	-1.531973	-0.178810
C43	C	-0.388257	-1.532156	-0.089189
H44	H	-0.255623	-1.123375	-0.367815
F45	F	-0.533672	-0.932592	-0.431492
H46	H	-0.513860	-1.123779	-0.436001
F47	F	-0.356645	-1.134097	-0.239794
F48	F	-0.432223	-1.132070	-0.533229
F49	F	-0.432678	-0.930880	-0.532492
F50	F	-0.279175	-1.134381	-0.492238
F51	F	-0.279994	-0.934274	-0.493562
H52	H	-0.470929	-0.940540	-0.281843
F53	F	-0.493606	-1.132062	-0.280516
F54	F	-0.350463	-0.933551	-0.242577
H55	H	-0.255599	-0.941964	-0.368916
