data_functionalizedCrystal
_audit_creation_method	'MofGen! by Chris Wilmer'
_symmetry_space_group_name_H-M	'P1'
_symmetry_Int_Tables_number	1
_symmetry_cell_setting	triclinic
loop_
_symmetry_equiv_pos_as_xyz
  x,y,z
_cell_length_a	14.519709
_cell_length_b	14.971486
_cell_length_c	13.448316
_cell_angle_alpha	90.006811
_cell_angle_beta	90.000617
_cell_angle_gamma	83.647137
loop_
_atom_site_label
_atom_site_type_symbol
_atom_site_fract_x
_atom_site_fract_y
_atom_site_fract_z
O1	O	-1.223800	-0.117253	-0.082551
O2	O	-0.723800	0.382747	0.417449
O3	O	-0.955315	-0.131061	-0.082584
O4	O	-0.455315	0.368939	0.417416
O5	O	-1.096754	0.006039	-0.082559
O6	O	-0.596754	0.506039	0.417441
O7	O	-1.082362	-0.254353	-0.082575
O8	O	-0.582362	0.245647	0.417425
O9	O	-1.096736	0.006048	0.082824
O10	O	-0.596736	0.506048	0.582824
O11	O	-0.955297	-0.131052	0.082800
O12	O	-0.455297	0.368948	0.582800
O13	O	-1.223782	-0.117244	0.082833
O14	O	-0.723782	0.382756	0.582833
Cu15	Cu	-1.089538	-0.124147	0.097917
Cu16	Cu	-0.589538	0.375853	0.597917
Cu17	Cu	-1.089559	-0.124157	-0.097668
Cu18	Cu	-0.589559	0.375843	0.402332
O19	O	-1.082344	-0.254344	0.082809
O20	O	-0.582344	0.245656	0.582809
C21	C	-0.920947	-0.130413	0.000104
C22	C	-0.420947	0.369587	0.500104
C23	C	-0.818567	-0.128485	0.000091
C24	C	-0.318567	0.371515	0.500091
C25	C	-1.096101	0.039369	0.000132
C26	C	-0.596101	0.539369	0.500132
C27	C	-1.094172	0.138667	0.000131
C28	C	-0.594172	0.638667	0.500131
N29	N	-1.089530	-0.124140	0.235482
N30	N	-0.589530	0.375860	0.735482
C31	C	-0.443675	-0.121386	0.000133
C32	C	0.056325	0.378614	0.500133
C33	C	-0.547982	-0.123357	0.000121
C34	C	-0.047982	0.376643	0.500121
C35	C	-0.631118	-0.124935	0.000111
C36	C	-0.131118	0.375065	0.500111
C37	C	-0.735431	-0.126907	0.000101
C38	C	-0.235431	0.373093	0.500101
C39	C	-0.258151	-0.117892	0.000141
C40	C	0.241849	0.382108	0.500141
C41	C	-0.360531	-0.119820	0.000139
C42	C	0.139469	0.380180	0.500139
C43	C	-1.082996	-0.287674	0.000115
C44	C	-0.582996	0.212326	0.500115
C45	C	-1.084925	-0.386972	0.000109
C46	C	-0.584925	0.113028	0.500109
C47	C	-1.177264	0.195845	0.000142
C48	C	-0.677264	0.695845	0.500142
C49	C	-1.175446	0.289146	0.000132
C50	C	-0.675446	0.789146	0.500132
C51	C	-1.090536	0.325266	0.000118
C52	C	-0.590536	0.825266	0.500118
C53	C	-1.007438	0.268080	0.000104
C54	C	-0.507438	0.768080	0.500104
C55	C	-1.009257	0.174781	0.000107
C56	C	-0.509257	0.674781	0.500107
C57	C	-1.003653	0.462545	0.000100
C58	C	-0.503653	0.962545	0.500100
C59	C	-1.001834	0.555850	0.000098
C60	C	-0.501834	1.055850	0.500098
C61	C	-1.169842	0.576909	0.000125
C62	C	-0.669842	1.076909	0.500125
C63	C	-1.171661	0.483610	0.000128
C64	C	-0.671661	0.983610	0.500128
C65	C	-1.088563	0.426431	0.000116
C66	C	-0.588563	0.926431	0.500116
N67	N	-1.089575	-0.124158	-0.235232
N68	N	-0.589575	0.375842	0.264768
C69	C	-1.152179	-0.063457	0.287533
C70	C	-0.652179	0.436543	0.787533
C71	C	-1.152184	-0.063456	0.391636
C72	C	-0.652184	0.436544	0.891636
C73	C	-1.089545	-0.124143	0.443686
C74	C	-0.589545	0.375857	0.943686
C75	C	-1.026890	-0.184829	0.391628
C76	C	-0.526890	0.315171	0.891628
C77	C	-1.026881	-0.184825	0.287526
C78	C	-0.526881	0.315175	0.787526
C79	C	-1.026916	-0.184835	0.608608
C80	C	-0.526916	0.315165	1.108608
C81	C	-1.026926	-0.184841	0.712716
C82	C	-0.526926	0.315159	1.212716
C83	C	-1.152219	-0.063467	0.712718
C84	C	-0.652219	0.436533	1.212718
C85	C	-1.152210	-0.063462	0.608616
C86	C	-0.652210	0.436538	1.108616
C87	C	-1.089556	-0.124149	0.556565
C88	C	-0.589556	0.375851	1.056565
H89	H	-1.246407	0.166444	0.000160
H90	H	-0.746407	0.666444	0.500160
H91	H	-0.935985	0.415991	0.000087
H92	H	-0.435985	0.915991	0.500087
H93	H	-1.243107	0.335698	0.000143
H94	H	-0.743107	0.835698	0.500143
C95	C	-0.957983	-0.251585	0.551354
C96	C	-0.457983	0.248415	1.051354
N97	N	-0.906063	-0.301860	0.508230
N98	N	-0.406063	0.198140	1.008230
C99	C	-1.261251	0.639808	0.000130
C100	C	-0.761251	1.139808	0.500130
N101	N	-1.330098	0.687188	0.000136
N102	N	-0.830098	1.187188	0.500136
C103	C	-1.221137	0.003293	0.769976
C104	C	-0.721137	0.503293	1.269976
N105	N	-1.273045	0.053573	0.813107
N106	N	-0.773045	0.553573	1.313107
C107	C	-0.917850	0.111885	0.000097
C108	C	-0.417850	0.611885	0.500097
N109	N	-0.848999	0.064511	0.000087
N110	N	-0.348999	0.564511	0.500087
C111	C	-1.221116	0.003296	0.551363
C112	C	-0.721116	0.503296	1.051363
N113	N	-1.273015	0.053583	0.508240
N114	N	-0.773015	0.553583	1.008240
H115	H	-0.932692	0.585255	0.000103
H116	H	-0.432692	1.085255	0.500103
C117	C	-0.914036	0.307815	0.000097
C118	C	-0.414036	0.807815	0.500097
N119	N	-0.843683	0.337743	0.000099
N120	N	-0.343683	0.837743	0.500099
H121	H	-1.203190	-0.014042	0.245161
H122	H	-0.703190	0.485958	0.745161
C123	C	-0.958015	-0.251594	0.769969
C124	C	-0.458015	0.248406	1.269969
N125	N	-0.906108	-0.301873	0.813092
N126	N	-0.406108	0.198127	1.313092
C127	C	-1.265066	0.443881	0.000148
C128	C	-0.765066	0.943881	0.500148
N129	N	-1.335421	0.413957	0.000160
N130	N	-0.835421	0.913957	0.500160
C131	C	-0.957970	-0.251588	0.230271
C132	C	-0.457970	0.248412	0.730271
N133	N	-0.906064	-0.301877	0.187147
N134	N	-0.406064	0.198123	0.687147
H135	H	-1.203197	-0.014043	0.434016
H136	H	-0.703197	0.485957	0.934016
H137	H	-0.975884	-0.234239	0.434013
H138	H	-0.475884	0.265761	0.934013
