data_functionalizedCrystal
_audit_creation_method	'MofGen! by Chris Wilmer'
_symmetry_space_group_name_H-M	'P1'
_symmetry_Int_Tables_number	1
_symmetry_cell_setting	triclinic
loop_
_symmetry_equiv_pos_as_xyz
  x,y,z
_cell_length_a	18.101398
_cell_length_b	18.101397
_cell_length_c	19.078593
_cell_angle_alpha	92.214579
_cell_angle_beta	92.228540
_cell_angle_gamma	90.016023
loop_
_atom_site_label
_atom_site_type_symbol
_atom_site_fract_x
_atom_site_fract_y
_atom_site_fract_z
Zn1	Zn	1.115800	-0.311351	-0.397698
Zn2	Zn	1.449134	0.021982	-0.064364
Zn3	Zn	1.782467	0.355316	0.268969
Zn4	Zn	1.120565	-0.430337	-0.280017
Zn5	Zn	1.453898	-0.097003	0.053316
Zn6	Zn	1.787231	0.236330	0.386650
Zn7	Zn	0.996803	-0.306506	-0.280055
Zn8	Zn	1.330137	0.026828	0.053278
Zn9	Zn	1.663470	0.360161	0.386612
Zn10	Zn	0.991934	-0.435144	-0.397672
Zn11	Zn	1.325267	-0.101811	-0.064339
Zn12	Zn	1.658601	0.231522	0.268995
O13	O	1.056276	-0.370834	-0.338860
O14	O	1.389609	-0.037501	-0.005527
O15	O	1.722942	0.295832	0.327806
O16	O	1.220065	-0.327150	-0.382082
O17	O	1.553399	0.006183	-0.048749
O18	O	1.886732	0.339516	0.284585
O19	O	1.108179	-0.409871	-0.181549
O20	O	1.441513	-0.076537	0.151784
O21	O	1.774846	0.256796	0.485118
O22	O	1.012632	-0.203517	-0.295687
O23	O	1.345966	0.129817	0.037646
O24	O	1.679299	0.463150	0.370980
O25	O	1.223566	-0.414569	-0.295623
O26	O	1.556899	-0.081235	0.037711
O27	O	1.890232	0.252098	0.371044
O28	O	1.100059	-0.207076	-0.382119
O29	O	1.433392	0.126257	-0.048786
O30	O	1.766726	0.459590	0.284548
O31	O	1.017252	-0.318892	-0.181577
O32	O	1.350586	0.014441	0.151756
O33	O	1.683919	0.347774	0.485090
O34	O	0.892524	-0.323554	-0.295662
O35	O	1.225858	0.009779	0.037671
O36	O	1.559191	0.343113	0.371005
O37	O	1.004334	-0.422763	-0.496148
O38	O	1.337667	-0.089429	-0.162815
O39	O	1.671000	0.243904	0.170518
O40	O	0.888947	-0.418064	-0.382075
O41	O	1.222280	-0.084731	-0.048742
O42	O	1.555614	0.248602	0.284592
O43	O	1.095338	-0.331812	-0.496167
O44	O	1.428671	0.001521	-0.162834
O45	O	1.762004	0.334855	0.170499
O46	O	1.103458	-0.534606	-0.295598
O47	O	1.436791	-0.201273	0.037736
O48	O	1.770124	0.132060	0.371069
O49	O	1.008953	-0.538138	-0.382038
O50	O	1.342287	-0.204805	-0.048705
O51	O	1.675620	0.128528	0.284628
C52	C	0.863865	-0.370806	-0.338870
C53	C	1.197198	-0.037472	-0.005537
C54	C	1.530531	0.295861	0.327796
C55	C	0.781550	-0.370812	-0.338891
C56	C	1.114883	-0.037479	-0.005558
C57	C	1.448216	0.295855	0.327775
C58	C	0.482460	-0.370854	-0.338862
C59	C	0.815793	-0.037521	-0.005528
C60	C	1.149127	0.295812	0.327805
C61	C	0.511570	-0.430583	-0.392962
C62	C	0.844904	-0.097250	-0.059629
C63	C	1.178237	0.236083	0.273705
C64	C	0.597179	-0.430412	-0.393184
C65	C	0.930513	-0.097079	-0.059851
C66	C	1.263846	0.236254	0.273482
C67	C	0.630842	-0.370834	-0.338876
C68	C	0.964175	-0.037501	-0.005543
C69	C	1.297509	0.295833	0.327790
C70	C	0.598938	-0.293669	-0.359146
C71	C	0.932272	0.039664	-0.025812
C72	C	1.265605	0.372998	0.307521
C73	C	0.513278	-0.294030	-0.359530
C74	C	0.846611	0.039303	-0.026197
C75	C	1.179944	0.372637	0.307136
C76	C	0.517079	-0.387597	-0.264362
C77	C	0.850412	-0.054264	0.068971
C78	C	1.183745	0.279069	0.402305
C79	C	0.602713	-0.389325	-0.264760
C80	C	0.936046	-0.055992	0.068573
C81	C	1.269379	0.277341	0.401907
C82	C	0.714701	-0.370818	-0.338883
C83	C	1.048034	-0.037484	-0.005550
C84	C	1.381368	0.295849	0.327783
C85	C	0.398601	-0.370866	-0.338856
C86	C	0.731934	-0.037532	-0.005523
C87	C	1.065267	0.295801	0.327810
C88	C	1.056214	-0.563244	-0.338826
C89	C	1.389547	-0.229910	-0.005493
C90	C	1.722880	0.103423	0.327840
C91	C	1.056254	-0.645558	-0.338835
C92	C	1.389587	-0.312225	-0.005502
C93	C	1.722921	0.021109	0.327831
C94	C	1.056346	-0.944652	-0.338900
C95	C	1.389679	-0.611318	-0.005566
C96	C	1.723012	-0.277985	0.327767
C97	C	1.115652	-0.911067	-0.284368
C98	C	1.448985	-0.577734	0.048966
C99	C	1.782318	-0.244401	0.382299
C100	C	1.115844	-0.825455	-0.284509
C101	C	1.449177	-0.492121	0.048824
C102	C	1.782510	-0.158788	0.382158
C103	C	1.056300	-0.796268	-0.338867
C104	C	1.389634	-0.462934	-0.005534
C105	C	1.722967	-0.129601	0.327800
C106	C	1.074402	-0.830340	-0.413038
C107	C	1.407736	-0.497007	-0.079704
C108	C	1.741069	-0.163673	0.253629
C109	C	1.074856	-0.915973	-0.412741
C110	C	1.408189	-0.582639	-0.079407
C111	C	1.741523	-0.249306	0.253926
C112	C	0.978759	-0.912370	-0.319902
C113	C	1.312093	-0.579037	0.013431
C114	C	1.645426	-0.245703	0.346764
C115	C	0.979214	-0.826652	-0.318247
C116	C	1.312548	-0.493319	0.015087
C117	C	1.645881	-0.159985	0.348420
C118	C	1.056273	-0.712408	-0.338853
C119	C	1.389606	-0.379074	-0.005520
C120	C	1.722940	-0.045741	0.327813
C121	C	1.056375	-1.028512	-0.338918
C122	C	1.389708	-0.695179	-0.005585
C123	C	1.723041	-0.361845	0.327748
C124	C	1.249438	-0.370864	-0.338851
C125	C	1.582771	-0.037530	-0.005518
C126	C	1.916105	0.295803	0.327816
C127	C	1.331752	-0.370876	-0.338847
C128	C	1.665085	-0.037543	-0.005514
C129	C	1.998419	0.295790	0.327820
C130	C	1.048761	-0.378364	-0.522405
C131	C	1.382094	-0.045031	-0.189071
C132	C	1.715428	0.288302	0.144262
C133	C	1.045559	-0.381573	-0.600620
C134	C	1.378892	-0.048240	-0.267287
C135	C	1.712225	0.285094	0.066046
C136	C	1.056357	-0.177675	-0.338910
C137	C	1.389691	0.155659	-0.005577
C138	C	1.723024	0.488992	0.327757
C139	C	1.056392	-0.095361	-0.338931
C140	C	1.389726	0.237972	-0.005598
C141	C	1.723059	0.571305	0.327735
C142	C	1.063804	-0.363281	-0.156030
C143	C	1.397137	-0.029947	0.177303
C144	C	1.730470	0.303386	0.510636
C145	C	1.067149	-0.359863	-0.077815
C146	C	1.400483	-0.026530	0.255518
C147	C	1.733816	0.306803	0.588852
C148	C	1.021695	-0.405944	-0.040868
C149	C	1.355028	-0.072611	0.292465
C150	C	1.688361	0.260722	0.625799
C151	C	1.024834	-0.402727	0.032624
C152	C	1.358167	-0.069393	0.365957
C153	C	1.691500	0.263940	0.699290
C154	C	1.073432	-0.353431	0.069167
C155	C	1.406765	-0.020098	0.402500
C156	C	1.740099	0.313235	0.735833
C157	C	1.118889	-0.307345	0.032215
C158	C	1.452222	0.025988	0.365548
C159	C	1.785555	0.359321	0.698881
C160	C	1.115745	-0.310560	-0.041276
C161	C	1.449079	0.022774	0.292058
C162	C	1.782412	0.356107	0.625391
C163	C	1.087872	-0.338701	0.288937
C164	C	1.421205	-0.005368	0.622271
C165	C	1.754539	0.327965	0.955604
C166	C	1.091013	-0.335492	0.362433
C167	C	1.424347	-0.002159	0.695766
C168	C	1.757680	0.331175	1.029099
C169	C	0.996957	-0.430873	0.362837
C170	C	1.330290	-0.097539	0.696170
C171	C	1.663624	0.235794	1.029503
C172	C	0.993821	-0.434086	0.289345
C173	C	1.327155	-0.100752	0.622678
C174	C	1.660488	0.232581	0.956012
C175	C	1.039275	-0.387997	0.252399
C176	C	1.372609	-0.054664	0.585732
C177	C	1.705942	0.278670	0.919066
N178	N	1.076643	-0.350143	0.144287
N179	N	1.409977	-0.016810	0.477620
N180	N	1.743310	0.316524	0.810954
N181	N	1.036060	-0.391282	0.177280
N182	N	1.369393	-0.057949	0.510614
N183	N	1.702726	0.275384	0.843947
H184	H	0.491071	-0.279469	-0.413993
H185	H	0.824404	0.053865	-0.080660
H186	H	1.157737	0.387198	0.252674
H187	H	0.982124	-0.446089	-0.070616
H188	H	1.315457	-0.112756	0.262717
H189	H	1.648790	0.220578	0.596051
H190	H	0.987828	-0.440259	0.062703
H191	H	1.321161	-0.106926	0.396036
H192	H	1.654494	0.226408	0.729369
H193	H	0.615406	-0.419578	-0.448384
H194	H	0.948740	-0.086245	-0.115050
H195	H	1.282073	0.247088	0.218283
H196	H	1.158455	-0.267205	0.061974
H197	H	1.491788	0.066128	0.395307
H198	H	1.825122	0.399462	0.728640
H199	H	1.152757	-0.273033	-0.071357
H200	H	1.486090	0.060300	0.261976
H201	H	1.819423	0.393634	0.595310
Cl202	Cl	0.630420	-0.518916	-0.373601
Cl203	Cl	0.963754	-0.185583	-0.040267
Cl204	Cl	1.297087	0.147751	0.293066
H205	H	0.620866	-0.248093	-0.320971
H206	H	0.954200	0.085240	0.012362
H207	H	1.287533	0.418573	0.345696
Cl208	Cl	1.145054	-0.280800	0.242501
Cl209	Cl	1.478388	0.052534	0.575834
Cl210	Cl	1.811721	0.385867	0.909167
H211	H	0.491483	-0.488096	-0.380400
H212	H	0.824816	-0.154763	-0.047067
H213	H	1.158150	0.178570	0.286267
H214	H	0.494096	-0.248105	-0.321933
H215	H	0.827429	0.085229	0.011400
H216	H	1.160762	0.418562	0.344733
H217	H	0.961701	-0.931834	-0.266756
H218	H	1.295035	-0.598501	0.066578
H219	H	1.628368	-0.265167	0.399911
H220	H	0.618182	-0.278780	-0.413016
H221	H	0.951515	0.054554	-0.079683
H222	H	1.284848	0.387887	0.253650
Cl223	Cl	1.098857	-0.789580	-0.199608
Cl224	Cl	1.432190	-0.456247	0.133725
Cl225	Cl	1.765524	-0.122913	0.467058
H226	H	1.033385	-0.938432	-0.454771
H227	H	1.366719	-0.605099	-0.121437
H228	H	1.700052	-0.271766	0.211896
Cl229	Cl	1.009542	-0.801574	-0.477456
Cl230	Cl	1.342875	-0.468240	-0.144123
Cl231	Cl	1.676209	-0.134907	0.189211
H232	H	1.104847	-0.929431	-0.229206
H233	H	1.438181	-0.596098	0.104127
H234	H	1.771514	-0.262764	0.437461
Cl235	Cl	0.932732	-0.496068	0.243410
Cl236	Cl	1.266065	-0.162734	0.576744
Cl237	Cl	1.599399	0.170599	0.910077
H238	H	0.496234	-0.442743	-0.245942
H239	H	0.829567	-0.109409	0.087391
H240	H	1.162900	0.223924	0.420724
Cl241	Cl	1.204001	-0.945006	-0.303548
Cl242	Cl	1.537335	-0.611673	0.029786
Cl243	Cl	1.870668	-0.278339	0.363119
Cl244	Cl	0.635036	-0.476975	-0.241161
Cl245	Cl	0.968369	-0.143642	0.092173
Cl246	Cl	1.301702	0.189692	0.425506
Cl247	Cl	1.204670	-0.794540	-0.303918
Cl248	Cl	1.538004	-0.461207	0.029415
Cl249	Cl	1.871337	-0.127873	0.362748
H250	H	0.625854	-0.348735	-0.222286
H251	H	0.959188	-0.015402	0.111047
H252	H	1.292521	0.317931	0.444381
Cl253	Cl	0.939815	-0.488805	0.409287
Cl254	Cl	1.273148	-0.155471	0.742620
Cl255	Cl	1.606481	0.177862	1.075953
Cl256	Cl	0.488350	-0.320373	-0.202126
Cl257	Cl	0.821683	0.012960	0.131207
Cl258	Cl	1.155016	0.346294	0.464541
H259	H	0.487798	-0.419903	-0.447842
H260	H	0.821131	-0.086569	-0.114509
H261	H	1.154464	0.246764	0.218824
H262	H	1.131477	-0.936561	-0.428834
H263	H	1.464811	-0.603227	-0.095501
H264	H	1.798144	-0.269894	0.237833
Cl265	Cl	1.160814	-0.798189	-0.438307
Cl266	Cl	1.494148	-0.464855	-0.104974
Cl267	Cl	1.827481	-0.131522	0.228359
Cl268	Cl	1.152115	-0.273518	0.408372
Cl269	Cl	1.485448	0.059816	0.741705
Cl270	Cl	1.818781	0.393149	1.075038
Cl271	Cl	0.958049	-0.791887	-0.233976
Cl272	Cl	1.291382	-0.458554	0.099357
Cl273	Cl	1.624715	-0.125221	0.432690
Cl274	Cl	0.907701	-0.795979	-0.375080
Cl275	Cl	1.241034	-0.462646	-0.041746
Cl276	Cl	1.574368	-0.129313	0.291587
H277	H	0.934609	-0.934273	-0.359620
H278	H	1.267943	-0.600939	-0.026287
H279	H	1.601276	-0.267606	0.307046
