data_functionalizedCrystal
_audit_creation_method	'MofGen! by Chris Wilmer'
_symmetry_space_group_name_H-M	'P1'
_symmetry_Int_Tables_number	1
_symmetry_cell_setting	triclinic
loop_
_symmetry_equiv_pos_as_xyz
  x,y,z
_cell_length_a	27.731994
_cell_length_b	11.792241
_cell_length_c	10.268362
_cell_angle_alpha	89.999703
_cell_angle_beta	90.001501
_cell_angle_gamma	83.406974
loop_
_atom_site_label
_atom_site_type_symbol
_atom_site_fract_x
_atom_site_fract_y
_atom_site_fract_z
O1	O	0.641726	0.134748	-0.108101
O2	O	0.501048	0.155345	-0.108143
O3	O	0.574801	-0.020235	-0.108129
O4	O	0.567973	0.310328	-0.108115
O5	O	0.574795	-0.020242	0.108472
O6	O	0.501042	0.155338	0.108458
O7	O	0.641720	0.134741	0.108499
Cu8	Cu	0.571380	0.145039	0.128256
Cu9	Cu	0.571388	0.145047	-0.127899
O10	O	0.567967	0.310321	0.108485
C11	C	0.483035	0.154919	0.000152
C12	C	0.429372	0.153645	0.000136
C13	C	0.096603	0.145622	0.118255
C14	C	-0.105083	0.140782	0.118269
O15	O	-0.131163	0.140104	0.218682
N16	N	-0.130298	0.140184	0.000200
C17	C	-0.105088	0.140790	-0.117881
O18	O	-0.131161	0.140159	-0.218305
C19	C	0.096598	0.145622	-0.117894
C20	C	0.121810	0.146231	0.000183
C21	C	0.121815	0.146230	0.236322
C22	C	0.172233	0.147446	0.236317
C23	C	0.197440	0.148055	0.118245
C24	C	0.172228	0.147447	0.000178
C25	C	0.121808	0.146219	-0.235974
C26	C	0.172233	0.147424	-0.235966
C27	C	0.197444	0.148033	-0.117890
C28	C	0.247853	0.149272	-0.117899
N29	N	0.273067	0.149869	0.000170
C30	C	0.247861	0.149261	0.118242
C31	C	-0.210976	0.138255	-0.117865
C32	C	-0.261397	0.137049	-0.117862
C33	C	-0.261389	0.137039	0.118288
C34	C	-0.210967	0.138253	0.118284
C35	C	-0.185761	0.138852	0.000203
C36	C	0.353743	0.151816	0.118223
C37	C	0.404165	0.153037	0.118208
C38	C	0.404153	0.153041	-0.117942
C39	C	0.353735	0.151826	-0.117928
C40	C	0.328531	0.151209	0.000165
O41	O	0.273964	0.149938	-0.218259
O42	O	0.273945	0.149866	0.218652
C43	C	0.046185	0.144406	0.118259
C44	C	0.020973	0.143798	0.000192
C45	C	0.046180	0.144407	-0.117879
C46	C	-0.029448	0.142592	0.000195
C47	C	-0.054655	0.141984	0.118267
C48	C	-0.029440	0.142581	0.236336
C49	C	0.020978	0.143797	0.236331
C50	C	0.020965	0.143810	-0.235948
C51	C	-0.029453	0.142595	-0.235934
C52	C	-0.054660	0.141986	-0.117862
C53	C	0.574369	-0.062515	0.000167
C54	C	0.573085	-0.188487	0.000152
C55	C	0.659733	0.135167	0.000201
C56	C	0.713397	0.136440	0.000209
N57	N	0.571378	0.145032	0.308422
C58	C	0.568399	0.352601	0.000187
C59	C	0.569683	0.478573	0.000193
C60	C	0.572043	0.709209	0.000161
C61	C	0.570732	0.580866	0.000179
N62	N	0.571394	0.145045	-0.308065
C63	C	0.571385	0.145045	0.574092
C64	C	0.571380	0.145041	0.426254
H65	H	0.192756	0.147935	0.332467
H66	H	-0.281921	0.136572	-0.214012
F67	F	-0.184156	0.138894	-0.243551
H68	H	0.192753	0.147913	-0.332124
F69	F	0.094996	0.145585	0.362001
F70	F	-0.056276	0.141938	0.361997
F71	F	0.094987	0.145569	-0.361649
F72	F	0.326901	0.151196	-0.243597
F73	F	-0.184139	0.138899	0.243955
H74	H	0.424685	0.153541	-0.214073
H75	H	0.041501	0.144293	0.332482
F76	F	-0.056280	0.141955	-0.361617
H77	H	0.424690	0.153536	0.214364
F78	F	0.326926	0.151158	0.243911
F79	F	0.047785	0.144456	-0.361624
H80	H	-0.281921	0.136546	0.214427
