data_functionalizedCrystal
_audit_creation_method	'MofGen! by Chris Wilmer'
_symmetry_space_group_name_H-M	'P1'
_symmetry_Int_Tables_number	1
_symmetry_cell_setting	triclinic
loop_
_symmetry_equiv_pos_as_xyz
  x,y,z
_cell_length_a	10.654550
_cell_length_b	14.971486
_cell_length_c	9.730223
_cell_angle_alpha	89.995390
_cell_angle_beta	89.999957
_cell_angle_gamma	84.049530
loop_
_atom_site_label
_atom_site_type_symbol
_atom_site_fract_x
_atom_site_fract_y
_atom_site_fract_z
O1	O	1.666491	0.125631	-0.114188
O2	O	2.166491	0.625631	0.385812
O3	O	1.300884	0.137600	-0.114213
O4	O	1.800884	0.637600	0.385787
O5	O	1.493487	0.001469	-0.114190
O6	O	1.993487	0.501469	0.385810
O7	O	1.473889	0.261762	-0.114211
O8	O	1.973889	0.761762	0.385789
O9	O	1.493475	0.001465	0.114390
O10	O	1.993475	0.501465	0.614390
O11	O	1.300872	0.137596	0.114366
O12	O	1.800872	0.637596	0.614366
O13	O	1.666479	0.125627	0.114392
O14	O	2.166479	0.625627	0.614392
Zn15	Zn	1.483674	0.131611	0.150671
Zn16	Zn	1.983674	0.631611	0.650671
Zn17	Zn	1.483690	0.131616	-0.150493
Zn18	Zn	1.983690	0.631616	0.349507
O19	O	1.473876	0.261759	0.114369
O20	O	1.973876	0.761759	0.614369
C21	C	1.254090	0.136720	0.000073
C22	C	1.754090	0.636720	0.500073
C23	C	1.114675	0.134090	0.000064
C24	C	1.614675	0.634090	0.500064
C25	C	1.034329	0.214242	0.000061
C26	C	1.534329	0.714242	0.500061
C27	C	0.903335	0.211766	0.000086
C28	C	1.403335	0.711766	0.500086
C29	C	0.933044	0.048979	0.000109
C30	C	1.433044	0.548979	0.500109
C31	C	1.064036	0.051456	0.000095
C32	C	1.564036	0.551456	0.500095
C33	C	1.492604	-0.031863	0.000099
C34	C	1.992604	0.468137	0.500099
C35	C	1.489978	-0.131174	0.000098
C36	C	1.989978	0.368826	0.500098
C37	C	1.603127	-0.187783	0.000107
C38	C	2.103127	0.312217	0.500107
C39	C	1.600651	-0.281096	0.000093
C40	C	2.100651	0.218904	0.500093
C41	C	1.485026	-0.317798	0.000080
C42	C	1.985026	0.182202	0.500080
C43	C	1.371868	-0.261181	0.000067
C44	C	1.871868	0.238819	0.500067
C45	C	1.374345	-0.167870	0.000071
C46	C	1.874345	0.332130	0.500071
C47	C	1.366714	-0.455672	0.000061
C48	C	1.866714	0.044328	0.500061
C49	C	1.364237	-0.548989	0.000060
C50	C	1.864237	-0.048989	0.500060
C51	C	1.593020	-0.568898	0.000083
C52	C	2.093020	-0.068898	0.500083
C53	C	1.595497	-0.475587	0.000087
C54	C	2.095497	0.024413	0.500087
C55	C	1.482339	-0.418976	0.000077
C56	C	1.982339	0.081024	0.500077
C57	C	1.713274	0.126508	0.000102
C58	C	2.213274	0.626508	0.500102
C59	C	1.852689	0.129137	0.000102
C60	C	2.352689	0.629137	0.500102
C61	C	1.474759	0.295090	0.000076
C62	C	1.974759	0.795090	0.500076
C63	C	1.477385	0.394401	0.000069
C64	C	1.977385	0.894401	0.500069
N65	N	1.483672	0.131607	0.356208
N66	N	1.983672	0.631607	0.856208
N67	N	1.483702	0.131613	-0.356029
N68	N	1.983702	0.631613	0.143971
C69	C	1.568985	0.071354	0.428144
C70	C	2.068985	0.571354	0.928144
C71	C	1.568997	0.071354	0.572027
C72	C	2.068997	0.571354	1.072027
C73	C	1.398379	0.191869	0.572025
C74	C	1.898379	0.691869	1.072025
C75	C	1.398362	0.191864	0.428144
C76	C	1.898362	0.691864	0.928144
H77	H	1.075554	0.281528	0.000047
H78	H	1.575554	0.781528	0.500047
H79	H	1.692789	-0.327185	0.000103
H80	H	2.192789	0.172815	0.500103
Cl81	Cl	1.676227	-0.004400	0.337715
Cl82	Cl	2.176227	0.495600	0.837715
Cl83	Cl	1.676250	-0.004398	0.662457
Cl84	Cl	2.176250	0.495602	1.162457
Cl85	Cl	0.802334	0.312534	0.000084
Cl86	Cl	1.302334	0.812534	0.500084
Cl87	Cl	1.291096	0.267612	0.337701
Cl88	Cl	1.791096	0.767612	0.837701
Cl89	Cl	1.165050	-0.049315	0.000109
Cl90	Cl	1.665050	0.450685	0.500109
Cl91	Cl	0.869375	-0.054898	0.000139
Cl92	Cl	1.369375	0.445102	0.500139
Cl93	Cl	1.748493	-0.141654	0.000137
Cl94	Cl	2.248493	0.358346	0.500137
Cl95	Cl	1.740857	-0.429449	0.000097
Cl96	Cl	2.240857	0.070551	0.500097
Cl97	Cl	1.218877	-0.595127	0.000045
Cl98	Cl	1.718877	-0.095127	0.500045
H99	H	1.685158	-0.614995	0.000087
H100	H	2.185158	-0.114995	0.500087
H101	H	1.274568	-0.409581	0.000049
H102	H	1.774568	0.090419	0.500049
H103	H	1.277724	-0.291071	0.000047
H104	H	1.777724	0.208929	0.500047
H105	H	1.282207	-0.121779	0.000063
H106	H	1.782207	0.378221	0.500063
H107	H	1.328924	0.240930	0.630610
H108	H	1.828924	0.740930	1.130610
