data_functionalizedCrystal
_audit_creation_method	'MofGen! by Chris Wilmer'
_symmetry_space_group_name_H-M	'P1'
_symmetry_Int_Tables_number	1
_symmetry_cell_setting	triclinic
loop_
_symmetry_equiv_pos_as_xyz
  x,y,z
_cell_length_a	14.519731
_cell_length_b	17.666332
_cell_length_c	14.519709
_cell_angle_alpha	89.992588
_cell_angle_beta	96.315501
_cell_angle_gamma	90.009441
loop_
_atom_site_label
_atom_site_type_symbol
_atom_site_fract_x
_atom_site_fract_y
_atom_site_fract_z
O1	O	1.223862	0.062952	-0.120986
O2	O	0.955387	0.062953	-0.135202
O3	O	1.096743	0.062945	0.006144
O4	O	1.082506	0.062959	-0.262332
O5	O	1.096718	-0.062951	0.006151
O6	O	0.955363	-0.062944	-0.135195
O7	O	1.223837	-0.062945	-0.120979
Cu8	Cu	1.089597	-0.074440	-0.128086
Cu9	Cu	1.089627	0.074448	-0.128095
O10	O	1.082482	-0.062938	-0.262325
C11	C	0.921016	0.000005	-0.134532
C12	C	0.818635	0.000005	-0.132536
N13	N	1.089584	-0.179159	-0.128079
C14	C	0.735491	0.000008	-0.130915
C15	C	0.631182	0.000008	-0.128888
C16	C	0.548043	0.000008	-0.127280
C17	C	0.443728	0.000010	-0.125253
C18	C	1.152196	-0.218772	-0.065522
C19	C	1.152201	-0.298020	-0.065518
C20	C	1.089603	-0.337651	-0.128086
C21	C	1.026979	-0.298029	-0.190648
C22	C	1.026969	-0.218783	-0.190645
N23	N	1.077998	-0.462066	-0.209669
N24	N	1.078013	-0.537346	-0.209669
C25	C	1.089627	-0.576415	-0.128099
N26	N	1.101244	-0.537360	-0.046526
N27	N	1.101234	-0.462073	-0.046526
C28	C	1.089606	-0.423581	-0.128097
C29	C	1.152249	-0.701958	-0.065532
C30	C	1.152248	-0.781207	-0.065526
C31	C	1.027030	-0.781214	-0.190665
C32	C	1.027027	-0.701967	-0.190663
C33	C	1.089641	-0.662343	-0.128097
C34	C	1.258209	0.000005	-0.121649
C35	C	1.360589	0.000009	-0.123645
C36	C	1.096067	-0.000003	0.040507
C37	C	1.094079	-0.000003	0.142889
N38	N	1.089648	0.179167	-0.128095
C39	C	1.083157	0.000013	-0.296688
C40	C	1.085146	0.000018	-0.399070
C41	C	1.086759	0.000016	0.517785
C42	C	1.088792	0.000011	0.413477
C43	C	1.090419	0.000006	0.330340
C44	C	1.092452	0.000001	0.226025
H45	H	1.203178	-0.186513	-0.014575
O46	O	1.213111	-0.336394	-0.004708
C47	C	1.337267	-0.328029	0.119451
C48	C	1.268357	-0.284480	0.050617
H49	H	1.381939	-0.286076	0.164213
H50	H	1.383465	-0.365096	0.079574
H51	H	1.297361	-0.365164	0.165569
H52	H	1.308188	-0.247304	0.004482
H53	H	1.222160	-0.247461	0.090552
H54	H	0.976009	-0.330301	-0.241591
O55	O	0.966114	-0.180416	-0.251509
C56	C	0.841878	-0.188786	-0.375588
C57	C	0.910759	-0.232332	-0.306722
H58	H	0.797093	-0.230741	-0.420233
H59	H	0.881716	-0.151694	-0.421816
H60	H	0.795787	-0.151677	-0.335645
H61	H	0.956868	-0.269482	-0.346590
H62	H	0.870864	-0.269377	-0.260495
H63	H	1.203231	-0.669695	-0.014584
O64	O	0.966125	-0.663446	-0.251315
C65	C	0.840250	-0.573957	-0.270663
C66	C	0.909157	-0.617548	-0.201871
H67	H	0.794187	-0.536826	-0.230715
H68	H	0.795441	-0.615856	-0.315375
H69	H	0.880160	-0.536877	-0.316838
H70	H	0.869322	-0.654629	-0.155636
H71	H	0.953965	-0.575608	-0.157224
H72	H	1.203232	-0.813460	-0.014580
H73	H	0.976058	-0.813482	-0.241606
