data_functionalizedCrystal
_audit_creation_method	'MofGen! by Chris Wilmer'
_symmetry_space_group_name_H-M	'P1'
_symmetry_Int_Tables_number	1
_symmetry_cell_setting	triclinic
loop_
_symmetry_equiv_pos_as_xyz
  x,y,z
_cell_length_a	19.188933
_cell_length_b	19.188930
_cell_length_c	13.930277
_cell_angle_alpha	89.990320
_cell_angle_beta	89.994201
_cell_angle_gamma	83.145175
loop_
_atom_site_label
_atom_site_type_symbol
_atom_site_fract_x
_atom_site_fract_y
_atom_site_fract_z
O1	O	0.926147	0.087173	-0.079810
O2	O	1.426147	0.587173	0.420190
O3	O	0.722836	0.098906	-0.079820
O4	O	1.222836	0.598906	0.420180
O5	O	0.830358	-0.008616	-0.079796
O6	O	1.330358	0.491384	0.420204
O7	O	0.818624	0.194696	-0.079834
O8	O	1.318624	0.694696	0.420166
O9	O	0.830343	-0.008618	0.079866
O10	O	1.330343	0.491382	0.579866
O11	O	0.722821	0.098904	0.079842
O12	O	1.222821	0.598904	0.579842
O13	O	0.926132	0.087171	0.079852
O14	O	1.426132	0.587171	0.579852
Zn15	Zn	0.824474	0.093037	0.105197
Zn16	Zn	1.324474	0.593037	0.605197
Zn17	Zn	0.824494	0.093040	-0.105165
Zn18	Zn	1.324494	0.593040	0.394835
O19	O	0.818609	0.194693	0.079828
O20	O	1.318609	0.694693	0.579828
C21	C	0.696817	0.098525	0.000010
C22	C	1.196817	0.598525	0.500010
C23	C	0.619313	0.097384	0.000007
C24	C	1.119313	0.597384	0.500007
C25	C	0.066065	0.089240	-0.087013
C26	C	0.566065	0.589240	0.412987
C27	C	0.138890	0.090308	-0.087017
C28	C	0.638890	0.590308	0.412983
C29	C	0.175299	0.090844	0.000014
C30	C	0.675299	0.590844	0.500014
C31	C	0.138880	0.090294	0.087056
C32	C	0.638880	0.590294	0.587056
C33	C	0.066058	0.089219	0.087057
C34	C	0.566058	0.589219	0.587057
N35	N	0.284313	0.132262	0.064788
N36	N	0.784313	0.632262	0.564788
N37	N	0.353490	0.133284	0.064781
N38	N	0.853490	0.633284	0.564781
C39	C	0.394707	0.094082	0.000015
C40	C	0.894707	0.594082	0.500015
N41	N	0.364132	0.053827	-0.064757
N42	N	0.864132	0.553827	0.435243
N43	N	0.294948	0.052807	-0.064753
N44	N	0.794948	0.552807	0.435247
C45	C	0.254262	0.092009	0.000022
C46	C	0.754262	0.592009	0.500022
C47	C	0.510083	0.095785	-0.087025
C48	C	1.010083	0.595785	0.412975
C49	C	0.582909	0.096849	-0.087025
C50	C	1.082909	0.596849	0.412975
C51	C	0.582896	0.096842	0.087050
C52	C	1.082896	0.596842	0.587050
C53	C	0.510072	0.095771	0.087048
C54	C	1.010072	0.595771	0.587048
C55	C	0.473669	0.095246	0.000008
C56	C	0.973669	0.595246	0.500008
C57	C	0.829971	-0.034628	0.000038
C58	C	1.329971	0.465372	0.500038
C59	C	0.828830	-0.112132	0.000046
C60	C	1.328830	0.387868	0.500046
C61	C	0.891921	-0.157056	0.000054
C62	C	1.391921	0.342944	0.500054
C63	C	0.890849	-0.229880	0.000038
C64	C	1.390849	0.270120	0.500038
C65	C	0.826683	-0.257777	0.000035
C66	C	1.326683	0.242223	0.500035
C67	C	0.763584	-0.212843	0.000021
C68	C	1.263584	0.287157	0.500021
C69	C	0.764658	-0.140021	0.000027
C70	C	1.264658	0.359979	0.500027
N71	N	0.777631	-0.365783	0.054368
N72	N	1.277631	0.134217	0.554368
N73	N	0.776615	-0.434961	0.054365
N74	N	1.276615	0.065039	0.554365
C75	C	0.823445	-0.477185	0.000015
C76	C	1.323445	0.022815	0.500015
N77	N	0.871339	-0.447619	-0.054319
N78	N	1.371339	0.052381	0.445681
N79	N	0.872357	-0.378434	-0.054311
N80	N	1.372357	0.121566	0.445689
C81	C	0.825512	-0.336739	0.000028
C82	C	1.325512	0.163261	0.500028
C83	C	0.885378	-0.601073	0.000005
C84	C	1.385378	-0.101073	0.500005
C85	C	0.884304	-0.673898	-0.000017
C86	C	1.384304	-0.173898	0.499983
C87	C	0.757037	-0.656860	-0.000024
C88	C	1.257037	-0.156860	0.499976
C89	C	0.758113	-0.584037	-0.000013
C90	C	1.258113	-0.084037	0.499987
C91	C	0.822286	-0.556148	0.000006
C92	C	1.322286	-0.056148	0.500006
C93	C	0.952150	0.087553	0.000020
C94	C	1.452150	0.587553	0.500020
C95	C	1.029655	0.088694	0.000017
C96	C	1.529655	0.588694	0.500017
C97	C	0.818997	0.220705	-0.000008
C98	C	1.318997	0.720705	0.499992
C99	C	0.820137	0.298210	-0.000022
C100	C	1.320137	0.798210	0.499978
N101	N	0.824466	0.093035	0.248763
N102	N	1.324466	0.593035	0.748763
N103	N	0.824507	0.093037	-0.248731
N104	N	1.324507	0.593037	0.251269
C105	C	0.776881	0.140632	0.701021
C106	C	1.276881	0.640632	1.201021
C107	C	0.872126	0.045443	0.701012
C108	C	1.372126	0.545443	1.201012
C109	C	0.872117	0.045440	0.600517
C110	C	1.372117	0.545440	1.100517
C111	C	0.824491	0.093036	0.550269
C112	C	1.324491	0.593036	1.050269
C113	C	0.776872	0.140633	0.600516
C114	C	1.276872	0.640633	1.100516
C115	C	0.919739	-0.002151	0.550261
C116	C	1.419739	0.497849	1.050261
C117	C	0.919734	-0.002155	0.449759
C118	C	1.419734	0.497845	0.949759
C119	C	0.872103	0.045438	0.399510
C120	C	1.372103	0.545438	0.899510
C121	C	0.824482	0.093036	0.449764
C122	C	1.324482	0.593036	0.949764
C123	C	0.776856	0.140632	0.399516
C124	C	1.276856	0.640632	0.899516
C125	C	0.729231	0.188228	0.449768
C126	C	1.229231	0.688228	0.949768
C127	C	0.729242	0.188226	0.550267
C128	C	1.229242	0.688226	1.050267
C129	C	0.872092	0.045440	0.299011
C130	C	1.372092	0.545440	0.799011
C131	C	0.776847	0.140632	0.299011
C132	C	1.276847	0.640632	0.799011
H133	H	0.168541	0.090756	-0.157890
H134	H	0.668541	0.590756	0.342110
H135	H	0.738103	0.179383	0.741939
H136	H	1.238103	0.679383	1.241939
H137	H	0.942227	-0.266463	0.000041
H138	H	1.442227	0.233537	0.500041
H139	H	0.738061	0.179388	0.258105
H140	H	1.238061	0.679388	0.758105
C141	C	0.686454	-0.687535	-0.000032
C142	C	1.186454	-0.187535	0.499968
H143	H	0.649031	-0.650346	-0.000040
H144	H	1.149031	-0.150346	0.499960
H145	H	0.683382	-0.715600	0.055640
H146	H	1.183382	-0.215600	0.555640
H147	H	0.683397	-0.715577	-0.055722
H148	H	1.183397	-0.215577	0.444278
C149	C	0.688712	-0.534619	-0.000005
C150	C	1.188712	-0.034619	0.499995
H151	H	0.650343	-0.561661	-0.000001
H152	H	1.150343	-0.061661	0.499999
H153	H	0.686489	-0.505846	-0.055678
H154	H	1.186489	-0.005846	0.444322
H155	H	0.686484	-0.505869	0.055684
H156	H	1.186484	-0.005869	0.555684
H157	H	0.713280	-0.103444	0.000021
H158	H	1.213280	0.396556	0.500021
C159	C	0.693004	-0.243527	0.000020
C160	C	1.193004	0.256473	0.500020
H161	H	0.701400	-0.293332	0.000028
H162	H	1.201400	0.206668	0.500028
H163	H	0.667039	-0.228086	-0.055658
H164	H	1.167039	0.271914	0.444342
H165	H	0.667031	-0.228100	0.055704
H166	H	1.167031	0.271900	0.555704
C167	C	0.955963	-0.570392	0.000015
C168	C	1.455963	-0.070392	0.500015
H169	H	0.993386	-0.607580	0.000003
H170	H	1.493386	-0.107580	0.500003
H171	H	0.959023	-0.542349	0.055696
H172	H	1.459023	-0.042349	0.555696
H173	H	0.959031	-0.542328	-0.055666
H174	H	1.459031	-0.042328	0.444334
H175	H	0.935682	-0.710475	-0.000016
H176	H	1.435682	-0.210475	0.499984
H177	H	0.690456	0.226983	0.408844
H178	H	1.190456	0.726983	0.908844
H179	H	0.168529	0.090729	0.157917
H180	H	0.668529	0.590729	0.657917
C181	C	0.972121	-0.054506	0.605529
C182	C	1.472121	0.445494	1.105529
H183	H	1.000485	-0.082848	0.561209
H184	H	1.500485	0.417152	1.061209
H185	H	0.947094	-0.083508	0.644742
H186	H	1.447094	0.416492	1.144742
H187	H	1.001110	-0.029460	0.644724
H188	H	1.501110	0.470540	1.144724
H189	H	0.690468	0.226977	0.591188
H190	H	1.190468	0.726977	1.091188
H191	H	0.910905	0.006695	0.741927
H192	H	1.410905	0.506695	1.241927
H193	H	0.958511	-0.040910	0.408850
H194	H	1.458511	0.459090	0.908850
C195	C	0.025980	0.088776	0.182792
C196	C	0.525980	0.588776	0.682792
H197	H	-0.022610	0.088103	0.170327
H198	H	0.477390	0.588103	0.670327
H199	H	0.032515	0.129702	0.218414
H200	H	0.532515	0.629702	0.718414
H201	H	0.043297	0.048284	0.218690
H202	H	0.543297	0.548284	0.718690
C203	C	0.470036	0.095211	-0.182763
C204	C	0.970036	0.595211	0.317237
H205	H	0.502155	0.095682	-0.234598
H206	H	1.002155	0.595682	0.265402
H207	H	0.436184	0.135502	-0.186378
H208	H	0.936184	0.635502	0.313622
H209	H	0.447073	0.054085	-0.186383
H210	H	0.947073	0.554085	0.313617
C211	C	0.622961	0.097450	-0.182764
C212	C	1.122961	0.597450	0.317236
H213	H	0.590847	0.096990	-0.234597
H214	H	1.090847	0.596990	0.265403
H215	H	0.656818	0.057163	-0.186385
H216	H	1.156818	0.557163	0.313615
H217	H	0.645919	0.138580	-0.186380
H218	H	1.145919	0.638580	0.313620
C219	C	0.924472	-0.006909	0.243738
C220	C	1.424472	0.493091	0.743738
H221	H	0.952836	-0.035256	0.288057
H222	H	1.452836	0.464744	0.788057
H223	H	0.953450	0.018137	0.204514
H224	H	1.453450	0.518137	0.704514
H225	H	0.899441	-0.035917	0.204552
H226	H	1.399441	0.464083	0.704552
C227	C	0.622934	0.097430	0.182786
C228	C	1.122934	0.597430	0.682786
H229	H	0.590816	0.096949	0.234620
H230	H	1.090816	0.596949	0.734620
H231	H	0.645894	0.138554	0.186400
H232	H	1.145894	0.638554	0.686400
H233	H	0.656789	0.057137	0.186407
H234	H	1.156789	0.557137	0.686407
C235	C	0.026028	0.088644	-0.182753
C236	C	0.526028	0.588644	0.317247
H237	H	0.058149	0.089113	-0.234586
H238	H	0.558149	0.589113	0.265414
H239	H	-0.007834	0.128926	-0.186387
H240	H	0.492166	0.628926	0.313613
H241	H	0.003079	0.047509	-0.186358
H242	H	0.503079	0.547509	0.313642
H243	H	0.480426	0.095329	0.157917
H244	H	0.980426	0.595329	0.657917
H245	H	0.944175	-0.134354	0.000066
H246	H	1.444175	0.365646	0.500066
