data_functionalizedCrystal
_audit_creation_method	'MofGen! by Chris Wilmer'
_symmetry_space_group_name_H-M	'P1'
_symmetry_Int_Tables_number	1
_symmetry_cell_setting	triclinic
loop_
_symmetry_equiv_pos_as_xyz
  x,y,z
_cell_length_a	6.817900
_cell_length_b	11.102183
_cell_length_c	19.453114
_cell_angle_alpha	94.505332
_cell_angle_beta	101.709288
_cell_angle_gamma	108.603876
loop_
_atom_site_label
_atom_site_type_symbol
_atom_site_fract_x
_atom_site_fract_y
_atom_site_fract_z
V1	V	-4.033144	-0.177162	-0.218998
O2	O	-3.993679	0.007152	-0.214830
O3	O	-4.010446	-0.349972	-0.217499
O4	O	-3.975742	-0.175034	-0.314511
O5	O	-4.028624	-0.168998	-0.117147
V6	V	-4.514607	-0.155045	-0.206816
O7	O	-4.298919	-0.225676	-0.245720
O8	O	-4.699029	-0.106531	-0.180093
O9	O	-4.314098	0.017766	-0.208315
O10	O	-4.671469	-0.339359	-0.210983
O11	O	-4.636524	-0.163209	-0.308667
O12	O	-4.348802	-0.157173	-0.111303
C13	C	-3.861991	-0.392081	-0.214044
C14	C	-3.924660	-0.533360	-0.213455
C15	C	-3.850346	-0.496305	-0.084805
C16	C	-3.842627	-0.544150	-0.020206
C17	C	-3.901517	-0.676895	-0.019656
C18	C	-3.968138	-0.761800	-0.083713
C19	C	-3.975856	-0.713955	-0.148312
C20	C	-3.916955	-0.581205	-0.148854
C21	C	-4.050184	-0.751010	-0.276960
C22	C	-3.991281	-0.618265	-0.277511
C23	C	-4.116804	-0.835915	-0.341017
C24	C	-4.124510	-0.788070	-0.405617
C25	C	-4.065612	-0.655316	-0.406164
C26	C	-3.999000	-0.570420	-0.342110
C27	C	-3.817721	-0.168928	-0.337791
C28	C	-3.852243	-0.168332	-0.415874
C29	C	-4.051192	-0.174431	-0.456131
C30	C	-4.083629	-0.173871	-0.529497
C31	C	-3.917118	-0.167238	-0.562606
C32	C	-3.718138	-0.161131	-0.522339
C33	C	-3.685700	-0.161678	-0.448973
N34	N	-3.867358	-0.234355	-0.681395
N35	N	-3.898186	-0.233838	-0.751091
C36	C	-4.014839	-0.165586	-0.783655
N37	N	-4.099538	-0.097887	-0.743892
N38	N	-4.068715	-0.098410	-0.674191
C39	C	-3.952271	-0.166643	-0.642159
C40	C	-4.248972	-0.171076	-0.903465
C41	C	-4.281398	-0.170508	-0.976832
C42	C	-3.915907	-0.157780	-0.969673
C43	C	-3.883480	-0.158335	-0.896306
C44	C	-4.050023	-0.164990	-0.863207
C45	C	-4.125896	0.059868	-0.211768
C46	C	-4.042465	0.201145	-0.212361
C47	C	-4.170166	-0.163283	-0.088018
C48	C	-4.114882	-0.163872	-0.009935
H49	H	-3.951008	-0.462329	-0.342549
H50	H	-3.523684	-0.156701	-0.416195
O51	O	-4.230802	-0.181597	-0.420427
H52	H	-4.182454	-0.095084	-0.379673
H53	H	-4.245646	-0.178845	-0.562282
O54	O	-4.495979	-0.177063	-1.020256
H55	H	-4.606327	-0.181786	-0.984911
H56	H	-3.780324	-0.152367	-0.996629
O57	O	-3.538772	-0.154439	-0.558089
H58	H	-3.395050	-0.150449	-0.517779
H59	H	-3.895237	-0.715849	0.032946
H60	H	-4.384579	-0.176490	-0.876513
H61	H	-3.721482	-0.153382	-0.863529
H62	H	-3.788386	-0.475007	0.031948
O63	O	-3.786786	-0.353129	-0.085397
H64	H	-3.891849	-0.314963	-0.060391
O65	O	-4.031651	-0.904974	-0.083119
H66	H	-4.167777	-0.936825	-0.057819
O67	O	-4.180305	-0.979091	-0.340430
H68	H	-4.163719	-0.998099	-0.284750
H69	H	-4.071929	-0.616372	-0.458769
O70	O	-4.196374	-0.879638	-0.474702
H71	H	-4.236033	-0.979981	-0.463467
