data_functionalizedCrystal
_audit_creation_method	'MofGen! by Chris Wilmer'
_symmetry_space_group_name_H-M	'P1'
_symmetry_Int_Tables_number	1
_symmetry_cell_setting	triclinic
loop_
_symmetry_equiv_pos_as_xyz
  x,y,z
_cell_length_a	27.732048
_cell_length_b	19.288865
_cell_length_c	17.766277
_cell_angle_alpha	90.005144
_cell_angle_beta	90.006475
_cell_angle_gamma	82.889451
loop_
_atom_site_label
_atom_site_type_symbol
_atom_site_fract_x
_atom_site_fract_y
_atom_site_fract_z
O1	O	0.060297	0.920975	0.062577
O2	O	0.068431	0.718663	0.062585
O3	O	-0.006014	0.826102	0.062566
O4	O	0.134742	0.813536	0.062595
O5	O	-0.006011	0.826088	-0.062622
O6	O	0.068434	0.718649	-0.062604
O7	O	0.060299	0.920960	-0.062612
Cu8	Cu	0.064367	0.819803	-0.074038
Cu9	Cu	0.064364	0.819820	0.074011
O10	O	0.134744	0.813521	-0.062593
C11	C	-0.024020	0.825831	-0.000030
C12	C	-0.077678	0.825037	-0.000036
C13	C	0.068171	0.692781	-0.000009
C14	C	0.067385	0.615683	-0.000006
C15	C	0.060560	0.946842	-0.000017
C16	C	0.061345	1.023941	-0.000014
C17	C	-0.416316	0.883526	-0.000000
C18	C	-0.617985	0.880579	0.000011
O19	O	-0.649079	0.934063	0.000041
N20	N	-0.637301	0.816872	0.000012
C21	C	-0.606196	0.753897	0.000017
O22	O	-0.627253	0.699643	0.000026
C23	C	-0.404529	0.756845	0.000011
C24	C	-0.385216	0.820556	0.000002
C25	C	-0.397002	0.947232	-0.000009
C26	C	-0.346588	0.947968	-0.000015
C27	C	-0.315488	0.884998	-0.000014
C28	C	-0.334801	0.821292	-0.000005
C29	C	-0.373425	0.693871	0.000021
C30	C	-0.323006	0.694614	0.000022
C31	C	-0.303693	0.758325	0.000012
C32	C	-0.253287	0.759059	-0.000010
N33	N	-0.233971	0.822765	-0.000012
C34	C	-0.265071	0.885735	-0.000014
C35	C	-0.712075	0.752354	0.000018
C36	C	-0.762492	0.751617	0.000018
C37	C	-0.774276	0.878299	0.000013
C38	C	-0.723859	0.879035	0.000008
C39	C	-0.692759	0.816061	0.000016
C40	C	-0.159197	0.887276	-0.000028
C41	C	-0.108778	0.888007	-0.000038
C42	C	-0.096998	0.761325	-0.000030
C43	C	-0.147412	0.760594	-0.000024
C44	C	-0.178511	0.823576	-0.000021
O45	O	-0.222164	0.705603	-0.000032
O46	O	-0.244005	0.939982	-0.000006
C47	C	-0.466730	0.882790	0.000007
C48	C	-0.486044	0.819084	0.000015
C49	C	-0.454943	0.756114	0.000017
C50	C	-0.536461	0.818347	0.000015
C51	C	-0.567561	0.881316	0.000013
C52	C	-0.548245	0.945023	0.000012
C53	C	-0.497831	0.945759	0.000005
C54	C	-0.474260	0.692407	0.000019
C55	C	-0.524674	0.691676	0.000025
C56	C	-0.555775	0.754646	0.000023
C57	C	0.152751	0.813792	0.000005
C58	C	0.206408	0.814587	0.000016
N59	N	0.064369	0.819797	-0.178169
C60	C	0.017664	1.068910	-0.000017
C61	C	0.018403	1.141352	-0.000021
C62	C	0.062824	1.168823	-0.000008
C63	C	0.106511	1.123844	-0.000010
C64	C	0.105771	1.051403	-0.000013
C65	C	0.097744	1.276887	0.043863
C66	C	0.098481	1.349327	0.043871
C67	C	0.065107	1.392254	-0.000001
C68	C	0.030986	1.362734	-0.043871
C69	C	0.030247	1.290293	-0.043874
C70	C	0.063631	1.247372	-0.000005
C71	C	0.022223	1.515774	-0.000009
C72	C	0.022963	1.588217	-0.000018
C73	C	0.111072	1.570707	0.000001
C74	C	0.110331	1.498266	0.000002
C75	C	0.065905	1.470803	0.000001
C76	C	0.093596	0.861643	-0.782452
C77	C	0.093600	0.861636	-0.703650
C78	C	0.064358	0.819827	-0.664258
C79	C	0.035118	0.778008	-0.703673
C80	C	0.035118	0.778011	-0.782473
C81	C	0.020777	0.818372	-0.539422
C82	C	0.020776	0.818374	-0.460624
C83	C	0.064359	0.819814	-0.421211
C84	C	0.107944	0.821266	-0.460608
C85	C	0.107944	0.821269	-0.539408
C86	C	0.064355	0.819819	-0.578812
C87	C	0.093605	0.861619	-0.296359
C88	C	0.093611	0.861607	-0.217556
C89	C	0.035124	0.777983	-0.217580
C90	C	0.035123	0.777991	-0.296382
C91	C	0.064362	0.819813	-0.335767
N92	N	0.064358	0.819833	0.178142
H93	H	-0.093056	0.939890	-0.000048
H94	H	-0.014715	0.817194	-0.571505
N95	N	0.152880	1.002883	-0.000008
H96	H	0.154529	0.972436	-0.046417
H97	H	0.181114	1.031310	0.000024
H98	H	-0.014713	0.817197	-0.428553
N99	N	0.125130	0.906744	-0.661138
H100	H	0.120691	0.900398	-0.605242
H101	H	0.160313	0.892653	-0.674902
H102	H	0.011310	0.743965	-0.671595
H103	H	-0.018511	1.046555	-0.000021
N104	N	0.125140	0.906738	-0.824928
H105	H	0.120705	0.900396	-0.880829
H106	H	0.115499	0.957356	-0.811151
N107	N	0.154956	0.822823	-0.418112
H108	H	0.148345	0.822598	-0.362214
H109	H	0.178374	0.780390	-0.431891
H110	H	-0.389141	0.641991	0.000033
H111	H	0.011309	0.743962	-0.814557
H112	H	0.002466	1.266261	-0.079596
N113	N	-0.028712	1.189867	-0.000025
H114	H	-0.056967	1.161477	-0.000028
H115	H	-0.030320	1.220304	0.046386
N116	N	-0.005017	1.409024	-0.091190
H117	H	0.000628	1.459394	-0.084536
H118	H	-0.000628	1.395458	-0.145896
H119	H	-0.799607	0.929571	0.000011
H120	H	0.126261	1.373356	0.079598
N121	N	-0.289462	0.626690	0.000034
H122	H	-0.309351	0.586223	0.000040
H123	H	-0.268292	0.624226	-0.046377
N124	N	-0.025690	1.486147	-0.000014
H125	H	-0.053251	1.525630	-0.000022
H126	H	-0.027915	1.456466	-0.046422
H127	H	-0.482111	0.997640	-0.000003
H128	H	-0.184513	0.938562	-0.000023
H129	H	-0.163138	0.708716	-0.000037
H130	H	0.143432	0.822449	-0.571481
H131	H	-0.330868	0.999848	-0.000020
N132	N	-0.063442	0.693417	-0.000042
H133	H	-0.042255	0.690910	0.046362
H134	H	-0.083352	0.652976	-0.000068
N135	N	-0.581794	1.012942	0.000003
H136	H	-0.616662	1.002801	0.000007
H137	H	-0.575554	1.040737	0.046410
H138	H	-0.448942	0.641128	0.000022
H139	H	0.145901	1.461651	0.000009
N140	N	-0.703030	0.947751	-0.000003
H141	H	-0.730386	0.987526	-0.000006
H142	H	-0.682367	0.950826	0.046407
N143	N	-0.678538	0.684424	0.000018
H144	H	-0.657361	0.681899	-0.046390
H145	H	-0.657385	0.681942	0.046456
N146	N	-0.430542	1.015155	-0.000012
H147	H	-0.410649	1.055617	-0.000018
H148	H	-0.451718	1.017604	-0.046423
N149	N	0.125143	0.906719	-0.338846
H150	H	0.143670	0.933201	-0.301921
H151	H	0.148825	0.876182	-0.371543
N152	N	0.133747	1.230588	0.091177
H153	H	0.155472	1.260280	0.118971
H154	H	0.115655	1.204065	0.128634
N155	N	0.158988	1.600319	0.000013
H156	H	0.161261	1.629981	-0.046393
H157	H	0.161231	1.629952	0.046453
N158	N	-0.783315	0.682897	0.000011
H159	H	-0.771958	0.655340	0.046419
H160	H	-0.819970	0.692031	-0.000020
N161	N	-0.545502	0.622955	0.000023
H162	H	-0.518145	0.583179	0.000023
H163	H	-0.566157	0.619892	0.046435
H164	H	0.117423	0.895653	-0.185473
N165	N	-0.024153	1.636721	-0.000014
H166	H	-0.016945	1.686780	-0.000015
H167	H	-0.043523	1.627878	-0.046423
N168	N	0.154423	1.153468	0.000001
H169	H	0.148264	1.206183	0.000005
H170	H	0.173531	1.136983	0.046412
N171	N	0.003587	0.732882	-0.175104
H172	H	0.008025	0.739222	-0.119204
H173	H	-0.031594	0.746982	-0.188881
H174	H	0.011312	0.743948	-0.328467
