data_functionalizedCrystal
_audit_creation_method	'MofGen! by Chris Wilmer'
_symmetry_space_group_name_H-M	'P1'
_symmetry_Int_Tables_number	1
_symmetry_cell_setting	triclinic
loop_
_symmetry_equiv_pos_as_xyz
  x,y,z
_cell_length_a	19.121102
_cell_length_b	18.050589
_cell_length_c	18.050582
_cell_angle_alpha	89.981795
_cell_angle_beta	87.546607
_cell_angle_gamma	87.582701
loop_
_atom_site_label
_atom_site_type_symbol
_atom_site_fract_x
_atom_site_fract_y
_atom_site_fract_z
Zn1	Zn	1.073672	-0.344221	-0.468310
Zn2	Zn	1.073587	-0.468400	-0.344126
Zn3	Zn	0.956231	-0.338926	-0.338843
Zn4	Zn	0.956182	-0.463065	-0.462984
O5	O	1.014918	-0.403653	-0.403566
O6	O	1.171944	-0.365142	-0.456277
O7	O	1.058005	-0.451242	-0.239500
O8	O	0.971866	-0.235706	-0.356035
O9	O	1.171882	-0.456376	-0.365039
O10	O	1.058149	-0.239596	-0.451154
O11	O	0.971784	-0.356118	-0.235618
O12	O	0.857941	-0.350944	-0.350871
O13	O	0.971782	-0.447283	-0.567616
O14	O	0.857905	-0.442148	-0.442077
O15	O	1.058101	-0.359969	-0.571529
O16	O	1.057957	-0.571614	-0.359875
O17	O	0.971700	-0.567694	-0.447200
C18	C	1.014833	-0.596601	-0.403550
C19	C	1.014861	-0.679148	-0.403570
C20	C	0.832439	-0.395393	-0.395323
C21	C	0.754374	-0.391878	-0.391815
C22	C	0.968001	-0.876496	-0.451043
C23	C	0.950885	-0.925157	-0.382504
C24	C	1.014930	-0.830282	-0.403583
C25	C	1.032080	-0.928704	-0.472131
C26	C	1.014996	-0.976270	-0.403602
C27	C	0.997781	-0.877853	-0.335007
C28	C	1.079006	-0.881398	-0.424681
C29	C	1.061915	-0.930037	-0.356097
C30	C	1.014891	-0.746182	-0.403574
C31	C	1.015035	-1.060368	-0.403604
C32	C	0.717698	-0.437783	-0.437578
C33	C	0.644347	-0.434470	-0.434285
C34	C	0.607673	-0.385255	-0.385224
C35	C	0.644354	-0.339345	-0.339459
C36	C	0.717704	-0.342654	-0.342756
C37	C	0.386206	-0.372879	-0.372900
C38	C	0.312851	-0.369574	-0.369604
C39	C	0.312849	-0.464698	-0.464431
C40	C	0.386200	-0.468007	-0.467721
C41	C	0.422874	-0.422094	-0.421959
C42	C	0.532697	-0.381869	-0.381855
C43	C	0.497849	-0.425477	-0.425332
C44	C	1.198110	-0.411945	-0.411841
C45	C	1.276175	-0.415479	-0.415367
C46	C	1.014946	-0.403621	-0.597273
C47	C	1.014957	-0.403608	-0.679819
C48	C	1.015022	-0.209952	-0.403599
C49	C	1.015067	-0.127408	-0.403613
C50	C	0.968053	-0.451023	-0.877144
C51	C	1.032131	-0.472072	-0.929423
C52	C	1.014992	-0.403553	-0.830951
C53	C	0.950950	-0.382485	-0.925755
C54	C	1.015020	-0.403500	-0.976938
C55	C	1.079103	-0.424638	-0.882145
C56	C	0.997879	-0.335018	-0.878470
C57	C	1.062001	-0.356043	-0.930729
C58	C	1.014975	-0.403584	-0.746852
C59	C	1.015044	-0.403469	-1.061035
C60	C	1.014931	-0.403633	-0.210614
C61	C	1.015056	-0.403443	-0.128075
H62	H	0.928256	-0.853053	-0.491115
Cl63	Cl	0.763795	-0.499660	-0.499254
H64	H	0.928395	-0.491224	-0.853688
H65	H	1.101754	-0.315879	-0.954054
H66	H	1.046560	-0.951014	-0.530094
H67	H	0.282981	-0.502077	-0.501689
Cl68	Cl	1.054505	-0.561520	-0.963942
H69	H	1.133291	-0.442501	-0.862985
H70	H	0.983369	-0.277097	-0.856096
H71	H	0.896778	-0.364687	-0.945007
H72	H	0.896729	-0.944490	-0.364675
H73	H	0.614489	-0.471851	-0.471549
Cl74	Cl	0.486587	-0.320000	-0.320181
H75	H	0.983239	-0.855630	-0.277026
Cl76	Cl	1.123233	-0.966020	-0.294073
H77	H	0.416054	-0.508085	-0.507670
Cl78	Cl	1.162601	-0.851547	-0.452258
H79	H	0.282993	-0.329488	-0.329658
H80	H	0.416057	-0.335499	-0.335631
H81	H	0.614489	-0.299269	-0.299516
H82	H	0.747564	-0.305270	-0.305495
Cl83	Cl	0.543954	-0.487345	-0.487006
