data_functionalizedCrystal
_audit_creation_method	'MofGen! by Chris Wilmer'
_symmetry_space_group_name_H-M	'P1'
_symmetry_Int_Tables_number	1
_symmetry_cell_setting	triclinic
loop_
_symmetry_equiv_pos_as_xyz
  x,y,z
_cell_length_a	23.532407
_cell_length_b	26.210047
_cell_length_c	23.532407
_cell_angle_alpha	89.990689
_cell_angle_beta	97.151322
_cell_angle_gamma	90.011087
loop_
_atom_site_label
_atom_site_type_symbol
_atom_site_fract_x
_atom_site_fract_y
_atom_site_fract_z
O1	O	0.755269	0.042370	-0.069133
O2	O	0.589406	0.042386	-0.079137
O3	O	0.677339	0.042368	0.008797
O4	O	0.667336	0.042388	-0.157067
O5	O	0.677312	-0.042490	0.008797
O6	O	0.589379	-0.042472	-0.079137
O7	O	0.755242	-0.042488	-0.069133
Cu8	Cu	0.672308	-0.050228	-0.074135
Cu9	Cu	0.672340	0.050127	-0.074135
O10	O	0.667309	-0.042470	-0.157067
C11	C	0.568176	-0.000041	-0.078882
C12	C	0.504959	-0.000035	-0.078116
N13	N	0.672289	-0.120812	-0.074135
C14	C	0.105856	-0.000053	-0.125350
C15	C	0.046456	-0.000056	-0.124638
O16	O	0.009711	-0.000069	-0.168424
N17	N	0.023830	-0.000061	-0.072362
C18	C	0.060607	-0.000069	-0.020794
O19	O	0.035908	-0.000074	0.023737
C20	C	0.120006	-0.000069	-0.021506
C21	C	0.142629	-0.000059	-0.073785
C22	C	0.128479	-0.000043	-0.177625
C23	C	0.187876	-0.000039	-0.178336
C24	C	0.224649	-0.000045	-0.126772
C25	C	0.202025	-0.000055	-0.074497
C26	C	0.156783	-0.000080	0.030062
C27	C	0.216185	-0.000081	0.029345
C28	C	0.238808	-0.000071	-0.022934
C29	C	0.298194	-0.000056	-0.023643
N30	N	0.320820	-0.000051	-0.075920
C31	C	0.284048	-0.000045	-0.127484
C32	C	-0.064135	-0.000069	-0.019302
C33	C	-0.123533	-0.000065	-0.018589
C34	C	-0.137680	-0.000053	-0.122434
C35	C	-0.078281	-0.000053	-0.123146
C36	C	-0.041509	-0.000063	-0.071578
C37	C	0.408784	-0.000036	-0.128974
C38	C	0.468186	-0.000030	-0.129680
C39	C	0.482329	-0.000044	-0.025836
C40	C	0.422932	-0.000048	-0.025129
C41	C	0.386160	-0.000045	-0.076702
O42	O	0.334974	-0.000045	0.020119
O43	O	0.308755	-0.000046	-0.172007
C44	C	0.706678	-0.473325	-0.108495
C45	C	0.706695	-0.686984	-0.108495
O46	O	0.735921	-0.714605	-0.137703
N47	N	0.672354	-0.713706	-0.074129
C48	C	0.638009	-0.687010	-0.039759
O49	O	0.608804	-0.714641	-0.010524
C50	C	0.637995	-0.473352	-0.039756
C51	C	0.672335	-0.446633	-0.074129
C52	C	0.741015	-0.446606	-0.142864
C53	C	0.741009	-0.393194	-0.142866
C54	C	0.706665	-0.366502	-0.108500
C55	C	0.672328	-0.393222	-0.074131
C56	C	0.603653	-0.446657	-0.005383
C57	C	0.603654	-0.393240	-0.005384
C58	C	0.637993	-0.366520	-0.039757
C59	C	0.637977	-0.313118	-0.039766
N60	N	0.672318	-0.286396	-0.074132
C61	C	0.706662	-0.313088	-0.108498
C62	C	0.638017	-0.799183	-0.039763
C63	C	0.638020	-0.852597	-0.039764
C64	C	0.706707	-0.852568	-0.108500
C65	C	0.706701	-0.799152	-0.108501
C66	C	0.672359	-0.772461	-0.074129
C67	C	0.706645	-0.200920	-0.108501
C68	C	0.706633	-0.147504	-0.108501
C69	C	0.637948	-0.147539	-0.039764
C70	C	0.637957	-0.200950	-0.039765
C71	C	0.672310	-0.227640	-0.074135
O72	O	0.608771	-0.285464	-0.010568
O73	O	0.735872	-0.285448	-0.137719
C74	C	0.706685	-0.526737	-0.108493
C75	C	0.672348	-0.553456	-0.074124
C76	C	0.638004	-0.526764	-0.039758
C77	C	0.672351	-0.606870	-0.074126
C78	C	0.706695	-0.633562	-0.108492
C79	C	0.741036	-0.606840	-0.142858
C80	C	0.741029	-0.553429	-0.142860
C81	C	0.603663	-0.553486	-0.005392
C82	C	0.603672	-0.606897	-0.005393
C83	C	0.638016	-0.633589	-0.039760
C84	C	0.776472	-0.000059	-0.069388
C85	C	0.839689	-0.000062	-0.070154
C86	C	0.677071	-0.000062	0.030013
C87	C	0.676305	-0.000066	0.093230
N88	N	0.672364	0.120710	-0.074131
C89	C	0.667577	-0.000038	-0.178283
C90	C	0.668343	-0.000031	-0.241500
C91	C	0.723539	-0.000042	0.492333
C92	C	0.722827	-0.000038	0.551733
O93	O	0.766613	-0.000024	0.588478
N94	N	0.670551	-0.000034	0.574359
C95	C	0.618983	-0.000028	0.537582
O96	O	0.574452	-0.000023	0.562281
C97	C	0.619695	-0.000028	0.478182
C98	C	0.671974	-0.000038	0.455560
C99	C	0.775814	-0.000051	0.469710
C100	C	0.776525	-0.000056	0.410313
C101	C	0.724961	-0.000052	0.373540
C102	C	0.672685	-0.000043	0.396164
C103	C	0.568127	-0.000019	0.441406
C104	C	0.568844	-0.000019	0.382004
C105	C	0.621123	-0.000028	0.359381
C106	C	0.621832	-0.000043	0.299995
N107	N	0.674109	-0.000048	0.277368
C108	C	0.725673	-0.000052	0.314141
C109	C	0.617491	-0.000026	0.662324
C110	C	0.616778	-0.000030	0.721722
C111	C	0.720623	-0.000039	0.735869
C112	C	0.721335	-0.000039	0.676470
C113	C	0.669767	-0.000031	0.639698
C114	C	0.727163	-0.000063	0.189405
C115	C	0.727869	-0.000070	0.130003
C116	C	0.624025	-0.000058	0.115860
C117	C	0.623318	-0.000054	0.175257
C118	C	0.674891	-0.000054	0.212029
O119	O	0.578070	-0.000056	0.263215
O120	O	0.770196	-0.000050	0.289433
H121	H	0.486602	-0.000021	-0.172255
N122	N	0.600915	-0.229766	-0.002694
H123	H	0.625871	-0.251921	0.025312
H124	H	0.572905	-0.251904	-0.027666
H125	H	-0.167632	-0.000051	-0.164421
N126	N	0.566930	-0.000047	0.199658
H127	H	0.564331	0.031414	0.223977
H128	H	0.564343	-0.031521	0.223969
H129	H	0.610050	-0.777456	-0.011771
N130	N	0.566635	-0.635712	0.031686
H131	H	0.591597	-0.657867	0.059687
H132	H	0.538623	-0.657851	0.006717
N133	N	0.561871	-0.000026	0.622659
H134	H	0.539056	0.031432	0.629899
H135	H	0.539087	-0.031503	0.629930
N136	N	0.566620	-0.524701	0.031679
H137	H	0.544869	-0.549738	0.053447
H138	H	0.538634	-0.502544	0.006705
H139	H	0.525555	-0.000008	0.459814
N140	N	0.560390	-0.000021	0.746117
H141	H	0.567758	-0.000018	0.789326
H142	H	0.537832	-0.031477	0.732649
H143	H	0.512280	-0.000047	0.016146
H144	H	0.582043	-0.000056	0.085909
N145	N	0.369129	-0.000045	-0.184598
H146	H	0.392482	-0.000042	-0.217818
H147	H	0.344175	0.031408	-0.186576
N148	N	0.212272	-0.000025	-0.234724
H149	H	0.179956	-0.000022	-0.267277
H150	H	0.236602	-0.031481	-0.237287
N151	N	0.782785	-0.000067	0.229063
H152	H	0.805620	0.031385	0.221810
H153	H	0.805547	-0.031550	0.221803
H154	H	0.734618	-0.222644	-0.136488
H155	H	0.575691	-0.468403	0.022607
N156	N	0.566614	-0.364453	0.031693
H157	H	0.525115	-0.373758	0.020252
H158	H	0.571867	-0.326570	0.026465
N159	N	0.088822	-0.000066	-0.233245
H160	H	0.112176	-0.000069	-0.266464
H161	H	0.063862	0.031385	-0.235236
H162	H	0.768974	-0.371444	-0.170853
N163	N	0.777722	-0.000046	0.652072
H164	H	0.780323	-0.031504	0.627748
H165	H	0.810243	-0.000032	0.684417
N166	N	-0.147930	-0.000067	0.037797
H167	H	-0.115616	-0.000069	0.070352
H168	H	-0.172271	-0.031526	0.040358
H169	H	0.734663	-0.777401	-0.136491
N170	N	-0.024475	-0.000077	0.036321
H171	H	-0.047826	-0.000080	0.069542
H172	H	0.000486	0.031380	0.038291
N173	N	-0.053883	-0.000040	-0.179533
H174	H	-0.086197	-0.000035	-0.212087
H175	H	-0.029555	-0.031498	-0.182095
N176	N	0.132390	-0.000096	0.086449
H177	H	0.145831	0.031355	0.109029
H178	H	0.145827	-0.031580	0.108970
N179	N	0.255847	-0.000095	0.084966
H180	H	0.232498	-0.000102	0.118189
H181	H	0.280806	0.031363	0.086938
N182	N	0.398527	-0.000049	0.031256
H183	H	0.430838	-0.000050	0.063814
H184	H	0.374188	-0.031510	0.033815
H185	H	0.526850	-0.000011	0.352066
N186	N	0.778075	-0.475390	-0.179920
H187	H	0.799828	-0.450351	-0.201684
H188	H	0.753100	-0.497557	-0.207895
N189	N	0.784260	-0.000077	0.105605
H190	H	0.776890	-0.000080	0.062396
H191	H	0.806797	-0.031536	0.119087
H192	H	0.734596	-0.125752	-0.136494
N193	N	0.743750	-0.881362	-0.145569
H194	H	0.738538	-0.919253	-0.140350
H195	H	0.785232	-0.872020	-0.134102
H196	H	0.610050	-0.874348	-0.011782
N197	N	0.600912	-0.118744	-0.002692
H198	H	0.606126	-0.080853	-0.007908
H199	H	0.612412	-0.128085	0.038784
N200	N	0.778069	-0.524614	-0.179931
H201	H	0.799825	-0.549635	-0.201697
H202	H	0.806051	-0.502450	-0.154958
N203	N	0.778077	-0.635635	-0.179928
H204	H	0.772866	-0.673526	-0.174708
H205	H	0.819559	-0.626292	-0.168466
N206	N	0.832913	-0.000065	0.385917
H207	H	0.865466	-0.000066	0.418233
H208	H	0.835483	0.031392	0.361576
N209	N	0.831434	-0.000057	0.509367
H210	H	0.864653	-0.000063	0.486012
H211	H	0.833392	-0.031516	0.534322
H212	H	0.762610	-0.000041	0.765821
