data_functionalizedCrystal
_audit_creation_method	'MofGen! by Chris Wilmer'
_symmetry_space_group_name_H-M	'P1'
_symmetry_Int_Tables_number	1
_symmetry_cell_setting	triclinic
loop_
_symmetry_equiv_pos_as_xyz
  x,y,z
_cell_length_a	16.625548
_cell_length_b	16.625546
_cell_length_c	11.169409
_cell_angle_alpha	89.961577
_cell_angle_beta	89.976847
_cell_angle_gamma	90.023536
loop_
_atom_site_label
_atom_site_type_symbol
_atom_site_fract_x
_atom_site_fract_y
_atom_site_fract_z
Zn1	Zn	1.232701	-0.320913	-0.678599
Zn2	Zn	1.566034	0.012420	-0.345265
Zn3	Zn	1.899368	0.345753	-0.011932
Zn4	Zn	1.232598	-0.455775	-0.477894
Zn5	Zn	1.565932	-0.122442	-0.144561
Zn6	Zn	1.899265	0.210891	0.188773
Zn7	Zn	1.097857	-0.320963	-0.477921
Zn8	Zn	1.431190	0.012370	-0.144588
Zn9	Zn	1.764523	0.345704	0.188745
Zn10	Zn	1.097833	-0.455710	-0.678527
Zn11	Zn	1.431167	-0.122377	-0.345194
Zn12	Zn	1.764500	0.210957	-0.011861
O13	O	1.165247	-0.388340	-0.578235
O14	O	1.498581	-0.055007	-0.244902
O15	O	1.831914	0.278326	0.088431
O16	O	1.345520	-0.338810	-0.651993
O17	O	1.678853	-0.005476	-0.318660
O18	O	2.012186	0.327857	0.014674
O19	O	1.214691	-0.437940	-0.309948
O20	O	1.548025	-0.104607	0.023385
O21	O	1.881358	0.228726	0.356719
O22	O	1.115797	-0.208124	-0.504583
O23	O	1.449130	0.125209	-0.171249
O24	O	1.782464	0.458543	0.162084
O25	O	1.345444	-0.437892	-0.504536
O26	O	1.678778	-0.104559	-0.171203
O27	O	2.012111	0.228775	0.162130
O28	O	1.214867	-0.208087	-0.652019
O29	O	1.548200	0.125246	-0.318686
O30	O	1.881533	0.458579	0.014647
O31	O	1.115697	-0.338894	-0.309968
O32	O	1.449031	-0.005561	0.023366
O33	O	1.782364	0.327773	0.356699
O34	O	0.985021	-0.338831	-0.504514
O35	O	1.318355	-0.005498	-0.171180
O36	O	1.651688	0.327836	0.162153
O37	O	1.115757	-0.437781	-0.846487
O38	O	1.449090	-0.104448	-0.513153
O39	O	1.782424	0.228886	-0.179820
O40	O	0.985004	-0.437829	-0.651898
O41	O	1.318337	-0.104496	-0.318565
O42	O	1.651671	0.228838	0.014769
O43	O	1.214844	-0.338746	-0.846539
O44	O	1.548177	-0.005413	-0.513206
O45	O	1.881510	0.327920	-0.179872
O46	O	1.214668	-0.568599	-0.504467
O47	O	1.548002	-0.235266	-0.171134
O48	O	1.881335	0.098068	0.162199
O49	O	1.115657	-0.568551	-0.651872
O50	O	1.448991	-0.235218	-0.318538
O51	O	1.782324	0.098115	0.014795
C52	C	0.955756	-0.388329	-0.578202
C53	C	1.289090	-0.054996	-0.244868
C54	C	1.622423	0.278338	0.088465
C55	C	0.866135	-0.388343	-0.578216
C56	C	1.199469	-0.055010	-0.244883
C57	C	1.532802	0.278323	0.088451
C58	C	0.537960	-0.388349	-0.578267
C59	C	0.871293	-0.055015	-0.244934
C60	C	1.204626	0.278318	0.088399
C61	C	0.629268	-0.388345	-0.578249
C62	C	0.962602	-0.055012	-0.244916
C63	C	1.295935	0.278322	0.088418
C64	C	0.702045	-0.388346	-0.578241
C65	C	1.035378	-0.055013	-0.244907
C66	C	1.368711	0.278320	0.088426
C67	C	0.793359	-0.388342	-0.578224
C68	C	1.126692	-0.055009	-0.244891
C69	C	1.460026	0.278325	0.088442
C70	C	1.165171	-0.597831	-0.578185
C71	C	1.498504	-0.264498	-0.244852
C72	C	1.831838	0.068835	0.088482
C73	C	1.165212	-0.687452	-0.578204
C74	C	1.498545	-0.354119	-0.244870
C75	C	1.831879	-0.020786	0.088463
C76	C	1.165353	-1.015628	-0.578329
C77	C	1.498686	-0.682295	-0.244995
C78	C	1.832019	-0.348961	0.088338
C79	C	1.165311	-0.924320	-0.578297
C80	C	1.498644	-0.590986	-0.244964
C81	C	1.831978	-0.257653	0.088369
C82	C	1.165282	-0.851543	-0.578266
C83	C	1.498615	-0.518210	-0.244932
C84	C	1.831948	-0.184876	0.088401
C85	C	1.165241	-0.760229	-0.578235
C86	C	1.498575	-0.426896	-0.244902
C87	C	1.831908	-0.093562	0.088431
C88	C	1.375556	-0.388353	-0.578270
C89	C	1.708890	-0.055019	-0.244936
C90	C	2.042223	0.278314	0.088397
C91	C	1.465177	-0.388358	-0.578284
C92	C	1.798511	-0.055024	-0.244951
C93	C	2.131844	0.278309	0.088382
C94	C	1.165309	-0.388251	-0.891278
C95	C	1.498643	-0.054918	-0.557945
C96	C	1.831976	0.278416	-0.224611
C97	C	1.165336	-0.388213	-1.024678
C98	C	1.498669	-0.054879	-0.691345
C99	C	1.832002	0.278454	-0.358011
C100	C	1.165346	-0.178032	-0.578312
C101	C	1.498679	0.155302	-0.244979
C102	C	1.832013	0.488635	0.088355
C103	C	1.165388	-0.088410	-0.578345
C104	C	1.498721	0.244923	-0.245011
C105	C	1.832055	0.578256	0.088322
C106	C	1.165232	-0.388371	-0.266411
C107	C	1.498565	-0.055038	0.066923
C108	C	1.831899	0.278295	0.400256
C109	C	1.165362	-0.388182	-0.133011
C110	C	1.498695	-0.054849	0.200322
C111	C	1.832029	0.278484	0.533655
