data_functionalizedCrystal
_audit_creation_method	'MofGen! by Chris Wilmer'
_symmetry_space_group_name_H-M	'P1'
_symmetry_Int_Tables_number	1
_symmetry_cell_setting	triclinic
loop_
_symmetry_equiv_pos_as_xyz
  x,y,z
_cell_length_a	14.586319
_cell_length_b	16.109301
_cell_length_c	16.109301
_cell_angle_alpha	96.538519
_cell_angle_beta	89.994786
_cell_angle_gamma	90.000787
loop_
_atom_site_label
_atom_site_type_symbol
_atom_site_fract_x
_atom_site_fract_y
_atom_site_fract_z
O1	O	-0.076185	-1.103131	0.106866
O2	O	-0.076200	-0.861069	0.120165
O3	O	-0.076183	-0.988749	-0.007515
O4	O	-0.076203	-0.975450	0.234547
O5	O	0.076298	-0.988741	-0.007517
O6	O	0.076281	-0.861060	0.120164
O7	O	0.076295	-1.103122	0.106864
Cu8	Cu	0.090211	-0.982090	0.113514
Cu9	Cu	-0.090115	-0.982101	0.113516
O10	O	0.076278	-0.975441	0.234545
C11	C	0.000038	-0.830090	0.119626
C12	C	0.000033	-0.737794	0.118011
N13	N	0.217042	-0.982089	0.113512
N14	N	-0.216947	-0.982109	0.113511
C15	C	0.000058	-0.988206	-0.038491
C16	C	0.000059	-0.986591	-0.130786
C17	C	0.452057	-1.038644	0.056994
C18	C	0.548038	-1.038647	0.056992
C19	C	0.548032	-0.925547	0.170032
C20	C	0.452052	-0.925541	0.170030
C21	C	0.404067	-0.982095	0.113511
C22	C	0.596028	-0.982103	0.113512
C23	C	0.700095	-0.982105	0.113510
C24	C	0.299993	-0.982092	0.113512
C25	C	0.000055	-1.134101	0.107404
C26	C	0.000054	-1.226397	0.109019
C27	C	0.000038	-0.515522	0.190018
C28	C	0.000044	-0.428801	0.188494
C29	C	0.000052	-0.448676	0.037006
C30	C	0.000053	-0.535394	0.038530
C31	C	0.000041	-0.568815	0.115039
C32	C	0.000046	-0.395376	0.111990
C33	C	0.000053	-0.301350	0.110337
C34	C	0.000036	-0.662847	0.116693
C35	C	0.000049	-1.058599	-0.353059
C36	C	0.000041	-1.057075	-0.439779
C37	C	0.000036	-0.905586	-0.419905
C38	C	0.000037	-0.907111	-0.333186
C39	C	0.000048	-0.983620	-0.299766
C40	C	0.000039	-0.980571	-0.473205
C41	C	0.000031	-0.978918	-0.567231
C42	C	0.000055	-0.985273	-0.205734
C43	C	0.000035	-0.975984	0.265521
C44	C	0.000028	-0.977600	0.357816
H45	H	0.412989	-1.084693	0.010972
O46	O	-0.000127	-0.834294	-0.281377
C47	C	-0.079088	-0.830659	-0.230602
H48	H	-0.134281	-0.873183	-0.262374
H49	H	-0.105600	-0.763687	-0.220825
H50	H	-0.061234	-0.852166	-0.167552
O51	O	0.594512	-1.093662	0.002061
C52	C	0.531574	-1.143557	-0.047836
H53	H	0.463153	-1.144482	-0.013747
H54	H	0.559301	-1.209955	-0.060500
H55	H	0.521373	-1.116582	-0.109607
O56	O	0.000215	-0.416250	-0.037333
C57	C	0.079175	-0.443499	-0.083055
H58	H	0.134374	-0.461520	-0.038322
H59	H	0.105679	-0.390977	-0.118419
H60	H	0.061323	-0.500034	-0.129394
O61	O	0.000008	-1.132989	-0.320731
C62	C	0.000027	-1.198839	-0.386369
H63	H	-0.028839	-1.175544	-0.445269
H64	H	-0.044246	-1.252252	-0.368261
H65	H	0.073178	-1.221970	-0.398654
O66	O	0.594789	-0.870699	0.224905
C67	C	0.689794	-0.882817	0.212778
H68	H	0.702901	-0.948923	0.181721
H69	H	0.726262	-0.873554	0.275740
H70	H	0.717044	-0.835773	0.171067
H71	H	0.000040	-1.118130	-0.483168
H72	H	0.412977	-0.879487	0.216053
H73	H	0.000035	-0.542730	0.252317
H74	H	0.000043	-0.385413	0.249550
H75	H	0.000058	-0.578788	-0.022530
O76	O	0.000074	-0.831342	-0.452510
C77	C	0.000053	-0.846072	-0.540478
H78	H	0.028921	-0.910958	-0.560864
H79	H	0.044323	-0.797119	-0.567092
H80	H	-0.073099	-0.842049	-0.564612
