data_functionalizedCrystal
_audit_creation_method	'MofGen! by Chris Wilmer'
_symmetry_space_group_name_H-M	'P1'
_symmetry_Int_Tables_number	1
_symmetry_cell_setting	triclinic
loop_
_symmetry_equiv_pos_as_xyz
  x,y,z
_cell_length_a	14.519709
_cell_length_b	9.065215
_cell_length_c	7.540329
_cell_angle_alpha	89.997574
_cell_angle_beta	89.995460
_cell_angle_gamma	84.347421
loop_
_atom_site_label
_atom_site_type_symbol
_atom_site_fract_x
_atom_site_fract_y
_atom_site_fract_z
O1	O	0.135213	1.957867	-0.147466
O2	O	0.146307	1.528374	-0.147475
O3	O	0.006605	1.754508	-0.147454
O4	O	0.274915	1.731733	-0.147487
O5	O	0.006603	1.754494	0.147511
O6	O	0.146305	1.528360	0.147490
O7	O	0.135211	1.957853	0.147499
Cu8	Cu	0.140758	1.743106	0.174427
Cu9	Cu	0.140760	1.743121	-0.174403
O10	O	0.274913	1.731719	0.147478
C11	C	0.145241	1.473400	0.000007
C12	C	0.142054	1.309617	0.000004
C13	C	-0.027764	1.753439	0.000028
C14	C	-0.130168	1.750259	0.000029
C15	C	-0.505150	1.738550	-0.000017
C16	C	-0.400818	1.741801	-0.000004
C17	C	-0.317662	1.744404	0.000008
C18	C	-0.213324	1.747656	0.000018
C19	C	0.309282	1.732788	-0.000008
C20	C	0.411686	1.735968	-0.000021
C21	C	0.136277	2.012827	0.000013
C22	C	0.139464	2.176610	0.000004
N23	N	0.140756	1.743105	0.419776
N24	N	0.140755	1.743134	-0.419752
