data_functionalizedCrystal
_audit_creation_method	'MofGen! by Chris Wilmer'
_symmetry_space_group_name_H-M	'P1'
_symmetry_Int_Tables_number	1
_symmetry_cell_setting	triclinic
loop_
_symmetry_equiv_pos_as_xyz
  x,y,z
_cell_length_a	16.625547
_cell_length_b	18.101397
_cell_length_c	16.625539
_cell_angle_alpha	89.970010
_cell_angle_beta	89.978691
_cell_angle_gamma	90.020402
loop_
_atom_site_label
_atom_site_type_symbol
_atom_site_fract_x
_atom_site_fract_y
_atom_site_fract_z
Zn1	Zn	1.232664	-0.294843	-0.455981
Zn2	Zn	1.565997	0.038490	-0.122648
Zn3	Zn	1.899330	0.371824	0.210686
Zn4	Zn	1.232580	-0.418688	-0.321140
Zn5	Zn	1.565913	-0.085355	0.012194
Zn6	Zn	1.899247	0.247979	0.345527
Zn7	Zn	1.097834	-0.294865	-0.321151
Zn8	Zn	1.431167	0.038469	0.012182
Zn9	Zn	1.764500	0.371802	0.345515
Zn10	Zn	1.097801	-0.418647	-0.455920
Zn11	Zn	1.431134	-0.085314	-0.122586
Zn12	Zn	1.764467	0.248020	0.210747
O13	O	1.165220	-0.356761	-0.388548
O14	O	1.498553	-0.023427	-0.055215
O15	O	1.831886	0.309906	0.278119
O16	O	1.345485	-0.311279	-0.438115
O17	O	1.678818	0.022054	-0.104781
O18	O	2.012152	0.355387	0.228552
O19	O	1.214684	-0.402289	-0.208309
O20	O	1.548018	-0.068956	0.125024
O21	O	1.881351	0.264378	0.458358
O22	O	1.115768	-0.191229	-0.339067
O23	O	1.449102	0.142104	-0.005734
O24	O	1.782435	0.475438	0.327599
O25	O	1.345423	-0.402268	-0.339048
O26	O	1.678757	-0.068934	-0.005714
O27	O	2.012090	0.264399	0.327619
O28	O	1.214827	-0.191213	-0.438126
O29	O	1.548161	0.142120	-0.104793
O30	O	1.881494	0.475454	0.228541
O31	O	1.115687	-0.311316	-0.208317
O32	O	1.449020	0.022017	0.125016
O33	O	1.782354	0.355350	0.458349
O34	O	0.984997	-0.311277	-0.339008
O35	O	1.318330	0.022057	-0.005675
O36	O	1.651664	0.355390	0.327659
O37	O	1.115712	-0.402198	-0.568760
O38	O	1.449045	-0.068865	-0.235427
O39	O	1.782378	0.264469	0.097906
O40	O	0.984973	-0.402219	-0.438022
O41	O	1.318306	-0.068886	-0.104688
O42	O	1.651639	0.264448	0.228645
O43	O	1.214795	-0.311240	-0.568805
O44	O	1.548128	0.022094	-0.235472
O45	O	1.881462	0.355427	0.097861
O46	O	1.214652	-0.522316	-0.338988
O47	O	1.547986	-0.188982	-0.005655
O48	O	1.881319	0.144351	0.327679
O49	O	1.115631	-0.522286	-0.438010
O50	O	1.448964	-0.188952	-0.104677
O51	O	1.782297	0.144381	0.228656
C52	C	0.955729	-0.356746	-0.388510
C53	C	1.289062	-0.023413	-0.055177
C54	C	1.622395	0.309920	0.278157
C55	C	0.866108	-0.356758	-0.388513
C56	C	1.199441	-0.023425	-0.055179
C57	C	1.532774	0.309909	0.278154
C58	C	0.793325	-0.356760	-0.388523
C59	C	1.126658	-0.023426	-0.055189
C60	C	1.459992	0.309907	0.278144
C61	C	0.702017	-0.356763	-0.388543
C62	C	1.035350	-0.023430	-0.055210
C63	C	1.368683	0.309903	0.278124
C64	C	0.629240	-0.356770	-0.388563
C65	C	0.962574	-0.023437	-0.055230
C66	C	1.295907	0.309896	0.278103
C67	C	0.537926	-0.356775	-0.388583
C68	C	0.871259	-0.023442	-0.055249
C69	C	1.204593	0.309891	0.278084
C70	C	1.165151	-0.549171	-0.388509
C71	C	1.498484	-0.215838	-0.055176
C72	C	1.831817	0.117495	0.278158
C73	C	1.165195	-0.631485	-0.388519
C74	C	1.498528	-0.298152	-0.055186
C75	C	1.831861	0.035181	0.278148
C76	C	1.165298	-0.930576	-0.388593
C77	C	1.498631	-0.597243	-0.055259
C78	C	1.831964	-0.263910	0.278074
C79	C	1.227426	-0.899239	-0.326124
C80	C	1.560759	-0.565906	0.007210
C81	C	1.894092	-0.232573	0.340543
C82	C	1.227641	-0.813621	-0.326286
C83	C	1.560974	-0.480287	0.007048
C84	C	1.894308	-0.146954	0.340381
C85	C	1.165247	-0.782194	-0.388556
C86	C	1.498580	-0.448861	-0.055222
C87	C	1.831913	-0.115527	0.278111
C88	C	1.188278	-0.813202	-0.473547
C89	C	1.521611	-0.479869	-0.140214
C90	C	1.854944	-0.146535	0.193119
C91	C	1.188759	-0.898847	-0.473207
C92	C	1.522092	-0.565514	-0.139874
C93	C	1.855425	-0.232180	0.193460
C94	C	1.079973	-0.899085	-0.366805
C95	C	1.413306	-0.565752	-0.033472
C96	C	1.746640	-0.232418	0.299861
C97	C	1.080394	-0.813436	-0.364908
C98	C	1.413728	-0.480102	-0.031575
C99	C	1.747061	-0.146769	0.301758
C100	C	1.165216	-0.698334	-0.388540
C101	C	1.498550	-0.365001	-0.055206
C102	C	1.831883	-0.031668	0.278127
C103	C	1.165330	-1.014436	-0.388614
C104	C	1.498663	-0.681102	-0.055281
C105	C	1.831997	-0.347769	0.278052
C106	C	1.375528	-0.356776	-0.388587
C107	C	1.708862	-0.023442	-0.055253
C108	C	2.042195	0.309891	0.278080
C109	C	1.465150	-0.356782	-0.388603
C110	C	1.798483	-0.023449	-0.055270
C111	C	2.131816	0.309885	0.278063
C112	C	1.165259	-0.356712	-0.598857
C113	C	1.498592	-0.023379	-0.265524
C114	C	1.831926	0.309955	0.067810
C115	C	1.165276	-0.356691	-0.688478
C116	C	1.498609	-0.023358	-0.355145
C117	C	1.831943	0.309976	-0.021811
C118	C	1.165311	-0.163599	-0.388605
C119	C	1.498644	0.169734	-0.055272
C120	C	1.831977	0.503068	0.278062
C121	C	1.165350	-0.081285	-0.388629
C122	C	1.498683	0.252049	-0.055296
C123	C	1.832016	0.585382	0.278038
C124	C	1.165289	-0.356675	-0.761261
C125	C	1.498622	-0.023341	-0.427927
C126	C	1.831956	0.309992	-0.094594
C127	C	1.165308	-0.356647	-0.852569
C128	C	1.498641	-0.023314	-0.519236
C129	C	1.831975	0.310020	-0.185903
C130	C	1.165327	-0.356621	-0.925346
C131	C	1.498660	-0.023288	-0.592012
C132	C	1.831994	0.310046	-0.258679
C133	C	1.165347	-0.356594	-1.016660
C134	C	1.498680	-0.023261	-0.683327
C135	C	1.832014	0.310072	-0.349993
C136	C	1.165227	-0.356756	-0.179057
C137	C	1.498560	-0.023423	0.154276
C138	C	1.831893	0.309911	0.487609
C139	C	1.165366	-0.356568	-0.089437
C140	C	1.498699	-0.023235	0.243897
C141	C	1.832033	0.310098	0.577230
H142	H	1.213233	-0.792658	-0.263266
H143	H	1.546566	-0.459325	0.070068
H144	H	1.879899	-0.125992	0.403401
C145	C	1.273019	-0.925759	-0.498128
C146	C	1.606352	-0.592425	-0.164795
C147	C	1.939685	-0.259092	0.168538
N148	N	1.336486	-0.946025	-0.516896
N149	N	1.669820	-0.612692	-0.183563
N150	N	2.003153	-0.279358	0.149771
H151	H	1.213191	-0.919882	-0.262915
H152	H	1.546525	-0.586548	0.070418
H153	H	1.879858	-0.253215	0.403752
C154	C	1.312343	-0.928255	-0.345362
C155	C	1.645677	-0.594922	-0.012028
C156	C	1.979010	-0.261588	0.321305
N157	N	1.376301	-0.950117	-0.359849
N158	N	1.709634	-0.616783	-0.026516
N159	N	2.042968	-0.283450	0.306817
H160	H	1.033683	-0.919351	-0.412304
H161	H	1.367016	-0.586018	-0.078971
H162	H	1.700350	-0.252685	0.254362
H163	H	1.059020	-0.920745	-0.305904
H164	H	1.392353	-0.587412	0.027430
H165	H	1.725687	-0.254078	0.360763
H166	H	1.290845	-0.793077	-0.340701
H167	H	1.624178	-0.459744	-0.007368
H168	H	1.957512	-0.126411	0.325965
C169	C	1.130290	-0.926850	-0.538239
C170	C	1.463623	-0.593517	-0.204906
C171	C	1.796956	-0.260184	0.128428
N172	N	1.086257	-0.947939	-0.587226
N173	N	1.419591	-0.614606	-0.253893
N174	N	1.752924	-0.281273	0.079441
H175	H	1.144410	-0.792843	-0.521344
H176	H	1.477743	-0.459510	-0.188010
H177	H	1.811077	-0.126176	0.145323
H178	H	1.249948	-0.791695	-0.492314
H179	H	1.583281	-0.458361	-0.158981
H180	H	1.916615	-0.125028	0.174353
C181	C	1.056925	-0.786057	-0.280415
C182	C	1.390259	-0.452724	0.052919
C183	C	1.723592	-0.119390	0.386252
N184	N	1.039249	-0.765428	-0.216775
N185	N	1.372582	-0.432095	0.116558
N186	N	1.705916	-0.098762	0.449891
H187	H	1.031615	-0.792051	-0.407075
H188	H	1.364948	-0.458717	-0.073742
H189	H	1.698281	-0.125384	0.259592
