data_functionalizedCrystal
_audit_creation_method	'MofGen! by Chris Wilmer'
_symmetry_space_group_name_H-M	'P1'
_symmetry_Int_Tables_number	1
_symmetry_cell_setting	triclinic
loop_
_symmetry_equiv_pos_as_xyz
  x,y,z
_cell_length_a	10.489716
_cell_length_b	10.489741
_cell_length_c	11.295483
_cell_angle_alpha	94.137284
_cell_angle_beta	85.853524
_cell_angle_gamma	84.534155
loop_
_atom_site_label
_atom_site_type_symbol
_atom_site_fract_x
_atom_site_fract_y
_atom_site_fract_z
O1	O	1.702584	0.171308	-0.099015
O2	O	1.331385	0.188233	-0.099019
O3	O	1.525431	-0.005828	-0.099010
O4	O	1.508539	0.365368	-0.099024
O5	O	1.508387	0.011190	0.099040
O6	O	1.314341	0.205251	0.099031
O7	O	1.685541	0.188326	0.099035
Cu8	Cu	1.498385	0.198342	0.117117
Cu9	Cu	1.518541	0.178216	-0.117100
O10	O	1.491495	0.382386	0.099026
C11	C	1.275331	0.195470	0.000005
C12	C	1.133700	0.191665	0.000004
C13	C	1.515633	-0.044850	0.000015
C14	C	1.511816	-0.186480	0.000012
C15	C	1.036027	0.310669	-0.000004
C16	C	0.950277	0.256176	0.097653
C17	C	0.967087	0.239369	-0.097609
C18	C	1.049809	0.137229	0.097741
C19	C	1.066632	0.120432	-0.097608
C20	C	0.980929	0.065854	0.000072
C21	C	1.388351	-0.254610	0.000002
C22	C	1.438271	-0.338346	0.097652
C23	C	1.455104	-0.355100	-0.097610
C24	C	1.561780	-0.268344	0.097743
C25	C	1.578604	-0.285095	-0.097607
C26	C	1.628612	-0.368803	0.000067
C27	C	1.741595	0.181088	0.000008
C28	C	1.883226	0.184892	0.000002
C29	C	1.501293	0.421409	-0.000001
C30	C	1.505111	0.563037	-0.000007
N31	N	1.484217	0.212497	0.281852
N32	N	1.532718	0.164051	-0.281836
C33	C	1.634703	0.062085	0.531149
C34	C	1.624006	0.072791	0.655812
C35	C	1.452120	0.244608	0.655844
C36	C	1.462817	0.233902	0.531181
C37	C	1.554113	0.142639	0.468838
C38	C	1.564816	0.131940	0.344172
C39	C	1.392925	0.303750	0.344206
C40	C	1.382228	0.314456	0.468869
H41	H	0.899690	0.313507	0.180209
O42	O	1.253882	-0.188801	0.000137
H43	H	1.257994	-0.083525	-0.000694
O44	O	1.710941	-0.014089	0.723011
H45	H	1.651810	-0.071738	0.779814
O46	O	0.948525	-0.071346	0.000155
H47	H	0.997064	-0.127903	-0.080147
O48	O	1.097747	0.080160	0.207231
H49	H	1.075262	-0.021100	0.207498
O50	O	1.353634	0.343018	0.723088
H51	H	1.372831	0.440568	0.699161
H52	H	1.060689	0.414192	0.000084
O53	O	1.359678	-0.370025	0.207012
H54	H	1.259981	-0.323886	0.206816
H55	H	1.637905	-0.261150	-0.180166
H56	H	1.307893	0.388758	0.519644
O57	O	1.395304	-0.405530	-0.206969
H58	H	1.295581	-0.359335	-0.206755
H59	H	1.709048	-0.012216	0.480388
H60	H	1.606864	-0.230415	0.180390
O61	O	1.305988	0.390631	0.276995
H62	H	1.365129	0.448260	0.220181
O63	O	1.133680	0.044541	-0.206961
H64	H	1.100600	0.087204	-0.287905
H65	H	0.930708	0.282537	-0.180158
O66	O	1.763191	-0.434298	0.000067
H67	H	1.770577	-0.488765	0.080382
O68	O	1.663271	0.033504	0.276922
H69	H	1.717501	-0.020721	0.341201
