data_functionalizedCrystal
_audit_creation_method	'MofGen! by Chris Wilmer'
_symmetry_space_group_name_H-M	'P1'
_symmetry_Int_Tables_number	1
_symmetry_cell_setting	triclinic
loop_
_symmetry_equiv_pos_as_xyz
  x,y,z
_cell_length_a	19.188933
_cell_length_b	19.188924
_cell_length_c	15.072220
_cell_angle_alpha	89.996779
_cell_angle_beta	89.988933
_cell_angle_gamma	83.143767
loop_
_atom_site_label
_atom_site_type_symbol
_atom_site_fract_x
_atom_site_fract_y
_atom_site_fract_z
O1	O	0.926150	0.087170	-0.073757
O2	O	1.426150	0.587170	0.426243
O3	O	0.722839	0.098903	-0.073766
O4	O	1.222839	0.598903	0.426234
O5	O	0.830364	-0.008620	-0.073751
O6	O	1.330364	0.491380	0.426249
O7	O	0.818625	0.194692	-0.073772
O8	O	1.318625	0.694692	0.426228
O9	O	0.830338	-0.008614	0.073814
O10	O	1.330338	0.491386	0.573814
O11	O	0.722812	0.098909	0.073799
O12	O	1.222812	0.598909	0.573799
O13	O	0.926124	0.087176	0.073808
O14	O	1.426124	0.587176	0.573808
Zn15	Zn	0.824464	0.093043	0.097233
Zn16	Zn	1.324464	0.593043	0.597233
Zn17	Zn	0.824499	0.093035	-0.097190
Zn18	Zn	1.324499	0.593035	0.402810
O19	O	0.818599	0.194698	0.073793
O20	O	1.318599	0.694698	0.573793
C21	C	0.696815	0.098525	0.000016
C22	C	1.196815	0.598525	0.500016
C23	C	0.619310	0.097384	0.000013
C24	C	1.119310	0.597384	0.500013
C25	C	0.066070	0.089236	-0.080415
C26	C	0.566070	0.589236	0.419585
C27	C	0.138894	0.090304	-0.080418
C28	C	0.638894	0.590304	0.419582
C29	C	0.175296	0.090844	0.000019
C30	C	0.675296	0.590844	0.500019
C31	C	0.138871	0.090299	0.080466
C32	C	0.638871	0.590299	0.580466
C33	C	0.066049	0.089224	0.080468
C34	C	0.566049	0.589224	0.580468
N35	N	0.284305	0.132265	0.059888
N36	N	0.784305	0.632265	0.559888
N37	N	0.353482	0.133288	0.059882
N38	N	0.853482	0.633288	0.559882
C39	C	0.394705	0.094082	0.000020
C40	C	0.894705	0.594082	0.500020
N41	N	0.364136	0.053823	-0.059847
N42	N	0.864136	0.553823	0.440153
N43	N	0.294951	0.052804	-0.059843
N44	N	0.794951	0.552804	0.440157
C45	C	0.254260	0.092010	0.000027
C46	C	0.754260	0.592010	0.500027
C47	C	0.510087	0.095781	-0.080425
C48	C	1.010087	0.595781	0.419575
C49	C	0.582913	0.096845	-0.080425
C50	C	1.082913	0.596845	0.419575
C51	C	0.582888	0.096847	0.080461
C52	C	1.082888	0.596847	0.580461
C53	C	0.510064	0.095776	0.080459
C54	C	1.010064	0.595776	0.580459
C55	C	0.473667	0.095246	0.000013
C56	C	0.973667	0.595246	0.500013
C57	C	0.829972	-0.034628	0.000033
C58	C	1.329972	0.465372	0.500033
C59	C	0.828833	-0.112133	0.000035
C60	C	1.328833	0.387867	0.500035
C61	C	0.828316	-0.148535	-0.080403
C62	C	1.328316	0.351465	0.419597
C63	C	0.827236	-0.221358	-0.080410
C64	C	1.327236	0.278642	0.419590
C65	C	0.826687	-0.257777	0.000026
C66	C	1.326687	0.242223	0.500026
C67	C	0.827200	-0.221366	0.080475
C68	C	1.327200	0.278634	0.580475
C69	C	0.828273	-0.148543	0.080479
C70	C	1.328273	0.351457	0.580479
N71	N	0.864724	-0.377438	0.059894
N72	N	1.364724	0.122562	0.559894
N73	N	0.863706	-0.446616	0.059884
N74	N	1.363706	0.053384	0.559884
C75	C	0.823453	-0.477186	0.000017
C76	C	1.323453	0.022814	0.500017
N77	N	0.784265	-0.435966	-0.059853
N78	N	1.284265	0.064034	0.440147
N79	N	0.785286	-0.366782	-0.059846
N80	N	1.285286	0.133218	0.440154
C81	C	0.825523	-0.336741	0.000030
C82	C	1.325523	0.163259	0.500030
C83	C	0.821764	-0.592551	-0.080434
C84	C	1.321764	-0.092551	0.419566
C85	C	0.820680	-0.665375	-0.080437
C86	C	1.320680	-0.165375	0.419563
C87	C	0.820651	-0.665382	0.080450
C88	C	1.320651	-0.165382	0.580450
C89	C	0.821728	-0.592559	0.080451
C90	C	1.321728	-0.092559	0.580451
C91	C	0.822288	-0.556149	0.000007
C92	C	1.322288	-0.056149	0.500007
C93	C	0.952148	0.087553	0.000025
C94	C	1.452148	0.587553	0.500025
C95	C	1.029653	0.088694	0.000022
C96	C	1.529653	0.588694	0.500022
C97	C	0.818991	0.220706	0.000008
C98	C	1.318991	0.720706	0.500008
C99	C	0.820130	0.298211	-0.000000
C100	C	1.320130	0.798211	0.500000
N101	N	0.824445	0.093048	0.229922
N102	N	1.324445	0.593048	0.729922
N103	N	0.824523	0.093025	-0.229879
N104	N	1.324523	0.593025	0.270121
C105	C	0.824497	0.093032	0.589123
C106	C	1.324497	0.593032	1.089123
C107	C	0.766771	0.150374	0.551508
C108	C	1.266771	0.650374	1.051508
C109	C	0.766902	0.150582	0.448682
C110	C	1.266902	0.650582	0.948682
C111	C	0.824471	0.093040	0.410919
C112	C	1.324471	0.593040	0.910919
C113	C	0.897273	0.108730	0.448212
C114	C	1.397273	0.608730	0.948212
C115	C	0.896949	0.109137	0.551069
C116	C	1.396949	0.609137	1.051069
C117	C	0.810072	0.019830	0.551231
C118	C	1.310072	0.519830	1.051231
C119	C	0.808399	0.020324	0.448367
C120	C	1.308399	0.520324	0.948367
C121	C	0.824461	0.093043	0.310206
C122	C	1.324461	0.593043	0.810206
C123	C	0.824513	0.093031	0.689837
C124	C	1.324513	0.593031	1.189837
H125	H	0.168515	0.090738	0.145959
H126	H	0.668515	0.590738	0.645959
H127	H	0.036398	0.088785	0.145971
H128	H	0.536398	0.588785	0.645971
Br129	Br	0.918194	0.198105	0.591037
Br130	Br	1.418194	0.698105	1.091037
H131	H	0.828691	-0.118905	0.145983
H132	H	1.328691	0.381095	0.645983
H133	H	0.480451	0.095347	-0.145929
H134	H	0.980451	0.595347	0.354071
Br135	Br	0.970605	0.042079	0.592545
Br136	Br	1.470605	0.542079	1.092545
H137	H	0.612563	0.097280	-0.145929
H138	H	1.112563	0.597280	0.354071
H139	H	0.847730	-0.024329	0.422665
H140	H	1.347730	0.475671	0.922665
H141	H	0.480412	0.095338	0.145959
H142	H	0.980412	0.595338	0.645959
Br143	Br	0.822520	-0.543132	-0.189604
Br144	Br	1.322520	-0.043132	0.310396
H145	H	0.941246	0.068067	0.423748
H146	H	1.441246	0.568067	0.923748
Br147	Br	0.819970	-0.714778	-0.189613
Br148	Br	1.319970	-0.214778	0.310387
Br149	Br	0.819899	-0.714800	0.189615
Br150	Br	1.319899	-0.214800	0.689615
H151	H	0.612526	0.097284	0.145955
H152	H	1.112526	0.597284	0.645955
Br153	Br	0.822427	-0.543152	0.189623
Br154	Br	1.322427	-0.043152	0.689623
H155	H	0.828770	-0.118893	-0.145907
H156	H	1.328770	0.381107	0.354093
H157	H	0.910329	0.161499	0.422437
H158	H	1.410329	0.661499	0.922437
H159	H	0.826811	-0.251001	-0.145914
H160	H	1.326811	0.248999	0.354086
H161	H	0.712780	0.141267	0.423470
H162	H	1.212780	0.641267	0.923470
H163	H	0.712473	0.141215	0.576269
H164	H	1.212473	0.641215	1.076269
Br165	Br	0.723517	-0.005395	0.594517
Br166	Br	1.223517	0.494605	1.094517
Br167	Br	0.781877	0.240418	0.594544
Br168	Br	1.281877	0.740418	1.094544
H169	H	0.826751	-0.251023	0.145966
H170	H	1.326751	0.248977	0.645966
H171	H	0.852172	-0.022839	0.575555
H172	H	1.352172	0.477161	1.075555
Br173	Br	0.719140	0.000466	0.407748
Br174	Br	1.219140	0.500466	0.907748
H175	H	0.776090	0.204909	0.424063
H176	H	1.276090	0.704909	0.924063
H177	H	0.036440	0.088802	-0.145920
H178	H	0.536440	0.588802	0.354080
H179	H	0.168550	0.090749	-0.145921
H180	H	0.668550	0.590749	0.354079
