data_functionalizedCrystal
_audit_creation_method	'MofGen! by Chris Wilmer'
_symmetry_space_group_name_H-M	'P1'
_symmetry_Int_Tables_number	1
_symmetry_cell_setting	triclinic
loop_
_symmetry_equiv_pos_as_xyz
  x,y,z
_cell_length_a	19.188925
_cell_length_b	16.956984
_cell_length_c	16.053810
_cell_angle_alpha	92.385492
_cell_angle_beta	87.439781
_cell_angle_gamma	79.597984
loop_
_atom_site_label
_atom_site_type_symbol
_atom_site_fract_x
_atom_site_fract_y
_atom_site_fract_z
O1	O	0.923797	0.096169	-0.069447
O2	O	0.719747	0.109578	-0.069445
O3	O	0.834031	-0.013248	-0.069441
O4	O	0.809513	0.218995	-0.069452
O5	O	0.827764	-0.006490	0.069418
O6	O	0.713481	0.116336	0.069413
O7	O	0.917531	0.102928	0.069411
Zn8	Zn	0.814511	0.110705	0.091459
Zn9	Zn	0.822767	0.101801	-0.091493
O10	O	0.803247	0.225754	0.069406
C11	C	0.690627	0.112524	-0.000016
C12	C	0.613193	0.111223	-0.000015
C13	C	0.047936	0.174579	-0.000020
C14	C	0.120692	0.175809	-0.000024
C15	C	0.169593	0.103738	-0.000019
C16	C	0.145735	0.030432	-0.000031
C17	C	0.072980	0.029204	-0.000035
N18	N	0.291009	0.053863	0.047252
N19	N	0.360122	0.055034	0.047257
C20	C	0.388798	0.107433	-0.000010
N21	N	0.345749	0.158629	-0.047271
N22	N	0.276630	0.157460	-0.047273
C23	C	0.248484	0.105062	-0.000016
C24	C	0.491539	0.182067	-0.000009
C25	C	0.564297	0.183294	-0.000018
C26	C	0.589338	0.037915	-0.000017
C27	C	0.516582	0.036691	-0.000015
C28	C	0.467686	0.108769	-0.000007
C29	C	0.832153	-0.039581	-0.000012
C30	C	0.835886	-0.128115	-0.000013
C31	C	0.946651	0.099982	-0.000020
C32	C	1.024084	0.101283	-0.000027
C33	C	0.773476	-0.159980	-0.000015
C34	C	0.776988	-0.243168	-0.000013
C35	C	0.842909	-0.294489	-0.000014
C36	C	0.905323	-0.262618	-0.000009
C37	C	0.901811	-0.179432	-0.000005
C38	C	0.860294	-0.544323	-0.000020
C39	C	0.863802	-0.627514	-0.000026
C40	C	0.735465	-0.608058	-0.000029
C41	C	0.731959	-0.524871	-0.000030
C42	C	0.794373	-0.493008	-0.000021
N43	N	0.846500	-0.379520	-0.000014
N44	N	0.790781	-0.407977	-0.000014
C45	C	0.805125	0.252087	-0.000024
C46	C	0.801392	0.340620	-0.000029
N47	N	0.808881	0.116782	0.216319
N48	N	0.828402	0.095718	-0.216353
C49	C	0.779764	0.147968	0.739950
C50	C	0.783716	0.143732	0.652543
C51	C	0.836310	0.087250	0.608836
C52	C	0.884951	0.034994	0.652539
C53	C	0.880995	0.039226	0.739944
C54	C	0.853566	0.068758	0.347427
C55	C	0.857519	0.064532	0.260016
C56	C	0.756284	0.173269	0.260027
C57	C	0.752335	0.177500	0.347433
C58	C	0.800973	0.125241	0.391129
N59	N	0.840353	0.082921	0.519492
N60	N	0.796927	0.129567	0.480471
H61	H	0.583714	0.242982	-0.000019
H62	H	0.958998	-0.304410	-0.000004
H63	H	0.684652	-0.634011	-0.000036
C64	C	0.700962	-0.103534	-0.000014
H65	H	0.664296	-0.134429	-0.000008
H66	H	0.699107	-0.073030	-0.048435
H67	H	0.694740	-0.068328	0.048417
C68	C	0.046739	-0.051423	-0.000041
H69	H	-0.003594	-0.041831	-0.000048
H70	H	0.061621	-0.078737	0.048379
H71	H	0.065992	-0.083437	-0.048473
H72	H	0.709509	0.223492	0.383018
C73	C	0.437753	0.261347	-0.000018
H74	H	0.462381	0.305177	-0.000029
H75	H	0.406662	0.266252	0.048403
H76	H	0.411041	0.261528	-0.048449
C77	C	0.942803	-0.027137	0.604467
H78	H	0.971200	-0.057654	0.643012
H79	H	0.971755	-0.000178	0.570384
H80	H	0.921144	-0.061923	0.570357
C81	C	0.936318	-0.683966	-0.000024
H82	H	0.972987	-0.653076	-0.000011
H83	H	0.942541	-0.719173	-0.048450
H84	H	0.938165	-0.714470	0.048402
H85	H	0.900351	0.018534	0.224433
C86	C	0.721912	0.210099	0.788025
H87	H	0.726525	0.205143	0.846339
H88	H	0.676460	0.200873	0.773688
H89	H	0.727070	0.262617	0.773714
H90	H	0.629154	-0.020766	-0.000019
H91	H	0.497163	-0.022995	-0.000016
H92	H	0.726168	-0.269108	-0.000022
H93	H	0.678279	-0.483090	-0.000032
C94	C	0.928944	-0.509279	-0.000009
H95	H	0.917415	-0.452385	0.000005
H96	H	0.958073	-0.529259	-0.048431
H97	H	0.953693	-0.524560	0.048422
H98	H	0.920600	-0.003322	0.775521
C99	C	0.907066	0.011280	0.395485
H100	H	0.897176	0.021880	0.453801
H101	H	0.953816	0.019118	0.381175
H102	H	0.903202	-0.042624	0.381140
H103	H	0.952631	-0.153489	-0.000001
H104	H	0.716684	0.215815	0.224442
H105	H	0.744111	0.186278	0.616965
C106	C	-0.005847	0.253859	-0.000025
H107	H	-0.052595	0.242633	-0.000024
H108	H	0.003122	0.281570	-0.048447
H109	H	-0.001258	0.286280	0.048405
H110	H	0.185555	-0.028248	-0.000029
C111	C	0.146936	0.256438	-0.000013
H112	H	0.107395	0.299188	-0.000004
H113	H	0.176986	0.257587	-0.048432
H114	H	0.172609	0.262285	0.048420
