data_functionalizedCrystal
_audit_creation_method	'MofGen! by Chris Wilmer'
_symmetry_space_group_name_H-M	'P1'
_symmetry_Int_Tables_number	1
_symmetry_cell_setting	triclinic
loop_
_symmetry_equiv_pos_as_xyz
  x,y,z
_cell_length_a	29.839131
_cell_length_b	29.839134
_cell_length_c	29.839125
_cell_angle_alpha	90.026045
_cell_angle_beta	89.982291
_cell_angle_gamma	89.966214
loop_
_atom_site_label
_atom_site_type_symbol
_atom_site_fract_x
_atom_site_fract_y
_atom_site_fract_z
Zn1	Zn	-0.179008	-0.686720	-0.254174
Zn2	Zn	-0.254120	-0.686652	-0.179044
Zn3	Zn	-0.178995	-0.611602	-0.179038
Zn4	Zn	-0.254101	-0.611550	-0.254127
O5	O	-0.216556	-0.649131	-0.216596
O6	O	-0.188985	-0.749578	-0.244230
O7	O	-0.244156	-0.676690	-0.116176
O8	O	-0.116129	-0.621617	-0.189022
O9	O	-0.244169	-0.749528	-0.189032
O10	O	-0.116139	-0.676805	-0.244224
O11	O	-0.188962	-0.621551	-0.116172
O12	O	-0.188945	-0.548728	-0.188977
O13	O	-0.244138	-0.621528	-0.317000
O14	O	-0.244125	-0.548690	-0.244144
O15	O	-0.188967	-0.676755	-0.317035
O16	O	-0.316985	-0.676639	-0.188986
O17	O	-0.316971	-0.621462	-0.244150
C18	C	-0.216532	-0.532408	-0.216555
C19	C	-0.216532	-0.482474	-0.216548
C20	C	-0.187777	-0.125894	-0.187913
C21	C	-0.187766	-0.313567	-0.187891
O22	O	-0.163282	-0.337838	-0.163512
N23	N	-0.216539	-0.337029	-0.216566
C24	C	-0.245314	-0.313569	-0.245251
O25	O	-0.269783	-0.337831	-0.269644
C26	C	-0.245323	-0.125897	-0.245275
C27	C	-0.216552	-0.102438	-0.216594
C28	C	-0.159008	-0.102435	-0.159235
C29	C	-0.159013	-0.055520	-0.159239
C30	C	-0.187787	-0.032063	-0.187921
C31	C	-0.216556	-0.055522	-0.216598
C32	C	-0.274096	-0.102438	-0.273961
C33	C	-0.274095	-0.055517	-0.273965
C34	C	-0.245323	-0.032058	-0.245285
C35	C	-0.245336	0.014849	-0.245284
N36	N	-0.216563	0.038311	-0.216609
C37	C	-0.187789	0.014854	-0.187927
C38	C	-0.245308	-0.412100	-0.245236
C39	C	-0.245306	-0.459018	-0.245230
C40	C	-0.187758	-0.459013	-0.187870
C41	C	-0.187762	-0.412094	-0.187875
C42	C	-0.216535	-0.388638	-0.216561
C43	C	-0.187801	0.113380	-0.187937
C44	C	-0.187810	0.160300	-0.187942
C45	C	-0.245357	0.160291	-0.245303
C46	C	-0.245350	0.113375	-0.245297
C47	C	-0.216569	0.089921	-0.216612
O48	O	-0.269803	0.039149	-0.269653
O49	O	-0.163316	0.039124	-0.163545
C50	C	-0.187773	-0.172810	-0.187909
C51	C	-0.216542	-0.196269	-0.216586
C52	C	-0.245316	-0.172812	-0.245268
C53	C	-0.216540	-0.243187	-0.216580
C54	C	-0.187766	-0.266643	-0.187898
C55	C	-0.158994	-0.243182	-0.159223
C56	C	-0.158998	-0.196266	-0.159227
C57	C	-0.274089	-0.196274	-0.273943
C58	C	-0.274082	-0.243189	-0.273936
C59	C	-0.245308	-0.266646	-0.245255
C60	C	-0.333279	-0.649050	-0.216573
C61	C	-0.383213	-0.649056	-0.216579
C62	C	-0.692851	-0.677914	-0.187914
C63	C	-0.880524	-0.677969	-0.187931
O64	O	-0.904784	-0.702441	-0.163543
N65	N	-0.903998	-0.649224	-0.216629
C66	C	-0.880551	-0.620465	-0.245327
O67	O	-0.904824	-0.596020	-0.269740
C68	C	-0.692879	-0.620412	-0.245312
C69	C	-0.669407	-0.649156	-0.216609
C70	C	-0.669379	-0.706656	-0.159214
C71	C	-0.622463	-0.706640	-0.159208
C72	C	-0.599020	-0.677882	-0.187902
C73	C	-0.622492	-0.649140	-0.216603
C74	C	-0.669433	-0.591656	-0.274011
C75	C	-0.622512	-0.591646	-0.274006
C76	C	-0.599040	-0.620390	-0.245303
C77	C	-0.552133	-0.620367	-0.245292
N78	N	-0.528658	-0.649112	-0.216594
C79	C	-0.552102	-0.677869	-0.187899
C80	C	-0.979082	-0.620494	-0.245333
C81	C	-1.026000	-0.620507	-0.245336
C82	C	-1.025969	-0.678012	-0.187941
C83	C	-0.979050	-0.677996	-0.187936
C84	C	-0.955607	-0.649239	-0.216635
C85	C	-0.453576	-0.677834	-0.187889
C86	C	-0.406657	-0.677814	-0.187884
C87	C	-0.406691	-0.620311	-0.245281
C88	C	-0.453607	-0.620329	-0.245284
C89	C	-0.477048	-0.649094	-0.216586
O90	O	-0.527844	-0.595912	-0.269671
O91	O	-0.527821	-0.702318	-0.163497
C92	C	-0.739766	-0.677930	-0.187920
C93	C	-0.763238	-0.649188	-0.216620
C94	C	-0.739794	-0.620430	-0.245315
C95	C	-0.810156	-0.649200	-0.216624
C96	C	-0.833599	-0.677958	-0.187929
C97	C	-0.810125	-0.706703	-0.159231
C98	C	-0.763210	-0.706687	-0.159225
C99	C	-0.763269	-0.591685	-0.274013
C100	C	-0.810184	-0.591703	-0.274016
C101	C	-0.833628	-0.620461	-0.245321
C102	C	-0.099378	-0.649225	-0.216628
C103	C	-0.049443	-0.649265	-0.216641
C104	C	-0.216552	-0.649143	-0.333774
C105	C	-0.216550	-0.649148	-0.383708
C106	C	-0.216579	0.233691	-0.216629
C107	C	-0.216584	0.183756	-0.216624
C108	C	-0.187747	-0.677935	-0.693373
C109	C	-0.187709	-0.677957	-0.881046
O110	O	-0.163262	-0.702399	-0.905329
N111	N	-0.216430	-0.649208	-0.904494
C112	C	-0.245160	-0.620449	-0.881020
O113	O	-0.269585	-0.595993	-0.905270
C114	C	-0.245196	-0.620424	-0.693348
C115	C	-0.216476	-0.649179	-0.669903
C116	C	-0.159030	-0.706687	-0.669928
C117	C	-0.159042	-0.706683	-0.623012
C118	C	-0.187771	-0.677927	-0.599542
C119	C	-0.216488	-0.649175	-0.622987
C120	C	-0.273924	-0.591663	-0.669875
C121	C	-0.273929	-0.591659	-0.622954
C122	C	-0.245210	-0.620414	-0.599509
C123	C	-0.245229	-0.620415	-0.552602
N124	N	-0.216508	-0.649164	-0.529154
C125	C	-0.187779	-0.677920	-0.552624
C126	C	-0.245140	-0.620464	-0.979551
C127	C	-0.245132	-0.620471	-1.026469
C128	C	-0.187680	-0.677979	-1.026491
C129	C	-0.187691	-0.677974	-0.979573
C130	C	-0.216419	-0.649214	-0.956103
C131	C	-0.187806	-0.677910	-0.454098
C132	C	-0.187821	-0.677904	-0.407179
C133	C	-0.245271	-0.620395	-0.407160
C134	C	-0.245257	-0.620402	-0.454076
C135	C	-0.216521	-0.649161	-0.477543
O136	O	-0.269659	-0.595982	-0.528290
O137	O	-0.163351	-0.702366	-0.528366
C138	C	-0.187736	-0.677939	-0.740288
C139	C	-0.216453	-0.649187	-0.763734
C140	C	-0.245182	-0.620431	-0.740263
C141	C	-0.216445	-0.649194	-0.810651
C142	C	-0.187716	-0.677950	-0.834122
C143	C	-0.158995	-0.706699	-0.810674
C144	C	-0.159007	-0.706695	-0.763759
C145	C	-0.273903	-0.591682	-0.763711
C146	C	-0.273889	-0.591689	-0.810627
C147	C	-0.245160	-0.620445	-0.834097
C148	C	-0.216528	-0.649145	-0.099873
C149	C	-0.216403	-0.649227	-0.049939
H150	H	-0.268740	-0.478114	-0.268579
H151	H	-0.297515	-0.262286	-0.297291
H152	H	-0.135584	-0.036424	-0.135885
H153	H	-0.829221	-0.730117	-0.135866
H154	H	-0.135569	-0.177170	-0.135873
H155	H	-0.297520	-0.177180	-0.297300
H156	H	-0.297310	-0.568248	-0.688956
H157	H	-0.387596	-0.596895	-0.268642
H158	H	-0.297525	-0.121530	-0.297316
H159	H	-1.045065	-0.701427	-0.164577
H160	H	-0.744102	-0.730093	-0.135853
H161	H	-0.268647	-0.596991	-0.473166
H162	H	-0.688462	-0.730076	-0.135847
H163	H	-0.959942	-0.701402	-0.164563
H164	H	-0.744185	-0.568268	-0.297380
H165	H	-0.297319	-0.568233	-0.603848
H166	H	-0.164434	-0.701321	-0.388092
H167	H	-0.164380	0.179398	-0.164586
H168	H	-0.297525	-0.036422	-0.297327
H169	H	-0.164304	-0.701388	-0.960487
H170	H	-0.268741	-0.393007	-0.268597
H171	H	-0.268663	-0.596984	-0.388042
H172	H	-0.135566	-0.262288	-0.135868
H173	H	-0.135620	-0.730110	-0.744674
H174	H	-0.829291	-0.568292	-0.297389
H175	H	-0.135604	-0.730115	-0.829792
H176	H	-0.297281	-0.568274	-0.829712
H177	H	-0.164404	-0.701327	-0.473200
H178	H	-0.135654	-0.730097	-0.603927
H179	H	-0.268782	0.094274	-0.268647
H180	H	-0.472718	-0.596925	-0.268658
H181	H	-1.045106	-0.597097	-0.268705
H182	H	-0.135633	-0.730104	-0.689032
H183	H	-0.297299	-0.568265	-0.744606
H184	H	-0.268523	-0.597061	-1.045554
H185	H	-0.164288	-0.701393	-1.045609
H186	H	-0.164363	0.094290	-0.164582
H187	H	-0.164332	-0.392997	-0.164522
H188	H	-0.135574	-0.121528	-0.135879
H189	H	-0.164329	-0.478119	-0.164516
H190	H	-0.688536	-0.568248	-0.297382
H191	H	-0.268786	0.179397	-0.268653
H192	H	-0.268537	-0.597044	-0.960446
H193	H	-0.387547	-0.701220	-0.164509
H194	H	-0.603355	-0.730047	-0.135837
H195	H	-0.472656	-0.701258	-0.164521
H196	H	-0.959998	-0.597076	-0.268704
H197	H	-0.603427	-0.568229	-0.297377
