data_functionalizedCrystal
_audit_creation_method	'MofGen! by Chris Wilmer'
_symmetry_space_group_name_H-M	'P1'
_symmetry_Int_Tables_number	1
_symmetry_cell_setting	triclinic
loop_
_symmetry_equiv_pos_as_xyz
  x,y,z
_cell_length_a	10.489741
_cell_length_b	10.489716
_cell_length_c	12.996460
_cell_angle_alpha	89.994805
_cell_angle_beta	90.002579
_cell_angle_gamma	95.465845
loop_
_atom_site_label
_atom_site_type_symbol
_atom_site_fract_x
_atom_site_fract_y
_atom_site_fract_z
O1	O	-0.179821	1.694074	-0.085550
O2	O	-0.196747	1.322874	-0.085553
O3	O	-0.002685	1.516920	-0.085554
O4	O	-0.373883	1.500027	-0.085549
O5	O	-0.002674	1.516900	0.085580
O6	O	-0.196736	1.322853	0.085581
O7	O	-0.179810	1.694053	0.085584
Cu8	Cu	-0.188272	1.508451	0.101208
Cu9	Cu	-0.188285	1.508476	-0.101177
O10	O	-0.373872	1.500007	0.085585
C11	C	-0.195470	1.275332	0.000014
C12	C	-0.191665	1.133701	0.000012
C13	C	-0.310669	1.036027	0.000011
C14	C	-0.247780	0.958671	0.084393
C15	C	-0.247762	0.958697	-0.084332
C16	C	-0.128825	1.058210	0.084464
C17	C	-0.128825	1.058242	-0.084337
C18	C	-0.065848	0.980935	0.000066
C19	C	-0.421409	1.501293	0.000019
C20	C	-0.563038	1.505110	0.000020
C21	C	-0.631167	1.628576	0.000013
C22	C	-0.723288	1.570242	0.084390
C23	C	-0.723276	1.570233	-0.084335
C24	C	-0.653293	1.446725	0.084467
C25	C	-0.653272	1.446733	-0.084334
C26	C	-0.745365	1.388309	0.000063
C27	C	0.044852	1.515634	0.000011
C28	C	0.186481	1.511817	0.000002
C29	C	-0.181087	1.741596	0.000015
C30	C	-0.184892	1.883227	0.000010
N31	N	-0.188262	1.508444	0.243556
N32	N	-0.188285	1.508493	-0.243524
C33	C	-0.188286	1.508474	0.663370
C34	C	-0.188284	1.508462	0.546565
C35	C	-0.188275	1.508459	0.453466
C36	C	-0.188271	1.508446	0.336654
H37	H	-0.414185	1.060696	0.000091
H38	H	-0.298028	0.915222	-0.155659
O39	O	-0.314313	0.901060	0.178889
H40	H	-0.245308	0.851264	0.225263
H41	H	-0.622460	1.394517	0.155880
O42	O	-0.764321	1.639460	-0.178826
H43	H	-0.734924	1.589114	-0.248793
O44	O	-0.810871	1.253734	0.000122
H45	H	-0.737520	1.184145	0.000827
O46	O	-0.062330	1.115555	0.179066
H47	H	-0.065763	1.220982	0.178346
O48	O	0.071361	0.948545	0.000136
H49	H	0.089353	0.892488	-0.069936
O50	O	-0.612088	1.377636	-0.178823
H51	H	-0.639789	1.429102	-0.248767
H52	H	-0.078631	1.101746	-0.155679
O53	O	-0.565368	1.763033	0.000119
H54	H	-0.593230	1.813967	0.070271
H55	H	-0.754288	1.622474	0.155726
