data_functionalizedCrystal
_audit_creation_method	'MofGen! by Chris Wilmer'
_symmetry_space_group_name_H-M	'P1'
_symmetry_Int_Tables_number	1
_symmetry_cell_setting	triclinic
loop_
_symmetry_equiv_pos_as_xyz
  x,y,z
_cell_length_a	23.532407
_cell_length_b	14.044220
_cell_length_c	12.503552
_cell_angle_alpha	86.160109
_cell_angle_beta	86.507167
_cell_angle_gamma	91.981222
loop_
_atom_site_label
_atom_site_type_symbol
_atom_site_fract_x
_atom_site_fract_y
_atom_site_fract_z
O1	O	0.134225	-1.261909	0.089227
O2	O	0.384225	-1.011909	0.339227
O3	O	0.634225	-0.761909	0.589227
O4	O	0.884225	-0.511909	0.839227
O5	O	0.129272	-0.985988	0.089253
O6	O	0.379272	-0.735988	0.339253
O7	O	0.629272	-0.485988	0.589253
O8	O	0.879272	-0.235988	0.839253
O9	O	0.049268	-1.132268	0.089220
O10	O	0.299268	-0.882268	0.339220
O11	O	0.549268	-0.632268	0.589220
O12	O	0.799268	-0.382268	0.839220
O13	O	0.214228	-1.115630	0.089261
O14	O	0.464228	-0.865630	0.339261
O15	O	0.714228	-0.615630	0.589261
O16	O	0.964228	-0.365630	0.839261
O17	O	0.055290	-1.121254	-0.089420
O18	O	0.305290	-0.871254	0.160580
O19	O	0.555290	-0.621254	0.410580
O20	O	0.805290	-0.371254	0.660580
O21	O	0.135293	-0.974975	-0.089387
O22	O	0.385293	-0.724975	0.160613
O23	O	0.635293	-0.474975	0.410613
O24	O	0.885293	-0.224975	0.660613
O25	O	0.140246	-1.250896	-0.089413
O26	O	0.390246	-1.000896	0.160587
O27	O	0.640246	-0.750896	0.410587
O28	O	0.890246	-0.500896	0.660587
Cu29	Cu	0.138320	-1.111930	-0.105711
Cu30	Cu	0.388320	-0.861930	0.144289
Cu31	Cu	0.638320	-0.611930	0.394289
Cu32	Cu	0.888320	-0.361930	0.644289
Cu33	Cu	0.131198	-1.124955	0.105551
Cu34	Cu	0.381198	-0.874955	0.355551
Cu35	Cu	0.631198	-0.624955	0.605551
Cu36	Cu	0.881198	-0.374955	0.855551
O37	O	0.220250	-1.104616	-0.089379
O38	O	0.470250	-0.854616	0.160621
O39	O	0.720250	-0.604616	0.410621
O40	O	0.970250	-0.354616	0.660621
C41	C	0.031040	-1.126337	-0.000103
C42	C	0.281040	-0.876337	0.249897
C43	C	0.531040	-0.626337	0.499897
C44	C	0.781040	-0.376337	0.749897
C45	C	-0.032246	-1.125063	-0.000111
C46	C	0.217754	-0.875063	0.249889
C47	C	0.467754	-0.625063	0.499889
C48	C	0.717754	-0.375063	0.749889
C49	C	0.130115	-0.945188	-0.000063
C50	C	0.380115	-0.695188	0.249937
C51	C	0.630115	-0.445188	0.499937
C52	C	0.880115	-0.195188	0.749937
C53	C	0.123648	-0.840023	-0.000054
C54	C	0.373648	-0.590023	0.249946
C55	C	0.623648	-0.340023	0.499946
C56	C	0.873648	-0.090023	0.749946
C57	C	0.139403	-1.291696	-0.000094
C58	C	0.389403	-1.041696	0.249906
C59	C	0.639403	-0.791696	0.499906
C60	C	0.889403	-0.541696	0.749906
C61	C	0.145869	-1.396861	-0.000096
C62	C	0.395869	-1.146861	0.249904
C63	C	0.645869	-0.896861	0.499904
C64	C	0.895869	-0.646861	0.749904
C65	C	-0.427092	-1.203641	-0.000060
C66	C	-0.177092	-0.953641	0.249940
C67	C	0.072908	-0.703641	0.499940
C68	C	0.322908	-0.453641	0.749940
C69	C	-0.486556	-1.202458	-0.000051
C70	C	-0.236556	-0.952458	0.249949
C71	C	0.013444	-0.702458	0.499949
C72	C	0.263444	-0.452458	0.749949
O73	O	-0.519354	-1.275300	-0.000019
O74	O	-0.269354	-1.025300	0.249981
O75	O	-0.019354	-0.775300	0.499981
O76	O	0.230646	-0.525300	0.749981
N77	N	-0.513896	-1.115494	-0.000044
N78	N	-0.263896	-0.865494	0.249956
N79	N	-0.013896	-0.615494	0.499956
N80	N	0.236104	-0.365494	0.749956
C81	C	-0.481769	-1.029708	-0.000034
C82	C	-0.231769	-0.779708	0.249966
C83	C	0.018231	-0.529708	0.499966
C84	C	0.268231	-0.279708	0.749966
O85	O	-0.510484	-0.955630	-0.000026
O86	O	-0.260484	-0.705630	0.249974
O87	O	-0.010484	-0.455630	0.499974
O88	O	0.239516	-0.205630	0.749974
C89	C	-0.422305	-1.030893	-0.000034
C90	C	-0.172305	-0.780893	0.249966
C91	C	0.077695	-0.530893	0.499966
C92	C	0.327695	-0.280893	0.749966
C93	C	-0.394968	-1.117862	-0.000053
C94	C	-0.144968	-0.867862	0.249947
C95	C	0.105032	-0.617862	0.499947
C96	C	0.355032	-0.367862	0.749947
C97	C	-0.399754	-1.290603	-0.000077
C98	C	-0.149754	-1.040603	0.249923
C99	C	0.100246	-0.790603	0.499923
C100	C	0.350246	-0.540603	0.749923
C101	C	-0.340294	-1.291786	-0.000087
C102	C	-0.090294	-1.041786	0.249913
C103	C	0.159706	-0.791786	0.499913
C104	C	0.409706	-0.541786	0.749913
C105	C	-0.308170	-1.206006	-0.000080
C106	C	-0.058170	-0.956006	0.249920
C107	C	0.191830	-0.706006	0.499920
C108	C	0.441830	-0.456006	0.749920
C109	C	-0.335508	-1.119044	-0.000063
C110	C	-0.085508	-0.869044	0.249937
C111	C	0.164492	-0.619044	0.499937
C112	C	0.414492	-0.369044	0.749937
C113	C	-0.390179	-0.945109	-0.000016
C114	C	-0.140179	-0.695109	0.249984
C115	C	0.109821	-0.445109	0.499984
C116	C	0.359821	-0.195109	0.749984
C117	C	-0.330712	-0.946301	-0.000016
C118	C	-0.080712	-0.696301	0.249984
C119	C	0.169288	-0.446301	0.499984
C120	C	0.419288	-0.196301	0.749984
C121	C	-0.303375	-1.033270	-0.000035
C122	C	-0.053375	-0.783270	0.249965
C123	C	0.196625	-0.533270	0.499965
C124	C	0.446625	-0.283270	0.749965
C125	C	-0.243924	-1.034447	-0.000066
C126	C	0.006076	-0.784447	0.249934
C127	C	0.256076	-0.534447	0.499934
C128	C	0.506076	-0.284447	0.749934
N129	N	-0.216584	-1.121411	-0.000074
N130	N	0.033416	-0.871411	0.249926
N131	N	0.283416	-0.621411	0.499926
N132	N	0.533416	-0.371411	0.749926
C133	C	-0.248707	-1.207191	-0.000081
C134	C	0.001293	-0.957191	0.249919
C135	C	0.251293	-0.707191	0.499919
C136	C	0.501293	-0.457191	0.749919
C137	C	-0.606646	-1.027228	-0.000031
C138	C	-0.356646	-0.777228	0.249969
C139	C	-0.106646	-0.527228	0.499969
C140	C	0.143354	-0.277228	0.749969
C141	C	-0.666108	-1.026042	-0.000038
C142	C	-0.416108	-0.776042	0.249962
C143	C	-0.166108	-0.526042	0.499962
C144	C	0.083892	-0.276042	0.749962
C145	C	-0.670891	-1.198792	-0.000053
C146	C	-0.420891	-0.948792	0.249947
C147	C	-0.170891	-0.698792	0.499947
C148	C	0.079109	-0.448792	0.749947
C149	C	-0.611428	-1.199976	-0.000054
C150	C	-0.361428	-0.949976	0.249946
C151	C	-0.111428	-0.699976	0.499946
C152	C	0.138572	-0.449976	0.749946
C153	C	-0.579306	-1.114192	-0.000038
C154	C	-0.329306	-0.864192	0.249962
C155	C	-0.079306	-0.614192	0.499962
C156	C	0.170694	-0.364192	0.749962
C157	C	-0.123835	-1.209668	-0.000103
C158	C	0.126165	-0.959668	0.249897
C159	C	0.376165	-0.709668	0.499897
C160	C	0.626165	-0.459668	0.749897
C161	C	-0.064369	-1.210842	-0.000118
C162	C	0.185631	-0.960842	0.249882
C163	C	0.435631	-0.710842	0.499882
C164	C	0.685631	-0.460842	0.749882
C165	C	-0.059591	-1.038093	-0.000097
C166	C	0.190409	-0.788093	0.249903
C167	C	0.440409	-0.538093	0.499903
C168	C	0.690409	-0.288093	0.749903
C169	C	-0.119052	-1.036917	-0.000088
C170	C	0.130948	-0.786917	0.249912
C171	C	0.380948	-0.536917	0.499912
C172	C	0.630948	-0.286917	0.749912
C173	C	-0.151173	-1.122713	-0.000087
C174	C	0.098827	-0.872713	0.249913
C175	C	0.348827	-0.622713	0.499913
C176	C	0.598827	-0.372713	0.749913
O177	O	-0.211090	-0.961644	-0.000095
O178	O	0.038910	-0.711644	0.249905
O179	O	0.288910	-0.461644	0.499905
O180	O	0.538910	-0.211644	0.749905
O181	O	-0.219985	-1.281258	-0.000075
O182	O	0.030015	-1.031258	0.249925
O183	O	0.280015	-0.781258	0.499925
O184	O	0.530015	-0.531258	0.749925
C185	C	0.238478	-1.110547	-0.000054
C186	C	0.488478	-0.860547	0.249946
C187	C	0.738478	-0.610547	0.499946
C188	C	0.988478	-0.360547	0.749946
C189	C	0.301763	-1.111822	-0.000039
C190	C	0.551763	-0.861822	0.249961
C191	C	0.801763	-0.611822	0.499961
C192	C	1.051763	-0.361822	0.749961
N193	N	0.143329	-1.102775	-0.254302
N194	N	0.393329	-0.852775	-0.004302
N195	N	0.643329	-0.602775	0.245698
N196	N	0.893329	-0.352775	0.495698
C197	C	0.111828	-0.647472	-0.000078
C198	C	0.361828	-0.397472	0.249922
C199	C	0.611828	-0.147472	0.499922
C200	C	0.861828	0.102528	0.749922
C201	C	0.157687	-0.589407	-0.000072
C202	C	0.407687	-0.339407	0.249928
C203	C	0.657687	-0.089407	0.499928
C204	C	0.907687	0.160593	0.749928
C205	C	0.151110	-0.482265	-0.000085
C206	C	0.401110	-0.232265	0.249915
C207	C	0.651110	0.017735	0.499915
C208	C	0.901110	0.267735	0.749915
C209	C	0.118404	-0.754624	-0.000065
C210	C	0.368404	-0.504624	0.249935
C211	C	0.618404	-0.254624	0.499935
C212	C	0.868404	-0.004624	0.749935
C213	C	0.118815	-1.147578	-0.526745
C214	C	0.368815	-0.897578	-0.276745
C215	C	0.618815	-0.647578	-0.026745
C216	C	0.868815	-0.397578	0.223255
C217	C	0.150697	-1.089317	-0.473408
C218	C	0.400697	-0.839317	-0.223408
C219	C	0.650697	-0.589317	0.026592
C220	C	0.900697	-0.339317	0.276592
C221	C	0.146596	-1.096807	-0.351486
C222	C	0.396596	-0.846807	-0.101486
C223	C	0.646596	-0.596807	0.148514
C224	C	0.896596	-0.346807	0.398514
C225	C	0.122915	-1.140089	-0.648678
C226	C	0.372915	-0.890089	-0.398678
C227	C	0.622915	-0.640089	-0.148678
C228	C	0.872915	-0.390089	0.101322
N229	N	0.126185	-1.134116	0.254142
N230	N	0.376185	-0.884116	0.504142
N231	N	0.626185	-0.634116	0.754142
N232	N	0.876185	-0.384116	1.004142
H233	H	-0.042114	-1.281666	-0.000136
H234	H	0.207886	-1.031666	0.249864
H235	H	0.457886	-0.781666	0.499864
H236	H	0.707886	-0.531666	0.749864
F237	F	-0.705090	-1.290087	-0.000055
F238	F	-0.455090	-1.040087	0.249945
F239	F	-0.205090	-0.790087	0.499945
F240	F	0.044910	-0.540087	0.749945
H241	H	0.067631	-0.616718	-0.000095
H242	H	0.317631	-0.366718	0.249905
H243	H	0.567631	-0.116718	0.499905
H244	H	0.817631	0.133282	0.749905
H245	H	-0.688360	-0.955222	-0.000041
H246	H	-0.438360	-0.705222	0.249959
H247	H	-0.188360	-0.455222	0.499959
H248	H	0.061640	-0.205222	0.749959
F249	F	0.190401	-1.016772	-0.533405
F250	F	0.440401	-0.766772	-0.283405
F251	F	0.690401	-0.516772	-0.033405
F252	F	0.940401	-0.266772	0.216595
H253	H	0.201888	-0.620163	-0.000055
H254	H	0.451888	-0.370163	0.249945
H255	H	0.701888	-0.120163	0.499945
H256	H	0.951888	0.129837	0.749945
H257	H	-0.149982	-1.279531	-0.000099
H258	H	0.100018	-1.029531	0.249901
H259	H	0.350018	-0.779531	0.499901
H260	H	0.600018	-0.529531	0.749901
F261	F	0.079115	-1.220123	-0.466753
F262	F	0.329115	-0.970123	-0.216753
F263	F	0.579115	-0.720123	0.033247
F264	F	0.829115	-0.470123	0.283247
H265	H	-0.318041	-1.362605	-0.000098
H266	H	-0.068041	-1.112605	0.249902
H267	H	0.181959	-0.862605	0.499902
H268	H	0.431959	-0.612605	0.749902
H269	H	-0.412427	-0.874290	0.000005
H270	H	-0.162427	-0.624290	0.250005
H271	H	0.087573	-0.374290	0.500005
H272	H	0.337573	-0.124290	0.750005
F273	F	-0.433934	-1.381910	-0.000084
F274	F	-0.183934	-1.131910	0.249916
F275	F	0.066066	-0.881910	0.499916
F276	F	0.316066	-0.631910	0.749916
F277	F	-0.582339	-1.292539	-0.000073
F278	F	-0.332339	-1.042539	0.249927
F279	F	-0.082339	-0.792539	0.499927
F280	F	0.167661	-0.542539	0.749927
H281	H	-0.580495	-0.957366	-0.000027
H282	H	-0.330495	-0.707366	0.249973
H283	H	-0.080495	-0.457366	0.499973
H284	H	0.169505	-0.207366	0.749973
H285	H	-0.304561	-0.876442	-0.000002
H286	H	-0.054561	-0.626442	0.249998
H287	H	0.195439	-0.376442	0.499998
H288	H	0.445439	-0.126442	0.749998
F289	F	-0.148146	-0.944355	-0.000087
F290	F	0.101854	-0.694355	0.249913
F291	F	0.351854	-0.444355	0.499913
F292	F	0.601854	-0.194355	0.749913
H293	H	-0.033425	-0.968253	-0.000095
H294	H	0.216575	-0.718253	0.249905
H295	H	0.466575	-0.468253	0.499905
H296	H	0.716575	-0.218253	0.749905
