data_functionalizedCrystal
_audit_creation_method	'MofGen! by Chris Wilmer'
_symmetry_space_group_name_H-M	'P1'
_symmetry_Int_Tables_number	1
_symmetry_cell_setting	triclinic
loop_
_symmetry_equiv_pos_as_xyz
  x,y,z
_cell_length_a	19.121241
_cell_length_b	18.101395
_cell_length_c	18.101389
_cell_angle_alpha	89.983159
_cell_angle_beta	87.537002
_cell_angle_gamma	92.465429
loop_
_atom_site_label
_atom_site_type_symbol
_atom_site_fract_x
_atom_site_fract_y
_atom_site_fract_z
Zn1	Zn	1.073726	-0.246717	-0.467123
Zn2	Zn	1.073627	-0.370548	-0.343280
Zn3	Zn	0.956272	-0.251991	-0.338003
Zn4	Zn	0.956226	-0.375795	-0.461790
O5	O	1.014963	-0.311263	-0.402549
O6	O	1.172000	-0.258740	-0.455135
O7	O	1.058038	-0.354832	-0.238946
O8	O	0.971914	-0.147656	-0.355154
O9	O	1.171928	-0.349718	-0.364148
O10	O	1.058206	-0.143781	-0.450018
O11	O	0.971818	-0.267729	-0.235069
O12	O	0.857979	-0.272818	-0.349983
O13	O	0.971834	-0.358662	-0.566131
O14	O	0.857944	-0.363776	-0.440929
O15	O	1.058161	-0.263829	-0.570049
O16	O	1.057993	-0.474879	-0.358977
O17	O	0.971738	-0.478735	-0.446046
C18	C	1.014869	-0.503678	-0.402523
C19	C	1.014893	-0.585991	-0.402539
C20	C	0.832477	-0.319439	-0.394306
C21	C	0.754409	-0.322954	-0.390797
C22	C	1.015047	-0.885075	-0.402586
C23	C	0.960904	-0.856200	-0.457515
C24	C	0.960647	-0.770594	-0.457324
C25	C	1.014970	-0.736696	-0.402564
C26	C	0.994931	-0.768732	-0.323611
C27	C	0.994582	-0.854393	-0.323939
C28	C	1.089348	-0.850087	-0.425928
C29	C	1.088911	-0.764456	-0.427620
C30	C	1.014928	-0.652838	-0.402546
C31	C	1.015087	-0.968932	-0.402598
C32	C	0.717770	-0.277314	-0.436592
C33	C	0.644417	-0.280614	-0.433289
C34	C	0.607703	-0.329558	-0.384193
C35	C	0.644346	-0.375200	-0.338392
C36	C	0.717698	-0.371896	-0.341692
C37	C	0.386225	-0.341896	-0.371851
C38	C	0.312868	-0.345198	-0.368556
C39	C	0.312943	-0.250611	-0.463452
C40	C	0.386297	-0.247314	-0.466751
C41	C	0.422934	-0.292953	-0.420948
C42	C	0.532724	-0.332934	-0.380817
C43	C	0.497912	-0.289574	-0.424321
C44	C	1.198161	-0.303055	-0.410825
C45	C	1.276230	-0.299558	-0.414352
C46	C	1.015003	-0.311242	-0.595713
C47	C	1.015021	-0.311234	-0.678028
C48	C	1.015076	-0.118096	-0.402592
C49	C	1.015125	-0.035780	-0.402610
C50	C	1.015062	-0.311093	-0.977121
C51	C	0.960560	-0.370586	-0.943322
C52	C	0.960707	-0.370844	-0.857710
C53	C	1.015041	-0.311163	-0.828737
C54	C	1.089041	-0.329026	-0.863170
C55	C	1.088738	-0.329414	-0.948802
C56	C	0.996206	-0.233582	-0.944695
C57	C	0.994559	-0.234108	-0.858970
C58	C	1.015033	-0.311201	-0.744877
C59	C	1.015074	-0.311057	-1.060981
C60	C	1.014963	-0.311228	-0.210138
C61	C	1.015082	-0.311022	-0.127830
H62	H	0.973184	-0.748978	-0.515762
C63	C	1.111009	-0.404603	-0.835199
N64	N	1.127551	-0.461531	-0.814132
C65	C	0.758000	-0.422106	-0.291315
N66	N	0.788354	-0.459924	-0.253368
C67	C	0.758149	-0.223470	-0.490601
N68	N	0.788560	-0.182911	-0.531280
H69	H	1.130740	-0.286910	-0.844698
C70	C	0.886574	-0.356260	-0.825961
N71	N	0.830734	-0.345278	-0.802051
C72	C	0.924569	-0.210727	-0.970627
N73	N	0.870608	-0.193522	-0.990158
H74	H	0.941193	-0.749756	-0.303950
H75	H	0.905520	-0.359935	-0.961433
C76	C	0.977216	-0.447827	-0.973142
N77	N	0.989767	-0.506006	-0.995599
C78	C	0.921003	-0.215809	-0.828165
N79	N	0.865605	-0.202022	-0.804947
H80	H	0.283106	-0.213453	-0.500741
H81	H	1.129686	-0.868519	-0.385962
H82	H	0.973317	-0.876202	-0.516135
H83	H	0.614448	-0.415048	-0.298414
C84	C	0.886951	-0.888668	-0.436512
N85	N	0.831250	-0.913121	-0.420687
H86	H	0.905573	-0.752640	-0.441599
H87	H	0.416184	-0.207461	-0.506733
H88	H	0.527807	-0.249720	-0.464291
H89	H	1.130722	-0.287783	-0.971429
C90	C	0.604118	-0.230408	-0.483670
N91	N	0.573766	-0.192590	-0.521620
H92	H	1.035902	-0.189297	-0.966754
H93	H	0.973156	-0.428366	-0.837789
H94	H	0.940269	-0.876870	-0.304555
C95	C	1.110327	-0.405829	-0.976773
N96	N	1.126585	-0.463389	-0.997837
C97	C	1.045538	-0.880085	-0.266514
N98	N	1.083913	-0.899434	-0.223258
C99	C	1.046525	-0.738882	-0.266613
N100	N	1.085386	-0.716395	-0.223682
C101	C	0.492331	-0.386775	-0.326816
N102	N	0.461905	-0.427327	-0.286142
H103	H	1.031359	-0.187697	-0.839239
H104	H	0.282977	-0.385058	-0.328576
H105	H	1.104023	-0.743425	-0.485741
C106	C	1.114028	-0.878099	-0.502621
N107	N	1.132609	-0.899197	-0.560389
H108	H	0.416046	-0.379060	-0.334556
C109	C	1.146292	-0.732947	-0.377869
N110	N	1.189510	-0.709216	-0.340390
