data_functionalizedCrystal
_audit_creation_method	'MofGen! by Chris Wilmer'
_symmetry_space_group_name_H-M	'P1'
_symmetry_Int_Tables_number	1
_symmetry_cell_setting	triclinic
loop_
_symmetry_equiv_pos_as_xyz
  x,y,z
_cell_length_a	13.897448
_cell_length_b	13.033304
_cell_length_c	13.032268
_cell_angle_alpha	90.922231
_cell_angle_beta	97.148041
_cell_angle_gamma	82.813841
loop_
_atom_site_label
_atom_site_type_symbol
_atom_site_fract_x
_atom_site_fract_y
_atom_site_fract_z
Zn1	Zn	-0.300132	-1.498457	-0.781522
Zn2	Zn	-0.438750	-1.520199	-0.609548
Zn3	Zn	-0.295035	-1.348318	-0.587693
Zn4	Zn	-0.478956	-1.326451	-0.759583
O5	O	-0.378218	-1.423356	-0.684587
O6	O	-0.303827	-1.645259	-0.777037
O7	O	-0.400726	-1.515650	-0.462741
O8	O	-0.160728	-1.368286	-0.613440
O9	O	-0.405669	-1.661233	-0.650689
O10	O	-0.164473	-1.478592	-0.755845
O11	O	-0.295140	-1.389369	-0.446685
O12	O	-0.334126	-1.201499	-0.592167
O13	O	-0.474194	-1.331017	-0.906401
O14	O	-0.469252	-1.185433	-0.718453
O15	O	-0.342813	-1.457389	-0.922519
O16	O	-0.579067	-1.494446	-0.629416
O17	O	-0.608606	-1.352100	-0.739645
C18	C	-0.405499	-1.156150	-0.650558
C19	C	-0.417197	-1.041834	-0.636025
C20	C	-0.372126	-0.982953	-0.692157
C21	C	-0.384215	-0.864802	-0.677138
C22	C	-0.628836	-1.423285	-0.684547
C23	C	-0.736047	-1.423344	-0.684577
C24	C	-0.932339	-1.423444	-0.684655
C25	C	-0.823109	-1.423385	-0.684614
C26	C	-0.126622	-1.423453	-0.684652
C27	C	-0.019406	-1.423494	-0.684680
C28	C	-0.413557	-1.389339	-0.952817
C29	C	-0.428617	-1.374842	-1.067121
C30	C	-0.350826	-0.691607	-0.718741
C31	C	-0.339138	-0.805922	-0.733278
C32	C	-0.370326	-1.430906	-1.126056
C33	C	-0.385889	-1.415925	-1.244195
C34	C	-0.342941	-1.457301	-0.417407
C35	C	-0.327590	-1.471996	-0.303129
H36	H	-0.464730	-1.004775	-0.576847
Br37	Br	-0.267914	-1.529365	-1.064386
H38	H	-0.291593	-0.842976	-0.792453
H39	H	-0.447314	-1.356825	-1.281195
H40	H	-0.266154	-1.531084	-1.266129
Br41	Br	-0.530996	-1.276344	-1.128786
H42	H	-0.324586	-1.020013	-0.751329
H43	H	-0.431752	-0.827747	-0.617956
