data_functionalizedCrystal
_audit_creation_method	'MofGen! by Chris Wilmer'
_symmetry_space_group_name_H-M	'P1'
_symmetry_Int_Tables_number	1
_symmetry_cell_setting	triclinic
loop_
_symmetry_equiv_pos_as_xyz
  x,y,z
_cell_length_a	19.188930
_cell_length_b	15.944545
_cell_length_c	15.021413
_cell_angle_alpha	89.990408
_cell_angle_beta	90.003688
_cell_angle_gamma	83.320477
loop_
_atom_site_label
_atom_site_type_symbol
_atom_site_fract_x
_atom_site_fract_y
_atom_site_fract_z
O1	O	0.090022	1.114178	0.073985
O2	O	0.101129	0.869586	0.074000
O3	O	-0.006062	0.998940	0.073975
O4	O	0.197213	0.984823	0.074010
O5	O	-0.006056	0.998955	-0.074089
O6	O	0.101135	0.869601	-0.074064
O7	O	0.090029	1.114193	-0.074080
Zn8	Zn	0.095583	0.991899	-0.097580
Zn9	Zn	0.095574	0.991879	0.097501
O10	O	0.197219	0.984838	-0.074054
C11	C	0.100672	0.838301	-0.000030
C12	C	0.099292	0.745060	-0.000025
C13	C	0.028726	0.474691	-0.000047
C14	C	0.062750	0.525153	-0.073046
C15	C	0.094370	0.409434	-0.000041
C16	C	0.062761	0.525118	0.072934
C17	C	0.096785	0.574339	-0.000031
C18	C	0.128377	0.458668	-0.073101
C19	C	0.128378	0.458630	0.072945
C20	C	0.162451	0.509059	-0.000073
C21	C	0.092977	0.314437	-0.000047
C22	C	0.098183	0.669333	-0.000032
C23	C	-0.032071	0.998490	-0.000060
C24	C	-0.109579	0.997118	-0.000067
C25	C	-0.154308	1.073019	-0.000077
C26	C	-0.227135	1.071730	-0.000062
C27	C	-0.255230	0.994535	-0.000057
C28	C	-0.210491	0.918624	-0.000043
C29	C	-0.137666	0.919916	-0.000048
N30	N	-0.363384	0.935534	-0.050442
N31	N	-0.432566	0.934313	-0.050439
C32	C	-0.474649	0.990640	-0.000038
N33	N	-0.444938	1.048247	0.050347
N34	N	-0.375750	1.049471	0.050340
C35	C	-0.334196	0.993126	-0.000050
C36	C	-0.598346	1.065148	-0.000031
C37	C	-0.671174	1.063855	-0.000011
C38	C	-0.654528	0.910748	-0.000000
C39	C	-0.581702	0.912042	-0.000011
C40	C	-0.553615	0.989245	-0.000031
C41	C	0.223228	0.985288	-0.000017
C42	C	0.300736	0.986660	-0.000004
C43	C	0.090486	1.145477	-0.000047
C44	C	0.091866	1.238719	-0.000047
N45	N	0.095589	0.991919	-0.230718
C46	C	0.046012	1.051744	-0.470389
C47	C	0.032450	0.975895	-0.529716
C48	C	0.095580	0.991899	-0.412325
C49	C	0.109101	1.067730	-0.529739
C50	C	0.095570	0.991887	-0.587749
C51	C	0.081987	0.916012	-0.470345
C52	C	0.158664	1.007897	-0.470363
C53	C	0.145129	0.931993	-0.529663
C54	C	0.095584	0.991907	-0.311267
C55	C	0.095566	0.991870	-0.688804
N56	N	0.095563	0.991866	0.230639
H57	H	0.219028	0.524339	-0.000106
H58	H	-0.131445	1.135883	-0.000089
H59	H	0.156082	0.429761	-0.134882
H60	H	-0.020903	0.962352	-0.555787
O61	O	0.068249	0.839540	-0.439210
C62	C	0.068415	0.840472	-0.345355
H63	H	0.057434	0.908371	-0.320802
H64	H	0.026075	0.802195	-0.319423
H65	H	0.121868	0.811604	-0.319944
O66	O	-0.270625	1.145440	0.000080
C67	C	-0.313257	1.149263	0.076752
H68	H	-0.286583	1.106217	0.130360
H69	H	-0.321448	1.216955	0.102475
H70	H	-0.366213	1.127711	0.059419
H71	H	0.187045	0.881324	-0.555526
O72	O	-0.681776	0.835738	0.000164
C73	C	-0.658892	0.789469	0.076839
H74	H	-0.643736	0.834610	0.130430
H75	H	-0.703006	0.753891	0.102587
H76	H	-0.611433	0.742490	0.059500
O77	O	0.222265	1.024227	-0.439270
C78	C	0.236329	1.104274	-0.469498
H79	H	0.184853	1.144333	-0.486178
H80	H	0.264860	1.136750	-0.415182
H81	H	0.270645	1.096469	-0.531576
O82	O	0.122688	1.144314	-0.560723
C83	C	0.070302	1.207218	-0.530521
H84	H	0.044712	1.184102	-0.468052
H85	H	0.094942	1.267143	-0.514495
H86	H	0.028895	1.221274	-0.584591
H87	H	-0.233370	0.855772	-0.000036
O88	O	-0.538220	0.838333	0.000146
C89	C	-0.495576	0.834500	0.076815
H90	H	-0.522239	0.877547	0.130411
H91	H	-0.487388	0.766807	0.102560
H92	H	-0.442620	0.856045	0.059472
H93	H	0.035030	0.554194	-0.134771
O94	O	-0.038726	0.456302	-0.000296
C95	C	-0.073088	0.490366	-0.077409
H96	H	-0.032548	0.499542	-0.130934
H97	H	-0.110497	0.445244	-0.102892
H98	H	-0.104007	0.553854	-0.060758
H99	H	0.156074	0.429574	0.134672
H100	H	-0.575477	1.128010	-0.000043
H101	H	0.035024	0.554133	0.134645
O102	O	-0.094311	0.846105	-0.000083
C103	C	-0.134720	0.777691	-0.000048
H104	H	-0.189077	0.799212	-0.028074
H105	H	-0.107864	0.724529	-0.043032
H106	H	-0.139896	0.754010	0.070990
H107	H	-0.707593	1.125666	-0.000013
H108	H	0.004071	1.102300	-0.444362
