data_functionalizedCrystal
_audit_creation_method	'MofGen! by Chris Wilmer'
_symmetry_space_group_name_H-M	'P1'
_symmetry_Int_Tables_number	1
_symmetry_cell_setting	triclinic
loop_
_symmetry_equiv_pos_as_xyz
  x,y,z
_cell_length_a	11.792241
_cell_length_b	15.944551
_cell_length_c	10.268362
_cell_angle_alpha	89.993764
_cell_angle_beta	89.999626
_cell_angle_gamma	83.846077
loop_
_atom_site_label
_atom_site_type_symbol
_atom_site_fract_x
_atom_site_fract_y
_atom_site_fract_z
O1	O	1.505960	0.115128	-0.108177
O2	O	1.839294	0.448462	0.225157
O3	O	2.172627	0.781795	0.558490
O4	O	1.175521	0.126993	-0.108207
O5	O	1.508855	0.460327	0.225126
O6	O	1.842188	0.793660	0.558459
O7	O	1.349764	-0.001173	-0.108180
O8	O	1.683098	0.332160	0.225154
O9	O	2.016431	0.665493	0.558487
O10	O	1.331717	0.243295	-0.108205
O11	O	1.665051	0.576628	0.225129
O12	O	1.998384	0.909962	0.558462
O13	O	1.349749	-0.001179	0.108421
O14	O	1.683083	0.332155	0.441754
O15	O	2.016416	0.665488	0.775088
O16	O	1.175506	0.126988	0.108393
O17	O	1.508840	0.460321	0.441726
O18	O	1.842173	0.793655	0.775060
O19	O	1.505945	0.115123	0.108424
O20	O	1.839278	0.448456	0.441757
O21	O	2.172612	0.781790	0.775090
Cu22	Cu	1.340724	0.121055	0.128186
Cu23	Cu	1.674058	0.454388	0.461519
Cu24	Cu	2.007391	0.787722	0.794853
Cu25	Cu	1.340742	0.121061	-0.127970
Cu26	Cu	1.674076	0.454395	0.205364
Cu27	Cu	2.007409	0.787728	0.538697
O28	O	1.331702	0.243290	0.108396
O29	O	1.665035	0.576623	0.441729
O30	O	1.998369	0.909956	0.775063
C31	C	1.133229	0.126245	0.000089
C32	C	1.466562	0.459579	0.333422
C33	C	1.799896	0.792912	0.666756
C34	C	1.007234	0.124015	0.000078
C35	C	1.340567	0.457348	0.333411
C36	C	1.673900	0.790681	0.666744
C37	C	0.776555	0.119913	0.000116
C38	C	1.109889	0.453246	0.333449
C39	C	1.443222	0.786579	0.666782
C40	C	0.904922	0.122192	0.000095
C41	C	1.238255	0.455525	0.333428
C42	C	1.571588	0.788858	0.666761
C43	C	1.349008	-0.032473	0.000121
C44	C	1.682341	0.300860	0.333454
C45	C	2.015674	0.634193	0.666788
C46	C	1.346761	-0.125729	0.000121
C47	C	1.680095	0.207604	0.333455
C48	C	2.013428	0.540937	0.666788
C49	C	1.233389	-0.341098	0.000093
C50	C	1.566722	-0.007764	0.333426
C51	C	1.900055	0.325569	0.666760
C52	C	1.286028	-0.401880	0.106895
C53	C	1.619361	-0.068547	0.440228
C54	C	1.952695	0.264787	0.773562
C55	C	1.342698	-0.296474	0.000111
C56	C	1.676031	0.036860	0.333444
C57	C	2.009365	0.370193	0.666778
C58	C	1.286069	-0.401858	-0.106656
C59	C	1.619402	-0.068525	0.226677
C60	C	1.952735	0.264809	0.560010
C61	C	1.338765	-0.461404	0.000095
C62	C	1.672098	-0.128071	0.333429
C63	C	2.005432	0.205263	0.666762
C64	C	1.395367	-0.356028	0.107001
C65	C	1.728700	-0.022694	0.440335
C66	C	2.062034	0.310639	0.773668
C67	C	1.395392	-0.355999	-0.106646
C68	C	1.728726	-0.022666	0.226687
C69	C	2.062059	0.310667	0.560021
C70	C	1.448111	-0.416764	0.000182
C71	C	1.781444	-0.083430	0.333516
C72	C	2.114778	0.249903	0.666849
C73	C	1.344961	-0.201461	0.000121
C74	C	1.678294	0.131872	0.333455
C75	C	2.011627	0.465206	0.666788
C76	C	1.336511	-0.556415	0.000095
C77	C	1.669844	-0.223082	0.333428
C78	C	2.003177	0.110251	0.666761
C79	C	1.548237	0.115871	0.000124
C80	C	1.881571	0.449204	0.333458
C81	C	2.214904	0.782538	0.666791
C82	C	1.674233	0.118102	0.000127
C83	C	2.007566	0.451435	0.333461
C84	C	2.340899	0.784768	0.666794
C85	C	1.332459	0.274590	0.000093
C86	C	1.665792	0.607923	0.333426
C87	C	1.999126	0.941256	0.666759
C88	C	1.334705	0.367846	0.000084
C89	C	1.668038	0.701179	0.333417
C90	C	2.001372	1.034512	0.666750
N91	N	1.340720	0.121050	0.308352
N92	N	1.674053	0.454383	0.641685
N93	N	2.007387	0.787717	0.975018
N94	N	1.340756	0.121060	-0.308135
N95	N	1.674089	0.454393	0.025198
N96	N	2.007422	0.787726	0.358531
C97	C	1.340736	0.121060	0.574022
C98	C	1.674070	0.454393	0.907356
C99	C	2.007403	0.787726	1.240689
C100	C	1.340724	0.121057	0.426184
C101	C	1.674057	0.454390	0.759518
C102	C	2.007390	0.787723	1.092851
H103	H	1.142657	-0.308200	0.000191
H104	H	1.475990	0.025134	0.333524
H105	H	1.809324	0.358467	0.666858
H106	H	1.538922	-0.449513	0.000251
H107	H	1.872256	-0.116179	0.333584
H108	H	2.205589	0.217154	0.666918
Br109	Br	1.472400	-0.322094	-0.257134
Br110	Br	1.805733	0.011239	0.076199
Br111	Br	2.139066	0.344573	0.409532
H112	H	1.239788	-0.422199	0.197179
H113	H	1.573121	-0.088866	0.530513
H114	H	1.906455	0.244467	0.863846
Br115	Br	1.472358	-0.322373	0.257659
Br116	Br	1.805691	0.010961	0.590992
Br117	Br	2.139024	0.344294	0.924326
Br118	Br	1.208988	-0.435691	-0.257136
Br119	Br	1.542321	-0.102358	0.076197
Br120	Br	1.875655	0.230975	0.409530
