data_functionalizedCrystal
_audit_creation_method	'MofGen! by Chris Wilmer'
_symmetry_space_group_name_H-M	'P1'
_symmetry_Int_Tables_number	1
_symmetry_cell_setting	triclinic
loop_
_symmetry_equiv_pos_as_xyz
  x,y,z
_cell_length_a	21.295420
_cell_length_b	21.295417
_cell_length_c	12.827885
_cell_angle_alpha	89.962947
_cell_angle_beta	89.978592
_cell_angle_gamma	90.027953
loop_
_atom_site_label
_atom_site_type_symbol
_atom_site_fract_x
_atom_site_fract_y
_atom_site_fract_z
Zn1	Zn	0.962338	-0.250608	-0.590855
Zn2	Zn	0.962248	-0.355890	-0.416094
Zn3	Zn	0.857068	-0.250636	-0.416123
Zn4	Zn	0.857033	-0.355840	-0.590787
O5	O	0.909672	-0.303243	-0.503465
O6	O	1.050416	-0.264583	-0.567689
O7	O	0.948273	-0.341960	-0.269861
O8	O	0.871085	-0.162543	-0.439342
O9	O	1.050350	-0.341934	-0.439293
O10	O	0.948427	-0.162522	-0.567717
O11	O	0.870997	-0.264630	-0.269883
O12	O	0.768974	-0.264582	-0.439276
O13	O	0.871025	-0.341848	-0.737032
O14	O	0.768948	-0.341875	-0.567601
O15	O	0.948392	-0.264535	-0.737082
O16	O	0.948239	-0.443973	-0.439226
O17	O	0.870937	-0.443936	-0.567573
C18	C	0.746120	-0.303226	-0.503435
C19	C	0.676152	-0.303234	-0.503447
C20	C	0.176697	-0.343564	-0.570219
C21	C	0.242440	-0.343564	-0.570208
C22	C	0.275313	-0.303258	-0.503497
C23	C	0.242438	-0.262959	-0.436774
C24	C	0.176696	-0.262965	-0.436780
N25	N	0.378553	-0.248142	-0.495639
N26	N	0.441004	-0.248138	-0.495640
C27	C	0.473387	-0.303240	-0.503475
N28	N	0.440960	-0.358346	-0.511330
N29	N	0.378503	-0.358349	-0.511334
C30	C	0.346598	-0.303248	-0.503484
C31	C	0.577540	-0.343539	-0.570177
C32	C	0.643284	-0.343541	-0.570159
C33	C	0.643280	-0.262930	-0.436731
C34	C	0.577538	-0.262934	-0.436744
C35	C	0.544672	-0.303238	-0.503472
C36	C	0.909592	-0.466795	-0.503412
C37	C	0.909615	-0.536763	-0.503424
C38	C	0.949864	-0.569562	-0.570317
C39	C	0.949886	-0.635305	-0.570343
C40	C	0.909666	-0.668246	-0.503457
C41	C	0.869409	-0.635439	-0.436559
C42	C	0.869384	-0.569698	-0.436543
N43	N	0.904910	-0.771514	-0.412001
N44	N	0.904937	-0.833965	-0.412020
C45	C	0.909739	-0.866320	-0.503504
N46	N	0.914525	-0.833865	-0.594971
N47	N	0.914500	-0.771408	-0.594952
C48	C	0.909689	-0.739531	-0.503468
C49	C	0.950015	-0.970405	-0.570431
C50	C	0.950032	-1.036149	-0.570458
C51	C	0.869559	-1.036281	-0.436666
C52	C	0.869538	-0.970539	-0.436647
C53	C	0.909769	-0.937605	-0.503528
C54	C	1.073862	-0.303261	-0.503495
C55	C	1.143830	-0.303269	-0.503508
C56	C	0.909715	-0.303183	-0.776035
C57	C	0.909733	-0.303157	-0.892188
C58	C	0.909769	-0.139053	-0.503541
C59	C	0.909811	-0.069085	-0.503573
C60	C	0.948021	-0.264893	-0.943998
C61	C	0.948041	-0.264865	-1.064048
C62	C	0.909665	-0.303258	-0.231955
C63	C	0.909769	-0.303107	-0.115802
H64	H	0.149941	-0.376385	-0.624551
H65	H	0.269207	-0.230142	-0.382457
H66	H	0.982621	-0.542749	-0.624778
H67	H	0.836807	-1.063101	-0.382212
O68	O	0.870748	-0.342224	-1.062546
C69	C	0.906591	-0.382875	-0.999421
H70	H	0.954316	-0.360672	-0.983200
H71	H	0.913462	-0.429539	-1.041402
C72	C	0.813377	-0.421505	-0.915591
C73	C	0.871991	-0.394233	-0.895661
H74	H	0.792033	-0.428515	-0.851589
H75	H	0.789228	-0.394120	-0.958123
H76	H	0.819111	-0.460389	-0.950578
H77	H	0.866255	-0.355347	-0.860687
H78	H	0.896138	-0.421613	-0.853121
H79	H	0.982808	-1.062852	-0.624935
O80	O	0.987026	-0.225804	-0.890778
C81	C	0.951167	-0.185180	-0.827672
H82	H	0.903436	-0.207386	-0.811413
H83	H	0.944312	-0.138495	-0.869690
C84	C	1.044359	-0.146597	-0.743914
C85	C	0.985737	-0.173873	-0.723936
H86	H	1.065684	-0.139619	-0.679926
H87	H	1.068519	-0.173964	-0.786432
H88	H	1.038639	-0.107696	-0.778931
H89	H	0.991459	-0.212776	-0.688932
H90	H	0.961579	-0.146512	-0.681410
O91	O	0.870553	-0.342151	-0.945246
C92	C	0.807803	-0.328421	-0.918629
H93	H	0.804631	-0.278156	-0.888576
H94	H	0.791284	-0.362219	-0.855340
C95	C	0.769753	-0.397403	-1.052555
C96	C	0.765856	-0.335665	-1.015652
H97	H	0.743878	-0.401874	-1.112401
H98	H	0.812029	-0.406655	-1.070486
H99	H	0.755989	-0.425561	-0.999805
H100	H	0.779628	-0.307508	-1.068397
H101	H	0.723582	-0.326408	-0.997732
O102	O	0.274403	-0.382774	-0.634869
C103	C	0.312413	-0.423380	-0.575261
H104	H	0.292580	-0.427222	-0.492947
H105	H	0.362243	-0.403907	-0.571711
C106	C	0.337774	-0.484131	-0.727236
C107	C	0.313411	-0.488854	-0.626138
H108	H	0.338392	-0.524518	-0.758621
H109	H	0.312168	-0.456773	-0.767396
H110	H	0.379297	-0.467901	-0.724264
H111	H	0.271887	-0.505076	-0.629113
H112	H	0.339010	-0.516217	-0.585979
H113	H	0.836607	-0.542992	-0.382070
H114	H	0.550777	-0.230119	-0.382424
H115	H	0.149936	-0.230149	-0.382456
O116	O	0.989104	-0.938505	-0.635508
C117	C	1.024639	-0.981556	-0.694551
H118	H	0.998873	-1.028440	-0.698134
H119	H	1.072467	-0.988523	-0.656369
C120	C	1.065302	-0.898254	-0.801379
C121	C	1.033653	-0.955836	-0.805788
H122	H	1.070865	-0.882388	-0.869995
H123	H	1.041364	-0.869249	-0.761599
H124	H	1.105155	-0.904068	-0.769557
H125	H	0.993798	-0.950019	-0.837598
H126	H	1.057585	-0.984839	-0.845576
O127	O	0.830426	-0.938772	-0.371558
C128	C	0.794919	-0.981941	-0.312544
H129	H	0.820721	-1.028784	-0.308980
H130	H	0.747099	-0.988955	-0.350738
C131	C	0.754186	-0.898813	-0.205680
C132	C	0.785879	-0.956344	-0.201295
H133	H	0.748606	-0.883023	-0.137058
H134	H	0.778105	-0.869728	-0.245441
H135	H	0.714339	-0.904665	-0.237513
H136	H	0.825727	-0.950490	-0.169475
H137	H	0.761966	-0.985427	-0.161526
H138	H	0.550779	-0.376358	-0.624510
O139	O	0.830281	-0.667337	-0.371551
C140	C	0.794761	-0.624287	-0.312484
H141	H	0.792548	-0.577406	-0.355274
H142	H	0.817835	-0.617311	-0.233150
C143	C	0.730497	-0.707592	-0.244772
C144	C	0.727775	-0.650013	-0.297331
H145	H	0.689178	-0.723461	-0.235420
H146	H	0.754429	-0.736596	-0.284563
H147	H	0.749729	-0.701771	-0.178666
H148	H	0.708551	-0.655836	-0.363440
H149	H	0.703838	-0.621010	-0.257550
O150	O	0.675116	-0.382707	-0.635062
C151	C	0.632006	-0.418290	-0.693937
H152	H	0.585156	-0.392510	-0.697636
H153	H	0.624982	-0.466074	-0.655534
C154	C	0.715233	-0.459096	-0.800584
C155	C	0.657692	-0.427430	-0.805134
H156	H	0.731078	-0.464737	-0.869175
H157	H	0.744277	-0.435125	-0.760917
H158	H	0.709372	-0.498913	-0.768577
H159	H	0.663556	-0.387611	-0.837128
H160	H	0.628649	-0.451394	-0.844810
H161	H	0.980823	-0.232107	-1.108603
H162	H	0.670045	-0.230113	-0.382410
H163	H	0.982656	-0.662015	-0.624827
