data_functionalizedCrystal
_audit_creation_method	'MofGen! by Chris Wilmer'
_symmetry_space_group_name_H-M	'P1'
_symmetry_Int_Tables_number	1
_symmetry_cell_setting	triclinic
loop_
_symmetry_equiv_pos_as_xyz
  x,y,z
_cell_length_a	15.021413
_cell_length_b	16.992694
_cell_length_c	16.992695
_cell_angle_alpha	89.331777
_cell_angle_beta	89.996007
_cell_angle_gamma	89.997805
loop_
_atom_site_label
_atom_site_type_symbol
_atom_site_fract_x
_atom_site_fract_y
_atom_site_fract_z
O1	O	0.073921	-1.050854	0.166906
O2	O	0.573921	-0.550854	0.666906
O3	O	0.073948	-0.822454	0.165075
O4	O	0.573948	-0.322454	0.665075
O5	O	0.073927	-0.935739	0.051791
O6	O	0.573927	-0.435739	0.551791
O7	O	0.073941	-0.937570	0.280191
O8	O	0.573941	-0.437570	0.780191
O9	O	-0.074137	-0.935721	0.051807
O10	O	0.425863	-0.435721	0.551807
O11	O	-0.074117	-0.822436	0.165091
O12	O	0.425883	-0.322436	0.665091
O13	O	-0.074143	-1.050836	0.166922
O14	O	0.425857	-0.550836	0.666922
Zn15	Zn	-0.097638	-0.936633	0.166009
Zn16	Zn	0.402362	-0.436633	0.666009
Zn17	Zn	0.097443	-0.936657	0.165988
Zn18	Zn	0.597443	-0.436657	0.665988
O19	O	-0.074123	-0.937552	0.280207
O20	O	0.425877	-0.437552	0.780207
C21	C	-0.000081	-0.793085	0.162727
C22	C	0.499919	-0.293085	0.662727
C23	C	-0.000071	-0.705600	0.155699
C24	C	0.499929	-0.205600	0.655699
N25	N	-0.230776	-0.936623	0.166024
N26	N	0.269224	-0.436623	0.666024
C27	C	-0.000104	-0.933374	0.022439
C28	C	0.499896	-0.433374	0.522439
C29	C	-0.000103	-0.926345	-0.065046
C30	C	0.499897	-0.426345	0.434954
C31	C	-0.470450	-0.884230	0.218380
C32	C	0.029550	-0.384230	0.718380
C33	C	-0.529791	-0.956318	0.238115
C34	C	-0.029791	-0.456318	0.738115
C35	C	-0.412383	-0.936642	0.166005
C36	C	0.087617	-0.436642	0.666005
C37	C	-0.529783	-0.864574	0.146288
C38	C	-0.029783	-0.364574	0.646288
C39	C	-0.587807	-0.936654	0.165989
C40	C	-0.087807	-0.436654	0.665989
C41	C	-0.470418	-1.008768	0.185779
C42	C	0.029582	-0.508768	0.685779
C43	C	-0.470404	-0.916975	0.093918
C44	C	0.029596	-0.416975	0.593918
C45	C	-0.529719	-0.989113	0.113627
C46	C	-0.029719	-0.489113	0.613627
C47	C	-0.311325	-0.936634	0.166017
C48	C	0.188675	-0.436634	0.666017
C49	C	-0.688862	-0.936670	0.165977
C50	C	-0.188862	-0.436670	0.665977
N51	N	0.230580	-0.936674	0.165968
N52	N	0.730580	-0.436674	0.665968
C53	C	-0.000112	-1.080205	0.169270
C54	C	0.499888	-0.580205	0.669270
C55	C	-0.000116	-1.167690	0.176299
C56	C	0.499884	-0.667690	0.676299
C57	C	-0.000068	-0.659610	0.223517
C58	C	0.499932	-0.159610	0.723517
C59	C	-0.000081	-0.577409	0.216908
C60	C	0.499919	-0.077409	0.716908
C61	C	-0.000090	-0.541201	0.142480
C62	C	0.499910	-0.041201	0.642480
C63	C	-0.000097	-0.587198	0.074657
C64	C	0.499903	-0.087198	0.574657
C65	C	-0.000090	-0.669397	0.081267
C66	C	0.499910	-0.169397	0.581267
C67	C	-0.000116	-0.295886	0.115086
C68	C	0.499884	0.204114	0.615086
C69	C	-0.000120	-0.213681	0.108481
C70	C	0.499880	0.286319	0.608481
C71	C	-0.000105	-0.203898	0.250732
C72	C	0.499895	0.296102	0.750732
C73	C	-0.000094	-0.286099	0.257336
C74	C	0.499906	0.213901	0.757336
C75	C	-0.000104	-0.332089	0.189512
C76	C	0.499896	0.167911	0.689512
N77	N	-0.000101	-0.457178	0.135723
N78	N	0.499899	0.042822	0.635723
N79	N	-0.000101	-0.416110	0.196270
N80	N	0.499899	0.083890	0.696270
C81	C	-0.000112	-0.994163	-0.111037
C82	C	0.499888	-0.494163	0.388963
C83	C	-0.000103	-0.987554	-0.193238
C84	C	0.499897	-0.487554	0.306762
C85	C	-0.000091	-0.913127	-0.229446
C86	C	0.499909	-0.413127	0.270554
C87	C	-0.000080	-0.845303	-0.183449
C88	C	0.499920	-0.345303	0.316551
C89	C	-0.000083	-0.851913	-0.101250
C90	C	0.499917	-0.351913	0.398750
C91	C	-0.000076	-0.885732	-0.474760
C92	C	0.499924	-0.385732	0.025240
C93	C	-0.000076	-0.879127	-0.556966
C94	C	0.499924	-0.379127	-0.056966
C95	C	-0.000097	-1.021379	-0.566749
C96	C	0.499903	-0.521379	-0.066749
C97	C	-0.000105	-1.027982	-0.484547
C98	C	0.499895	-0.527982	0.015453
C99	C	-0.000089	-0.960159	-0.438558
C100	C	0.499911	-0.460159	0.061442
N101	N	-0.000085	-0.906369	-0.313468
N102	N	0.499915	-0.406369	0.186532
N103	N	-0.000089	-0.966917	-0.354537
N104	N	0.499911	-0.466917	0.145463
C105	C	-0.000089	-0.939917	0.309559
C106	C	0.499911	-0.439917	0.809559
C107	C	-0.000084	-0.946945	0.397044
C108	C	0.499916	-0.446945	0.897044
H109	H	-0.444426	-0.839957	0.262712
H110	H	0.055574	-0.339957	0.762712
H111	H	-0.555877	-0.972963	0.299071
H112	H	-0.055877	-0.472963	0.799071
H113	H	-0.444451	-1.069737	0.202520
H114	H	0.055549	-0.569737	0.702520
Br115	Br	-0.000103	-0.731814	-0.010776
Br116	Br	0.499897	-0.231814	0.489224
H117	H	-0.000077	-0.539966	0.272133
H118	H	0.499923	-0.039966	0.772133
Br119	Br	-0.000092	-0.141480	0.342773
Br120	Br	0.499908	0.358520	0.842773
Br121	Br	-0.000140	-1.095177	-0.061905
Br122	Br	0.499860	-0.595177	0.438095
H123	H	-0.555862	-0.803623	0.129620
H124	H	-0.055862	-0.303623	0.629620
Br125	Br	-0.000069	-0.778112	-0.606105
Br126	Br	0.499931	-0.278112	-0.106105
Br127	Br	-0.000152	-0.164541	0.007465
Br128	Br	0.499848	0.335459	0.507465
H129	H	-0.000065	-0.784703	-0.212936
H130	H	0.499935	-0.284703	0.287064
H131	H	-0.000075	-0.796688	-0.063804
H132	H	0.499925	-0.296688	0.436196
Br133	Br	-0.000070	-0.335233	0.358348
Br134	Br	0.499930	0.164767	0.858348
H135	H	-0.555579	-1.033492	0.069329
H136	H	-0.055579	-0.533492	0.569329
H137	H	-0.000117	-0.557710	0.014056
H138	H	0.499883	-0.057710	0.514056
H139	H	-0.000112	-1.042779	-0.230680
H140	H	0.499888	-0.542779	0.269320
H141	H	-0.444298	-0.900309	0.032980
H142	H	0.055702	-0.400309	0.532980
H143	H	-0.000115	-1.088589	-0.455073
H144	H	0.499885	-0.588589	0.044927
Br145	Br	-0.000048	-0.793685	-0.412356
Br146	Br	0.499952	-0.293685	0.087644
Br147	Br	-0.000046	-0.708741	0.324531
Br148	Br	0.499954	-0.208741	0.824531
H149	H	-0.000108	-1.076596	-0.604202
H150	H	0.499892	-0.576596	-0.104202
H151	H	-0.000125	-0.333322	0.059859
H152	H	0.499875	0.166678	0.559859
