data_functionalizedCrystal
_audit_creation_method	'MofGen! by Chris Wilmer'
_symmetry_space_group_name_H-M	'P1'
_symmetry_Int_Tables_number	1
_symmetry_cell_setting	triclinic
loop_
_symmetry_equiv_pos_as_xyz
  x,y,z
_cell_length_a	23.532407
_cell_length_b	10.654550
_cell_length_c	9.730223
_cell_angle_alpha	90.000043
_cell_angle_beta	89.990960
_cell_angle_gamma	96.333196
loop_
_atom_site_label
_atom_site_type_symbol
_atom_site_fract_x
_atom_site_fract_y
_atom_site_fract_z
O1	O	0.079985	-1.665305	-0.114203
O2	O	0.087605	-1.299585	-0.114230
O3	O	0.000935	-1.493473	-0.114191
O4	O	0.166655	-1.471417	-0.114242
O5	O	0.000933	-1.493461	0.114389
O6	O	0.087603	-1.299573	0.114350
O7	O	0.079982	-1.665293	0.114377
Zn8	Zn	0.083792	-1.482431	0.150655
Zn9	Zn	0.083795	-1.482447	-0.150508
O10	O	0.166652	-1.471404	0.114337
C11	C	0.087044	-1.252799	0.000057
C12	C	0.085370	-1.113408	0.000048
C13	C	-0.020286	-1.492905	0.000103
C14	C	-0.083514	-1.491217	0.000113
C15	C	0.080543	-1.712079	0.000087
C16	C	0.082217	-1.851469	0.000087
C17	C	-0.481938	-1.595364	0.000046
C18	C	-0.541349	-1.593795	0.000035
O19	O	-0.577464	-1.690341	-0.000009
N20	N	-0.564726	-1.478529	0.000028
C21	C	-0.528689	-1.364824	0.000017
O22	O	-0.554029	-1.266636	0.000008
C23	C	-0.469280	-1.366394	0.000018
C24	C	-0.445906	-1.481668	0.000039
C25	C	-0.458564	-1.710629	0.000066
C26	C	-0.399158	-1.712197	0.000079
C27	C	-0.363126	-1.598500	0.000072
C28	C	-0.386500	-1.483236	0.000052
C29	C	-0.433244	-1.252690	-0.000003
C30	C	-0.373831	-1.254270	-0.000003
C31	C	-0.350458	-1.369544	0.000018
C32	C	-0.291061	-1.371107	0.000058
N33	N	-0.267684	-1.486374	0.000066
C34	C	-0.303716	-1.600070	0.000073
C35	C	-0.653453	-1.361535	0.000013
C36	C	-0.712861	-1.359964	0.000022
C37	C	-0.725517	-1.588936	0.000038
C38	C	-0.666108	-1.590506	0.000038
C39	C	-0.630076	-1.476802	0.000020
C40	C	-0.178958	-1.603355	0.000101
C41	C	-0.119546	-1.604913	0.000120
C42	C	-0.106896	-1.375942	0.000097
C43	C	-0.166303	-1.374383	0.000086
C44	C	-0.202333	-1.488100	0.000083
O45	O	-0.254911	-1.274613	0.000096
O46	O	-0.278369	-1.698241	0.000063
C47	C	0.187873	-1.471972	0.000041
C48	C	0.251101	-1.473661	0.000022
N49	N	0.083790	-1.482429	0.356192
C50	C	0.136400	-1.032306	0.000036
C51	C	0.134824	-0.901335	0.000060
C52	C	0.031183	-0.932582	0.000103
C53	C	0.032760	-1.063550	0.000089
N54	N	0.083793	-1.482459	-0.356045
C55	C	0.045429	-1.568311	0.428135
C56	C	0.045429	-1.568324	0.572018
C57	C	0.122156	-1.396567	0.572002
C58	C	0.122153	-1.396550	0.428121
H59	H	-0.208288	-1.695954	0.000094
H60	H	-0.647081	-1.684372	0.000055
H61	H	0.014190	-1.638237	0.369574
O62	O	-0.373955	-1.836534	0.000088
H63	H	-0.326590	-1.818544	0.000101
H64	H	0.153391	-1.326608	0.369541
O65	O	0.004061	-1.660968	0.649620
H66	H	-0.022609	-1.720688	0.575425
O67	O	-0.068025	-1.253317	0.000097
H68	H	-0.076385	-1.198121	-0.093072
H69	H	-0.011650	-0.891971	0.000144
O70	O	-0.022284	-1.151031	0.000110
H71	H	-0.012348	-1.250477	0.000112
O72	O	-0.764385	-1.711573	0.000030
H73	H	-0.809621	-1.691105	0.000010
O74	O	-0.191522	-1.250060	0.000079
H75	H	-0.177077	-1.195474	-0.093093
H76	H	0.153392	-1.326648	0.630581
O77	O	-0.094334	-1.729248	0.000122
H78	H	-0.129374	-1.808041	0.000104
O79	O	-0.497424	-1.833268	0.000092
H80	H	-0.471179	-1.913669	0.000120
O81	O	-0.458446	-1.128358	-0.000031
H82	H	-0.423402	-1.049575	-0.000053
O83	O	-0.738070	-1.235634	0.000025
H84	H	-0.723626	-1.181046	-0.093146
O85	O	-0.614593	-1.238885	0.000032
H86	H	-0.622959	-1.183680	-0.093126
O87	O	-0.334970	-1.131626	-0.000003
H88	H	-0.343333	-1.076428	-0.093169
O89	O	0.193141	-1.086089	0.000021
H90	H	0.228360	-1.007685	0.000034
O91	O	0.189863	-0.813855	0.000043
H92	H	0.226708	-0.870533	0.000004
