data_functionalizedCrystal
_audit_creation_method	'MofGen! by Chris Wilmer'
_symmetry_space_group_name_H-M	'P1'
_symmetry_Int_Tables_number	1
_symmetry_cell_setting	triclinic
loop_
_symmetry_equiv_pos_as_xyz
  x,y,z
_cell_length_a	23.096457
_cell_length_b	20.919309
_cell_length_c	20.919285
_cell_angle_alpha	55.759287
_cell_angle_beta	86.842752
_cell_angle_gamma	62.591463
loop_
_atom_site_label
_atom_site_type_symbol
_atom_site_fract_x
_atom_site_fract_y
_atom_site_fract_z
Zr1	Zr	0.588020	0.700774	-0.111346
O2	O	0.505636	0.834334	-0.218772
O3	O	0.609830	0.567212	-0.074805
O4	O	0.621458	0.700774	-0.213572
O5	O	0.488755	0.700774	0.025353
O6	O	0.716738	0.700775	-0.213576
O7	O	0.494009	0.700773	-0.080004
O8	O	0.695939	0.461859	0.034654
O9	O	0.509555	0.939690	-0.222877
O10	O	0.694401	0.622150	-0.063584
O11	O	0.619373	0.622150	0.015046
O12	O	0.633063	0.779401	-0.148335
O13	O	0.558036	0.779400	-0.069706
Zr14	Zr	0.731603	0.700779	0.056680
Zr15	Zr	0.739982	0.700777	-0.111352
Zr16	Zr	0.579641	0.700776	0.056686
Zr17	Zr	0.594270	0.868805	-0.117893
Zr18	Zr	0.725353	0.532747	0.063228
O19	O	0.709793	0.834340	0.020139
O20	O	0.721706	0.834338	-0.218781
O21	O	0.493723	0.834336	0.020148
O22	O	0.813987	0.567219	0.164106
O23	O	0.825900	0.567216	-0.074814
O24	O	0.597917	0.567215	0.164115
O25	O	0.830868	0.700779	-0.080018
O26	O	0.698165	0.700779	0.158907
O27	O	0.602885	0.700777	0.158911
O28	O	0.825614	0.700780	0.025339
O29	O	0.630344	0.939692	-0.222882
O30	O	0.689279	0.461860	0.168217
O31	O	0.810068	0.461863	0.168212
O32	O	0.816728	0.461861	0.034649
O33	O	0.502895	0.939692	-0.089314
O34	O	0.623684	0.939694	-0.089319
O35	O	0.686560	0.622152	0.093670
O36	O	0.761587	0.622152	0.015040
O37	O	0.700250	0.779403	-0.069711
O38	O	0.625222	0.779402	0.008918
C39	C	0.651994	0.490595	-0.019143
C40	C	0.649341	0.419261	-0.016363
C41	C	0.687256	0.385749	-0.056101
C42	C	0.684764	0.318718	-0.053482
C43	C	0.644353	0.285206	-0.011128
C44	C	0.606437	0.318721	0.028615
C45	C	0.608933	0.385746	0.025999
C46	C	0.634862	0.082831	-0.001175
C47	C	0.632367	0.015804	0.001435
C48	C	0.710696	0.015804	-0.080660
C49	C	0.713185	0.082834	-0.083275
C50	C	0.675271	0.116340	-0.043529
C51	C	0.641804	0.216693	-0.008452
C52	C	0.677825	0.184848	-0.046201
C53	C	0.469731	0.700773	-0.027325
C54	C	0.405219	0.700772	-0.027322
C55	C	0.406931	0.618691	0.016909
C56	C	0.346316	0.618690	0.016913
C57	C	0.283989	0.700774	-0.027331
C58	C	0.282280	0.782865	-0.071565
C59	C	0.342895	0.782864	-0.071561
N60	N	0.166797	0.761873	-0.096511
N61	N	0.109217	0.761868	-0.096513
C62	C	0.101357	0.700782	-0.027345
N63	N	0.153258	0.639686	0.041825
N64	N	0.210844	0.639688	0.041826
C65	C	0.218258	0.700784	-0.027340
C66	C	0.037345	0.618694	0.016894
C67	C	-0.023273	0.618696	0.016900
C68	C	-0.087308	0.782874	-0.071586
C69	C	-0.026691	0.782870	-0.071583
C70	C	0.035634	0.700777	-0.027345
C71	C	0.849892	0.700780	-0.027341
C72	C	0.914404	0.700781	-0.027343
C73	C	0.670292	0.700774	-0.237515
C74	C	0.673849	0.700773	-0.308849
C75	C	0.667629	0.910958	-0.035523
C76	C	0.670282	0.982292	-0.038303
C77	C	0.696594	0.700782	-0.712308
C78	C	0.693249	0.700786	-0.645283
C79	C	0.639087	0.700780	-0.611765
C80	C	0.588263	0.700779	-0.645280
C81	C	0.591605	0.700782	-0.712307
C82	C	0.626367	0.700776	-0.409391
C83	C	0.623029	0.700770	-0.342358
C84	C	0.728016	0.700779	-0.342367
C85	C	0.731355	0.700776	-0.409392
C86	C	0.680529	0.700781	-0.442903
C87	C	0.635669	0.700780	-0.543254
C88	C	0.683946	0.700786	-0.511417
C89	C	0.649331	0.700779	0.182850
C90	C	0.645774	0.700779	0.254184
C91	C	0.842075	0.490598	-0.019151
C92	C	0.903933	0.419266	-0.016374
C93	C	0.641513	0.490597	0.191040
C94	C	0.635303	0.419264	0.265154
C95	C	0.831594	0.490601	0.191032
C96	C	0.889896	0.419269	0.265143
C97	C	0.488029	0.910952	-0.245698
C98	C	0.429727	0.982284	-0.319809
C99	C	0.477548	0.910954	-0.035515
C100	C	0.415690	0.982287	-0.038292
C101	C	0.678110	0.910956	-0.245705
C102	C	0.684320	0.982289	-0.319819
C103	C	0.897912	0.385766	-0.056117
C104	C	0.956030	0.318751	-0.053524
C105	C	1.020168	0.285232	-0.011182
C106	C	1.026188	0.318738	0.028563
C107	C	0.968071	0.385757	0.025964
C108	C	0.667457	0.385766	0.341006
C109	C	0.661619	0.318751	0.410650
C110	C	0.623631	0.285230	0.404439
C111	C	0.591474	0.318734	0.328579
C112	C	0.597308	0.385753	0.258937
C113	C	0.956445	0.385771	0.258903
C114	C	1.011232	0.318756	0.328531
C115	C	0.999468	0.285237	0.404399
C116	C	0.932912	0.318741	0.410638
C117	C	0.878127	0.385759	0.341010
C118	C	0.363179	1.015790	-0.313568
C119	C	0.308392	1.082825	-0.383198
C120	C	0.320156	1.116349	-0.459066
C121	C	0.386712	1.082840	-0.465305
C122	C	0.441497	1.015810	-0.395676
C123	C	0.421711	1.015793	0.001444
C124	C	0.363595	1.082827	-0.001168
C125	C	0.299457	1.116348	-0.043513
C126	C	0.293438	1.082839	-0.083254
C127	C	0.351554	1.015811	-0.080646
C128	C	0.722313	1.015789	-0.313583
C129	C	0.728161	1.082805	-0.383214
C130	C	0.696012	1.116324	-0.459080
C131	C	0.658017	1.082817	-0.465315
C132	C	0.652173	1.015798	-0.395685
H133	H	0.599456	-0.011478	0.035924
N134	N	0.623339	1.118980	-0.547144
H135	H	0.641215	1.067854	-0.551446
H136	H	0.632819	1.166533	-0.590253
H137	H	0.591570	0.700773	-0.515957
N138	N	0.571558	0.700762	-0.445522
H139	H	0.592388	0.644940	-0.443246
H140	H	0.548843	0.756620	-0.503398
N141	N	0.708434	0.421911	0.347716
H142	H	0.727911	0.390516	0.406341
H143	H	0.678152	0.489193	0.319071
H144	H	1.044084	0.230666	0.461088
N145	N	0.789760	0.700805	-0.445564
H146	H	0.771692	0.756632	-0.503457
H147	H	0.815238	0.644952	-0.443239
N148	N	0.399396	1.118993	-0.547135
H149	H	0.427519	1.146805	-0.554512
H150	H	0.354560	1.166500	-0.590241
N151	N	0.969153	0.421912	0.177084
H152	H	0.949636	0.489193	0.144824
H153	H	0.946715	0.410181	0.147963
H154	H	0.710730	0.212132	-0.080681
N155	N	0.730839	0.421895	-0.101789
H156	H	0.779788	0.370759	-0.078270
H157	H	0.726610	0.469455	-0.097407
H158	H	0.578922	0.700765	-0.315070
H159	H	-0.028088	0.849709	-0.107607
N160	N	0.756993	0.979636	-0.231758
H161	H	0.739119	1.030769	-0.227467
H162	H	0.807563	0.951810	-0.224449
H163	H	0.368509	1.110099	0.031198
H164	H	0.231529	0.849699	-0.107588
H165	H	1.065420	0.291484	0.323437
H166	H	0.550222	0.700782	-0.739590
H167	H	0.923344	0.291439	0.472419
N168	N	0.350474	0.979645	-0.231748
H169	H	0.325291	1.030783	-0.227462
H170	H	0.395297	0.932082	-0.188623
N171	N	0.236778	1.188643	-0.046322
H172	H	0.250331	1.204776	-0.014719
H173	H	0.205596	1.165267	-0.022067
N174	N	0.806349	0.421881	0.347747
H175	H	0.807217	0.390471	0.406376
H176	H	0.780449	0.410206	0.322190
N177	N	0.696308	0.282620	0.492463
H178	H	0.721264	0.314021	0.485824
H179	H	0.729644	0.215338	0.524684
H180	H	0.346641	0.988532	-0.113002
H181	H	0.621233	0.988530	-0.400773
N182	N	0.617343	0.212943	0.479557
H183	H	0.643481	0.196812	0.528549
H184	H	0.636388	0.157371	0.481688
H185	H	0.560544	0.291431	0.323534
N186	N	0.513272	0.979659	-0.402416
H187	H	0.546199	0.932104	-0.346799
H188	H	0.522273	1.030843	-0.434051
N189	N	0.224257	1.118984	-0.128907
H190	H	0.202008	1.186266	-0.172827
H191	H	0.195213	1.107248	-0.090732
N192	N	0.725657	0.282573	-0.096343
H193	H	0.751632	0.313978	-0.123575
H194	H	0.694063	0.294236	-0.138053
H195	H	0.275541	1.170928	-0.515756
H196	H	0.473930	0.988505	0.035931
H197	H	0.759099	1.110079	-0.378122
N198	N	0.702328	1.188604	-0.534172
H199	H	0.683279	1.244215	-0.536359
H200	H	0.676207	1.204689	-0.583145
H201	H	0.741564	-0.011483	-0.113019
N202	N	0.756768	0.118982	-0.128960
H203	H	0.780409	0.087581	-0.153738
H204	H	0.791771	0.107322	-0.090826
N205	N	0.562585	0.421926	0.177124
H206	H	0.537623	0.390531	0.183765
H207	H	0.597674	0.410289	0.147936
H208	H	0.603992	0.110101	0.031193
H209	H	0.845694	0.413057	-0.090607
H210	H	0.254205	1.110097	-0.378102
H211	H	0.573537	0.291426	0.063104
N212	N	0.949520	0.282620	-0.096388
H213	H	0.968637	0.215339	-0.056129
H214	H	0.975488	0.294354	-0.138161
H215	H	0.578056	0.413033	0.058356
H216	H	0.457675	0.551845	0.052927
N217	N	0.598219	0.180542	0.037224
H218	H	0.563181	0.192203	-0.000874
H219	H	0.574618	0.211955	0.062001
N220	N	0.348153	0.530157	0.064623
H221	H	0.396833	0.478153	0.092649
H222	H	0.326367	0.526590	0.027068
N223	N	0.755009	0.700794	-0.748461
H224	H	0.799154	0.644979	-0.706716
H225	H	0.755532	0.756659	-0.766887
H226	H	0.088092	0.551849	0.052932
N227	N	0.341051	0.871397	-0.119274
H228	H	0.292371	0.923400	-0.147303
H229	H	0.366776	0.874968	-0.160674
H230	H	-0.021873	0.551854	0.052924
H231	H	-0.138055	0.849709	-0.107611
H232	H	0.769395	0.700776	-0.315076
N233	N	0.748061	0.700791	-0.609142
H234	H	0.782881	0.700790	-0.640543
H235	H	0.770735	0.644968	-0.551247
H236	H	0.728043	0.700796	-0.538712
N237	N	0.529842	0.700777	-0.609135
H238	H	0.535437	0.700772	-0.561586
H239	H	0.529282	0.644952	-0.590766
N240	N	1.082849	0.212949	-0.008384
H241	H	1.069296	0.196817	-0.039988
H242	H	1.107159	0.157376	0.049386
H243	H	1.078416	0.291438	0.063036
H244	H	0.972982	0.413024	0.058334
