data_functionalizedCrystal
_audit_creation_method	'MofGen! by Chris Wilmer'
_symmetry_space_group_name_H-M	'P1'
_symmetry_Int_Tables_number	1
_symmetry_cell_setting	triclinic
loop_
_symmetry_equiv_pos_as_xyz
  x,y,z
_cell_length_a	16.120484
_cell_length_b	16.625548
_cell_length_c	16.625539
_cell_angle_alpha	89.977655
_cell_angle_beta	87.131385
_cell_angle_gamma	87.074492
loop_
_atom_site_label
_atom_site_type_symbol
_atom_site_fract_x
_atom_site_fract_y
_atom_site_fract_z
Zn1	Zn	-0.331909	-1.216387	0.472206
Zn2	Zn	-0.471333	-1.209445	0.344203
Zn3	Zn	-0.331938	-1.081547	0.337384
Zn4	Zn	-0.471282	-1.074677	0.478986
O5	O	-0.401616	-1.145514	0.408194
O6	O	-0.350413	-1.328298	0.455242
O7	O	-0.452875	-1.192450	0.230467
O8	O	-0.215268	-1.105214	0.349577
O9	O	-0.452848	-1.323198	0.361199
O10	O	-0.215247	-1.204280	0.448630
O11	O	-0.350462	-1.098483	0.225457
O12	O	-0.350413	-0.967804	0.356151
O13	O	-0.452761	-1.093505	0.590917
O14	O	-0.452789	-0.962756	0.460186
O15	O	-0.350364	-1.197618	0.585936
O16	O	-0.587992	-1.185788	0.367773
O17	O	-0.587955	-1.086774	0.466798
C18	C	-0.401599	-0.936024	0.408165
C19	C	-0.401612	-0.846402	0.408172
C20	C	-0.401610	-0.518227	0.408196
C21	C	-0.401609	-0.609535	0.408187
C22	C	-0.401612	-0.682312	0.408183
C23	C	-0.401609	-0.773626	0.408175
C24	C	-0.618224	-1.134804	0.418779
C25	C	-0.710890	-1.130296	0.423334
C26	C	-0.880551	-1.122071	0.431666
C27	C	-0.921839	-1.169102	0.384736
C28	C	-1.016245	-1.164525	0.389372
C29	C	-0.786137	-1.126646	0.427031
C30	C	-0.184162	-1.156288	0.397587
C31	C	-0.091496	-1.160879	0.393066
C32	C	-0.401554	-1.145569	0.618500
C33	C	-0.401527	-1.145593	0.708120
C34	C	-0.401627	-0.355822	0.408217
C35	C	-0.401618	-0.445444	0.408206
C36	C	-0.401617	-1.145508	0.198704
C37	C	-0.401409	-1.145652	0.109073
C38	C	-0.401434	-1.145635	1.036292
C39	C	-0.401462	-1.145621	0.944984
C40	C	-0.401481	-1.145614	0.872209
C41	C	-0.401508	-1.145600	0.780896
H42	H	-0.886286	-1.212803	0.341075
H43	H	-0.916102	-1.078371	0.475323
