data_functionalizedCrystal
_audit_creation_method	'MofGen! by Chris Wilmer'
_symmetry_space_group_name_H-M	'P1'
_symmetry_Int_Tables_number	1
_symmetry_cell_setting	triclinic
loop_
_symmetry_equiv_pos_as_xyz
  x,y,z
_cell_length_a	10.686285
_cell_length_b	11.169417
_cell_length_c	11.169417
_cell_angle_alpha	89.994465
_cell_angle_beta	94.372288
_cell_angle_gamma	94.370078
loop_
_atom_site_label
_atom_site_type_symbol
_atom_site_fract_x
_atom_site_fract_y
_atom_site_fract_z
Zn1	Zn	-0.502628	-1.871482	0.641988
Zn2	Zn	-0.169295	-1.538149	0.975321
Zn3	Zn	0.164039	-1.204815	1.308655
Zn4	Zn	-0.713574	-1.886835	0.425940
Zn5	Zn	-0.380241	-1.553502	0.759273
Zn6	Zn	-0.046908	-1.220168	1.092606
Zn7	Zn	-0.502596	-1.670822	0.441319
Zn8	Zn	-0.169263	-1.337489	0.774652
Zn9	Zn	0.164071	-1.004155	1.107985
Zn10	Zn	-0.713561	-1.686181	0.626579
Zn11	Zn	-0.380228	-1.352848	0.959912
Zn12	Zn	-0.046894	-1.019515	1.293245
O13	O	-0.608090	-1.778830	0.533956
O14	O	-0.274756	-1.445497	0.867290
O15	O	0.058577	-1.112163	1.200623
O16	O	-0.530629	-2.041470	0.613342
O17	O	-0.197296	-1.708136	0.946675
O18	O	0.136037	-1.374803	1.280008
O19	O	-0.685580	-1.858178	0.260031
O20	O	-0.352247	-1.524844	0.593364
O21	O	-0.018913	-1.191511	0.926697
O22	O	-0.326029	-1.684587	0.480823
O23	O	0.007304	-1.351254	0.814156
O24	O	0.340638	-1.017920	1.147490
O25	O	-0.685611	-2.052749	0.454612
O26	O	-0.352278	-1.719416	0.787945
O27	O	-0.018944	-1.386083	1.121278
O28	O	-0.326052	-1.832011	0.628254
O29	O	0.007281	-1.498678	0.961587
O30	O	0.340614	-1.165344	1.294921
O31	O	-0.530575	-1.699474	0.271329
O32	O	-0.197242	-1.366141	0.604663
O33	O	0.136092	-1.032807	0.937996
O34	O	-0.530562	-1.504908	0.465881
O35	O	-0.197229	-1.171575	0.799215
O36	O	0.136105	-0.838242	1.132548
O37	O	-0.685588	-1.710765	0.796572
O38	O	-0.352255	-1.377431	1.129905
O39	O	-0.018921	-1.044098	1.463239
O40	O	-0.685557	-1.516193	0.601991
O41	O	-0.352224	-1.182860	0.935324
O42	O	-0.018890	-0.849526	1.268658
O43	O	-0.530616	-1.846904	0.807893
O44	O	-0.197283	-1.513571	1.141227
O45	O	0.136050	-1.180238	1.474560
O46	O	-0.890144	-1.873071	0.439670
O47	O	-0.556811	-1.539738	0.773003
O48	O	-0.223477	-1.206404	1.106336
O49	O	-0.890134	-1.725652	0.587079
O50	O	-0.556801	-1.392318	0.920412
O51	O	-0.223467	-1.058985	1.253745
C52	C	-0.608055	-1.467003	0.533933
C53	C	-0.274722	-1.133670	0.867267
C54	C	0.058611	-0.800336	1.200600
C55	C	-0.608071	-1.333604	0.533950
C56	C	-0.274738	-1.000271	0.867283
C57	C	0.058595	-0.666937	1.200617
C58	C	-0.935922	-1.802727	0.510059
C59	C	-0.602589	-1.469393	0.843393
C60	C	-0.269255	-1.136060	1.176726
C61	C	-1.076170	-1.813059	0.499876
C62	C	-0.742837	-1.479726	0.833210
C63	C	-0.409503	-1.146393	1.166543
C64	C	-0.278977	-1.754873	0.557973
C65	C	0.054356	-1.421540	0.891306
C66	C	0.387689	-1.088206	1.224640
C67	C	-0.138729	-1.744664	0.568207
C68	C	0.194604	-1.411331	0.901541
C69	C	0.527937	-1.077997	1.234874
C70	C	-0.608104	-1.778835	0.846998
C71	C	-0.274771	-1.445502	1.180331
C72	C	0.058562	-1.112169	1.513664
C73	C	-0.608110	-1.778837	0.980397
C74	C	-0.274777	-1.445504	1.313730
C75	C	0.058556	-1.112171	1.647064
C76	C	-0.608113	-1.091874	0.533973
C77	C	-0.274780	-0.758541	0.867306
C78	C	0.058554	-0.425207	1.200639
C79	C	-0.608092	-1.225273	0.533962
C80	C	-0.274758	-0.891939	0.867295
C81	C	0.058575	-0.558606	1.200628
C82	C	-0.608108	-1.778823	1.222130
C83	C	-0.274775	-1.445489	1.555464
C84	C	0.058558	-1.112156	1.888797
C85	C	-0.608115	-1.778834	1.088730
C86	C	-0.274782	-1.445500	1.422063
C87	C	0.058551	-1.112167	1.755396
H88	H	-1.084997	-1.678204	0.634501
H89	H	-0.751663	-1.344870	0.967834
H90	H	-0.418330	-1.011537	1.301167
H91	H	-1.129911	-1.879516	0.433571
H92	H	-0.796577	-1.546182	0.766904
H93	H	-0.463244	-1.212849	1.100238
