data_functionalizedCrystal
_audit_creation_method	'MofGen! by Chris Wilmer'
_symmetry_space_group_name_H-M	'P1'
_symmetry_Int_Tables_number	1
_symmetry_cell_setting	triclinic
loop_
_symmetry_equiv_pos_as_xyz
  x,y,z
_cell_length_a	16.109301
_cell_length_b	16.109301
_cell_length_c	14.586319
_cell_angle_alpha	90.003802
_cell_angle_beta	90.000787
_cell_angle_gamma	83.461532
loop_
_atom_site_label
_atom_site_type_symbol
_atom_site_fract_x
_atom_site_fract_y
_atom_site_fract_z
O1	O	-1.103131	-0.106866	-0.076182
O2	O	-0.861069	-0.120165	-0.076197
O3	O	-0.988749	0.007515	-0.076183
O4	O	-0.975450	-0.234547	-0.076196
O5	O	-0.988741	0.007517	0.076298
O6	O	-0.861060	-0.120164	0.076284
O7	O	-1.103122	-0.106864	0.076298
Cu8	Cu	-0.982090	-0.113514	0.090214
Cu9	Cu	-0.982101	-0.113516	-0.090112
O10	O	-0.975441	-0.234545	0.076285
C11	C	-0.830090	-0.119626	0.000042
C12	C	-0.737794	-0.118011	0.000036
N13	N	-0.982089	-0.113512	0.217046
C14	C	-0.988206	0.038491	0.000057
C15	C	-0.986591	0.130786	0.000055
C16	C	-1.134101	-0.107404	0.000058
C17	C	-1.226397	-0.109019	0.000057
C18	C	-0.515522	-0.190018	0.000043
C19	C	-0.428802	-0.188494	0.000049
C20	C	-0.448676	-0.037006	0.000053
C21	C	-0.535395	-0.038530	0.000054
C22	C	-0.568815	-0.115039	0.000044
C23	C	-0.395376	-0.111990	0.000049
C24	C	-0.301350	-0.110337	0.000056
C25	C	-0.662847	-0.116693	0.000039
C26	C	-0.975985	-0.265521	0.000043
C27	C	-0.977600	-0.357816	0.000038
C28	C	-1.057074	0.439785	0.000044
C29	C	-1.058600	0.353064	0.000049
C30	C	-0.907111	0.333191	0.000052
C31	C	-0.905586	0.419910	0.000053
C32	C	-0.980571	0.473205	0.000045
C33	C	-0.983620	0.299766	0.000049
C34	C	-0.985274	0.205740	0.000055
C35	C	-0.978917	0.567237	0.000041
N36	N	-0.982109	-0.113511	-0.216944
C37	C	-1.038645	-0.056994	0.452058
C38	C	-1.038647	-0.056992	0.548039
C39	C	-0.925547	-0.170032	0.548037
C40	C	-0.925541	-0.170030	0.452057
C41	C	-0.982095	-0.113511	0.404070
C42	C	-0.982103	-0.113512	0.596031
C43	C	-0.982105	-0.113510	0.700098
C44	C	-0.982092	-0.113512	0.299997
H45	H	-0.542730	-0.252317	0.000042
O46	O	-0.831317	0.452477	-0.000071
C47	C	-0.741662	0.538811	-0.079092
C48	C	-0.825803	0.502001	-0.079058
H49	H	-0.737168	0.578845	-0.142956
H50	H	-0.737149	0.578971	-0.015321
H51	H	-0.688345	0.485811	-0.079049
H52	H	-0.879167	0.554947	-0.079133
H53	H	-0.830242	0.461819	-0.142823
H54	H	-0.578788	0.022530	0.000057
H55	H	-1.084694	-0.010969	0.587108
H56	H	-1.118131	0.483175	0.000037
H57	H	-1.084693	-0.010972	0.412990
H58	H	-0.879488	-0.216053	0.412983
H59	H	-0.879503	-0.216049	0.587117
O60	O	-0.834352	0.281301	0.000013
C61	C	-0.769561	0.138899	0.000062
C62	C	-0.852024	0.197566	0.000089
H63	H	-0.783820	0.071187	0.000143
H64	H	-0.731900	0.150984	-0.063765
H65	H	-0.731909	0.151101	0.063861
H66	H	-0.889742	0.185398	-0.063667
H67	H	-0.889622	0.185468	0.063958
H68	H	-0.385413	-0.249550	0.000050
H69	H	-1.120896	0.325859	0.000050
O70	O	-0.416071	0.037239	0.000015
C71	C	-0.291285	0.106727	0.000066
C72	C	-0.328095	0.022586	0.000091
H73	H	-0.220152	0.094910	0.000147
H74	H	-0.313177	0.143788	-0.063761
H75	H	-0.313283	0.143781	0.063865
H76	H	-0.306114	-0.014535	-0.063665
H77	H	-0.306207	-0.014411	0.063960
