data_functionalizedCrystal
_audit_creation_method	'MofGen! by Chris Wilmer'
_symmetry_space_group_name_H-M	'P1'
_symmetry_Int_Tables_number	1
_symmetry_cell_setting	triclinic
loop_
_symmetry_equiv_pos_as_xyz
  x,y,z
_cell_length_a	16.109301
_cell_length_b	17.699092
_cell_length_c	15.186229
_cell_angle_alpha	89.997943
_cell_angle_beta	89.999362
_cell_angle_gamma	83.373924
loop_
_atom_site_label
_atom_site_type_symbol
_atom_site_fract_x
_atom_site_fract_y
_atom_site_fract_z
O1	O	1.102966	0.097284	-0.073170
O2	O	0.860884	0.109391	-0.073183
O3	O	0.988761	-0.006841	-0.073174
O4	O	0.975089	0.213517	-0.073179
O5	O	0.988752	-0.006843	0.073283
O6	O	0.860875	0.109389	0.073274
O7	O	1.102958	0.097282	0.073288
Zn8	Zn	0.981915	0.103336	0.096534
Zn9	Zn	0.981926	0.103338	-0.096430
O10	O	0.975081	0.213515	0.073279
C11	C	0.829905	0.108900	0.000044
C12	C	0.737613	0.107429	0.000038
C13	C	0.988266	-0.035040	0.000053
C14	C	0.986792	-0.119060	0.000049
C15	C	0.515229	0.172981	0.000047
C16	C	0.428511	0.171593	0.000053
C17	C	0.448619	0.033688	0.000052
C18	C	0.535335	0.035076	0.000053
C19	C	0.568638	0.104725	0.000046
C20	C	0.395204	0.101949	0.000051
C21	C	0.301180	0.100444	0.000057
C22	C	0.662667	0.106230	0.000041
C23	C	0.986107	-0.158527	-0.079786
C24	C	0.984717	-0.237472	-0.079787
C25	C	0.984019	-0.276949	0.000048
C26	C	0.984702	-0.237476	0.079889
C27	C	0.986086	-0.158531	0.079889
C28	C	0.979122	-0.555848	0.079890
C29	C	0.977741	-0.634799	0.079884
C30	C	0.977753	-0.634789	-0.079786
C31	C	0.979137	-0.555845	-0.079786
C32	C	0.979815	-0.516378	0.000055
C33	C	0.981320	-0.430777	0.000055
C34	C	0.982520	-0.362549	0.000049
C35	C	1.133936	0.097774	0.000059
C36	C	1.226229	0.099244	0.000058
C37	C	0.975576	0.241713	0.000049
C38	C	0.977049	0.325733	0.000048
N39	N	0.981914	0.103334	0.228227
N40	N	0.981935	0.103334	-0.228122
C41	C	1.038557	0.051883	0.453954
C42	C	1.038559	0.051882	0.546143
C43	C	0.925285	0.154787	0.546144
C44	C	0.925279	0.154784	0.453956
C45	C	0.981920	0.103333	0.407863
C46	C	0.981928	0.103334	0.592241
C47	C	0.981931	0.103333	0.692197
C48	C	0.981917	0.103334	0.307901
H49	H	0.385029	0.227175	0.000056
O50	O	0.977196	-0.673201	0.157415
C51	C	1.047576	-0.770968	0.250065
C52	C	1.048311	-0.727524	0.162248
H53	H	1.105057	-0.814909	0.253994
H54	H	1.048346	-0.729244	0.307169
H55	H	0.988739	-0.800950	0.254020
H56	H	1.107138	-0.697540	0.158208
H57	H	1.047497	-0.769284	0.105186
O58	O	0.416405	-0.034032	0.000087
C59	C	0.445502	-0.170669	0.000021
C60	C	0.482092	-0.094029	0.000008
H61	H	0.498593	-0.219196	-0.000061
H62	H	0.405433	-0.174825	0.061324
H63	H	0.405381	-0.174719	-0.061260
H64	H	0.522251	-0.089927	0.061248
H65	H	0.522114	-0.089906	-0.061336
O66	O	0.870342	0.204872	0.409219
C67	C	0.821326	0.336463	0.381040
C68	C	0.883601	0.279828	0.431743
H69	H	0.832013	0.397077	0.399246
H70	H	0.831048	0.327687	0.307223
H71	H	0.754767	0.326544	0.399162
H72	H	0.950185	0.289712	0.413695
H73	H	0.873806	0.288617	0.505548
H74	H	0.578823	-0.020510	0.000054
O75	O	0.986920	-0.120159	-0.157312
C76	C	1.060429	-0.039559	-0.249959
C77	C	1.059635	-0.082993	-0.162139
H78	H	1.119204	-0.009486	-0.253883
H79	H	1.059747	-0.081296	-0.307061
H80	H	1.002882	0.004305	-0.253923
H81	H	1.117171	-0.126857	-0.158090
H82	H	1.060274	-0.041210	-0.105080
O83	O	0.870239	0.204663	0.591020
C84	C	0.756645	0.220748	0.695076
C85	C	0.818949	0.164178	0.644327
H86	H	0.715149	0.188038	0.738173
H87	H	0.792423	0.258558	0.738288
H88	H	0.716198	0.257536	0.646282
H89	H	0.859411	0.127340	0.693058
H90	H	0.783120	0.126421	0.601102
O91	O	0.547443	0.240701	0.000087
C92	C	0.518342	0.377337	0.000042
C93	C	0.481754	0.300696	0.000014
H94	H	0.465250	0.425864	-0.000036
H95	H	0.558407	0.381483	0.061348
H96	H	0.558466	0.381399	-0.061236
H97	H	0.441592	0.296583	0.061250
H98	H	0.441736	0.296583	-0.061333
H99	H	0.984163	-0.269604	-0.144796
H100	H	0.979709	-0.523708	-0.144796
H101	H	1.084676	0.009988	0.416427
O102	O	0.977105	-0.673013	-0.157425
C103	C	0.977173	-0.664658	-0.315801
C104	C	0.977937	-0.621283	-0.227943
H105	H	0.977828	-0.622851	-0.372837
H106	H	1.034691	-0.708548	-0.319868
H107	H	0.918368	-0.694688	-0.319734
H108	H	1.036704	-0.591208	-0.223950
H109	H	0.920380	-0.577436	-0.223912
O110	O	0.979842	-0.517641	0.157522
C111	C	0.979685	-0.525989	0.315898
C112	C	0.978873	-0.569357	0.228039
H113	H	0.978883	-0.567780	0.372933
H114	H	1.038514	-0.496001	0.319937
H115	H	0.922193	-0.482063	0.319862
H116	H	1.036325	-0.613318	0.224016
H117	H	0.920006	-0.599292	0.224037
H118	H	0.984129	-0.269623	0.144892
H119	H	1.084677	0.009985	0.583668
H120	H	0.986632	-0.126396	0.144899
