data_functionalizedCrystal
_audit_creation_method	'MofGen! by Chris Wilmer'
_symmetry_space_group_name_H-M	'P1'
_symmetry_Int_Tables_number	1
_symmetry_cell_setting	triclinic
loop_
_symmetry_equiv_pos_as_xyz
  x,y,z
_cell_length_a	13.033291
_cell_length_b	13.032721
_cell_length_c	19.805399
_cell_angle_alpha	97.154168
_cell_angle_beta	82.794679
_cell_angle_gamma	105.184202
loop_
_atom_site_label
_atom_site_type_symbol
_atom_site_fract_x
_atom_site_fract_y
_atom_site_fract_z
Zn1	Zn	1.570148	-0.216844	-0.529919
Zn2	Zn	1.547478	-0.394484	-0.429475
Zn3	Zn	1.392526	-0.239412	-0.403966
Zn4	Zn	1.369927	-0.416950	-0.529842
O5	O	1.470020	-0.316922	-0.473300
O6	O	1.715782	-0.221561	-0.527303
O7	O	1.526893	-0.373956	-0.331376
O8	O	1.435034	-0.087776	-0.410031
O9	O	1.699126	-0.352072	-0.453507
O10	O	1.565532	-0.071195	-0.502568
O11	O	1.413051	-0.260026	-0.312634
O12	O	1.240888	-0.281810	-0.409956
O13	O	1.396517	-0.390363	-0.624567
O14	O	1.224284	-0.412246	-0.502436
O15	O	1.543619	-0.243346	-0.624625
O16	O	1.504979	-0.546107	-0.453432
O17	O	1.374534	-0.562613	-0.527171
C18	C	1.194045	-0.351916	-0.453420
C19	C	1.075978	-0.366912	-0.444932
C20	C	0.909545	-0.324612	-0.468965
C21	C	1.031573	-0.309115	-0.477737
C22	C	1.434873	-0.592898	-0.493078
C23	C	1.419934	-0.710949	-0.501568
C24	C	1.477873	-0.755371	-0.468904
C25	C	1.462434	-0.877383	-0.477678
C26	C	1.747072	-0.281793	-0.493259
C27	C	1.865136	-0.266823	-0.501765
C28	C	1.470076	-0.316843	-0.649841
C29	C	1.470100	-0.316809	-0.725073
C30	C	1.505333	-0.039866	-0.453463
C31	C	1.520381	0.078199	-0.445009
C32	C	1.410842	-0.257477	-0.750659
C33	C	1.410860	-0.257454	-0.821347
C34	C	1.470141	-0.316759	-0.866447
C35	C	1.529400	-0.376098	-0.840857
C36	C	1.529376	-0.376126	-0.770170
C37	C	1.529497	-0.375988	-1.125930
C38	C	1.529519	-0.375953	-1.196621
C39	C	1.410980	-0.257316	-1.177106
C40	C	1.410956	-0.257344	-1.106419
C41	C	1.470211	-0.316687	-1.080835
C42	C	1.470190	-0.316713	-1.004187
C43	C	1.470169	-0.316728	-0.943094
C44	C	1.470035	-0.316917	-0.297445
C45	C	1.470255	-0.316626	-0.222208
H46	H	0.917456	-0.205871	-0.536336
O47	O	1.353351	-0.199889	-0.706755
C48	C	1.366012	-0.212654	-0.638877
H49	H	1.443549	-0.237049	-0.637616
H50	H	1.368936	-0.134014	-0.605799
H51	H	1.295792	-0.277218	-0.618329
O52	O	1.013636	-0.439510	-0.403580
C53	C	1.043614	-0.412776	-0.336401
H54	H	1.084976	-0.324060	-0.329170
H55	H	0.969436	-0.431067	-0.298391
H56	H	1.100668	-0.461581	-0.327319
O57	O	0.847234	-0.397458	-0.427769
C58	C	0.860774	-0.499947	-0.451982
H59	H	0.941074	-0.492040	-0.483912
H60	H	0.858375	-0.547019	-0.406752
H61	H	0.793823	-0.543657	-0.484860
O62	O	1.550540	-0.692960	-0.427704
C63	C	1.498160	-0.636542	-0.375040
H64	H	1.410288	-0.680725	-0.367187
H65	H	1.536799	-0.630309	-0.325645
H66	H	1.505038	-0.552972	-0.389702
H67	H	1.401401	-0.929676	-0.512145
O68	O	1.587124	-0.433667	-1.240339
C69	C	1.639438	-0.486033	-1.202601
H70	H	1.595447	-0.495249	-1.149342
H71	H	1.640099	-0.568278	-1.229835
H72	H	1.725068	-0.436917	-1.198110
H73	H	1.581423	-0.869508	-0.410548
H74	H	1.083890	-0.248158	-0.512311
H75	H	1.358905	-0.763245	-0.536032
H76	H	1.362602	-0.209144	-0.842175
O77	O	1.353274	-0.199715	-1.062704
C78	C	1.300994	-0.147321	-1.100445
H79	H	1.291789	-0.191272	-1.153683
H80	H	1.218741	-0.146613	-1.073182
H81	H	1.350174	-0.061711	-1.104988
H82	H	1.362729	-0.208999	-1.197944
O83	O	1.586773	-0.433892	-0.745279
C84	C	1.517538	-0.510162	-0.704933
H85	H	1.433053	-0.527319	-0.720682
H86	H	1.545532	-0.587039	-0.712748
H87	H	1.518044	-0.477804	-0.648747
H88	H	1.577733	-0.424322	-1.105108
H89	H	1.577662	-0.424391	-0.877584
