data_functionalizedCrystal
_audit_creation_method	'MofGen! by Chris Wilmer'
_symmetry_space_group_name_H-M	'P1'
_symmetry_Int_Tables_number	1
_symmetry_cell_setting	triclinic
loop_
_symmetry_equiv_pos_as_xyz
  x,y,z
_cell_length_a	6.817900
_cell_length_b	9.109307
_cell_length_c	10.992743
_cell_angle_alpha	97.405495
_cell_angle_beta	108.770538
_cell_angle_gamma	111.764999
loop_
_atom_site_label
_atom_site_type_symbol
_atom_site_fract_x
_atom_site_fract_y
_atom_site_fract_z
V1	V	-4.146640	-0.225304	-0.425434
O2	O	-4.070860	0.010878	-0.391764
O3	O	-4.156016	-0.446790	-0.447118
O4	O	-4.123752	-0.221816	-0.599760
O5	O	-4.103347	-0.215653	-0.238065
V6	V	-4.619476	-0.197057	-0.400035
O7	O	-4.431342	-0.287268	-0.481147
O8	O	-4.784972	-0.135094	-0.344322
O9	O	-4.386894	0.024429	-0.378351
O10	O	-4.812653	-0.433240	-0.433705
O11	O	-4.780166	-0.206708	-0.587404
O12	O	-4.419158	-0.200545	-0.225709
C13	C	-4.014246	-0.500784	-0.446753
C14	C	-4.103369	-0.681852	-0.465644
C15	C	-3.973089	-0.213806	-0.641461
C16	C	-4.036041	-0.212419	-0.784135
C17	C	-4.349697	-0.220903	-0.996164
C18	C	-4.284030	-0.221720	-0.847621
C19	C	-3.862500	-0.050766	-0.797083
C20	C	-3.929348	-0.049270	-0.945561
C21	C	-4.096335	-0.360238	-1.018123
C22	C	-4.036189	-0.363916	-0.870315
C23	C	-4.192007	0.078414	-0.378714
C24	C	-4.082124	0.259480	-0.359832
C25	C	-4.233163	-0.208561	-0.184002
C26	C	-4.149447	-0.209939	-0.041326
H27	H	-4.416933	-0.337906	-0.840836
H28	H	-3.995794	-0.652223	-0.254761
H29	H	-4.189723	-0.770159	-0.570722
C30	C	-4.573129	-0.377017	-1.084480
H31	H	-4.546306	-0.436907	-1.149696
H32	H	-4.620130	-0.443921	-1.030185
H33	H	-4.690797	-0.346529	-1.128073
H34	H	-4.249779	-0.481454	-1.086080
C35	C	-4.210764	-0.525344	-0.863575
H36	H	-4.283260	-0.500537	-0.808468
H37	H	-4.324012	-0.588123	-0.951159
H38	H	-4.132696	-0.586951	-0.826903
H39	H	-4.392166	-0.112952	-1.010990
C40	C	-4.297867	-0.075803	-0.769044
H41	H	-4.343668	-0.015785	-0.827884
H42	H	-4.407485	-0.116070	-0.731195
H43	H	-4.150947	-0.005505	-0.699583
C44	C	-3.969776	0.104270	-0.959831
H45	H	-3.945282	0.165141	-0.875011
H46	H	-3.865427	0.171286	-0.992208
H47	H	-4.123599	0.071097	-1.021062
C48	C	-3.723685	-0.029650	-0.982982
H49	H	-3.599673	-0.022596	-0.907451
H50	H	-3.768631	-0.122163	-1.054307
H51	H	-3.675867	0.067892	-1.010262
H52	H	-3.679063	-0.038071	-0.753817
H53	H	-3.859214	0.061771	-0.735881
C54	C	-3.800385	-0.367458	-0.814333
H55	H	-3.698297	-0.276176	-0.737330
H56	H	-3.818966	-0.466934	-0.790593
H57	H	-3.738380	-0.361405	-0.880540
H58	H	-3.947135	-0.353505	-1.046561
