data_functionalizedCrystal
_audit_creation_method	'MofGen! by Chris Wilmer'
_symmetry_space_group_name_H-M	'P1'
_symmetry_Int_Tables_number	1
_symmetry_cell_setting	triclinic
loop_
_symmetry_equiv_pos_as_xyz
  x,y,z
_cell_length_a	6.817900
_cell_length_b	15.301048
_cell_length_c	10.943624
_cell_angle_alpha	93.528638
_cell_angle_beta	108.838799
_cell_angle_gamma	104.176180
loop_
_atom_site_label
_atom_site_type_symbol
_atom_site_fract_x
_atom_site_fract_y
_atom_site_fract_z
V1	V	-4.091707	-0.124736	-0.402949
O2	O	-4.074352	0.006018	-0.394869
O3	O	-4.046273	-0.247353	-0.400587
O4	O	-4.070038	-0.122806	-0.578509
O5	O	-4.050423	-0.119391	-0.215715
V6	V	-4.571487	-0.109097	-0.380506
O7	O	-4.361176	-0.159040	-0.452179
O8	O	-4.752215	-0.074793	-0.331277
O9	O	-4.393714	0.013520	-0.382868
O10	O	-4.706239	-0.239851	-0.388586
O11	O	-4.730168	-0.114442	-0.567740
O12	O	-4.369950	-0.111027	-0.204946
C13	C	-3.891131	-0.277245	-0.394332
C14	C	-3.935448	-0.377486	-0.393571
C15	C	-4.067649	-0.796388	-0.271974
C16	C	-4.026003	-0.702201	-0.272696
C17	C	-4.063845	-0.667981	-0.391336
C18	C	-4.143318	-0.727953	-0.509260
C19	C	-4.184948	-0.822137	-0.508536
C20	C	-4.056549	-0.531642	-0.510761
C21	C	-4.014920	-0.437451	-0.511486
C22	C	-3.897604	-0.411705	-0.274922
C23	C	-3.939234	-0.505890	-0.274198
C24	C	-4.018708	-0.565855	-0.392123
C25	C	-3.921443	-0.118372	-0.621288
C26	C	-3.985029	-0.117606	-0.764812
C27	C	-3.830843	-0.112447	-0.841943
C28	C	-4.005597	-0.189024	-0.948177
C29	C	-3.923599	-0.039671	-0.914314
C30	C	-4.158981	-0.194256	-0.869170
C31	C	-4.076915	-0.044835	-0.835283
C32	C	-4.251801	-0.121434	-0.941488
C33	C	-4.212198	0.043407	-0.389120
C34	C	-4.147120	0.143648	-0.389889
C35	C	-4.181885	-0.115464	-0.162161
C36	C	-4.097538	-0.116225	-0.018636
H37	H	-4.045779	-0.409593	-0.608094
O38	O	-3.966563	-0.269770	-1.013289
H39	H	-4.015980	-0.268806	-1.120174
H40	H	-3.961299	-0.653381	-0.176678
H41	H	-4.121249	-0.580464	-0.606788
H42	H	-4.257890	-0.259659	-0.848834
O43	O	-4.184378	-0.690984	-0.637181
H44	H	-4.031340	-0.645196	-0.638422
O45	O	-3.811864	-0.347036	-0.147725
H46	H	-3.789242	-0.275793	-0.168153
O47	O	-3.594403	-0.107539	-0.784366
H48	H	-3.548549	-0.107518	-0.677384
H49	H	-4.249653	-0.870960	-0.604555
O50	O	-4.488362	-0.126525	-0.998911
H51	H	-4.586083	-0.190725	-0.981270
H52	H	-3.824706	0.025644	-0.934868
O53	O	-4.115894	0.035902	-0.770128
H54	H	-3.961327	0.078506	-0.696851
O55	O	-4.026819	-0.833296	-0.144012
H56	H	-3.964535	-0.775771	-0.062140
H57	H	-3.908432	-0.533749	-0.177592
