data_functionalizedCrystal
_audit_creation_method	'MofGen! by Chris Wilmer'
_symmetry_space_group_name_H-M	'P1'
_symmetry_Int_Tables_number	1
_symmetry_cell_setting	triclinic
loop_
_symmetry_equiv_pos_as_xyz
  x,y,z
_cell_length_a	15.944493
_cell_length_b	11.792254
_cell_length_c	10.868271
_cell_angle_alpha	89.999303
_cell_angle_beta	89.996248
_cell_angle_gamma	83.836821
loop_
_atom_site_label
_atom_site_type_symbol
_atom_site_fract_x
_atom_site_fract_y
_atom_site_fract_z
O1	O	1.115218	0.146066	-0.102294
O2	O	0.870744	0.164182	-0.102298
O3	O	0.998908	-0.010096	-0.102302
O4	O	0.987054	0.320344	-0.102290
O5	O	0.998898	-0.010103	0.102343
O6	O	0.870734	0.164175	0.102346
O7	O	1.115208	0.146059	0.102351
Zn8	Zn	0.992969	0.155116	0.134840
Zn9	Zn	0.992983	0.155125	-0.134788
O10	O	0.987044	0.320337	0.102354
C11	C	0.839441	0.163438	0.000023
C12	C	0.746182	0.161218	0.000021
C13	C	0.510889	0.263802	0.000024
C14	C	0.460074	0.208479	0.100928
C15	C	0.575442	0.157105	0.000023
C16	C	0.460088	0.208461	-0.100836
C17	C	0.410515	0.153140	0.000020
C18	C	0.525856	0.101811	0.101010
C19	C	0.525874	0.101808	-0.100844
C20	C	0.475091	0.046407	0.000085
C21	C	0.670453	0.159392	0.000026
C22	C	0.315507	0.150844	0.000026
C23	C	0.998156	-0.052384	0.000017
C24	C	0.995921	-0.178378	0.000004
C25	C	1.146511	0.146803	0.000027
C26	C	1.239770	0.149023	0.000021
N27	N	0.992966	0.155109	0.318855
C28	C	0.987796	0.362625	0.000033
C29	C	0.990031	0.488619	0.000037
C30	C	0.991847	0.590940	0.000031
C31	C	0.994118	0.719307	0.000016
N32	N	0.992993	0.155123	-0.318802
C33	C	0.992979	0.155123	0.569861
C34	C	0.992969	0.155118	0.430183
H35	H	0.431336	0.253536	0.186236
H36	H	0.431359	0.253545	-0.186130
H37	H	0.526930	0.355710	0.000121
H38	H	0.554474	0.056775	0.186402
H39	H	0.459208	-0.045571	0.000140
Cl40	Cl	0.570271	0.032308	-0.232561
