data_functionalizedCrystal
_audit_creation_method	'MofGen! by Chris Wilmer'
_symmetry_space_group_name_H-M	'P1'
_symmetry_Int_Tables_number	1
_symmetry_cell_setting	triclinic
loop_
_symmetry_equiv_pos_as_xyz
  x,y,z
_cell_length_a	19.188930
_cell_length_b	12.837942
_cell_length_c	11.295501
_cell_angle_alpha	85.830212
_cell_angle_beta	85.374918
_cell_angle_gamma	88.986860
loop_
_atom_site_label
_atom_site_type_symbol
_atom_site_fract_x
_atom_site_fract_y
_atom_site_fract_z
O1	O	-0.939645	-0.135610	0.099413
O2	O	-0.737525	-0.153022	0.099332
O3	O	-0.834103	0.006567	0.099364
O4	O	-0.843067	-0.295199	0.099382
O5	O	-0.824876	0.018987	-0.098691
O6	O	-0.728298	-0.140602	-0.098723
O7	O	-0.930419	-0.123191	-0.098642
Cu8	Cu	-0.828516	-0.130762	-0.116766
Cu9	Cu	-0.839427	-0.145450	0.117457
O10	O	-0.833841	-0.282779	-0.098673
C11	C	-0.706861	-0.146247	0.000294
C12	C	-0.629239	-0.144552	0.000263
C13	C	-0.826462	0.051384	0.000336
C14	C	-0.817431	0.166420	0.000334
C15	C	-0.961082	-0.129965	0.000399
C16	C	-1.038705	-0.131661	0.000438
C17	C	-0.590739	-0.238196	0.000287
C18	C	-0.517807	-0.236606	0.000300
C19	C	-0.483379	-0.141369	0.000313
C20	C	-0.521887	-0.047712	0.000282
C21	C	-0.594818	-0.049304	0.000257
N22	N	-0.373547	-0.072800	0.067763
N23	N	-0.304267	-0.071295	0.067789
C24	C	-0.263644	-0.136567	0.000385
N25	N	-0.294919	-0.203418	-0.067031
N26	N	-0.364206	-0.204927	-0.067052
C27	C	-0.404298	-0.139632	0.000339
C28	C	-0.146062	-0.228494	0.000422
C29	C	-0.073128	-0.226900	0.000428
C30	C	-0.077210	-0.038003	0.000421
C31	C	-0.150142	-0.039599	0.000403
C32	C	-0.184564	-0.134848	0.000410
C33	C	-0.841482	-0.327596	0.000358
C34	C	-0.850513	-0.442633	0.000367
N35	N	-0.820847	-0.120431	-0.281506
C36	C	-0.926001	0.407866	0.000402
C37	C	-0.917519	0.515954	0.000401
C38	C	-0.791985	0.490684	0.000338
C39	C	-0.800467	0.382597	0.000340
C40	C	-0.867477	0.341192	0.000370
C41	C	-0.875959	0.233103	0.000363
C42	C	-0.750425	0.207835	0.000309
C43	C	-0.741943	0.315922	0.000307
C44	C	-0.902306	-0.230192	-0.530758
C45	C	-0.896515	-0.222377	-0.655425
C46	C	-0.803478	-0.096978	-0.655507
C47	C	-0.809269	-0.104794	-0.530841
C48	C	-0.858683	-0.171405	-0.468471
C49	C	-0.864471	-0.179226	-0.343802
C50	C	-0.771437	-0.053822	-0.343887
C51	C	-0.765646	-0.046006	-0.468553
N52	N	-0.847102	-0.155773	0.282197
H53	H	-0.618761	-0.315755	0.000294
H54	H	-0.041782	-0.303159	0.000441
C55	C	-0.944495	-0.287049	-0.723937
H56	H	-0.974749	-0.327843	-0.668933
H57	H	-0.971535	-0.241418	-0.772553
H58	H	-0.916800	-0.331805	-0.772581
H59	H	-0.965176	0.570237	0.000431
H60	H	-0.626164	0.026955	0.000238
H61	H	-0.930521	0.199394	0.000383
C62	C	-0.686047	0.134490	0.000283
H63	H	-0.700694	0.064186	0.000296
H64	H	-0.655649	0.151348	-0.068793
H65	H	-0.662087	0.142678	0.069348
C66	C	-0.668238	0.361474	0.000266
H67	H	-0.671567	0.435397	0.000262
H68	H	-0.647049	0.334233	0.069314
H69	H	-0.640628	0.342906	-0.068827
C70	C	-0.475445	-0.339616	0.000332
H71	H	-0.427081	-0.325024	0.000340
H72	H	-0.489794	-0.383010	0.069399
H73	H	-0.483321	-0.374356	-0.068742
C74	C	-0.718282	0.536242	0.000306
H75	H	-0.721616	0.610165	0.000304
H76	H	-0.697095	0.509002	0.069356
H77	H	-0.690668	0.517680	-0.068785
H78	H	-0.725416	0.008229	-0.519352
C79	C	-0.039348	0.066757	0.000442
H80	H	0.009600	0.054294	0.000469
H81	H	-0.048904	0.109639	-0.068626
H82	H	-0.055375	0.100962	0.069515
C83	C	-0.183928	-0.333260	0.000417
H84	H	-0.150550	-0.388804	0.000416
H85	H	-0.215526	-0.342139	0.069476
H86	H	-0.209060	-0.333474	-0.068665
C87	C	-0.918829	-0.252485	-0.275196
H88	H	-0.943984	-0.286367	-0.330152
H89	H	-0.895664	-0.303338	-0.226577
H90	H	-0.950386	-0.212934	-0.226549
C91	C	-0.956659	-0.303456	-0.462148
H92	H	-0.981813	-0.337346	-0.517100
H93	H	-0.933489	-0.354303	-0.413527
H94	H	-0.988219	-0.263908	-0.413501
C95	C	-0.192495	0.063410	0.000395
H96	H	-0.161548	0.120359	0.000414
H97	H	-0.217797	0.071049	-0.068678
H98	H	-0.224263	0.062379	0.069463
C99	C	-0.749130	-0.023711	-0.724128
H100	H	-0.751930	-0.027482	-0.807295
H101	H	-0.758328	0.045962	-0.703694
H102	H	-0.703597	-0.044430	-0.703742
H103	H	-0.493852	0.029831	0.000308
C104	C	-0.723428	0.010808	-0.275369
H105	H	-0.733947	-0.003393	-0.192189
H106	H	-0.676010	-0.007375	-0.295862
H107	H	-0.730711	0.083058	-0.295772
H108	H	-0.980563	0.374155	0.000415
