data_functionalizedCrystal
_audit_creation_method	'MofGen! by Chris Wilmer'
_symmetry_space_group_name_H-M	'P1'
_symmetry_Int_Tables_number	1
_symmetry_cell_setting	triclinic
loop_
_symmetry_equiv_pos_as_xyz
  x,y,z
_cell_length_a	17.077404
_cell_length_b	13.897447
_cell_length_c	17.077396
_cell_angle_alpha	89.976703
_cell_angle_beta	90.019501
_cell_angle_gamma	89.978579
loop_
_atom_site_label
_atom_site_type_symbol
_atom_site_fract_x
_atom_site_fract_y
_atom_site_fract_z
Zn1	Zn	1.200064	0.384009	0.443871
Zn2	Zn	1.700064	0.884009	0.943871
Zn3	Zn	1.199975	0.545322	0.312617
Zn4	Zn	1.699975	1.045322	0.812617
Zn5	Zn	1.068796	0.384043	0.312619
Zn6	Zn	1.568796	0.884043	0.812619
Zn7	Zn	1.068768	0.545264	0.443840
Zn8	Zn	1.568768	1.045264	0.943840
O9	O	1.134400	0.464660	0.378237
O10	O	1.634400	0.964660	0.878237
O11	O	1.309899	0.405417	0.426472
O12	O	1.809899	0.905417	0.926472
O13	O	1.182548	0.523966	0.202770
O14	O	1.682548	1.023966	0.702770
O15	O	1.086258	0.249057	0.330043
O16	O	1.586258	0.749057	0.830043
O17	O	1.309834	0.523933	0.330040
O18	O	1.809834	1.023933	0.830040
O19	O	1.182700	0.249032	0.426474
O20	O	1.682700	0.749032	0.926474
O21	O	1.086171	0.405475	0.202772
O22	O	1.586171	0.905475	0.702772
O23	O	0.958945	0.405420	0.330014
O24	O	1.458945	0.905420	0.830014
O25	O	1.086210	0.523835	0.553691
O26	O	1.586210	1.023835	1.053691
O27	O	0.958924	0.523868	0.426422
O28	O	1.458924	1.023868	0.926422
O29	O	1.182673	0.405362	0.553714
O30	O	1.682673	0.905362	1.053714
O31	O	1.182521	0.680296	0.330010
O32	O	1.682521	1.180296	0.830010
O33	O	1.086123	0.680254	0.426420
O34	O	1.586123	1.180254	0.926420
C35	C	0.930453	0.464642	0.378215
C36	C	1.430453	0.964642	0.878215
C37	C	0.843203	0.464658	0.378224
C38	C	1.343203	0.964658	0.878224
C39	C	0.802222	0.526427	0.428344
C40	C	1.302222	1.026427	0.928344
C41	C	0.720242	0.526429	0.428356
C42	C	1.220242	1.026429	0.928356
C43	C	0.679243	0.464666	0.378245
C44	C	1.179243	0.964666	0.878245
C45	C	0.720230	0.402890	0.328124
C46	C	1.220230	0.902890	0.828124
C47	C	0.802208	0.402884	0.328116
C48	C	1.302208	0.902884	0.828116
C49	C	0.549359	0.402909	0.328143
C50	C	1.049359	0.902909	0.828143
C51	C	0.467375	0.402916	0.328149
C52	C	0.967375	0.902916	0.828149
C53	C	0.467393	0.526454	0.428383
C54	C	0.967393	1.026454	0.928383
C55	C	0.549372	0.526448	0.428375
C56	C	1.049372	1.026448	0.928375
C57	C	0.590352	0.464673	0.378252
C58	C	1.090352	0.964673	0.878252
C59	C	1.134331	0.715274	0.378229
C60	C	1.634331	1.215274	0.878229
C61	C	1.134373	0.822488	0.378251
C62	C	1.634373	1.322488	0.878251
C63	C	1.134409	0.909558	0.378273
C64	C	1.634409	1.409558	0.878273
C65	C	1.134461	1.018790	0.378297
C66	C	1.634461	1.518790	0.878297
C67	C	1.339145	0.464678	0.378259
C68	C	1.839145	0.964678	0.878259
C69	C	1.426394	0.464686	0.378268
C70	C	1.926394	0.964686	0.878268
C71	C	1.134448	0.464588	0.582981
C72	C	1.634448	0.964588	1.082981
C73	C	1.134468	0.464558	0.670231
C74	C	1.634468	0.964558	1.170231
C75	C	1.134486	1.213067	0.378272
C76	C	1.634486	1.713067	0.878272
C77	C	1.134507	1.105853	0.378313
C78	C	1.634507	1.605853	0.878313
C79	C	1.134398	0.464661	0.174289
C80	C	1.634398	0.964661	0.674289
C81	C	1.134530	0.464419	0.087040
C82	C	1.634530	0.964419	0.587040
C83	C	1.184698	0.402864	0.711234
C84	C	1.684698	0.902864	1.211234
C85	C	1.184708	0.402832	0.793215
C86	C	1.684708	0.902832	1.293215
C87	C	1.134490	0.464500	0.834191
C88	C	1.634490	0.964500	1.334191
C89	C	1.084255	0.526197	0.793182
C90	C	1.584255	1.026197	1.293182
C91	C	1.084242	0.526223	0.711203
C92	C	1.584242	1.026223	1.211203
C93	C	1.084287	0.526139	0.964052
C94	C	1.584287	1.026139	1.464052
C95	C	1.084300	0.526114	1.046036
C96	C	1.584300	1.026114	1.546036
C97	C	1.184752	0.402747	1.046064
C98	C	1.684752	0.902747	1.546064
C99	C	1.184739	0.402774	0.964085
C100	C	1.684739	0.902774	1.464085
C101	C	1.134505	0.464472	0.923082
C102	C	1.634505	0.964472	1.423082
H103	H	0.582751	0.576746	0.469176
H104	H	1.082751	1.076746	0.969176
C105	C	1.239965	0.334973	0.838315
C106	C	1.739965	0.834973	1.338315
H107	H	1.269877	0.298259	0.802170
H108	H	1.769877	0.798259	1.302170
H109	H	1.209962	0.292927	0.870294
H110	H	1.709962	0.792927	1.370294
H111	H	1.274159	0.371873	0.870296
H112	H	1.774159	0.871873	1.370296
H113	H	0.434023	0.576751	0.469197
H114	H	0.934023	1.076751	0.969197
H115	H	0.835574	0.352580	0.287308
H116	H	1.335574	0.852580	0.787308
H117	H	1.043364	0.576404	0.826551
H118	H	1.543364	1.076404	1.326551
H119	H	0.835598	0.576725	0.469147
H120	H	1.335598	1.076725	0.969147
C121	C	1.240018	0.334891	1.091164
C122	C	1.740018	0.834891	1.591164
H123	H	1.232833	0.343702	1.145856
H124	H	1.732833	0.843702	1.645856
H125	H	1.292748	0.349034	1.077732
H126	H	1.792748	0.849034	1.577732
H127	H	1.228561	0.270076	1.077737
H128	H	1.728561	0.770076	1.577737
H129	H	1.225635	0.352564	0.930724
H130	H	1.725635	0.852564	1.430724
H131	H	1.043407	0.576327	1.079397
H132	H	1.543407	1.076327	1.579397
H133	H	1.043332	0.576451	0.677819
H134	H	1.543332	1.076451	1.177819
H135	H	0.686879	0.576729	0.469167
H136	H	1.186879	1.076729	0.969167
C137	C	1.029055	0.594037	0.918950
C138	C	1.529055	1.094037	1.418950
H139	H	0.999162	0.630778	0.955093
H140	H	1.499162	1.130778	1.455093
H141	H	0.994853	0.557178	0.886953
H142	H	1.494853	1.057178	1.386953
H143	H	1.059093	0.636071	0.886986
H144	H	1.559093	1.136071	1.386986
H145	H	0.582723	0.352597	0.287335
H146	H	1.082723	0.852597	0.787335
C147	C	0.422277	0.334969	0.273037
C148	C	0.922277	0.834969	0.773037
H149	H	0.458424	0.298166	0.243193
H150	H	0.958424	0.798166	0.743193
H151	H	0.390272	0.371810	0.238784
H152	H	0.890272	0.871810	0.738784
H153	H	0.390323	0.292995	0.303138
H154	H	0.890323	0.792995	0.803138
C155	C	0.675137	0.334948	0.273003
C156	C	1.175137	0.834948	0.773003
H157	H	0.711287	0.298153	0.243158
H158	H	1.211287	0.798153	0.743158
H159	H	0.643132	0.371793	0.238753
H160	H	1.143132	0.871793	0.738753
H161	H	0.643182	0.292967	0.303097
H162	H	1.143182	0.792967	0.803097
H163	H	1.225593	0.352650	0.677877
H164	H	1.725593	0.852650	1.177877
