data_functionalizedCrystal
_audit_creation_method	'MofGen! by Chris Wilmer'
_symmetry_space_group_name_H-M	'P1'
_symmetry_Int_Tables_number	1
_symmetry_cell_setting	triclinic
loop_
_symmetry_equiv_pos_as_xyz
  x,y,z
_cell_length_a	13.339070
_cell_length_b	10.489741
_cell_length_c	12.376457
_cell_angle_alpha	101.393369
_cell_angle_beta	75.589755
_cell_angle_gamma	100.084234
loop_
_atom_site_label
_atom_site_type_symbol
_atom_site_fract_x
_atom_site_fract_y
_atom_site_fract_z
O1	O	1.366233	0.623457	-0.094044
O2	O	1.071092	0.539311	-0.094038
O3	O	1.225377	0.398086	-0.094035
O4	O	1.211948	0.764681	-0.094048
O5	O	1.186819	0.433330	0.093977
O6	O	1.032534	0.574555	0.093973
O7	O	1.327675	0.658701	0.093967
Zn8	Zn	1.173983	0.622224	0.123821
Zn9	Zn	1.224784	0.575788	-0.123892
O10	O	1.173390	0.799925	0.093964
C11	C	1.014020	0.542719	-0.000031
C12	C	0.901409	0.500351	-0.000029
C13	C	0.539022	0.829783	-0.000059
C14	C	0.644826	0.869593	-0.000065
C15	C	0.708977	0.777286	-0.000055
C16	C	0.667313	0.645161	-0.000041
C17	C	0.561501	0.605345	-0.000044
C18	C	0.731456	0.552849	-0.000040
C19	C	0.689792	0.420724	-0.000026
C20	C	0.583990	0.380915	-0.000028
C21	C	0.519839	0.473222	-0.000037
C22	C	0.837268	0.592665	-0.000037
C23	C	0.859747	0.368227	-0.000022
C24	C	0.753943	0.328417	-0.000016
C25	C	1.205084	0.367829	-0.000030
C26	C	1.202049	0.225160	-0.000032
C27	C	1.103883	0.123412	-0.000038
C28	C	1.131245	0.064542	0.092661
C29	C	1.169284	0.029828	-0.092704
C30	C	1.229436	0.168184	0.092743
C31	C	1.267478	0.133459	-0.092704
C32	C	1.294907	0.074645	0.000017
C33	C	1.384748	0.655292	-0.000042
C34	C	1.497360	0.697659	-0.000052
C35	C	1.193684	0.830182	-0.000044
C36	C	1.196720	0.972849	-0.000049
N37	N	1.139319	0.653917	0.292879
N38	N	1.259456	0.544088	-0.292950
C39	C	1.339921	0.470493	0.647868
C40	C	1.364176	0.448309	0.529529
C41	C	1.307963	0.499709	0.470360
C42	C	1.227492	0.573297	0.529543
C43	C	1.203240	0.595492	0.647894
C44	C	1.171283	0.624708	0.470386
C45	C	1.090812	0.698296	0.529569
C46	C	1.066563	0.720486	0.647908
C47	C	1.122775	0.669087	0.707076
C48	C	1.195535	0.602512	0.352035
C49	C	1.058855	0.727511	0.352061
C50	C	1.034599	0.749696	0.470400
H51	H	0.871179	0.700242	-0.000045
H52	H	0.486784	0.904923	-0.000076
H53	H	0.678742	0.977167	-0.000085
C54	C	0.992288	0.641174	0.876623
C55	C	1.096115	0.693466	0.837162
H56	H	0.975835	0.656216	0.956933
H57	H	0.947305	0.682333	0.849870
H58	H	0.983315	0.549503	0.849843
H59	H	1.105086	0.785140	0.863936
H60	H	1.141111	0.652311	0.863927
H61	H	1.325053	0.164019	-0.171080
C62	C	0.848298	0.956508	-0.000056
C63	C	0.825276	0.821046	-0.000048
H64	H	0.920097	0.983526	-0.000041
H65	H	0.833668	0.976639	-0.065624
H66	H	0.806750	1.001226	0.065504
H67	H	0.866818	0.776326	-0.065613
H68	H	0.839916	0.800902	0.065526
H69	H	1.143808	-0.030053	-0.171080
H70	H	0.433684	0.440814	-0.000032
C71	C	0.852090	0.769347	0.506892
C72	C	0.946148	0.830584	0.535466
H73	H	0.797485	0.819281	0.547068
H74	H	0.858488	0.763505	0.427955
H75	H	0.836503	0.683732	0.526293
H76	H	0.961739	0.916197	0.516057
H77	H	0.939751	0.836442	0.614420
C78	C	1.192794	0.213324	0.295564
C79	C	1.263738	0.248825	0.198663
H80	H	1.213973	0.263105	0.360952
H81	H	1.125201	0.230238	0.295296
H82	H	1.191109	0.122553	0.296167
H83	H	1.265417	0.339594	0.198056
H84	H	1.331349	0.231921	0.198931
C85	C	1.435166	0.116290	0.097220
C86	C	1.403945	0.045253	0.000081
H87	H	1.502477	0.098134	0.097265
H88	H	1.437553	0.207455	0.097836
H89	H	1.386648	0.091438	0.162440
H90	H	1.452459	0.070112	-0.065139
H91	H	1.401566	-0.045932	-0.000545
C92	C	0.786783	0.110562	0.000000
C93	C	0.708142	0.183185	-0.000009
H94	H	0.758503	0.020905	0.000011
H95	H	0.841029	0.118462	-0.065559
H96	H	0.814137	0.143056	0.065569
H97	H	0.680793	0.150697	-0.065582
H98	H	0.653877	0.175277	0.065557
C99	C	1.031917	0.329600	-0.000002
C100	C	0.930251	0.266751	-0.000009
H101	H	1.075444	0.266957	0.000010
H102	H	1.058080	0.369932	-0.065563
H103	H	1.031175	0.394521	0.065565
H104	H	0.930992	0.201837	-0.065580
H105	H	0.904082	0.226398	0.065559
H106	H	0.550074	0.273328	-0.000029
C107	C	1.333382	0.329239	0.780974
C108	C	1.401698	0.414001	0.712911
H109	H	1.371527	0.294357	0.821125
H110	H	1.282000	0.376253	0.833143
H111	H	1.300302	0.259610	0.734807
H112	H	1.434772	0.483636	0.759079
H113	H	1.453099	0.366986	0.660736
H114	H	1.261055	0.542597	0.303859
C115	C	0.953483	0.047202	0.198294
C116	C	1.053479	0.023302	0.198457
H117	H	0.905472	0.021737	0.263603
H118	H	0.954387	0.138039	0.198712
H119	H	0.932770	-0.001980	0.132462
H120	H	1.074196	0.072492	0.264285
H121	H	1.052578	-0.067550	0.198049
H122	H	1.327716	0.481643	0.374003
H123	H	1.001046	0.780419	0.696095
C124	C	1.496833	0.326980	0.541399
C125	C	1.452619	0.367416	0.464479
H126	H	1.551431	0.277029	0.501237
H127	H	1.524241	0.401800	0.587543
H128	H	1.444811	0.274666	0.587573
H129	H	1.504639	0.419737	0.418311
H130	H	1.425212	0.292583	0.418315
C131	C	1.008363	0.920938	0.315624
C132	C	0.997059	0.784019	0.287036
H133	H	0.970222	0.955821	0.275470
H134	H	0.982403	0.944678	0.394565
H135	H	1.080132	0.955172	0.296207
H136	H	0.925290	0.749784	0.306461
H137	H	1.023014	0.760268	0.208077
H138	H	1.023150	0.145449	0.000058
