data_functionalizedCrystal
_audit_creation_method	'MofGen! by Chris Wilmer'
_symmetry_space_group_name_H-M	'P1'
_symmetry_Int_Tables_number	1
_symmetry_cell_setting	triclinic
loop_
_symmetry_equiv_pos_as_xyz
  x,y,z
_cell_length_a	12.759400
_cell_length_b	17.639504
_cell_length_c	12.759393
_cell_angle_alpha	101.242674
_cell_angle_beta	89.969553
_cell_angle_gamma	78.803292
loop_
_atom_site_label
_atom_site_type_symbol
_atom_site_fract_x
_atom_site_fract_y
_atom_site_fract_z
Zn1	Zn	-0.093968	-1.208560	-0.919391
Zn2	Zn	-0.269707	-1.208484	-0.743694
Zn3	Zn	-0.129488	-1.076365	-0.708137
Zn4	Zn	-0.305073	-1.076360	-0.883761
O5	O	-0.199559	-1.142442	-0.813746
O6	O	-0.087614	-1.319169	-0.925876
O7	O	-0.251172	-1.190929	-0.591948
O8	O	0.022254	-1.093935	-0.736191
O9	O	-0.216729	-1.319114	-0.796792
O10	O	0.048350	-1.191058	-0.891398
O11	O	-0.148153	-1.093861	-0.565825
O12	O	-0.182446	-0.965745	-0.701642
O13	O	-0.277004	-1.093926	-1.035517
O14	O	-0.311447	-0.965741	-0.830672
O15	O	-0.121907	-1.191053	-1.061694
O16	O	-0.421429	-1.190924	-0.762244
O17	O	-0.447411	-1.093852	-0.865151
C18	C	-0.254639	-0.937061	-0.758433
C19	C	-0.278228	-0.849198	-0.734795
C20	C	-0.020258	-0.560343	-0.993563
C21	C	-0.042450	-0.477783	-0.971330
C22	C	-0.176674	-0.477746	-0.836722
C23	C	-0.154497	-0.560309	-0.858947
C24	C	-0.076287	-0.601601	-0.937368
C25	C	-0.210527	-0.601566	-0.802752
C26	C	-0.188347	-0.684122	-0.824971
C27	C	-0.110139	-0.725419	-0.903387
C28	C	-0.054108	-0.684156	-0.959588
C29	C	-0.288731	-0.560273	-0.724326
C30	C	-0.344760	-0.601530	-0.668131
C31	C	-0.322587	-0.684087	-0.690355
C32	C	-0.244378	-0.725385	-0.768770
C33	C	-0.378617	-0.725350	-0.634154
C34	C	-0.356438	-0.807906	-0.656374
C35	C	-0.222199	-0.807940	-0.790990
C36	C	-0.472538	-1.142401	-0.813718
C37	C	-0.589299	-1.142455	-0.813761
C38	C	-0.630500	-1.193002	-0.894625
C39	C	-0.740214	-1.193039	-0.894661
C40	C	-0.767518	-1.091980	-0.732957
C41	C	-0.657807	-1.091940	-0.732927
C42	C	-0.561993	-1.243518	-0.975459
C43	C	-0.603192	-1.294070	-1.056330
C44	C	-0.712906	-1.294107	-1.056365
C45	C	-0.781421	-1.243592	-0.975530
C46	C	0.074491	-1.142505	-0.813802
C47	C	0.191275	-1.142532	-0.813827
C48	C	-0.199438	-1.142498	-1.087794
C49	C	-0.199387	-1.142521	-1.204577
C50	C	-0.144249	-0.348626	-0.869271
C51	C	-0.120640	-0.436489	-0.892923
C52	C	-0.118619	-1.193102	-1.273073
C53	C	-0.118576	-1.193121	-1.382802
C54	C	-0.280078	-1.091975	-1.355529
C55	C	-0.280116	-1.091953	-1.245801
C56	C	-0.037890	-1.243670	-1.231849
C57	C	0.042884	-1.294256	-1.300346
C58	C	0.042927	-1.294275	-1.410076
C59	C	-0.037804	-1.243708	-1.451307
C60	C	-0.199591	-1.142433	-0.540776
C61	C	-0.199306	-1.142562	-0.424034
H62	H	0.043425	-0.593966	-1.057425
H63	H	0.108702	-1.335459	-1.465842
H64	H	-0.746449	-1.335262	-1.122220
F65	F	-0.840439	-1.038223	-0.646933
H66	H	-0.158516	-0.841562	-0.854852
F67	F	-0.086526	-0.813283	-0.927028
F68	F	0.029124	-0.728107	-1.043061
F69	F	-0.037744	-1.243721	-1.568090
F70	F	-0.898164	-1.243726	-0.975474
H71	H	0.003188	-0.444194	-1.017092
F72	F	-0.037932	-1.243657	-1.115068
H73	H	0.108617	-1.335421	-1.266766
H74	H	-0.442288	-0.691718	-0.570297
F75	F	-0.365993	-1.038164	-1.399416
F76	F	-0.613955	-1.038144	-0.646859
F77	F	-0.312329	-0.472409	-0.700673
F78	F	-0.259905	-0.433792	-0.753260
F79	F	-0.427991	-0.557576	-0.584669
F80	F	-0.366077	-1.038118	-1.172899
H81	H	-0.472656	-1.243496	-0.975437
F82	F	-0.416078	-0.851817	-0.596573
H83	H	-0.547403	-1.335193	-1.122148
