data_functionalizedCrystal
_audit_creation_method	'MofGen! by Chris Wilmer'
_symmetry_space_group_name_H-M	'P1'
_symmetry_Int_Tables_number	1
_symmetry_cell_setting	triclinic
loop_
_symmetry_equiv_pos_as_xyz
  x,y,z
_cell_length_a	12.811438
_cell_length_b	10.868271
_cell_length_c	12.837942
_cell_angle_alpha	89.995518
_cell_angle_beta	89.411773
_cell_angle_gamma	84.572942
loop_
_atom_site_label
_atom_site_type_symbol
_atom_site_fract_x
_atom_site_fract_y
_atom_site_fract_z
O1	O	1.406615	-0.259270	0.139690
O2	O	1.102554	-0.225346	0.154878
O3	O	1.247842	-0.241548	-0.003648
O4	O	1.261327	-0.243068	0.298216
O5	O	1.247855	-0.036905	-0.003654
O6	O	1.102566	-0.020702	0.154872
O7	O	1.406628	-0.054627	0.139684
Zn8	Zn	1.254599	-0.005173	0.147277
Zn9	Zn	1.254582	-0.274799	0.147285
O10	O	1.261339	-0.038424	0.298210
C11	C	1.063371	-0.118652	0.154023
C12	C	0.946600	-0.105623	0.151474
C13	C	0.782023	0.024284	0.147878
C14	C	0.891740	0.012048	0.150274
C15	C	0.891735	-0.211066	0.150282
C16	C	0.782018	-0.198830	0.147886
C17	C	0.727166	-0.081152	0.146683
C18	C	0.617447	-0.068917	0.144280
C19	C	0.617443	-0.292030	0.144295
C20	C	0.727160	-0.304266	0.146691
N21	N	1.254571	-0.458812	0.147283
C22	C	1.254578	-0.570151	0.147283
C23	C	1.254597	-0.709830	0.147279
C24	C	1.445810	-0.161323	0.140538
C25	C	1.562582	-0.174360	0.143087
C26	C	1.243293	-0.138719	-0.042291
C27	C	1.229707	-0.137205	-0.157427
N28	N	1.254618	0.178839	0.147270
C29	C	1.393035	-0.155453	-0.397680
C30	C	1.380275	-0.154032	-0.505861
C31	C	1.191427	-0.132949	-0.481972
C32	C	1.204188	-0.134371	-0.373791
C33	C	1.304995	-0.145621	-0.331650
C34	C	1.317754	-0.147034	-0.223467
C35	C	1.128908	-0.125960	-0.199579
C36	C	1.116147	-0.124539	-0.307760
C37	C	1.265888	-0.141256	0.336853
C38	C	1.279474	-0.142778	0.451989
H39	H	0.572788	0.026903	0.143307
H40	H	1.034073	-0.115383	-0.342087
H41	H	1.057219	-0.117945	-0.145804
H42	H	0.771836	-0.400077	0.147674
H43	H	0.572767	-0.377883	0.143325
N44	N	0.725986	0.144482	0.146664
N45	N	0.662393	0.176466	0.218342
H46	H	0.622817	0.261358	0.217486
H47	H	0.936401	0.097905	0.151251
H48	H	1.109355	-0.123802	-0.516303
N49	N	0.947789	-0.331253	0.151556
N50	N	1.045749	-0.342154	0.153724
H51	H	1.085340	-0.427037	0.154635
N52	N	1.420713	-0.158515	-0.180398
N53	N	1.448911	-0.075399	-0.122705
H54	H	1.521628	-0.083509	-0.092288
N55	N	1.496008	-0.166921	-0.354644
N56	N	1.574609	-0.175682	-0.413613
H57	H	1.647336	-0.183777	-0.383221
N58	N	1.470218	-0.164058	-0.573295
N59	N	1.534873	-0.085011	-0.569211
H60	H	1.598400	-0.092092	-0.616836
