data_functionalizedCrystal
_audit_creation_method	'MofGen! by Chris Wilmer'
_symmetry_space_group_name_H-M	'P1'
_symmetry_Int_Tables_number	1
_symmetry_cell_setting	triclinic
loop_
_symmetry_equiv_pos_as_xyz
  x,y,z
_cell_length_a	14.044220
_cell_length_b	11.026623
_cell_length_c	10.065875
_cell_angle_alpha	100.697799
_cell_angle_beta	99.592716
_cell_angle_gamma	79.112210
loop_
_atom_site_label
_atom_site_type_symbol
_atom_site_fract_x
_atom_site_fract_y
_atom_site_fract_z
O1	O	0.393292	-1.670494	-0.113518
O2	O	0.347242	-1.312203	-0.113517
O3	O	0.231366	-1.485969	-0.113504
O4	O	0.509168	-1.496728	-0.113531
O5	O	0.253575	-1.452846	0.113482
O6	O	0.369451	-1.279081	0.113470
O7	O	0.415501	-1.637372	0.113468
Zn8	Zn	0.396003	-1.452967	0.149508
Zn9	Zn	0.366741	-1.496607	-0.149556
O10	O	0.531377	-1.463606	0.113455
C11	C	0.349851	-1.249511	-0.000023
C12	C	0.324527	-1.112056	-0.000022
C13	C	0.206353	-1.464699	-0.000010
C14	C	0.098731	-1.450655	-0.000008
C15	C	0.394450	-1.045821	-0.000030
C16	C	0.368277	-0.903753	-0.000029
C17	C	-0.098313	-1.424983	-0.000028
C18	C	-0.138951	-1.524588	-0.000032
C19	C	-0.248593	-1.510304	-0.000043
C20	C	0.011338	-1.439265	-0.000017
C21	C	0.556390	-1.484876	-0.000041
C22	C	0.664011	-1.498921	-0.000052
C23	C	0.412890	-0.700064	-0.000028
C24	C	0.438211	-0.837520	-0.000036
N25	N	0.415974	-1.423193	0.353611
N26	N	0.346763	-1.526391	-0.353660
C27	C	0.373682	-1.486240	0.421395
C28	C	0.389062	-1.463335	0.578560
H29	H	0.473691	-1.094290	-0.000030
H30	H	0.299162	-1.597325	0.588025
H31	H	0.517458	-0.885982	-0.000035
H32	H	-0.145863	-1.328988	-0.000031
H33	H	0.326084	-1.557169	0.363076
H34	H	0.436654	-1.392391	0.636876
H35	H	0.463564	-1.352254	0.411932
H36	H	0.289029	-0.855293	-0.000056
N37	N	0.219562	-1.047866	0.000005
H38	H	0.215744	-0.955476	0.000007
H39	H	0.178130	-1.084930	-0.084137
H40	H	-0.091407	-1.620605	-0.000124
