data_functionalizedCrystal
_audit_creation_method	'MofGen! by Chris Wilmer'
_symmetry_space_group_name_H-M	'P1'
_symmetry_Int_Tables_number	1
_symmetry_cell_setting	triclinic
loop_
_symmetry_equiv_pos_as_xyz
  x,y,z
_cell_length_a	11.792254
_cell_length_b	14.044190
_cell_length_c	10.268362
_cell_angle_alpha	89.989939
_cell_angle_beta	89.995475
_cell_angle_gamma	88.695187
loop_
_atom_site_label
_atom_site_type_symbol
_atom_site_fract_x
_atom_site_fract_y
_atom_site_fract_z
O1	O	1.519112	0.130045	-0.108315
O2	O	1.190030	0.143429	-0.108320
O3	O	1.349627	-0.001273	-0.108292
O4	O	1.359515	0.274747	-0.108343
O5	O	1.349612	-0.001279	0.108309
O6	O	1.190014	0.143423	0.108281
O7	O	1.519097	0.130039	0.108286
Cu8	Cu	1.354554	0.136730	0.128061
Cu9	Cu	1.354573	0.136738	-0.128095
O10	O	1.359499	0.274741	0.108258
C11	C	1.147652	0.142583	-0.000019
C12	C	1.021402	0.140059	-0.000020
C13	C	1.345294	-0.036613	0.000012
C14	C	1.332392	-0.141906	0.000023
C15	C	0.918873	0.138009	-0.000025
C16	C	0.790246	0.135445	-0.000026
C17	C	1.400309	-0.391841	-0.000027
C18	C	1.308822	-0.334686	-0.000019
C19	C	1.321940	-0.227413	0.000005
C20	C	1.387194	-0.499123	-0.000050
C21	C	1.561474	0.130885	-0.000017
C22	C	1.687724	0.133409	-0.000025
C23	C	1.363832	0.310081	-0.000049
C24	C	1.376735	0.415374	-0.000069
N25	N	1.354549	0.136725	0.308227
N26	N	1.354586	0.136736	-0.308261
C27	C	1.354567	0.136736	0.573897
C28	C	1.354554	0.136732	0.426059
H29	H	1.220647	-0.366317	-0.000028
C30	C	1.517974	-0.349854	-0.000072
C31	C	1.599811	-0.423666	-0.000113
C32	C	1.708214	-0.385012	-0.000170
H33	H	1.527028	-0.311725	0.075450
H34	H	1.526948	-0.311703	-0.075627
H35	H	1.590842	-0.461801	0.075434
H36	H	1.590795	-0.461801	-0.075629
H37	H	1.717188	-0.346861	-0.075725
H38	H	1.717256	-0.346884	0.075353
H39	H	1.763754	-0.435087	-0.000210
