data_functionalizedCrystal
_audit_creation_method	'MofGen! by Chris Wilmer'
_symmetry_space_group_name_H-M	'P1'
_symmetry_Int_Tables_number	1
_symmetry_cell_setting	triclinic
loop_
_symmetry_equiv_pos_as_xyz
  x,y,z
_cell_length_a	6.817900
_cell_length_b	7.076028
_cell_length_c	12.200722
_cell_angle_alpha	89.272093
_cell_angle_beta	107.140920
_cell_angle_gamma	117.700652
loop_
_atom_site_label
_atom_site_type_symbol
_atom_site_fract_x
_atom_site_fract_y
_atom_site_fract_z
V1	V	-4.217980	-0.665226	-0.156885
V2	V	-3.717980	-0.165226	0.343115
O3	O	-4.182746	-0.652330	0.009419
O4	O	-3.682746	-0.152330	0.509419
O5	O	-4.186566	-0.660901	-0.312885
O6	O	-3.686566	-0.160901	0.187115
O7	O	-4.244592	-0.955252	-0.153647
O8	O	-3.744592	-0.455252	0.346353
O9	O	-4.124318	-0.355941	-0.150921
O10	O	-3.624318	0.144059	0.349079
V11	V	-4.689687	-0.628206	-0.137090
V12	V	-4.189687	-0.128206	0.362910
O13	O	-4.505158	-0.746433	-0.200306
O14	O	-4.005158	-0.246433	0.299694
O15	O	-4.852707	-0.546999	-0.093670
O16	O	-4.352707	-0.046999	0.406330
O17	O	-4.497895	-0.632532	0.018910
O18	O	-3.997895	-0.132532	0.518910
O19	O	-4.842318	-0.641102	-0.303395
O20	O	-4.342318	-0.141102	0.196605
O21	O	-4.900746	-0.937492	-0.143054
O22	O	-4.400746	-0.437492	0.356946
O23	O	-4.439868	-0.338180	-0.140329
O24	O	-3.939868	0.161820	0.359671
C25	C	-4.033272	-0.650465	-0.350940
C26	C	-3.533272	-0.150465	0.149060
C27	C	-4.089374	-0.648861	-0.478467
C28	C	-3.589374	-0.148861	0.021533
C29	C	-4.134923	-0.647539	-0.582031
C30	C	-3.634923	-0.147539	-0.082031
C31	C	-4.192090	-0.645891	-0.711958
C32	C	-3.692090	-0.145891	-0.211958
C33	C	-4.240497	-0.267485	-0.146163
C34	C	-3.740497	0.232515	0.353837
C35	C	-4.114254	-0.025929	-0.147807
C36	C	-3.614254	0.474071	0.352193
C37	C	-4.314530	-0.642962	0.056959
C38	C	-3.814530	-0.142962	0.556959
C39	C	-4.237670	-0.644579	0.184484
C40	C	-3.737670	-0.144579	0.684484
