data_functionalizedCrystal
_audit_creation_method	'MofGen! by Chris Wilmer'
_symmetry_space_group_name_H-M	'P1'
_symmetry_Int_Tables_number	1
_symmetry_cell_setting	triclinic
loop_
_symmetry_equiv_pos_as_xyz
  x,y,z
_cell_length_a	6.817900
_cell_length_b	17.296766
_cell_length_c	19.453030
_cell_angle_alpha	99.775530
_cell_angle_beta	101.707737
_cell_angle_gamma	102.621013
loop_
_atom_site_label
_atom_site_type_symbol
_atom_site_fract_x
_atom_site_fract_y
_atom_site_fract_z
V1	V	-4.007280	-0.111963	-0.226119
O2	O	-3.994705	0.004520	-0.214542
O3	O	-3.959371	-0.221177	-0.231567
O4	O	-3.950181	-0.110619	-0.321546
O5	O	-4.003959	-0.106804	-0.123940
V6	V	-4.491971	-0.097986	-0.213048
O7	O	-4.265975	-0.142624	-0.254792
O8	O	-4.683473	-0.067326	-0.184375
O9	O	-4.316673	0.011228	-0.207600
O10	O	-4.621942	-0.214469	-0.224625
O11	O	-4.612689	-0.103145	-0.315227
O12	O	-4.325863	-0.099331	-0.117621
C13	C	-3.804773	-0.247789	-0.229804
C14	C	-3.846830	-0.337075	-0.234894
C15	C	-3.832148	-0.367306	-0.172219
C16	C	-3.871686	-0.451200	-0.177004
C17	C	-3.925890	-0.504862	-0.244465
C18	C	-3.940578	-0.474627	-0.307146
C19	C	-3.901055	-0.390734	-0.302360
C20	C	-4.046959	-0.758751	-0.262170
C21	C	-4.086476	-0.842648	-0.266951
C22	C	-4.017584	-0.819216	-0.136808
C23	C	-3.978052	-0.735323	-0.132029
C24	C	-3.992754	-0.705095	-0.194709
C25	C	-3.966298	-0.590616	-0.249358
C26	C	-3.952360	-0.619343	-0.189816
C27	C	-3.793049	-0.106760	-0.344581
C28	C	-3.827652	-0.106383	-0.422640
C29	C	-3.883474	-0.179799	-0.474014
C30	C	-3.916011	-0.179454	-0.547360
C31	C	-3.892681	-0.105687	-0.569327
C32	C	-3.836860	-0.032262	-0.517943
C33	C	-3.804346	-0.032610	-0.444599
N34	N	-3.800744	-0.047851	-0.671143
N35	N	-3.831630	-0.047526	-0.740818
C36	C	-3.990647	-0.104634	-0.790308
N37	N	-4.117593	-0.162092	-0.767493
N38	N	-4.086696	-0.162420	-0.697812
C39	C	-3.927934	-0.105301	-0.648855
C40	C	-4.081755	-0.177680	-0.921213
C41	C	-4.114303	-0.177332	-0.994560
C42	C	-4.035131	-0.030137	-0.965141
C43	C	-4.002605	-0.030488	-0.891796
C44	C	-4.025911	-0.104262	-0.869837
C45	C	-4.134614	0.037836	-0.209361
C46	C	-4.071794	0.127121	-0.204275
C47	C	-4.146337	-0.103192	-0.094582
C48	C	-4.090974	-0.103565	-0.016523
H49	H	-4.058907	-0.734149	-0.313209
C50	C	-3.811526	0.047747	-0.541931
C51	C	-3.851890	0.032341	-0.617158
C52	C	-3.828554	0.106028	-0.639279
H53	H	-3.906217	0.075417	-0.526393
H54	H	-3.673595	0.080511	-0.521452
H55	H	-3.989800	-0.000410	-0.637629
H56	H	-3.757210	0.004684	-0.632714
H57	H	-3.690623	0.138792	-0.618800
H58	H	-3.923247	0.133692	-0.623737
H59	H	-3.855918	0.095585	-0.690322
H60	H	-4.016147	0.029925	-0.983026
H61	H	-4.100735	-0.237751	-0.903333
H62	H	-3.957138	0.029295	-0.849965
H63	H	-4.010435	-0.634317	-0.304286
H64	H	-4.130607	-0.886339	-0.321889
C65	C	-3.976923	-0.259233	-0.603080
C66	C	-4.164454	-0.307532	-0.597725
C67	C	-4.220614	-0.381032	-0.649034
H68	H	-3.993114	-0.248573	-0.649941
H69	H	-3.871619	-0.286997	-0.594647
H70	H	-4.269733	-0.279773	-0.606163
H71	H	-4.148314	-0.318214	-0.550876
H72	H	-4.115311	-0.408797	-0.640601
H73	H	-4.236794	-0.370365	-0.695891
H74	H	-4.347848	-0.413815	-0.645403
H75	H	-3.902465	-0.239871	-0.456141
C76	C	-3.917380	-0.358028	-0.370475
C77	C	-4.119354	-0.389391	-0.414457
C78	C	-4.134475	-0.359290	-0.477216
H79	H	-3.886236	-0.300388	-0.358067
H80	H	-3.821787	-0.373990	-0.395629
H81	H	-4.214918	-0.373424	-0.389308
H82	H	-4.150541	-0.447028	-0.426884
H83	H	-4.038882	-0.375252	-0.502370
H84	H	-4.103323	-0.301651	-0.464801
H85	H	-4.271508	-0.380571	-0.507068
H86	H	-3.787996	-0.323619	-0.117284
H87	H	-3.933929	-0.691636	-0.077094
C88	C	-3.999355	-0.533015	-0.380323
C89	C	-4.030766	-0.612955	-0.371100
C90	C	-4.084879	-0.666761	-0.438495
H91	H	-4.123383	-0.526811	-0.408743
H92	H	-3.890695	-0.521499	-0.403872
H93	H	-4.139418	-0.624467	-0.347561
H94	H	-3.906764	-0.619185	-0.342692
H95	H	-3.976219	-0.655245	-0.462044
H96	H	-4.208903	-0.660549	-0.466909
H97	H	-4.106179	-0.721005	-0.432246
C98	C	-4.174802	-0.257129	-1.050231
C99	C	-4.188192	-0.321805	-1.015295
C100	C	-4.243890	-0.395326	-1.066555
H101	H	-4.305475	-0.262747	-1.081930
H102	H	-4.072795	-0.257517	-1.076995
H103	H	-4.290193	-0.321418	-0.988543
H104	H	-4.057541	-0.316215	-0.983600
H105	H	-4.141883	-0.395714	-1.093320
H106	H	-4.374560	-0.400935	-1.098252
H107	H	-4.252963	-0.439217	-1.042859
C108	C	-3.893804	-0.560996	-0.116629
C109	C	-4.040672	-0.516007	-0.113643
C110	C	-3.986773	-0.462234	-0.046238
H111	H	-3.890737	-0.590909	-0.079917
H112	H	-3.760683	-0.525112	-0.109648
H113	H	-4.173758	-0.551886	-0.120616
H114	H	-4.043761	-0.486078	-0.150340
H115	H	-3.853652	-0.426351	-0.039257
H116	H	-3.983705	-0.492153	-0.009532
H117	H	-4.086402	-0.431698	-0.044206
C118	C	-4.001884	-0.851932	-0.068706
C119	C	-4.143055	-0.828310	-0.031833
C120	C	-4.128638	-0.858422	0.030913
H121	H	-4.033241	-0.909577	-0.081116
H122	H	-3.864978	-0.830722	-0.038737
H123	H	-4.279930	-0.849523	-0.061797
H124	H	-4.111727	-0.770670	-0.019406
H125	H	-3.991732	-0.837212	0.060883
H126	H	-4.159992	-0.916066	0.018497
H127	H	-4.224404	-0.842393	0.055942
C128	C	-3.743629	0.047192	-0.388923
C129	C	-3.730116	0.111872	-0.423854
C130	C	-3.674156	0.185397	-0.372587
H131	H	-3.845505	0.047657	-0.362123
H132	H	-3.612924	0.052733	-0.357256
H133	H	-3.860802	0.106332	-0.455508
H134	H	-3.628235	0.111433	-0.450650
H135	H	-3.543452	0.190939	-0.340920
H136	H	-3.776039	0.185855	-0.345789
H137	H	-3.664962	0.229292	-0.396279
H138	H	-3.859732	-0.475810	-0.125966
