data_functionalizedCrystal
_audit_creation_method	'MofGen! by Chris Wilmer'
_symmetry_space_group_name_H-M	'P1'
_symmetry_Int_Tables_number	1
_symmetry_cell_setting	triclinic
loop_
_symmetry_equiv_pos_as_xyz
  x,y,z
_cell_length_a	16.625547
_cell_length_b	29.839131
_cell_length_c	16.625539
_cell_angle_alpha	89.960252
_cell_angle_beta	89.975178
_cell_angle_gamma	90.035164
loop_
_atom_site_label
_atom_site_type_symbol
_atom_site_fract_x
_atom_site_fract_y
_atom_site_fract_z
Zn1	Zn	1.232609	-0.178853	-0.455937
Zn2	Zn	1.732609	0.321147	0.044063
Zn3	Zn	1.232482	-0.253984	-0.321077
Zn4	Zn	1.732482	0.246016	0.178923
Zn5	Zn	1.097771	-0.178869	-0.321107
Zn6	Zn	1.597771	0.321131	0.178893
Zn7	Zn	1.097711	-0.253957	-0.455857
Zn8	Zn	1.597711	0.246043	0.044143
O9	O	1.165143	-0.216416	-0.388494
O10	O	1.665143	0.283584	0.111506
O11	O	1.345425	-0.188824	-0.438068
O12	O	1.845425	0.311176	0.061932
O13	O	1.214584	-0.244038	-0.208249
O14	O	1.714584	0.255962	0.291751
O15	O	1.115735	-0.116000	-0.339039
O16	O	1.615735	0.384000	0.160961
O17	O	1.345331	-0.244023	-0.338987
O18	O	1.845331	0.255977	0.161013
O19	O	1.214800	-0.115988	-0.438097
O20	O	1.714800	0.384012	0.061903
O21	O	1.115612	-0.188851	-0.208271
O22	O	1.615612	0.311149	0.291729
O23	O	0.984931	-0.188825	-0.338961
O24	O	1.484931	0.311175	0.161039
O25	O	1.115634	-0.243976	-0.568700
O26	O	1.615634	0.256024	-0.068700
O27	O	0.984887	-0.243991	-0.437961
O28	O	1.484887	0.256009	0.062039
O29	O	1.214743	-0.188798	-0.568759
O30	O	1.714743	0.311202	-0.068759
O31	O	1.214526	-0.316848	-0.338910
O32	O	1.714526	0.183152	0.161090
O33	O	1.115511	-0.316828	-0.437932
O34	O	1.615511	0.183172	0.062068
C35	C	0.955652	-0.216407	-0.388456
C36	C	1.455652	0.283593	0.111544
C37	C	0.866031	-0.216414	-0.388459
C38	C	1.366031	0.283586	0.111541
C39	C	0.793249	-0.216415	-0.388469
C40	C	1.293249	0.283585	0.111531
C41	C	0.701940	-0.216417	-0.388489
C42	C	1.201940	0.283583	0.111511
C43	C	0.629164	-0.216422	-0.388510
C44	C	1.129164	0.283578	0.111490
C45	C	0.537850	-0.216425	-0.388529
C46	C	1.037850	0.283575	0.111471
C47	C	1.165020	-0.333138	-0.388426
C48	C	1.665020	0.166862	0.111574
C49	C	1.165041	-0.383073	-0.388424
C50	C	1.665041	0.116927	0.111576
C51	C	1.216715	-0.692675	-0.440148
C52	C	1.716715	-0.192675	0.059852
C53	C	1.216803	-0.880348	-0.440196
C54	C	1.716803	-0.380348	0.059804
O55	O	1.260617	-0.904578	-0.484123
O56	O	1.760617	-0.404578	0.015877
N57	N	1.165280	-0.903858	-0.388584
N58	N	1.665280	-0.403858	0.111416
C59	C	1.113728	-0.880446	-0.336960
C60	C	1.613728	-0.380446	0.163040
O61	O	1.069902	-0.904749	-0.293067
O62	O	1.569902	-0.404749	0.206933
C63	C	1.113637	-0.692774	-0.336916
C64	C	1.613637	-0.192774	0.163084
C65	C	1.165169	-0.669267	-0.388526
C66	C	1.665169	-0.169267	0.111474
C67	C	1.268242	-0.669168	-0.491754
C68	C	1.768242	-0.169168	0.008246
C69	C	1.268223	-0.622253	-0.491738
C70	C	1.768223	-0.122253	0.008262
C71	C	1.216677	-0.598844	-0.440116
C72	C	1.716677	-0.098844	0.059884
C73	C	1.165150	-0.622352	-0.388510
C74	C	1.665150	-0.122352	0.111490
C75	C	1.062082	-0.669363	-0.285296
C76	C	1.562082	-0.169363	0.214704
C77	C	1.062063	-0.622442	-0.285291
C78	C	1.562063	-0.122442	0.214709
C79	C	1.113594	-0.598935	-0.336901
C80	C	1.613594	-0.098935	0.163099
C81	C	1.113584	-0.552028	-0.336872
C82	C	1.613584	-0.052028	0.163128
N83	N	1.165107	-0.528518	-0.388484
N84	N	1.665107	-0.028518	0.111516
C85	C	1.216653	-0.551927	-0.440107
C86	C	1.716653	-0.051927	0.059893
C87	C	1.113781	-0.978977	-0.336985
C88	C	1.613781	-0.478977	0.163015
C89	C	1.113805	-1.025895	-0.336995
C90	C	1.613805	-0.525895	0.163005
C91	C	1.216878	-1.025794	-0.440233
C92	C	1.716878	-0.525794	0.059767
C93	C	1.216858	-0.978875	-0.440218
C94	C	1.716858	-0.478875	0.059782
C95	C	1.165303	-0.955467	-0.388597
C96	C	1.665303	-0.455467	0.111403
C97	C	1.216609	-0.453401	-0.440069
C98	C	1.716609	0.046599	0.059931
C99	C	1.216588	-0.406481	-0.440046
C100	C	1.716588	0.093519	0.059954
C101	C	1.113512	-0.406586	-0.336812
C102	C	1.613512	0.093414	0.163188
C103	C	1.113536	-0.453502	-0.336831
C104	C	1.613536	0.046498	0.163169
C105	C	1.165087	-0.476908	-0.388466
C106	C	1.665087	0.023092	0.111534
O107	O	1.069787	-0.527769	-0.292975
O108	O	1.569787	-0.027769	0.207025
O109	O	1.260461	-0.527616	-0.484005
O110	O	1.760461	-0.027616	0.015995
C111	C	1.216735	-0.739591	-0.440164
C112	C	1.716735	-0.239591	0.059836
C113	C	1.165208	-0.763098	-0.388557
C114	C	1.665208	-0.263098	0.111443
C115	C	1.113662	-0.739690	-0.336935
C116	C	1.613662	-0.239690	0.163065
C117	C	1.165231	-0.810016	-0.388567
C118	C	1.665231	-0.310016	0.111433
C119	C	1.216777	-0.833424	-0.440189
C120	C	1.716777	-0.333424	0.059811
C121	C	1.268300	-0.809915	-0.491801
C122	C	1.768300	-0.309915	0.008199
C123	C	1.268281	-0.762999	-0.491786
C124	C	1.768281	-0.262999	0.008214
C125	C	1.062139	-0.763199	-0.285323
C126	C	1.562139	-0.263199	0.214677
C127	C	1.062163	-0.810115	-0.285342
C128	C	1.562163	-0.310115	0.214658
C129	C	1.113709	-0.833523	-0.336964
C130	C	1.613709	-0.333523	0.163036
C131	C	1.375452	-0.216425	-0.388533
C132	C	1.875452	0.283575	0.111467
C133	C	1.465073	-0.216429	-0.388550
C134	C	1.965073	0.283571	0.111450
C135	C	1.165196	-0.216382	-0.598803
C136	C	1.665196	0.283618	-0.098803
C137	C	1.165218	-0.216368	-0.688425
C138	C	1.665218	0.283632	-0.188425
C139	C	1.165289	-0.099237	-0.388580
C140	C	1.665289	0.400763	0.111420
C141	C	1.165351	-0.049303	-0.388617
C142	C	1.665351	0.450697	0.111383
C143	C	1.165255	-0.216318	-1.016601
C144	C	1.665255	0.283682	-0.516601
C145	C	1.165243	-0.216333	-0.925292
C146	C	1.665243	0.283667	-0.425292
C147	C	1.165237	-0.216343	-0.852515
C148	C	1.665237	0.283657	-0.352515
C149	C	1.165224	-0.216358	-0.761201
C150	C	1.665224	0.283642	-0.261201
C151	C	1.165137	-0.216417	-0.179004
C152	C	1.665137	0.283583	0.320996
C153	C	1.165271	-0.216304	-0.089383
C154	C	1.665271	0.283696	0.410617
H155	H	1.258582	-0.472452	-0.482121
H156	H	1.758582	0.027548	0.017879
O157	O	1.323815	-0.596901	-0.547391
O158	O	1.823815	-0.096901	-0.047391
H159	H	1.359658	-0.621067	-0.583284
H160	H	1.859658	-0.121067	-0.083284
O161	O	1.272443	-0.953523	-0.495880
O162	O	1.772443	-0.453523	0.004120
H163	H	1.258585	-0.962506	-0.559151
H164	H	1.758585	-0.462506	-0.059151
O165	O	1.272468	-1.051044	-0.495922
O166	O	1.772468	-0.551044	0.004078
H167	H	1.263815	-1.087618	-0.487260
H168	H	1.763815	-0.587618	0.012740
O169	O	1.058235	-1.051249	-0.281322
O170	O	1.558235	-0.551249	0.218678
H171	H	0.994941	-1.042271	-0.295091
H172	H	1.494941	-0.542271	0.204909
H173	H	1.071798	-0.959922	-0.294947
H174	H	1.571798	-0.459922	0.205053
O175	O	1.272171	-0.381126	-0.495713
O176	O	1.772171	0.118874	0.004287
H177	H	1.313208	-0.359753	-0.459653
H178	H	1.813208	0.140247	0.040347
H179	H	1.020163	-0.744144	-0.243287
H180	H	1.520163	-0.244144	0.256713
O181	O	1.323846	-0.694413	-0.547433
O182	O	1.823846	-0.194413	-0.047433
H183	H	1.359669	-0.670177	-0.583307
H184	H	1.859669	-0.170177	-0.083307
H185	H	1.020120	-0.688495	-0.243269
H186	H	1.520120	-0.188495	0.256731
O187	O	1.006464	-0.597194	-0.229606
O188	O	1.506464	-0.097194	0.270394
H189	H	0.970645	-0.621426	-0.193719
H190	H	1.470645	-0.121426	0.306281
O191	O	1.057959	-0.478861	-0.281167
O192	O	1.557959	0.021139	0.218833
H193	H	1.022111	-0.454699	-0.245271
H194	H	1.522111	0.045301	0.254729
O195	O	1.057914	-0.381335	-0.281136
O196	O	1.557914	0.118665	0.218864
H197	H	1.066556	-0.344762	-0.289808
H198	H	1.566556	0.155238	0.210192
O199	O	1.323872	-0.737651	-0.547445
O200	O	1.823872	-0.237651	-0.047445
H201	H	1.310014	-0.746632	-0.610717
H202	H	1.810014	-0.246632	-0.110717
O203	O	1.323891	-0.835166	-0.547489
O204	O	1.823891	-0.335166	-0.047489
H205	H	1.315235	-0.871739	-0.538829
H206	H	1.815235	-0.371739	-0.038829
H207	H	1.020201	-0.829250	-0.243308
H208	H	1.520201	-0.329250	0.256692
