data_functionalizedCrystal
_audit_creation_method	'MofGen! by Chris Wilmer'
_symmetry_space_group_name_H-M	'P1'
_symmetry_Int_Tables_number	1
_symmetry_cell_setting	triclinic
loop_
_symmetry_equiv_pos_as_xyz
  x,y,z
_cell_length_a	27.440280
_cell_length_b	20.875641
_cell_length_c	27.440280
_cell_angle_alpha	57.589928
_cell_angle_beta	90.007570
_cell_angle_gamma	62.438438
loop_
_atom_site_label
_atom_site_type_symbol
_atom_site_fract_x
_atom_site_fract_y
_atom_site_fract_z
Zr1	Zr	0.489070	0.702042	-0.083463
O2	O	0.414975	0.835880	-0.165021
O3	O	0.509197	0.568217	-0.055875
O4	O	0.512918	0.702045	-0.161278
O5	O	0.411262	0.702044	0.020583
O6	O	0.593121	0.702033	-0.161267
O7	O	0.411254	0.702052	-0.059618
O8	O	0.586464	0.462639	0.027278
O9	O	0.417918	0.941438	-0.167963
O10	O	0.580761	0.623247	-0.047227
O11	O	0.520913	0.623251	0.012619
O12	O	0.525294	0.780816	-0.111479
O13	O	0.465446	0.780820	-0.051633
Zr14	Zr	0.616996	0.702010	0.044465
Zr15	Zr	0.616984	0.702022	-0.083447
Zr16	Zr	0.489083	0.702030	0.044448
Zr17	Zr	0.493764	0.870395	-0.088156
Zr18	Zr	0.612302	0.533657	0.049157
O19	O	0.596870	0.835835	0.016877
O20	O	0.596852	0.835851	-0.164997
O21	O	0.414993	0.835863	0.016853
O22	O	0.691091	0.568172	0.126022
O23	O	0.691074	0.568189	-0.055852
O24	O	0.509215	0.568201	0.125998
O25	O	0.694805	0.702008	-0.059582
O26	O	0.593148	0.702007	0.122279
O27	O	0.512946	0.702019	0.122269
O28	O	0.694813	0.702000	0.020620
O29	O	0.519593	0.941422	-0.167949
O30	O	0.586474	0.462630	0.128951
O31	O	0.688148	0.462614	0.128964
O32	O	0.688138	0.462623	0.027291
O33	O	0.417928	0.941429	-0.066290
O34	O	0.519603	0.941413	-0.066277
O35	O	0.580773	0.623236	0.072480
O36	O	0.640621	0.623232	0.012634
O37	O	0.585154	0.780801	-0.051618
O38	O	0.525306	0.780805	0.008228
C39	C	0.547161	0.491441	-0.013630
C40	C	0.545169	0.419971	-0.011638
C41	C	0.575471	0.386392	-0.041941
C42	C	0.573600	0.319233	-0.040064
C43	C	0.541423	0.285659	-0.007887
C44	C	0.511120	0.319241	0.022420
C45	C	0.512994	0.386394	0.020546
C46	C	0.532469	0.084816	0.001072
C47	C	0.530595	0.017660	0.002942
C48	C	0.593077	0.017656	-0.059541
C49	C	0.594946	0.084814	-0.061415
C50	C	0.564645	0.118387	-0.031106
N51	N	0.539508	0.217014	-0.005968
N52	N	0.566564	0.187026	-0.033021
C53	C	0.393033	0.702051	-0.019520
C54	C	0.338730	0.702059	-0.019527
C55	C	0.030984	0.619762	0.014056
C56	C	-0.020034	0.619757	0.014062
O57	O	-0.021799	0.549807	0.042604
N58	N	-0.074504	0.702005	-0.019478
C59	C	-0.077955	0.784264	-0.053020
O60	O	-0.128970	0.854222	-0.081547
C61	C	-0.026937	0.784268	-0.053021
C62	C	0.027532	0.702014	-0.019485
C63	C	0.085451	0.537515	0.047591
C64	C	0.136466	0.537520	0.047585
C65	C	0.133014	0.619772	0.014043
C66	C	0.078547	0.702020	-0.019491
C67	C	-0.030388	0.866526	-0.086560
C68	C	0.020636	0.866523	-0.086558
C69	C	0.075105	0.784269	-0.053021
C70	C	0.126110	0.784277	-0.053039
N71	N	0.180580	0.702029	-0.019499
C72	C	0.184032	0.619776	0.014042
C73	C	-0.185094	0.784249	-0.053013
C74	C	-0.236111	0.784246	-0.053016
C75	C	-0.178187	0.619738	0.014067
C76	C	-0.127169	0.619742	0.014066
C77	C	-0.130624	0.702001	-0.019474
C78	C	0.291165	0.619794	0.014025
C79	C	0.342182	0.619807	0.014014
C80	C	0.284254	0.784314	-0.053066
C81	C	0.233241	0.784302	-0.053057
C82	C	0.236701	0.702034	-0.019507
O83	O	0.127920	0.854192	-0.081564
O84	O	0.235050	0.549830	0.042571
C85	C	0.713034	0.702001	-0.019479
C86	C	0.767336	0.701993	-0.019472
C87	C	0.553018	0.702041	-0.179497
C88	C	0.553012	0.702046	-0.233799
C89	C	0.558905	0.912611	-0.025369
C90	C	0.560898	0.984081	-0.027361
C91	C	0.508846	0.702020	-0.468491
C92	C	0.508843	0.702022	-0.417472
O93	O	0.471277	0.701998	-0.391075
N94	N	0.553025	0.702022	-0.391953
C95	C	0.597216	0.702011	-0.417453
O96	O	0.634796	0.702010	-0.391062
C97	C	0.597221	0.702002	-0.468469
C98	C	0.553032	0.702012	-0.493988
C99	C	0.464661	0.702029	-0.494011
C100	C	0.464664	0.702028	-0.545027
C101	C	0.508850	0.702020	-0.570525
C102	C	0.553035	0.702011	-0.545005
C103	C	0.641413	0.701985	-0.493965
C104	C	0.641414	0.701975	-0.544984
C105	C	0.597226	0.701985	-0.570504
C106	C	0.597224	0.702002	-0.621519
N107	N	0.553041	0.702003	-0.647038
C108	C	0.508855	0.702011	-0.621541
C109	C	0.597204	0.702027	-0.310315
C110	C	0.597198	0.702042	-0.259303
C111	C	0.508825	0.702052	-0.259324
C112	C	0.508829	0.702043	-0.310340
C113	C	0.553022	0.702027	-0.335834
C114	C	0.508863	0.702011	-0.728680
C115	C	0.508868	0.702015	-0.779703
C116	C	0.597242	0.702000	-0.779674
C117	C	0.597235	0.702002	-0.728658
C118	C	0.553043	0.702004	-0.703161
O119	O	0.634772	0.702023	-0.647947
O120	O	0.471285	0.702000	-0.647933
C121	C	0.553049	0.702011	0.140498
C122	C	0.553054	0.702006	0.194800
C123	C	0.707162	0.491417	-0.013609
C124	C	0.759472	0.419938	-0.011610
C125	C	0.547177	0.491427	0.146368
C126	C	0.545190	0.419951	0.202661
C127	C	0.707178	0.491402	0.146388
C128	C	0.759493	0.419918	0.202689
C129	C	0.398889	0.912650	-0.185387
C130	C	0.346574	0.984134	-0.241688
C131	C	0.398905	0.912635	-0.025389
C132	C	0.346595	0.984114	-0.027388
C133	C	0.558889	0.912625	-0.185366
C134	C	0.560877	0.984101	-0.241660
C135	C	0.752791	0.386378	-0.041924
C136	C	0.801937	0.319226	-0.040058
C137	C	0.857763	0.285629	-0.007874
C138	C	0.864443	0.319195	0.022440
C139	C	0.815298	0.386351	0.020570
C140	C	0.575503	0.386378	0.260350
C141	C	0.573633	0.319229	0.313248
C142	C	0.541454	0.285649	0.308457
C143	C	0.511137	0.319229	0.250763
C144	C	0.513004	0.386382	0.197865
C145	C	0.815306	0.386347	0.197890
C146	C	0.864467	0.319189	0.250785
C147	C	0.857813	0.285600	0.308479
C148	C	0.801994	0.319178	0.313277
C149	C	0.752834	0.386339	0.260382
C150	C	0.290761	1.017714	-0.236889
C151	C	0.241600	1.084892	-0.289785
C152	C	0.248254	1.118484	-0.347479
C153	C	0.304073	1.084902	-0.352277
C154	C	0.353232	1.017730	-0.299382
C155	C	0.353276	1.017681	0.002920
C156	C	0.304130	1.084852	0.001039
C157	C	0.248304	1.118451	-0.031146
C158	C	0.241624	1.084881	-0.061458
C159	C	0.290769	1.017716	-0.059581
C160	C	0.593062	1.017659	-0.236850
C161	C	0.594941	1.084809	-0.289738
C162	C	0.564631	1.118404	-0.347437
C163	C	0.532445	1.084839	-0.352247
C164	C	0.530570	1.017686	-0.299358
H165	H	0.621147	0.112149	-0.087616
H166	H	0.598275	0.291893	-0.064738
N167	N	0.181409	1.121109	-0.096159
H168	H	0.151295	1.168742	-0.092739
H169	H	0.175260	1.069815	-0.078313
N170	N	0.629648	1.121012	-0.284541
H171	H	0.626242	1.168650	-0.326798
H172	H	0.671911	1.069712	-0.260535
N173	N	0.476419	0.283022	0.057128
H174	H	0.445299	0.294718	0.028145
H175	H	0.457546	0.314498	0.076042
H176	H	0.504390	-0.009672	0.029145
N177	N	0.413427	0.981508	-0.304570
H178	H	0.434105	0.914096	-0.282920
H179	H	0.436284	0.993240	-0.285130
N180	N	0.644856	0.702031	-0.231777
H181	H	0.627139	0.757964	-0.233417
H182	H	0.672833	0.701989	-0.255689
H183	H	0.281453	0.851281	-0.080376
H184	H	0.398728	0.990330	0.029132
H185	H	0.820735	0.413685	0.150917
N186	N	0.480275	0.422598	0.135656
H187	H	0.495219	0.371364	0.132305
H188	H	0.486325	0.470264	0.102888
N189	N	0.566649	1.190845	-0.404478
H190	H	0.542564	1.207042	-0.441763
H191	H	0.608330	1.167411	-0.403783
H192	H	0.633190	0.702021	-0.331072
H193	H	0.386533	0.552823	0.041326
H194	H	0.428683	0.702032	-0.565801
N195	N	0.311343	1.121049	0.033734
H196	H	0.354166	1.089562	0.054412
H197	H	0.291210	1.109368	0.065467
H198	H	0.909913	0.291857	0.246868
H199	H	0.796486	0.291904	-0.064743
N200	N	0.692634	0.422541	0.265559
H201	H	0.688632	0.450398	0.287322
H202	H	0.686477	0.371252	0.289513
H203	H	0.601707	0.413711	0.264262
N204	N	0.476440	0.282993	0.245603
H205	H	0.457518	0.314445	0.201032
H206	H	0.445359	0.294680	0.265084
N207	N	-0.174470	0.531022	0.050253
H208	H	-0.132225	0.478912	0.071501
H209	H	-0.194384	0.527440	0.021667
N210	N	0.461197	0.702024	-0.701186
H211	H	0.478910	0.646091	-0.657208
H212	H	0.433224	0.702066	-0.725144
N213	N	-0.294854	0.872966	-0.089192
H214	H	-0.317306	0.876632	-0.060638
H215	H	-0.317276	0.876589	-0.120734
H216	H	0.017817	0.933509	-0.113863
H217	H	0.820746	0.413667	0.045258
H218	H	0.472848	0.702050	-0.331115
H219	H	0.897847	0.230913	0.351545
N220	N	0.417002	0.702031	-0.466512
H221	H	0.389017	0.702032	-0.490426
H222	H	0.395380	0.757971	-0.468159
N223	N	0.495850	0.981503	-0.304557
H224	H	0.453572	1.032760	-0.328535
H225	H	0.499302	0.933851	-0.262282
H226	H	0.285331	0.990366	-0.189916
N227	N	0.461165	0.702060	-0.231819
H228	H	0.467872	0.702061	-0.195627
H229	H	0.461561	0.646124	-0.217926
H230	H	0.180813	0.470540	0.074891
H231	H	0.677395	0.701976	-0.473194
N232	N	0.625760	-0.018568	-0.092222
H233	H	0.668693	-0.046439	-0.075051
H234	H	0.610750	0.032710	-0.137353
H235	H	0.196155	1.112223	-0.285866
N236	N	0.499755	1.121078	-0.414481
H237	H	0.505828	1.168714	-0.447250
H238	H	0.456836	1.148907	-0.419992
H239	H	0.208292	1.173141	-0.032670
N240	N	-0.188823	0.872976	-0.089198
H241	H	-0.231073	0.925073	-0.110444
H242	H	-0.168924	0.876562	-0.120709
N243	N	0.924660	0.282948	0.057150
H244	H	0.945338	0.215531	0.090465
H245	H	0.921396	0.314455	0.076035
H246	H	0.796585	0.291820	0.360259
H247	H	0.285321	0.990388	-0.084260
H248	H	0.598323	0.291896	0.360220
N249	N	0.610172	0.422608	-0.076652
H250	H	0.629085	0.391142	-0.095562
H251	H	0.641260	0.410915	-0.047637
N252	N	0.499792	0.121017	0.033764
H253	H	0.479124	0.089558	0.054431
H254	H	0.470259	0.188437	0.003198
H255	H	0.617744	0.990316	-0.189873
N256	N	0.195226	1.190926	-0.404524
H257	H	0.194542	1.167560	-0.428430
H258	H	0.196776	1.246635	-0.430592
N259	N	0.480315	0.422610	0.053233
H260	H	0.459646	0.391152	0.073902
H261	H	0.450782	0.490029	0.022664
N262	N	0.311246	1.121138	-0.414506
H263	H	0.271631	1.168782	-0.447282
H264	H	0.332370	1.069853	-0.417805
N265	N	-0.089129	0.955244	-0.122728
H266	H	-0.083564	1.007342	-0.143969
H267	H	-0.111548	0.958818	-0.094135
H268	H	0.088272	0.470531	0.074907
N269	N	0.294900	0.531066	0.050211
H270	H	0.337149	0.478970	0.071451
H271	H	0.274989	0.527480	0.021627
N272	N	-0.068426	0.531022	0.050244
H273	H	-0.045961	0.527348	0.081789
H274	H	-0.046016	0.527407	0.021652
N275	N	0.174490	0.873015	-0.089237
H276	H	0.180047	0.925121	-0.110489
H277	H	0.152068	0.876596	-0.060648
N278	N	0.461210	0.702015	-0.807224
H279	H	0.422200	0.757949	-0.821158
H280	H	0.461639	0.646043	-0.775509
N281	N	0.689079	0.701962	-0.572482
H282	H	0.717067	0.701959	-0.548571
H283	H	0.671314	0.757899	-0.616460
N284	N	0.539445	0.213214	0.365512
H285	H	0.522321	0.236590	0.389414
H286	H	0.580226	0.157514	0.391577
N287	N	0.644888	0.702008	-0.701136
H288	H	0.672878	0.702007	-0.725034
H289	H	0.666505	0.646069	-0.657158
H290	H	0.707339	0.413732	-0.068139
N291	N	0.644895	0.701993	-0.807185
H292	H	0.666550	0.646054	-0.805539
H293	H	0.672851	0.702022	-0.783265
N294	N	0.910768	0.213198	-0.005861
H295	H	0.898059	0.197040	-0.029949
H296	H	0.933756	0.157509	0.038023
