data_functionalizedCrystal
_audit_creation_method	'MofGen! by Chris Wilmer'
_symmetry_space_group_name_H-M	'P1'
_symmetry_Int_Tables_number	1
_symmetry_cell_setting	triclinic
loop_
_symmetry_equiv_pos_as_xyz
  x,y,z
_cell_length_a	12.759401
_cell_length_b	25.639239
_cell_length_c	12.759393
_cell_angle_alpha	90.035978
_cell_angle_beta	90.020938
_cell_angle_gamma	90.040211
loop_
_atom_site_label
_atom_site_type_symbol
_atom_site_fract_x
_atom_site_fract_y
_atom_site_fract_z
Zn1	Zn	1.606091	-0.208104	0.593980
Zn2	Zn	1.605909	-0.295549	0.418283
Zn3	Zn	1.430390	-0.208132	0.418315
Zn4	Zn	1.430308	-0.295513	0.593921
O5	O	1.518175	-0.251825	0.506125
O6	O	1.753088	-0.219708	0.570685
O7	O	1.582584	-0.283980	0.271266
O8	O	1.453808	-0.134963	0.441656
O9	O	1.752954	-0.283953	0.441601
O10	O	1.582895	-0.134943	0.570716
O11	O	1.453631	-0.219755	0.271290
O12	O	1.283358	-0.219720	0.441598
O13	O	1.453669	-0.283891	0.740950
O14	O	1.283298	-0.283918	0.570615
O15	O	1.582816	-0.219672	0.740993
O16	O	1.582505	-0.368710	0.441544
O17	O	1.453492	-0.368683	0.570584
C18	C	1.245207	-0.251818	0.506104
C19	C	1.128431	-0.251828	0.506120
C20	C	1.073565	-0.285307	0.573193
C21	C	0.963841	-0.285309	0.573214
C22	C	0.963858	-0.218352	0.439079
C23	C	1.073580	-0.218347	0.439065
C24	C	1.517998	-0.387667	0.506077
C25	C	1.518018	-0.445781	0.506091
C26	C	1.585527	-0.806146	0.439048
C27	C	1.585568	-0.860750	0.439062
O28	O	1.642783	-0.888988	0.382007
N29	N	1.518359	-0.888064	0.506194
C30	C	1.451113	-0.860770	0.573324
O31	O	1.393952	-0.889017	0.630428
C32	C	1.451079	-0.806167	0.573315
C33	C	1.518284	-0.778856	0.506171
C34	C	1.652728	-0.778835	0.371910
C35	C	1.652685	-0.724234	0.371895
C36	C	1.585442	-0.696945	0.439018
C37	C	1.518242	-0.724255	0.506156
C38	C	1.383839	-0.778874	0.640449
C39	C	1.383810	-0.724267	0.640435
C40	C	1.451016	-0.696957	0.573291
C41	C	1.450956	-0.642365	0.573263
N42	N	1.518165	-0.615052	0.506131
C43	C	1.585408	-0.642341	0.439008
C44	C	1.451192	-0.975441	0.573341
C45	C	1.451221	-1.030043	0.573346
C46	C	1.585677	-1.030019	0.439085
C47	C	1.585642	-0.975416	0.439075
C48	C	1.518401	-0.948127	0.506208
C49	C	1.585313	-0.527676	0.438981
C50	C	1.585261	-0.473071	0.438969
C51	C	1.450810	-0.473100	0.573233
C52	C	1.450857	-0.527700	0.573242
C53	C	1.518117	-0.554987	0.506112
O54	O	1.393774	-0.614093	0.630292
O55	O	1.642569	-0.614088	0.381925
C56	C	1.792208	-0.251831	0.506146
C57	C	1.908984	-0.251834	0.506156
C58	C	1.518253	-0.251774	0.780158
C59	C	1.518287	-0.251753	0.896935
C60	C	1.518381	-0.115452	0.506196
C61	C	1.518468	-0.057337	0.506226
C62	C	1.518157	-0.251837	0.233157
C63	C	1.518327	-0.251711	0.116381
C64	C	1.585539	-0.218309	0.951821
C65	C	1.585556	-0.218286	1.061546
C66	C	1.451068	-0.285156	1.061487
C67	C	1.451045	-0.285176	0.951765
H68	H	1.640085	-0.549887	0.384320
O69	O	0.910686	-0.185859	0.373795
C70	C	0.877003	-0.160395	0.195178
C71	C	0.937302	-0.197216	0.268998
H72	H	0.898483	-0.169571	0.110433
H73	H	0.898656	-0.118237	0.213693
H74	H	0.789163	-0.166142	0.206764
H75	H	1.025156	-0.191516	0.257453
H76	H	0.915562	-0.239361	0.250464
H77	H	1.707412	-0.702001	0.317224
H78	H	1.396273	-0.312410	0.907075
H79	H	0.919174	-0.312570	0.627833
H80	H	1.640434	-1.052248	0.384433
H81	H	1.396324	-0.312369	1.106143
H82	H	1.118221	-0.312568	0.627796
H83	H	1.640288	-0.191092	0.907182
H84	H	1.118253	-0.191082	0.384446
H85	H	1.639988	-0.450836	0.384288
O86	O	1.650836	-0.185727	1.114743
C87	C	1.701944	-0.096784	1.148403
C88	C	1.627964	-0.133602	1.088076
H89	H	1.683464	-0.054633	1.126881
H90	H	1.786658	-0.105931	1.126818
H91	H	1.690431	-0.102533	1.236239
H92	H	1.639384	-0.127873	1.000226
H93	H	1.543277	-0.124445	1.109748
H94	H	1.396428	-0.953225	0.628006
H95	H	1.707491	-0.801048	0.317251
H96	H	1.640367	-0.953182	0.384401
H97	H	1.329108	-0.801102	0.695120
O98	O	1.385896	-1.056489	0.638660
C99	C	1.252488	-1.050734	0.771782
C100	C	1.326428	-1.020723	0.697877
H101	H	1.204373	-1.021831	0.819662
H102	H	1.300658	-1.076237	0.826843
H103	H	1.197638	-1.076360	0.723492
H104	H	1.381293	-0.995069	0.746082
H105	H	1.278193	-0.995253	0.642813
H106	H	1.329055	-0.702052	0.695106
O107	O	1.385554	-0.446640	0.638585
C108	C	1.334539	-0.429857	0.817260
C109	C	1.408477	-0.459866	0.743357
H110	H	1.353060	-0.440530	0.901985
H111	H	1.249814	-0.440646	0.798845
H112	H	1.346054	-0.386143	0.805657
H113	H	1.397056	-0.503586	0.754919
H114	H	1.493175	-0.449034	0.761790
H115	H	1.396136	-0.549938	0.627919
