data_functionalizedCrystal
_audit_creation_method	'MofGen! by Chris Wilmer'
_symmetry_space_group_name_H-M	'P1'
_symmetry_Int_Tables_number	1
_symmetry_cell_setting	triclinic
loop_
_symmetry_equiv_pos_as_xyz
  x,y,z
_cell_length_a	13.033409
_cell_length_b	21.295417
_cell_length_c	13.033429
_cell_angle_alpha	97.223875
_cell_angle_beta	76.685261
_cell_angle_gamma	82.860986
loop_
_atom_site_label
_atom_site_type_symbol
_atom_site_fract_x
_atom_site_fract_y
_atom_site_fract_z
Zn1	Zn	1.547368	-0.338688	0.393901
Zn2	Zn	1.569764	-0.459274	0.216285
Zn3	Zn	1.392306	-0.338730	0.238903
Zn4	Zn	1.369711	-0.428620	0.416447
O5	O	1.469787	-0.391328	0.316384
O6	O	1.698956	-0.367495	0.351439
O7	O	1.565053	-0.456131	0.070649
O8	O	1.412958	-0.250639	0.259494
O9	O	1.715410	-0.456089	0.220945
O10	O	1.526882	-0.250608	0.373370
O11	O	1.434675	-0.367567	0.087266
O12	O	1.240692	-0.337843	0.281355
O13	O	1.374449	-0.403844	0.562092
O14	O	1.224091	-0.403885	0.411796
O15	O	1.504973	-0.337771	0.545528
O16	O	1.543144	-0.543293	0.242806
O17	O	1.396165	-0.520772	0.389865
C18	C	1.193857	-0.367543	0.351477
C19	C	1.075809	-0.357380	0.366516
C20	C	0.909322	-0.386131	0.324098
C21	C	1.031331	-0.396637	0.308550
C22	C	1.469659	-0.554873	0.316347
C23	C	1.469697	-0.624843	0.316355
C24	C	1.528972	-0.657629	0.375704
C25	C	1.529006	-0.723372	0.375725
C26	C	1.469778	-0.756330	0.316377
C27	C	1.410491	-0.723536	0.257025
C28	C	1.410450	-0.657792	0.257014
N29	N	1.473554	-0.866923	0.224439
N30	N	1.473598	-0.929377	0.224452
C31	C	1.469896	-0.954411	0.316409
N32	N	1.466169	-0.914634	0.408353
N33	N	1.466129	-0.852175	0.408338
C34	C	1.469816	-0.827618	0.316383
C35	C	1.529211	-1.058483	0.375787
C36	C	1.529238	-1.124227	0.375811
C37	C	1.410730	-1.124391	0.257101
C38	C	1.410696	-1.058647	0.257087
C39	C	1.469943	-1.025698	0.316428
C40	C	1.746796	-0.415207	0.281154
C41	C	1.864840	-0.425382	0.266141
C42	C	1.434692	-0.367383	0.593427
C43	C	1.419737	-0.357179	0.711486
C44	C	1.469942	-0.227145	0.316440
C45	C	1.470008	-0.157180	0.316464
C46	C	1.504807	-0.415140	0.040411
C47	C	1.519968	-0.425184	-0.077674
C48	C	1.462128	-0.385913	0.877914
C49	C	1.477585	-0.396456	0.755894
H50	H	1.577211	-0.630803	0.424026
H51	H	1.362434	-1.031952	0.208754
H52	H	0.917083	-0.466768	0.205016
H53	H	1.401169	-0.344484	0.930227
C54	C	1.345574	-1.160636	0.191826
H55	H	1.354089	-1.204487	0.200329
H56	H	1.272238	-1.142405	0.216390
H57	H	1.370210	-1.157386	0.118480
C58	C	1.559944	-0.452425	0.685237
H59	H	1.559523	-0.452172	0.612496
H60	H	1.629030	-0.447812	0.694292
H61	H	1.542070	-0.491825	0.705324
H62	H	1.577450	-1.031654	0.424110
H63	H	1.358775	-0.315747	0.763794
C64	C	1.345249	-0.621724	0.191726
H65	H	1.353704	-0.577850	0.200224
H66	H	1.369888	-0.640019	0.118391
H67	H	1.271919	-0.625042	0.216304
C68	C	1.602326	-0.481151	0.851670
H69	H	1.636614	-0.504420	0.895356
H70	H	1.567118	-0.508787	0.813550
H71	H	1.654071	-0.464770	0.802525
C72	C	0.838755	-0.330225	0.406680
H73	H	0.766009	-0.330495	0.406290
H74	H	0.847855	-0.334885	0.475723
H75	H	0.858858	-0.290798	0.388958
C76	C	1.101895	-0.452545	0.225961
H77	H	1.174642	-0.452269	0.226340
H78	H	1.081793	-0.491970	0.243668
H79	H	1.092796	-0.447876	0.156916
H80	H	1.023569	-0.315996	0.427653
H81	H	1.577264	-0.750070	0.424068
C82	C	1.345345	-0.759787	0.191742
H83	H	1.353867	-0.803639	0.200240
H84	H	1.272006	-0.741561	0.216303
H85	H	1.369984	-0.756533	0.118399
C86	C	1.594444	-1.160292	0.441098
H87	H	1.629728	-1.131251	0.476427
H88	H	1.547943	-1.178447	0.492526
H89	H	1.645909	-1.193423	0.394609
