data_functionalizedCrystal
_audit_creation_method	'MofGen! by Chris Wilmer'
_symmetry_space_group_name_H-M	'P1'
_symmetry_Int_Tables_number	1
_symmetry_cell_setting	triclinic
loop_
_symmetry_equiv_pos_as_xyz
  x,y,z
_cell_length_a	15.995350
_cell_length_b	14.519709
_cell_length_c	12.996460
_cell_angle_alpha	90.007090
_cell_angle_beta	90.000784
_cell_angle_gamma	96.413740
loop_
_atom_site_label
_atom_site_type_symbol
_atom_site_fract_x
_atom_site_fract_y
_atom_site_fract_z
O1	O	1.111165	-0.118875	-0.085417
O2	O	1.611165	0.381125	0.414583
O3	O	0.867411	-0.133554	-0.085453
O4	O	1.367411	0.366446	0.414547
O5	O	0.995751	0.008036	-0.085425
O6	O	1.495751	0.508036	0.414575
O7	O	0.982825	-0.260465	-0.085445
O8	O	1.482825	0.239535	0.414555
O9	O	0.995737	0.008044	0.085709
O10	O	1.495737	0.508044	0.585709
O11	O	0.867398	-0.133546	0.085681
O12	O	1.367398	0.366454	0.585681
O13	O	1.111151	-0.118867	0.085717
O14	O	1.611151	0.381133	0.585717
Cu15	Cu	0.989273	-0.126206	0.101325
Cu16	Cu	1.489273	0.373794	0.601325
Cu17	Cu	0.989289	-0.126215	-0.101061
Cu18	Cu	1.489289	0.373785	0.398939
O19	O	0.982812	-0.260457	0.085689
O20	O	1.482812	0.239543	0.585689
C21	C	0.836209	-0.132943	0.000110
C22	C	1.336209	0.367057	0.500110
C23	C	0.743256	-0.131124	0.000096
C24	C	1.243256	0.368876	0.500096
C25	C	0.995142	0.042398	0.000142
C26	C	1.495142	0.542398	0.500142
C27	C	0.993337	0.144776	0.000143
C28	C	1.493337	0.644776	0.500143
C29	C	1.142354	-0.119478	0.000152
C30	C	1.642354	0.380522	0.500152
C31	C	1.235307	-0.121297	0.000159
C32	C	1.735307	0.378703	0.500159
C33	C	1.573064	-0.127831	0.000117
C34	C	2.073064	0.372169	0.500117
C35	C	1.525781	-0.228669	0.000496
C36	C	2.025781	0.271331	0.500496
C37	C	1.429088	-0.226849	0.000121
C38	C	1.929088	0.273151	0.500121
C39	C	1.405499	-0.124590	0.000138
C40	C	1.905499	0.375410	0.500138
C41	C	1.446492	-0.074858	-0.097585
C42	C	1.946492	0.425142	0.402415
C43	C	1.543132	-0.077391	-0.097678
C44	C	2.043132	0.422609	0.402322
C45	C	1.543505	-0.075299	0.096933
C46	C	2.043505	0.424701	0.596933
C47	C	1.446560	-0.075323	0.098235
C48	C	1.946560	0.424677	0.598235
C49	C	1.310798	-0.122753	0.000147
C50	C	1.810798	0.377247	0.500147
C51	C	1.667765	-0.129665	0.000101
C52	C	2.167765	0.370335	0.500101
C53	C	0.983421	-0.294819	0.000120
C54	C	1.483421	0.205181	0.500120
C55	C	0.985226	-0.397197	0.000113
C56	C	1.485226	0.102803	0.500113
N57	N	0.989268	-0.126199	0.243672
N58	N	1.489268	0.373801	0.743672
C59	C	0.986691	0.519660	0.000115
C60	C	1.486691	1.019660	0.500115
C61	C	0.988537	0.415355	0.000123
C62	C	1.488537	0.915355	0.500123
C63	C	0.990014	0.332221	0.000130
C64	C	1.490014	0.832221	0.500130
C65	C	0.991859	0.227910	0.000136
C66	C	1.491859	0.727910	0.500136
N67	N	0.989301	-0.126215	-0.243408
N68	N	1.489301	0.373785	0.256592
C69	C	0.989288	-0.126216	0.663486
C70	C	1.489288	0.373784	1.163486
C71	C	0.989280	-0.126214	0.546681
C72	C	1.489280	0.373786	1.046681
C73	C	0.989279	-0.126208	0.453583
C74	C	1.489279	0.373792	0.953583
C75	C	0.989270	-0.126205	0.336770
C76	C	1.489270	0.373795	0.836770
H77	H	1.400731	-0.265947	0.070170
H78	H	1.900731	0.234053	0.570170
H79	H	1.432254	0.000269	-0.101207
H80	H	1.932254	0.500269	0.398793
Cl81	Cl	1.556108	-0.290626	-0.107110
Cl82	Cl	2.056108	0.209374	0.392890
H83	H	1.418132	-0.109382	-0.170311
H84	H	1.918132	0.390618	0.329689
H85	H	1.544381	-0.268970	0.070568
H86	H	2.044381	0.231030	0.570568
H87	H	1.401276	-0.266208	-0.070053
H88	H	1.901276	0.233792	0.429947
H89	H	1.561480	-0.113665	-0.170735
H90	H	2.061480	0.386335	0.329265
Cl91	Cl	1.592381	0.039481	0.097970
Cl92	Cl	2.092381	0.539481	0.597970
Cl93	Cl	1.592752	0.036907	-0.104534
Cl94	Cl	2.092752	0.536907	0.395466
Cl95	Cl	1.575305	-0.126194	0.211282
Cl96	Cl	2.075305	0.373806	0.711282
Cl97	Cl	1.404507	-0.131385	0.209857
Cl98	Cl	1.904507	0.368615	0.709857
H99	H	1.431089	-0.000751	0.104147
H100	H	1.931089	0.499249	0.604147
