data_functionalizedCrystal
_audit_creation_method	'MofGen! by Chris Wilmer'
_symmetry_space_group_name_H-M	'P1'
_symmetry_Int_Tables_number	1
_symmetry_cell_setting	triclinic
loop_
_symmetry_equiv_pos_as_xyz
  x,y,z
_cell_length_a	16.109301
_cell_length_b	16.109301
_cell_length_c	13.448316
_cell_angle_alpha	89.994921
_cell_angle_beta	89.997643
_cell_angle_gamma	83.461481
loop_
_atom_site_label
_atom_site_type_symbol
_atom_site_fract_x
_atom_site_fract_y
_atom_site_fract_z
O1	O	1.103133	0.106866	-0.082632
O2	O	0.861071	0.120165	-0.082648
O3	O	0.988751	-0.007516	-0.082630
O4	O	0.975452	0.234546	-0.082651
O5	O	0.988739	-0.007517	0.082754
O6	O	0.861058	0.120164	0.082735
O7	O	1.103120	0.106865	0.082752
Cu8	Cu	0.982088	0.113514	0.097844
Cu9	Cu	0.982103	0.113515	-0.097741
O10	O	0.975439	0.234545	0.082733
C11	C	0.830090	0.119626	0.000042
C12	C	0.737794	0.118011	0.000036
C13	C	0.515522	0.190018	0.000041
C14	C	0.428801	0.188494	0.000048
C15	C	0.448676	0.037006	0.000057
C16	C	0.535394	0.038530	0.000057
C17	C	0.568815	0.115039	0.000044
C18	C	0.395376	0.111990	0.000050
C19	C	0.301350	0.110337	0.000057
C20	C	0.662847	0.116693	0.000039
C21	C	0.988206	-0.038491	0.000063
C22	C	0.986591	-0.130786	0.000064
C23	C	1.058599	-0.353059	0.000053
C24	C	1.057075	-0.439779	0.000045
C25	C	0.905586	-0.419905	0.000039
C26	C	0.907111	-0.333186	0.000040
C27	C	0.983620	-0.299766	0.000052
C28	C	0.980571	-0.473205	0.000043
C29	C	0.978918	-0.567231	0.000034
C30	C	0.985273	-0.205734	0.000059
C31	C	1.134101	0.107404	0.000060
C32	C	1.226397	0.109019	0.000059
C33	C	0.975984	0.265521	0.000038
C34	C	0.977600	0.357816	0.000031
N35	N	0.982083	0.113513	0.235409
N36	N	0.982114	0.113510	-0.235305
C37	C	1.032490	0.163956	0.287444
C38	C	1.032501	0.163952	0.391547
C39	C	0.982099	0.113509	0.443613
C40	C	0.931690	0.063061	0.391571
C41	C	0.931685	0.063060	0.287470
C42	C	0.931703	0.063066	0.608551
C43	C	0.931707	0.063067	0.712660
C44	C	1.032519	0.163958	0.712628
C45	C	1.032514	0.163958	0.608527
C46	C	0.982103	0.113510	0.556492
H47	H	0.421454	-0.025285	0.000073
C48	C	0.821431	-0.456676	0.000044
N49	N	0.758043	-0.484371	0.000056
H50	H	0.890665	0.021994	0.755049
C51	C	0.370182	0.270977	0.000049
N52	N	0.326030	0.333108	0.000052
C53	C	0.824624	-0.274560	0.000034
N54	N	0.762497	-0.230402	0.000025
C55	C	1.087937	0.219447	0.230180
N56	N	1.129705	0.261242	0.187052
C57	C	1.087919	0.219476	0.448781
N58	N	1.129651	0.261311	0.491888
H59	H	1.073551	0.205036	0.566137
C60	C	1.087975	0.219447	0.769869
N61	N	1.129741	0.261241	0.812987
C62	C	0.594021	-0.043957	0.000061
N63	N	0.638178	-0.106083	0.000067
H64	H	0.890655	0.021985	0.566187
C65	C	1.142761	-0.316300	0.000056
N66	N	1.206154	-0.288615	0.000053
H67	H	1.118130	-0.483168	0.000044
C68	C	0.876246	0.007575	0.448848
N69	N	0.834481	-0.034215	0.491988
C70	C	0.876231	0.007571	0.230232
N71	N	0.834463	-0.034227	0.187122
H72	H	0.542730	0.252317	0.000038
