data_functionalizedCrystal
_audit_creation_method	'MofGen! by Chris Wilmer'
_symmetry_space_group_name_H-M	'P1'
_symmetry_Int_Tables_number	1
_symmetry_cell_setting	triclinic
loop_
_symmetry_equiv_pos_as_xyz
  x,y,z
_cell_length_a	12.759401
_cell_length_b	29.839131
_cell_length_c	12.759393
_cell_angle_alpha	89.964284
_cell_angle_beta	89.980186
_cell_angle_gamma	90.042945
loop_
_atom_site_label
_atom_site_type_symbol
_atom_site_fract_x
_atom_site_fract_y
_atom_site_fract_z
Zn1	Zn	1.606060	-0.178818	-0.593974
Zn2	Zn	1.605872	-0.253954	-0.418275
Zn3	Zn	1.430362	-0.178841	-0.418309
Zn4	Zn	1.430268	-0.253924	-0.593912
O5	O	1.518141	-0.216384	-0.506117
O6	O	1.753056	-0.188788	-0.570679
O7	O	1.582551	-0.244012	-0.271258
O8	O	1.453786	-0.115971	-0.441652
O9	O	1.752918	-0.243990	-0.441593
O10	O	1.582871	-0.115954	-0.570712
O11	O	1.453604	-0.188827	-0.271283
O12	O	1.283328	-0.188797	-0.441592
O13	O	1.453627	-0.243939	-0.740941
O14	O	1.283260	-0.243961	-0.570606
O15	O	1.582780	-0.188759	-0.740987
O16	O	1.582460	-0.316817	-0.441533
O17	O	1.453445	-0.316795	-0.570573
C18	C	1.245173	-0.216379	-0.506097
C19	C	1.128397	-0.216387	-0.506113
C20	C	1.073526	-0.245154	-0.573185
C21	C	0.963802	-0.245156	-0.573206
C22	C	0.963828	-0.187622	-0.439073
C23	C	1.073550	-0.187618	-0.439058
C24	C	0.813886	-0.261277	-0.697062
C25	C	0.759012	-0.290052	-0.764125
C26	C	0.794562	-0.333895	-0.780061
C27	C	0.884984	-0.348972	-0.728920
C28	C	0.939852	-0.320200	-0.661849
C29	C	0.904304	-0.276351	-0.645932
C30	C	1.223468	-0.171502	-0.315200
C31	C	1.278339	-0.142732	-0.248124
C32	C	1.242791	-0.098888	-0.232176
C33	C	1.152366	-0.083812	-0.283300
C34	C	1.097496	-0.112582	-0.350376
C35	C	1.133051	-0.156425	-0.366325
C36	C	1.517951	-0.333107	-0.506065
C37	C	1.517966	-0.383041	-0.506078
C38	C	1.585441	-0.692683	-0.439024
C39	C	1.585571	-0.880356	-0.439065
O40	O	1.642790	-0.904620	-0.382014
N41	N	1.518358	-0.903826	-0.506197
C42	C	1.451114	-0.880375	-0.573327
O43	O	1.393956	-0.904644	-0.630435
C44	C	1.450990	-0.692703	-0.573291
C45	C	1.518199	-0.669235	-0.506148
C46	C	1.652646	-0.669216	-0.371888
C47	C	1.652608	-0.622300	-0.371874
C48	C	1.585367	-0.598852	-0.438997
C49	C	1.518162	-0.622320	-0.506134
C50	C	1.383752	-0.669252	-0.640427
C51	C	1.383728	-0.622331	-0.640413
C52	C	1.450938	-0.598864	-0.573270
C53	C	1.450883	-0.551956	-0.573244
N54	N	1.518096	-0.528487	-0.506113
C55	C	1.585337	-0.551935	-0.438989
C56	C	1.451182	-0.978905	-0.573340
C57	C	1.451211	-1.025823	-0.573348
C58	C	1.585670	-1.025802	-0.439087
C59	C	1.585634	-0.978883	-0.439075
C60	C	1.518394	-0.955436	-0.506209
C61	C	1.585254	-0.453409	-0.438965
C62	C	1.585207	-0.406489	-0.438955
C63	C	1.450753	-0.406515	-0.573219
C64	C	1.450795	-0.453431	-0.573226
C65	C	1.518054	-0.476876	-0.506096
O66	O	1.393702	-0.527664	-0.630274
O67	O	1.642503	-0.527658	-0.381907
C68	C	1.585478	-0.739599	-0.439038
C69	C	1.518274	-0.763066	-0.506175
C70	C	1.451032	-0.739618	-0.573298
C71	C	1.518303	-0.809984	-0.506183
C72	C	1.585545	-0.833432	-0.439060
C73	C	1.652757	-0.809962	-0.371928
C74	C	1.652720	-0.763047	-0.371915
C75	C	1.383820	-0.763088	-0.640430
C76	C	1.383861	-0.810003	-0.640437
C77	C	1.451103	-0.833452	-0.573314
C78	C	1.792174	-0.216390	-0.506139
C79	C	1.908950	-0.216392	-0.506148
C80	C	1.518214	-0.216343	-0.780151
C81	C	1.518245	-0.216326	-0.896928
C82	C	1.518360	-0.099206	-0.506193
C83	C	1.518453	-0.049271	-0.506225
C84	C	1.585391	-0.245048	-0.951780
C85	C	1.585422	-0.245026	-1.061504
C86	C	1.451151	-0.187558	-1.061514
C87	C	1.451127	-0.187578	-0.951791
C88	C	1.709330	-0.261053	-1.211463
C89	C	1.776467	-0.289783	-1.266319
C90	C	1.792506	-0.333625	-1.230690
C91	C	1.741392	-0.348748	-1.140207
C92	C	1.674247	-0.320021	-1.085357
C93	C	1.658229	-0.276172	-1.120984
C94	C	1.327217	-0.171555	-0.801831
C95	C	1.260066	-0.142831	-0.746979
C96	C	1.244017	-0.098987	-0.782605
C97	C	1.295112	-0.083866	-0.873091
C98	C	1.362263	-0.112591	-0.927944
C99	C	1.378314	-0.156434	-0.892310
C100	C	1.518128	-0.216392	-0.233150
C101	C	1.518300	-0.216283	-0.116374
H102	H	0.685391	-0.277771	-0.805765
C103	C	0.998030	-0.096001	-0.406618
H104	H	0.970440	-0.119416	-0.448842
H105	H	1.015011	-0.071031	-0.449625
H106	H	0.947265	-0.087334	-0.356074
H107	H	1.287472	-0.075466	-0.177548
C108	C	1.726612	-0.695002	-0.298039
H109	H	1.766620	-0.674299	-0.258055
H110	H	1.772388	-0.713274	-0.338256
H111	H	1.686451	-0.713332	-0.252221
C112	C	0.903499	-0.155981	-0.365312
H113	H	0.951896	-0.138844	-0.325371
H114	H	0.860647	-0.173143	-0.319466
H115	H	0.860748	-0.136427	-0.405599
H116	H	1.252427	-0.207202	-0.328189
C117	C	0.924080	-0.397202	-0.746446
H118	H	0.878457	-0.412176	-0.793722
H119	H	0.925076	-0.412740	-0.681452
H120	H	0.992830	-0.396442	-0.775001
H121	H	1.639937	-0.387383	-0.384275
C122	C	1.309828	-0.695056	-0.714293
H123	H	1.269794	-0.674365	-0.754272
H124	H	1.264075	-0.713394	-0.674084
H125	H	1.350015	-0.713324	-0.760116
H126	H	1.632628	-0.332334	-1.011690
C127	C	1.309931	-0.835815	-0.714300
H128	H	1.319573	-0.867116	-0.704700
H129	H	1.325271	-0.828092	-0.784897
H130	H	1.239337	-0.828163	-0.698859
C131	C	1.659640	-1.051598	-0.365255
H132	H	1.699668	-1.030905	-0.325265
H133	H	1.705397	-1.069869	-0.405499
H134	H	1.619483	-1.069932	-0.319441
H135	H	0.784940	-0.225575	-0.684103
H136	H	1.351967	-0.155011	-0.206496
H137	H	1.640024	-0.472493	-0.384304
C138	C	1.039309	-0.336780	-0.605600
H139	H	1.052626	-0.367013	-0.624697
H140	H	1.029462	-0.334925	-0.531932
H141	H	1.097208	-0.318633	-0.625493
C142	C	1.277464	-0.035638	-0.912284
H143	H	1.230162	-0.020695	-0.866652
H144	H	1.248919	-0.036396	-0.981011
H145	H	1.342424	-0.020066	-0.913350
C146	C	1.113261	-0.035584	-0.265765
H147	H	1.158896	-0.020607	-0.218504
H148	H	1.044516	-0.036342	-0.237213
H149	H	1.112267	-0.020044	-0.330763
H150	H	1.218453	-0.155147	-0.673306
C151	C	1.759028	-0.396978	-1.101026
H152	H	1.806342	-0.411919	-1.146648
H153	H	1.694070	-0.412547	-1.099962
H154	H	1.787574	-0.396220	-1.032294
C155	C	1.376802	-0.380718	-0.647062
H156	H	1.336774	-0.401412	-0.687051
H157	H	1.416970	-0.362385	-0.692859
H158	H	1.331027	-0.362447	-0.606829
C159	C	1.726720	-0.835761	-0.298093
H160	H	1.717112	-0.867064	-0.307729
H161	H	1.711382	-0.828104	-0.227485
H162	H	1.797302	-0.828038	-0.313537
H163	H	1.118179	-0.268579	-0.627787
H164	H	1.847164	-0.357018	-1.275367
C165	C	1.832697	-0.273147	-1.365837
H166	H	1.813547	-0.242917	-1.379192
H167	H	1.812869	-0.291288	-1.423692
H168	H	1.906372	-0.274968	-1.356013
H169	H	1.396071	-0.472539	-0.627903
C170	C	1.691697	-0.212824	-1.250647
H171	H	1.644400	-0.197878	-1.205015
H172	H	1.663153	-0.213580	-1.319375
H173	H	1.756663	-0.197256	-1.251710
C174	C	1.309763	-0.596540	-0.714260
H175	H	1.319368	-0.565236	-0.704648
H176	H	1.239186	-0.604267	-0.698829
H177	H	1.325120	-0.604201	-0.784868
C178	C	1.726552	-0.596492	-0.298029
H179	H	1.766607	-0.617182	-0.258068
H180	H	1.686390	-0.578219	-0.252204
H181	H	1.772301	-0.578160	-0.338265
C182	C	1.170147	-0.067391	-0.722270
H183	H	1.142011	-0.082674	-0.663276
H184	H	1.114686	-0.058168	-0.766983
H185	H	1.208186	-0.041839	-0.699312
H186	H	1.340285	-0.207256	-0.772811
H187	H	1.396504	-0.164153	-1.106197
H188	H	1.403880	-0.100273	-1.001614
C189	C	1.377277	-1.051635	-0.647197
H190	H	1.386913	-1.082936	-0.637591
H191	H	1.392612	-1.043915	-0.717797
H192	H	1.306686	-1.043980	-0.631751
C193	C	0.734207	-0.365544	-0.853834
H194	H	0.675270	-0.350285	-0.882012
H195	H	0.711179	-0.391081	-0.815738
H196	H	0.778936	-0.374783	-0.909284
H197	H	1.640362	-0.959778	-0.384402
H198	H	1.707448	-0.743943	-0.317241
H199	H	1.396424	-0.959818	-0.628010
H200	H	1.329064	-0.744000	-0.695091
H201	H	1.640053	-0.268452	-0.907113
