data_functionalizedCrystal
_audit_creation_method	'MofGen! by Chris Wilmer'
_symmetry_space_group_name_H-M	'P1'
_symmetry_Int_Tables_number	1
_symmetry_cell_setting	triclinic
loop_
_symmetry_equiv_pos_as_xyz
  x,y,z
_cell_length_a	6.817900
_cell_length_b	14.135239
_cell_length_c	17.334958
_cell_angle_alpha	90.790841
_cell_angle_beta	103.532433
_cell_angle_gamma	120.424355
loop_
_atom_site_label
_atom_site_type_symbol
_atom_site_fract_x
_atom_site_fract_y
_atom_site_fract_z
V1	V	-4.240153	-0.342356	-0.111636
O2	O	-4.223668	-0.335955	0.003440
O3	O	-4.190150	-0.339902	-0.219505
O4	O	-4.284848	-0.491720	-0.110763
O5	O	-4.128315	-0.183086	-0.106054
V6	V	-4.711926	-0.323319	-0.097772
O7	O	-4.527187	-0.384113	-0.142049
O8	O	-4.875090	-0.281562	-0.067360
O9	O	-4.538723	-0.325773	0.010097
O10	O	-4.845809	-0.329719	-0.212849
O11	O	-4.941162	-0.482589	-0.103354
O12	O	-4.444025	-0.173955	-0.098645
C13	C	-4.031749	-0.334472	-0.245775
C14	C	-4.072773	-0.333461	-0.333965
C15	C	-4.152556	-0.528130	-0.107060
C16	C	-4.272585	-0.652530	-0.107059
V17	V	-4.211141	-0.840691	-0.097772
O18	O	-4.139063	-0.687686	-0.103358
O19	O	-4.225487	-0.983840	-0.098643
O20	O	-3.982165	-0.785353	0.010094
O21	O	-4.384070	-0.887547	-0.212848
V22	V	-4.734150	-0.854308	-0.111629
O23	O	-4.453447	-0.880960	-0.067355
O24	O	-4.965086	-0.837926	-0.142038
O25	O	-4.485173	-0.699317	-0.110762
O26	O	-4.929635	-1.013542	-0.106042
O27	O	-4.684628	-0.813681	0.003448
O28	O	-4.728495	-0.897803	-0.219499
C29	C	-4.239653	-0.137539	-0.102346
C30	C	-4.098474	-0.013138	-0.102345
C31	C	-4.360464	-0.331200	0.036363
C32	C	-4.298683	-0.332218	0.124552
C33	C	-3.773802	-0.759582	0.036357
C34	C	-3.672465	-0.719615	0.124545
C35	C	-4.582977	-0.905719	-0.245771
C36	C	-4.662492	-0.944583	-0.333960
C37	C	-4.438832	-0.327216	0.170054
C38	C	-4.380748	-0.328155	0.252919
C39	C	-4.182525	-0.334103	0.290279
C40	C	-4.042362	-0.339102	0.244770
C41	C	-4.100437	-0.338155	0.161908
C42	C	-3.990686	-0.337513	0.537665
C43	C	-3.932624	-0.338463	0.620533
C44	C	-4.271012	-0.327514	0.628676
C45	C	-4.329081	-0.326574	0.545811
C46	C	-4.188907	-0.331567	0.500311
N47	N	-4.123154	-0.335066	0.374979
N48	N	-4.248269	-0.330596	0.415612
C49	C	-3.811980	-0.713929	0.170036
C50	C	-3.716782	-0.676362	0.252897
C51	C	-3.482073	-0.644489	0.290266
C52	C	-3.342549	-0.650172	0.244769
C53	C	-3.437742	-0.687731	0.161908
C54	C	-4.514045	-0.957097	-0.371315
C55	C	-4.588714	-0.993597	-0.454179
C56	C	-4.811837	-1.017590	-0.499686
C57	C	-4.960290	-1.005071	-0.462326
C58	C	-4.885614	-0.968564	-0.379464
H59	H	-4.600249	-0.322379	0.139641
H60	H	-3.324119	-0.692362	0.124876
H61	H	-4.003097	-0.739879	0.139621
H62	H	-5.006517	-0.958384	-0.349056
O63	O	-3.114498	-0.619048	0.281150
C64	C	-2.985730	-0.506816	0.317531
H65	H	-3.113096	-0.482639	0.329694
H66	H	-2.853693	-0.495055	0.376626
H67	H	-2.886276	-0.452000	0.275693
H68	H	-4.490491	-0.321732	0.515398
O69	O	-4.884043	-1.053093	-0.580164
C70	C	-4.705130	-1.058966	-0.603370
H71	H	-4.586839	-1.067826	-0.549180
H72	H	-4.789704	-1.133891	-0.652226
H73	H	-4.594178	-0.979932	-0.627470
O74	O	-3.389457	-0.608131	0.370770
C75	C	-3.317572	-0.678140	0.407524
H76	H	-3.283978	-0.722043	0.361170
H77	H	-3.147865	-0.626403	0.458428
H78	H	-3.462739	-0.742584	0.432694
H79	H	-4.332364	-0.937571	-0.334273
H80	H	-4.467810	-1.003789	-0.484585
H81	H	-4.494883	-0.324086	0.289963
O82	O	-5.177005	-1.028485	-0.506648
C83	C	-5.211033	-1.063370	-0.587794
H84	H	-5.091471	-1.096563	-0.591473
H85	H	-5.403973	-1.131770	-0.615563
H86	H	-5.165174	-0.989987	-0.621963
O87	O	-3.854899	-0.342514	0.493367
C88	C	-3.994630	-0.437865	0.433919
H89	H	-4.188991	-0.464826	0.421279
H90	H	-3.937704	-0.418021	0.376465
H91	H	-3.970186	-0.507848	0.455940
O92	O	-4.406835	-0.322457	0.672936
C93	C	-4.267059	-0.227131	0.732406
H94	H	-4.107278	-0.163168	0.713007
H95	H	-4.376995	-0.190217	0.740738
H96	H	-4.203882	-0.250924	0.791560
O97	O	-3.851985	-0.670741	0.297197
C98	C	-3.717681	-0.630778	0.378349
H99	H	-3.521027	-0.581583	0.382051
H100	H	-3.766014	-0.574586	0.406098
H101	H	-3.757399	-0.703848	0.412521
O102	O	-3.740317	-0.344435	0.656836
C103	C	-3.812883	-0.440861	0.693250
H104	H	-4.007664	-0.504257	0.662699
H105	H	-3.701616	-0.477789	0.686799
H106	H	-3.788047	-0.418510	0.759695
H107	H	-3.986337	-0.342251	0.124858
O108	O	-3.849686	-0.344730	0.281167
C109	C	-3.689661	-0.250035	0.340127
H110	H	-3.789085	-0.213563	0.359840
H111	H	-3.603378	-0.274515	0.394133
H112	H	-3.547121	-0.185458	0.314086
