data_functionalizedCrystal
_audit_creation_method	'MofGen! by Chris Wilmer'
_symmetry_space_group_name_H-M	'P1'
_symmetry_Int_Tables_number	1
_symmetry_cell_setting	triclinic
loop_
_symmetry_equiv_pos_as_xyz
  x,y,z
_cell_length_a	27.732048
_cell_length_b	18.366186
_cell_length_c	19.288857
_cell_angle_alpha	89.991598
_cell_angle_beta	82.887882
_cell_angle_gamma	89.996446
loop_
_atom_site_label
_atom_site_type_symbol
_atom_site_fract_x
_atom_site_fract_y
_atom_site_fract_z
O1	O	0.641178	-0.060459	0.082650
O2	O	0.891178	0.189541	0.332650
O3	O	1.141178	0.439541	0.582650
O4	O	1.391178	0.689541	0.832650
O5	O	0.500423	-0.060482	0.095216
O6	O	0.750423	0.189518	0.345216
O7	O	1.000423	0.439518	0.595216
O8	O	1.250423	0.689518	0.845216
O9	O	0.574870	-0.060461	-0.012223
O10	O	0.824870	0.189539	0.237777
O11	O	1.074870	0.439539	0.487777
O12	O	1.324870	0.689539	0.737777
O13	O	0.566731	-0.060480	0.190089
O14	O	0.816731	0.189520	0.440089
O15	O	1.066731	0.439520	0.690089
O16	O	1.316731	0.689520	0.940089
O17	O	0.574857	0.060638	-0.012228
O18	O	0.824857	0.310638	0.237772
O19	O	1.074857	0.560638	0.487772
O20	O	1.324857	0.810638	0.737772
O21	O	0.500410	0.060618	0.095211
O22	O	0.750410	0.310618	0.345211
O23	O	1.000410	0.560618	0.595211
O24	O	1.250410	0.810618	0.845211
O25	O	0.641166	0.060640	0.082644
O26	O	0.891166	0.310640	0.332644
O27	O	1.141166	0.560640	0.582644
O28	O	1.391166	0.810640	0.832644
Zn29	Zn	0.570786	0.079856	0.088927
Zn30	Zn	0.820786	0.329856	0.338927
Zn31	Zn	1.070786	0.579856	0.588927
Zn32	Zn	1.320786	0.829856	0.838927
Zn33	Zn	0.570802	-0.079698	0.088934
Zn34	Zn	0.820802	0.170302	0.338934
Zn35	Zn	1.070802	0.420302	0.588934
Zn36	Zn	1.320802	0.670302	0.838934
O37	O	0.566719	0.060619	0.190084
O38	O	0.816719	0.310619	0.440084
O39	O	1.066719	0.560619	0.690084
O40	O	1.316719	0.810619	0.940084
C41	C	0.482409	0.000065	0.094950
C42	C	0.732409	0.250065	0.344950
C43	C	0.982409	0.500065	0.594950
C44	C	1.232409	0.750065	0.844950
C45	C	0.428751	0.000057	0.094156
C46	C	0.678751	0.250057	0.344156
C47	C	0.928751	0.500057	0.594156
C48	C	1.178751	0.750057	0.844156
N49	N	0.570778	0.188747	0.088922
N50	N	0.820778	0.438747	0.338922
N51	N	1.070778	0.688747	0.588922
N52	N	1.320778	0.938747	0.838922
N53	N	0.570814	-0.188589	0.088933
N54	N	0.820814	0.061411	0.338933
N55	N	1.070814	0.311411	0.588933
N56	N	1.320814	0.561411	0.838933
C57	C	0.090112	0.000083	0.152645
C58	C	0.340112	0.250083	0.402645
C59	C	0.590112	0.500083	0.652645
C60	C	0.840112	0.750083	0.902645
C61	C	-0.111557	0.000090	0.149697
C62	C	0.138443	0.250090	0.399697
C63	C	0.388443	0.500090	0.649697
C64	C	0.638443	0.750090	0.899697
O65	O	-0.142652	0.000116	0.203181
O66	O	0.107348	0.250116	0.453181
O67	O	0.357348	0.500116	0.703181
O68	O	0.607348	0.750116	0.953181
N69	N	-0.130872	0.000094	0.085990
N70	N	0.119128	0.250094	0.335990
N71	N	0.369128	0.500094	0.585990
N72	N	0.619128	0.750094	0.835990
C73	C	-0.099766	0.000102	0.023015
C74	C	0.150234	0.250102	0.273015
C75	C	0.400234	0.500102	0.523015
C76	C	0.650234	0.750102	0.773015
O77	O	-0.120822	0.000114	-0.031239
O78	O	0.129178	0.250114	0.218761
O79	O	0.379178	0.500114	0.468761
O80	O	0.629178	0.750114	0.718761
C81	C	0.101901	0.000100	0.025963
C82	C	0.351901	0.250100	0.275963
C83	C	0.601901	0.500100	0.525963
C84	C	0.851901	0.750100	0.775963
C85	C	0.121213	0.000088	0.089675
C86	C	0.371213	0.250088	0.339675
C87	C	0.621213	0.500088	0.589675
C88	C	0.871213	0.750088	0.839675
C89	C	0.109424	0.000072	0.216351
C90	C	0.359424	0.250072	0.466351
C91	C	0.609424	0.500072	0.716351
C92	C	0.859424	0.750072	0.966351
C93	C	0.159838	0.000066	0.217087
C94	C	0.409838	0.250066	0.467087
C95	C	0.659838	0.500066	0.717087
C96	C	0.909838	0.750066	0.967087
C97	C	0.190940	0.000072	0.154117
C98	C	0.440940	0.250072	0.404117
C99	C	0.690940	0.500072	0.654117
C100	C	0.940940	0.750072	0.904117
C101	C	0.171628	0.000083	0.090411
C102	C	0.421628	0.250083	0.340411
C103	C	0.671628	0.500083	0.590411
C104	C	0.921628	0.750083	0.840411
C105	C	0.133006	0.000113	-0.037011
C106	C	0.383006	0.250113	0.212989
C107	C	0.633006	0.500113	0.462989
C108	C	0.883006	0.750113	0.712989
C109	C	0.183426	0.000115	-0.036268
C110	C	0.433426	0.250115	0.213732
C111	C	0.683426	0.500115	0.463732
C112	C	0.933426	0.750115	0.713732
C113	C	0.202738	0.000103	0.027443
C114	C	0.452738	0.250103	0.277443
C115	C	0.702738	0.500103	0.527443
C116	C	0.952738	0.750103	0.777443
C117	C	0.253143	0.000083	0.028177
C118	C	0.503143	0.250083	0.278177
C119	C	0.753143	0.500083	0.528177
C120	C	1.003143	0.750083	0.778177
N121	N	0.272458	0.000078	0.091884
N122	N	0.522458	0.250078	0.341884
N123	N	0.772458	0.500078	0.591884
N124	N	1.022458	0.750078	0.841884
C125	C	0.241357	0.000073	0.154854
C126	C	0.491357	0.250073	0.404854
C127	C	0.741357	0.500073	0.654854
C128	C	0.991357	0.750073	0.904854
C129	C	-0.205645	0.000101	0.021472
C130	C	0.044355	0.250101	0.271472
C131	C	0.294355	0.500101	0.521472
C132	C	0.544355	0.750101	0.771472
C133	C	-0.256061	0.000101	0.020735
C134	C	-0.006061	0.250101	0.270735
C135	C	0.243939	0.500101	0.520735
C136	C	0.493939	0.750101	0.770735
C137	C	-0.267849	0.000090	0.147417
C138	C	-0.017849	0.250090	0.397417
C139	C	0.232151	0.500090	0.647417
C140	C	0.482151	0.750090	0.897417
C141	C	-0.217431	0.000085	0.148154
C142	C	0.032569	0.250085	0.398154
C143	C	0.282569	0.500085	0.648154
C144	C	0.532569	0.750085	0.898154
C145	C	-0.186330	0.000097	0.085179
C146	C	0.063670	0.250097	0.335179
C147	C	0.313670	0.500097	0.585179
C148	C	0.563670	0.750097	0.835179
C149	C	0.347231	0.000060	0.156395
C150	C	0.597231	0.250060	0.406395
C151	C	0.847231	0.500060	0.656395
C152	C	1.097231	0.750060	0.906395
C153	C	0.397650	0.000051	0.157126
C154	C	0.647650	0.250051	0.407126
C155	C	0.897650	0.500051	0.657126
C156	C	1.147650	0.750051	0.907126
C157	C	0.409432	0.000066	0.030444
C158	C	0.659432	0.250066	0.280444
C159	C	0.909432	0.500066	0.530444
C160	C	1.159432	0.750066	0.780444
C161	C	0.359018	0.000071	0.029713
C162	C	0.609018	0.250071	0.279713
C163	C	0.859018	0.500071	0.529713
C164	C	1.109018	0.750071	0.779713
C165	C	0.327917	0.000070	0.092694
C166	C	0.577917	0.250070	0.342694
C167	C	0.827917	0.500070	0.592694
C168	C	1.077917	0.750070	0.842694
O169	O	0.284267	0.000064	-0.025278
O170	O	0.534267	0.250064	0.224722
O171	O	0.784267	0.500064	0.474722
O172	O	1.034267	0.750064	0.724722
O173	O	0.262422	0.000077	0.209101
O174	O	0.512422	0.250077	0.459101
O175	O	0.762422	0.500077	0.709101
O176	O	1.012422	0.750077	0.959101
C177	C	0.039698	0.000089	0.151909
C178	C	0.289698	0.250089	0.401909
C179	C	0.539698	0.500089	0.651909
C180	C	0.789698	0.750089	0.901909
C181	C	0.020385	0.000100	0.088202
C182	C	0.270385	0.250100	0.338202
C183	C	0.520385	0.500100	0.588202
C184	C	0.770385	0.750100	0.838202
C185	C	0.051487	0.000105	0.025232
C186	C	0.301487	0.250105	0.275232
C187	C	0.551487	0.500105	0.525232
C188	C	0.801487	0.750105	0.775232
C189	C	-0.030032	0.000099	0.087465
C190	C	0.219968	0.250099	0.337465
C191	C	0.469968	0.500099	0.587465
C192	C	0.719968	0.750099	0.837465
C193	C	-0.061133	0.000093	0.150435
C194	C	0.188867	0.250093	0.400435
C195	C	0.438867	0.500093	0.650435
C196	C	0.688867	0.750093	0.900435
C197	C	-0.041818	0.000089	0.214142
C198	C	0.208182	0.250089	0.464142
C199	C	0.458182	0.500089	0.714142
C200	C	0.708182	0.750089	0.964142
C201	C	0.008596	0.000083	0.214879
C202	C	0.258596	0.250083	0.464879
C203	C	0.508596	0.500083	0.714879
C204	C	0.758596	0.750083	0.964879
C205	C	0.032172	0.000110	-0.038475
C206	C	0.282172	0.250110	0.211525
C207	C	0.532172	0.500110	0.461525
C208	C	0.782172	0.750110	0.711525
C209	C	-0.018243	0.000115	-0.039206
C210	C	0.231757	0.250115	0.210794
C211	C	0.481757	0.500115	0.460794
C212	C	0.731757	0.750115	0.710794
C213	C	-0.049345	0.000109	0.023764
C214	C	0.200655	0.250109	0.273764
C215	C	0.450655	0.500109	0.523764
C216	C	0.700655	0.750109	0.773764
C217	C	0.659180	0.000092	0.082911
C218	C	0.909180	0.250092	0.332911
C219	C	1.159180	0.500092	0.582911
C220	C	1.409180	0.750092	0.832911
C221	C	0.712837	0.000095	0.083705
C222	C	0.962837	0.250095	0.333705
C223	C	1.212837	0.500095	0.583705
C224	C	1.462837	0.750095	0.833705
C225	C	0.574602	0.000089	-0.038101
C226	C	0.824602	0.250089	0.211899
C227	C	1.074602	0.500089	0.461899
C228	C	1.324602	0.750089	0.711899
C229	C	0.573818	0.000091	-0.115200
C230	C	0.823818	0.250091	0.134800
C231	C	1.073818	0.500091	0.384800
C232	C	1.323818	0.750091	0.634800
C233	C	0.603754	0.226857	0.041371
C234	C	0.853754	0.476857	0.291371
C235	C	1.103754	0.726857	0.541371
C236	C	1.353754	0.976857	0.791371
C237	C	0.603757	0.303084	0.041368
C238	C	0.853757	0.553084	0.291368
C239	C	1.103757	0.803084	0.541368
C240	C	1.353757	1.053084	0.791368
C241	C	0.570789	0.341200	0.088928
C242	C	0.820789	0.591200	0.338928
C243	C	1.070789	0.841200	0.588928
C244	C	1.320789	1.091200	0.838928
C245	C	0.537807	0.303081	0.136482
C246	C	0.787807	0.553081	0.386482
C247	C	1.037807	0.803081	0.636482
C248	C	1.287807	1.053081	0.886482
C249	C	0.537801	0.226855	0.136479
C250	C	0.787801	0.476855	0.386479
C251	C	1.037801	0.726855	0.636479
C252	C	1.287801	0.976855	0.886479
C253	C	0.564317	0.461954	0.152256
C254	C	0.814317	0.711954	0.402256
C255	C	1.064317	0.961954	0.652256
C256	C	1.314317	1.211954	0.902256
C257	C	0.564326	0.538179	0.152260
C258	C	0.814326	0.788179	0.402260
C259	C	1.064326	1.038179	0.652260
C260	C	1.314326	1.288179	0.902260
C261	C	0.570802	0.576307	0.088936
C262	C	0.820802	0.826307	0.338936
C263	C	1.070802	1.076307	0.588936
C264	C	1.320802	1.326307	0.838936
C265	C	0.577281	0.538202	0.025606
C266	C	0.827281	0.788202	0.275606
C267	C	1.077281	1.038202	0.525606
C268	C	1.327281	1.288202	0.775606
C269	C	0.577276	0.461975	0.025603
C270	C	0.827276	0.711975	0.275603
C271	C	1.077276	0.961975	0.525603
C272	C	1.327276	1.211975	0.775603
C273	C	0.570791	0.423855	0.088936
C274	C	0.820791	0.673855	0.338936
C275	C	1.070791	0.923855	0.588936
C276	C	1.320791	1.173855	0.838936
C277	C	0.603783	0.697072	0.041378
C278	C	0.853783	0.947072	0.291378
C279	C	1.103783	1.197072	0.541378
C280	C	1.353783	1.447072	0.791378
C281	C	0.603783	0.773301	0.041374
C282	C	0.853783	1.023301	0.291374
C283	C	1.103783	1.273301	0.541374
C284	C	1.353783	1.523301	0.791374
C285	C	0.537835	0.773296	0.136494
C286	C	0.787835	1.023296	0.386494
C287	C	1.037835	1.273296	0.636494
C288	C	1.287835	1.523296	0.886494
C289	C	0.537833	0.697068	0.136492
C290	C	0.787833	0.947068	0.386492
C291	C	1.037833	1.197068	0.636492
C292	C	1.287833	1.447068	0.886492
C293	C	0.570810	0.658961	0.088935
C294	C	0.820810	0.908961	0.338935
C295	C	1.070810	1.158961	0.588935
C296	C	1.320810	1.408961	0.838935
C297	C	0.573459	-0.065920	-0.151405
C298	C	0.823459	0.184080	0.098595
C299	C	1.073459	0.434080	0.348595
C300	C	1.323459	0.684080	0.598595
C301	C	0.572715	-0.065926	-0.223846
C302	C	0.822715	0.184074	0.026154
C303	C	1.072715	0.434074	0.276154
C304	C	1.322715	0.684074	0.526154
C305	C	0.572340	0.000084	-0.260082
C306	C	0.822340	0.250084	-0.010082
C307	C	1.072340	0.500084	0.239918
C308	C	1.322340	0.750084	0.489918
C309	C	0.572697	0.066104	-0.223867
C310	C	0.822697	0.316104	0.026133
C311	C	1.072697	0.566104	0.276133
C312	C	1.322697	0.816104	0.526133
C313	C	0.573435	0.066108	-0.151426
C314	C	0.823435	0.316108	0.098574
C315	C	1.073435	0.566108	0.348574
C316	C	1.323435	0.816108	0.598574
C317	C	0.599477	0.050656	-0.380484
C318	C	0.849477	0.300656	-0.130484
C319	C	1.099477	0.550656	0.119516
C320	C	1.349477	0.800656	0.369516
C321	C	0.598741	0.050649	-0.452925
C322	C	0.848741	0.300649	-0.202925
C323	C	1.098741	0.550649	0.047075
C324	C	1.348741	0.800649	0.297075
C325	C	0.570059	0.000075	-0.483513
C326	C	0.820059	0.250075	-0.233513
C327	C	1.070059	0.500075	0.016487
C328	C	1.320059	0.750075	0.266487
C329	C	0.542120	-0.050505	-0.441654
C330	C	0.792120	0.199495	-0.191654
C331	C	1.042120	0.449495	0.058346
C332	C	1.292120	0.699495	0.308346
C333	C	0.542859	-0.050501	-0.369213
C334	C	0.792859	0.199499	-0.119213
C335	C	1.042859	0.449499	0.130787
C336	C	1.292859	0.699499	0.380787
C337	C	0.571539	0.000087	-0.338632
C338	C	0.821539	0.250087	-0.088632
C339	C	1.071539	0.500087	0.161368
C340	C	1.321539	0.750087	0.411368
C341	C	0.568893	-0.065947	-0.598268
C342	C	0.818893	0.184053	-0.348268
C343	C	1.068893	0.434053	-0.098268
C344	C	1.318893	0.684053	0.151732
C345	C	0.568146	-0.065950	-0.670710
C346	C	0.818146	0.184050	-0.420710
C347	C	1.068146	0.434050	-0.170710
C348	C	1.318146	0.684050	0.079290
C349	C	0.568133	0.066082	-0.670730
C350	C	0.818133	0.316082	-0.420730
C351	C	1.068133	0.566082	-0.170730
C352	C	1.318133	0.816082	0.079270
C353	C	0.568874	0.066083	-0.598288
C354	C	0.818874	0.316083	-0.348288
C355	C	1.068874	0.566083	-0.098288
C356	C	1.318874	0.816083	0.151712
C357	C	0.569257	0.000067	-0.562062
C358	C	0.819257	0.250067	-0.312062
C359	C	1.069257	0.500067	-0.062062
C360	C	1.319257	0.750067	0.187938
C361	C	0.566986	0.000067	0.215961
C362	C	0.816986	0.250067	0.465961
C363	C	1.066986	0.500067	0.715961
C364	C	1.316986	0.750067	0.965961
C365	C	0.567770	0.000061	0.293060
C366	C	0.817770	0.250061	0.543060
C367	C	1.067770	0.500061	0.793060
C368	C	1.317770	0.750061	1.043060
H369	H	0.413370	0.000041	0.209009
H370	H	0.663370	0.250041	0.459009
H371	H	0.913370	0.500041	0.709009
H372	H	1.163370	0.750041	0.959009
Cl373	Cl	0.645207	0.178950	-0.018418
Cl374	Cl	0.895207	0.428950	0.231582
Cl375	Cl	1.145207	0.678950	0.481582
Cl376	Cl	1.395207	0.928950	0.731582
Cl377	Cl	0.572263	-0.148918	-0.269372
Cl378	Cl	0.822263	0.101082	-0.019372
Cl379	Cl	1.072263	0.351082	0.230628
Cl380	Cl	1.322263	0.601082	0.480628
Cl381	Cl	0.071264	0.000117	-0.117646
Cl382	Cl	0.321264	0.250117	0.132354
Cl383	Cl	0.571264	0.500117	0.382354
Cl384	Cl	0.821264	0.750117	0.632354
Cl385	Cl	0.308141	0.000058	0.235573
Cl386	Cl	0.558141	0.250058	0.485573
Cl387	Cl	0.808141	0.500058	0.735573
Cl388	Cl	1.058141	0.750058	0.985573
Cl389	Cl	0.506058	-0.114085	-0.480098
Cl390	Cl	0.756058	0.135915	-0.230098
Cl391	Cl	1.006058	0.385915	0.019902
Cl392	Cl	1.256058	0.635915	0.269902
Cl393	Cl	0.569370	-0.148937	-0.552722
Cl394	Cl	0.819370	0.101063	-0.302722
Cl395	Cl	1.069370	0.351063	-0.052722
Cl396	Cl	1.319370	0.601063	0.197278
H397	H	0.024315	0.000074	0.266759
H398	H	0.274315	0.250074	0.516759
H399	H	0.524315	0.500074	0.766759
H400	H	0.774315	0.750074	1.016759
H401	H	0.175557	0.000056	0.268967
H402	H	0.425557	0.250056	0.518967
H403	H	0.675557	0.500056	0.768967
H404	H	0.925557	0.750056	1.018967
H405	H	0.520108	-0.091683	-0.335133
H406	H	0.770108	0.158317	-0.085133
H407	H	1.020108	0.408317	0.164867
H408	H	1.270108	0.658317	0.414867
Cl409	Cl	0.108741	0.000116	-0.117110
Cl410	Cl	0.358741	0.250116	0.132890
Cl411	Cl	0.608741	0.500116	0.382890
Cl412	Cl	0.858741	0.750116	0.632890
Cl413	Cl	0.569326	0.149074	-0.552770
Cl414	Cl	0.819326	0.399074	-0.302770
Cl415	Cl	1.069326	0.649074	-0.052770
Cl416	Cl	1.319326	0.899074	0.197230
H417	H	0.573726	0.119864	-0.121947
H418	H	0.823726	0.369864	0.128053
H419	H	1.073726	0.619864	0.378053
H420	H	1.323726	0.869864	0.628053
H421	H	0.084106	0.000070	0.267631
H422	H	0.334106	0.250070	0.517631
H423	H	0.584106	0.500070	0.767631
H424	H	0.834106	0.750070	1.017631
Cl425	Cl	0.633866	0.114232	-0.505541
Cl426	Cl	0.883866	0.364232	-0.255541
Cl427	Cl	1.133866	0.614232	-0.005541
Cl428	Cl	1.383866	0.864232	0.244459
Cl429	Cl	0.635550	0.114224	-0.342041
Cl430	Cl	0.885550	0.364224	-0.092041
Cl431	Cl	1.135550	0.614224	0.157959
Cl432	Cl	1.385550	0.864224	0.407959
Cl433	Cl	0.572221	0.149088	-0.269417
Cl434	Cl	0.822221	0.399088	-0.019417
Cl435	Cl	1.072221	0.649088	0.230583
Cl436	Cl	1.322221	0.899088	0.480583
H437	H	-0.201711	0.000080	0.200033
H438	H	0.048289	0.250080	0.450033
H439	H	0.298289	0.500080	0.700033
H440	H	0.548289	0.750080	0.950033
Cl441	Cl	0.567691	-0.148943	-0.716225
Cl442	Cl	0.817691	0.101057	-0.466225
Cl443	Cl	1.067691	0.351057	-0.216225
Cl444	Cl	1.317691	0.601057	0.033775
H445	H	-0.033961	0.000119	-0.091091
H446	H	0.216039	0.250119	0.158909
H447	H	0.466039	0.500119	0.408909
H448	H	0.716039	0.750119	0.658909
Cl449	Cl	0.645217	0.351002	-0.018416
Cl450	Cl	0.895217	0.601002	0.231584
Cl451	Cl	1.145217	0.851002	0.481584
Cl452	Cl	1.395217	1.101002	0.731584
H453	H	-0.293180	0.000085	0.198690
H454	H	-0.043180	0.250085	0.448690
H455	H	0.206820	0.500085	0.698690
H456	H	0.456820	0.750085	0.948690
H457	H	0.343293	0.000070	-0.022166
H458	H	0.593293	0.250070	0.227834
H459	H	0.843293	0.500070	0.477834
H460	H	1.093293	0.750070	0.727834
H461	H	0.582549	0.430953	-0.025962
H462	H	0.832549	0.680953	0.224038
H463	H	1.082549	0.930953	0.474038
H464	H	1.332549	1.180953	0.724038
Cl465	Cl	0.222522	0.000131	-0.115441
Cl466	Cl	0.472522	0.250131	0.134559
Cl467	Cl	0.722522	0.500131	0.384559
Cl468	Cl	0.972522	0.750131	0.634559
Cl469	Cl	0.585428	0.586126	-0.054006
Cl470	Cl	0.835428	0.836126	0.195994
Cl471	Cl	1.085428	1.086126	0.445994
Cl472	Cl	1.335428	1.336126	0.695994
Cl473	Cl	-0.280333	0.000097	-0.059362
Cl474	Cl	-0.030333	0.250097	0.190638
Cl475	Cl	0.219667	0.500097	0.440638
Cl476	Cl	0.469667	0.750097	0.690638
Cl477	Cl	0.496378	0.649155	0.196277
Cl478	Cl	0.746378	0.899155	0.446277
Cl479	Cl	0.996378	1.149155	0.696277
Cl480	Cl	1.246378	1.399155	0.946277
Cl481	Cl	-0.166552	0.000114	-0.057704
Cl482	Cl	0.083448	0.250114	0.192296
Cl483	Cl	0.333448	0.500114	0.442296
Cl484	Cl	0.583448	0.750114	0.692296
H485	H	0.434764	0.000068	-0.020825
H486	H	0.684764	0.250068	0.229175
H487	H	0.934764	0.500068	0.479175
H488	H	1.184764	0.750068	0.729175
Cl489	Cl	0.645237	0.649164	-0.018412
Cl490	Cl	0.895237	0.899164	0.231588
Cl491	Cl	1.145237	1.149164	0.481588
Cl492	Cl	1.395237	1.399164	0.731588
Cl493	Cl	0.496386	0.821207	0.196279
Cl494	Cl	0.746386	1.071207	0.446279
Cl495	Cl	0.996386	1.321207	0.696279
Cl496	Cl	1.246386	1.571207	0.946279
H497	H	0.630635	0.804330	0.002648
H498	H	0.880635	1.054330	0.252648
H499	H	1.130635	1.304330	0.502648
H500	H	1.380635	1.554330	0.752648
Cl501	Cl	-0.080927	0.000079	0.293304
Cl502	Cl	0.169073	0.250079	0.543304
Cl503	Cl	0.419073	0.500079	0.793304
Cl504	Cl	0.669073	0.750079	1.043304
Cl505	Cl	0.556185	0.586075	0.231873
Cl506	Cl	0.806185	0.836075	0.481873
Cl507	Cl	1.056185	1.086075	0.731873
Cl508	Cl	1.306185	1.336075	0.981873
H509	H	0.559034	0.430915	0.203825
H510	H	0.809034	0.680915	0.453825
H511	H	1.059034	0.930915	0.703825
H512	H	1.309034	1.180915	0.953825
H513	H	0.567824	0.119829	-0.700231
H514	H	0.817824	0.369829	-0.450231
H515	H	1.067824	0.619829	-0.200231
H516	H	1.317824	0.869829	0.049769
H517	H	0.510963	0.334118	0.175205
H518	H	0.760963	0.584118	0.425205
H519	H	1.010963	0.834118	0.675205
H520	H	1.260963	1.084118	0.925205
Cl521	Cl	0.496343	0.178942	0.196264
Cl522	Cl	0.746343	0.428942	0.446264
Cl523	Cl	0.996343	0.678942	0.696264
Cl524	Cl	1.246343	0.928942	0.946264
H525	H	0.573769	-0.119676	-0.121914
H526	H	0.823769	0.130324	0.128086
H527	H	1.073769	0.380324	0.378086
H528	H	1.323769	0.630324	0.628086
