data_functionalizedCrystal
_audit_creation_method	'MofGen! by Chris Wilmer'
_symmetry_space_group_name_H-M	'P1'
_symmetry_Int_Tables_number	1
_symmetry_cell_setting	triclinic
loop_
_symmetry_equiv_pos_as_xyz
  x,y,z
_cell_length_a	6.817900
_cell_length_b	11.102237
_cell_length_c	14.858572
_cell_angle_alpha	93.468276
_cell_angle_beta	104.524003
_cell_angle_gamma	108.604801
loop_
_atom_site_label
_atom_site_type_symbol
_atom_site_fract_x
_atom_site_fract_y
_atom_site_fract_z
V1	V	-4.064544	-0.176639	-0.289962
O2	O	-4.024474	0.007665	-0.284440
O3	O	-4.041639	-0.349454	-0.287981
O4	O	-4.020834	-0.174283	-0.416424
O5	O	-4.045423	-0.168718	-0.155108
V6	V	-4.544261	-0.154552	-0.273832
O7	O	-4.334152	-0.225090	-0.325344
O8	O	-4.724850	-0.106101	-0.238450
O9	O	-4.343959	0.018263	-0.275814
O10	O	-4.701727	-0.338856	-0.279354
O11	O	-4.680778	-0.162472	-0.408686
O12	O	-4.364764	-0.156908	-0.147371
C13	C	-3.892690	-0.391572	-0.283407
C14	C	-3.955281	-0.532852	-0.282630
C15	C	-4.031063	-0.617607	-0.367431
C16	C	-4.089866	-0.750355	-0.366700
C17	C	-3.997102	-0.713581	-0.196360
C18	C	-3.938287	-0.580835	-0.197092
C19	C	-4.084629	-0.638839	-0.465776
C20	C	-4.143432	-0.771587	-0.465045
C21	C	-3.866150	-0.168122	-0.447248
C22	C	-3.911865	-0.167339	-0.550631
C23	C	-4.079182	-0.164479	-0.929199
C24	C	-4.032621	-0.165275	-0.823869
C25	C	-3.995525	-0.165910	-0.739918
C26	C	-3.948961	-0.166704	-0.634582
C27	C	-4.156251	0.060374	-0.280385
C28	C	-4.072899	0.201654	-0.281168
C29	C	-4.182790	-0.163073	-0.116542
C30	C	-4.116313	-0.163849	-0.013158
H31	H	-4.033156	-0.814217	-0.491681
H32	H	-4.320648	-0.820742	-0.506165
C33	C	-3.903097	-0.595268	-0.511619
C34	C	-3.850854	-0.701327	-0.538932
C35	C	-3.683621	-0.661235	-0.581152
H36	H	-3.948334	-0.557960	-0.565359
H37	H	-3.779830	-0.533445	-0.467980
H38	H	-3.974095	-0.763127	-0.582568
H39	H	-3.805580	-0.738647	-0.485209
H40	H	-3.560355	-0.599412	-0.537512
H41	H	-3.728876	-0.623926	-0.634888
H42	H	-3.648140	-0.733186	-0.599681
C43	C	-3.856121	-0.489025	-0.104924
C44	C	-3.853880	-0.559465	-0.029862
C45	C	-3.778218	-0.474933	0.055060
H46	H	-3.713971	-0.432304	-0.098578
H47	H	-3.948504	-0.440633	-0.104575
H48	H	-3.761498	-0.607835	-0.030209
H49	H	-3.996006	-0.616181	-0.036176
H50	H	-3.870601	-0.426542	0.055408
H51	H	-3.636072	-0.418217	0.061396
H52	H	-3.776706	-0.522715	0.105999
C53	C	-4.275744	-0.599392	-0.511772
C54	C	-4.238334	-0.539964	-0.589328
C55	C	-4.414326	-0.503589	-0.631712
H56	H	-4.402913	-0.673417	-0.532057
H57	H	-4.293309	-0.540980	-0.467629
H58	H	-4.220793	-0.598372	-0.633464
H59	H	-4.111197	-0.465925	-0.569069
H60	H	-4.431891	-0.445178	-0.587568
H61	H	-4.541483	-0.577620	-0.651990
H62	H	-4.388959	-0.463253	-0.684332
C63	C	-3.978933	-0.765935	-0.103594
C64	C	-4.046707	-0.900331	-0.121102
C65	C	-4.030030	-0.948601	-0.035667
H66	H	-3.833065	-0.732617	-0.065679
H67	H	-4.067557	-0.740846	-0.071682
H68	H	-3.958083	-0.925408	-0.152998
H69	H	-4.192575	-0.933683	-0.159002
H70	H	-4.118654	-0.923512	-0.003756
H71	H	-3.884159	-0.915274	0.002241
H72	H	-4.076030	-1.039793	-0.047535
