data_functionalizedCrystal
_audit_creation_method	'MofGen! by Chris Wilmer'
_symmetry_space_group_name_H-M	'P1'
_symmetry_Int_Tables_number	1
_symmetry_cell_setting	triclinic
loop_
_symmetry_equiv_pos_as_xyz
  x,y,z
_cell_length_a	18.266242
_cell_length_b	19.188930
_cell_length_c	19.188930
_cell_angle_alpha	83.144779
_cell_angle_beta	89.988525
_cell_angle_gamma	89.977082
loop_
_atom_site_label
_atom_site_type_symbol
_atom_site_fract_x
_atom_site_fract_y
_atom_site_fract_z
O1	O	0.061124	-0.926149	-0.087169
O2	O	0.561124	-0.426149	0.412831
O3	O	0.061075	-0.722838	-0.098903
O4	O	0.561075	-0.222838	0.401097
O5	O	0.061087	-0.830361	0.008620
O6	O	0.561087	-0.330361	0.508620
O7	O	0.061113	-0.818627	-0.194691
O8	O	0.561113	-0.318627	0.305309
O9	O	-0.060675	-0.830343	0.008625
O10	O	0.439325	-0.330343	0.508625
O11	O	-0.060687	-0.722820	-0.098897
O12	O	0.439313	-0.222820	0.401103
O13	O	-0.060638	-0.926131	-0.087163
O14	O	0.439362	-0.426131	0.412837
Zn15	Zn	-0.079994	-0.824473	-0.093029
Zn16	Zn	0.420006	-0.324473	0.406971
Zn17	Zn	0.080432	-0.824497	-0.093037
Zn18	Zn	0.580432	-0.324497	0.406963
O19	O	-0.060649	-0.818608	-0.194686
O20	O	0.439351	-0.318608	0.305314
C21	C	0.000188	-0.696818	-0.098520
C22	C	0.500188	-0.196818	0.401480
C23	C	0.000169	-0.619313	-0.097380
C24	C	0.500169	-0.119313	0.402620
C25	C	0.000204	-0.829972	0.034634
C26	C	0.500204	-0.329972	0.534634
C27	C	0.000197	-0.828831	0.112138
C28	C	0.500197	-0.328831	0.612138
N29	N	-0.189481	-0.824461	-0.093024
N30	N	0.310519	-0.324461	0.406976
C31	C	-0.227785	-0.872088	-0.045436
C32	C	0.272215	-0.372088	0.454564
C33	C	-0.304430	-0.872092	-0.045433
C34	C	0.195570	-0.372092	0.454567
C35	C	-0.342768	-0.824477	-0.093030
C36	C	0.157232	-0.324477	0.406970
C37	C	-0.304455	-0.776841	-0.140621
C38	C	0.195545	-0.276841	0.359379
C39	C	-0.227812	-0.776834	-0.140618
C40	C	0.272188	-0.276834	0.359382
N41	N	-0.463094	-0.815401	-0.154837
N42	N	0.036906	-0.315401	0.345163
N43	N	-0.535902	-0.815413	-0.154838
N44	N	-0.035902	-0.315413	0.345162
C45	C	-0.573691	-0.824496	-0.093040
C46	C	-0.073691	-0.324496	0.406960
N47	N	-0.535920	-0.833582	-0.031239
N48	N	-0.035920	-0.333582	0.468761
N49	N	-0.463106	-0.833574	-0.031240
N50	N	0.036894	-0.333574	0.468760
C51	C	-0.425875	-0.824480	-0.093038
C52	C	0.074125	-0.324480	0.406962
C53	C	-0.695101	-0.872131	-0.045444
C54	C	-0.195101	-0.372131	0.454556
C55	C	-0.771748	-0.872130	-0.045440
C56	C	-0.271748	-0.372130	0.454560
C57	C	-0.771772	-0.776882	-0.140634
C58	C	-0.271772	-0.276882	0.359366
C59	C	-0.695127	-0.776879	-0.140632
C60	C	-0.195127	-0.276879	0.359368
C61	C	-0.656796	-0.824507	-0.093038
C62	C	-0.156796	-0.324507	0.406962
N63	N	0.189919	-0.824513	-0.093037
N64	N	0.689919	-0.324513	0.406963
C65	C	0.000252	-0.952151	-0.087546
C66	C	0.500252	-0.452151	0.412454
C67	C	0.000276	-1.029656	-0.088687
C68	C	0.500276	-0.529656	0.411313
C69	C	0.000188	-0.574389	-0.160470
C70	C	0.500188	-0.074389	0.339530
C71	C	0.000196	-0.501566	-0.159399
C72	C	0.500196	-0.001566	0.340601
C73	C	0.000199	-0.473669	-0.095233
C74	C	0.500199	0.026331	0.404767
C75	C	0.000175	-0.518603	-0.032133
C76	C	0.500175	-0.018603	0.467867
C77	C	0.000160	-0.591425	-0.033207
C78	C	0.500160	-0.091425	0.466793
N79	N	0.041663	-0.365695	-0.046188
N80	N	0.541663	0.134305	0.453812
N81	N	0.041679	-0.296516	-0.045172
N82	N	0.541679	0.203484	0.454828
C83	C	0.000243	-0.254260	-0.091994
C84	C	0.500243	0.245740	0.408006
N85	N	-0.041200	-0.283795	-0.139881
N86	N	0.458800	0.216205	0.360119
N87	N	-0.041213	-0.352980	-0.140899
N88	N	0.458787	0.147020	0.359101
C89	C	0.000215	-0.394707	-0.094062
C90	C	0.500215	0.105293	0.405938
C91	C	0.000270	-0.130372	-0.153928
C92	C	0.500270	0.369628	0.346072
C93	C	0.000274	-0.057547	-0.152853
C94	C	0.500274	0.442453	0.347147
C95	C	0.000261	-0.074586	-0.025586
C96	C	0.500261	0.425414	0.474414
C97	C	0.000250	-0.147409	-0.026662
C98	C	0.500250	0.352591	0.473338
C99	C	0.000258	-0.175298	-0.090835
C100	C	0.500258	0.324702	0.409165
C101	C	0.000236	-0.818997	-0.220700
C102	C	0.500236	-0.318997	0.279300
C103	C	0.000247	-0.820138	-0.298204
C104	C	0.500247	-0.320138	0.201796
C105	C	0.000209	-0.891922	0.157062
C106	C	0.500209	-0.391922	0.657062
C107	C	0.000220	-0.890850	0.229886
C108	C	0.500220	-0.390850	0.729886
C109	C	0.000206	-0.826684	0.257782
C110	C	0.500206	-0.326684	0.757782
C111	C	0.000198	-0.763585	0.212849
C112	C	0.500198	-0.263585	0.712849
C113	C	0.000194	-0.764658	0.140026
C114	C	0.500194	-0.264658	0.640026
N115	N	-0.041244	-0.777631	0.365789
N116	N	0.458756	-0.277631	0.865789
N117	N	-0.041242	-0.776615	0.434968
N118	N	0.458758	-0.276615	0.934968
C119	C	0.000220	-0.823446	0.477191
C120	C	0.500220	-0.323446	0.977191
N121	N	0.041669	-0.871341	0.447624
N122	N	0.541669	-0.371341	0.947624
N123	N	0.041664	-0.872359	0.378439
N124	N	0.541664	-0.372359	0.878439
C125	C	0.000210	-0.825513	0.336745
C126	C	0.500210	-0.325513	0.836745
C127	C	0.000245	-0.885379	0.601079
C128	C	0.500245	-0.385379	1.101079
C129	C	0.000261	-0.884305	0.673904
C130	C	0.500261	-0.384305	1.173904
C131	C	0.000231	-0.757038	0.656865
C132	C	0.500231	-0.257038	1.156865
C133	C	0.000222	-0.758114	0.584042
C134	C	0.500222	-0.258114	1.084042
C135	C	0.000226	-0.822287	0.556154
C136	C	0.500226	-0.322287	1.056154
H137	H	-0.196579	-0.910868	-0.006681
H138	H	0.303421	-0.410868	0.493319
Cl139	Cl	-0.352650	-0.716979	-0.200454
Cl140	Cl	0.147350	-0.216979	0.299546
Cl141	Cl	-0.646969	-0.717007	-0.200464
Cl142	Cl	-0.146969	-0.217007	0.299536
Cl143	Cl	0.000234	-0.972596	0.122006
Cl144	Cl	0.500234	-0.472596	0.622006
Cl145	Cl	-0.819904	-0.932004	0.014394
Cl146	Cl	-0.319904	-0.432004	0.514394
Cl147	Cl	0.000230	-0.203888	0.052657
Cl148	Cl	0.500230	0.296112	0.552657
Cl149	Cl	0.000236	-0.970170	0.286372
Cl150	Cl	0.500236	-0.470170	0.786372
Cl151	Cl	0.000204	-0.678795	0.527563
Cl152	Cl	0.500204	-0.178795	1.027563
Cl153	Cl	0.000295	-0.001070	-0.232175
Cl154	Cl	0.500295	0.498930	0.267825
Cl155	Cl	0.000185	-0.682919	0.247918
Cl156	Cl	0.500185	-0.182919	0.747918
Cl157	Cl	0.000219	-0.445079	-0.238719
Cl158	Cl	0.500219	0.054921	0.261281
Cl159	Cl	0.000179	-0.685337	0.083547
Cl160	Cl	0.500179	-0.185337	0.583547
Cl161	Cl	0.000245	-0.966051	0.566016
Cl162	Cl	0.500245	-0.466051	1.066016
Cl163	Cl	-0.646913	-0.932001	0.014392
Cl164	Cl	-0.146913	-0.432001	0.514392
Cl165	Cl	0.000274	-0.165435	-0.234600
Cl166	Cl	0.500274	0.334565	0.265400
Cl167	Cl	-0.179655	-0.716956	-0.200449
Cl168	Cl	0.320345	-0.216956	0.299551
Cl169	Cl	0.000256	-0.039523	0.055081
Cl170	Cl	0.500256	0.460477	0.555081
H171	H	-0.802986	-0.738110	-0.179386
H172	H	-0.302986	-0.238110	0.320614
H173	H	0.000196	-0.597091	-0.212725
H174	H	0.500196	-0.097091	0.287275
Cl175	Cl	0.000175	-0.483534	0.048533
Cl176	Cl	0.500175	0.016466	0.548533
H177	H	0.000274	-0.935683	0.710481
H178	H	0.500274	-0.435683	1.210481
H179	H	0.000222	-0.704792	0.679578
H180	H	0.500222	-0.204792	1.179578
H181	H	-0.335623	-0.910877	-0.006680
H182	H	0.164377	-0.410877	0.493320
H183	H	0.000145	-0.628003	0.018171
H184	H	0.500145	-0.128003	0.518171
