data_functionalizedCrystal
_audit_creation_method	'MofGen! by Chris Wilmer'
_symmetry_space_group_name_H-M	'P1'
_symmetry_Int_Tables_number	1
_symmetry_cell_setting	triclinic
loop_
_symmetry_equiv_pos_as_xyz
  x,y,z
_cell_length_a	18.426585
_cell_length_b	23.196402
_cell_length_c	23.196401
_cell_angle_alpha	60.008822
_cell_angle_beta	90.015322
_cell_angle_gamma	60.000440
loop_
_atom_site_label
_atom_site_type_symbol
_atom_site_fract_x
_atom_site_fract_y
_atom_site_fract_z
Zr1	Zr	0.699139	0.630975	-0.075596
O2	O	0.583235	0.751246	-0.167647
O3	O	0.734668	0.510709	-0.047380
O4	O	0.734635	0.630976	-0.167646
O5	O	0.583295	0.630977	0.047489
O6	O	0.854066	0.630972	-0.167640
O7	O	0.583267	0.630979	-0.047382
O8	O	0.854124	0.415836	0.047492
O9	O	0.583238	0.846113	-0.167643
O10	O	0.838953	0.560172	-0.035339
O11	O	0.749845	0.560174	0.035459
O12	O	0.749807	0.701773	-0.106138
O13	O	0.660698	0.701775	-0.035341
Zr14	Zr	0.889663	0.630967	0.075722
Zr15	Zr	0.889618	0.630969	-0.075587
Zr16	Zr	0.699185	0.630973	0.075713
Zr17	Zr	0.699145	0.782278	-0.075589
Zr18	Zr	0.889658	0.479664	0.075715
O19	O	0.854135	0.751234	0.047507
O20	O	0.854071	0.751237	-0.167635
O21	O	0.583299	0.751243	0.047494
O22	O	1.005568	0.510696	0.167774
O23	O	1.005504	0.510699	-0.047368
O24	O	0.734732	0.510705	0.167761
O25	O	1.005508	0.630965	-0.047363
O26	O	0.854167	0.630966	0.167772
O27	O	0.734736	0.630970	0.167767
O28	O	1.005536	0.630963	0.047508
O29	O	0.734643	0.846108	-0.167636
O30	O	0.854160	0.415834	0.167763
O31	O	1.005565	0.415829	0.167770
O32	O	1.005529	0.415831	0.047499
O33	O	0.583274	0.846111	-0.047373
O34	O	0.734679	0.846106	-0.047366
O35	O	0.838996	0.560170	0.106264
O36	O	0.928105	0.560168	0.035467
O37	O	0.838958	0.701769	-0.035333
O38	O	0.749850	0.701770	0.035465
C39	C	0.794395	0.441715	0.000055
C40	C	0.794393	0.377483	0.000052
C41	C	0.556142	0.630979	0.000052
C42	C	0.475279	0.630982	0.000049
C43	C	0.840900	0.347312	-0.036906
C44	C	0.840909	0.286951	-0.036900
C45	C	0.794392	0.256775	0.000054
C46	C	0.747883	0.286950	0.037020
C47	C	0.747883	0.347304	0.037019
C48	C	0.716460	0.194748	-0.005224
C49	C	0.716458	0.134399	-0.005228
C50	C	0.794394	0.070620	0.000061
C51	C	0.872331	0.067206	0.005340
C52	C	0.872331	0.127560	0.005339
C53	C	0.794388	0.191330	0.000060
C54	C	0.840915	-0.025003	-0.036892
C55	C	0.840926	-0.085368	-0.036882
C56	C	0.747891	-0.085362	0.037034
C57	C	0.747889	-0.025003	0.037028
C58	C	0.794398	0.005176	0.000061
C59	C	0.409608	0.630985	0.000049
C60	C	0.327226	0.630981	0.000055
C61	C	0.261569	0.630973	0.000064
C62	C	0.179182	0.630969	0.000069
C63	C	1.032661	0.630963	0.000074
C64	C	1.113524	0.630960	0.000078
C65	C	0.794344	0.630974	-0.189201
C66	C	0.794325	0.630975	-0.253436
C67	C	0.794408	0.820227	0.000071
C68	C	0.794410	0.884459	0.000074
C69	C	0.747796	0.704887	-0.320565
C70	C	0.747818	0.704888	-0.380921
C71	C	0.794358	0.630973	-0.374142
C72	C	0.840897	0.557051	-0.307000
C73	C	0.840881	0.557052	-0.246647
C74	C	0.787747	0.574345	-0.441462
C75	C	0.787757	0.574347	-0.501816
C76	C	0.794414	0.630967	-0.560290
C77	C	0.801043	0.687598	-0.558410
C78	C	0.801027	0.687599	-0.498057
C79	C	0.794382	0.630964	-0.439581
C80	C	0.747907	0.704885	-0.692866
C81	C	0.747936	0.704883	-0.753221
C82	C	0.841009	0.557044	-0.679298
C83	C	0.840986	0.557048	-0.618946
C84	C	0.794431	0.630971	-0.625734
C85	C	0.794458	0.630968	0.189328
C86	C	0.794478	0.630967	0.253562
C87	C	1.032655	0.441707	0.000066
C88	C	1.113515	0.377472	0.000067
C89	C	0.794452	0.441712	0.189319
C90	C	0.794469	0.377479	0.253551
C91	C	1.032712	0.441704	0.189330
C92	C	1.113592	0.377468	0.253566
C93	C	0.556091	0.820238	-0.189204
C94	C	0.475211	0.884474	-0.253439
C95	C	0.556148	0.820235	0.000060
C96	C	0.475287	0.884470	0.000060
C97	C	0.794351	0.820230	-0.189193
C98	C	0.794334	0.884463	-0.253425
C99	C	1.104953	0.347309	-0.036899
C100	C	1.180923	0.286962	-0.036912
C101	C	1.265455	0.256776	0.000045
C102	C	1.274016	0.286945	0.037011
C103	C	1.198047	0.347294	0.037020
C104	C	0.841013	0.347313	0.320681
C105	C	0.841026	0.286967	0.381040
C106	C	0.794499	0.256786	0.374267
C107	C	0.747949	0.286958	0.307129
C108	C	0.747932	0.347306	0.246773
C109	C	1.198096	0.347302	0.246776
C110	C	1.274099	0.286954	0.307126
C111	C	1.265596	0.256770	0.374266
C112	C	1.181083	0.286942	0.381054
C113	C	1.105082	0.347293	0.320704
C114	C	0.390707	0.914648	-0.246650
C115	C	0.314704	0.975014	-0.307000
C116	C	0.323207	1.005202	-0.374139
C117	C	0.407720	0.975025	-0.380928
C118	C	0.483721	0.914664	-0.320578
C119	C	0.483850	0.914639	0.037019
C120	C	0.407880	0.975003	0.037016
C121	C	0.323348	1.005192	0.000056
C122	C	0.314787	0.975020	-0.036907
C123	C	0.390756	0.914661	-0.036908
C124	C	0.840870	0.914626	-0.246629
C125	C	0.840871	0.974971	-0.306976
C126	C	0.794331	1.005157	-0.374118
C127	C	0.747793	0.974989	-0.380912
C128	C	0.747798	0.914640	-0.320566
H129	H	0.878783	0.262380	-0.066997
O130	O	0.956403	-0.001576	0.011046
H131	H	0.975483	-0.060617	0.059005
H132	H	0.414633	0.999611	-0.435600
O133	O	0.891202	0.379855	0.327998
H134	H	0.844227	0.446435	0.302261
H135	H	0.261496	1.054339	0.000063
H136	H	0.710008	0.371870	0.067115
O137	O	0.891251	0.254417	0.453447
H138	H	0.923615	0.285533	0.448010
H139	H	0.383767	0.890073	-0.191987
O140	O	0.697774	0.254395	0.299834
H141	H	0.665396	0.285509	0.243015
O142	O	0.223557	1.007541	-0.299671
H143	H	0.230421	0.976391	-0.242845
O144	O	0.417130	1.007523	0.076899
H145	H	0.384755	1.074097	0.039598
H146	H	0.552526	0.890097	-0.326115
O147	O	1.347385	0.191680	0.000031
H148	H	1.387497	0.214841	-0.023101
H149	H	0.383772	0.890099	-0.067003
H150	H	1.036129	0.371887	-0.067002
O151	O	0.223611	1.007584	-0.076770
H152	H	0.172231	1.054616	-0.070550
H153	H	0.806460	0.733705	-0.606022
H154	H	0.710013	-0.000434	0.067121
H155	H	0.878768	0.890057	-0.191964
H156	H	0.794520	0.207647	0.423419
H157	H	0.261315	1.054351	-0.423274
H158	H	0.878774	0.371879	-0.067005
H159	H	1.173935	0.262406	-0.067015
O160	O	1.365192	0.254376	0.076878
H161	H	1.416572	0.207337	0.070665
O162	O	0.697629	1.007531	-0.453334
H163	H	0.665282	0.976410	-0.447930
H164	H	1.205031	0.371845	0.067126
H165	H	0.878766	0.999528	-0.301430
O166	O	0.575020	0.882096	0.076872
H167	H	0.568197	0.913234	0.102558
O168	O	1.365234	0.254446	0.299775
H169	H	1.402067	0.266057	0.325482
H170	H	0.652987	0.246687	-0.009545
O171	O	0.697872	0.379728	0.174368
H172	H	0.665582	0.348553	0.179806
H173	H	1.205036	0.371869	0.192113
H174	H	1.327488	0.207628	0.423400
H175	H	1.174173	0.262358	0.435727
O176	O	0.794318	1.070259	-0.439202
H177	H	0.863601	1.047094	-0.439152
O178	O	0.956386	0.123878	0.011042
H179	H	1.010586	0.069389	0.014725
O180	O	0.891087	0.007545	-0.076752
H181	H	0.923443	-0.023589	-0.102441
O182	O	0.697584	0.784615	-0.327887
H183	H	0.724470	0.820060	-0.357171
O184	O	0.697590	0.882119	-0.327899
H185	H	0.665222	0.913260	-0.384727
H186	H	1.036278	0.371847	0.326243
H187	H	0.878803	-0.109938	-0.066974
O188	O	0.697705	0.784609	-0.700176
H189	H	0.724598	0.820048	-0.729453
O190	O	0.697715	-0.117897	0.076892
H191	H	0.705523	-0.164931	0.070681
H192	H	0.652996	0.137188	-0.009530
H193	H	0.710010	0.262377	0.067109
H194	H	0.806426	0.733708	-0.496529
O195	O	0.697632	0.784607	-0.453339
H196	H	0.626115	0.820046	-0.459501
O197	O	0.697749	0.784606	-0.825632
H198	H	0.665369	0.836005	-0.820208
O199	O	0.891239	0.477312	-0.671965
H200	H	0.864377	0.441850	-0.642668
O201	O	0.891158	0.477329	-0.546535
H202	H	0.923518	0.425929	-0.551959
H203	H	0.782355	0.528238	-0.503341
H204	H	0.782320	0.528239	-0.393854
O205	O	0.891102	0.477321	-0.299675
H206	H	0.844144	0.473773	-0.325412
O207	O	0.891059	0.477330	-0.174236
H208	H	0.923422	0.425930	-0.179658
