data_functionalizedCrystal
_audit_creation_method	'MofGen! by Chris Wilmer'
_symmetry_space_group_name_H-M	'P1'
_symmetry_Int_Tables_number	1
_symmetry_cell_setting	triclinic
loop_
_symmetry_equiv_pos_as_xyz
  x,y,z
_cell_length_a	14.519709
_cell_length_b	23.532416
_cell_length_c	13.596369
_cell_angle_alpha	90.002050
_cell_angle_beta	89.999684
_cell_angle_gamma	83.266196
loop_
_atom_site_label
_atom_site_type_symbol
_atom_site_fract_x
_atom_site_fract_y
_atom_site_fract_z
O1	O	-1.222991	-0.074649	0.081658
O2	O	-0.954410	-0.083440	0.081687
O3	O	-1.096795	0.003850	0.081671
O4	O	-1.080606	-0.161939	0.081674
O5	O	-1.096778	0.003845	-0.081912
O6	O	-0.954393	-0.083445	-0.081896
O7	O	-1.222973	-0.074654	-0.081925
Zn8	Zn	-1.088680	-0.079050	-0.107883
Zn9	Zn	-1.088703	-0.079044	0.107645
O10	O	-1.080588	-0.161944	-0.081909
C11	C	-0.920046	-0.083033	-0.000100
C12	C	-0.817680	-0.081805	-0.000089
C13	C	-1.096373	0.025066	-0.000118
C14	C	-1.095130	0.088288	-0.000112
N15	N	-1.088671	-0.079054	-0.254975
C16	C	-1.257337	-0.075061	-0.000135
C17	C	-1.359704	-0.076289	-0.000140
C18	C	-0.442837	-0.077285	-0.000134
C19	C	-0.547130	-0.078540	-0.000121
C20	C	-0.630255	-0.079545	-0.000110
C21	C	-0.734555	-0.080800	-0.000099
C22	C	-1.089851	0.361559	0.089057
C23	C	-1.091006	0.302153	0.089058
O24	O	-1.091644	0.271428	0.164891
N25	N	-1.091568	0.272446	-0.000112
C26	C	-1.090985	0.302148	-0.089289
O27	O	-1.091570	0.271425	-0.165135
C28	C	-1.089837	0.361553	-0.089289
C29	C	-1.089265	0.391256	-0.000113
C30	C	-1.089281	0.391262	0.178226
C31	C	-1.088125	0.450663	0.178224
C32	C	-1.087539	0.480361	0.089054
C33	C	-1.088109	0.450657	-0.000115
C34	C	-1.089260	0.391254	-0.178465
C35	C	-1.088113	0.450663	-0.178458
C36	C	-1.087541	0.480366	-0.089282
C37	C	-1.086367	0.539756	-0.089286
N38	N	-1.085805	0.569463	-0.000116
C39	C	-1.086391	0.539765	0.089054
C40	C	-1.093397	0.177394	-0.089282
C41	C	-1.094539	0.117990	-0.089283
C42	C	-1.094562	0.118000	0.089065
C43	C	-1.093414	0.177405	0.089065
C44	C	-1.092835	0.207102	-0.000112
C45	C	-1.083962	0.664512	0.089044
C46	C	-1.082801	0.723918	0.089034
C47	C	-1.082783	0.723903	-0.089313
C48	C	-1.083939	0.664502	-0.089304
C49	C	-1.084531	0.634808	-0.000118
O50	O	-1.085733	0.570519	-0.165080
O51	O	-1.085818	0.570497	0.164887
C52	C	-1.081001	0.816840	-0.000122
C53	C	-1.082215	0.753615	-0.000136
C54	C	-1.088676	-0.079055	-0.343972
C55	C	-1.088685	-0.079051	-0.455624
C56	C	-1.088697	-0.079045	-0.544614
C57	C	-1.088707	-0.079042	-0.656273
N58	N	-1.088720	-0.079035	0.254737
H59	H	-1.082333	0.748099	0.161655
N60	N	-1.084602	0.632490	0.185234
H61	H	-1.084064	0.660328	0.241715
H62	H	-1.027905	0.603290	0.189130
N63	N	-1.084545	0.632454	-0.185477
H64	H	-1.027164	0.638234	-0.224457
H65	H	-1.141550	0.647362	-0.224392
N66	N	-1.089916	0.359237	0.274410
H67	H	-1.089381	0.387077	0.330888
H68	H	-1.033215	0.330041	0.278307
H69	H	-1.087666	0.474843	0.250840
H70	H	-1.092947	0.201585	0.161680
H71	H	-1.095036	0.093809	0.161672
H72	H	-1.094986	0.093809	-0.161899
H73	H	-1.092918	0.201569	-0.161904
N74	N	-1.082166	0.755941	-0.185486
H75	H	-1.081358	0.798080	-0.171947
H76	H	-1.139549	0.750107	-0.224415
N77	N	-1.089884	0.359227	-0.274649
H78	H	-1.089346	0.387063	-0.331128
H79	H	-1.147542	0.339136	-0.278535
N80	N	-1.087494	0.482693	-0.274643
H81	H	-1.088031	0.454858	-0.331128
H82	H	-1.029839	0.502787	-0.278529
