data_functionalizedCrystal
_audit_creation_method	'MofGen! by Chris Wilmer'
_symmetry_space_group_name_H-M	'P1'
_symmetry_Int_Tables_number	1
_symmetry_cell_setting	triclinic
loop_
_symmetry_equiv_pos_as_xyz
  x,y,z
_cell_length_a	11.792254
_cell_length_b	15.995292
_cell_length_c	10.268362
_cell_angle_alpha	90.001846
_cell_angle_beta	89.995423
_cell_angle_gamma	83.833607
loop_
_atom_site_label
_atom_site_type_symbol
_atom_site_fract_x
_atom_site_fract_y
_atom_site_fract_z
O1	O	1.505911	0.114812	-0.108289
O2	O	1.175470	0.126629	-0.108291
O3	O	1.349758	-0.001129	-0.108292
O4	O	1.331623	0.242570	-0.108288
O5	O	1.349741	-0.001125	0.108309
O6	O	1.175453	0.126633	0.108310
O7	O	1.505894	0.114816	0.108311
Cu8	Cu	1.340672	0.120725	0.128088
Cu9	Cu	1.340692	0.120720	-0.128067
O10	O	1.331606	0.242574	0.108312
C11	C	1.133177	0.125887	0.000009
C12	C	1.007183	0.123658	0.000008
C13	C	0.904862	0.121848	0.000002
C14	C	0.776495	0.119585	0.000001
C15	C	1.349011	-0.032326	0.000005
C16	C	1.346798	-0.125289	-0.000005
C17	C	1.338664	-0.463065	0.000007
C18	C	1.464460	-0.439177	0.000492
C19	C	1.466851	-0.342491	-0.000001
C20	C	1.342700	-0.295490	0.000002
C21	C	1.279818	-0.324881	-0.123684
C22	C	1.278303	-0.421679	-0.123783
C23	C	1.275715	-0.421543	0.122533
C24	C	1.280377	-0.325029	0.124163
C25	C	1.344975	-0.200784	-0.000005
C26	C	1.336385	-0.557771	0.000006
C27	C	1.548187	0.115559	0.000009
C28	C	1.674181	0.117787	0.000001
C29	C	1.332353	0.273771	0.000013
C30	C	1.334566	0.366734	0.000014
N31	N	1.340666	0.120728	0.308254
N32	N	1.340706	0.120710	-0.308233
C33	C	1.340675	0.120729	0.426096
C34	C	1.340689	0.120721	0.573934
H35	H	1.512941	-0.466951	0.089192
H36	H	1.186069	-0.436651	-0.129385
H37	H	1.516404	-0.323861	-0.088819
C38	C	1.328049	-0.459061	0.247583
C39	C	1.244986	-0.495889	0.318485
C40	C	1.293169	-0.530470	0.433671
H41	H	1.355989	-0.415995	0.298229
H42	H	1.389132	-0.500620	0.226972
H43	H	1.183923	-0.454335	0.339099
H44	H	1.217039	-0.538966	0.267878
H45	H	1.354252	-0.572028	0.413060
H46	H	1.321107	-0.487399	0.484306
H47	H	1.236821	-0.555468	0.481787
H48	H	1.321867	-0.448298	-0.216243
C49	C	1.337867	-0.297916	-0.246579
C50	C	1.280650	-0.324636	-0.355912
C51	C	1.334089	-0.299803	-0.469141
H52	H	1.414870	-0.322464	-0.247875
H53	H	1.335906	-0.238388	-0.247936
H54	H	1.282622	-0.384152	-0.354557
H55	H	1.203650	-0.300091	-0.354660
H56	H	1.332129	-0.240276	-0.470498
H57	H	1.411090	-0.324353	-0.470424
H58	H	1.295269	-0.317923	-0.543337
H59	H	1.326165	-0.306252	0.215664
C60	C	1.159560	-0.281564	0.133875
C61	C	1.138071	-0.226940	0.028078
C62	C	1.026779	-0.186892	0.036965
H63	H	1.151274	-0.250472	0.212745
H64	H	1.106923	-0.322550	0.132775
H65	H	1.190693	-0.185960	0.029190
H66	H	1.146332	-0.258011	-0.050807
H67	H	0.974142	-0.227878	0.035866
H68	H	1.018503	-0.155804	0.115839
H69	H	1.012181	-0.149831	-0.034821
H70	H	1.516099	-0.323238	0.088660
H71	H	1.188459	-0.293432	-0.128280
C72	C	1.528851	-0.477408	-0.117175
C73	C	1.566257	-0.413190	-0.193443
C74	C	1.625585	-0.448376	-0.301841
H75	H	1.479830	-0.508131	-0.167361
H76	H	1.592762	-0.514107	-0.088778
H77	H	1.502355	-0.376504	-0.221841
H78	H	1.615293	-0.382461	-0.143295
H79	H	1.689495	-0.485076	-0.273444
H80	H	1.576557	-0.479099	-0.352017
H81	H	1.650981	-0.404810	-0.353596
H82	H	1.183120	-0.435957	0.123368
