data_functionalizedCrystal
_audit_creation_method	'MofGen! by Chris Wilmer'
_symmetry_space_group_name_H-M	'P1'
_symmetry_Int_Tables_number	1
_symmetry_cell_setting	triclinic
loop_
_symmetry_equiv_pos_as_xyz
  x,y,z
_cell_length_a	10.685904
_cell_length_b	16.625545
_cell_length_c	16.625539
_cell_angle_alpha	90.023904
_cell_angle_beta	85.608338
_cell_angle_gamma	85.606116
loop_
_atom_site_label
_atom_site_type_symbol
_atom_site_fract_x
_atom_site_fract_y
_atom_site_fract_z
Zn1	Zn	1.929125	0.226561	-0.550542
Zn2	Zn	1.928970	0.361408	-0.415708
Zn3	Zn	1.718109	0.236917	-0.405373
Zn4	Zn	1.718033	0.371691	-0.540152
O5	O	1.823559	0.299144	-0.477944
O6	O	2.105693	0.235812	-0.541330
O7	O	1.900966	0.344924	-0.301503
O8	O	1.746197	0.122706	-0.424653
O9	O	2.105579	0.334883	-0.442267
O10	O	1.901230	0.115098	-0.531308
O11	O	1.746047	0.253461	-0.293910
O12	O	1.541511	0.263433	-0.414578
O13	O	1.746068	0.352409	-0.654364
O14	O	1.541455	0.362451	-0.513599
O15	O	1.901156	0.245783	-0.661998
O16	O	1.900892	0.475609	-0.432192
O17	O	1.745918	0.483164	-0.523621
C18	C	1.495696	0.315182	-0.461840
C19	C	1.355434	0.322062	-0.454970
C20	C	1.823414	0.508642	-0.477920
C21	C	1.823468	0.598261	-0.477942
C22	C	1.823514	0.671041	-0.477963
C23	C	1.823584	0.762346	-0.477988
C24	C	1.823647	0.835119	-0.478004
C25	C	1.823715	0.926430	-0.478028
C26	C	2.152704	0.283045	-0.494110
C27	C	2.292965	0.276184	-0.501000
C28	C	1.823621	0.299088	-0.688256
C29	C	1.823648	0.299064	-0.777878
C30	C	1.823730	1.088827	-0.477997
C31	C	1.823778	0.999204	-0.478044
C32	C	1.823668	0.299045	-0.850662
C33	C	1.823698	0.299014	-0.941971
C34	C	1.823727	0.298984	-1.014749
C35	C	1.823759	0.298953	-1.106065
C36	C	1.823570	0.299139	-0.268453
C37	C	1.823789	0.298923	-0.178843
H38	H	1.346794	0.231638	-0.545661
H39	H	1.301612	0.366600	-0.410306
