data_functionalizedCrystal
_audit_creation_method	'MofGen! by Chris Wilmer'
_symmetry_space_group_name_H-M	'P1'
_symmetry_Int_Tables_number	1
_symmetry_cell_setting	triclinic
loop_
_symmetry_equiv_pos_as_xyz
  x,y,z
_cell_length_a	16.959454
_cell_length_b	12.759395
_cell_length_c	16.959447
_cell_angle_alpha	90.016707
_cell_angle_beta	90.025463
_cell_angle_gamma	90.021612
loop_
_atom_site_label
_atom_site_type_symbol
_atom_site_fract_x
_atom_site_fract_y
_atom_site_fract_z
Zn1	Zn	-0.314643	1.606190	0.446902
Zn2	Zn	0.185357	2.106190	0.946902
Zn3	Zn	-0.446833	1.606076	0.314732
Zn4	Zn	0.053167	2.106076	0.814732
Zn5	Zn	-0.314676	1.430500	0.314742
Zn6	Zn	0.185324	1.930500	0.814742
Zn7	Zn	-0.446787	1.430464	0.446873
Zn8	Zn	0.053213	1.930464	0.946873
O9	O	-0.380735	1.518307	0.380812
O10	O	0.119265	2.018307	0.880812
O11	O	-0.332184	1.753196	0.429377
O12	O	0.167816	2.253196	0.929377
O13	O	-0.429335	1.582752	0.204122
O14	O	0.070665	2.082752	0.704122
O15	O	-0.204061	1.453868	0.332290
O16	O	0.295939	1.953868	0.832290
O17	O	-0.429303	1.753112	0.332272
O18	O	0.070697	2.253112	0.832272
O19	O	-0.204037	1.582947	0.429387
O20	O	0.295963	2.082947	0.929387
O21	O	-0.332239	1.453758	0.204130
O22	O	0.167761	1.953758	0.704130
O23	O	-0.332195	1.283474	0.332262
O24	O	0.167805	1.783474	0.832262
O25	O	-0.429226	1.453807	0.557488
O26	O	0.070774	1.953807	1.057488
O27	O	-0.429257	1.283448	0.429338
O28	O	0.070743	1.783448	0.929338
O29	O	-0.332140	1.582912	0.557509
O30	O	0.167860	2.082912	1.057509
O31	O	-0.557438	1.582718	0.332244
O32	O	-0.057438	2.082718	0.832244
O33	O	-0.557404	1.453697	0.429328
O34	O	-0.057404	1.953697	0.929328
C35	C	-0.380725	1.245340	0.380799
C36	C	0.119275	1.745340	0.880799
C37	C	-0.380740	1.128563	0.380811
C38	C	0.119260	1.628563	0.880811
C39	C	-0.481974	1.128574	0.481733
C40	C	0.018026	1.628574	0.981733
C41	C	-0.532597	1.073719	0.532196
C42	C	-0.032597	1.573719	1.032196
C43	C	-0.532607	0.963998	0.532206
C44	C	-0.032607	1.463998	1.032206
C45	C	-0.481986	0.909129	0.481749
C46	C	0.018014	1.409129	0.981749
C47	C	-0.431363	0.963984	0.431286
C48	C	0.068637	1.463984	0.931286
C49	C	-0.431361	1.073708	0.431280
C50	C	0.068639	1.573708	0.931280
C51	C	-0.330126	0.963973	0.330369
C52	C	0.169874	1.463973	0.830369
C53	C	-0.330120	1.073694	0.330354
C54	C	0.169880	1.573694	0.830354
C55	C	-0.279506	0.909104	0.279912
C56	C	0.220494	1.409104	0.779912
C57	C	-0.228885	0.963959	0.229444
C58	C	0.271115	1.463959	0.729444
C59	C	-0.228878	1.073687	0.229435
C60	C	0.271122	1.573687	0.729435
C61	C	-0.279496	1.128550	0.279891
C62	C	0.220504	1.628550	0.779891
C63	C	-0.586101	1.518219	0.380799
C64	C	-0.086101	2.018219	0.880799
C65	C	-0.673958	1.518278	0.380819
C66	C	-0.173958	2.018278	0.880819
C67	C	-1.045446	1.451224	0.431358
C68	C	-0.545446	1.951224	0.931358
C69	C	-1.045421	1.585684	0.330347
C70	C	-0.545421	2.085684	0.830347
C71	C	-0.962875	1.585647	0.330339
C72	C	-0.462875	2.085647	0.830339
C73	C	-0.921611	1.518397	0.380841
C74	C	-0.421611	2.018397	0.880841
C75	C	-0.962892	1.451183	0.431351
C76	C	-0.462892	1.951183	0.931351
C77	C	-0.921587	1.652852	0.279825
C78	C	-0.421587	2.152852	0.779825
C79	C	-0.839036	1.652818	0.279815
C80	C	-0.339036	2.152818	0.779815
C81	C	-0.797770	1.585571	0.330322
C82	C	-0.297770	2.085571	0.830322
C83	C	-0.839057	1.518356	0.380834
C84	C	-0.339057	2.018356	0.880834
C85	C	-0.797793	1.451105	0.431336
C86	C	-0.297793	1.951105	0.931336
C87	C	-0.839078	1.383894	0.481853
C88	C	-0.339078	1.883894	0.981853
C89	C	-0.921627	1.383936	0.481858
C90	C	-0.421627	1.883936	0.981858
C91	C	-0.715222	1.585529	0.330317
C92	C	-0.215222	2.085529	0.830317
C93	C	-0.715239	1.451064	0.431329
C94	C	-0.215239	1.951064	0.931329
C95	C	-0.174567	1.518424	0.380843
C96	C	0.325433	2.018424	0.880843
C97	C	-0.086710	1.518474	0.380856
C98	C	0.413290	2.018474	0.880856
C99	C	-0.380674	1.518369	0.586980
C100	C	0.119326	2.018369	1.086980
C101	C	-0.380648	1.518395	0.674837
C102	C	0.119352	2.018395	1.174837
C103	C	-0.380745	1.792341	0.380826
C104	C	0.119255	2.292341	0.880826
C105	C	-0.380750	1.909118	0.380832
C106	C	0.119250	2.409118	0.880832
C107	C	-0.380739	1.518307	0.175446
C108	C	0.119261	2.018307	0.675446
C109	C	-0.380542	1.518484	0.087590
C110	C	0.119458	2.018484	0.587590
C111	C	-0.431188	1.585570	0.716109
C112	C	0.068812	2.085570	1.216109
C113	C	-0.330088	1.451238	0.716119
C114	C	0.169912	1.951238	1.216119
C115	C	-0.330065	1.451256	0.798665
C116	C	0.169935	1.951256	1.298665
C117	C	-0.380605	1.518431	0.839937
C118	C	0.119395	2.018431	1.339937
C119	C	-0.431168	1.585588	0.798662
C120	C	0.068832	2.085588	1.298662
C121	C	-0.279509	1.384092	0.839946
C122	C	0.220491	1.884092	1.339946
C123	C	-0.279484	1.384107	0.922497
C124	C	0.220516	1.884107	1.422497
C125	C	-0.330021	1.451288	0.963770
C126	C	0.169979	1.951288	1.463770
C127	C	-0.380585	1.518449	0.922490
C128	C	0.119415	2.018449	1.422490
C129	C	-0.431125	1.585624	0.963762
C130	C	0.068875	2.085624	1.463762
C131	C	-0.481686	1.652790	0.922484
C132	C	0.018314	2.152790	1.422484
C133	C	-0.481704	1.652769	0.839935
C134	C	0.018296	2.152769	1.339935
C135	C	-0.330002	1.451309	1.046318
C136	C	0.169998	1.951309	1.546318
C137	C	-0.431105	1.585641	1.046315
C138	C	0.068895	2.085641	1.546315
H139	H	-0.573825	0.919335	0.573301
H140	H	-0.073825	1.419335	1.073301
H141	H	-0.238314	1.329416	0.956098
H142	H	0.261686	1.829416	1.456098
H143	H	-0.573810	1.118406	0.573279
H144	H	-0.073810	1.618406	1.073279
H145	H	-0.522838	1.707481	0.956098
H146	H	-0.022838	2.207481	1.456098
H147	H	-0.187649	1.118344	0.188348
H148	H	0.312351	1.618344	0.688348
F149	F	-0.279497	1.245325	0.279883
F150	F	0.220503	1.745325	0.779883
F151	F	-0.535509	1.724247	0.795999
F152	F	-0.035509	2.224247	1.295999
F153	F	-0.484991	1.657056	0.672178
F154	F	0.015009	2.157056	1.172178
F155	F	-0.279513	0.792328	0.279928
F156	F	0.220487	1.292328	0.779928
F157	F	-0.276190	1.379838	1.090245
F158	F	0.223810	1.879838	1.590245
H159	H	-0.481992	0.819788	0.481768
H160	H	0.018008	1.319788	0.981768
H161	H	-0.805471	1.329133	0.522969
H162	H	-0.305471	1.829133	1.022969
F163	F	-0.481978	1.245350	0.481717
F164	F	0.018022	1.745350	0.981717
H165	H	-0.187670	0.919276	0.188369
H166	H	0.312330	1.419276	0.688369
H167	H	-0.955248	1.329215	0.522985
H168	H	-0.455248	1.829215	1.022985
F169	F	-1.089339	1.657252	0.276601
F170	F	-0.589339	2.157252	0.776601
H171	H	-1.079064	1.396505	0.472490
H172	H	-0.579064	1.896505	0.972490
H173	H	-0.681647	1.396304	0.472457
H174	H	-0.181647	1.896304	0.972457
H175	H	-0.805427	1.707545	0.238683
H176	H	-0.305427	2.207545	0.738683
F177	F	-0.965507	1.724424	0.226084
F178	F	-0.465507	2.224424	0.726084
F179	F	-0.671287	1.657045	0.276550
F180	F	-0.171287	2.157045	0.776550
F181	F	-0.484894	1.657145	1.090233
F182	F	0.015106	2.157145	1.590233
H183	H	-0.288946	1.396541	0.682511
H184	H	0.211054	1.896541	1.182511
H185	H	-0.238367	1.329395	0.806336
H186	H	0.261633	1.829395	1.306336
