data_functionalizedCrystal
_audit_creation_method	'MofGen! by Chris Wilmer'
_symmetry_space_group_name_H-M	'P1'
_symmetry_Int_Tables_number	1
_symmetry_cell_setting	triclinic
loop_
_symmetry_equiv_pos_as_xyz
  x,y,z
_cell_length_a	15.995355
_cell_length_b	15.072220
_cell_length_c	15.995280
_cell_angle_alpha	90.001270
_cell_angle_beta	83.478901
_cell_angle_gamma	89.991677
loop_
_atom_site_label
_atom_site_type_symbol
_atom_site_fract_x
_atom_site_fract_y
_atom_site_fract_z
O1	O	-1.110966	0.073692	-0.107942
O2	O	-0.867188	0.073712	-0.121266
O3	O	-0.995772	0.073701	0.007287
O4	O	-0.982383	0.073703	-0.236496
O5	O	-0.995740	-0.073864	0.007280
O6	O	-0.867156	-0.073853	-0.121274
O7	O	-1.110934	-0.073873	-0.107950
Zn8	Zn	-0.989040	-0.097293	-0.114613
Zn9	Zn	-0.989082	0.097131	-0.114603
O10	O	-0.982351	-0.073862	-0.236503
C11	C	-0.835978	-0.000068	-0.120719
C12	C	-0.743028	-0.000060	-0.119065
N13	N	-0.989018	-0.229981	-0.114619
C14	C	-0.572843	-0.000073	-0.116064
C15	C	-0.549521	-0.000073	-0.023263
C16	C	-0.452844	-0.000414	-0.021513
C17	C	-0.405285	-0.000084	-0.113108
C18	C	-0.434347	-0.084183	-0.159775
C19	C	-0.531138	-0.084248	-0.160880
C20	C	-0.531085	0.083567	-0.162230
C21	C	-0.434591	0.084667	-0.158800
C22	C	-0.310588	-0.000093	-0.111442
C23	C	-0.667540	-0.000069	-0.117732
C24	C	-0.989081	-0.589183	-0.114600
C25	C	-0.920047	-0.551570	-0.183156
C26	C	-0.920205	-0.448744	-0.183406
C27	C	-0.989049	-0.410979	-0.114609
C28	C	-1.076409	-0.448277	-0.133693
C29	C	-1.076022	-0.551135	-0.134180
C30	C	-0.971533	-0.551282	-0.026757
C31	C	-0.969529	-0.448418	-0.027343
C32	C	-0.989036	-0.310265	-0.114613
C33	C	-0.989099	-0.689896	-0.114598
C34	C	-0.142146	-0.000092	-0.108486
C35	C	-0.235100	-0.000096	-0.110107
C36	C	-0.995213	-0.000080	0.038479
C37	C	-0.993584	-0.000075	0.131433
N38	N	-0.989111	0.229820	-0.114591
C39	C	-0.987598	-0.000087	0.469173
C40	C	-1.080401	-0.000424	0.445859
C41	C	-1.082161	-0.000087	0.349183
C42	C	-0.990569	-0.000081	0.301616
C43	C	-0.944190	0.084186	0.330722
C44	C	-0.943077	0.084252	0.427513
C45	C	-0.941146	-0.083557	0.427362
C46	C	-0.944581	-0.084666	0.330869
C47	C	-0.992242	-0.000075	0.206920
C48	C	-0.985922	-0.000087	0.563870
C49	C	-0.982921	-0.000083	0.732306
C50	C	-0.984582	-0.000094	0.639357
H51	H	-0.577550	0.060226	0.012709
C52	C	-0.832468	-0.414670	-0.168106
H53	H	-0.832444	-0.351638	-0.168251
H54	H	-0.791800	-0.435805	-0.211428
H55	H	-0.819033	-0.435538	-0.115201
H56	H	-0.545694	-0.087843	-0.228933
H57	H	-0.931408	-0.424131	-0.248593
C58	C	-0.853144	0.088441	0.287669
H59	H	-0.826264	0.139887	0.306161
H60	H	-0.853640	0.090970	0.228388
H61	H	-0.823353	0.037093	0.301912
H62	H	-0.909215	-0.577267	-0.008407
H63	H	-0.414250	-0.147007	-0.127761
H64	H	-0.416056	0.146885	-0.124816
C65	C	-0.851164	0.089433	0.447182
H66	H	-0.849862	0.089503	0.506414
H67	H	-0.826078	0.142379	0.423931
H68	H	-0.820852	0.039601	0.423341
H69	H	-1.092245	-0.422509	-0.197026
H70	H	-1.118725	0.060420	0.330781
C71	C	-0.987658	0.168902	0.303526
H72	H	-1.034071	0.153097	0.274455
H73	H	-0.948697	0.202914	0.267462
H74	H	-1.007017	0.202950	0.351859
C75	C	-0.391300	-0.088098	-0.250839
H76	H	-0.355132	-0.038362	-0.261231
H77	H	-0.432877	-0.087181	-0.288777
H78	H	-0.359318	-0.141166	-0.258684
H79	H	-0.578501	-0.060292	0.012117
C80	C	-1.131240	-0.081680	0.323473
H81	H	-1.150283	-0.115330	0.372156
H82	H	-1.095505	-0.117332	0.285678
H83	H	-1.178230	-0.062708	0.296740
H84	H	-0.854900	-0.576326	-0.171973
C85	C	-0.390075	0.091866	-0.249097
H86	H	-0.352872	0.043058	-0.260164
H87	H	-0.359041	0.145670	-0.254953
H88	H	-0.430856	0.091290	-0.287889
H89	H	-0.434404	-0.061053	0.014840
H90	H	-0.433847	0.059860	0.015017
C91	C	-0.934971	-0.586467	-0.270724
H92	H	-0.983091	-0.623857	-0.265686
H93	H	-0.887168	-0.619210	-0.294037
H94	H	-0.943878	-0.537856	-0.306469
C95	C	-1.033047	-0.413707	0.044806
H96	H	-1.072482	-0.375763	0.022552
H97	H	-1.004004	-0.381594	0.083679
H98	H	-1.061863	-0.462361	0.072688
H99	H	-0.905266	-0.424041	-0.012861
H100	H	-0.559375	0.147332	-0.132950
H101	H	-0.970360	-0.147432	0.455448
H102	H	-0.557918	-0.147353	-0.128947
H103	H	-0.545081	0.084378	-0.230537
H104	H	-1.091488	-0.575118	-0.198243
H105	H	-0.978351	-0.147007	0.312300
C106	C	-1.147495	-0.584750	-0.069292
H107	H	-1.176644	-0.535542	-0.042757
H108	H	-1.124484	-0.619779	-0.028146
H109	H	-1.185464	-0.619656	-0.096953
H110	H	-1.116160	-0.060857	0.473853
H111	H	-1.021876	-0.575605	0.024260
H112	H	-1.115988	0.059663	0.474880
C113	C	-1.147466	-0.415225	-0.068042
H114	H	-1.124431	-0.378293	-0.028318
H115	H	-1.174697	-0.464601	-0.039852
H116	H	-1.187102	-0.382371	-0.095457
C117	C	-0.986465	0.169363	0.463743
H118	H	-1.004612	0.203568	0.419286
H119	H	-0.947866	0.203028	0.491758
H120	H	-1.033685	0.154005	0.502524
H121	H	-0.877727	-0.089751	0.297901
H122	H	-0.872836	-0.084121	0.441354
