data_functionalizedCrystal
_audit_creation_method	'MofGen! by Chris Wilmer'
_symmetry_space_group_name_H-M	'P1'
_symmetry_Int_Tables_number	1
_symmetry_cell_setting	triclinic
loop_
_symmetry_equiv_pos_as_xyz
  x,y,z
_cell_length_a	14.044220
_cell_length_b	14.044220
_cell_length_c	8.140239
_cell_angle_alpha	89.995422
_cell_angle_beta	90.002157
_cell_angle_gamma	93.188878
loop_
_atom_site_label
_atom_site_type_symbol
_atom_site_fract_x
_atom_site_fract_y
_atom_site_fract_z
O1	O	1.277166	0.230166	-0.136445
O2	O	1.777166	0.730166	0.363555
O3	O	1.000494	0.221860	-0.136487
O4	O	1.500494	0.721860	0.363513
O5	O	1.134677	0.087677	-0.136450
O6	O	1.634677	0.587677	0.363550
O7	O	1.142983	0.364349	-0.136482
O8	O	1.642983	0.864349	0.363518
O9	O	1.134669	0.087675	0.136777
O10	O	1.634669	0.587675	0.636777
O11	O	1.000486	0.221858	0.136740
O12	O	1.500486	0.721858	0.636740
O13	O	1.277157	0.230164	0.136782
O14	O	1.777157	0.730164	0.636782
Zn15	Zn	1.138820	0.226010	0.180142
Zn16	Zn	1.638820	0.726010	0.680142
Zn17	Zn	1.138831	0.226013	-0.179847
Zn18	Zn	1.638831	0.726013	0.320153
O19	O	1.142974	0.364346	0.136746
O20	O	1.642974	0.864346	0.636746
C21	C	0.964868	0.218223	0.000122
C22	C	1.464868	0.718223	0.500122
C23	C	0.858725	0.207379	0.000106
C24	C	1.358725	0.707379	0.500106
C25	C	0.664388	0.187553	0.000141
C26	C	1.164388	0.687553	0.500141
C27	C	0.613258	0.264467	0.000140
C28	C	1.113258	0.764467	0.500140
C29	C	0.505122	0.253435	0.000159
C30	C	1.005122	0.753435	0.500159
C31	C	0.772534	0.198583	0.000122
C32	C	1.272534	0.698583	0.500122
C33	C	1.131037	0.052054	0.000163
C34	C	1.631037	0.552054	0.500163
C35	C	1.120193	-0.054088	0.000164
C36	C	1.620193	0.445912	0.500164
C37	C	1.100366	-0.248426	0.000137
C38	C	1.600366	0.251574	0.500137
C39	C	1.177281	-0.299556	0.000144
C40	C	1.677281	0.200444	0.500144
C41	C	1.166249	-0.407692	0.000129
C42	C	1.666249	0.092308	0.500129
C43	C	1.111397	-0.140280	0.000152
C44	C	1.611397	0.359720	0.500152
C45	C	1.312783	0.233800	0.000170
C46	C	1.812783	0.733800	0.500170
C47	C	1.418926	0.244645	0.000174
C48	C	1.918926	0.744645	0.500174
C49	C	1.146614	0.399969	0.000128
C50	C	1.646614	0.899969	0.500128
C51	C	1.157459	0.506112	0.000117
C52	C	1.657459	1.006112	0.500117
N53	N	1.138820	0.226008	0.425824
N54	N	1.638820	0.726008	0.925824
N55	N	1.138839	0.226009	-0.425529
N56	N	1.638839	0.726009	0.074471
H57	H	0.626951	0.113425	0.000159
H58	H	1.126951	0.613425	0.500159
O59	O	1.265654	-0.254748	0.000246
O60	O	1.765654	0.245252	0.500246
C61	C	1.257142	-0.155189	0.000217
C62	C	1.757142	0.344811	0.500217
H63	H	1.184577	-0.138228	0.051924
H64	H	1.684577	0.361772	0.551924
H65	H	1.264079	-0.127057	-0.130857
H66	H	1.764079	0.372943	0.369143
C67	C	1.425622	-0.128182	0.043893
C68	C	1.925622	0.371818	0.543893
C69	C	1.336499	-0.107350	0.107413
C70	C	1.836499	0.392650	0.607413
H71	H	1.474576	-0.098670	0.110010
H72	H	1.974576	0.401330	0.610010
H73	H	1.431359	-0.195256	0.043907
H74	H	1.931359	0.304744	0.543907
H75	H	1.431390	-0.104737	-0.065334
H76	H	1.931390	0.395263	0.434666
H77	H	1.330728	-0.130805	0.216630
H78	H	1.830728	0.369195	0.716630
H79	H	1.330764	-0.040278	0.107421
H80	H	1.830764	0.459722	0.607421
O81	O	1.011980	-0.293191	-0.000088
O82	O	1.511980	0.206809	0.499912
C83	C	1.001021	-0.350623	-0.141619
C84	C	1.501021	0.149377	0.358381
H85	H	1.074208	-0.368931	-0.188801
H86	H	1.574208	0.131069	0.311199
H87	H	0.962427	-0.310263	-0.240703
H88	H	1.462427	0.189737	0.259297
C89	C	0.852429	-0.420662	-0.040687
C90	C	1.352429	0.079338	0.459313
C91	C	0.942319	-0.443155	-0.098629
C92	C	1.442319	0.056845	0.401371
H93	H	0.816216	-0.477739	-0.014173
H94	H	1.316216	0.022261	0.485827
H95	H	0.859810	-0.381967	0.054662
H96	H	1.359810	0.118033	0.554662
H97	H	0.820281	-0.387027	-0.123267
H98	H	1.320281	0.112973	0.376733
H99	H	0.974471	-0.476779	-0.016043
H100	H	1.474471	0.023221	0.483957
H101	H	0.934942	-0.481859	-0.193964
H102	H	1.434942	0.018141	0.306036
O103	O	0.657800	0.352963	-0.000119
O104	O	1.157800	0.852963	0.499881
C105	C	0.631057	0.402817	-0.141662
C106	C	1.131057	0.902817	0.358338
H107	H	0.559745	0.371058	-0.188806
H108	H	1.059745	0.871058	0.311194
H109	H	0.687720	0.396535	-0.240763
H110	H	1.187720	0.896535	0.259237
C111	C	0.709220	0.547670	-0.040819
C112	C	1.209220	1.047670	0.459181
C113	C	0.621629	0.508668	-0.098714
C114	C	1.121629	1.008668	0.401286
H115	H	0.703408	0.612964	-0.014331
H116	H	1.203408	1.112964	0.485669
H117	H	0.727241	0.514082	0.054539
H118	H	1.227241	1.014082	0.554539
H119	H	0.756430	0.542425	-0.123413
H120	H	1.256430	1.042425	0.376587
H121	H	0.574424	0.513901	-0.016114
H122	H	1.074424	1.013901	0.483886
H123	H	0.603600	0.542259	-0.194057
H124	H	1.103600	1.042259	0.305943
