data_functionalizedCrystal
_audit_creation_method	'MofGen! by Chris Wilmer'
_symmetry_space_group_name_H-M	'P1'
_symmetry_Int_Tables_number	1
_symmetry_cell_setting	triclinic
loop_
_symmetry_equiv_pos_as_xyz
  x,y,z
_cell_length_a	12.827892
_cell_length_b	12.827893
_cell_length_c	10.686551
_cell_angle_alpha	94.397148
_cell_angle_beta	85.594922
_cell_angle_gamma	89.986399
loop_
_atom_site_label
_atom_site_type_symbol
_atom_site_fract_x
_atom_site_fract_y
_atom_site_fract_z
Zn1	Zn	-0.370673	-1.643035	-0.713520
Zn2	Zn	-0.558864	-1.629514	-0.502520
Zn3	Zn	-0.384132	-1.454862	-0.502529
Zn4	Zn	-0.545371	-1.468258	-0.713465
O5	O	-0.464760	-1.548917	-0.608009
O6	O	-0.395652	-1.787479	-0.685550
O7	O	-0.546965	-1.595081	-0.325940
O8	O	-0.236109	-1.479876	-0.530544
O9	O	-0.533915	-1.777545	-0.530529
O10	O	-0.226221	-1.618126	-0.685559
O11	O	-0.418590	-1.466765	-0.325946
O12	O	-0.405506	-1.310402	-0.530491
O13	O	-0.510918	-1.502708	-0.890054
O14	O	-0.523968	-1.320244	-0.685465
O15	O	-0.382568	-1.631116	-0.890094
O16	O	-0.703312	-1.608071	-0.530476
O17	O	-0.693399	-1.489597	-0.685456
C18	C	-0.464734	-1.277405	-0.607974
C19	C	-0.464746	-1.161253	-0.607989
C20	C	-0.396432	-1.114391	-0.684815
C21	C	-0.396443	-0.994342	-0.684832
C22	C	-0.736271	-1.548851	-0.607986
C23	C	-0.852422	-1.548920	-0.608019
C24	C	-0.909073	-1.607626	-0.531415
C25	C	-1.029121	-1.607699	-0.531447
C26	C	-0.192187	-1.549015	-0.608059
C27	C	-0.076032	-1.549056	-0.608080
C28	C	-0.443737	-1.569915	-0.937140
C29	C	-0.434778	-1.578862	-1.077396
C30	C	-0.464779	-0.821489	-0.608034
C31	C	-0.464767	-0.937641	-0.608019
C32	C	-0.485626	-1.528062	-0.280158
C33	C	-0.494291	-1.519317	-0.139902
H34	H	-0.337961	-0.954023	-0.750611
H35	H	-0.552099	-1.461494	-1.086116
Br36	Br	-0.562237	-1.080000	-0.498364
Br37	Br	-0.298928	-1.195643	-0.794422
Br38	Br	-0.841789	-1.691321	-0.422070
Br39	Br	-1.110283	-1.691465	-0.422119
H40	H	-1.027341	-1.498789	-0.673662
Br41	Br	-0.919704	-1.465245	-0.717386
H42	H	-0.523261	-0.977954	-0.542249
H43	H	-0.376973	-1.636696	-1.131188
