data_functionalizedCrystal
_audit_creation_method	'MofGen! by Chris Wilmer'
_symmetry_space_group_name_H-M	'P1'
_symmetry_Int_Tables_number	1
_symmetry_cell_setting	triclinic
loop_
_symmetry_equiv_pos_as_xyz
  x,y,z
_cell_length_a	6.817900
_cell_length_b	10.943867
_cell_length_c	10.943881
_cell_angle_alpha	91.772156
_cell_angle_beta	108.843448
_cell_angle_gamma	108.843261
loop_
_atom_site_label
_atom_site_type_symbol
_atom_site_fract_x
_atom_site_fract_y
_atom_site_fract_z
V1	V	-4.115582	-0.178597	-0.402538
O2	O	-4.073255	0.008620	-0.394890
O3	O	-4.093564	-0.354163	-0.399771
O4	O	-4.093567	-0.175833	-0.578105
O5	O	-4.073252	-0.170945	-0.215321
V6	V	-4.592372	-0.156205	-0.380147
O7	O	-4.391609	-0.227714	-0.451654
O8	O	-4.766543	-0.107088	-0.331031
O9	O	-4.391183	0.019361	-0.382914
O10	O	-4.752096	-0.343422	-0.387795
O11	O	-4.752099	-0.163857	-0.567364
O12	O	-4.391180	-0.158969	-0.204580
C13	C	-3.944129	-0.396963	-0.393417
C14	C	-4.007590	-0.540491	-0.392324
C15	C	-4.237033	-0.631374	-0.398404
C16	C	-4.234149	-0.730481	-0.501329
C17	C	-4.123542	-0.697128	-0.287478
C18	C	-4.003915	-0.637721	-0.495352
C19	C	-3.893282	-0.604347	-0.281406
C20	C	-3.890254	-0.703414	-0.384353
C21	C	-3.944132	-0.169483	-0.620898
C22	C	-4.007591	-0.168385	-0.764426
C23	C	-4.237035	-0.174466	-0.855308
C24	C	-4.123559	-0.063484	-0.921054
C25	C	-4.234077	-0.277331	-0.954406
C26	C	-3.893233	-0.057330	-0.828267
C27	C	-4.003824	-0.271275	-0.861628
C28	C	-3.890178	-0.160263	-0.927326
C29	C	-4.203961	0.062155	-0.389265
C30	C	-4.119740	0.205681	-0.390366
C31	C	-4.203957	-0.165323	-0.161780
C32	C	-4.119736	-0.166414	-0.018251
H33	H	-4.378854	-0.785222	-0.594300
H34	H	-4.383050	-0.599537	-0.404488
H35	H	-3.952878	-0.611360	-0.583307
O36	O	-3.720514	-0.539149	-0.170526
C37	C	-3.538514	-0.577383	-0.162219
H38	H	-3.599926	-0.677707	-0.222849
H39	H	-3.447116	-0.582052	-0.055948
H40	H	-3.421333	-0.503308	-0.201139
O41	O	-4.184898	-0.728652	-0.182716
C42	C	-4.368542	-0.692285	-0.190575
H43	H	-4.373139	-0.612066	-0.254298
H44	H	-4.353636	-0.654685	-0.088464
H45	H	-4.527347	-0.780694	-0.235313
H46	H	-4.382945	-0.180345	-0.823439
H47	H	-3.744085	-0.735035	-0.378432
H48	H	-4.174772	0.024380	-0.947594
H49	H	-3.743943	-0.154215	-0.958925
O50	O	-3.720791	0.053655	-0.762943
C51	C	-3.662664	0.051269	-0.627385
H52	H	-3.810444	-0.016976	-0.606410
H53	H	-3.612661	0.153959	-0.574436
H54	H	-3.517887	0.014897	-0.591691
O55	O	-3.943184	-0.376245	-0.830016
C56	C	-4.122598	-0.492008	-0.894927
H57	H	-4.284116	-0.471938	-0.920929
H58	H	-4.125227	-0.570132	-0.828328
H59	H	-4.103533	-0.527563	-0.988008
H60	H	-4.378811	-0.370291	-1.009145
