data_functionalizedCrystal
_audit_creation_method	'MofGen! by Chris Wilmer'
_symmetry_space_group_name_H-M	'P1'
_symmetry_Int_Tables_number	1
_symmetry_cell_setting	triclinic
loop_
_symmetry_equiv_pos_as_xyz
  x,y,z
_cell_length_a	10.489716
_cell_length_b	10.654541
_cell_length_c	9.130307
_cell_angle_alpha	90.003083
_cell_angle_beta	90.001152
_cell_angle_gamma	84.506532
loop_
_atom_site_label
_atom_site_type_symbol
_atom_site_fract_x
_atom_site_fract_y
_atom_site_fract_z
O1	O	-1.693979	-0.177044	-0.121787
O2	O	-1.322772	-0.193708	-0.121792
O3	O	-1.516912	-0.002640	-0.121781
O4	O	-1.499839	-0.368112	-0.121799
O5	O	-1.516906	-0.002638	0.121818
O6	O	-1.322765	-0.193706	0.121807
O7	O	-1.693973	-0.177042	0.121812
Cu8	Cu	-1.508369	-0.185374	0.144052
Cu9	Cu	-1.508376	-0.185376	-0.144032
O10	O	-1.499833	-0.368110	0.121800
C11	C	-1.275237	-0.192455	0.000006
C12	C	-1.133608	-0.188709	0.000005
C13	C	-1.515656	0.044160	0.000018
C14	C	-1.511907	0.183605	0.000015
C15	C	-1.741508	-0.178295	0.000010
C16	C	-1.883137	-0.182041	0.000002
C17	C	-1.035876	-0.305878	-0.000005
C18	C	-0.958558	-0.243963	0.120112
C19	C	-0.958570	-0.243937	-0.120058
C20	C	-1.058155	-0.126843	0.120220
C21	C	-1.058173	-0.126834	-0.120057
C22	C	-0.980903	-0.064832	0.000089
C23	C	-1.501089	-0.414910	-0.000002
C24	C	-1.504837	-0.554355	-0.000009
N25	N	-1.508373	-0.185371	0.346675
C26	C	-1.744055	0.211487	0.000037
C27	C	-1.858362	0.290938	0.000051
C28	C	-1.854832	0.421957	0.000047
C29	C	-1.736982	0.473527	0.000024
C30	C	-1.622675	0.394077	0.000010
C31	C	-1.626217	0.263056	0.000019
C32	C	-1.390530	0.366195	-0.000023
C33	C	-1.394057	0.235175	-0.000007
C34	C	-1.272680	0.417765	-0.000046
C35	C	-1.158370	0.338314	-0.000049
C36	C	-1.161905	0.207287	-0.000043
C37	C	-1.279750	0.155724	-0.000021
N38	N	-1.508382	-0.185368	-0.346655
C39	C	-1.680355	-0.016230	0.346675
C40	C	-1.766354	0.068337	0.423342
C41	C	-1.766367	0.068338	0.576675
C42	C	-1.680368	-0.016235	0.653345
C43	C	-1.594369	-0.100802	0.576678
C44	C	-1.594368	-0.100796	0.423342
C45	C	-1.422383	-0.269935	0.576678
C46	C	-1.422374	-0.269944	0.423345
C47	C	-1.336384	-0.354508	0.653348
C48	C	-1.250389	-0.439083	0.576681
C49	C	-1.250380	-0.439082	0.423338
C50	C	-1.336375	-0.354511	0.346678
H51	H	-0.915048	-0.293424	0.221655
C52	C	-1.733094	0.617644	-0.000007
H53	H	-1.646540	0.636978	-0.000033
H54	H	-1.775158	0.652454	0.084935
H55	H	-1.775168	0.652409	-0.084973
H56	H	-1.269814	0.524449	-0.000058
C57	C	-1.036168	0.119895	-0.000064
H58	H	-1.055143	0.034477	-0.000067
H59	H	-0.987879	0.135648	0.084871
H60	H	-0.987916	0.135637	-0.085037
H61	H	-1.060495	-0.407798	0.000102
C62	C	-1.283644	0.011608	-0.000024
H63	H	-1.370199	-0.007721	-0.000022
H64	H	-1.241562	-0.023186	0.084913
H65	H	-1.241591	-0.023176	-0.084995
C66	C	-1.116997	-0.060083	-0.257234
H67	H	-1.082744	-0.101859	-0.342495
H68	H	-1.097240	0.025081	-0.258095
H69	H	-1.207307	-0.062322	-0.255760
C70	C	-1.028753	0.395043	-0.000073
H71	H	-1.043023	0.484451	-0.000073
H72	H	-0.981643	0.367833	-0.085020
H73	H	-0.981635	0.367858	0.084887
H74	H	-1.101492	-0.077408	0.221870
C75	C	-0.899817	-0.310776	-0.257234
H76	H	-0.918280	-0.396348	-0.257082
H77	H	-0.809676	-0.307222	-0.256730
H78	H	-0.935275	-0.270006	-0.342522
H79	H	-1.746941	0.104806	0.000061
H80	H	-1.680364	-0.016233	0.221823
C81	C	-1.155770	-0.532072	0.661010
H82	H	-1.104539	-0.582428	0.593394
H83	H	-1.202080	-0.584801	0.720847
H84	H	-1.102290	-0.486338	0.720805
H85	H	-1.954313	0.248935	0.000083
C86	C	-1.860945	0.161360	0.339004
H87	H	-1.848632	0.149245	0.236703
H88	H	-1.846368	0.245316	0.364143
H89	H	-1.946197	0.146891	0.364124
C90	C	-1.860961	0.161360	0.661012
H91	H	-1.912180	0.211725	0.593397
H92	H	-1.814623	0.214078	0.720840
H93	H	-1.914456	0.115658	0.720815
C94	C	-1.680362	-0.016222	0.822008
H95	H	-1.616824	-0.078692	0.856688
H96	H	-1.762033	-0.034187	0.856706
H97	H	-1.662193	0.064228	0.856683
C98	C	-1.336399	-0.354511	0.822010
H99	H	-1.399942	-0.292044	0.856692
H100	H	-1.254730	-0.336538	0.856715
H101	H	-1.354561	-0.434961	0.856678
H102	H	-1.947911	0.486647	0.000046
H103	H	-1.180344	-0.507942	0.360924
H104	H	-1.336380	-0.354507	0.221826
H105	H	-0.956523	0.037162	0.000163
