data_functionalizedCrystal
_audit_creation_method	'MofGen! by Chris Wilmer'
_symmetry_space_group_name_H-M	'P1'
_symmetry_Int_Tables_number	1
_symmetry_cell_setting	triclinic
loop_
_symmetry_equiv_pos_as_xyz
  x,y,z
_cell_length_a	23.532407
_cell_length_b	11.792241
_cell_length_c	10.268362
_cell_angle_alpha	89.994572
_cell_angle_beta	90.000752
_cell_angle_gamma	83.521047
loop_
_atom_site_label
_atom_site_type_symbol
_atom_site_fract_x
_atom_site_fract_y
_atom_site_fract_z
O1	O	0.756076	0.137772	-0.108138
O2	O	1.089409	0.471105	0.225195
O3	O	1.422743	0.804438	0.558528
O4	O	0.590331	0.157706	-0.108177
O5	O	0.923664	0.491039	0.225157
O6	O	1.256997	0.824373	0.558490
O7	O	0.677226	-0.017526	-0.108147
O8	O	1.010559	0.315807	0.225186
O9	O	1.343892	0.649140	0.558519
O10	O	0.669181	0.313004	-0.108168
O11	O	1.002515	0.646337	0.225166
O12	O	1.335848	0.979671	0.558499
O13	O	0.677218	-0.017533	0.108453
O14	O	1.010551	0.315800	0.441787
O15	O	1.343885	0.649133	0.775120
O16	O	0.590323	0.157699	0.108424
O17	O	0.923657	0.491032	0.441757
O18	O	1.256990	0.824366	0.775091
O19	O	0.756068	0.137765	0.108462
O20	O	1.089402	0.471098	0.441796
O21	O	1.422735	0.804431	0.775129
Cu22	Cu	0.673195	0.147731	0.128221
Cu23	Cu	1.006528	0.481065	0.461554
Cu24	Cu	1.339862	0.814398	0.794887
Cu25	Cu	0.673204	0.147740	-0.127935
Cu26	Cu	1.006537	0.481073	0.205399
Cu27	Cu	1.339871	0.814406	0.538732
O28	O	0.669174	0.312997	0.108433
O29	O	1.002507	0.646330	0.441766
O30	O	1.335840	0.979664	0.775100
C31	C	0.676716	-0.059809	0.000152
C32	C	1.010050	0.273524	0.333486
C33	C	1.343383	0.606858	0.666819
C34	C	0.675204	-0.185787	0.000151
C35	C	1.008537	0.147546	0.333484
C36	C	1.341871	0.480880	0.666817
C37	C	0.569108	0.157195	0.000119
C38	C	0.902441	0.490528	0.333452
C39	C	1.235775	0.823862	0.666786
C40	C	0.505882	0.155669	0.000104
C41	C	0.839215	0.489002	0.333438
C42	C	1.172549	0.822335	0.666771
C43	C	0.672423	-0.416434	0.000128
C44	C	1.005756	-0.083100	0.333462
C45	C	1.339090	0.250233	0.666795
C46	C	0.673968	-0.288085	0.000141
C47	C	1.007301	0.045248	0.333474
C48	C	1.340635	0.378582	0.666807
C49	C	0.107337	0.249795	0.000158
C50	C	0.440670	0.583128	0.333491
C51	C	0.774003	0.916462	0.666824
C52	C	0.047928	0.248377	0.000166
C53	C	0.381261	0.581710	0.333499
C54	C	0.714595	0.915044	0.666832
O55	O	0.011701	0.335633	0.000208
O56	O	0.345034	0.668966	0.333541
O57	O	0.678367	1.002300	0.666874
N58	N	0.024684	0.144202	0.000170
N59	N	0.358018	0.477535	0.333503
N60	N	0.691351	0.810868	0.666837
C61	C	0.060853	0.041437	0.000179
C62	C	0.394186	0.374770	0.333513
C63	C	0.727520	0.708104	0.666846
O64	O	0.035627	-0.047303	0.000185
O65	O	0.368961	0.286031	0.333518
O66	O	0.702294	0.619364	0.666852
C67	C	0.120260	0.042856	0.000181
C68	C	0.453594	0.376189	0.333514
C69	C	0.786927	0.709523	0.666847
C70	C	0.143501	0.147038	0.000163
C71	C	0.476834	0.480372	0.333497
C72	C	0.810167	0.813705	0.666830
C73	C	0.130577	0.353969	0.000142
C74	C	0.463911	0.687302	0.333475
C75	C	0.797244	1.020635	0.666808
C76	C	0.189982	0.355386	0.000131
C77	C	0.523315	0.688719	0.333465
C78	C	0.856648	1.022053	0.666798
C79	C	0.226146	0.252630	0.000137
C80	C	0.559479	0.585963	0.333470
C81	C	0.892812	0.919296	0.666803
C82	C	0.202905	0.148456	0.000153
C83	C	0.536238	0.481789	0.333486
C84	C	0.869572	0.815122	0.666819
C85	C	0.156428	-0.059907	0.000199
C86	C	0.489761	0.273426	0.333533
C87	C	0.823095	0.606759	0.666866
C88	C	0.215839	-0.058479	0.000202
C89	C	0.549172	0.274854	0.333535
C90	C	0.882506	0.608187	0.666868
C91	C	0.239079	0.045703	0.000184
C92	C	0.572412	0.379036	0.333517
C93	C	0.905746	0.712370	0.666851
C94	C	0.298474	0.047116	0.000148
C95	C	0.631807	0.380450	0.333481
C96	C	0.965140	0.713783	0.666814
N97	N	0.321717	0.151292	0.000144
N98	N	0.655050	0.484625	0.333477
N99	N	0.988384	0.817959	0.666810
C100	C	0.285553	0.254049	0.000138
C101	C	0.618887	0.587382	0.333471
C102	C	0.952220	0.920715	0.666805
C103	C	-0.063907	0.038465	0.000179
C104	C	0.269426	0.371798	0.333512
C105	C	0.602759	0.705132	0.666846
C106	C	-0.123313	0.037045	0.000168
C107	C	0.210020	0.370378	0.333502
C108	C	0.543353	0.703712	0.666835
C109	C	-0.136234	0.243985	0.000157
C110	C	0.197099	0.577319	0.333491
C111	C	0.530432	0.910652	0.666824
C112	C	-0.076827	0.245404	0.000159
C113	C	0.256506	0.578738	0.333492
C114	C	0.589840	0.912071	0.666825
C115	C	-0.040664	0.142641	0.000175
C116	C	0.292670	0.475974	0.333508
C117	C	0.626003	0.809307	0.666841
C118	C	0.410308	0.257017	0.000115
C119	C	0.743641	0.590350	0.333448
C120	C	1.076974	0.923684	0.666782
C121	C	0.469718	0.258425	0.000099
C122	C	0.803051	0.591759	0.333432
C123	C	1.136385	0.925092	0.666766
C124	C	0.482634	0.051485	0.000117
C125	C	0.815967	0.384819	0.333450
C126	C	1.149300	0.718152	0.666784
C127	C	0.423229	0.050077	0.000126
C128	C	0.756562	0.383410	0.333459
C129	C	1.089895	0.716743	0.666793
C130	C	0.387066	0.152852	0.000129
C131	C	0.720400	0.486185	0.333463
C132	C	1.053733	0.819518	0.666796
O133	O	0.334736	-0.040094	0.000111
O134	O	0.668069	0.293240	0.333444
O135	O	1.001403	0.626573	0.666778
O136	O	0.310787	0.342774	0.000150
O137	O	0.644120	0.676107	0.333483
O138	O	0.977454	1.009440	0.666816
C139	C	0.777291	0.138276	0.000164
C140	C	1.110625	0.471609	0.333497
C141	C	1.443958	0.804943	0.666831
C142	C	0.840517	0.139802	0.000170
C143	C	1.173851	0.473135	0.333503
C144	C	1.507184	0.806469	0.666836
C145	C	0.669683	0.355280	0.000130
C146	C	1.003016	0.688613	0.333464
C147	C	1.336349	1.021946	0.666797
C148	C	0.671195	0.481258	0.000124
C149	C	1.004529	0.814591	0.333457
C150	C	1.337862	1.147924	0.666790
N151	N	0.673193	0.147725	0.308386
N152	N	1.006526	0.481058	0.641720
N153	N	1.339860	0.814391	0.975053
N154	N	0.673211	0.147737	-0.308101
N155	N	1.006544	0.481070	0.025233
N156	N	1.339877	0.814404	0.358566
C157	C	0.673201	0.147737	0.574057
C158	C	1.006535	0.481071	0.907390
C159	C	1.339868	0.814404	1.240724
C160	C	0.673195	0.147734	0.426219
C161	C	1.006528	0.481067	0.759552
C162	C	1.339861	0.814400	1.092886
H163	H	0.488636	0.343267	0.000084
H164	H	0.821970	0.676600	0.333417
H165	H	1.155303	1.009933	0.666751
Br166	Br	0.361239	0.396499	0.000122
Br167	Br	0.694573	0.729832	0.333455
Br168	Br	1.027906	1.063165	0.666788
H169	H	-0.034466	-0.045223	0.000181
H170	H	0.298868	0.288110	0.333514
H171	H	0.632201	0.621444	0.666847
Br172	Br	-0.045293	0.386799	0.000136
Br173	Br	0.288040	0.720132	0.333469
Br174	Br	0.621373	1.053466	0.666802
Br175	Br	-0.154846	-0.104351	0.000153
Br176	Br	0.178487	0.228983	0.333486
Br177	Br	0.511821	0.562316	0.666819
Br178	Br	0.124903	-0.201306	0.000194
Br179	Br	0.458237	0.132027	0.333528
Br180	Br	0.791570	0.465360	0.666861
Br181	Br	0.264915	-0.197953	0.000230
Br182	Br	0.598248	0.135380	0.333564
Br183	Br	0.931581	0.468714	0.666897
H184	H	0.404306	-0.034757	0.000121
H185	H	0.737639	0.298576	0.333454
H186	H	1.070972	0.631910	0.666788
H187	H	0.512089	-0.032176	0.000117
H188	H	0.845422	0.301157	0.333450
H189	H	1.178756	0.634491	0.666783
H190	H	0.101138	0.437650	0.000142
H191	H	0.434471	0.770984	0.333475
H192	H	0.767804	1.104317	0.666809
Br193	Br	0.221512	0.496784	0.000114
Br194	Br	0.554846	0.830117	0.333447
Br195	Br	0.888179	1.163451	0.666780
H196	H	-0.165690	0.327655	0.000159
H197	H	0.167643	0.660989	0.333492
H198	H	0.500976	0.994322	0.666826
