data_functionalizedCrystal
_audit_creation_method	'MofGen! by Chris Wilmer'
_symmetry_space_group_name_H-M	'P1'
_symmetry_Int_Tables_number	1
_symmetry_cell_setting	triclinic
loop_
_symmetry_equiv_pos_as_xyz
  x,y,z
_cell_length_a	14.971487
_cell_length_b	9.798715
_cell_length_c	14.971486
_cell_angle_alpha	90.003357
_cell_angle_beta	96.385734
_cell_angle_gamma	90.002485
loop_
_atom_site_label
_atom_site_type_symbol
_atom_site_fract_x
_atom_site_fract_y
_atom_site_fract_z
O1	O	-1.186943	0.113296	0.116564
O2	O	-0.926543	0.113342	0.130522
O3	O	-1.063723	0.113308	-0.006657
O4	O	-1.049764	0.113330	0.253743
O5	O	-1.063713	-0.113674	-0.006658
O6	O	-0.926533	-0.113640	0.130521
O7	O	-1.186933	-0.113686	0.116563
Zn8	Zn	-1.056732	-0.149701	0.123542
Zn9	Zn	-1.056745	0.149357	0.123543
O10	O	-1.049754	-0.113652	0.253742
C11	C	-0.893214	-0.000143	0.129897
C12	C	-0.793917	-0.000126	0.128026
N13	N	-1.056729	-0.353801	0.123541
C14	C	-0.736691	-0.000120	0.208615
C15	C	-0.643392	-0.000137	0.206852
C16	C	-0.607320	-0.000151	0.124499
C17	C	-0.664552	-0.000162	0.043903
C18	C	-0.757850	-0.000154	0.045668
C19	C	-0.470090	-0.000175	0.040232
C20	C	-0.376786	-0.000180	0.038467
C21	C	-0.355632	-0.000158	0.201416
C22	C	-0.448929	-0.000150	0.203181
C23	C	-0.506156	-0.000158	0.122585
C24	C	-1.114329	-0.421592	0.065692
C25	C	-1.114343	-0.578755	0.065689
C26	C	-0.220263	-0.000189	0.117187
C27	C	-0.319560	-0.000173	0.119056
C28	C	-1.063094	-0.000182	-0.039982
C29	C	-1.061223	-0.000181	-0.139279
N30	N	-1.056755	0.353457	0.123536
C31	C	-1.141812	-0.000196	-0.196504
C32	C	-1.140049	-0.000182	-0.289804
C33	C	-1.057696	-0.000163	-0.325876
C34	C	-0.977100	-0.000143	-0.268644
C35	C	-0.978864	-0.000148	-0.175346
C36	C	-0.973429	-0.000138	-0.463107
C37	C	-0.971665	-0.000136	-0.556411
C38	C	-1.134614	-0.000172	-0.577564
C39	C	-1.136378	-0.000176	-0.484266
C40	C	-1.055782	-0.000160	-0.427040
C41	C	-1.050383	-0.000159	0.287067
C42	C	-1.052254	-0.000151	0.386364
H43	H	-0.766053	-0.000107	0.275677
F44	F	-0.294727	-0.000152	0.287193
F45	F	-0.889453	-0.000107	-0.307037
H46	H	-0.596802	-0.000130	0.272476
F47	F	-0.887649	-0.000117	-0.402204
H48	H	-1.007442	-0.588254	0.173070
F49	F	-0.487318	-0.000121	0.290830
H50	H	-1.007423	-0.412113	0.173063
H51	H	-0.913240	-0.000135	-0.128754
F52	F	-0.338397	-0.000230	-0.049182
F53	F	-0.530992	-0.000188	-0.045548
F54	F	-1.224027	-0.000194	-0.445878
F55	F	-0.884015	-0.000117	-0.594800
H56	H	-0.635175	-0.000193	-0.023150
H57	H	-0.804443	-0.000159	-0.019956
H58	H	-1.200238	-0.000181	-0.624162
H59	H	-1.163629	-0.363282	0.016163
H60	H	-1.163660	-0.637052	0.016164
F61	F	-1.229465	-0.000230	-0.158123
H62	H	-1.205673	-0.000197	-0.336394
