data_functionalizedCrystal
_audit_creation_method	'MofGen! by Chris Wilmer'
_symmetry_space_group_name_H-M	'P1'
_symmetry_Int_Tables_number	1
_symmetry_cell_setting	triclinic
loop_
_symmetry_equiv_pos_as_xyz
  x,y,z
_cell_length_a	10.489741
_cell_length_b	10.489716
_cell_length_c	9.565339
_cell_angle_alpha	89.996818
_cell_angle_beta	89.994586
_cell_angle_gamma	84.534155
loop_
_atom_site_label
_atom_site_type_symbol
_atom_site_fract_x
_atom_site_fract_y
_atom_site_fract_z
O1	O	1.694025	0.179964	0.116160
O2	O	1.322828	0.196857	0.116180
O3	O	1.516889	0.002811	0.116175
O4	O	1.499964	0.374010	0.116165
O5	O	1.516898	0.002816	-0.116346
O6	O	1.322837	0.196863	-0.116340
O7	O	1.694034	0.179970	-0.116360
Zn8	Zn	1.508436	0.188417	-0.153268
Zn9	Zn	1.508425	0.188409	0.153088
O10	O	1.499972	0.374016	-0.116355
C11	C	1.275301	0.195584	-0.000077
C12	C	1.133672	0.191767	-0.000069
C13	C	1.515622	-0.044719	-0.000081
C14	C	1.511817	-0.186350	-0.000068
C15	C	1.065542	0.068301	-0.000079
C16	C	0.973406	0.126622	0.114561
C17	C	0.973449	0.126657	-0.114685
C18	C	1.043401	0.250139	0.114666
C19	C	1.043453	0.250157	-0.114683
C20	C	0.951344	0.308568	-0.000015
C21	C	1.630822	-0.284024	-0.000088
C22	C	1.567933	-0.361387	0.114557
C23	C	1.567914	-0.361345	-0.114690
C24	C	1.448978	-0.261848	0.114671
C25	C	1.448976	-0.261801	-0.114679
C26	C	1.386000	-0.339115	-0.000006
C27	C	1.741561	0.181243	-0.000100
C28	C	1.883190	0.185060	-0.000099
C29	C	1.501240	0.421545	-0.000096
C30	C	1.505044	0.563176	-0.000100
N31	N	1.508453	0.188421	-0.362347
C32	C	1.598229	0.098688	-0.453515
C33	C	1.482736	0.072852	-0.546678
C34	C	1.623901	0.214173	-0.546739
C35	C	1.392902	0.162529	-0.453458
C36	C	1.534143	0.303900	-0.453511
C37	C	1.418567	0.278114	-0.546632
N38	N	1.508418	0.188395	0.362167
H39	H	1.115241	-0.033196	0.000067
F40	F	0.932971	0.058352	-0.241368
F41	F	1.766119	-0.251766	0.000053
F42	F	1.633589	-0.418245	0.241237
F43	F	1.751530	0.242656	-0.600303
F44	F	1.250600	-0.371052	0.000078
F45	F	1.265239	0.133896	-0.400133
H46	H	0.942393	0.074378	0.211486
H47	H	1.342547	0.353991	-0.587260
H48	H	1.674076	0.022763	-0.412628
H49	H	1.398765	-0.218546	0.211701
H50	H	1.074220	0.302337	0.211695
F51	F	1.383396	-0.204890	-0.241366
H52	H	1.460983	-0.024817	-0.587604
F53	F	0.886727	0.441370	0.000060
H54	H	1.074498	0.302357	-0.211612
F55	F	1.633611	-0.418161	-0.241374
H56	H	1.555931	0.401540	-0.412556
