data_functionalizedCrystal
_audit_creation_method	'MofGen! by Chris Wilmer'
_symmetry_space_group_name_H-M	'P1'
_symmetry_Int_Tables_number	1
_symmetry_cell_setting	triclinic
loop_
_symmetry_equiv_pos_as_xyz
  x,y,z
_cell_length_a	13.897449
_cell_length_b	18.101397
_cell_length_c	18.101389
_cell_angle_alpha	89.978953
_cell_angle_beta	89.982153
_cell_angle_gamma	90.021745
loop_
_atom_site_label
_atom_site_type_symbol
_atom_site_fract_x
_atom_site_fract_y
_atom_site_fract_z
Zn1	Zn	1.474656	-0.294882	-0.418697
Zn2	Zn	1.474551	-0.418708	-0.294850
Zn3	Zn	1.313354	-0.294887	-0.294872
Zn4	Zn	1.313320	-0.418689	-0.418653
O5	O	1.393970	-0.356791	-0.356768
O6	O	1.609624	-0.311313	-0.402278
O7	O	1.453138	-0.402293	-0.191220
O8	O	1.334809	-0.191254	-0.311326
O9	O	1.609546	-0.402288	-0.311288
O10	O	1.453318	-0.191250	-0.402300
O11	O	1.334707	-0.311322	-0.191236
O12	O	1.178368	-0.311304	-0.311283
O13	O	1.334751	-0.402256	-0.522291
O14	O	1.178342	-0.402261	-0.402224
O15	O	1.453285	-0.311295	-0.522324
O16	O	1.453105	-0.522338	-0.311245
O17	O	1.334649	-0.522324	-0.402202
C18	C	1.143356	-0.356782	-0.356751
C19	C	1.036142	-0.356795	-0.356761
C20	C	1.393888	-0.549202	-0.356732
C21	C	1.393941	-0.631516	-0.356742
C22	C	0.839847	-0.356798	-0.356781
C23	C	0.949079	-0.356794	-0.356768
C24	C	1.394064	-0.930607	-0.356809
C25	C	1.468385	-0.899260	-0.299428
C26	C	1.468643	-0.813641	-0.299577
C27	C	1.394003	-0.782225	-0.356775
C28	C	1.421558	-0.813244	-0.434835
C29	C	1.422133	-0.898889	-0.434523
C30	C	1.291988	-0.899114	-0.336806
C31	C	1.292493	-0.813465	-0.335063
C32	C	1.393966	-0.698365	-0.356760
C33	C	1.394102	-1.014466	-0.356829
C34	C	1.645563	-0.356802	-0.356785
C35	C	1.752777	-0.356806	-0.356793
C36	C	1.394026	-0.356773	-0.549930
C37	C	1.394050	-0.356765	-0.632244
C38	C	1.394079	-0.163630	-0.356820
C39	C	1.394126	-0.081315	-0.356843
C40	C	1.394106	-0.356626	-0.931335
C41	C	1.319271	-0.413674	-0.899989
C42	C	1.319473	-0.413938	-0.814371
C43	C	1.394077	-0.356695	-0.782953
C44	C	1.495710	-0.377877	-0.814049
C45	C	1.495293	-0.378252	-0.899694
C46	C	1.368191	-0.278269	-0.899765
C47	C	1.365930	-0.278722	-0.814115
C48	C	1.394067	-0.356732	-0.699093
C49	C	1.394123	-0.356590	-1.015195
C50	C	1.393970	-0.356757	-0.164358
C51	C	1.394133	-0.356556	-0.082044
H52	H	1.451403	-0.792670	-0.241696
Br53	Br	1.594666	-0.779395	-0.321639
Br54	Br	1.440007	-0.933653	-0.202663
H55	H	1.369081	-0.792893	-0.478738
H56	H	1.336584	-0.472019	-0.793885
Br57	Br	1.199692	-0.932905	-0.406461
Br58	Br	1.593724	-0.935039	-0.321230
H59	H	1.517260	-0.435531	-0.919672
H60	H	1.336211	-0.471400	-0.921511
H61	H	1.295368	-0.258970	-0.921359
Br62	Br	1.546491	-0.932096	-0.462765
Br63	Br	1.544525	-0.777403	-0.463559
H64	H	1.518056	-0.434548	-0.792602
H65	H	1.370372	-0.919624	-0.478749
Br66	Br	1.195227	-0.777835	-0.399620
H67	H	1.266920	-0.920766	-0.280871
Br68	Br	1.257853	-0.779681	-0.239318
H69	H	1.416458	-0.233962	-0.792728
H70	H	1.244109	-0.400683	-0.793346
Br71	Br	1.193272	-0.391805	-0.934302
Br72	Br	1.591318	-0.311956	-0.934262
Br73	Br	1.591146	-0.310799	-0.780138
Br74	Br	1.241262	-0.252099	-0.780252
H75	H	1.422698	-0.235765	-0.920039
