data_functionalizedCrystal
_audit_creation_method	'MofGen! by Chris Wilmer'
_symmetry_space_group_name_H-M	'P1'
_symmetry_Int_Tables_number	1
_symmetry_cell_setting	triclinic
loop_
_symmetry_equiv_pos_as_xyz
  x,y,z
_cell_length_a	15.944551
_cell_length_b	16.109301
_cell_length_c	14.586319
_cell_angle_alpha	89.998582
_cell_angle_beta	89.994700
_cell_angle_gamma	83.480109
loop_
_atom_site_label
_atom_site_type_symbol
_atom_site_fract_x
_atom_site_fract_y
_atom_site_fract_z
O1	O	-0.107967	-1.103166	0.076184
O2	O	0.392033	-0.603166	0.576184
O3	O	-0.121403	-0.861109	0.076199
O4	O	0.378597	-0.361109	0.576199
O5	O	0.007592	-0.988748	0.076183
O6	O	0.507592	-0.488748	0.576183
O7	O	-0.236962	-0.975528	0.076200
O8	O	0.263038	-0.475528	0.576200
O9	O	0.007595	-0.988737	-0.076298
O10	O	0.507595	-0.488737	0.423702
O11	O	-0.121400	-0.861099	-0.076282
O12	O	0.378600	-0.361099	0.423718
O13	O	-0.107964	-1.103156	-0.076296
O14	O	0.392036	-0.603156	0.423704
Cu15	Cu	-0.114682	-0.982126	-0.090212
Cu16	Cu	0.385318	-0.482126	0.409788
Cu17	Cu	-0.114685	-0.982139	0.090114
Cu18	Cu	0.385315	-0.482139	0.590114
O19	O	-0.236959	-0.975517	-0.076280
O20	O	0.263041	-0.475517	0.423720
C21	C	-0.120857	-0.830129	-0.000039
C22	C	0.379143	-0.330129	0.499961
C23	C	-0.119226	-0.737833	-0.000034
C24	C	0.380774	-0.237833	0.499966
C25	C	0.038887	-0.988194	-0.000057
C26	C	0.538887	-0.488194	0.499943
C27	C	0.132133	-0.986548	-0.000058
C28	C	0.632133	-0.486548	0.499942
C29	C	-0.268254	-0.976071	-0.000038
C30	C	0.231746	-0.476071	0.499962
C31	C	-0.361500	-0.977717	-0.000031
C32	C	0.138500	-0.477717	0.499969
C33	C	0.346962	-0.903499	-0.000040
C34	C	0.846962	-0.403499	0.499960
C35	C	0.407994	-0.942059	-0.075225
C36	C	0.907994	-0.442059	0.424775
C37	C	0.302858	-0.983572	-0.000051
C38	C	0.802858	-0.483572	0.499949
C39	C	0.407974	-0.942088	0.075109
C40	C	0.907974	-0.442088	0.575109
C41	C	0.467769	-0.980691	-0.000040
C42	C	0.967769	-0.480691	0.499960
C43	C	0.362661	-1.022154	-0.075297
C44	C	0.862661	-0.522154	0.424703
C45	C	0.362635	-1.022172	0.075104
C46	C	0.862635	-0.522172	0.575104
C47	C	0.423649	-1.060790	-0.000099
C48	C	0.923649	-0.560790	0.499901
C49	C	0.207856	-0.985229	-0.000058
C50	C	0.707856	-0.485229	0.499942
C51	C	0.562770	-0.979039	-0.000039
C52	C	1.062770	-0.479039	0.499961
C53	C	-0.108510	-1.134136	-0.000056
C54	C	0.391490	-0.634136	0.499944
C55	C	-0.110141	-1.226432	-0.000055
C56	C	0.389859	-0.726432	0.499945
N57	N	-0.114679	-0.982124	-0.217044
N58	N	0.385321	-0.482124	0.282956
C59	C	-0.191975	-0.515584	-0.000040
C60	C	0.308025	-0.015584	0.499960
C61	C	-0.190435	-0.428863	-0.000046
C62	C	0.309565	0.071137	0.499954
C63	C	-0.037387	-0.448688	-0.000053
C64	C	0.462613	0.051312	0.499947
C65	C	-0.038927	-0.535407	-0.000053
C66	C	0.461073	-0.035407	0.499947
C67	C	-0.116224	-0.568853	-0.000042
C68	C	0.383776	-0.068853	0.499958
C69	C	-0.113143	-0.395412	-0.000047
C70	C	0.386857	0.104588	0.499953
C71	C	-0.111473	-0.301386	-0.000054
C72	C	0.388527	0.198614	0.499946
C73	C	-0.117894	-0.662885	-0.000037
C74	C	0.382106	-0.162885	0.499963
C75	C	-0.057578	-1.038665	-0.548044
C76	C	0.442422	-0.538665	-0.048044
C77	C	-0.057579	-1.038662	-0.452063
C78	C	0.442421	-0.538662	0.047937
C79	C	-0.171788	-0.925604	-0.452060
C80	C	0.328212	-0.425604	0.047940
C81	C	-0.171791	-0.925611	-0.548039
C82	C	0.328209	-0.425611	-0.048039
C83	C	-0.114681	-0.982140	-0.596029
C84	C	0.385319	-0.482140	-0.096029
C85	C	-0.114679	-0.982131	-0.404068
C86	C	0.385321	-0.482131	0.095932
C87	C	-0.114680	-0.982129	-0.300001
C88	C	0.385320	-0.482129	0.199999
C89	C	-0.114681	-0.982144	-0.700103
C90	C	0.385319	-0.482144	-0.200103
N91	N	-0.114682	-0.982148	0.216946
N92	N	0.385318	-0.482148	0.716946
H93	H	0.313632	-0.837035	-0.000111
H94	H	0.813632	-0.337035	0.499889
Cl95	Cl	0.439025	-0.889766	-0.173355
Cl96	Cl	0.939025	-0.389766	0.326645
Cl97	Cl	0.056311	-0.602379	-0.000064
Cl98	Cl	0.556311	-0.102379	0.499936
Cl99	Cl	0.331822	-1.074395	-0.173541
Cl100	Cl	0.831822	-0.574395	0.326459
H101	H	0.456830	-1.127313	-0.000145
H102	H	0.956830	-0.627313	0.499855
H103	H	-0.252119	-0.385495	-0.000045
H104	H	0.247881	0.114505	0.499955
H105	H	-0.218284	-0.879579	-0.412977
H106	H	0.281716	-0.379579	0.087023
H107	H	0.342515	-1.056015	0.138666
H108	H	0.842515	-0.556015	0.638666
H109	H	0.428038	-0.908215	0.138677
H110	H	0.928038	-0.408215	0.638677
Cl111	Cl	0.014209	-1.109726	-0.391742
Cl112	Cl	0.514209	-0.609726	0.108258
Cl113	Cl	-0.289147	-0.557627	-0.000031
Cl114	Cl	0.210853	-0.057627	0.499969
H115	H	-0.011077	-1.084695	-0.587116
H116	H	0.488923	-0.584695	-0.087116
Cl117	Cl	-0.243587	-0.854550	-0.608369
Cl118	Cl	0.256413	-0.354550	-0.108369
H119	H	0.025546	-0.421446	-0.000067
H120	H	0.525546	0.078554	0.499933
