data_functionalizedCrystal
_audit_creation_method	'MofGen! by Chris Wilmer'
_symmetry_space_group_name_H-M	'P1'
_symmetry_Int_Tables_number	1
_symmetry_cell_setting	triclinic
loop_
_symmetry_equiv_pos_as_xyz
  x,y,z
_cell_length_a	6.817900
_cell_length_b	9.582860
_cell_length_c	14.125286
_cell_angle_alpha	94.009630
_cell_angle_beta	100.396688
_cell_angle_gamma	111.206767
loop_
_atom_site_label
_atom_site_type_symbol
_atom_site_fract_x
_atom_site_fract_y
_atom_site_fract_z
V1	V	-4.031080	-0.205901	-0.299815
V2	V	-3.531080	0.294099	0.200185
O3	O	-3.977390	0.011084	-0.294289
O4	O	-3.477390	0.511084	0.205711
O5	O	-4.022116	-0.409410	-0.297590
O6	O	-3.522116	0.090590	0.202410
O7	O	-3.966519	-0.202212	-0.430655
O8	O	-3.466519	0.297788	0.069345
O9	O	-4.033371	-0.197549	-0.160304
O10	O	-3.533371	0.302451	0.339696
V11	V	-4.511692	-0.180009	-0.283150
V12	V	-4.011692	0.319991	0.216850
O13	O	-4.298724	-0.262697	-0.336372
O14	O	-3.798724	0.237303	0.163628
O15	O	-4.694245	-0.123212	-0.246593
O16	O	-4.194245	0.376788	0.253407
O17	O	-4.297449	0.023501	-0.285375
O18	O	-3.797449	0.523501	0.214625
O19	O	-4.682778	-0.396993	-0.288675
O20	O	-4.182778	0.103007	0.211325
O21	O	-4.626797	-0.188360	-0.422661
O22	O	-4.126797	0.311640	0.077339
O23	O	-4.353046	-0.183697	-0.152310
O24	O	-3.853046	0.316303	0.347690
C25	C	-3.877233	-0.459038	-0.292815
C26	C	-3.377233	0.040962	0.207185
C27	C	-3.951083	-0.625406	-0.291868
C28	C	-3.451083	-0.125406	0.208132
C29	C	-3.806313	-0.194734	-0.462551
C30	C	-3.306313	0.305266	0.037449
C31	C	-3.835072	-0.193064	-0.569512
C32	C	-3.335072	0.306936	-0.069512
C33	C	-4.074429	-0.196097	-0.817631
C34	C	-3.574429	0.303903	-0.317631
C35	C	-3.887723	-0.189810	-0.765322
C36	C	-3.387723	0.310190	-0.265322
C37	C	-3.858429	-0.191621	-0.656363
C38	C	-3.358429	0.308379	-0.156363
C39	C	-4.103731	-0.194286	-0.926600
C40	C	-3.603731	0.305714	-0.426600
C41	C	-4.105676	0.073121	-0.290147
C42	C	-3.605676	0.573121	0.209853
C43	C	-4.011063	0.239487	-0.291100
C44	C	-3.511063	0.739487	0.208900
C45	C	-4.176596	-0.191180	-0.120409
C46	C	-3.676596	0.308820	0.379591
C47	C	-4.127074	-0.192842	-0.013447
C48	C	-3.627074	0.307158	0.486553
H49	H	-3.749878	-0.183063	-0.802369
H50	H	-3.249878	0.316937	-0.302369
H51	H	-4.212261	-0.202841	-0.780586
H52	H	-3.712261	0.297159	-0.280586
