data_functionalizedCrystal
_audit_creation_method	'MofGen! by Chris Wilmer'
_symmetry_space_group_name_H-M	'P1'
_symmetry_Int_Tables_number	1
_symmetry_cell_setting	triclinic
loop_
_symmetry_equiv_pos_as_xyz
  x,y,z
_cell_length_a	21.295419
_cell_length_b	21.295417
_cell_length_c	21.295411
_cell_angle_alpha	90.021644
_cell_angle_beta	90.024539
_cell_angle_gamma	90.045308
loop_
_atom_site_label
_atom_site_type_symbol
_atom_site_fract_x
_atom_site_fract_y
_atom_site_fract_z
Zn1	Zn	0.962356	-0.250432	0.355911
Zn2	Zn	1.462356	0.249568	0.855911
Zn3	Zn	0.962258	-0.355684	0.250637
Zn4	Zn	1.462258	0.144316	0.750637
Zn5	Zn	0.857079	-0.250460	0.250656
Zn6	Zn	1.357079	0.249540	0.750656
Zn7	Zn	0.857048	-0.355695	0.355868
Zn8	Zn	1.357048	0.144305	0.855868
O9	O	0.909685	-0.303068	0.303268
O10	O	1.409685	0.196932	0.803268
O11	O	1.050432	-0.264378	0.341956
O12	O	1.550432	0.235622	0.841956
O13	O	0.948278	-0.341733	0.162550
O14	O	1.448278	0.158267	0.662550
O15	O	0.871098	-0.162367	0.264645
O16	O	1.371098	0.337633	0.764645
O17	O	1.050360	-0.341706	0.264611
O18	O	1.550360	0.158294	0.764611
O19	O	0.948444	-0.162347	0.341975
O20	O	1.448444	0.337653	0.841975
O21	O	0.871003	-0.264425	0.162564
O22	O	1.371003	0.235575	0.662564
O23	O	0.768985	-0.264436	0.264603
O24	O	1.268985	0.235564	0.764603
O25	O	0.871045	-0.341724	0.443963
O26	O	1.371045	0.158276	0.943963
O27	O	0.768963	-0.341751	0.341902
O28	O	1.268963	0.158249	0.841902
O29	O	0.948414	-0.264388	0.443995
O30	O	1.448414	0.235612	0.943995
O31	O	0.948248	-0.443775	0.264570
O32	O	1.448248	0.056225	0.764570
O33	O	0.870951	-0.443783	0.341883
O34	O	1.370951	0.056217	0.841883
C35	C	0.746133	-0.303098	0.303250
C36	C	1.246133	0.196902	0.803250
C37	C	0.676165	-0.303126	0.303258
C38	C	1.176165	0.196874	0.803258
C39	C	0.643358	-0.262927	0.343593
C40	C	1.143358	0.237073	0.843593
C41	C	0.577616	-0.262910	0.343596
C42	C	1.077616	0.237090	0.843596
C43	C	0.544683	-0.303104	0.303269
C44	C	1.044683	0.196896	0.803269
C45	C	0.577498	-0.343305	0.262926
C46	C	1.077498	0.156695	0.762926
C47	C	0.643239	-0.343317	0.262920
C48	C	1.143239	0.156683	0.762920
N49	N	0.441407	-0.358181	0.298349
N50	N	0.941407	0.141819	0.798349
N51	N	0.378956	-0.358168	0.298359
N52	N	0.878956	0.141832	0.798359
C53	C	0.346608	-0.303071	0.303283
C54	C	0.846608	0.196929	0.803283
N55	N	0.379071	-0.247985	0.308210
N56	N	0.879071	0.252015	0.808210
N57	N	0.441528	-0.247999	0.308205
N58	N	0.941528	0.252001	0.808205
C59	C	0.473397	-0.303095	0.303271
C60	C	0.973397	0.196905	0.803271
C61	C	0.242516	-0.262850	0.343624
C62	C	0.742516	0.237150	0.843624
C63	C	0.176772	-0.262832	0.343622
C64	C	0.676772	0.237168	0.843622
C65	C	0.176655	-0.343233	0.262955
C66	C	0.676655	0.156767	0.762955
C67	C	0.242397	-0.343245	0.262953
C68	C	0.742397	0.156755	0.762953
C69	C	0.275324	-0.303055	0.303291
C70	C	0.775324	0.196945	0.803291
C71	C	0.909603	-0.466619	0.303233
C72	C	1.409603	0.033381	0.803233
C73	C	0.909625	-0.536588	0.303239
C74	C	1.409625	-0.036588	0.803239
C75	C	0.949909	-0.569429	0.263024
C76	C	1.449909	-0.069429	0.763024
C77	C	0.949939	-0.635172	0.263038
C78	C	1.449939	-0.135172	0.763038
C79	C	0.909673	-0.668070	0.303261
C80	C	1.409673	-0.168070	0.803261
C81	C	0.869385	-0.635220	0.343485
C82	C	1.369385	-0.135220	0.843485
C83	C	0.869361	-0.569479	0.343474
C84	C	1.369361	-0.069479	0.843474
N85	N	0.854606	-0.771351	0.308054
N86	N	1.354606	-0.271351	0.808054
N87	N	0.854630	-0.833802	0.308061
N88	N	1.354630	-0.333802	0.808061
C89	C	0.909743	-0.866145	0.303297
C90	C	1.409743	-0.366145	0.803297
N91	N	0.964832	-0.833676	0.298514
N92	N	1.464832	-0.333676	0.798514
N93	N	0.964807	-0.771219	0.298504
N94	N	1.464807	-0.271219	0.798504
C95	C	0.909694	-0.739355	0.303278
C96	C	1.409694	-0.239355	0.803278
C97	C	0.950063	-0.970272	0.263095
C98	C	1.450063	-0.470272	0.763095
C99	C	0.950093	-1.036016	0.263113
C100	C	1.450093	-0.536016	0.763113
C101	C	0.869534	-1.036063	0.343557
C102	C	1.369534	-0.536063	0.843557
C103	C	0.869510	-0.970321	0.343541
C104	C	1.369510	-0.470321	0.843541
C105	C	0.909773	-0.937429	0.303307
C106	C	1.409773	-0.437429	0.803307
C107	C	1.073875	-0.303038	0.303286
C108	C	1.573875	0.196962	0.803286
C109	C	1.143843	-0.303025	0.303294
C110	C	1.643843	0.196975	0.803294
C111	C	0.909737	-0.303055	0.467458
C112	C	1.409737	0.196945	0.967458
C113	C	0.909760	-0.303049	0.537426
C114	C	1.409760	0.196951	1.037426
C115	C	0.909785	-0.138878	0.303317
C116	C	1.409785	0.361122	0.803317
C117	C	0.909828	-0.068909	0.303338
C118	C	1.409828	0.431091	0.803338
C119	C	0.909669	-0.303036	0.139716
C120	C	1.409669	0.196964	0.639716
C121	C	0.909769	-0.302864	0.069749
C122	C	1.409769	0.197136	0.569749
C123	C	0.950044	-0.262778	0.570311
C124	C	1.450044	0.237222	1.070311
C125	C	0.950043	-0.262751	0.636053
C126	C	1.450043	0.237249	1.136053
C127	C	0.909764	-0.303006	0.668909
C128	C	1.409764	0.196994	1.168909
C129	C	0.869472	-0.343279	0.636017
C130	C	1.369472	0.156721	1.136017
C131	C	0.869470	-0.343301	0.570276
C132	C	1.369470	0.156699	1.070276
N133	N	0.904908	-0.358075	0.772124
N134	N	1.404908	0.141925	1.272124
N135	N	0.904914	-0.358052	0.834576
N136	N	1.404914	0.141948	1.334576
C137	C	0.909768	-0.302942	0.866984
C138	C	1.409768	0.197058	1.366984
N139	N	0.914629	-0.247853	0.834581
N140	N	1.414629	0.252147	1.334581
N141	N	0.914626	-0.247876	0.772124
N142	N	1.414626	0.252124	1.272124
C143	C	0.909762	-0.302986	0.740194
C144	C	1.409762	0.197014	1.240194
C145	C	0.950054	-0.262638	0.971154
C146	C	1.450054	0.237362	1.471154
C147	C	0.950049	-0.262610	1.036897
C148	C	1.450049	0.237390	1.536897
C149	C	0.869481	-0.343143	1.036860
C150	C	1.369481	0.156857	1.536860
C151	C	0.869483	-0.343166	0.971118
C152	C	1.369483	0.156834	1.471118
C153	C	0.909773	-0.302914	0.938268
C154	C	1.409773	0.197086	1.438268
H155	H	0.149841	-0.375959	0.230120
H156	H	0.649841	0.124041	0.730120
C157	C	0.994356	-0.934086	0.218844
C158	C	1.494356	-0.434086	0.718844
C159	C	1.038678	-0.970215	0.174613
C160	C	1.538678	-0.470215	0.674613
C161	C	1.082971	-0.934031	0.130362
C162	C	1.582971	-0.434031	0.630362
C163	C	1.082943	-0.861718	0.130344
C164	C	1.582943	-0.361718	0.630344
C165	C	1.038619	-0.825585	0.174577
C166	C	1.538619	-0.325585	0.674577
C167	C	0.994326	-0.861769	0.218827
C168	C	1.494326	-0.361769	0.718827
H169	H	1.038700	-1.023749	0.174625
H170	H	1.538700	-0.523749	0.674625
H171	H	1.115782	-0.960779	0.097618
H172	H	1.615782	-0.460779	0.597618
H173	H	1.115731	-0.834932	0.097587
H174	H	1.615731	-0.334932	0.597587
H175	H	1.038597	-0.772051	0.174565
H176	H	1.538597	-0.272051	0.674565
H177	H	0.961515	-0.835021	0.251572
H178	H	1.461515	-0.335021	0.751572
H179	H	0.836602	-0.662010	0.376236
H180	H	1.336602	-0.162010	0.876236
C181	C	0.994362	-0.218454	0.672234
C182	C	1.494362	0.281546	1.172234
C183	C	0.967124	-0.169020	0.717424
C184	C	1.467124	0.330980	1.217424
C185	C	1.011444	-0.124724	0.753602
C186	C	1.511444	0.375276	1.253602
C187	C	1.083002	-0.129861	0.744591
C188	C	1.583002	0.370139	1.244591
C189	C	1.110243	-0.179296	0.699400
C190	C	1.610243	0.320704	1.199400
C191	C	1.065923	-0.223593	0.663221
C192	C	1.565923	0.276407	1.163221
H193	H	0.914150	-0.165215	0.724096
H194	H	1.414150	0.334785	1.224096
H195	H	0.991278	-0.088128	0.787056
H196	H	1.491278	0.411872	1.287056
H197	H	1.115810	-0.097070	0.771373
H198	H	1.615810	0.402930	1.271373
H199	H	1.163217	-0.183101	0.692728
H200	H	1.663217	0.316899	1.192728
H201	H	1.086089	-0.260188	0.629768
H202	H	1.586089	0.239812	1.129768
C203	C	0.994357	-0.218496	0.534179
C204	C	1.494357	0.281504	1.034179
C205	C	0.989263	-0.146933	0.543225
C206	C	1.489263	0.353067	1.043225
C207	C	1.033575	-0.102649	0.507093
C208	C	1.533575	0.397351	1.007093
C209	C	1.082981	-0.129927	0.461916
C210	C	1.582981	0.370073	0.961916
C211	C	1.088076	-0.201494	0.452868
C212	C	1.588076	0.298506	0.952868
C213	C	1.043764	-0.245778	0.489000
C214	C	1.543764	0.254222	0.989000
H215	H	0.952688	-0.126736	0.576670
H216	H	1.452688	0.373264	1.076670
H217	H	1.029802	-0.049670	0.513791
H218	H	1.529802	0.450330	1.013791
H219	H	1.115783	-0.097146	0.435169
H220	H	1.615783	0.402854	0.935169
H221	H	1.124651	-0.221691	0.419424
H222	H	1.624651	0.278309	0.919424
H223	H	1.047537	-0.298757	0.482302
H224	H	1.547537	0.201243	0.982302
H225	H	0.836679	-0.375913	1.063611
H226	H	1.336679	0.124087	1.563611
H227	H	0.982696	-0.542651	0.230264
H228	H	1.482696	-0.042651	0.730264
C229	C	0.994248	-0.671310	0.218793
C230	C	1.494248	-0.171310	0.718793
C231	C	0.989130	-0.662318	0.147226
C232	C	1.489130	-0.162318	0.647226
C233	C	1.033436	-0.698454	0.102980
C234	C	1.533436	-0.198454	0.602980
C235	C	1.082861	-0.743583	0.130302
C236	C	1.582861	-0.243583	0.630302
C237	C	1.087981	-0.752577	0.201872
C238	C	1.587981	-0.252577	0.701872
C239	C	1.043674	-0.716441	0.246118
C240	C	1.543674	-0.216441	0.746118
H241	H	0.952541	-0.628909	0.126998
H242	H	1.452541	-0.128909	0.626998
H243	H	1.029646	-0.691796	0.049999
H244	H	1.529646	-0.191796	0.549999
H245	H	1.115659	-0.770334	0.097548
H246	H	1.615659	-0.270334	0.597548
H247	H	1.124570	-0.785986	0.222100
H248	H	1.624570	-0.285986	0.722100
H249	H	1.047465	-0.723099	0.299100
H250	H	1.547465	-0.223099	0.799100
H251	H	0.150062	-0.230094	0.376467
H252	H	0.650062	0.269906	0.876467
C253	C	0.825165	-0.387461	0.934941
C254	C	1.325165	0.112539	1.434941
C255	C	0.825153	-0.387480	0.862628
C256	C	1.325153	0.112520	1.362628
C257	C	0.780827	-0.431771	0.826451
C258	C	1.280827	0.068229	1.326451
C259	C	0.736513	-0.476044	0.862587
C260	C	1.236513	0.023956	1.362587
C261	C	0.736523	-0.476027	0.934904
C262	C	1.236523	0.023973	1.434904
C263	C	0.780850	-0.431736	0.971081
C264	C	1.280850	0.068264	1.471081
H265	H	0.857959	-0.354705	0.835874
H266	H	1.357959	0.145295	1.335874
H267	H	0.780820	-0.431783	0.772917
H268	H	1.280820	0.068217	1.272917
H269	H	0.703700	-0.508831	0.835807
H270	H	1.203700	-0.008831	1.335807
H271	H	0.703718	-0.508802	0.961658
H272	H	1.203718	-0.008802	1.461658
H273	H	0.780857	-0.431724	1.024615
H274	H	1.280857	0.068276	1.524615
C275	C	0.825155	-0.387603	0.534101
C276	C	1.325155	0.112397	1.034101
C277	C	0.775749	-0.360347	0.488887
C278	C	1.275749	0.139653	0.988887
C279	C	0.731433	-0.404650	0.452712
C280	C	1.231433	0.095350	0.952712
C281	C	0.736522	-0.476208	0.461751
C282	C	1.236522	0.023792	0.961751
C283	C	0.785929	-0.503467	0.506967
C284	C	1.285929	-0.003467	1.006967
C285	C	0.830246	-0.459164	0.543142
C286	C	1.330246	0.040836	1.043142
H287	H	0.771980	-0.307373	0.482195
H288	H	1.271980	0.192627	0.982195
H289	H	0.694859	-0.384471	0.419240
H290	H	1.194859	0.115529	0.919240
H291	H	0.703717	-0.509004	0.434972
H292	H	1.203717	-0.009004	0.934972
H293	H	0.789698	-0.556442	0.513659
H294	H	1.289698	-0.056442	1.013659
H295	H	0.866820	-0.479343	0.576613
H296	H	1.366820	0.020657	1.076613
H297	H	0.670163	-0.230200	0.376439
H298	H	1.170163	0.269800	0.876439
H299	H	0.982902	-1.062754	0.230366
H300	H	1.482902	-0.562754	0.730366
C301	C	0.278737	-0.218631	0.387984
C302	C	0.778737	0.281369	0.887984
C303	C	0.323965	-0.169179	0.360789
C304	C	0.823965	0.330821	0.860789
C305	C	0.360182	-0.124957	0.405147
C306	C	0.860182	0.375043	0.905147
C307	C	0.351171	-0.130185	0.476701
C308	C	0.851171	0.369815	0.976701
C309	C	0.305941	-0.179639	0.503899
C310	C	0.805941	0.320361	1.003899
C311	C	0.269723	-0.223862	0.459541
C312	C	0.769723	0.276138	0.959541
H313	H	0.330638	-0.165307	0.307818
H314	H	0.830638	0.334693	0.807818
H315	H	0.393665	-0.088348	0.385013
H316	H	0.893665	0.411652	0.885013
H317	H	0.377981	-0.097449	0.509537
H318	H	0.877981	0.402551	1.009537
H319	H	0.299268	-0.183511	0.556870
H320	H	0.799268	0.316489	1.056870
H321	H	0.236241	-0.260470	0.479675
H322	H	0.736241	0.239530	0.979675
H323	H	0.836556	-0.542739	0.376223
H324	H	1.336556	-0.042739	0.876223
C325	C	0.278489	-0.387473	0.218590
C326	C	0.778489	0.112527	0.718590
C327	C	0.242268	-0.431687	0.174232
C328	C	0.742268	0.068313	0.674232
C329	C	0.278360	-0.475916	0.129866
C330	C	0.778360	0.024084	0.629866
C331	C	0.350673	-0.475932	0.129858
C332	C	0.850673	0.024068	0.629858
C333	C	0.386898	-0.431716	0.174219
C334	C	0.886898	0.068284	0.674219
C335	C	0.350806	-0.387487	0.218585
C336	C	0.850806	0.112513	0.718585
H337	H	0.188735	-0.431677	0.174236
H338	H	0.688735	0.068323	0.674236
H339	H	0.251544	-0.508648	0.097027
H340	H	0.751544	-0.008648	0.597027
H341	H	0.377390	-0.508673	0.097016
H342	H	0.877390	-0.008673	0.597016
H343	H	0.440432	-0.431726	0.174215
H344	H	0.940432	0.068274	0.674215
H345	H	0.377623	-0.354755	0.251423
H346	H	0.877623	0.145245	0.751423
C347	C	0.825239	-1.072243	0.387802
C348	C	1.325239	-0.572243	0.887802
C349	C	0.825261	-1.144556	0.387816
C350	C	1.325261	-0.644556	0.887816
C351	C	0.780965	-1.180739	0.432064
C352	C	1.280965	-0.680739	0.932064
C353	C	0.736647	-1.144609	0.476298
C354	C	1.236647	-0.644609	0.976298
C355	C	0.736622	-1.072293	0.476286
C356	C	1.236622	-0.572293	0.976286
C357	C	0.780919	-1.036109	0.432038
C358	C	1.280919	-0.536109	0.932038
H359	H	0.858070	-1.171305	0.355070
H360	H	1.358070	-0.671305	0.855070
H361	H	0.780983	-1.234273	0.432073
H362	H	1.280983	-0.734273	0.932073
H363	H	0.703856	-1.171394	0.509053
H364	H	1.203856	-0.671394	1.009053
H365	H	0.703814	-1.045544	0.509032
H366	H	1.203814	-0.545544	1.009032
H367	H	0.780900	-0.982575	0.432029
H368	H	1.280900	-0.482575	0.932029
H369	H	0.550679	-0.376030	0.230091
H370	H	1.050679	0.123970	0.730091
H371	H	0.982857	-0.229859	0.944406
H372	H	1.482857	0.270141	1.444406
C373	C	0.541518	-0.218693	0.387971
C374	C	1.041518	0.281307	0.887971
C375	C	0.577735	-0.174486	0.432340
C376	C	1.077735	0.325514	0.932340
C377	C	0.541640	-0.130270	0.476716
C378	C	1.041640	0.369730	0.976716
C379	C	0.469327	-0.130260	0.476723
C380	C	0.969327	0.369740	0.976723
C381	C	0.433106	-0.174469	0.432353
C382	C	0.933106	0.325531	0.932353
C383	C	0.469201	-0.218685	0.387976
C384	C	0.969201	0.281315	0.887976
H385	H	0.631269	-0.174492	0.432337
H386	H	1.131269	0.325508	0.932337
H387	H	0.568453	-0.097544	0.509563
H388	H	1.068453	0.402456	1.009563
H389	H	0.442607	-0.097529	0.509573
H390	H	0.942607	0.402471	1.009573
H391	H	0.379572	-0.174463	0.432356
H392	H	0.879572	0.325537	0.932356
H393	H	0.442387	-0.251411	0.355130
H394	H	0.942387	0.248589	0.855130
H395	H	0.982852	-0.229813	1.063670
H396	H	1.482852	0.270187	1.563670
C397	C	0.825190	-0.934192	0.387777
C398	C	1.325190	-0.434192	0.887777
C399	C	0.753634	-0.943316	0.382576
C400	C	1.253634	-0.443316	0.882576
C401	C	0.709315	-0.907188	0.426816
C402	C	1.209315	-0.407188	0.926816
C403	C	0.736551	-0.861937	0.476257
C404	C	1.236551	-0.361937	0.976257
C405	C	0.808111	-0.852810	0.481459
C406	C	1.308111	-0.352810	0.981459
C407	C	0.852430	-0.888938	0.437219
C408	C	1.352430	-0.388938	0.937219
H409	H	0.733469	-0.976816	0.345975
H410	H	1.233469	-0.476816	0.845975
H411	H	0.656342	-0.913944	0.422964
H412	H	1.156342	-0.413944	0.922964
H413	H	0.703743	-0.835193	0.509006
H414	H	1.203743	-0.335193	1.009006
H415	H	0.828276	-0.819311	0.518060
H416	H	1.328276	-0.319311	1.018060
H417	H	0.905403	-0.882182	0.441071
H418	H	1.405403	-0.382182	0.941071
H419	H	0.669950	-0.376052	0.230073
H420	H	1.169950	0.123948	0.730073
H421	H	0.836675	-0.376052	0.662773
H422	H	1.336675	0.123948	1.162773
