data_functionalizedCrystal
_audit_creation_method	'MofGen! by Chris Wilmer'
_symmetry_space_group_name_H-M	'P1'
_symmetry_Int_Tables_number	1
_symmetry_cell_setting	triclinic
loop_
_symmetry_equiv_pos_as_xyz
  x,y,z
_cell_length_a	12.594517
_cell_length_b	12.594516
_cell_length_c	16.120256
_cell_angle_alpha	87.121374
_cell_angle_beta	92.877992
_cell_angle_gamma	89.973469
loop_
_atom_site_label
_atom_site_type_symbol
_atom_site_fract_x
_atom_site_fract_y
_atom_site_fract_z
Zn1	Zn	1.596654	0.454312	-0.471424
Zn2	Zn	2.096654	0.954312	0.028576
Zn3	Zn	1.605540	0.623275	-0.332025
Zn4	Zn	2.105540	1.123275	0.167975
Zn5	Zn	1.427686	0.445310	-0.332026
Zn6	Zn	1.927686	0.945310	0.167974
Zn7	Zn	1.418609	0.632246	-0.471391
Zn8	Zn	1.918609	1.132246	0.028609
O9	O	1.512122	0.538785	-0.401716
O10	O	2.012122	1.038785	0.098284
O11	O	1.746777	0.476738	-0.452946
O12	O	2.246777	0.976738	0.047054
O13	O	1.589466	0.592146	-0.215361
O14	O	2.089466	1.092146	0.284639
O15	O	1.450180	0.297559	-0.350533
O16	O	1.950180	0.797559	0.149467
O17	O	1.753306	0.600874	-0.350530
O18	O	2.253306	1.100874	0.149470
O19	O	1.574320	0.304173	-0.452948
O20	O	2.074320	0.804173	0.047052
O21	O	1.458797	0.461396	-0.215362
O22	O	1.958797	0.961396	0.284638
O23	O	1.277537	0.470095	-0.350500
O24	O	1.777537	0.970095	0.149500
O25	O	1.434709	0.616164	-0.588059
O26	O	1.934709	1.116164	-0.088059
O27	O	1.270868	0.607435	-0.452890
O28	O	1.770868	1.107435	0.047110
O29	O	1.565518	0.485436	-0.588084
O30	O	2.065518	0.985436	-0.088084
O31	O	1.580664	0.773409	-0.350497
O32	O	2.080664	1.273409	0.149503
O33	O	1.443326	0.780000	-0.452888
O34	O	1.943326	1.280000	0.047112
C35	C	1.235583	0.538763	-0.401692
C36	C	1.735583	1.038763	0.098308
C37	C	1.117277	0.538780	-0.401701
C38	C	1.617277	1.038780	0.098299
C39	C	1.051613	0.463990	-0.346117
C40	C	1.551613	0.963990	0.153883
C41	C	0.982112	0.559748	-0.325614
C42	C	1.482112	1.059748	0.174386
C43	C	0.975978	0.443070	-0.422219
C44	C	1.475978	0.943070	0.077781
C45	C	1.049337	0.634586	-0.381158
C46	C	1.549337	1.134586	0.118842
C47	C	1.043206	0.517845	-0.477798
C48	C	1.543206	1.017845	0.022202
C49	C	0.973735	0.613672	-0.457324
C50	C	1.473735	1.113672	0.042676
C51	C	1.512002	0.815326	-0.401707
C52	C	2.012002	1.315326	0.098293
C53	C	1.512046	0.933633	-0.401731
C54	C	2.012046	1.433633	0.098269
C55	C	1.437330	1.006507	-0.457382
C56	C	1.937330	1.506507	0.042618
C57	C	1.416311	1.072435	-0.381309
C58	C	1.916311	1.572435	0.118691
C59	C	1.533122	1.078505	-0.477816
C60	C	2.033122	1.578505	0.022184
C61	C	1.490978	0.998000	-0.325617
C62	C	1.990978	1.498000	0.174383
C63	C	1.607830	1.004067	-0.422176
C64	C	2.107830	1.504067	0.077824
C65	C	1.586851	1.069959	-0.346050
C66	C	2.086851	1.569959	0.153950
C67	C	1.789741	0.538809	-0.401742
C68	C	2.289741	1.038809	0.098258
C69	C	1.908046	0.538819	-0.401752
C70	C	2.408046	1.038819	0.098248
C71	C	1.498109	0.552805	-0.619167
C72	C	1.998109	1.052805	-0.119167
C73	C	1.492138	0.558779	-0.711831
C74	C	1.992138	1.058779	-0.211831
C75	C	1.512225	1.261166	-0.401743
C76	C	2.012225	1.761166	0.098257
C77	C	1.512149	1.142861	-0.401751
C78	C	2.012149	1.642861	0.098249
C79	C	1.543261	0.507603	-0.922789
C80	C	2.043261	1.007603	-0.422789
C81	C	1.481200	0.569642	-0.881485
C82	C	1.981200	1.069642	-0.381485
C83	C	1.487287	0.563596	-0.787081
C84	C	1.987287	1.063596	-0.287081
C85	C	1.537175	0.513648	-1.017202
C86	C	2.037175	1.013648	-0.517202
C87	C	1.526142	0.524744	-0.185112
C88	C	2.026142	1.024744	0.314888
C89	C	1.532320	0.518470	-0.092448
C90	C	2.032320	1.018470	0.407552
H91	H	1.081390	0.715563	-0.363754
H92	H	1.581390	1.215563	0.136246
H93	H	1.473098	0.962928	-0.261263
H94	H	1.973098	1.462928	0.238737
O95	O	1.670614	1.106769	-0.283659
O96	O	2.170614	1.606769	0.216341
H97	H	1.652907	1.074237	-0.220599
H98	H	2.152907	1.574237	0.279401
H99	H	0.955116	0.577479	-0.261282
H100	H	1.455116	1.077479	0.238718
O101	O	0.933354	0.335839	-0.445191
O102	O	1.433354	0.835839	0.054809
H103	H	0.964669	0.273888	-0.398940
H104	H	1.464669	0.773888	0.101060
H105	H	1.688764	0.973974	-0.439488
H106	H	2.188764	1.473974	0.060512
H107	H	1.550908	1.113704	-0.542152
H108	H	2.050908	1.613704	-0.042152
H109	H	1.423489	0.627291	-0.917022
H110	H	1.923489	1.127291	-0.417022
H111	H	1.085694	0.400798	-0.299054
H112	H	1.585694	0.900798	0.200946
O113	O	1.619701	0.431241	-0.875725
O114	O	2.119701	0.931241	-0.375725
H115	H	1.702170	0.450554	-0.892404
H116	H	2.202170	0.950554	-0.392404
O117	O	1.353531	0.969416	-0.519630
O118	O	1.853531	1.469416	-0.019630
H119	H	1.274137	0.996747	-0.502462
H120	H	1.774137	1.496747	-0.002462
O121	O	0.928825	0.697556	-0.519611
O122	O	1.428825	1.197556	-0.019611
H123	H	0.958402	0.776894	-0.502402
H124	H	1.458402	1.276894	-0.002402
H125	H	1.070229	0.500083	-0.542111
H126	H	1.570229	1.000083	-0.042111
H127	H	1.335357	1.102533	-0.364033
H128	H	1.835357	1.602533	0.135967
