data_functionalizedCrystal
_audit_creation_method	'MofGen! by Chris Wilmer'
_symmetry_space_group_name_H-M	'P1'
_symmetry_Int_Tables_number	1
_symmetry_cell_setting	triclinic
loop_
_symmetry_equiv_pos_as_xyz
  x,y,z
_cell_length_a	19.288867
_cell_length_b	10.654541
_cell_length_c	18.366186
_cell_angle_alpha	90.001298
_cell_angle_beta	90.004879
_cell_angle_gamma	83.810499
loop_
_atom_site_label
_atom_site_type_symbol
_atom_site_fract_x
_atom_site_fract_y
_atom_site_fract_z
O1	O	0.922375	0.156661	0.060524
O2	O	0.720252	0.177791	0.060531
O3	O	0.825962	-0.015613	0.060523
O4	O	0.816666	0.350065	0.060532
O5	O	0.825948	-0.015606	-0.060577
O6	O	0.720239	0.177798	-0.060569
O7	O	0.922361	0.156667	-0.060576
Zn8	Zn	0.821298	0.167234	-0.079799
Zn9	Zn	0.821316	0.167225	0.079754
O10	O	0.816652	0.350071	-0.060567
C11	C	0.694365	0.177114	-0.000018
C12	C	0.617248	0.175072	-0.000015
C13	C	0.825273	-0.062393	-0.000027
C14	C	0.823231	-0.201793	-0.000025
C15	C	0.061594	0.160358	0.065987
C16	C	0.134054	0.162269	0.065990
C17	C	0.170281	0.163235	-0.000021
C18	C	0.134045	0.162256	-0.066040
C19	C	0.061587	0.160332	-0.066041
C20	C	0.280104	0.239836	-0.050592
C21	C	0.352560	0.241768	-0.050589
C22	C	0.393766	0.169163	-0.000021
C23	C	0.362505	0.094643	0.050555
C24	C	0.290048	0.092719	0.050554
C25	C	0.248850	0.165320	-0.000028
C26	C	0.508563	0.172205	0.065996
C27	C	0.581025	0.174109	0.065996
C28	C	0.581014	0.174108	-0.066035
C29	C	0.508554	0.172192	-0.066033
C30	C	0.472333	0.171246	-0.000016
C31	C	0.949635	-0.232468	-0.000039
C32	C	1.011876	-0.313294	-0.000047
C33	C	1.009954	-0.444271	-0.000045
C34	C	0.945784	-0.494423	-0.000032
C35	C	0.883544	-0.413597	-0.000024
C36	C	0.885473	-0.282619	-0.000028
C37	C	0.757142	-0.382923	-0.000005
C38	C	0.759062	-0.251946	-0.000012
C39	C	0.692973	-0.433075	0.000008
C40	C	0.630731	-0.352249	0.000011
C41	C	0.632656	-0.221265	0.000008
C42	C	0.696822	-0.171120	-0.000004
C43	C	0.948249	0.157344	-0.000025
C44	C	1.025366	0.159387	-0.000023
C45	C	0.817341	0.396852	-0.000017
C46	C	0.819382	0.536251	-0.000013
N47	N	0.821290	0.167239	-0.188690
C48	C	0.863818	0.243169	-0.773239
C49	C	0.863811	0.243182	-0.697012
C50	C	0.821322	0.167211	-0.658902
C51	C	0.778824	0.091246	-0.697026
C52	C	0.778827	0.091246	-0.773252
C53	C	0.818855	0.053989	-0.538138
C54	C	0.818856	0.053987	-0.461913
C55	C	0.821308	0.167214	-0.423794
C56	C	0.823773	0.280445	-0.461909
C57	C	0.823776	0.280445	-0.538136
C58	C	0.821314	0.167204	-0.576247
C59	C	0.863792	0.243194	-0.303024
C60	C	0.863780	0.243209	-0.226795
C61	C	0.778797	0.091262	-0.226811
C62	C	0.778806	0.091258	-0.303038
C63	C	0.821307	0.167222	-0.341141
N64	N	0.821329	0.167210	0.188646
H65	H	0.032107	0.159583	0.119744
H66	H	0.691412	-0.539725	0.000014
O67	O	0.235676	0.318144	-0.105150
H68	H	0.206864	0.255222	-0.139302
O69	O	0.565521	-0.134098	0.000012
H70	H	0.563378	-0.073690	0.049370
O71	O	0.826412	0.402580	-0.420803
H72	H	0.874832	0.444344	-0.435418
O73	O	0.733029	0.009241	-0.655928
H74	H	0.740182	0.021970	-0.596519
O75	O	0.620106	0.175157	0.137196
H76	H	0.582742	0.174188	0.183098
H77	H	0.032090	0.159546	-0.119796
H78	H	0.816851	-0.038220	-0.569168
O79	O	0.256335	0.012322	0.105089
H80	H	0.268202	0.042949	0.161068
H81	H	0.396054	0.035525	0.091734
O82	O	0.732967	0.009328	-0.185713
H83	H	0.703418	-0.043491	-0.225027
H84	H	0.951207	-0.125821	-0.000051
H85	H	0.378004	0.302477	-0.091756
O86	O	1.081086	-0.259206	-0.000062
H87	H	1.071970	-0.154551	-0.000069
H88	H	0.944225	-0.601073	-0.000021
H89	H	0.578489	-0.393095	0.000026
O90	O	0.698896	-0.029852	-0.000005
H91	H	0.753971	-0.008562	-0.000010
O92	O	0.909650	0.325110	-0.814337
H93	H	0.939190	0.377941	-0.775022
O94	O	0.909645	0.325103	-0.655887
H95	H	0.939203	0.377918	-0.695189
O96	O	0.909621	0.325137	-0.344129
H97	H	0.939157	0.377978	-0.304816
H98	H	1.060635	-0.510080	-0.000046
O99	O	0.826431	0.402561	-0.579249
H100	H	0.828133	0.481302	-0.539943
H101	H	0.163546	0.163040	-0.119787
H102	H	0.744209	0.029398	-0.334072
H103	H	0.163556	0.163067	0.119745
H104	H	0.898379	0.305072	-0.195763
H105	H	0.744226	0.029389	-0.804285
O106	O	0.469490	0.171154	0.137196
H107	H	0.506860	0.172124	0.183099
O108	O	0.620075	0.175153	-0.137237
H109	H	0.676547	0.176662	-0.126148
O110	O	0.816195	-0.068132	-0.420804
H111	H	0.814475	-0.146862	-0.460114
H112	H	0.479057	0.171405	-0.119786
