data_functionalizedCrystal
_audit_creation_method	'MofGen! by Chris Wilmer'
_symmetry_space_group_name_H-M	'P1'
_symmetry_Int_Tables_number	1
_symmetry_cell_setting	triclinic
loop_
_symmetry_equiv_pos_as_xyz
  x,y,z
_cell_length_a	12.759400
_cell_length_b	12.759401
_cell_length_c	18.215399
_cell_angle_alpha	90.016498
_cell_angle_beta	90.024546
_cell_angle_gamma	90.014845
loop_
_atom_site_label
_atom_site_type_symbol
_atom_site_fract_x
_atom_site_fract_y
_atom_site_fract_z
Zn1	Zn	-0.418273	1.606235	0.416068
Zn2	Zn	0.081727	2.106235	0.916068
Zn3	Zn	-0.593970	1.606135	0.293009
Zn4	Zn	-0.093970	2.106135	0.793009
Zn5	Zn	-0.418306	1.430543	0.293022
Zn6	Zn	0.081694	1.930543	0.793022
Zn7	Zn	-0.593911	1.430525	0.416041
Zn8	Zn	-0.093911	1.930525	0.916041
O9	O	-0.506115	1.518360	0.354535
O10	O	-0.006115	2.018360	0.854535
O11	O	-0.441590	1.753243	0.399749
O12	O	0.058410	2.253243	0.899749
O13	O	-0.570707	1.582808	0.190026
O14	O	-0.070707	2.082808	0.690026
O15	O	-0.271281	1.453898	0.309361
O16	O	0.228719	1.953898	0.809361
O17	O	-0.570674	1.753169	0.309338
O18	O	-0.070674	2.253169	0.809338
O19	O	-0.271256	1.582978	0.399762
O20	O	0.228744	2.082978	0.899762
O21	O	-0.441647	1.453801	0.190036
O22	O	0.058353	1.953801	0.690036
O23	O	-0.441590	1.283520	0.309335
O24	O	0.058410	1.783520	0.809335
O25	O	-0.570573	1.453868	0.519029
O26	O	-0.070573	1.953868	1.019029
O27	O	-0.570605	1.283507	0.399717
O28	O	-0.070605	1.783507	0.899717
O29	O	-0.441532	1.582961	0.519049
O30	O	0.058468	2.082961	1.019049
O31	O	-0.740983	1.582791	0.309312
O32	O	-0.240983	2.082791	0.809312
O33	O	-0.740939	1.453772	0.399704
O34	O	-0.240939	1.953772	0.899704
C35	C	-0.506095	1.245392	0.354525
C36	C	-0.006095	1.745392	0.854525
C37	C	-0.506112	1.128616	0.354538
C38	C	-0.006112	1.628616	0.854538
C39	C	-0.573399	1.073774	0.401522
C40	C	-0.073399	1.573774	0.901522
C41	C	-0.573412	0.964050	0.401530
C42	C	-0.073412	1.464050	0.901530
C43	C	-0.438850	0.964018	0.307564
C44	C	0.061150	1.464018	0.807564
C45	C	-0.438832	1.073740	0.307560
C46	C	0.061168	1.573740	0.807560
C47	C	-0.640679	1.128650	0.448500
C48	C	-0.140679	1.628650	0.948500
C49	C	-0.707971	1.073808	0.495486
C50	C	-0.207971	1.573808	0.995486
C51	C	-0.707984	0.964084	0.495494
C52	C	-0.207984	1.464084	0.995494
C53	C	-0.640705	0.909201	0.448516
C54	C	-0.140705	1.409201	0.948516
C55	C	-0.779082	1.518297	0.354520
C56	C	-0.279082	2.018297	0.854520
C57	C	-0.895859	1.518367	0.354538
C58	C	-0.395859	2.018367	0.854538
C59	C	-0.950709	1.585622	0.307523
C60	C	-0.450709	2.085622	0.807523
C61	C	-1.060433	1.585686	0.307546
C62	C	-0.560433	2.085686	0.807546
C63	C	-1.060447	1.451232	0.401600
C64	C	-0.560447	1.951232	0.901600
C65	C	-0.950725	1.451173	0.401580
C66	C	-0.450725	1.951173	0.901580
C67	C	-0.895842	1.652815	0.260480
C68	C	-0.395842	2.152815	0.760480
C69	C	-0.950692	1.720075	0.213461
C70	C	-0.450692	2.220075	0.713461
C71	C	-1.060416	1.720140	0.213484
C72	C	-0.560416	2.220140	0.713484
C73	C	-1.115290	1.652944	0.260526
C74	C	-0.615290	2.152944	0.760526
C75	C	-0.232081	1.518451	0.354566
C76	C	0.267919	2.018451	0.854566
C77	C	-0.115305	1.518490	0.354580
C78	C	0.384695	2.018490	0.854580
C79	C	-0.506042	1.518424	0.546488
C80	C	-0.006042	2.018424	1.046488
C81	C	-0.506012	1.518451	0.628287
C82	C	-0.006012	2.018451	1.128287
C83	C	-0.506135	1.792393	0.354545
C84	C	-0.006135	2.292393	0.854545
C85	C	-0.506144	1.909169	0.354550
C86	C	-0.006144	2.409169	0.854550
C87	C	-0.506111	1.518356	0.163329
C88	C	-0.006111	2.018356	0.663329
C89	C	-0.505846	1.518533	0.081530
C90	C	-0.005846	2.018533	0.581530
C91	C	-0.438757	1.585694	0.816492
C92	C	0.061243	2.085694	1.316492
C93	C	-0.438727	1.585706	0.893351
C94	C	0.061273	2.085706	1.393351
C95	C	-0.573103	1.451282	0.893319
C96	C	-0.073103	1.951282	1.393319
C97	C	-0.573128	1.451265	0.816462
C98	C	-0.073128	1.951265	1.316462
C99	C	-0.505956	1.518477	0.778050
C100	C	-0.005956	2.018477	1.278050
C101	C	-0.505901	1.518506	0.931767
C102	C	-0.005901	2.018506	1.431767
C103	C	-0.505869	1.518520	1.015100
C104	C	-0.005869	2.018520	1.515100
C105	C	-0.505987	1.518463	0.694711
C106	C	-0.005987	2.018463	1.194711
H107	H	-0.762770	0.919435	0.533759
H108	H	-0.262770	1.419435	1.033759
H109	H	-0.384059	1.640419	0.785220
H110	H	0.115941	2.140419	1.285220
H111	H	-1.105072	1.774913	0.175204
H112	H	-0.605072	2.274913	0.675204
H113	H	-0.384005	1.640439	0.924647
H114	H	0.115995	2.140439	1.424647
H115	H	-0.806499	1.652767	0.260455
H116	H	-0.306499	2.152767	0.760455
H117	H	-1.105135	1.396524	0.439898
H118	H	-0.605135	1.896524	0.939898
H119	H	-0.906008	1.774790	0.175166
H120	H	-0.406008	2.274790	0.675166
H121	H	-0.640713	0.819857	0.448532
H122	H	-0.140713	1.319857	0.948532
H123	H	-1.204635	1.653011	0.260546
H124	H	-0.704635	2.153011	0.760546
H125	H	-0.384076	0.919324	0.269316
H126	H	0.115924	1.419324	0.769316
H127	H	-0.906066	1.396409	0.439865
H128	H	-0.406066	1.896409	0.939865
H129	H	-0.627794	1.396563	0.924603
H130	H	-0.127794	1.896563	1.424603
H131	H	-0.627848	1.396522	0.785162
H132	H	-0.127848	1.896522	1.285162
H133	H	-0.640677	1.217992	0.448497
H134	H	-0.140677	1.717992	0.948497
H135	H	-0.762741	1.118501	0.533739
H136	H	-0.262741	1.618501	1.033739
H137	H	-0.384034	1.118393	0.269308
H138	H	0.115966	1.618393	0.769308
