data_functionalizedCrystal
_audit_creation_method	'MofGen! by Chris Wilmer'
_symmetry_space_group_name_H-M	'P1'
_symmetry_Int_Tables_number	1
_symmetry_cell_setting	triclinic
loop_
_symmetry_equiv_pos_as_xyz
  x,y,z
_cell_length_a	10.723024
_cell_length_b	13.262508
_cell_length_c	9.798715
_cell_angle_alpha	105.915177
_cell_angle_beta	89.996609
_cell_angle_gamma	84.450950
loop_
_atom_site_label
_atom_site_type_symbol
_atom_site_fract_x
_atom_site_fract_y
_atom_site_fract_z
O1	O	1.656451	0.147213	-0.058834
O2	O	1.293228	0.161304	-0.053608
O3	O	1.483980	0.001535	-0.112906
O4	O	1.465699	0.306981	0.000463
O5	O	1.483966	0.001535	0.114076
O6	O	1.293214	0.161303	0.173374
O7	O	1.656437	0.147212	0.168148
Zn8	Zn	1.474823	0.154258	0.206799
Zn9	Zn	1.474842	0.154258	-0.092259
O10	O	1.465685	0.306981	0.227445
C11	C	1.246727	0.160278	0.059502
C12	C	1.108188	0.157210	0.058361
C13	C	1.482949	-0.037576	-0.013934
C14	C	1.479885	-0.154113	-0.057197
C15	C	1.032758	0.246608	0.091541
C16	C	0.889570	0.243439	0.090363
C17	C	1.471208	-0.482628	0.315780
C18	C	1.474078	-0.373134	0.356429
C19	C	1.475530	-0.318373	0.253026
C20	C	1.474111	-0.373117	0.108967
C21	C	1.471231	-0.482621	0.068314
C22	C	1.475554	-0.318367	0.005561
C23	C	1.474135	-0.373111	-0.138499
C24	C	1.471256	-0.482604	-0.179144
C25	C	1.469804	-0.537364	-0.075742
C26	C	1.478434	-0.208863	0.046213
C27	C	1.478457	-0.208857	-0.201252
C28	C	1.475587	-0.318350	-0.241902
C29	C	1.702938	0.148238	0.055035
C30	C	1.841477	0.151306	0.056167
C31	C	1.466716	0.346092	0.128471
C32	C	1.469780	0.462629	0.171724
N33	N	1.474819	0.154257	0.410899
N34	N	1.474855	0.154251	-0.296362
C35	C	1.554912	0.086879	0.453668
C36	C	1.554932	0.086875	0.610830
H37	H	1.074186	0.325491	0.120827
H38	H	1.479577	-0.164300	0.163508
H39	H	1.623508	0.029193	0.647706
H40	H	1.406259	0.211935	0.490630
H41	H	0.906285	0.074770	0.027752
H42	H	1.470016	-0.527223	0.399955
H43	H	0.824755	0.319971	0.118762
H44	H	1.406285	0.211943	0.666774
H45	H	1.066760	0.078327	0.029048
H46	H	1.475246	-0.328570	0.473722
C47	C	1.474014	-0.378575	-0.400357
H48	H	1.472082	-0.451627	-0.409750
H49	H	1.547170	-0.368110	-0.447314
H50	H	1.401797	-0.353150	-0.441757
C51	C	1.469684	-0.542824	-0.337602
H52	H	1.467750	-0.615877	-0.347001
H53	H	1.542841	-0.532358	-0.384555
H54	H	1.397468	-0.517395	-0.379001
C55	C	1.478702	-0.197935	0.297738
H56	H	1.479351	-0.173175	0.398342
H57	H	1.406683	-0.165675	0.264007
H58	H	1.552055	-0.180651	0.258469
C59	C	1.466601	-0.657804	-0.120458
H60	H	1.465952	-0.682566	-0.221061
H61	H	1.393256	-0.675073	-0.081170
H62	H	1.538627	-0.690077	-0.086744
H63	H	1.479630	-0.164270	-0.285452
C64	C	1.647527	0.008950	0.345966
H65	H	1.635368	0.019180	0.254466
H66	H	1.633405	-0.061171	0.343294
H67	H	1.730955	0.020780	0.373686
