data_functionalizedCrystal
_audit_creation_method	'MofGen! by Chris Wilmer'
_symmetry_space_group_name_H-M	'P1'
_symmetry_Int_Tables_number	1
_symmetry_cell_setting	triclinic
loop_
_symmetry_equiv_pos_as_xyz
  x,y,z
_cell_length_a	19.805407
_cell_length_b	12.759394
_cell_length_c	19.805399
_cell_angle_alpha	90.022273
_cell_angle_beta	90.019573
_cell_angle_gamma	90.013856
loop_
_atom_site_label
_atom_site_type_symbol
_atom_site_fract_x
_atom_site_fract_y
_atom_site_fract_z
Zn1	Zn	1.034795	-0.418291	0.382745
Zn2	Zn	1.034734	-0.593984	0.269567
Zn3	Zn	0.921609	-0.418320	0.269569
Zn4	Zn	0.921598	-0.593928	0.382714
O5	O	0.978184	-0.506131	0.326149
O6	O	1.129503	-0.441608	0.367743
O7	O	1.019708	-0.570717	0.174851
O8	O	0.936654	-0.271295	0.284596
O9	O	1.129459	-0.570689	0.284592
O10	O	1.019811	-0.271274	0.367746
O11	O	0.936595	-0.441658	0.174852
O12	O	0.826891	-0.441603	0.284566
O13	O	0.936634	-0.570594	0.477434
O14	O	0.826883	-0.570622	0.367693
O15	O	1.019799	-0.441554	0.477457
O16	O	1.019696	-0.740998	0.284562
O17	O	0.936575	-0.740957	0.367691
C18	C	0.802328	-0.506111	0.326127
C19	C	0.727096	-0.506127	0.326133
C20	C	0.691765	-0.573409	0.369347
C21	C	0.621077	-0.573411	0.369357
C22	C	0.585720	-0.506136	0.326149
C23	C	0.621056	-0.438847	0.282933
C24	C	0.691743	-0.438841	0.282927
C25	C	0.335983	-0.438870	0.282955
C26	C	0.265291	-0.438884	0.282963
C27	C	0.265316	-0.573440	0.369385
C28	C	0.336003	-0.573434	0.369379
C29	C	0.371333	-0.506142	0.326166
C30	C	0.447982	-0.506139	0.326157
C31	C	0.509073	-0.506143	0.326154
C32	C	0.978146	-0.779098	0.326137
C33	C	0.978192	-0.895875	0.326155
C34	C	1.064719	-0.895695	0.412804
C35	C	1.108003	-0.950465	0.456133
C36	C	1.108043	-1.060187	0.456148
C37	C	1.064793	-1.115140	0.412830
C38	C	1.021508	-1.060370	0.369500
C39	C	1.021474	-0.950646	0.369489
C40	C	0.934980	-1.060550	0.282856
C41	C	0.934942	-0.950828	0.282837
C42	C	0.891729	-1.115504	0.239538
C43	C	0.848447	-1.060733	0.196205
C44	C	0.848409	-0.951005	0.196191
C45	C	0.891657	-0.896058	0.239508
C46	C	1.154727	-0.506152	0.326171
C47	C	1.229959	-0.506161	0.326180
C48	C	0.978222	-0.506065	0.502691
C49	C	0.978238	-0.506036	0.577923
C50	C	0.978240	-0.232097	0.326175
C51	C	0.978264	-0.115321	0.326186
C52	C	0.978185	-0.506121	0.150293
C53	C	0.978300	-0.505853	0.075061
C54	C	1.021543	-0.438842	0.613281
C55	C	1.021550	-0.438811	0.683969
C56	C	0.978255	-0.505982	0.719299
C57	C	0.934945	-0.573179	0.683937
C58	C	0.934935	-0.573203	0.613250
C59	C	0.934983	-0.573081	0.969010
C60	C	0.934998	-0.573054	1.039703
C61	C	1.021598	-0.438689	1.039730
C62	C	1.021588	-0.438713	0.969042
C63	C	0.978276	-0.505907	0.933687
C64	C	0.978268	-0.505937	0.857038
C65	C	0.978266	-0.505957	0.795946
H66	H	1.064697	-0.806354	0.412790
C67	C	0.874508	-1.272649	0.303931
C68	C	0.891775	-1.236111	0.239553
H69	H	0.874541	-1.347108	0.303938
H70	H	0.830818	-1.247878	0.315591
H71	H	0.906463	-1.247753	0.335924
H72	H	0.859817	-1.261001	0.207561
H73	H	0.935471	-1.260893	0.227886
H74	H	1.064824	-1.204481	0.412851
C75	C	0.684683	-0.706407	0.454782
C76	C	0.730625	-0.647357	0.416847
H77	H	0.708673	-0.752053	0.484110
H78	H	0.657098	-0.746537	0.425251
H79	H	0.657126	-0.660673	0.480720
H80	H	0.758179	-0.693091	0.390904
H81	H	0.758222	-0.607223	0.446381
C82	C	0.541632	-0.588221	0.460401
C83	C	0.582246	-0.647376	0.416859
H84	H	0.517665	-0.633888	0.489730
H85	H	0.510458	-0.548166	0.434673
H86	H	0.569232	-0.542500	0.486336
H87	H	0.554645	-0.693091	0.390919
H88	H	0.613423	-0.687448	0.442589
C89	C	0.849367	-0.705872	0.976094
C90	C	0.887367	-0.646926	0.930153
H91	H	0.819969	-0.751460	0.952102
H92	H	0.823506	-0.660076	1.003670
H93	H	0.878858	-0.746068	1.003659
H94	H	0.857876	-0.606723	0.902591
H95	H	0.913230	-0.692727	0.902565
H96	H	0.236542	-0.628229	0.404574
C97	C	0.844491	-0.738976	0.192317
C98	C	0.891616	-0.775450	0.239494
H99	H	0.844470	-0.664517	0.192309
H100	H	0.800823	-0.763837	0.203991
H101	H	0.856230	-0.763824	0.148652
H102	H	0.879874	-0.750608	0.283159
H103	H	0.935294	-0.750578	0.227823
C104	C	0.328926	-0.706433	0.454814
C105	C	0.374866	-0.647381	0.416878
H106	H	0.352920	-0.752078	0.484142
H107	H	0.301342	-0.746566	0.425284
H108	H	0.301370	-0.660702	0.480754
H109	H	0.402420	-0.693112	0.390934
H110	H	0.402463	-0.607245	0.446411
C111	C	1.060066	-0.378964	1.148101
C112	C	1.069201	-0.364814	1.078595
H113	H	1.089451	-0.333354	1.172092
H114	H	1.069960	-0.449542	1.159679
H115	H	1.014592	-0.363575	1.159669
H116	H	1.114675	-0.380210	1.067025
H117	H	1.059312	-0.294220	1.067012
H118	H	1.143282	-1.104781	0.491437
H119	H	0.720509	-0.384048	0.247741
H120	H	0.236506	-0.384094	0.247777
C121	C	0.328848	-0.305864	0.197531
C122	C	0.374811	-0.364905	0.235455
H123	H	0.352822	-0.260203	0.168203
H124	H	0.301293	-0.265750	0.227069
H125	H	0.301263	-0.351602	0.171591
H126	H	0.402393	-0.319167	0.261398
H127	H	0.402378	-0.405023	0.205913
H128	H	1.056802	-0.384147	0.584520
C129	C	0.512688	-0.379107	0.244567
C130	C	0.582194	-0.364892	0.235439
H131	H	0.488699	-0.333452	0.215242
H132	H	0.501129	-0.363827	0.290057
H133	H	0.501098	-0.449680	0.234580
H134	H	0.593785	-0.294320	0.245431
H135	H	0.593758	-0.380164	0.189939
C136	C	0.896509	-0.632810	0.792282
C137	C	0.887353	-0.647015	0.722770
H138	H	0.867130	-0.678401	0.816253
H139	H	0.886618	-0.562223	0.803869
H140	H	0.941986	-0.648191	0.803866
H141	H	0.841877	-0.631626	0.711186
H142	H	0.897239	-0.717618	0.711179
H143	H	0.899739	-0.627754	1.068466
C144	C	1.146376	-0.782186	0.494582
C145	C	1.155545	-0.890059	0.503744
H146	H	1.175729	-0.744899	0.523973
H147	H	1.100894	-0.764254	0.504451
H148	H	1.156297	-0.764245	0.449108
H149	H	1.145619	-0.908001	0.549217
H150	H	1.201038	-0.907997	0.493880
C151	C	0.810084	-1.229009	0.157760
C152	C	0.800911	-1.121138	0.148593
H153	H	0.780740	-1.266301	0.128362
H154	H	0.800158	-1.246948	0.203227
H155	H	0.855575	-1.246937	0.147897
H156	H	0.755422	-1.103209	0.158462
H157	H	0.810833	-1.103192	0.103117
C158	C	1.107163	-0.306014	0.676896
C159	C	1.069158	-0.364956	0.722833
H160	H	1.136557	-0.260422	0.700890
H161	H	1.077680	-0.265830	0.649325
H162	H	1.133034	-0.351819	0.649325
H163	H	1.043282	-0.319151	0.750401
H164	H	1.098644	-0.405143	0.750416
H165	H	0.813159	-0.906416	0.160910
H166	H	1.056846	-0.384020	0.940280
C167	C	0.849351	-0.706047	0.620319
C168	C	0.887344	-0.647084	0.574383
H169	H	0.819974	-0.751665	0.596323
H170	H	0.823467	-0.660265	0.647883
H171	H	0.878847	-0.746215	0.647896
H172	H	0.857849	-0.606911	0.546808
H173	H	0.913230	-0.692872	0.546807
