data_functionalizedCrystal
_audit_creation_method	'MofGen! by Chris Wilmer'
_symmetry_space_group_name_H-M	'P1'
_symmetry_Int_Tables_number	1
_symmetry_cell_setting	triclinic
loop_
_symmetry_equiv_pos_as_xyz
  x,y,z
_cell_length_a	14.971486
_cell_length_b	9.065218
_cell_length_c	14.048226
_cell_angle_alpha	89.995444
_cell_angle_beta	89.998499
_cell_angle_gamma	84.315007
loop_
_atom_site_label
_atom_site_type_symbol
_atom_site_fract_x
_atom_site_fract_y
_atom_site_fract_z
O1	O	1.188380	0.192261	-0.079047
O2	O	1.688380	0.692261	0.420953
O3	O	0.928151	0.215285	-0.079073
O4	O	1.428151	0.715285	0.420927
O5	O	1.063645	-0.010979	-0.079057
O6	O	1.563645	0.489021	0.420943
O7	O	1.052887	0.418524	-0.079062
O8	O	1.552887	0.918524	0.420938
O9	O	1.063628	-0.010992	0.079264
O10	O	1.563628	0.489008	0.579264
O11	O	0.928135	0.215271	0.079249
O12	O	1.428135	0.715271	0.579249
O13	O	1.188363	0.192248	0.079274
O14	O	1.688363	0.692248	0.579274
Zn15	Zn	1.058246	0.203758	0.104398
Zn16	Zn	1.558246	0.703758	0.604398
Zn17	Zn	1.058268	0.203775	-0.104197
Zn18	Zn	1.558268	0.703775	0.395803
O19	O	1.052870	0.418511	0.079259
O20	O	1.552870	0.918511	0.579259
C21	C	0.894811	0.214248	0.000085
C22	C	1.394811	0.714248	0.500085
C23	C	0.795491	0.211163	0.000075
C24	C	1.295491	0.711163	0.500075
C25	C	0.739256	0.344086	0.000075
C26	C	1.239256	0.844086	0.500075
C27	C	0.645935	0.341178	0.000089
C28	C	1.145935	0.841178	0.500089
C29	C	0.608850	0.205345	0.000097
C30	C	1.108850	0.705345	0.500097
C31	C	0.665092	0.072412	0.000100
C32	C	1.165092	0.572412	0.500100
C33	C	0.758411	0.075321	0.000092
C34	C	1.258411	0.575321	0.500092
C35	C	0.470584	0.066357	0.000113
C36	C	0.970584	0.566357	0.500113
C37	C	0.377259	0.063446	0.000118
C38	C	0.877259	0.563446	0.500118
C39	C	0.358108	0.332214	0.000110
C40	C	0.858108	0.832214	0.500110
C41	C	0.451427	0.335123	0.000102
C42	C	0.951427	0.835123	0.500102
C43	C	0.507663	0.202189	0.000103
C44	C	1.007663	0.702189	0.500103
C45	C	1.062602	-0.065951	0.000102
C46	C	1.562602	0.434049	0.500102
C47	C	1.059511	-0.229731	0.000097
C48	C	1.559511	0.270269	0.500097
C49	C	1.221704	0.193284	0.000115
C50	C	1.721704	0.693284	0.500115
C51	C	1.321024	0.196370	0.000118
C52	C	1.821024	0.696370	0.500118
C53	C	1.053912	0.473483	0.000098
C54	C	1.553912	0.973483	0.500098
C55	C	1.057004	0.637264	0.000097
C56	C	1.557004	1.137264	0.500097
N57	N	1.058238	0.203745	0.246759
N58	N	1.558238	0.703745	0.746759
N59	N	1.058284	0.203776	-0.246557
N60	N	1.558284	0.703776	0.253443
C61	C	1.118254	0.103597	0.296584
C62	C	1.618254	0.603597	0.796584
C63	C	1.118260	0.103596	0.396242
C64	C	1.618260	0.603596	0.896242
C65	C	1.058254	0.203751	0.446073
C66	C	1.558254	0.703751	0.946073
C67	C	0.998231	0.303904	0.396241
C68	C	1.498231	0.803904	0.896241
C69	C	0.998222	0.303896	0.296585
C70	C	1.498222	0.803896	0.796585
C71	C	0.998257	0.303915	0.603955
C72	C	1.498257	0.803915	1.103955
C73	C	0.998268	0.303924	0.703618
C74	C	1.498268	0.803924	1.203618
C75	C	1.118295	0.103614	0.703612
C76	C	1.618295	0.603614	1.203612
C77	C	1.118286	0.103607	0.603956
C78	C	1.618286	0.603607	1.103956
C79	C	1.058264	0.203762	0.554131
C80	C	1.558264	0.703762	1.054131
H81	H	0.804197	-0.032919	0.000092
H82	H	1.304197	0.467081	0.500092
F83	F	1.182126	-0.002998	0.243559
F84	F	1.682126	0.497002	0.743559
H85	H	1.167128	0.022047	0.436808
H86	H	1.667128	0.522047	0.936808
F87	F	1.182175	-0.002976	0.756643
F88	F	1.682175	0.497024	1.256643
F89	F	0.778715	0.488661	0.000060
F90	F	1.278715	0.988661	0.500060
H91	H	0.949350	0.385445	0.256019
H92	H	1.449350	0.885445	0.756019
H93	H	0.481618	0.445730	0.000087
H94	H	0.981618	0.945730	0.500087
F95	F	1.182155	-0.002980	0.550921
F96	F	1.682155	0.497020	1.050921
H97	H	0.516370	-0.041893	0.000115
H98	H	1.016370	0.458107	0.500115
H99	H	0.949369	0.385447	0.436819
H100	H	1.449369	0.885447	0.936819
H101	H	0.634890	-0.038186	0.000119
H102	H	1.134890	0.461814	0.500119
H103	H	0.312316	0.440454	0.000113
H104	H	0.812316	0.940454	0.500113
H105	H	0.949404	0.385480	0.744185
H106	H	1.449404	0.885480	1.244185
F107	F	0.934372	0.410508	0.550932
F108	F	1.434372	0.910508	1.050932
H109	H	0.347068	-0.047161	0.000126
H110	H	0.847068	0.452839	0.500126
H111	H	0.600152	0.449418	0.000088
H112	H	1.100152	0.949418	0.500088
