data_functionalizedCrystal
_audit_creation_method	'MofGen! by Chris Wilmer'
_symmetry_space_group_name_H-M	'P1'
_symmetry_Int_Tables_number	1
_symmetry_cell_setting	triclinic
loop_
_symmetry_equiv_pos_as_xyz
  x,y,z
_cell_length_a	15.711784
_cell_length_b	11.792241
_cell_length_c	14.185569
_cell_angle_alpha	103.246816
_cell_angle_beta	72.820839
_cell_angle_gamma	101.891108
loop_
_atom_site_label
_atom_site_type_symbol
_atom_site_fract_x
_atom_site_fract_y
_atom_site_fract_z
O1	O	1.130323	0.641342	0.083466
O2	O	0.878255	0.554749	0.083457
O3	O	1.010408	0.435364	0.083455
O4	O	0.998170	0.760727	0.083468
O5	O	1.049447	0.400102	-0.083381
O6	O	0.917294	0.519487	-0.083378
O7	O	1.169362	0.606080	-0.083370
Cu8	Cu	1.046893	0.559564	-0.098607
Cu9	Cu	1.000724	0.601265	0.098695
O10	O	1.037209	0.725465	-0.083367
C11	C	0.865505	0.522972	0.000039
C12	C	0.769350	0.480810	0.000035
C13	C	0.643660	0.322082	0.000028
C14	C	0.734011	0.361712	0.000030
C15	C	0.714342	0.560326	0.000043
C16	C	0.623986	0.520714	0.000045
C17	C	0.588653	0.401591	0.000036
C18	C	0.568979	0.600222	0.000053
C19	C	0.478632	0.560611	0.000050
C20	C	0.443293	0.441492	0.000039
C21	C	0.498306	0.361980	0.000033
C22	C	0.604316	0.719343	0.000055
C23	C	0.549309	0.798851	0.000064
C24	C	0.458959	0.759242	0.000068
C25	C	0.423619	0.640123	0.000056
C26	C	0.403946	0.838755	0.000073
C27	C	0.313599	0.799144	0.000070
C28	C	0.333272	0.600513	0.000053
C29	C	1.029159	0.375129	0.000037
C30	C	1.026858	0.248179	0.000038
C31	C	1.022625	0.015749	0.000055
C32	C	1.024977	0.145089	0.000046
C33	C	1.182112	0.637857	0.000051
C34	C	1.278265	0.680021	0.000061
C35	C	1.018458	0.785700	0.000053
C36	C	1.020757	0.912652	0.000058
N37	N	1.079371	0.530235	-0.237379
C38	C	0.872831	0.716705	-0.605025
C39	C	0.897439	0.694499	-0.710047
C40	C	1.014484	0.588851	-0.710010
C41	C	0.989883	0.611043	-0.604986
C42	C	0.919056	0.674972	-0.552501
C43	C	1.036108	0.569310	-0.552463
C44	C	1.011512	0.591506	-0.447448
C45	C	0.940690	0.655435	-0.394956
C46	C	0.894460	0.697167	-0.447486
C47	C	1.106939	0.505389	-0.604949
C48	C	1.153164	0.463655	-0.552426
C49	C	1.128564	0.485844	-0.447409
C50	C	1.057742	0.549773	-0.394917
C51	C	1.174794	0.444111	-0.394878
C52	C	1.150197	0.466307	-0.289863
C53	C	1.033146	0.571969	-0.289902
N54	N	0.968253	0.630587	0.237467
H55	H	0.578091	0.895841	0.000067
H56	H	0.920667	0.673510	-0.309446
Cl57	Cl	0.244445	0.899096	0.000072
Cl58	Cl	0.599234	0.172324	0.000014
Cl59	Cl	0.453880	0.212221	0.000020
Cl60	Cl	1.103522	0.508489	-0.775997
H61	H	0.778795	0.296958	0.000027
H62	H	0.743124	0.657316	0.000046
H63	H	0.859791	0.728491	-0.752806
Cl64	Cl	1.208314	0.413844	-0.223832
H65	H	0.836780	0.749214	-0.404752
Cl66	Cl	1.263839	0.363762	-0.460869
H67	H	0.975465	0.624015	-0.247167
Cl68	Cl	0.329714	0.391691	0.000027
H69	H	0.677884	0.751589	0.000054
Cl70	Cl	0.448379	0.988501	0.000074
Cl71	Cl	0.783780	0.797059	-0.539040
Cl72	Cl	1.137860	0.477495	-0.736970
H73	H	1.210834	0.411608	-0.595171
H74	H	0.304500	0.503513	0.000056
