data_functionalizedCrystal
_audit_creation_method	'MofGen! by Chris Wilmer'
_symmetry_space_group_name_H-M	'P1'
_symmetry_Int_Tables_number	1
_symmetry_cell_setting	triclinic
loop_
_symmetry_equiv_pos_as_xyz
  x,y,z
_cell_length_a	16.625547
_cell_length_b	18.101397
_cell_length_c	16.625539
_cell_angle_alpha	90.031854
_cell_angle_beta	90.024822
_cell_angle_gamma	90.020402
loop_
_atom_site_label
_atom_site_type_symbol
_atom_site_fract_x
_atom_site_fract_y
_atom_site_fract_z
Zn1	Zn	1.232692	-0.294829	0.455981
Zn2	Zn	1.566025	0.038504	0.789314
Zn3	Zn	1.899358	0.371837	1.122648
Zn4	Zn	1.232600	-0.418678	0.321140
Zn5	Zn	1.565933	-0.085345	0.654473
Zn6	Zn	1.899266	0.247988	0.987807
Zn7	Zn	1.097854	-0.294855	0.321151
Zn8	Zn	1.431187	0.038478	0.654485
Zn9	Zn	1.764520	0.371811	0.987818
Zn10	Zn	1.097829	-0.418634	0.455920
Zn11	Zn	1.431162	-0.085300	0.789253
Zn12	Zn	1.764495	0.248033	1.122586
O13	O	1.165243	-0.356749	0.388548
O14	O	1.498577	-0.023416	0.721881
O15	O	1.831910	0.309917	1.055215
O16	O	1.345512	-0.311266	0.438115
O17	O	1.678845	0.022067	0.771448
O18	O	2.012179	0.355400	1.104781
O19	O	1.214697	-0.402283	0.208309
O20	O	1.548030	-0.068949	0.541642
O21	O	1.881364	0.264384	0.874976
O22	O	1.115789	-0.191219	0.339067
O23	O	1.449122	0.142114	0.672401
O24	O	1.782456	0.475448	1.005734
O25	O	1.345444	-0.402258	0.339048
O26	O	1.678778	-0.068924	0.672381
O27	O	2.012111	0.264409	1.005714
O28	O	1.214854	-0.191200	0.438126
O29	O	1.548187	0.142133	0.771459
O30	O	1.881521	0.475467	1.104793
O31	O	1.115700	-0.311310	0.208317
O32	O	1.449033	0.022023	0.541651
O33	O	1.782366	0.355356	0.874984
O34	O	0.985018	-0.311267	0.339008
O35	O	1.318351	0.022067	0.672341
O36	O	1.651685	0.355400	1.005675
O37	O	1.115747	-0.402181	0.568760
O38	O	1.449080	-0.068848	0.902094
O39	O	1.782413	0.264486	1.235427
O40	O	0.985000	-0.402206	0.438022
O41	O	1.318333	-0.068873	0.771355
O42	O	1.651666	0.264461	1.104688
O43	O	1.214830	-0.311223	0.568805
O44	O	1.548163	0.022111	0.902139
O45	O	1.881497	0.355444	1.235472
O46	O	1.214673	-0.522305	0.338988
O47	O	1.548006	-0.188972	0.672321
O48	O	1.881340	0.144361	1.005655
O49	O	1.115657	-0.522272	0.438010
O50	O	1.448991	-0.188939	0.771344
O51	O	1.782324	0.144394	1.104677
C52	C	0.955753	-0.356735	0.388510
C53	C	1.289086	-0.023401	0.721843
C54	C	1.622419	0.309932	1.055177
C55	C	0.866131	-0.356746	0.388513
C56	C	1.199465	-0.023413	0.721846
C57	C	1.532798	0.309920	1.055179
C58	C	0.793349	-0.356748	0.388523
C59	C	1.126682	-0.023415	0.721856
C60	C	1.460016	0.309919	1.055189
C61	C	0.702041	-0.356752	0.388543
C62	C	1.035374	-0.023418	0.721876
C63	C	1.368707	0.309915	1.055210
C64	C	0.629264	-0.356759	0.388563
C65	C	0.962597	-0.023425	0.721897
C66	C	1.295931	0.309908	1.055230
C67	C	0.537950	-0.356764	0.388583
C68	C	0.871283	-0.023430	0.721916
C69	C	1.204616	0.309903	1.055249
C70	C	1.165174	-0.549160	0.388509
C71	C	1.498508	-0.215826	0.721842
C72	C	1.831841	0.117507	1.055176
C73	C	1.165219	-0.631474	0.388519
C74	C	1.498552	-0.298140	0.721852
C75	C	1.831885	0.035193	1.055186
C76	C	1.165322	-0.930565	0.388593
C77	C	1.498655	-0.597231	0.721926
C78	C	1.831988	-0.263898	1.055259
C79	C	1.227446	-0.899230	0.326124
C80	C	1.560779	-0.565896	0.659457
C81	C	1.894112	-0.232563	0.992790
C82	C	1.227661	-0.813611	0.326286
C83	C	1.560994	-0.480278	0.659619
C84	C	1.894328	-0.146944	0.992952
C85	C	1.165271	-0.782182	0.388556
C86	C	1.498604	-0.448849	0.721889
C87	C	1.831937	-0.115516	1.055222
C88	C	1.188307	-0.813188	0.473547
C89	C	1.521640	-0.479854	0.806881
C90	C	1.854973	-0.146521	1.140214
C91	C	1.188788	-0.898833	0.473207
C92	C	1.522121	-0.565499	0.806540
C93	C	1.855454	-0.232166	1.139874
C94	C	1.079995	-0.899074	0.366805
C95	C	1.413329	-0.565741	0.700139
C96	C	1.746662	-0.232407	1.033472
C97	C	1.080417	-0.813425	0.364908
C98	C	1.413750	-0.480091	0.698242
C99	C	1.747083	-0.146758	1.031575
C100	C	1.165240	-0.698323	0.388540
C101	C	1.498574	-0.364989	0.721873
C102	C	1.831907	-0.031656	1.055206
C103	C	1.165354	-1.014424	0.388614
C104	C	1.498687	-0.681091	0.721948
C105	C	1.832020	-0.347758	1.055281
C106	C	1.375552	-0.356764	0.388587
C107	C	1.708886	-0.023431	0.721920
C108	C	2.042219	0.309903	1.055253
C109	C	1.465173	-0.356771	0.388603
C110	C	1.798507	-0.023437	0.721937
C111	C	2.131840	0.309896	1.055270
C112	C	1.165296	-0.356694	0.598857
C113	C	1.498629	-0.023361	0.932190
C114	C	1.831962	0.309973	1.265524
C115	C	1.165318	-0.356670	0.688478
C116	C	1.498651	-0.023337	1.021812
C117	C	1.831985	0.309996	1.355145
C118	C	1.165335	-0.163587	0.388605
C119	C	1.498668	0.169746	0.721938
C120	C	1.832001	0.503079	1.055272
C121	C	1.165373	-0.081273	0.388629
C122	C	1.498707	0.252060	0.721962
C123	C	1.832040	0.585394	1.055296
C124	C	1.165238	-0.356751	0.179057
C125	C	1.498571	-0.023417	0.512391
C126	C	1.831904	0.309916	0.845724
C127	C	1.165371	-0.356566	0.089437
C128	C	1.498705	-0.023232	0.422770
C129	C	1.832038	0.310101	0.756103
C130	C	1.165355	-0.356588	1.016654
C131	C	1.498689	-0.023254	1.349987
C132	C	1.832022	0.310079	1.683321
C133	C	1.165343	-0.356613	0.925346
C134	C	1.498676	-0.023280	1.258679
C135	C	1.832009	0.310054	1.592012
C136	C	1.165337	-0.356630	0.852569
C137	C	1.498670	-0.023296	1.185902
C138	C	1.832004	0.310037	1.519236
C139	C	1.165324	-0.356654	0.761255
C140	C	1.498657	-0.023321	1.094588
C141	C	1.831990	0.310013	1.427921
H142	H	1.213249	-0.792651	0.263266
H143	H	1.546582	-0.459317	0.596599
H144	H	1.879915	-0.125984	0.929932
H145	H	1.213208	-0.919874	0.262915
H146	H	1.546541	-0.586541	0.596248
H147	H	1.879874	-0.253207	0.929582
H148	H	1.059039	-0.920736	0.305904
H149	H	1.392372	-0.587402	0.639237
H150	H	1.725705	-0.254069	0.972570
H151	H	1.251157	-0.918751	0.491662
H152	H	1.584491	-0.585418	0.824995
H153	H	1.917824	-0.252085	1.158329
O154	O	1.059794	-0.789164	0.290299
O155	O	1.393127	-0.455831	0.623632
O156	O	1.726461	-0.122497	0.956965
C157	C	1.121811	-0.744170	0.259561
C158	C	1.455145	-0.410837	0.592894
C159	C	1.788478	-0.077503	0.926227
H160	H	1.158787	-0.720858	0.311464
H161	H	1.492121	-0.387525	0.644797
H162	H	1.825454	-0.054191	0.978131
H163	H	1.094481	-0.696794	0.223618
H164	H	1.427814	-0.363460	0.556951
H165	H	1.761147	-0.030127	0.890285
H166	H	1.162314	-0.778473	0.218745
H167	H	1.495647	-0.445140	0.552078
H168	H	1.828980	-0.111807	0.885412
O169	O	1.302391	-0.924884	0.343246
O170	O	1.635724	-0.591551	0.676579
O171	O	1.969057	-0.258218	1.009913
C172	C	1.298922	-0.971071	0.411417
C173	C	1.632255	-0.637738	0.744750
C174	C	1.965589	-0.304404	1.078084
H175	H	1.243403	-0.956763	0.448495
H176	H	1.576736	-0.623430	0.781829
H177	H	1.910069	-0.290096	1.115162
H178	H	1.355188	-0.962579	0.449535
H179	H	1.688522	-0.629246	0.782868
H180	H	2.021855	-0.295912	1.116202
H181	H	1.295370	-1.031217	0.391347
H182	H	1.628704	-0.697884	0.724681
H183	H	1.962037	-0.364551	1.058014
H184	H	1.031640	-0.792038	0.407075
H185	H	1.364973	-0.458705	0.740409
H186	H	1.698306	-0.125372	1.073742
H187	H	1.145521	-0.919558	0.521356
H188	H	1.478855	-0.586225	0.854689
H189	H	1.812188	-0.252892	1.188022
O190	O	1.261858	-0.787580	0.496077
O191	O	1.595191	-0.454247	0.829411
O192	O	1.928524	-0.120914	1.162744
C193	C	1.281644	-0.815966	0.572520
C194	C	1.614978	-0.482633	0.905854
C195	C	1.948311	-0.149299	1.239187
H196	H	1.224215	-0.831954	0.605669
H197	H	1.557548	-0.498621	0.939002
H198	H	1.890881	-0.165288	1.272336
H199	H	1.315257	-0.772110	0.608521
H200	H	1.648590	-0.438776	0.941854
H201	H	1.981924	-0.105443	1.275188
H202	H	1.321461	-0.866786	0.565186
H203	H	1.654795	-0.533453	0.898519
H204	H	1.988128	-0.200119	1.231853
O205	O	1.303080	-0.789062	0.343347
O206	O	1.636413	-0.455728	0.676680
O207	O	1.969746	-0.122395	1.010013
C208	C	1.331646	-0.745841	0.278867
C209	C	1.664979	-0.412508	0.612201
C210	C	1.998313	-0.079175	0.945534
H211	H	1.298057	-0.761468	0.221534
H212	H	1.631390	-0.428135	0.554868
H213	H	1.964723	-0.094801	0.888201
H214	H	1.398723	-0.756225	0.270282
H215	H	1.732056	-0.422891	0.603615
H216	H	2.065390	-0.089558	0.936949
H217	H	1.321259	-0.684884	0.292645
H218	H	1.654592	-0.351551	0.625979
H219	H	1.987926	-0.018218	0.959312
H220	H	1.033708	-0.919339	0.412304
H221	H	1.367041	-0.586006	0.745638
H222	H	1.700375	-0.252672	1.078971
O223	O	1.135931	-0.788805	0.530479
O224	O	1.469265	-0.455472	0.863812
O225	O	1.802598	-0.122139	1.197146
C226	C	1.077495	-0.743262	0.494200
C227	C	1.410828	-0.409929	0.827533
C228	C	1.744162	-0.076596	1.160867
H229	H	1.102337	-0.719872	0.435604
H230	H	1.435670	-0.386539	0.768937
H231	H	1.769003	-0.053206	1.102271
H232	H	1.061715	-0.695955	0.536639
H233	H	1.395049	-0.362621	0.869972
H234	H	1.728382	-0.029288	1.203306
H235	H	1.021181	-0.777131	0.481022
H236	H	1.354514	-0.443798	0.814355
H237	H	1.687847	-0.110464	1.147688
