data_functionalizedCrystal
_audit_creation_method	'MofGen! by Chris Wilmer'
_symmetry_space_group_name_H-M	'P1'
_symmetry_Int_Tables_number	1
_symmetry_cell_setting	triclinic
loop_
_symmetry_equiv_pos_as_xyz
  x,y,z
_cell_length_a	19.805407
_cell_length_b	19.120904
_cell_length_c	19.805399
_cell_angle_alpha	87.529423
_cell_angle_beta	90.019573
_cell_angle_gamma	87.528276
loop_
_atom_site_label
_atom_site_type_symbol
_atom_site_fract_x
_atom_site_fract_y
_atom_site_fract_z
Zn1	Zn	1.023213	0.279646	0.371208
Zn2	Zn	1.356546	0.612980	0.704541
Zn3	Zn	1.689879	0.946313	1.037874
Zn4	Zn	1.018288	0.397105	0.253184
Zn5	Zn	1.351621	0.730439	0.586517
Zn6	Zn	1.684954	1.063772	0.919851
Zn7	Zn	0.910026	0.279666	0.258031
Zn8	Zn	1.243360	0.612999	0.591365
Zn9	Zn	1.576693	0.946332	0.924698
Zn10	Zn	0.905152	0.397068	0.366332
Zn11	Zn	1.238486	0.730401	0.699665
Zn12	Zn	1.571819	1.063735	1.032999
O13	O	0.964170	0.338371	0.312189
O14	O	1.297503	0.671705	0.645522
O15	O	1.630836	1.005038	0.978855
O16	O	1.117276	0.295235	0.355563
O17	O	1.450609	0.628568	0.688896
O18	O	1.783942	0.961902	1.022230
O19	O	1.003905	0.381550	0.159109
O20	O	1.337238	0.714884	0.492443
O21	O	1.670572	1.048217	0.825776
O22	O	0.929142	0.181373	0.277113
O23	O	1.262475	0.514706	0.610447
O24	O	1.595809	0.848040	0.943780
O25	O	1.113657	0.381532	0.268852
O26	O	1.446990	0.714865	0.602185
O27	O	1.780324	1.048198	0.935518
O28	O	1.012299	0.181359	0.360263
O29	O	1.345633	0.514692	0.693597
O30	O	1.678966	0.848025	1.026930
O31	O	0.924366	0.295268	0.162671
O32	O	1.257700	0.628601	0.496004
O33	O	1.591033	0.961935	0.829337
O34	O	0.814664	0.295232	0.272386
O35	O	1.147997	0.628565	0.605719
O36	O	1.481330	0.961898	0.939053
O37	O	0.920835	0.381468	0.461696
O38	O	1.254168	0.714801	0.795030
O39	O	1.587501	1.048135	1.128363
O40	O	0.811083	0.381487	0.351954
O41	O	1.144416	0.714820	0.685287
O42	O	1.477749	1.048153	1.018621
O43	O	1.007573	0.295199	0.465278
O44	O	1.340906	0.628532	0.798612
O45	O	1.674240	0.961865	1.131945
O46	O	0.999179	0.495391	0.264124
O47	O	1.332512	0.828724	0.597458
O48	O	1.665846	1.162057	0.930791
O49	O	0.916059	0.495363	0.347254
O50	O	1.249392	0.828696	0.680587
O51	O	1.582726	1.162030	1.013920
C52	C	0.788314	0.338358	0.312167
C53	C	1.121648	0.671691	0.645501
C54	C	1.454981	1.005024	0.978834
C55	C	0.713082	0.338369	0.312174
C56	C	1.046415	0.671702	0.645507
C57	C	1.379749	1.005036	0.978840
C58	C	0.956574	0.520862	0.304649
C59	C	1.289907	0.854196	0.637982
C60	C	1.623241	1.187529	0.971315
C61	C	0.953386	0.598933	0.301446
C62	C	1.286720	0.932266	0.634779
C63	C	1.620053	1.265599	0.968112
C64	C	0.675888	0.383350	0.353532
C65	C	1.009221	0.716683	0.686865
C66	C	1.342555	1.050016	1.020199
C67	C	0.605199	0.383351	0.353541
C68	C	0.938533	0.716684	0.686875
C69	C	1.271866	1.050017	1.020208
C70	C	0.571706	0.338374	0.312189
C71	C	0.905039	0.671708	0.645522
C72	C	1.238373	1.005041	0.978855
C73	C	0.608905	0.293389	0.270829
C74	C	0.942238	0.626722	0.604162
C75	C	1.275572	0.960056	0.937495
C76	C	0.679592	0.293385	0.270823
C77	C	1.012926	0.626718	0.604156
C78	C	1.346259	0.960051	0.937490
C79	C	0.323831	0.293404	0.270850
C80	C	0.657164	0.626738	0.604184
C81	C	0.990498	0.960071	0.937517
C82	C	0.253139	0.293414	0.270857
C83	C	0.586472	0.626747	0.604191
C84	C	0.919805	0.960080	0.937524
C85	C	0.249438	0.383371	0.353569
C86	C	0.582772	0.716704	0.686902
C87	C	0.916105	1.050037	1.020235
C88	C	0.320126	0.383366	0.353563
C89	C	0.653459	0.716700	0.686896
C90	C	0.986792	1.050033	1.020230
C91	C	0.357319	0.338379	0.312206
C92	C	0.690652	0.671712	0.645539
C93	C	1.023985	1.005045	0.978873
C94	C	0.433967	0.338377	0.312197
C95	C	0.767300	0.671710	0.645531
C96	C	1.100634	1.005043	0.978864
C97	C	0.495059	0.338379	0.312193
C98	C	0.828392	0.671713	0.645527
C99	C	1.161725	1.005046	0.978860
C100	C	0.995152	0.635543	0.343268
C101	C	1.328485	0.968876	0.676601
C102	C	1.661819	1.302209	1.009934
C103	C	0.992154	0.708898	0.340259
C104	C	1.325488	1.042231	0.673593
C105	C	1.658821	1.375565	1.006926
C106	C	0.947394	0.745642	0.295425
C107	C	1.280727	1.078976	0.628758
C108	C	1.614060	1.412309	0.962092
C109	C	0.905623	0.709027	0.253601
C110	C	1.238957	1.042361	0.586934
C111	C	1.572290	1.375694	0.920268
C112	C	0.908618	0.635673	0.256613
C113	C	1.241951	0.969007	0.589947
C114	C	1.575285	1.302340	0.923280
C115	C	0.936183	0.967128	0.284165
C116	C	1.269517	1.300461	0.617499
C117	C	1.602850	1.633795	0.950832
C118	C	0.933193	1.040487	0.281155
C119	C	1.266527	1.373821	0.614488
C120	C	1.599860	1.707154	0.947821
C121	C	1.019724	1.040353	0.367814
C122	C	1.353057	1.373686	0.701148
C123	C	1.686390	1.707020	1.034481
C124	C	1.022717	0.966997	0.370820
C125	C	1.356051	1.300331	0.704153
C126	C	1.689384	1.633664	1.037486
C127	C	0.980945	0.930389	0.328998
C128	C	1.314278	1.263722	0.662332
C129	C	1.647611	1.597055	0.995665
C130	C	0.944330	0.820624	0.292347
C131	C	1.277663	1.153957	0.625681
C132	C	1.610996	1.487290	0.959014
C133	C	0.984006	0.855409	0.332080
C134	C	1.317339	1.188742	0.665413
C135	C	1.650672	1.522076	0.998747
C136	C	1.140712	0.338385	0.312210
C137	C	1.474045	0.671719	0.645544
C138	C	1.807379	1.005052	0.978877
C139	C	1.215944	0.338391	0.312220
C140	C	1.549277	0.671725	0.645553
C141	C	1.882610	1.005058	0.978886
C142	C	0.964210	0.338327	0.488733
C143	C	1.297543	0.671660	0.822067
C144	C	1.630876	1.004994	1.155400
C145	C	0.964227	0.338308	0.563966
C146	C	1.297560	0.671642	0.897299
C147	C	1.630893	1.004975	1.230633
C148	C	0.971786	1.155168	0.319766
C149	C	1.305119	1.488501	0.653099
C150	C	1.638452	1.821834	0.986433
C151	C	0.974959	1.077097	0.322977
C152	C	1.308292	1.410430	0.656310
C153	C	1.641626	1.743764	0.989644
C154	C	0.964171	0.338365	0.136333
C155	C	1.297504	0.671698	0.469666
C156	C	1.630838	1.005031	0.803000
C157	C	0.964294	0.338186	0.061109
C158	C	1.297627	0.671519	0.394442
C159	C	1.630960	1.004852	0.727775
C160	C	1.009392	0.293386	0.601177
C161	C	1.342726	0.626719	0.934510
C162	C	1.676059	0.960052	1.267843
C163	C	1.009400	0.293365	0.671866
C164	C	1.342733	0.626699	1.005199
C165	C	1.676067	0.960032	1.338533
C166	C	0.964245	0.338271	0.705343
C167	C	1.297578	0.671605	1.038677
C168	C	1.630911	1.004938	1.372010
C169	C	0.919074	0.383196	0.668128
C170	C	1.252408	0.716529	1.001461
C171	C	1.585741	1.049863	1.334794
C172	C	0.919064	0.383212	0.597440
C173	C	1.252397	0.716546	0.930773
C174	C	1.585730	1.049879	1.264107
C175	C	0.919115	0.383131	0.953204
C176	C	1.252448	0.716464	1.286537
C177	C	1.585782	1.049797	1.619871
C178	C	0.919131	0.383112	1.023897
C179	C	1.252464	0.716446	1.357230
C180	C	1.585797	1.049779	1.690564
C181	C	1.009451	0.293283	1.027630
C182	C	1.342785	0.626617	1.360963
C183	C	1.676118	0.959950	1.694297
C184	C	1.009441	0.293300	0.956942
C185	C	1.342774	0.626633	1.290275
C186	C	1.676108	0.959966	1.623609
C187	C	0.964268	0.338221	0.919733
C188	C	1.297602	0.671555	1.253066
C189	C	1.630935	1.004888	1.586400
C190	C	0.964259	0.338242	0.843084
C191	C	1.297593	0.671575	1.176417
C192	C	1.630926	1.004909	1.509750
C193	C	0.964256	0.338255	0.781991
C194	C	1.297590	0.671588	1.115324
C195	C	1.630923	1.004922	1.448658
H196	H	0.703153	0.419977	0.387204
H197	H	1.036486	0.753310	0.720537
H198	H	1.369820	1.086644	1.053871
H199	H	1.059165	0.937082	0.407328
H200	H	1.392498	1.270415	0.740661
H201	H	1.725832	1.603748	1.073994
C202	C	0.869449	0.432510	1.060721
C203	C	1.202783	0.765844	1.394054
C204	C	1.536116	1.099177	1.727387
N205	N	0.832031	0.469714	1.088456
N206	N	1.165364	0.803048	1.421790
N207	N	1.498698	1.136381	1.755123
C208	C	0.572060	0.243913	0.225342
C209	C	0.905393	0.577246	0.558675
C210	C	1.238726	0.910579	0.892008
N211	N	0.544309	0.206648	0.191078
N212	N	0.877642	0.539981	0.524412
N213	N	1.210975	0.873314	0.857745
H214	H	1.046213	0.256735	0.929688
H215	H	1.379546	0.590068	1.263022
H216	H	1.712880	0.923401	1.596355
H217	H	1.053732	1.070167	0.401864
H218	H	1.387065	1.403501	0.735197
H219	H	1.720399	1.736834	1.068530
C220	C	0.895155	0.861050	0.242970
C221	C	1.228488	1.194383	0.576303
C222	C	1.561821	1.527716	0.909637
N223	N	0.858136	0.891501	0.205759
N224	N	1.191470	1.224834	0.539092
N225	N	1.524803	1.558168	0.872425
C226	C	0.869397	0.432587	0.704956
C227	C	1.202730	0.765920	1.038289
C228	C	1.536063	1.099253	1.371622
N229	N	0.831978	0.469789	0.732694
N230	N	1.165311	0.803122	1.066027
N231	N	1.498645	1.136455	1.399361
C232	C	1.059135	0.243859	1.068567
C233	C	1.392468	0.577193	1.401900
C234	C	1.725802	0.910526	1.735233
N235	N	1.096555	0.206634	1.099399
N236	N	1.429888	0.539967	1.432733
N237	N	1.763222	0.873301	1.766066
H238	H	0.882279	0.419786	0.567144
H239	H	1.215612	0.753119	0.900478
H240	H	1.548945	1.086453	1.233811
H241	H	0.896740	1.070402	0.244645
H242	H	1.230074	1.403736	0.577978
H243	H	1.563407	1.737069	0.911311
C244	C	0.564289	0.432847	0.399025
C245	C	0.897622	0.766180	0.732359
C246	C	1.230955	1.099513	1.065692
N247	N	0.533475	0.470133	0.433281
N248	N	0.866808	0.803467	0.766615
N249	N	1.200142	1.136800	1.099948
C250	C	0.869422	0.432544	0.912283
C251	C	1.202755	0.765877	1.245616
C252	C	1.536088	1.099210	1.578950
N253	N	0.831989	0.469763	0.881459
N254	N	1.165322	0.803096	1.214792
N255	N	1.498656	1.136429	1.548126
H256	H	0.869175	0.738951	0.217099
H257	H	1.202509	1.072284	0.550432
H258	H	1.535842	1.405617	0.883765
C259	C	0.356964	0.432845	0.399053
C260	C	0.690298	0.766178	0.732387
C261	C	1.023631	1.099511	1.065720
N262	N	0.384710	0.470111	0.433320
N263	N	0.718044	0.803444	0.766653
N264	N	1.051377	1.136778	1.099986
H265	H	0.219147	0.419999	0.387246
H266	H	0.552481	0.753333	0.720580
H267	H	0.885814	1.086666	1.053913
C268	C	0.364734	0.243921	0.225352
C269	C	0.698067	0.577254	0.558685
C270	C	1.031401	0.910588	0.892018
N271	N	0.395545	0.206649	0.191079
N272	N	0.728878	0.539982	0.524412
N273	N	1.062211	0.873315	0.857746
C274	C	0.216298	0.243928	0.225369
C275	C	0.549631	0.577262	0.558703
C276	C	0.882964	0.910595	0.892036
N277	N	0.188549	0.206657	0.191110
N278	N	0.521882	0.539991	0.524444
N279	N	0.855216	0.873324	0.857777
H280	H	1.031604	0.605630	0.379774
H281	H	1.364937	0.938964	0.713107
H282	H	1.698271	1.272297	1.046440
C283	C	1.038109	0.749166	0.386259
C284	C	1.371443	1.082499	0.719592
C285	C	1.704776	1.415832	1.052925
N286	N	1.072727	0.779495	0.420904
N287	N	1.406061	1.112828	0.754238
N288	N	1.739394	1.446161	1.087571
C289	C	0.720505	0.243904	0.225324
C290	C	1.053839	0.577237	0.558658
C291	C	1.387172	0.910571	0.891991
N292	N	0.751320	0.206633	0.191054
N293	N	1.084654	0.539966	0.524387
N294	N	1.417987	0.873299	0.857721
C295	C	0.862673	0.595403	0.210605
C296	C	1.196006	0.928736	0.543938
C297	C	1.529340	1.262070	0.877272
N298	N	0.828064	0.565072	0.175951
N299	N	1.161397	0.898405	0.509285
N300	N	1.494731	1.231739	0.842618
H301	H	1.020447	0.825490	0.368587
H302	H	1.353781	1.158823	0.701920
H303	H	1.687114	1.492156	1.035254
C304	C	1.059067	0.243984	0.564358
C305	C	1.392400	0.577317	0.897691
C306	C	1.725733	0.910650	1.231025
N307	N	1.096481	0.206770	0.536629
N308	N	1.429814	0.540103	0.869962
N309	N	1.763148	0.873437	1.203295
H310	H	1.046180	0.256786	0.702160
H311	H	1.379513	0.590120	1.035493
H312	H	1.712847	0.923453	1.368826
H313	H	0.902172	0.937327	0.250111
H314	H	1.235505	1.270660	0.583445
H315	H	1.568838	1.603994	0.916778
