data_functionalizedCrystal
_audit_creation_method	'MofGen! by Chris Wilmer'
_symmetry_space_group_name_H-M	'P1'
_symmetry_Int_Tables_number	1
_symmetry_cell_setting	triclinic
loop_
_symmetry_equiv_pos_as_xyz
  x,y,z
_cell_length_a	14.971486
_cell_length_b	27.732048
_cell_length_c	13.448316
_cell_angle_alpha	89.988441
_cell_angle_beta	89.998199
_cell_angle_gamma	83.128392
loop_
_atom_site_label
_atom_site_type_symbol
_atom_site_fract_x
_atom_site_fract_y
_atom_site_fract_z
O1	O	1.185952	0.062991	-0.082589
O2	O	0.925433	0.070534	-0.082617
O3	O	1.063784	-0.003597	-0.082583
O4	O	1.047601	0.137122	-0.082623
O5	O	1.063766	-0.003601	0.082801
O6	O	0.925416	0.070530	0.082767
O7	O	1.185935	0.062986	0.082795
Cu8	Cu	1.055674	0.066758	0.097882
Cu9	Cu	1.055694	0.066763	-0.097704
O10	O	1.047584	0.137117	0.082761
C11	C	0.892105	0.070195	0.000071
C12	C	0.792824	0.069184	0.000061
C13	C	0.734910	0.112734	0.000051
C14	C	0.641626	0.111781	0.000066
C15	C	0.606257	0.067278	0.000084
C16	C	0.664177	0.023724	0.000098
C17	C	0.757460	0.024678	0.000090
C18	C	0.469746	0.021740	0.000113
C19	C	0.376457	0.020787	0.000119
C20	C	0.353912	0.108844	0.000088
C21	C	0.447195	0.109797	0.000080
C22	C	0.505109	0.066243	0.000092
C23	C	1.063435	-0.021608	0.000111
C24	C	1.062412	-0.075267	0.000120
C25	C	1.137729	-0.413735	0.000077
C26	C	1.133934	-0.615412	0.000062
O27	O	1.202806	-0.646350	0.000026
N28	N	1.051898	-0.634914	0.000054
C29	C	0.970804	-0.603994	0.000043
O30	O	0.900940	-0.625209	0.000026
C31	C	0.974601	-0.402318	0.000051
C32	C	1.056642	-0.382818	0.000069
C33	C	1.219764	-0.394235	0.000094
C34	C	1.220712	-0.343819	0.000103
C35	C	1.139625	-0.312902	0.000095
C36	C	1.057590	-0.332402	0.000078
C37	C	0.893508	-0.371398	0.000033
C38	C	0.894464	-0.320976	0.000032
C39	C	0.976506	-0.301477	0.000050
C40	C	0.977451	-0.251069	0.000079
N41	N	1.059487	-0.231567	0.000087
C42	C	1.140574	-0.262483	0.000095
C43	C	0.968817	-0.709877	0.000042
C44	C	0.967868	-0.760296	0.000042
C45	C	1.130998	-0.771710	0.000059
C46	C	1.131946	-0.721291	0.000066
C47	C	1.050854	-0.690375	0.000050
C48	C	1.142559	-0.156605	0.000114
C49	C	1.143500	-0.106184	0.000128
C50	C	0.980370	-0.094773	0.000105
C51	C	0.979429	-0.145190	0.000097
C52	C	1.060530	-0.176105	0.000099
O53	O	0.908616	-0.220103	0.000104
O54	O	1.210428	-0.241258	0.000090
C55	C	1.136781	-0.464151	0.000068
C56	C	1.054746	-0.483651	0.000051
C57	C	0.973659	-0.452734	0.000043
C58	C	1.053797	-0.534070	0.000051
C59	C	1.134884	-0.564986	0.000059
C60	C	1.216921	-0.545484	0.000067
C61	C	1.217868	-0.495067	0.000076
C62	C	0.891623	-0.472237	0.000035
C63	C	0.890682	-0.522654	0.000027
C64	C	0.971769	-0.553570	0.000035
C65	C	1.219263	0.063326	0.000104
C66	C	1.318544	0.064337	0.000108
C67	C	1.047932	0.155128	0.000064
C68	C	1.048955	0.208788	0.000050
N69	N	1.055666	0.066753	0.235446
N70	N	1.055709	0.066763	-0.235268
C71	C	1.116946	0.033942	0.287501
C72	C	1.116952	0.033941	0.391605
C73	C	1.055681	0.066755	0.443651
C74	C	0.994394	0.099569	0.391588
C75	C	0.994385	0.099566	0.287487
C76	C	0.994418	0.099572	0.608568
C77	C	0.994428	0.099575	0.712676
C78	C	1.116986	0.033947	0.712686
C79	C	1.116977	0.033945	0.608585
C80	C	1.055691	0.066759	0.556529
H81	H	0.516899	-0.013726	0.000124
C82	C	0.926968	0.135650	0.448831
H83	H	0.890457	0.155184	0.402916
H84	H	0.958837	0.155807	0.489441
H85	H	0.889992	0.118212	0.489439
H86	H	1.166844	0.007223	0.245133
C87	C	1.308968	-0.428236	0.000111
H88	H	1.357953	-0.409394	0.000128
H89	H	1.312011	-0.448140	-0.057558
H90	H	1.311983	-0.448144	0.057795
H91	H	0.763700	0.148973	0.000034
C92	C	0.926980	0.135661	0.230226
H93	H	0.890495	0.155208	0.276130
H94	H	0.889988	0.118239	0.189630
H95	H	0.958876	0.155812	0.189602
H96	H	0.635373	-0.012511	0.000128
H97	H	0.594476	0.147244	0.000056
C98	C	0.891181	-0.060759	0.000091
H99	H	0.903503	-0.027940	0.000086
H100	H	0.857496	-0.066679	0.057753
H101	H	0.857526	-0.066669	-0.057600
C102	C	0.290211	0.156752	0.000078
H103	H	0.229589	0.149812	0.000096
H104	H	0.300863	0.174997	-0.057605
H105	H	0.300870	0.174998	0.057748
C106	C	0.889186	-0.166641	0.000075
H107	H	0.841030	-0.141005	0.000065
H108	H	0.885410	-0.186084	0.057736
H109	H	0.885438	-0.186059	-0.057617
C110	C	0.486100	0.158749	0.000061
H111	H	0.438250	0.184552	0.000066
H112	H	0.522021	0.160953	-0.057613
H113	H	0.522021	0.160947	0.057740
H114	H	1.198752	-0.705418	0.000080
H115	H	0.944510	0.126291	0.566188
H116	H	1.166872	0.007227	0.566209
C117	C	0.337552	-0.028165	0.000145
H118	H	0.385402	-0.053968	0.000165
H119	H	0.301630	-0.030367	-0.057525
H120	H	0.301632	-0.030364	0.057829
H121	H	1.284675	-0.479196	0.000090
H122	H	0.804613	-0.010785	0.000099
H123	H	1.210310	-0.090310	0.000145
C124	C	1.184392	-0.002152	0.769942
H125	H	1.175616	0.002544	0.839395
H126	H	1.244010	0.003151	0.752874
H127	H	1.175121	-0.034421	0.752894
C128	C	0.926976	0.135639	0.769926
H129	H	0.890450	0.155168	0.724016
H130	H	0.958816	0.155803	0.810552
H131	H	0.890017	0.118182	0.810518
C132	C	1.231768	-0.190604	0.000124
H133	H	1.280755	-0.171764	0.000145
H134	H	1.234808	-0.210505	-0.057548
H135	H	1.234784	-0.210515	0.057805
H136	H	1.287519	-0.327947	0.000113
C137	C	1.220194	-0.805722	0.000062
H138	H	1.269195	-0.786892	0.000070
H139	H	1.223209	-0.825622	-0.057612
H140	H	1.223209	-0.825634	0.057742
C141	C	0.877623	-0.781740	0.000030
H142	H	0.829471	-0.756102	0.000015
H143	H	0.873847	-0.801177	0.057699
H144	H	0.873868	-0.801163	-0.057654
H145	H	0.902778	-0.684709	0.000029
C146	C	0.803261	-0.392836	0.000004
H147	H	0.755113	-0.367196	-0.000014
H148	H	0.799477	-0.412274	0.057671
H149	H	0.799508	-0.412258	-0.057682
H150	H	0.828427	-0.295806	0.000017
H151	H	1.282944	-0.570665	0.000078
C152	C	0.800432	-0.544099	0.000006
H153	H	0.811471	-0.578555	0.000007
H154	H	0.767088	-0.533480	-0.057672
H155	H	0.767066	-0.533498	0.057682
C156	C	1.184369	-0.002147	0.448862
H157	H	1.220867	-0.021685	0.402955
H158	H	1.152489	-0.022300	0.489489
H159	H	1.221359	0.015282	0.489453
H160	H	0.825590	-0.447069	0.000026
