data_functionalizedCrystal
_audit_creation_method	'MofGen! by Chris Wilmer'
_symmetry_space_group_name_H-M	'P1'
_symmetry_Int_Tables_number	1
_symmetry_cell_setting	triclinic
loop_
_symmetry_equiv_pos_as_xyz
  x,y,z
_cell_length_a	14.519731
_cell_length_b	14.519709
_cell_length_c	9.730217
_cell_angle_alpha	90.003848
_cell_angle_beta	90.003334
_cell_angle_gamma	83.684499
loop_
_atom_site_label
_atom_site_type_symbol
_atom_site_fract_x
_atom_site_fract_y
_atom_site_fract_z
O1	O	1.223854	0.120982	0.114296
O2	O	0.955380	0.135198	0.114298
O3	O	1.096735	-0.006147	0.114285
O4	O	1.082499	0.262328	0.114310
O5	O	1.096726	-0.006147	-0.114295
O6	O	0.955370	0.135199	-0.114282
O7	O	1.223845	0.120983	-0.114284
Zn8	Zn	1.089606	0.128091	-0.150575
Zn9	Zn	1.089618	0.128090	0.150589
O10	O	1.082489	0.262329	-0.114270
C11	C	0.921016	0.134532	0.000009
C12	C	0.818635	0.132536	0.000009
C13	C	0.735491	0.130915	0.000015
C14	C	0.631182	0.128888	0.000015
C15	C	0.548043	0.127280	0.000015
C16	C	0.443728	0.125253	0.000017
C17	C	1.096067	-0.040507	-0.000006
C18	C	1.094079	-0.142889	-0.000006
C19	C	1.086759	-0.517785	0.000029
C20	C	1.088792	-0.413477	0.000019
C21	C	1.090419	-0.330340	0.000010
C22	C	1.092452	-0.226025	0.000002
C23	C	1.258209	0.121649	0.000009
C24	C	1.360589	0.123645	0.000017
C25	C	1.083157	0.296688	0.000023
C26	C	1.085146	0.399070	0.000033
N27	N	1.089604	0.128090	-0.356111
C28	C	1.214849	0.002958	-0.643848
C29	C	1.277450	-0.059607	-0.571895
C30	C	1.277438	-0.059610	-0.428015
C31	C	1.214820	0.002962	-0.356085
C32	C	1.152218	0.065527	-0.428038
C33	C	1.152235	0.065521	-0.571921
C34	C	1.027003	0.190656	-0.428064
C35	C	1.027009	0.190655	-0.571944
C36	C	0.964384	0.253228	-0.356134
C37	C	0.901777	0.315790	-0.428088
C38	C	0.901790	0.315789	-0.571976
C39	C	0.964407	0.253221	-0.643897
N40	N	1.089627	0.128083	0.356126
H41	H	1.328436	-0.110551	-0.630473
H42	H	0.850816	0.366741	-0.630553
C43	C	1.346299	-0.128431	-0.348860
C44	C	1.310143	-0.199043	-0.249962
C45	C	1.379004	-0.267864	-0.170807
C46	C	1.484020	-0.266073	-0.190550
C47	C	1.520181	-0.195458	-0.289451
C48	C	1.451321	-0.126637	-0.368606
H49	H	1.232399	-0.200372	-0.235344
H50	H	1.352234	-0.320138	-0.097594
H51	H	1.534995	-0.317018	-0.131954
H52	H	1.597926	-0.194129	-0.304070
H53	H	1.478090	-0.074363	-0.441820
H54	H	1.214821	0.002964	-0.238931
H55	H	0.964421	0.253211	-0.761052
H56	H	0.964381	0.253227	-0.238980
C57	C	0.832903	0.384613	-0.348968
C58	C	0.762318	0.348413	-0.250068
C59	C	0.693442	0.417237	-0.170943
C60	C	0.695151	0.522261	-0.190718
C61	C	0.765738	0.558467	-0.289622
C62	C	0.834614	0.489643	-0.368747
H63	H	0.761051	0.270663	-0.235425
H64	H	0.641189	0.390434	-0.097727
H65	H	0.644165	0.573208	-0.132145
H66	H	0.767005	0.636217	-0.304264
H67	H	0.886868	0.516445	-0.441962
H68	H	1.214857	0.002946	-0.761002
