data_functionalizedCrystal
_audit_creation_method	'MofGen! by Chris Wilmer'
_symmetry_space_group_name_H-M	'P1'
_symmetry_Int_Tables_number	1
_symmetry_cell_setting	triclinic
loop_
_symmetry_equiv_pos_as_xyz
  x,y,z
_cell_length_a	19.077068
_cell_length_b	12.759395
_cell_length_c	19.076919
_cell_angle_alpha	87.718436
_cell_angle_beta	94.470751
_cell_angle_gamma	87.672414
loop_
_atom_site_label
_atom_site_type_symbol
_atom_site_fract_x
_atom_site_fract_y
_atom_site_fract_z
Zn1	Zn	-0.296672	-1.563740	-0.409839
Zn2	Zn	-0.409825	-1.563611	-0.296683
Zn3	Zn	-0.291958	-1.395409	-0.291970
Zn4	Zn	-0.414523	-1.380643	-0.414528
O5	O	-0.353245	-1.475851	-0.353255
O6	O	-0.311689	-1.710743	-0.394838
O7	O	-0.390251	-1.547424	-0.197411
O8	O	-0.193934	-1.423973	-0.303670
O9	O	-0.394822	-1.710648	-0.311704
O10	O	-0.197397	-1.547645	-0.390268
O11	O	-0.303654	-1.423847	-0.193948
O12	O	-0.308209	-1.246430	-0.308217
O13	O	-0.402829	-1.398805	-0.512553
O14	O	-0.398258	-1.235581	-0.398261
O15	O	-0.316245	-1.533327	-0.509108
O16	O	-0.509098	-1.533105	-0.316251
O17	O	-0.512550	-1.398679	-0.402831
C18	C	-0.353232	-1.202885	-0.353237
C19	C	-0.353245	-1.086107	-0.353246
C20	C	-0.536403	-1.464303	-0.360577
C21	C	-0.614760	-1.459458	-0.363732
C22	C	-0.649753	-1.527220	-0.320175
C23	C	-0.723378	-1.522669	-0.323147
C24	C	-0.762008	-1.450350	-0.369674
C25	C	-0.727010	-1.382585	-0.413236
C26	C	-0.653387	-1.387142	-0.410267
C27	C	-0.982394	-1.429215	-0.383388
C28	C	-1.056023	-1.424661	-0.386352
C29	C	-1.052386	-1.564746	-0.296263
C30	C	-0.978761	-1.569293	-0.293295
C31	C	-0.943769	-1.501532	-0.336860
N32	N	-0.837265	-1.445694	-0.372712
N33	N	-0.868514	-1.506194	-0.333826
C34	C	-0.447152	-1.074849	-0.446868
C35	C	-0.494111	-1.014358	-0.493680
C36	C	-0.494118	-0.904636	-0.493687
C37	C	-0.447161	-0.855402	-0.446878
C38	C	-0.400202	-0.915892	-0.400066
C39	C	-0.400201	-1.025616	-0.400063
C40	C	-0.306292	-0.927150	-0.306449
C41	C	-0.306287	-1.036873	-0.306437
C42	C	-0.259335	-0.877916	-0.259640
C43	C	-0.212378	-0.938407	-0.212823
C44	C	-0.212373	-1.048136	-0.212818
C45	C	-0.259328	-1.097363	-0.259625
C46	C	-0.169372	-1.487471	-0.345920
C47	C	-0.091016	-1.492422	-0.342795
C48	C	-0.360587	-1.464433	-0.537124
C49	C	-0.363716	-1.459568	-0.615478
C50	C	-0.353255	-0.749883	-0.353268
C51	C	-0.353251	-0.866660	-0.353261
C52	C	-0.320108	-1.527317	-0.650496
C53	C	-0.323045	-1.522733	-0.724118
C54	C	-0.369594	-1.450404	-0.762720
C55	C	-0.413204	-1.382648	-0.727697
C56	C	-0.410263	-1.387228	-0.654076
C57	C	-0.383221	-1.429192	-0.983094
C58	C	-0.386161	-1.424620	-1.056720
C59	C	-0.296000	-1.564703	-1.053136
C60	C	-0.293066	-1.569281	-0.979514
C61	C	-0.336673	-1.501521	-0.944497
N62	N	-0.372599	-1.445719	-0.837973
N63	N	-0.333664	-1.506202	-0.869245
C64	C	-0.345880	-1.487287	-0.170099
C65	C	-0.342553	-1.492368	-0.091738
H66	H	-0.618305	-1.586105	-0.282285
C67	C	-0.161417	-1.113990	-0.162069
C68	C	-0.171448	-1.220620	-0.172089
C69	C	-0.124513	-1.281312	-0.125358
H70	H	-0.169717	-1.098421	-0.115067
H71	H	-0.114471	-1.098409	-0.170586
H72	H	-0.218384	-1.236195	-0.163567
H73	H	-0.163142	-1.236222	-0.219081
H74	H	-0.077566	-1.265731	-0.133874
H75	H	-0.132817	-1.265733	-0.078358
H76	H	-0.131308	-1.353666	-0.132154
H77	H	-0.953910	-1.374039	-0.418859
H78	H	-0.259330	-1.186704	-0.259624
H79	H	-0.447156	-1.164190	-0.446863
C80	C	-0.769073	-1.304102	-0.463680
C81	C	-0.841039	-1.314591	-0.456944
C82	C	-0.879807	-1.242297	-0.503394
H83	H	-0.758958	-1.317153	-0.510599
H84	H	-0.756675	-1.234887	-0.452829
H85	H	-0.853432	-1.383790	-0.467800
H86	H	-0.851176	-1.301531	-0.410036
H87	H	-0.867409	-1.173082	-0.492543
H88	H	-0.869685	-1.255353	-0.550310
H89	H	-0.928639	-1.249397	-0.498825
H90	H	-0.445766	-1.332050	-0.625565
H91	H	-0.751866	-1.577847	-0.287677
H92	H	-0.624896	-1.331965	-0.445737
H93	H	-0.947310	-1.628180	-0.255409
H94	H	-0.451103	-1.323753	-0.759132
C95	C	-0.269520	-1.605683	-0.608498
C96	C	-0.222656	-1.551678	-0.564412
C97	C	-0.176046	-1.623832	-0.525710
H98	H	-0.243898	-1.645404	-0.639818
H99	H	-0.295317	-1.651533	-0.580817
H100	H	-0.196862	-1.505846	-0.592091
H101	H	-0.248258	-1.511961	-0.533079
H102	H	-0.201843	-1.669683	-0.498028
H103	H	-0.150430	-1.663550	-0.557035
H104	H	-0.144248	-1.587202	-0.495789
C105	C	-0.447169	-0.736265	-0.447039
C106	C	-0.431994	-0.696938	-0.513477
C107	C	-0.432005	-0.587194	-0.513654
H108	H	-0.412487	-0.715464	-0.412512
H109	H	-0.492162	-0.709296	-0.436630
H110	H	-0.387007	-0.723897	-0.523878
H111	H	-0.466670	-0.717710	-0.548016
H112	H	-0.476998	-0.560224	-0.503245
H113	H	-0.397322	-0.566403	-0.479124
H114	H	-0.421715	-0.560496	-0.558733
C115	C	-1.098090	-1.346176	-0.436799
C116	C	-1.170054	-1.356668	-0.430056
C117	C	-1.208828	-1.284378	-0.476504
H118	H	-1.087979	-1.359228	-0.483719
H119	H	-1.085693	-1.276960	-0.425951
H120	H	-1.182447	-1.425868	-0.440909
H121	H	-1.180187	-1.343606	-0.383146
H122	H	-1.196431	-1.215162	-0.465656
H123	H	-1.198711	-1.297437	-0.523420
H124	H	-1.257659	-1.291481	-0.471930
H125	H	-0.424069	-1.365718	-1.088148
H126	H	-0.532342	-1.054457	-0.531792
H127	H	-0.532353	-0.855384	-0.531809
C128	C	-0.259214	-0.758792	-0.259713
C129	C	-0.192860	-0.725587	-0.275151
C130	C	-0.192727	-0.615857	-0.275231
H131	H	-0.269469	-0.735896	-0.214707
H132	H	-0.293875	-0.729777	-0.294314
H133	H	-0.158209	-0.754591	-0.240552
H134	H	-0.182592	-0.748456	-0.320157
H135	H	-0.227388	-0.586842	-0.309832
H136	H	-0.202984	-0.592970	-0.230224
H137	H	-0.147709	-0.593312	-0.285712
H138	H	-1.080884	-1.619915	-0.260796
H139	H	-0.418740	-1.374032	-0.954593
H140	H	-0.287536	-1.577903	-0.752626
H141	H	-0.255163	-1.628181	-0.948089
H142	H	-0.174146	-0.898311	-0.174718
C143	C	-0.248566	-1.638087	-1.091188
C144	C	-0.205055	-1.578824	-1.131630
C145	C	-0.161339	-1.646389	-1.166685
H146	H	-0.276600	-1.680398	-1.121044
H147	H	-0.220381	-1.681799	-1.057674
H148	H	-0.233237	-1.535130	-1.165140
H149	H	-0.177006	-1.536516	-1.101791
H150	H	-0.133154	-1.690102	-1.133171
H151	H	-0.189378	-1.688697	-1.196536
H152	H	-0.131807	-1.606190	-1.194123
