data_functionalizedCrystal
_audit_creation_method	'MofGen! by Chris Wilmer'
_symmetry_space_group_name_H-M	'P1'
_symmetry_Int_Tables_number	1
_symmetry_cell_setting	triclinic
loop_
_symmetry_equiv_pos_as_xyz
  x,y,z
_cell_length_a	10.654541
_cell_length_b	16.109301
_cell_length_c	15.186229
_cell_angle_alpha	90.001705
_cell_angle_beta	90.004301
_cell_angle_gamma	83.972705
loop_
_atom_site_label
_atom_site_type_symbol
_atom_site_fract_x
_atom_site_fract_y
_atom_site_fract_z
O1	O	-1.666263	-0.116759	-0.073205
O2	O	-1.300633	-0.127886	-0.073213
O3	O	-1.493492	-0.001351	-0.073200
O4	O	-1.473404	-0.243294	-0.073218
O5	O	-1.493469	-0.001358	0.073258
O6	O	-1.300610	-0.127894	0.073245
O7	O	-1.666240	-0.116766	0.073253
Zn8	Zn	-1.483422	-0.122331	0.096502
Zn9	Zn	-1.483451	-0.122321	-0.096462
O10	O	-1.473381	-0.243301	0.073239
C11	C	-1.492667	0.029625	0.000030
C12	C	-1.490227	0.121935	0.000031
C13	C	-1.253835	-0.127073	0.000015
C14	C	-1.114424	-0.124630	0.000012
C15	C	-1.713038	-0.117579	0.000023
C16	C	-1.852449	-0.120022	0.000020
C17	C	-1.084401	-0.275937	-0.000010
C18	C	-1.003896	-0.350439	-0.000025
C19	C	-0.872909	-0.348139	-0.000026
C20	C	-0.822426	-0.271327	-0.000009
C21	C	-0.902931	-0.196825	0.000006
C22	C	-1.033919	-0.199134	0.000004
C23	C	-0.932954	-0.045520	0.000035
C24	C	-1.063941	-0.047819	0.000029
C25	C	-0.882471	0.031291	0.000051
C26	C	-0.962976	0.105795	0.000060
C27	C	-1.093970	0.103491	0.000059
C28	C	-1.144446	0.026683	0.000044
C29	C	-1.474206	-0.274277	0.000008
C30	C	-1.476646	-0.366587	0.000001
N31	N	-1.483410	-0.122337	0.228194
C32	C	-1.598994	0.343561	0.000019
C33	C	-1.596692	0.430295	0.000012
C34	C	-1.367871	0.411780	0.000010
C35	C	-1.370174	0.325047	0.000011
C36	C	-1.485739	0.290941	0.000020
C37	C	-1.481134	0.464407	0.000012
C38	C	-1.478637	0.558448	0.000004
C39	C	-1.488237	0.196894	0.000026
N40	N	-1.483473	-0.122309	-0.228155
C41	C	-1.559575	-0.173217	0.453915
C42	C	-1.559588	-0.173211	0.546105
C43	C	-1.407305	-0.071423	0.546118
C44	C	-1.407299	-0.071425	0.453930
C45	C	-1.483432	-0.122327	0.407831
C46	C	-1.483451	-0.122319	0.592209
C47	C	-1.483466	-0.122312	0.692165
C48	C	-1.483419	-0.122333	0.307869
H49	H	-1.045014	-0.412978	-0.000036
H50	H	-1.621593	-0.214651	0.583622
N51	N	-1.243227	0.448563	0.000010
H52	H	-1.237173	0.484136	-0.054280
H53	H	-1.237241	0.484092	0.054339
H54	H	-1.345320	-0.029981	0.583664
N55	N	-0.908529	0.188633	0.000092
H56	H	-0.813335	0.178786	0.000098
H57	H	-0.937974	0.221280	-0.054196
N58	N	-1.285722	0.024195	0.000054
H59	H	-1.329066	0.083045	0.000069
H60	H	-1.311286	-0.006091	-0.054244
N61	N	-1.641701	-0.228103	0.404188
H62	H	-1.587013	-0.268466	0.365943
H63	H	-1.689932	-0.260283	0.447428
N64	N	-1.248007	0.268293	0.000019
H65	H	-1.243861	0.231897	0.054311
H66	H	-1.243937	0.231947	-0.054308
N67	N	-1.325178	-0.016528	0.404218
H68	H	-1.276944	0.015715	0.447408
H69	H	-1.263773	-0.052401	0.365970
N70	N	-0.786074	-0.428493	-0.000049
H71	H	-0.695437	-0.415375	-0.000049
H72	H	-0.802400	-0.461943	0.054238
H73	H	-1.191055	-0.277818	-0.000029
N74	N	-1.723632	0.306772	0.000027
H75	H	-1.795028	0.353271	0.000024
H76	H	-1.729578	0.271186	-0.054265
N77	N	-1.718840	0.487054	0.000015
H78	H	-1.769271	0.476004	-0.054273
H79	H	-1.769147	0.475984	0.054347
N80	N	-0.681149	-0.268843	0.000016
H81	H	-0.637810	-0.327694	0.000013
H82	H	-0.655584	-0.238542	-0.054268
N83	N	-0.741193	0.033774	0.000042
H84	H	-0.721431	0.093736	0.000054
H85	H	-0.703825	0.004577	0.054328
H86	H	-1.159511	0.164161	0.000075
