data_functionalizedCrystal
_audit_creation_method	'MofGen! by Chris Wilmer'
_symmetry_space_group_name_H-M	'P1'
_symmetry_Int_Tables_number	1
_symmetry_cell_setting	triclinic
loop_
_symmetry_equiv_pos_as_xyz
  x,y,z
_cell_length_a	17.038272
_cell_length_b	26.809956
_cell_length_c	17.038272
_cell_angle_alpha	90.004459
_cell_angle_beta	88.888444
_cell_angle_gamma	90.003765
loop_
_atom_site_label
_atom_site_type_symbol
_atom_site_fract_x
_atom_site_fract_y
_atom_site_fract_z
O1	O	1.048760	0.041418	-0.170526
O2	O	1.382093	0.374751	0.162807
O3	O	1.715427	0.708084	0.496141
O4	O	0.820948	0.041432	-0.167818
O5	O	1.154282	0.374766	0.165515
O6	O	1.487615	0.708099	0.498848
O7	O	0.933500	0.041421	-0.055266
O8	O	1.266834	0.374754	0.278067
O9	O	1.600167	0.708088	0.611400
O10	O	0.936208	0.041429	-0.283078
O11	O	1.269542	0.374762	0.050255
O12	O	1.602875	0.708095	0.383589
O13	O	0.933479	-0.041538	-0.055283
O14	O	1.266812	0.291795	0.278050
O15	O	1.600145	0.625129	0.611383
O16	O	0.820927	-0.041527	-0.167835
O17	O	1.154260	0.291806	0.165498
O18	O	1.487594	0.625140	0.498832
O19	O	1.048738	-0.041542	-0.170543
O20	O	1.382072	0.291792	0.162790
O21	O	1.715405	0.625125	0.496124
Zn22	Zn	0.934829	-0.054706	-0.169192
Zn23	Zn	1.268163	0.278627	0.164142
Zn24	Zn	1.601496	0.611961	0.497475
Zn25	Zn	0.934858	0.054597	-0.169170
Zn26	Zn	1.268191	0.387930	0.164164
Zn27	Zn	1.601524	0.721263	0.497497
O28	O	0.936187	-0.041530	-0.283095
O29	O	1.269520	0.291803	0.050238
O30	O	1.602853	0.625136	0.383572
C31	C	0.791645	-0.000045	-0.165364
C32	C	1.124978	0.333288	0.167970
C33	C	1.458312	0.666621	0.501303
C34	C	0.704361	-0.000040	-0.158016
C35	C	1.037695	0.333293	0.175318
C36	C	1.371028	0.666627	0.508651
N37	N	0.934816	-0.129302	-0.169207
N38	N	1.268149	0.204032	0.164127
N39	N	1.601482	0.537365	0.497460
C40	C	0.658752	-0.000038	-0.225479
C41	C	0.992086	0.333295	0.107854
C42	C	1.325419	0.666629	0.441187
C43	C	0.576740	-0.000045	-0.218570
C44	C	0.910074	0.333288	0.114763
C45	C	1.243407	0.666621	0.448096
C46	C	0.540339	-0.000051	-0.144197
C47	C	0.873672	0.333283	0.189136
C48	C	1.207006	0.666616	0.522470
C49	C	0.585954	-0.000054	-0.076728
C50	C	0.919288	0.333279	0.256605
C51	C	1.252621	0.666613	0.589938
C52	C	0.667965	-0.000050	-0.083638
C53	C	1.001298	0.333283	0.249695
C54	C	1.334631	0.666616	0.583029
C55	C	0.292951	-0.000065	-0.119787
C56	C	0.626285	0.333269	0.213547
C57	C	0.959618	0.666602	0.546880
C58	C	0.210935	-0.000067	-0.112882
C59	C	0.544268	0.333266	0.220451
C60	C	0.877601	0.666600	0.553785
C61	C	0.201726	-0.000059	-0.254725
C62	C	0.535060	0.333274	0.078609
C63	C	0.868393	0.666608	0.411942
C64	C	0.283739	-0.000052	-0.261628
C65	C	0.617072	0.333281	0.071706
C66	C	0.950405	0.666614	0.405039
C67	C	0.329347	-0.000058	-0.194159
C68	C	0.662680	0.333275	0.139174
C69	C	0.996013	0.666608	0.472508
C70	C	0.456510	-0.000056	-0.137133
C71	C	0.789843	0.333277	0.196200
C72	C	1.123177	0.666610	0.529533
C73	C	0.413174	-0.000056	-0.201224
C74	C	0.746508	0.333277	0.132110
C75	C	1.079841	0.666610	0.465443
C76	C	0.984690	-0.473933	-0.119344
C77	C	1.318023	-0.140599	0.213989
C78	C	1.651356	0.192734	0.547322
C79	C	0.984707	-0.682811	-0.119334
C80	C	1.318041	-0.349477	0.214000
C81	C	1.651374	-0.016144	0.547333
O82	O	1.027081	-0.709819	-0.076941
O83	O	1.360414	-0.376485	0.256392
O84	O	1.693747	-0.043152	0.589725
N85	N	0.934861	-0.708929	-0.169153
N86	N	1.268194	-0.375596	0.164181
N87	N	1.601527	-0.042262	0.497514
C88	C	0.885002	-0.682825	-0.218974
C89	C	1.218336	-0.349491	0.114359
C90	C	1.551669	-0.016158	0.447693
O91	O	0.842599	-0.709833	-0.261342
O92	O	1.175933	-0.376499	0.071991
O93	O	1.509266	-0.043166	0.405325
C94	C	0.884981	-0.473948	-0.218980
C95	C	1.218314	-0.140615	0.114353
C96	C	1.551648	0.192719	0.447687
C97	C	0.934837	-0.447832	-0.169164
C98	C	1.268170	-0.114499	0.164170
C99	C	1.601503	0.218834	0.497503
C100	C	1.034541	-0.447817	-0.069531
C101	C	1.367874	-0.114484	0.263802
C102	C	1.701207	0.218850	0.597135
C103	C	1.034539	-0.395601	-0.069537
C104	C	1.367872	-0.062267	0.263796
C105	C	1.701205	0.271066	0.597129
C106	C	0.984686	-0.369500	-0.119357
C107	C	1.318019	-0.036167	0.213977
C108	C	1.651353	0.297166	0.547310
C109	C	0.934835	-0.395616	-0.169170
C110	C	1.268168	-0.062283	0.164164
C111	C	1.601502	0.271051	0.497497
C112	C	0.835119	-0.447845	-0.268797
C113	C	1.168453	-0.114511	0.064536
C114	C	1.501786	0.218822	0.397870
C115	C	0.835117	-0.395622	-0.268793
C116	C	1.168450	-0.062289	0.064541
C117	C	1.501784	0.271044	0.397874
C118	C	0.884973	-0.369507	-0.218976
C119	C	1.218306	-0.036173	0.114357
C120	C	1.551639	0.297160	0.447691
C121	C	0.884980	-0.317299	-0.218995
C122	C	1.218313	0.016034	0.114338
C123	C	1.551647	0.349368	0.447671
N124	N	0.934827	-0.291181	-0.169176
N125	N	1.268160	0.042153	0.164157
N126	N	1.601494	0.375486	0.497490
C127	C	0.984680	-0.317281	-0.119357
C128	C	1.318013	0.016052	0.213976
C129	C	1.651346	0.349385	0.547310
C130	C	0.885018	-0.792488	-0.218968
C131	C	1.218351	-0.459155	0.114365
C132	C	1.551685	-0.125821	0.447698
C133	C	0.885024	-0.844707	-0.218968
C134	C	1.218358	-0.511374	0.114365
C135	C	1.551691	-0.178040	0.447699
C136	C	0.984729	-0.844689	-0.119326
C137	C	1.318062	-0.511356	0.214007
C138	C	1.651395	-0.178022	0.547340
C139	C	0.984726	-0.792469	-0.119331
C140	C	1.318059	-0.459136	0.214002
C141	C	1.651392	-0.125803	0.547335
C142	C	0.934865	-0.766370	-0.169149
C143	C	1.268198	-0.433036	0.164184
C144	C	1.601531	-0.099703	0.497517
C145	C	0.984672	-0.207623	-0.119375
C146	C	1.318006	0.125710	0.213959
C147	C	1.651339	0.459043	0.547292
C148	C	0.984668	-0.155402	-0.119387
C149	C	1.318002	0.177931	0.213946
C150	C	1.651335	0.511264	0.547279
C151	C	0.884962	-0.155425	-0.219026
C152	C	1.218295	0.177909	0.114308
C153	C	1.551628	0.511242	0.447641
C154	C	0.884968	-0.207641	-0.219016
C155	C	1.218302	0.125692	0.114317
C156	C	1.551635	0.459026	0.447651
C157	C	0.934826	-0.233739	-0.169184
C158	C	1.268160	0.099594	0.164149
C159	C	1.601493	0.432928	0.497483
O160	O	0.842623	-0.290259	-0.261359
O161	O	1.175956	0.043074	0.071974
O162	O	1.509290	0.376408	0.405308
O163	O	1.027064	-0.290264	-0.076983
O164	O	1.360397	0.043069	0.256350
O165	O	1.693731	0.376402	0.589684
C166	C	0.984692	-0.526149	-0.119338
C167	C	1.318025	-0.192816	0.213995
C168	C	1.651358	0.140518	0.547329
C169	C	0.934841	-0.552265	-0.169151
C170	C	1.268174	-0.218932	0.164182
C171	C	1.601507	0.114402	0.497516
C172	C	0.884988	-0.526164	-0.218970
C173	C	1.218321	-0.192831	0.114363
C174	C	1.551654	0.140502	0.447696
C175	C	0.934847	-0.604484	-0.169151
C176	C	1.268180	-0.271150	0.164183
C177	C	1.601513	0.062183	0.497516
C178	C	0.984700	-0.630584	-0.119331
C179	C	1.318033	-0.297251	0.214002
C180	C	1.651366	0.036082	0.547335
C181	C	1.034546	-0.604466	-0.069513
C182	C	1.367880	-0.271133	0.263821
C183	C	1.701213	0.062201	0.597154
C184	C	1.034544	-0.552250	-0.069519
C185	C	1.367878	-0.218916	0.263815
C186	C	1.701211	0.114417	0.597148
C187	C	0.835141	-0.552283	-0.268789
C188	C	1.168474	-0.218949	0.064544
C189	C	1.501808	0.114384	0.397877
C190	C	0.835148	-0.604499	-0.268780
C191	C	1.168481	-0.271166	0.064554
C192	C	1.501814	0.062168	0.397887
C193	C	0.885000	-0.630600	-0.218960
C194	C	1.218334	-0.297266	0.114373
C195	C	1.551667	0.036067	0.447706
C196	C	1.078042	-0.000063	-0.172997
C197	C	1.411375	0.333271	0.160336
C198	C	1.744709	0.666604	0.493669
C199	C	1.165326	-0.000065	-0.180346
C200	C	1.498659	0.333268	0.152988
C201	C	1.831992	0.666602	0.486321
C202	C	0.931027	-0.000058	-0.025982
C203	C	1.264360	0.333275	0.307351
C204	C	1.597693	0.666608	0.640685
C205	C	0.923679	-0.000058	0.061301
C206	C	1.257012	0.333276	0.394635
C207	C	1.590345	0.666609	0.727968
N208	N	0.934877	0.129193	-0.169149
N209	N	1.268210	0.462526	0.164185
N210	N	1.601544	0.795859	0.497518
C211	C	0.938660	-0.000050	-0.312379
C212	C	1.271994	0.333283	0.020954
C213	C	1.605327	0.666617	0.354288
C214	C	0.946008	-0.000047	-0.399663
C215	C	1.279342	0.333286	-0.066329
C216	C	1.612675	0.666619	0.267004
C217	C	0.991142	-0.000063	0.106911
C218	C	1.324476	0.333271	0.440244
C219	C	1.657809	0.666604	0.773577
C220	C	0.984233	-0.000057	0.188923
C221	C	1.317567	0.333276	0.522256
C222	C	1.650900	0.666609	0.855589
C223	C	0.909860	-0.000051	0.225324
C224	C	1.243193	0.333282	0.558657
C225	C	1.576527	0.666616	0.891990
C226	C	0.842391	-0.000045	0.179708
C227	C	1.175725	0.333289	0.513042
C228	C	1.509058	0.666622	0.846375
C229	C	0.849301	-0.000046	0.097698
C230	C	1.182634	0.333287	0.431031
C231	C	1.515968	0.666621	0.764365
C232	C	0.885449	-0.000043	0.472712
C233	C	1.218783	0.333291	0.806045
C234	C	1.552116	0.666624	1.139378
C235	C	0.878545	-0.000042	0.554728
C236	C	1.211878	0.333291	0.888061
C237	C	1.545211	0.666624	1.221395
C238	C	1.020387	-0.000054	0.563937
C239	C	1.353721	0.333279	0.897270
C240	C	1.687054	0.666612	1.230603
C241	C	1.027291	-0.000059	0.481924
C242	C	1.360624	0.333274	0.815258
C243	C	1.693957	0.666608	1.148591
C244	C	0.959822	-0.000050	0.436316
C245	C	1.293155	0.333283	0.769649
C246	C	1.626489	0.666617	1.102983
C247	C	0.902796	-0.000047	0.309153
C248	C	1.236129	0.333286	0.642486
C249	C	1.569463	0.666619	0.975820
C250	C	0.966886	-0.000050	0.352488
C251	C	1.300220	0.333283	0.685822
C252	C	1.633553	0.666617	1.019155
H253	H	0.688384	-0.000033	-0.286042
H254	H	1.021717	0.333300	0.047291
H255	H	1.355050	0.666633	0.380625
H256	H	1.025270	-0.134141	-0.078821
H257	H	1.358603	0.199193	0.254512
H258	H	1.691936	0.532526	0.587846
H259	H	1.087853	-0.000064	0.452293
H260	H	1.421186	0.333269	0.785626
H261	H	1.754520	0.666602	1.118959
F262	F	0.799383	-0.000038	0.593467
F263	F	1.132716	0.333295	0.926800
F264	F	1.466050	0.666629	1.260133
H265	H	0.844379	-0.228905	-0.259589
H266	H	1.177713	0.104428	0.073744
H267	H	1.511046	0.437762	0.407077
F268	F	0.823644	-0.000038	0.347901
F269	F	1.156978	0.333295	0.681234
F270	F	1.490311	0.666628	1.014568
F271	F	1.046037	-0.000054	0.313746
F272	F	1.379371	0.333279	0.647079
F273	F	1.712704	0.666613	0.980413
F274	F	0.813642	-0.000032	0.424182
F275	F	1.146975	0.333302	0.757516
F276	F	1.480309	0.666635	1.090849
F277	F	0.831908	-0.127639	-0.272047
F278	F	1.165242	0.205695	0.061287
F279	F	1.498575	0.539028	0.394620
F280	F	0.322473	-0.000044	-0.340786
F281	F	0.655806	0.333289	-0.007453
F282	F	0.989140	0.666623	0.325881
H283	H	0.164583	-0.000055	-0.309653
H284	H	0.497917	0.333278	0.023680
H285	H	0.831250	0.666612	0.357013
F286	F	1.087606	-0.632253	-0.016494
F287	F	1.420940	-0.298920	0.316840
F288	F	1.754273	0.034414	0.650173
F289	F	0.716505	-0.000054	-0.011834
F290	F	1.049839	0.333279	0.321500
F291	F	1.383172	0.666612	0.654833
H292	H	0.781835	-0.000036	0.209353
H293	H	1.115168	0.333297	0.542686
H294	H	1.448501	0.666631	0.876019
F295	F	0.777497	-0.000039	0.049157
F296	F	1.110830	0.333294	0.382491
F297	F	1.444163	0.666627	0.715824
F298	F	1.037737	-0.235391	-0.066338
F299	F	1.371070	0.097942	0.266996
F300	F	1.704404	0.431276	0.600329
H301	H	0.539608	-0.000043	-0.273507
H302	H	0.872942	0.333290	0.059827
H303	H	1.206275	0.666624	0.393160
H304	H	0.844436	-0.865967	-0.259542
H305	H	1.177769	-0.532633	0.073792
H306	H	1.511103	-0.199300	0.407125
F307	F	0.782078	-0.524510	-0.321816
F308	F	1.115412	-0.191177	0.011517
F309	F	1.448745	0.142156	0.344851
F310	F	0.341480	-0.000071	-0.047979
F311	F	0.674814	0.333262	0.285354
F312	F	1.008147	0.666596	0.618687
F313	F	0.172196	-0.000081	-0.033720
F314	F	0.505529	0.333252	0.299613
F315	F	0.838863	0.666585	0.632947
F316	F	0.547212	-0.000063	0.002426
F317	F	0.880545	0.333270	0.335759
F318	F	1.213878	0.666604	0.669092
F319	F	0.451917	-0.000053	-0.280375
F320	F	0.785250	0.333281	0.052959
F321	F	1.118583	0.666614	0.386292
F322	F	1.092187	-0.000063	0.612481
F323	F	1.425520	0.333270	0.945815
F324	F	1.758854	0.666604	1.279148
H325	H	1.075133	-0.374340	-0.028970
H326	H	1.408466	-0.041007	0.304363
H327	H	1.741800	0.292326	0.637696
F328	F	0.417762	-0.000060	-0.057982
F329	F	0.751095	0.333273	0.275352
F330	F	1.084429	0.666606	0.608685
F331	F	1.087604	-0.475588	-0.016501
F332	F	1.420938	-0.142255	0.316832
F333	F	1.754271	0.191079	0.650165
F334	F	0.782055	-0.475630	-0.321817
F335	F	1.115389	-0.142296	0.011516
F336	F	1.448722	0.191037	0.344849
F337	F	1.037786	-0.872477	-0.066305
F338	F	1.371119	-0.539143	0.267028
F339	F	1.704452	-0.205810	0.600362
F340	F	1.037787	-0.764680	-0.066309
F341	F	1.371121	-0.431346	0.267024
F342	F	1.704454	-0.098013	0.600357
F343	F	0.831948	-0.764716	-0.271996
F344	F	1.165281	-0.431383	0.061337
F345	F	1.498615	-0.098049	0.394671
H346	H	0.794512	-0.374374	-0.309360
H347	H	1.127845	-0.041041	0.023974
H348	H	1.461178	0.292292	0.357307
H349	H	1.075141	-0.530990	-0.028953
H350	H	1.408475	-0.197657	0.304380
H351	H	1.741808	0.135677	0.637713
H352	H	1.051705	-0.000071	0.077279
H353	H	1.385038	0.333262	0.410613
H354	H	1.718371	0.666596	0.743946
F355	F	0.782085	-0.632288	-0.321809
F356	F	1.115418	-0.298955	0.011525
F357	F	1.448752	0.034378	0.344858
H358	H	1.039170	-0.000062	0.226054
H359	H	1.372503	0.333271	0.559388
H360	H	1.705836	0.666604	0.892721
