data_functionalizedCrystal
_audit_creation_method	'MofGen! by Chris Wilmer'
_symmetry_space_group_name_H-M	'P1'
_symmetry_Int_Tables_number	1
_symmetry_cell_setting	triclinic
loop_
_symmetry_equiv_pos_as_xyz
  x,y,z
_cell_length_a	10.540535
_cell_length_b	14.044220
_cell_length_c	13.101039
_cell_angle_alpha	93.667477
_cell_angle_beta	93.389140
_cell_angle_gamma	91.143740
loop_
_atom_site_label
_atom_site_type_symbol
_atom_site_fract_x
_atom_site_fract_y
_atom_site_fract_z
O1	O	1.705795	-0.128478	0.085161
O2	O	2.205795	0.371522	0.585161
O3	O	1.337656	-0.141077	0.085176
O4	O	1.837656	0.358923	0.585176
O5	O	1.516199	0.003244	0.085158
O6	O	2.016199	0.503244	0.585158
O7	O	1.527252	-0.272799	0.085178
O8	O	2.027252	0.227201	0.585178
O9	O	1.503391	-0.007128	-0.085270
O10	O	2.003391	0.492872	0.414730
O11	O	1.324848	-0.151449	-0.085253
O12	O	1.824848	0.348551	0.414747
O13	O	1.692987	-0.138850	-0.085268
O14	O	2.192987	0.361150	0.414732
Zn15	Zn	1.506884	-0.146796	-0.112320
Zn16	Zn	2.006884	0.353204	0.387680
Zn17	Zn	1.523759	-0.133130	0.112228
Zn18	Zn	2.023759	0.366870	0.612228
O19	O	1.514444	-0.283171	-0.085250
O20	O	2.014444	0.216829	0.414750
C21	C	1.283854	-0.145319	-0.000037
C22	C	1.783854	0.354681	0.499963
C23	C	1.142620	-0.142494	-0.000032
C24	C	1.642620	0.357506	0.499968
C25	C	1.095296	-0.037122	-0.000043
C26	C	1.595296	0.462878	0.499957
C27	C	0.948365	-0.034174	-0.000440
C28	C	1.448365	0.465826	0.499560
C29	C	0.930847	-0.196507	-0.097174
C30	C	1.430847	0.303493	0.402826
C31	C	1.077833	-0.198753	-0.097245
C32	C	1.577833	0.301247	0.402755
C33	C	1.092438	-0.188491	0.096571
C34	C	1.592438	0.311509	0.596571
C35	C	0.945694	-0.183541	0.097837
C36	C	1.445694	0.316459	0.597837
C37	C	1.504957	0.033405	-0.000056
C38	C	2.004957	0.533405	0.499944
C39	C	1.490528	0.138728	-0.000057
C40	C	1.990528	0.638728	0.499943
C41	C	1.746790	-0.134608	-0.000053
C42	C	2.246790	0.365392	0.499947
C43	C	1.888023	-0.137432	-0.000051
C44	C	2.388023	0.362568	0.499949
C45	C	1.525686	-0.313332	-0.000034
C46	C	2.025686	0.186668	0.499966
C47	C	1.540116	-0.418655	-0.000026
C48	C	2.040116	0.081345	0.499974
N49	N	1.495376	-0.156122	-0.265567
N50	N	1.995376	0.343878	0.234433
C51	C	1.464148	0.331569	-0.000041
C52	C	1.964148	0.831569	0.499959
C53	C	1.566490	0.388511	-0.000042
C54	C	2.066490	0.888511	0.499958
C55	C	1.551812	0.495814	-0.000033
C56	C	2.051812	0.995814	0.499967
C57	C	1.478824	0.224256	-0.000050
C58	C	1.978824	0.724256	0.499950
C59	C	1.479720	-0.168819	-0.474608
C60	C	1.979720	0.331181	0.025392
C61	C	1.550928	-0.111103	-0.525491
C62	C	2.050928	0.388897	-0.025491
C63	C	1.542217	-0.118168	-0.641808
C64	C	2.042217	0.381832	-0.141808
C65	C	1.488430	-0.161756	-0.358280
C66	C	1.988430	0.338244	0.141720
N67	N	1.535276	-0.123797	0.265475
N68	N	2.035276	0.376203	0.765475
H69	H	1.138408	0.007580	0.069595
H70	H	1.638408	0.507580	0.569595
H71	H	0.904730	-0.258543	0.104009
H72	H	1.404730	0.241457	0.604009
O73	O	1.333493	0.373738	-0.000039
O74	O	1.833493	0.873738	0.499961
H75	H	1.260778	0.315475	-0.000037
H76	H	1.760778	0.815475	0.499963
O77	O	1.140589	0.009982	-0.092174
O78	O	1.640589	0.509982	0.407826
H79	H	1.196657	-0.041330	-0.137958
H80	H	1.696657	0.458670	0.362042
O81	O	1.640354	-0.038620	-0.467491
O82	O	2.140354	0.461380	0.032509
H83	H	1.633260	-0.044377	-0.383908
H84	H	2.133260	0.455623	0.116092
O85	O	1.697161	0.346354	-0.000057
O86	O	2.197161	0.846354	0.499943
H87	H	1.703498	0.297545	-0.069532
H88	H	2.203498	0.797545	0.430468
O89	O	1.390317	-0.241309	-0.532607
O90	O	1.890317	0.258691	-0.032607
H91	H	1.397436	-0.235558	-0.616188
H92	H	1.897436	0.264442	-0.116188
H93	H	0.910466	0.002937	-0.070479
H94	H	1.410466	0.502937	0.429521
O95	O	0.910848	0.026534	0.091742
O96	O	1.410848	0.526534	0.591742
H97	H	0.997730	0.054047	0.137007
H98	H	1.497730	0.554047	0.637007
H99	H	1.108362	-0.276252	-0.101390
H100	H	1.608362	0.223748	0.398610
O101	O	1.118998	-0.157076	-0.193788
O102	O	1.618998	0.342924	0.306212
H103	H	1.033941	-0.135504	-0.239981
H104	H	1.533941	0.364496	0.260019
H105	H	0.890804	-0.164448	-0.169737
H106	H	1.390804	0.335552	0.330263
O107	O	0.877945	-0.297499	-0.101619
O108	O	1.377945	0.202501	0.398381
H109	H	0.820430	-0.306680	-0.034492
H110	H	1.320430	0.193320	0.465508
O111	O	1.151581	-0.138994	0.194124
O112	O	1.651581	0.361006	0.694124
H113	H	1.256431	-0.145524	0.195551
H114	H	1.756431	0.354476	0.695551
O115	O	0.909771	-0.126518	0.193024
O116	O	1.409771	0.373482	0.693024
H117	H	0.851760	-0.065243	0.170710
H118	H	1.351760	0.434757	0.670710
H119	H	1.122532	-0.265962	0.097516
H120	H	1.622532	0.234038	0.597516
