data_functionalizedCrystal
_audit_creation_method	'MofGen! by Chris Wilmer'
_symmetry_space_group_name_H-M	'P1'
_symmetry_Int_Tables_number	1
_symmetry_cell_setting	triclinic
loop_
_symmetry_equiv_pos_as_xyz
  x,y,z
_cell_length_a	27.732048
_cell_length_b	14.044220
_cell_length_c	26.809956
_cell_angle_alpha	90.004656
_cell_angle_beta	89.999364
_cell_angle_gamma	92.084233
loop_
_atom_site_label
_atom_site_type_symbol
_atom_site_fract_x
_atom_site_fract_y
_atom_site_fract_z
O1	O	0.116453	-1.256008	-0.041437
O2	O	0.112250	-0.980101	-0.041449
O3	O	0.044357	-1.126624	-0.041433
O4	O	0.184346	-1.109485	-0.041453
O5	O	0.044367	-1.126596	0.041526
O6	O	0.112260	-0.980073	0.041510
O7	O	0.116463	-1.255981	0.041522
Zn8	Zn	0.114363	-1.118023	0.054688
Zn9	Zn	0.114350	-1.118059	-0.054615
O10	O	0.184356	-1.109458	0.041506
C11	C	0.110416	-0.944799	0.000029
C12	C	0.104929	-0.839654	0.000025
C13	C	0.026338	-1.126250	0.000048
C14	C	-0.027367	-1.125167	0.000052
C15	C	0.118297	-1.291282	0.000043
C16	C	0.123785	-1.396427	0.000044
C17	C	-0.362439	-1.204932	0.000030
C18	C	-0.564288	-1.200913	0.000023
O19	O	-0.592120	-1.273853	0.000004
N20	N	-0.587488	-1.114031	0.000019
C21	C	-0.560224	-1.028148	0.000014
O22	O	-0.584590	-0.954157	0.000006
C23	C	-0.358377	-1.032168	0.000018
C24	C	-0.335179	-1.119056	0.000026
C25	C	-0.339241	-1.291813	0.000038
C26	C	-0.288782	-1.292817	0.000042
C27	C	-0.261521	-1.206940	0.000039
C28	C	-0.284720	-1.120060	0.000031
C29	C	-0.331114	-0.946286	0.000009
C30	C	-0.280649	-0.947299	0.000009
C31	C	-0.257450	-1.034186	0.000017
C32	C	-0.207000	-1.035187	0.000032
N33	N	-0.183799	-1.122069	0.000035
C34	C	-0.211060	-1.207946	0.000039
C35	C	-0.666197	-1.026043	0.000013
C36	C	-0.716659	-1.025038	0.000013
C37	C	-0.720718	-1.197804	0.000021
C38	C	-0.670256	-1.198808	0.000024
C39	C	-0.642996	-1.112925	0.000017
C40	C	-0.105092	-1.210047	0.000049
C41	C	-0.054628	-1.211044	0.000055
C42	C	-0.050573	-1.038278	0.000045
C43	C	-0.101032	-1.037281	0.000041
C44	C	-0.128290	-1.123174	0.000041
O45	O	-0.179137	-0.962286	0.000045
O46	O	-0.186685	-1.281925	0.000036
C47	C	-0.412898	-1.203929	0.000025
C48	C	-0.436097	-1.117048	0.000017
C49	C	-0.408836	-1.031171	0.000014
C50	C	-0.486558	-1.116043	0.000017
C51	C	-0.513819	-1.201919	0.000021
C52	C	-0.490618	-1.288801	0.000024
C53	C	-0.440159	-1.289805	0.000029
C54	C	-0.432037	-0.944289	0.000011
C55	C	-0.482496	-0.943292	0.000007
C56	C	-0.509757	-1.029169	0.000010
C57	C	0.202375	-1.109831	0.000024
C58	C	0.256081	-1.110915	0.000017
N59	N	0.114372	-1.118005	0.129284
C60	C	0.094897	-0.647140	0.000036
C61	C	0.133814	-0.588936	0.000033
C62	C	0.128232	-0.481815	0.000039
C63	C	0.100478	-0.754271	0.000030
N64	N	0.114337	-1.118084	-0.129211
C65	C	0.084295	-1.182931	0.473917
C66	C	0.084288	-1.182953	0.682794
O67	O	0.058716	-1.238118	0.709804
N68	N	0.114340	-1.118064	0.708911
C69	C	0.144392	-1.053161	0.682804
O70	O	0.169949	-0.997962	0.709811
C71	C	0.144396	-1.053134	0.473928
C72	C	0.114346	-1.118034	0.447814
C73	C	0.054247	-1.247825	0.447803
C74	C	0.054251	-1.247822	0.395587
C75	C	0.084302	-1.182925	0.369484
C76	C	0.114350	-1.118031	0.395598
C77	C	0.174446	-0.988227	0.447822
C78	C	0.174443	-0.988225	0.395600
C79	C	0.144393	-1.053124	0.369486
C80	C	0.144405	-1.053132	0.317279
N81	N	0.114354	-1.118021	0.291162
C82	C	0.084302	-1.182918	0.317265
C83	C	0.144389	-1.053180	0.792468
C84	C	0.144389	-1.053188	0.844687
C85	C	0.084284	-1.182980	0.844673
C86	C	0.084287	-1.182976	0.792453
C87	C	0.114338	-1.118069	0.766351
C88	C	0.084313	-1.182907	0.207607
C89	C	0.084321	-1.182901	0.155386
C90	C	0.144424	-1.053107	0.155404
C91	C	0.144418	-1.053115	0.207621
C92	C	0.114359	-1.118019	0.233721
O93	O	0.169960	-0.997989	0.290237
O94	O	0.058742	-1.238094	0.290250
C95	C	0.084291	-1.182934	0.526133
C96	C	0.114338	-1.118040	0.552247
C97	C	0.144390	-1.053143	0.526144
C98	C	0.114338	-1.118047	0.604466
C99	C	0.084287	-1.182944	0.630568
C100	C	0.054235	-1.247833	0.604452
C101	C	0.054239	-1.247830	0.552236
C102	C	0.174441	-0.988254	0.552260
C103	C	0.174436	-0.988263	0.604477
C104	C	0.144384	-1.053160	0.630579
H105	H	-0.035743	-1.281801	0.000063
O106	O	-0.739213	-0.940660	0.000098
C107	C	-0.793846	-0.839253	0.043051
C108	C	-0.768328	-0.934837	0.043028
H109	H	-0.817399	-0.834523	0.077751
H110	H	-0.765710	-0.778014	0.043079
H111	H	-0.817346	-0.834487	0.008316
H112	H	-0.744829	-0.939696	0.077757
H113	H	-0.796489	-0.996031	0.042974
O114	O	-0.505051	-0.858907	0.000086
C115	C	-0.559689	-0.757493	0.043027
C116	C	-0.534171	-0.853078	0.043012
H117	H	-0.583246	-0.752758	0.077723
H118	H	-0.531553	-0.696254	0.043056
H119	H	-0.583185	-0.752734	0.008288
H120	H	-0.510676	-0.857930	0.077745
H121	H	-0.562331	-0.914271	0.042957
O122	O	-0.517031	-1.372310	0.000048
C123	C	-0.515749	-1.543777	0.000019
C124	C	-0.485775	-1.449282	0.000008
H125	H	-0.490492	-1.606033	-0.000024
H126	H	-0.539468	-1.547678	0.034743
H127	H	-0.539484	-1.547571	-0.034694
H128	H	-0.462013	-1.445424	0.034697
H129	H	-0.462088	-1.445420	-0.034739
O130	O	0.050186	-0.610459	0.000019
C131	C	0.003789	-0.468682	0.000056
C132	C	0.054452	-0.510110	0.000066
H133	H	0.007221	-0.387545	0.000105
H134	H	-0.016689	-0.493859	-0.034670
H135	H	-0.016674	-0.493983	0.034766
H136	H	0.074955	-0.484828	-0.034621
H137	H	0.074894	-0.484938	0.034816
H138	H	0.171324	-0.619558	0.000025
H139	H	0.059851	-1.235754	0.134126
H140	H	0.168861	-1.000324	0.771219
H141	H	-0.409846	-0.874356	0.000007
H142	H	0.059835	-1.235757	0.228852
H143	H	0.029773	-1.300671	0.469051
O144	O	0.203650	-0.925088	0.473103
C145	C	0.263279	-0.796379	0.467583
C146	C	0.230219	-0.867822	0.438891
H147	H	0.284777	-0.750075	0.439935
H148	H	0.240391	-0.749300	0.492018
H149	H	0.289170	-0.836927	0.492042
H150	H	0.204323	-0.827353	0.414405
H151	H	0.253138	-0.914900	0.414487
H152	H	0.198912	-0.935406	0.531011
H153	H	0.059815	-1.235823	0.865935
O154	O	0.025011	-1.310895	0.370301
C155	C	-0.034588	-1.439659	0.375819
C156	C	-0.001502	-1.368266	0.404512
H157	H	-0.056025	-1.486075	0.403465
H158	H	-0.060528	-1.399166	0.351389
H159	H	-0.011675	-1.486634	0.351353
H160	H	-0.024376	-1.321272	0.429004
H161	H	0.024440	-1.408817	0.428910
O162	O	0.203663	-0.925304	0.370190
C163	C	0.268786	-0.904153	0.311266
C164	C	0.235719	-0.975509	0.340000
H165	H	0.294719	-0.944715	0.286858
H166	H	0.245904	-0.857151	0.286786
H167	H	0.290238	-0.857756	0.338913
H168	H	0.214261	-1.021969	0.312389
H169	H	0.258628	-1.022445	0.364488
O170	O	0.173621	-0.989981	0.232913
C171	C	0.233249	-0.861267	0.227409
C172	C	0.200199	-0.932712	0.198708
H173	H	0.254753	-0.814960	0.199767
H174	H	0.210354	-0.814191	0.251838
H175	H	0.259135	-0.901813	0.251875
H176	H	0.174307	-0.892244	0.174215
H177	H	0.223124	-0.979788	0.174311
O178	O	0.055049	-1.246050	0.767166
C179	C	-0.004544	-1.374826	0.772678
C180	C	0.028538	-1.303430	0.801374
H181	H	-0.025979	-1.421249	0.800323
H182	H	-0.030485	-1.334336	0.748250
H183	H	0.018372	-1.421794	0.748212
H184	H	0.005661	-1.256444	0.825868
H185	H	0.054482	-1.343979	0.825771
H186	H	0.168864	-1.000350	0.865945
O187	O	0.025001	-1.310907	0.526950
C188	C	-0.034594	-1.439678	0.532468
C189	C	-0.001511	-1.368279	0.561161
H190	H	-0.056030	-1.486096	0.560114
H191	H	-0.060535	-1.399191	0.508037
H192	H	-0.011678	-1.486652	0.508003
H193	H	-0.024387	-1.321287	0.585652
H194	H	0.024432	-1.408826	0.585560
O195	O	0.024989	-1.310743	0.629837
C196	C	-0.040086	-1.331855	0.688821
C197	C	-0.007003	-1.260518	0.660092
H198	H	-0.065953	-1.291276	0.713298
H199	H	-0.061603	-1.378229	0.661215
H200	H	-0.017165	-1.378881	0.713246
H201	H	-0.029888	-1.213430	0.635666
H202	H	0.014516	-1.214210	0.687725
O203	O	0.203643	-0.925123	0.629763
C204	C	0.263272	-0.796412	0.624250
C205	C	0.230217	-0.867855	0.595554
H206	H	0.284773	-0.750106	0.596605
H207	H	0.240380	-0.749334	0.648683
H208	H	0.289160	-0.836959	0.648713
H209	H	0.204322	-0.827386	0.571065
H210	H	0.253138	-0.914932	0.571153
H211	H	-0.361431	-1.361748	0.000038
O212	O	-0.131493	-1.293568	0.000073
C213	C	-0.130181	-1.465032	0.000057
C214	C	-0.100223	-1.370517	0.000037
H215	H	-0.104912	-1.527270	0.000018
H216	H	-0.153897	-1.468940	0.034782
H217	H	-0.153917	-1.468852	-0.034654
H218	H	-0.076459	-1.366633	0.034725
H219	H	-0.076538	-1.366649	-0.034711
O220	O	-0.639793	-0.942524	0.000033
C221	C	-0.641105	-0.771060	0.000002
C222	C	-0.671063	-0.865575	-0.000012
H223	H	-0.666374	-0.708822	-0.000045
H224	H	-0.617392	-0.767131	0.034729
H225	H	-0.617366	-0.767261	-0.034708
H226	H	-0.694830	-0.869436	0.034674
H227	H	-0.694745	-0.869464	-0.034762
H228	H	-0.269898	-1.363570	0.000047
H229	H	-0.651371	-1.269560	0.000031
H230	H	-0.742923	-1.267728	0.000024
O231	O	-0.254221	-0.863808	-0.000064
C232	C	-0.235289	-0.716497	-0.043069
C233	C	-0.265255	-0.811002	-0.043044
H234	H	-0.244192	-0.673786	-0.077820
H235	H	-0.244220	-0.673621	-0.008379
H236	H	-0.195240	-0.732156	-0.043041
H237	H	-0.305312	-0.795430	-0.043089
H238	H	-0.256282	-0.853850	-0.077731
O239	O	-0.123590	-0.952904	0.000126
C240	C	-0.178231	-0.851503	0.043072
C241	C	-0.152711	-0.947086	0.043051
H242	H	-0.201789	-0.846776	0.077769
H243	H	-0.150096	-0.790262	0.043105
H244	H	-0.201727	-0.846736	0.008334
H245	H	-0.129217	-0.951945	0.077784
H246	H	-0.180871	-1.008280	0.042992
H247	H	0.168893	-1.000271	0.134143
H248	H	-0.349993	-0.875533	-0.000001
H249	H	-0.028368	-0.968360	0.000044
H250	H	-0.421276	-1.360558	0.000035
