data_functionalizedCrystal
_audit_creation_method	'MofGen! by Chris Wilmer'
_symmetry_space_group_name_H-M	'P1'
_symmetry_Int_Tables_number	1
_symmetry_cell_setting	triclinic
loop_
_symmetry_equiv_pos_as_xyz
  x,y,z
_cell_length_a	10.489711
_cell_length_b	11.792241
_cell_length_c	10.268362
_cell_angle_alpha	90.000297
_cell_angle_beta	89.993890
_cell_angle_gamma	95.639788
loop_
_atom_site_label
_atom_site_type_symbol
_atom_site_fract_x
_atom_site_fract_y
_atom_site_fract_z
O1	O	-1.693531	0.159977	0.108332
O2	O	-1.193531	0.659977	0.608332
O3	O	-1.322279	0.175043	0.108322
O4	O	-0.822279	0.675043	0.608322
O5	O	-1.516914	0.002363	0.108335
O6	O	-1.016914	0.502363	0.608335
O7	O	-1.498895	0.332657	0.108319
O8	O	-0.998895	0.832657	0.608319
O9	O	-1.516897	0.002356	-0.108266
O10	O	-1.016897	0.502356	0.391734
O11	O	-1.322262	0.175036	-0.108278
O12	O	-0.822262	0.675036	0.391722
O13	O	-1.693514	0.159970	-0.108269
O14	O	-1.193514	0.659970	0.391731
Cu15	Cu	-1.507886	0.167502	-0.128051
Cu16	Cu	-1.007886	0.667502	0.371949
Cu17	Cu	-1.507906	0.167511	0.128104
Cu18	Cu	-1.007906	0.667511	0.628104
O19	O	-1.498878	0.332650	-0.108282
O20	O	-0.998878	0.832650	0.391718
C21	C	-1.274742	0.173909	0.000021
C22	C	-0.774742	0.673909	0.500021
C23	C	-1.133122	0.170526	0.000018
C24	C	-0.633122	0.670526	0.500018
C25	C	-1.515774	-0.039934	0.000039
C26	C	-1.015774	0.460066	0.500039
C27	C	-1.512386	-0.165957	0.000054
C28	C	-1.012386	0.334043	0.500054
C29	C	-1.741051	0.161104	0.000035
C30	C	-1.241051	0.661104	0.500035
C31	C	-1.882670	0.164487	0.000046
C32	C	-1.382670	0.664487	0.500046
C33	C	-0.950382	0.274371	0.000028
C34	C	-0.450382	0.774371	0.500028
C35	C	-1.042712	0.222502	0.106824
C36	C	-0.542712	0.722502	0.606824
C37	C	-1.042669	0.222467	-0.106727
C38	C	-0.542669	0.722467	0.393273
C39	C	-0.973136	0.112573	0.106931
C40	C	-0.473136	0.612573	0.606931
C41	C	-0.973083	0.112553	-0.106717
C42	C	-0.473083	0.612553	0.393283
C43	C	-1.065386	0.060605	0.000105
C44	C	-0.565386	0.560605	0.500105
C45	C	-1.500019	0.374947	0.000017
C46	C	-1.000019	0.874947	0.500017
C47	C	-1.503407	0.500970	0.000011
C48	C	-1.003407	1.000970	0.500011
N49	N	-1.507881	0.167496	-0.308217
N50	N	-1.007881	0.667496	0.191783
C51	C	-1.509636	0.731698	0.000044
C52	C	-1.009636	1.231698	0.500044
C53	C	-1.506175	0.603304	0.000026
C54	C	-1.006175	1.103304	0.500026
C55	C	-1.507900	0.167508	-0.573888
C56	C	-1.007900	0.667508	-0.073888
C57	C	-1.507885	0.167505	-0.426050
C58	C	-1.007885	0.667505	0.073950
N59	N	-1.507921	0.167509	0.308270
N60	N	-1.007921	0.667509	0.808270
H61	H	-1.073556	0.269003	0.197104
H62	H	-0.573556	0.769003	0.697104
H63	H	-0.942493	0.066125	0.197324
H64	H	-0.442493	0.566125	0.697324
N65	N	-1.131302	-0.059139	0.000162
N66	N	-0.631302	0.440861	0.500162
H67	H	-1.106025	-0.100481	0.080861
H68	H	-0.606025	0.399519	0.580861
H69	H	-1.227184	-0.056097	-0.000663
H70	H	-0.727184	0.443903	0.499337
H71	H	-0.900384	0.364687	0.000130
H72	H	-0.400384	0.864687	0.500130
H73	H	-0.942211	0.066094	-0.197005
H74	H	-0.442211	0.566094	0.302995
N75	N	-1.083467	0.284067	-0.226323
N76	N	-0.583467	0.784067	0.273677
H77	H	-1.041213	0.364810	-0.226225
H78	H	-0.541213	0.864810	0.273775
H79	H	-1.056910	0.243286	-0.306918
H80	H	-0.556910	0.743286	0.193082
