data_functionalizedCrystal
_audit_creation_method	'MofGen! by Chris Wilmer'
_symmetry_space_group_name_H-M	'P1'
_symmetry_Int_Tables_number	1
_symmetry_cell_setting	triclinic
loop_
_symmetry_equiv_pos_as_xyz
  x,y,z
_cell_length_a	16.625548
_cell_length_b	19.805405
_cell_length_c	19.805399
_cell_angle_alpha	90.029301
_cell_angle_beta	89.981391
_cell_angle_gamma	89.972522
loop_
_atom_site_label
_atom_site_type_symbol
_atom_site_fract_x
_atom_site_fract_y
_atom_site_fract_z
Zn1	Zn	1.232643	0.269460	-0.382694
Zn2	Zn	1.732643	0.769460	0.117306
Zn3	Zn	1.232541	0.382648	-0.269502
Zn4	Zn	1.732541	0.882648	0.230498
Zn5	Zn	1.097809	0.269480	-0.269521
Zn6	Zn	1.597809	0.769480	0.230479
Zn7	Zn	1.097766	0.382614	-0.382651
Zn8	Zn	1.597766	0.882614	0.117349
O9	O	1.165190	0.326051	-0.326092
O10	O	1.665190	0.826051	0.173908
O11	O	1.345462	0.284480	-0.367689
O12	O	1.845462	0.784480	0.132311
O13	O	1.214645	0.367659	-0.174788
O14	O	1.714645	0.867659	0.325212
O15	O	1.115756	0.174761	-0.284559
O16	O	1.615756	0.674761	0.215441
O17	O	1.345387	0.367639	-0.284528
O18	O	1.845387	0.867639	0.215472
O19	O	1.214817	0.174746	-0.367707
O20	O	1.714817	0.674746	0.132293
O21	O	1.115657	0.284515	-0.174802
O22	O	1.615657	0.784515	0.325198
O23	O	0.984971	0.284482	-0.284517
O24	O	1.484971	0.784482	0.215483
O25	O	1.115682	0.367581	-0.477373
O26	O	1.615682	0.867581	0.022627
O27	O	0.984939	0.367601	-0.367634
O28	O	1.484939	0.867601	0.132366
O29	O	1.214775	0.284447	-0.477405
O30	O	1.714775	0.784447	0.022595
O31	O	1.214602	0.477360	-0.284486
O32	O	1.714602	0.977360	0.215514
O33	O	1.115583	0.477335	-0.367616
O34	O	1.615583	0.977335	0.132384
C35	C	0.955699	0.326041	-0.326073
C36	C	1.455699	0.826041	0.173927
C37	C	0.866078	0.326053	-0.326081
C38	C	1.366078	0.826053	0.173919
C39	C	1.165235	0.326008	-0.502635
C40	C	1.665235	0.826008	-0.002635
C41	C	1.165254	0.325990	-0.577867
C42	C	1.665254	0.825990	-0.077867
C43	C	1.165099	0.501907	-0.326059
C44	C	1.665099	1.001907	0.173941
C45	C	1.165134	0.577139	-0.326068
C46	C	1.665134	1.077139	0.173932
C47	C	0.537902	0.326057	-0.326110
C48	C	1.037902	0.826057	0.173890
C49	C	0.629211	0.326054	-0.326100
C50	C	1.129211	0.826054	0.173900
C51	C	0.701987	0.326056	-0.326095
C52	C	1.201987	0.826056	0.173905
C53	C	0.793301	0.326052	-0.326086
C54	C	1.293301	0.826052	0.173914
C55	C	1.375499	0.326061	-0.326111
C56	C	1.875499	0.826061	0.173889
C57	C	1.465120	0.326065	-0.326120
C58	C	1.965120	0.826065	0.173880
C59	C	1.165303	0.149508	-0.326140
C60	C	1.665303	0.649508	0.173860
C61	C	1.165351	0.074276	-0.326160
C62	C	1.665351	0.574276	0.173840
C63	C	1.216743	0.612473	-0.282828
C64	C	1.716743	1.112473	0.217172
C65	C	1.216778	0.683162	-0.282843
C66	C	1.716778	1.183162	0.217157
C67	C	1.165198	0.718514	-0.326095
C68	C	1.665198	1.218514	0.173905
C69	C	1.113586	0.683174	-0.369340
C70	C	1.613586	1.183174	0.130660
C71	C	1.113557	0.612487	-0.369328
C72	C	1.613557	1.112487	0.130672
C73	C	1.113705	0.968248	-0.369390
C74	C	1.613705	1.468248	0.130610
C75	C	1.113737	1.038940	-0.369398
C76	C	1.613737	1.538940	0.130602
C77	C	1.216926	1.038922	-0.282905
C78	C	1.716926	1.538922	0.217095
C79	C	1.216896	0.968235	-0.282893
C80	C	1.716896	1.468235	0.217107
C81	C	1.165288	0.932901	-0.326140
C82	C	1.665288	1.432901	0.173860
C83	C	1.165253	0.856253	-0.326124
C84	C	1.665253	1.356253	0.173876
C85	C	1.165229	0.795161	-0.326108
C86	C	1.665229	1.295161	0.173892
C87	C	1.216853	0.282700	-0.613229
C88	C	1.716853	0.782700	-0.113229
C89	C	1.216862	0.282680	-0.683917
C90	C	1.716862	0.782680	-0.183917
C91	C	1.165274	0.325954	-0.719243
C92	C	1.665274	0.825954	-0.219243
C93	C	1.113669	0.369246	-0.683876
C94	C	1.613669	0.869246	-0.183876
C95	C	1.113658	0.369262	-0.613189
C96	C	1.613658	0.869262	-0.113189
C97	C	1.113715	0.369183	-0.968949
C98	C	1.613715	0.869183	-0.468949
C99	C	1.113732	0.369166	-1.039642
C100	C	1.613732	0.869166	-0.539642
C101	C	1.216919	0.282601	-1.039678
C102	C	1.716919	0.782601	-0.539678
C103	C	1.216907	0.282617	-0.968991
C104	C	1.716907	0.782617	-0.468991
C105	C	1.165300	0.325906	-0.933630
C106	C	1.665300	0.825906	-0.433630
C107	C	1.165290	0.325926	-0.856982
C108	C	1.665290	0.825926	-0.356982
C109	C	1.165287	0.325938	-0.795890
C110	C	1.665287	0.825938	-0.295890
C111	C	1.165191	0.326044	-0.150236
C112	C	1.665191	0.826044	0.349764
C113	C	1.165328	0.325872	-0.075005
C114	C	1.665328	0.825872	0.424995
H115	H	1.258742	0.583694	-0.247604
H116	H	1.758742	1.083694	0.252396
O117	O	1.267065	0.240609	-0.718163
O118	O	1.767065	0.740609	-0.218163
C119	C	1.312584	0.202410	-0.671826
C120	C	1.812584	0.702410	-0.171826
H121	H	1.315347	0.230147	-0.621431
H122	H	1.815347	0.730147	-0.121431
H123	H	1.283095	0.151002	-0.664316
H124	H	1.783095	0.651002	-0.164316
C125	C	1.395018	0.158591	-0.761325
C126	C	1.895018	0.658591	-0.261325
C127	C	1.398417	0.192661	-0.699431
C128	C	1.898417	0.692661	-0.199431
H129	H	1.447963	0.152574	-0.778354
H130	H	1.947963	0.652574	-0.278354
H131	H	1.364349	0.184324	-0.792544
H132	H	1.864349	0.684324	-0.292544
H133	H	1.370440	0.115755	-0.755059
H134	H	1.870440	0.615755	-0.255059
H135	H	1.422985	0.235499	-0.705699
H136	H	1.922985	0.735499	-0.205699
H137	H	1.429092	0.166934	-0.668214
H138	H	1.929092	0.666934	-0.168214
O139	O	1.267040	0.933819	-0.240972
O140	O	1.767040	1.433819	0.259028
C141	C	1.319085	0.892881	-0.279543
C142	C	1.819085	1.392881	0.220457
H143	H	1.290605	0.882279	-0.330813
H144	H	1.790605	1.382279	0.169187
H145	H	1.378844	0.920076	-0.287031
H146	H	1.878844	1.420076	0.212969
C147	C	1.368661	0.838771	-0.179335
C148	C	1.868661	1.338771	0.320665
C149	C	1.333678	0.825745	-0.242303
C150	C	1.833678	1.325745	0.257697
H151	H	1.377666	0.797359	-0.156363
H152	H	1.877666	1.297359	0.343637
H153	H	1.333600	0.866354	-0.153347
H154	H	1.833600	1.366354	0.346653
H155	H	1.418457	0.861435	-0.185583
H156	H	1.918457	1.361435	0.314417
H157	H	1.283879	0.803089	-0.236054
H158	H	1.783879	1.303089	0.263946
H159	H	1.368731	0.798157	-0.268289
H160	H	1.868731	1.298157	0.231711
H161	H	1.071720	0.404406	-1.068402
H162	H	1.571720	0.904406	-0.568402
O163	O	1.063549	1.073313	-0.411323
O164	O	1.563549	1.573313	0.088677
C165	C	1.011525	1.114276	-0.372758
C166	C	1.511525	1.614276	0.127242
H167	H	1.006564	1.093009	-0.319444
H168	H	1.506564	1.593009	0.180556
H169	H	1.036482	1.167831	-0.370448
H170	H	1.536482	1.667831	0.129552
C171	C	0.933781	1.141524	-0.471252
C172	C	1.433781	1.641524	0.028748
C173	C	0.927682	1.115401	-0.405772
C174	C	1.427682	1.615401	0.094228
H175	H	0.882063	1.142221	-0.491617
H176	H	1.382063	1.642221	0.008383
H177	H	0.968832	1.113928	-0.497235
H178	H	1.468832	1.613928	0.002765
H179	H	0.954582	1.186151	-0.469318
H180	H	1.454582	1.686151	0.030682
H181	H	0.906891	1.070772	-0.407708
H182	H	1.406891	1.570772	0.092292
H183	H	0.892625	1.142988	-0.379790
H184	H	1.392625	1.642988	0.120210
H185	H	1.258938	0.247351	-1.068477
H186	H	1.758938	0.747351	-0.568477
H187	H	1.258865	0.247463	-0.584472
H188	H	1.758865	0.747463	-0.084472
O189	O	1.063450	0.411222	-0.578810
O190	O	1.563450	0.911222	-0.078810
C191	C	1.011400	0.372699	-0.537912
C192	C	1.511400	0.872699	-0.037912
H193	H	1.006456	0.319384	-0.559225
H194	H	1.506456	0.819384	-0.059225
H195	H	1.036318	0.370384	-0.484342
H196	H	1.536318	0.870384	0.015658
C197	C	0.933629	0.471247	-0.510633
C198	C	1.433629	0.971247	-0.010633
C199	C	0.927553	0.405766	-0.536814
C200	C	1.427553	0.905766	-0.036814
H201	H	0.881910	0.491645	-0.509953
H202	H	1.381910	0.991645	-0.009953
H203	H	0.968699	0.497202	-0.538185
H204	H	1.468699	0.997202	-0.038185
H205	H	0.954398	0.469309	-0.465994
H206	H	1.454398	0.969309	0.034006
H207	H	0.906795	0.407705	-0.581454
H208	H	1.406795	0.907705	-0.081454
H209	H	0.892478	0.379812	-0.509269
H210	H	1.392478	0.879812	-0.009269
H211	H	1.258802	0.711928	-0.247631
H212	H	1.758802	1.211928	0.252369
H213	H	1.071593	0.711964	-0.404560
H214	H	1.571593	1.211964	0.095440
O215	O	1.063487	0.934036	-0.411411
O216	O	1.563487	1.434036	0.088589
C217	C	1.017978	0.980399	-0.449593
C218	C	1.517978	1.480399	0.050407
H219	H	1.015240	1.030808	-0.421875
H220	H	1.515240	1.530808	0.078125
H221	H	1.047462	0.987859	-0.501027
H222	H	1.547462	1.487859	-0.001027
C223	C	0.935503	0.890959	-0.493308
C224	C	1.435503	1.390959	0.006692
C225	C	0.932134	0.952871	-0.459262
C226	C	1.432134	1.452871	0.040738
H227	H	0.882551	0.873978	-0.499275
H228	H	1.382551	1.373978	0.000725
H229	H	0.966165	0.859722	-0.467586
H230	H	1.466165	1.359722	0.032414
H231	H	0.960076	0.897184	-0.536166
H232	H	1.460076	1.397184	-0.036166
H233	H	0.907570	0.946643	-0.416401
H234	H	1.407570	1.446643	0.083599
H235	H	0.901465	0.984106	-0.484977
H236	H	1.401465	1.484106	0.015023
O237	O	1.267045	0.240516	-0.934781
O238	O	1.767045	0.740516	-0.434781
C239	C	1.312604	0.202313	-0.981151
C240	C	1.812604	0.702313	-0.481151
H241	H	1.279590	0.199957	-1.031536
H242	H	1.779590	0.699957	-0.531536
H243	H	1.373828	0.227099	-0.988669
H244	H	1.873828	0.727099	-0.488669
C245	C	1.364812	0.133176	-0.891701
C246	C	1.864812	0.633176	-0.391701
C247	C	1.324260	0.130277	-0.953583
C248	C	1.824260	0.630277	-0.453583
H249	H	1.372005	0.088742	-0.874696
H250	H	1.872005	0.588742	-0.374696
H251	H	1.334120	0.158915	-0.860460
H252	H	1.834120	0.658915	-0.360460
H253	H	1.415827	0.153834	-0.897975
H254	H	1.915827	0.653834	-0.397975
H255	H	1.273241	0.109628	-0.947307
H256	H	1.773241	0.609628	-0.447307
H257	H	1.354943	0.104532	-0.984823
H258	H	1.854943	0.604532	-0.484823
O259	O	1.063550	0.411288	-0.934711
O260	O	1.563550	0.911288	-0.434711
C261	C	1.018004	0.449462	-0.981051
C262	C	1.518004	0.949462	-0.481051
H263	H	1.051049	0.451810	-1.031437
H264	H	1.551049	0.951810	-0.531437
H265	H	0.956795	0.424655	-0.988580
H266	H	1.456795	0.924655	-0.488580
C267	C	0.965710	0.518614	-0.891549
C268	C	1.465710	1.018614	-0.391549
C269	C	1.006300	0.521503	-0.953433
C270	C	1.506300	1.021503	-0.453433
H271	H	0.958487	0.563052	-0.874513
H272	H	1.458487	1.063052	-0.374513
H273	H	0.996393	0.492895	-0.860329
H274	H	1.496393	0.992895	-0.360329
H275	H	0.914707	0.497939	-0.897832
H276	H	1.414707	0.997939	-0.397832
H277	H	1.057306	0.542170	-0.947149
H278	H	1.557306	1.042170	-0.447149
H279	H	0.975625	0.547228	-0.984653
H280	H	1.475625	1.047228	-0.484653
O281	O	1.267054	1.073351	-0.240973
O282	O	1.767054	1.573351	0.259027
C283	C	1.256019	1.143322	-0.250250
C284	C	1.756019	1.643322	0.249750
H285	H	1.229565	1.152958	-0.302461
H286	H	1.729565	1.652958	0.197539
H287	H	1.213135	1.163450	-0.210065
H288	H	1.713135	1.663450	0.289935
C289	C	1.370123	1.167713	-0.180012
C290	C	1.870123	1.667713	0.319988
C291	C	1.337637	1.179549	-0.244141
C292	C	1.837637	1.679549	0.255859
H293	H	1.420468	1.190061	-0.176241
H294	H	1.920468	1.690061	0.323759
H295	H	1.377556	1.120573	-0.173759
H296	H	1.877556	1.620573	0.326241
H297	H	1.334379	1.184487	-0.146532
H298	H	1.834379	1.684487	0.353468
H299	H	1.373377	1.162768	-0.277619
H300	H	1.873377	1.662768	0.222381
H301	H	1.330212	1.226688	-0.250400
H302	H	1.830212	1.726688	0.249600
H303	H	1.071663	0.404479	-0.712644
H304	H	1.571663	0.904479	-0.212644
H305	H	1.071532	0.583719	-0.404540
H306	H	1.571532	1.083719	0.095460
