data_functionalizedCrystal
_audit_creation_method	'MofGen! by Chris Wilmer'
_symmetry_space_group_name_H-M	'P1'
_symmetry_Int_Tables_number	1
_symmetry_cell_setting	triclinic
loop_
_symmetry_equiv_pos_as_xyz
  x,y,z
_cell_length_a	10.685904
_cell_length_b	12.827885
_cell_length_c	10.685676
_cell_angle_alpha	85.659989
_cell_angle_beta	80.927530
_cell_angle_gamma	85.604483
loop_
_atom_site_label
_atom_site_type_symbol
_atom_site_fract_x
_atom_site_fract_y
_atom_site_fract_z
Zn1	Zn	1.901889	-0.734422	0.356550
Zn2	Zn	1.885462	-0.572107	0.568851
Zn3	Zn	1.689606	-0.547231	0.372879
Zn4	Zn	1.673303	-0.734340	0.585016
O5	O	1.787565	-0.647025	0.470824
O6	O	2.077341	-0.723335	0.371113
O7	O	1.859429	-0.422572	0.542924
O8	O	1.731464	-0.561686	0.193084
O9	O	2.065272	-0.604083	0.527090
O10	O	1.887427	-0.699214	0.181087
O11	O	1.715535	-0.404296	0.398944
O12	O	1.509812	-0.561607	0.414618
O13	O	1.703677	-0.880586	0.554640
O14	O	1.497835	-0.699075	0.570474
O15	O	1.871619	-0.880646	0.386787
O16	O	1.843621	-0.604004	0.748624
O17	O	1.687748	-0.723196	0.760501
C18	C	1.457766	-0.627634	0.496073
C19	C	1.316674	-0.619364	0.506906
C20	C	1.787662	-0.919593	0.470695
C21	C	1.787703	-1.035746	0.470641
C22	C	1.716525	-1.078487	0.399378
C23	C	1.716566	-1.198537	0.399319
C24	C	2.118652	-0.666493	0.445477
C25	C	2.259741	-0.674789	0.434676
C26	C	1.762167	-0.666316	0.800617
C27	C	1.751418	-0.674610	0.941695
C28	C	1.787548	-0.375516	0.470855
C29	C	1.787781	-0.259358	0.470533
C30	C	1.813056	-0.627670	1.139743
C31	C	1.823816	-0.619385	0.998665
H32	H	1.257477	-0.565585	0.577026
C33	C	1.870111	-1.209665	0.552963
N34	N	1.932121	-1.172228	0.615051
C35	C	1.918666	-0.546937	0.918751
N36	N	1.990106	-0.492367	0.858551
H37	H	1.848670	-1.088029	0.531610
C38	C	1.634168	-1.007860	0.316998
N39	N	1.572140	-0.954664	0.254942
C40	C	1.339718	-0.747443	0.339934
N41	N	1.399958	-0.802166	0.268576
H42	H	1.681211	-0.728243	1.000856
H43	H	1.655634	-1.235328	0.338303
