data_functionalizedCrystal
_audit_creation_method	'MofGen! by Chris Wilmer'
_symmetry_space_group_name_H-M	'P1'
_symmetry_Int_Tables_number	1
_symmetry_cell_setting	triclinic
loop_
_symmetry_equiv_pos_as_xyz
  x,y,z
_cell_length_a	16.120484
_cell_length_b	19.077105
_cell_length_c	19.076919
_cell_angle_alpha	90.076224
_cell_angle_beta	84.953390
_cell_angle_gamma	89.261477
loop_
_atom_site_label
_atom_site_type_symbol
_atom_site_fract_x
_atom_site_fract_y
_atom_site_fract_z
Zn1	Zn	-0.403262	-1.040337	0.456942
Zn2	Zn	0.096738	-0.540337	0.956942
Zn3	Zn	-0.537287	-1.039017	0.344927
Zn4	Zn	-0.037287	-0.539017	0.844927
Zn5	Zn	-0.392095	-0.928051	0.334278
Zn6	Zn	0.107905	-0.428051	0.834278
Zn7	Zn	-0.536784	-0.916861	0.457659
Zn8	Zn	-0.036784	-0.416861	0.957659
O9	O	-0.467357	-0.981066	0.398451
O10	O	0.032643	-0.481066	0.898451
O11	O	-0.425924	-1.138276	0.446240
O12	O	0.074076	-0.638276	0.946240
O13	O	-0.513564	-1.028428	0.245000
O14	O	-0.013564	-0.528428	0.745000
O15	O	-0.276934	-0.948182	0.345793
O16	O	0.223066	-0.448182	0.845793
O17	O	-0.524392	-1.137306	0.363943
O18	O	-0.024392	-0.637306	0.863943
O19	O	-0.285138	-1.030678	0.435913
O20	O	0.214862	-0.530678	0.935913
O21	O	-0.406892	-0.946902	0.237176
O22	O	0.093108	-0.446902	0.737176
O23	O	-0.406405	-0.828452	0.346488
O24	O	0.093595	-0.328452	0.846488
O25	O	-0.523535	-0.929109	0.556078
O26	O	-0.023535	-0.429109	1.056078
O27	O	-0.512707	-0.820230	0.437136
O28	O	-0.012707	-0.320230	0.937136
O29	O	-0.425436	-1.019827	0.555551
O30	O	0.074564	-0.519827	1.055551
O31	O	-0.653863	-1.017576	0.364638
O32	O	-0.153863	-0.517576	0.864638
O33	O	-0.653494	-0.927829	0.447462
O34	O	-0.153494	-0.427829	0.947462
C35	C	-0.683924	-0.971363	0.407299
C36	C	-0.183924	-0.471363	0.907299
C37	C	-0.776577	-0.967276	0.411111
C38	C	-0.276577	-0.467276	0.911111
C39	C	-0.458290	-0.798901	0.390734
C40	C	0.041710	-0.298901	0.890734
C41	C	-0.454433	-0.720969	0.387451
C42	C	0.045567	-0.220969	0.887451
C43	C	-0.475675	-0.973367	0.582072
C44	C	0.024325	-0.473367	1.082072
C45	C	-0.479220	-0.970086	0.660321
C46	C	0.020780	-0.470086	1.160321
C47	C	-0.946215	-0.959816	0.418084
C48	C	-0.446215	-0.459816	0.918084
C49	C	-0.987665	-1.002442	0.378836
C50	C	-0.487665	-0.502442	0.878836
C51	C	-1.082058	-0.998291	0.382716
C52	C	-0.582058	-0.498291	0.882716
C53	C	-0.851814	-0.963966	0.414205
C54	C	-0.351814	-0.463966	0.914205
C55	C	-0.249946	-0.990826	0.389585
C56	C	0.250054	-0.490826	0.889585
C57	C	-0.157298	-0.994984	0.385807
C58	C	0.342702	-0.494984	0.885807
C59	C	-0.476459	-1.163943	0.406199
C60	C	0.023541	-0.663943	0.906199
C61	C	-0.480338	-1.241874	0.409501
C62	C	0.019662	-0.741874	0.909501
C63	C	-0.508043	-0.680093	0.433036
C64	C	-0.008043	-0.180093	0.933036
C65	C	-0.504408	-0.606867	0.429953
C66	C	-0.004408	-0.106867	0.929953
C67	C	-0.447165	-0.574519	0.381281
C68	C	0.052835	-0.074519	0.881281
C69	C	-0.393548	-0.615400	0.335694
C70	C	0.106452	-0.115400	0.835694
C71	C	-0.397180	-0.688624	0.338781
C72	C	0.102820	-0.188624	0.838781
C73	C	-0.430354	-0.355979	0.367000
C74	C	0.069646	0.144021	0.867000
C75	C	-0.426728	-0.282749	0.363916
C76	C	0.073272	0.217251	0.863916
C77	C	-0.537586	-0.274222	0.458176
C78	C	-0.037586	0.225778	0.958176
C79	C	-0.541217	-0.347448	0.461255
C80	C	-0.041217	0.152552	0.961255
C81	C	-0.487598	-0.388323	0.415670
C82	C	0.012402	0.111677	0.915670
N83	N	-0.443449	-0.499670	0.378128
N84	N	0.056551	0.000330	0.878128
N85	N	-0.491310	-0.463169	0.418828
N86	N	0.008690	0.036831	0.918828
C87	C	-0.459013	-0.988779	0.215544
C88	C	0.040987	-0.488779	0.715544
C89	C	-0.455240	-0.992206	0.137292
C90	C	0.044760	-0.492206	0.637292
C91	C	-0.429813	-1.015774	0.696809
C92	C	0.070187	-0.515774	1.196809
C93	C	-0.433140	-1.012683	0.770331
C94	C	0.066860	-0.512683	1.270331
C95	C	-0.485879	-0.963906	0.807364
C96	C	0.014121	-0.463906	1.307364
C97	C	-0.535288	-0.918214	0.770871
C98	C	-0.035288	-0.418214	1.270871
C99	C	-0.531956	-0.921302	0.697350
C100	C	-0.031956	-0.421302	1.197350
C101	C	-0.501317	-0.949602	1.027278
C102	C	-0.001317	-0.449602	1.527278
C103	C	-0.504647	-0.946518	1.100804
C104	C	-0.004647	-0.446518	1.600804
C105	C	-0.402498	-1.040987	1.100259
C106	C	0.097502	-0.540987	1.600259
C107	C	-0.399174	-1.044074	1.026737
C108	C	0.100826	-0.544074	1.526737
C109	C	-0.448580	-0.998378	0.990250
C110	C	0.051420	-0.498378	1.490250
N111	N	-0.489283	-0.960747	0.882516
N112	N	0.010717	-0.460747	1.382516
N113	N	-0.445171	-1.001535	0.915099
N114	N	0.054829	-0.501535	1.415099
H115	H	-0.952260	-1.042052	0.342319
H116	H	-0.452260	-0.542052	0.842319
F117	F	-0.992488	-0.908044	0.465809
F118	F	-0.492488	-0.408044	0.965809
F119	F	-0.568974	-0.714514	0.484836
F120	F	-0.068974	-0.214514	0.984836
F121	F	-0.561467	-0.563367	0.478472
F122	F	-0.061467	-0.063367	0.978472
H123	H	-0.356231	-1.083794	0.996590
H124	H	0.143769	-0.583794	1.496590
H125	H	-0.386870	-1.055495	0.666662
H126	H	0.113130	-0.555495	1.166662
H127	H	-0.587832	-0.373781	0.500887
H128	H	-0.087832	0.126219	1.000887
H129	H	-0.547595	-0.906796	1.130954
H130	H	-0.047595	-0.406796	1.630954
H131	H	-0.581239	-0.240934	0.495289
H132	H	-0.081239	0.259066	0.995289
H133	H	-0.380104	-0.256414	0.324285
H134	H	0.119896	0.243586	0.824285
H135	H	-0.578226	-0.878496	0.801029
H136	H	-0.078226	-0.378496	1.301029
F137	F	-0.373285	-0.399472	0.318486
F138	F	0.126715	0.100528	0.818486
F139	F	-0.332621	-0.580970	0.283898
F140	F	0.167379	-0.080970	0.783898
F141	F	-0.340119	-0.732127	0.290264
F142	F	0.159881	-0.232127	0.790264
H143	H	-0.392910	-1.049888	0.800037
H144	H	0.107090	-0.549888	1.300037
F145	F	-0.349919	-1.089614	1.139097
F146	F	0.150081	-0.589614	1.639097
F147	F	-0.553899	-0.900968	0.988455
F148	F	-0.053899	-0.400968	1.488455
F149	F	-0.584539	-0.872673	0.658517
F150	F	-0.084539	-0.372673	1.158517
