data_functionalizedCrystal
_audit_creation_method	'MofGen! by Chris Wilmer'
_symmetry_space_group_name_H-M	'P1'
_symmetry_Int_Tables_number	1
_symmetry_cell_setting	triclinic
loop_
_symmetry_equiv_pos_as_xyz
  x,y,z
_cell_length_a	19.805407
_cell_length_b	12.645330
_cell_length_c	19.805399
_cell_angle_alpha	89.974737
_cell_angle_beta	89.983114
_cell_angle_gamma	90.012646
loop_
_atom_site_label
_atom_site_type_symbol
_atom_site_fract_x
_atom_site_fract_y
_atom_site_fract_z
Zn1	Zn	1.034782	-0.422049	-0.382737
Zn2	Zn	1.034730	-0.599332	-0.269556
Zn3	Zn	0.921602	-0.422083	-0.269562
Zn4	Zn	0.921588	-0.599271	-0.382703
O5	O	0.978176	-0.510684	-0.326140
O6	O	1.129492	-0.445577	-0.367735
O7	O	1.019707	-0.575859	-0.174840
O8	O	0.936644	-0.273731	-0.284591
O9	O	1.129453	-0.575826	-0.284582
O10	O	1.019797	-0.273706	-0.367741
O11	O	0.936593	-0.445635	-0.174844
O12	O	0.826884	-0.445576	-0.284558
O13	O	0.936619	-0.575723	-0.477424
O14	O	0.826873	-0.575755	-0.367683
O15	O	1.019783	-0.445519	-0.477449
O16	O	1.019693	-0.747671	-0.284549
O17	O	0.936568	-0.747626	-0.367677
C18	C	0.802320	-0.510663	-0.326118
C19	C	0.727088	-0.510680	-0.326124
C20	C	0.978142	-0.786113	-0.326124
C21	C	0.978189	-0.903943	-0.326139
C22	C	0.691756	-0.578567	-0.369337
C23	C	0.621067	-0.578569	-0.369347
C24	C	0.585712	-0.510689	-0.326140
C25	C	0.621049	-0.442795	-0.282925
C26	C	0.691736	-0.442788	-0.282919
C27	C	0.335976	-0.442818	-0.282947
C28	C	0.265284	-0.442832	-0.282955
C29	C	0.265307	-0.578598	-0.369375
C30	C	0.335994	-0.578592	-0.369369
C31	C	0.371325	-0.510695	-0.326157
C32	C	0.447973	-0.510692	-0.326148
C33	C	0.509065	-0.510696	-0.326145
C34	C	1.030399	-1.071491	-0.273737
C35	C	1.030569	-0.948931	-0.273865
C36	C	0.997527	-0.948329	-0.397486
C37	C	0.997941	-1.070927	-0.397208
C38	C	0.906621	-1.071270	-0.307898
C39	C	0.906964	-0.948665	-0.306298
C40	C	1.154718	-0.510705	-0.326162
C41	C	1.229950	-0.510714	-0.326171
C42	C	0.978205	-0.510610	-0.502682
C43	C	0.978218	-0.510579	-0.577914
C44	C	0.978228	-0.234178	-0.326170
C45	C	0.978250	-0.116348	-0.326184
C46	C	0.934953	-0.442765	-0.613260
C47	C	0.934962	-0.442744	-0.683949
C48	C	0.978241	-0.510533	-0.719290
C49	C	1.021508	-0.578354	-0.683939
C50	C	1.021494	-0.578380	-0.613252
C51	C	1.021561	-0.578255	-0.969013
C52	C	1.021573	-0.578223	-1.039705
C53	C	0.935029	-0.442620	-1.039709
C54	C	0.935016	-0.442645	-0.969022
C55	C	0.978280	-0.510470	-0.933678
C56	C	0.978268	-0.510493	-0.857029
C57	C	0.978256	-0.510505	-0.795937
C58	C	0.978185	-0.510680	-0.150284
C59	C	0.978303	-0.510413	-0.075052
H60	H	0.592303	-0.633850	-0.404534
H61	H	0.892383	-0.919666	-0.253792
C62	C	0.887965	-0.368996	-0.722202
C63	C	0.850077	-0.309609	-0.676122
C64	C	0.806781	-0.241649	-0.711336
H65	H	0.858408	-0.409411	-0.749770
H66	H	0.913858	-0.322746	-0.749772
H67	H	0.824186	-0.355853	-0.648563
H68	H	0.879617	-0.269172	-0.648553
H69	H	0.832674	-0.195399	-0.738906
H70	H	0.777229	-0.282073	-0.738903
H71	H	0.781074	-0.201341	-0.680076
C72	C	0.887938	-0.369049	-1.077998
C73	C	0.820964	-0.392108	-1.060774
C74	C	0.777568	-0.324347	-1.096023
H75	H	0.894047	-0.378673	-1.125168
H76	H	0.897817	-0.297810	-1.066409
H77	H	0.811087	-0.463330	-1.072367
H78	H	0.814833	-0.382478	-1.013609
H79	H	0.787448	-0.253108	-1.084434
H80	H	0.783683	-0.333977	-1.143192
H81	H	0.732122	-0.339977	-1.084337
C82	C	0.888099	-0.369089	-0.930530
C83	C	0.897359	-0.383608	-0.861060
C84	C	0.854155	-0.315859	-0.825581
H85	H	0.842594	-0.384529	-0.942026
H86	H	0.898025	-0.297833	-0.942084
H87	H	0.887429	-0.454846	-0.849510
H88	H	0.942855	-0.368159	-0.849543
H89	H	0.864080	-0.244604	-0.837136
H90	H	0.808652	-0.331305	-0.837083
H91	H	0.860437	-0.325694	-0.778442
C92	C	0.374412	-0.369280	-0.235987
C93	C	0.414985	-0.429205	-0.192544
C94	C	0.450409	-0.361495	-0.149277
H95	H	0.343304	-0.328838	-0.210192
H96	H	0.402039	-0.323150	-0.261906
H97	H	0.387360	-0.475317	-0.166627
H98	H	0.446105	-0.469645	-0.218320
H99	H	0.478037	-0.315364	-0.175196
H100	H	0.419297	-0.321056	-0.123487
H101	H	0.477947	-0.402143	-0.119800
C102	C	0.227018	-0.369007	-0.236019
C103	C	0.273088	-0.309521	-0.198188
C104	C	0.237863	-0.241498	-0.154954
H105	H	0.199426	-0.409382	-0.206424
H106	H	0.199471	-0.322823	-0.261954
H107	H	0.300624	-0.355699	-0.172256
H108	H	0.300681	-0.269124	-0.227766
H109	H	0.210315	-0.195314	-0.180888
H110	H	0.210272	-0.281882	-0.125363
H111	H	0.269116	-0.201122	-0.129285
C112	C	0.852306	-0.907722	-0.353391
C113	C	0.804276	-0.851422	-0.316005
C114	C	0.753921	-0.813683	-0.359371
H115	H	0.831061	-0.965625	-0.375334
H116	H	0.871977	-0.862389	-0.386221
H117	H	0.784607	-0.896753	-0.283186
H118	H	0.825500	-0.793505	-0.294063
H119	H	0.773592	-0.768349	-0.392202
H120	H	0.732681	-0.871591	-0.381312
H121	H	0.721330	-0.775471	-0.334012
H122	H	1.056782	-0.633494	-0.940244
H123	H	0.867766	-1.100280	-0.346097
H124	H	1.056731	-0.633593	-0.584475
H125	H	1.056817	-0.633429	-1.068478
C126	C	1.068579	-0.651780	-0.722344
C127	C	1.111994	-0.591745	-0.762924
C128	C	1.155373	-0.659347	-0.798304
H129	H	1.042762	-0.697975	-0.749967
H130	H	1.094384	-0.692155	-0.691190
H131	H	1.086192	-0.551388	-0.794075
H132	H	1.137826	-0.545552	-0.735319
H133	H	1.181178	-0.699722	-0.767150
H134	H	1.129550	-0.705539	-0.825923
H135	H	1.184839	-0.618623	-0.825837
C136	C	0.730260	-0.652226	-0.416176
C137	C	0.799728	-0.637714	-0.406912
C138	C	0.835217	-0.705559	-0.450045
H139	H	0.718775	-0.636869	-0.461698
H140	H	0.718703	-0.723458	-0.406187
H141	H	0.811280	-0.566499	-0.416906
H142	H	0.811233	-0.653078	-0.361399
H143	H	0.823659	-0.776791	-0.440056
H144	H	0.823726	-0.690197	-0.495564
H145	H	0.882354	-0.695729	-0.443761
C146	C	0.374257	-0.652330	-0.416355
C147	C	0.328184	-0.711764	-0.454216
C148	C	0.363406	-0.779690	-0.497515
H149	H	0.401821	-0.698559	-0.390487
H150	H	0.401832	-0.611855	-0.445924
H151	H	0.300621	-0.752237	-0.424651
H152	H	0.300618	-0.665563	-0.480098
H153	H	0.390981	-0.739214	-0.527084
H154	H	0.390969	-0.825912	-0.471642
H155	H	0.332151	-0.820017	-0.523213
C156	C	1.014417	-0.908704	-0.203380
C157	C	1.014567	-0.797982	-0.203537
C158	C	0.999685	-0.760895	-0.138617
H159	H	1.047481	-0.933751	-0.172543
H160	H	0.971146	-0.933595	-0.190077
H161	H	1.057833	-0.773102	-0.216831
H162	H	0.981504	-0.772907	-0.234361
H163	H	0.956414	-0.785785	-0.125315
H164	H	1.032750	-0.785949	-0.107785
H165	H	0.999779	-0.685767	-0.138717
H166	H	0.236532	-0.633880	-0.404563
C167	C	0.582750	-0.369155	-0.235905
C168	C	0.599930	-0.392080	-0.168910
C169	C	0.564670	-0.324258	-0.125576
H170	H	0.535581	-0.378817	-0.242005
H171	H	0.594358	-0.297928	-0.245849
H172	H	0.588317	-0.463290	-0.158969
H173	H	0.647093	-0.382412	-0.162789
H174	H	0.576278	-0.253031	-0.135520
H175	H	0.517503	-0.333925	-0.131681
H176	H	0.576326	-0.339796	-0.080115
H177	H	1.083168	-1.102222	-0.285697
C178	C	1.014384	-1.111044	-0.203043
C179	C	0.957373	-1.176434	-0.205311
C180	C	0.942601	-1.212900	-0.140200
H181	H	1.005681	-1.052511	-0.174287
H182	H	1.051742	-1.149977	-0.186096
H183	H	0.920024	-1.137502	-0.222249
H184	H	0.966061	-1.234983	-0.234054
H185	H	0.979958	-1.251833	-0.123253
H186	H	0.933900	-1.154361	-0.111449
H187	H	0.903922	-1.257279	-0.141731
C188	C	0.730133	-0.368953	-0.236112
C189	C	0.770722	-0.301060	-0.274508
C190	C	0.806094	-0.233014	-0.231413
H191	H	0.757749	-0.409318	-0.206560
H192	H	0.698974	-0.328467	-0.210391
H193	H	0.801877	-0.341541	-0.300217
H194	H	0.743123	-0.260672	-0.304058
H195	H	0.774935	-0.192528	-0.205693
H196	H	0.833706	-0.273388	-0.201863
H197	H	0.833633	-0.186934	-0.257459
H198	H	1.083623	-0.919524	-0.285960
H199	H	1.050299	-1.099440	-0.412697
H200	H	0.961622	-1.100596	-0.437631
H201	H	0.960700	-0.919185	-0.437610
H202	H	1.049293	-0.917542	-0.413233
C203	C	0.887924	-0.369336	-0.574805
C204	C	0.844535	-0.429370	-0.534198
C205	C	0.801205	-0.361765	-0.498759
H206	H	0.862092	-0.328923	-0.605904
H207	H	0.913800	-0.323175	-0.547200
H208	H	0.818661	-0.475513	-0.561801
H209	H	0.870348	-0.469781	-0.503087
H210	H	0.827081	-0.315604	-0.471154
H211	H	0.775378	-0.321356	-0.529863
H212	H	0.771765	-0.402488	-0.471199
H213	H	0.889034	-1.102277	-0.256778
