data_functionalizedCrystal
_audit_creation_method	'MofGen! by Chris Wilmer'
_symmetry_space_group_name_H-M	'P1'
_symmetry_Int_Tables_number	1
_symmetry_cell_setting	triclinic
loop_
_symmetry_equiv_pos_as_xyz
  x,y,z
_cell_length_a	10.967971
_cell_length_b	11.026607
_cell_length_c	9.482944
_cell_angle_alpha	81.873049
_cell_angle_beta	112.343712
_cell_angle_gamma	83.619813
loop_
_atom_site_label
_atom_site_type_symbol
_atom_site_fract_x
_atom_site_fract_y
_atom_site_fract_z
O1	O	1.794356	-0.250944	0.570388
O2	O	1.418144	-0.253978	0.476147
O3	O	1.575069	-0.074458	0.515451
O4	O	1.637431	-0.430465	0.531084
O5	O	1.530546	-0.038790	0.262505
O6	O	1.373621	-0.218310	0.223201
O7	O	1.749833	-0.215276	0.317442
Cu8	Cu	1.557661	-0.213536	0.247225
Cu9	Cu	1.610315	-0.255718	0.546363
O10	O	1.592908	-0.394796	0.278137
C11	C	1.346971	-0.233229	0.337422
C12	C	1.201225	-0.224527	0.300913
C13	C	1.541303	-0.010915	0.386098
C14	C	1.507009	0.125282	0.377513
C15	C	1.821007	-0.236026	0.456170
C16	C	1.966754	-0.244729	0.492689
N17	N	1.520637	-0.183867	0.036830
C18	C	2.008674	-0.230132	0.377939
C19	C	2.159311	-0.239127	0.415680
C20	C	1.626674	-0.458339	0.407494
C21	C	1.660970	-0.594538	0.416089
C22	C	1.601704	0.194989	0.401236
C23	C	1.566262	0.335757	0.392363
C24	C	1.599385	-0.246966	-0.015642
C25	C	1.568588	-0.222270	-0.190774
N26	N	1.647348	-0.285378	0.756761
H27	H	1.933044	-0.210983	0.251756
H28	H	1.689608	-0.319266	0.069092
H29	H	2.234939	-0.258291	0.541872
O30	O	1.449091	-0.126474	-0.303010
H31	H	1.459782	-0.033962	-0.271207
H32	H	1.430421	-0.111559	-0.047902
H33	H	2.125600	-0.205377	0.174721
H34	H	1.399701	0.169816	0.350642
O35	O	1.743855	0.136016	0.436843
H36	H	1.749384	0.034707	0.438215
H37	H	1.737576	-0.357685	-0.158512
H38	H	1.458946	0.380286	0.365490
O39	O	2.066917	-0.270088	0.659842
H40	H	2.169513	-0.273157	0.663254
H41	H	1.768308	0.360917	0.443086
