data_functionalizedCrystal
_audit_creation_method	'MofGen! by Chris Wilmer'
_symmetry_space_group_name_H-M	'P1'
_symmetry_Int_Tables_number	1
_symmetry_cell_setting	triclinic
loop_
_symmetry_equiv_pos_as_xyz
  x,y,z
_cell_length_a	21.395364
_cell_length_b	18.050590
_cell_length_c	21.395355
_cell_angle_alpha	89.981964
_cell_angle_beta	89.975448
_cell_angle_gamma	90.033504
loop_
_atom_site_label
_atom_site_type_symbol
_atom_site_fract_x
_atom_site_fract_y
_atom_site_fract_z
Zn1	Zn	0.957912	-0.295449	-0.354264
Zn2	Zn	1.291245	0.037884	-0.020930
Zn3	Zn	1.624579	0.371218	0.312403
Zn4	Zn	0.957837	-0.419621	-0.249487
Zn5	Zn	1.291170	-0.086288	0.083846
Zn6	Zn	1.624503	0.247046	0.417180
Zn7	Zn	0.853127	-0.295482	-0.249500
Zn8	Zn	1.186460	0.037852	0.083833
Zn9	Zn	1.519794	0.371185	0.417166
Zn10	Zn	0.853118	-0.419634	-0.354227
Zn11	Zn	1.186452	-0.086301	-0.020894
Zn12	Zn	1.519785	0.247032	0.312439
O13	O	0.905499	-0.357547	-0.301870
O14	O	1.238832	-0.024213	0.031464
O15	O	1.572165	0.309120	0.364797
O16	O	1.045580	-0.311902	-0.340374
O17	O	1.378913	0.021432	-0.007041
O18	O	1.712247	0.354765	0.326292
O19	O	0.943919	-0.403162	-0.161811
O20	O	1.277252	-0.069828	0.171522
O21	O	1.610586	0.263505	0.504856
O22	O	0.867062	-0.191553	-0.263418
O23	O	1.200395	0.141781	0.069915
O24	O	1.533729	0.475114	0.403248
O25	O	1.045525	-0.403130	-0.263396
O26	O	1.378858	-0.069797	0.069938
O27	O	1.712191	0.263537	0.403271
O28	O	0.944047	-0.191529	-0.340387
O29	O	1.277381	0.141804	-0.007054
O30	O	1.610714	0.475138	0.326279
O31	O	0.866989	-0.311957	-0.161821
O32	O	1.200322	0.021376	0.171513
O33	O	1.533656	0.354710	0.504846
O34	O	0.765448	-0.311970	-0.263383
O35	O	1.098781	0.021363	0.069950
O36	O	1.432115	0.354697	0.403284
O37	O	0.867047	-0.403153	-0.441910
O38	O	1.200381	-0.069819	-0.108577
O39	O	1.533714	0.263514	0.224757
O40	O	0.765442	-0.403184	-0.340325
O41	O	1.098775	-0.069851	-0.006992
O42	O	1.432108	0.263482	0.326341
O43	O	0.944039	-0.311915	-0.441937
O44	O	1.277372	0.021419	-0.108603
O45	O	1.610706	0.354752	0.224730
O46	O	0.943911	-0.523547	-0.263360
O47	O	1.277244	-0.190214	0.069973
O48	O	1.610577	0.143119	0.403306
O49	O	0.866974	-0.523557	-0.340312
O50	O	1.200308	-0.190224	-0.006979
O51	O	1.533641	0.143110	0.326354
C52	C	0.742711	-0.357583	-0.301852
C53	C	1.076044	-0.024249	0.031481
C54	C	1.409378	0.309084	0.364815
C55	C	0.673070	-0.357616	-0.301859
C56	C	1.006403	-0.024283	0.031474
C57	C	1.339736	0.309051	0.364807
C58	C	0.640408	-0.310191	-0.342004
C59	C	0.973741	0.023142	-0.008671
C60	C	1.307074	0.356476	0.324663
C61	C	0.574972	-0.310171	-0.342007
C62	C	0.908306	0.023162	-0.008673
C63	C	1.241639	0.356495	0.324660
C64	C	0.542201	-0.357590	-0.301871
C65	C	0.875535	-0.024256	0.031463
C66	C	1.208868	0.309077	0.364796
C67	C	0.574871	-0.405018	-0.261718
C68	C	0.908205	-0.071685	0.071615
C69	C	1.241538	0.261649	0.404949
C70	C	0.640305	-0.405031	-0.261712
C71	C	0.973639	-0.071698	0.071621
C72	C	1.306972	0.261636	0.404954
C73	C	0.438489	-0.424470	-0.296834
C74	C	0.771822	-0.091137	0.036500
C75	C	1.105156	0.242197	0.369833
C76	C	0.373056	-0.424458	-0.296844
C77	C	0.706389	-0.091125	0.036490
C78	C	1.039723	0.242209	0.369823
C79	C	0.340381	-0.357549	-0.301885
C80	C	0.673714	-0.024216	0.031449
C81	C	1.007047	0.309118	0.364782
C82	C	0.373146	-0.290650	-0.306929
C83	C	0.706480	0.042684	0.026405
C84	C	1.039813	0.376017	0.359738
C85	C	0.438580	-0.290663	-0.306923
C86	C	0.771914	0.042671	0.026410
C87	C	1.105247	0.376004	0.359744
C88	C	0.471249	-0.357580	-0.301872
C89	C	0.804582	-0.024247	0.031461
C90	C	1.137916	0.309086	0.364795
C91	C	0.236766	-0.310099	-0.342034
C92	C	0.570100	0.023235	-0.008701
C93	C	0.903433	0.356568	0.324632
C94	C	0.171330	-0.310078	-0.342032
C95	C	0.504663	0.023256	-0.008699
C96	C	0.837996	0.356589	0.324634
C97	C	0.171230	-0.404931	-0.261747
C98	C	0.504563	-0.071598	0.071586
C99	C	0.837896	0.261736	0.404920
C100	C	0.236665	-0.404945	-0.261746
C101	C	0.569998	-0.071612	0.071588
C102	C	0.903332	0.261721	0.404921
C103	C	0.269429	-0.357530	-0.301893
C104	C	0.602763	-0.024197	0.031441
C105	C	0.936096	0.309137	0.364774
C106	C	0.905450	-0.550499	-0.301845
C107	C	1.238784	-0.217165	0.031489
C108	C	1.572117	0.116168	0.364822
C109	C	0.905487	-0.633044	-0.301855
C110	C	1.238820	-0.299711	0.031479
C111	C	1.572154	0.033622	0.364812
C112	C	0.947412	-0.832463	-0.260067
C113	C	1.280745	-0.499129	0.073267
C114	C	1.614079	-0.165796	0.406600
C115	C	0.962722	-0.881803	-0.317251
C116	C	1.296055	-0.548470	0.016083
C117	C	1.629389	-0.215136	0.349416
C118	C	0.905523	-0.784175	-0.301880
C119	C	1.238856	-0.450841	0.031454
C120	C	1.572189	-0.117508	0.364787
C121	C	0.890277	-0.881916	-0.244722
C122	C	1.223610	-0.548583	0.088612
C123	C	1.556943	-0.215250	0.421945
C124	C	0.905558	-0.930160	-0.301899
C125	C	1.238892	-0.596827	0.031434
C126	C	1.572225	-0.263493	0.364768
C127	C	0.920862	-0.832428	-0.359094
C128	C	1.254195	-0.499094	-0.025760
C129	C	1.587529	-0.165761	0.307573
C130	C	0.848390	-0.832537	-0.286526
C131	C	1.181723	-0.499203	0.046807
C132	C	1.515057	-0.165870	0.380140
C133	C	0.863678	-0.881855	-0.343750
C134	C	1.197012	-0.548521	-0.010416
C135	C	1.530345	-0.215188	0.322917
C136	C	0.905504	-0.700076	-0.301868
C137	C	1.238837	-0.366743	0.031465
C138	C	1.572171	-0.033410	0.364799
C139	C	0.905577	-1.014256	-0.301917
C140	C	1.238910	-0.680923	0.031416
C141	C	1.572244	-0.347590	0.364749
C142	C	1.068922	-0.357511	-0.301888
C143	C	1.402255	-0.024177	0.031446
C144	C	1.735589	0.309156	0.364779
C145	C	1.138563	-0.357496	-0.301895
C146	C	1.471896	-0.024162	0.031438
C147	C	1.805230	0.309171	0.364771
C148	C	0.905551	-0.357531	-0.465293
C149	C	1.238884	-0.024198	-0.131960
C150	C	1.572217	0.309135	0.201374
C151	C	0.905573	-0.357525	-0.534934
C152	C	1.238906	-0.024192	-0.201601
C153	C	1.572239	0.309142	0.131733
C154	C	0.905564	-0.163841	-0.301908
C155	C	1.238897	0.169492	0.031425
C156	C	1.572231	0.502826	0.364758
C157	C	0.905592	-0.081295	-0.301925
C158	C	1.238925	0.252038	0.031408
C159	C	1.572259	0.585372	0.364742
C160	C	0.945660	-0.310015	-0.567662
C161	C	1.278994	0.023318	-0.234329
C162	C	1.612327	0.356651	0.099004
C163	C	0.945660	-0.309983	-0.633098
C164	C	1.278993	0.023350	-0.299764
C165	C	1.612326	0.356683	0.033569
C166	C	0.905578	-0.357474	-0.665803
C167	C	1.238911	-0.024141	-0.332469
C168	C	1.572244	0.309192	0.000864
C169	C	0.865482	-0.404988	-0.633067
C170	C	1.198816	-0.071654	-0.299733
C171	C	1.532149	0.261679	0.033600
C172	C	0.865480	-0.405013	-0.567632
C173	C	1.198813	-0.071680	-0.234299
C174	C	1.532146	0.261654	0.099034
C175	C	0.900614	-0.424345	-0.769469
C176	C	1.233947	-0.091012	-0.436135
C177	C	1.567280	0.242322	-0.102802
C178	C	0.900621	-0.424321	-0.834902
C179	C	1.233954	-0.090988	-0.501568
C180	C	1.567287	0.242346	-0.168235
C181	C	0.905582	-0.357396	-0.867623
C182	C	1.238915	-0.024063	-0.534290
C183	C	1.572248	0.309271	-0.200957
C184	C	0.910549	-0.290493	-0.834904
C185	C	1.243882	0.042840	-0.501571
C186	C	1.577216	0.376174	-0.168238
C187	C	0.910546	-0.290518	-0.769470
C188	C	1.243880	0.042815	-0.436137
C189	C	1.577213	0.376148	-0.102803
C190	C	0.905576	-0.357452	-0.736755
C191	C	1.238909	-0.024119	-0.403422
C192	C	1.572242	0.309215	-0.070088
C193	C	0.945670	-0.309848	-0.971304
C194	C	1.279004	0.023486	-0.637971
C195	C	1.612337	0.356819	-0.304637
C196	C	0.945665	-0.309814	-1.036741
C197	C	1.278999	0.023519	-0.703407
C198	C	1.612332	0.356852	-0.370074
C199	C	0.865491	-0.404825	-1.036708
C200	C	1.198824	-0.071492	-0.703375
C201	C	1.532158	0.261841	-0.370042
C202	C	0.865493	-0.404852	-0.971273
C203	C	1.198826	-0.071518	-0.637940
C204	C	1.532160	0.261815	-0.304606
C205	C	0.905586	-0.357364	-0.938575
C206	C	1.238919	-0.024031	-0.605241
C207	C	1.572253	0.309303	-0.271908
C208	C	0.905483	-0.357508	-0.139082
C209	C	1.238816	-0.024175	0.194251
C210	C	1.572150	0.309159	0.527585
C211	C	0.905582	-0.357305	-0.069441
C212	C	1.238915	-0.023972	0.263892
C213	C	1.572249	0.309362	0.597226
H214	H	0.465256	-0.236191	-0.311028
H215	H	0.798589	0.097142	0.022305
H216	H	1.131922	0.430476	0.355639
H217	H	0.828269	-0.903404	-0.379159
H218	H	1.161602	-0.570071	-0.045825
H219	H	1.494936	-0.236738	0.287508
F220	F	0.822822	-0.455529	-0.667874
F221	F	1.156156	-0.122195	-0.334541
F222	F	1.489489	0.211138	-0.001208
H223	H	0.914590	-0.235996	-0.861545
H224	H	1.247923	0.097337	-0.528212
H225	H	1.581256	0.430670	-0.194878
F226	F	0.785233	-0.804230	-0.269516
F227	F	1.118567	-0.470896	0.063817
F228	F	1.451900	-0.137563	0.397150
H229	H	0.978308	-0.271122	-1.063387
H230	H	1.311642	0.062211	-0.730053
H231	H	1.644975	0.395545	-0.396720
F232	F	0.338376	-0.219434	-0.312293
F233	F	0.671710	0.113899	0.021040
F234	F	1.005043	0.447233	0.354373
H235	H	0.346383	-0.478932	-0.292740
H236	H	0.679717	-0.145598	0.040594
H237	H	1.013050	0.187735	0.373927
H238	H	0.877367	-0.903654	-0.196376
H239	H	1.210700	-0.570321	0.136958
H240	H	1.544033	-0.236987	0.470291
F241	F	0.988338	-0.259305	-0.936502
F242	F	1.321671	0.074029	-0.603169
F243	F	1.655004	0.407362	-0.269835
H244	H	0.667080	-0.271581	-0.374694
H245	H	1.000414	0.061752	-0.041361
H246	H	1.333747	0.395085	0.291972
F247	F	0.988329	-0.259471	-0.532866
F248	F	1.321662	0.073862	-0.199533
F249	F	1.654995	0.407195	0.133801
F250	F	0.822828	-0.455364	-1.071511
F251	F	1.156161	-0.122030	-0.738178
F252	F	1.489494	0.211303	-0.404844
F253	F	0.988318	-0.259403	-0.667936
F254	F	1.321651	0.073931	-0.334603
F255	F	1.654985	0.407264	-0.001270
F256	F	0.271639	-0.259632	-0.384758
F257	F	0.604972	0.073702	-0.051424
F258	F	0.938305	0.407035	0.281909
H259	H	0.548374	-0.271549	-0.374696
H260	H	0.881707	0.061785	-0.041363
H261	H	1.215040	0.395118	0.291970
H262	H	0.465088	-0.478959	-0.292728
H263	H	0.798421	-0.145626	0.040605
H264	H	1.131755	0.187707	0.373939
F265	F	0.822811	-0.455581	-0.532800
F266	F	1.156144	-0.122248	-0.199466
F267	F	1.489478	0.211085	0.133867
H268	H	0.832853	-0.443544	-0.944625
H269	H	1.166186	-0.110211	-0.611292
H270	H	1.499520	0.223123	-0.277959
H271	H	1.011053	-0.903446	-0.330249
H272	H	1.344387	-0.570113	0.003084
H273	H	1.677720	-0.236779	0.336418
H274	H	0.666898	-0.443651	-0.229021
H275	H	1.000232	-0.110318	0.104313
H276	H	1.333565	0.223015	0.437646
F277	F	0.915830	-0.219317	-0.734650
F278	F	1.249163	0.114016	-0.401317
F279	F	1.582496	0.447349	-0.067984
F280	F	0.993728	-0.804115	-0.213895
F281	F	1.327061	-0.470781	0.119438
F282	F	1.660394	-0.137448	0.452771
H283	H	0.144737	-0.271454	-0.374722
H284	H	0.478071	0.061879	-0.041389
H285	H	0.811404	0.395213	0.291945
F286	F	0.895339	-0.495525	-0.869718
F287	F	1.228673	-0.162191	-0.536384
F288	F	1.562006	0.171142	-0.203051
H289	H	0.144548	-0.443540	-0.229067
H290	H	0.477882	-0.110206	0.104266
H291	H	0.811215	0.223127	0.437599
F292	F	0.271428	-0.455420	-0.219015
F293	F	0.604761	-0.122086	0.114318
F294	F	0.938094	0.211247	0.447651
F295	F	0.937817	-0.804138	-0.422302
F296	F	1.271150	-0.470805	-0.088969
F297	F	1.604483	-0.137471	0.244364
H298	H	0.548185	-0.443626	-0.229039
H299	H	0.881518	-0.110292	0.104295
H300	H	1.214852	0.223041	0.437628
H301	H	0.896406	-0.478830	-0.742832
H302	H	1.229740	-0.145496	-0.409499
H303	H	1.563073	0.187837	-0.076165
