data_functionalizedCrystal
_audit_creation_method	'MofGen! by Chris Wilmer'
_symmetry_space_group_name_H-M	'P1'
_symmetry_Int_Tables_number	1
_symmetry_cell_setting	triclinic
loop_
_symmetry_equiv_pos_as_xyz
  x,y,z
_cell_length_a	17.699083
_cell_length_b	14.853569
_cell_length_c	16.776229
_cell_angle_alpha	89.992182
_cell_angle_beta	90.000683
_cell_angle_gamma	96.540710
loop_
_atom_site_label
_atom_site_type_symbol
_atom_site_fract_x
_atom_site_fract_y
_atom_site_fract_z
O1	O	-1.004375	0.114008	-0.066171
O2	O	-0.784035	0.128841	-0.066199
O3	O	-0.900090	-0.009827	-0.066176
O4	O	-0.888320	0.252676	-0.066193
O5	O	-0.900075	-0.009835	0.066400
O6	O	-0.784020	0.128832	0.066378
O7	O	-1.004359	0.114000	0.066406
Zn8	Zn	-0.894187	0.121415	0.087441
Zn9	Zn	-0.894207	0.121426	-0.087234
O10	O	-0.888305	0.252667	0.066384
C11	C	-0.755829	0.128305	0.000086
C12	C	-0.671807	0.126711	0.000076
C13	C	-0.899549	-0.043418	0.000112
C14	C	-0.897950	-0.143496	0.000113
C15	C	-0.623397	0.208106	0.000070
C16	C	-0.544450	0.206602	0.000080
C17	C	-0.513914	0.123703	0.000089
C18	C	-0.562329	0.042301	0.000097
C19	C	-0.641275	0.043806	0.000093
C20	C	-0.243951	0.036232	0.000115
C21	C	-0.164999	0.034734	0.000116
C22	C	-0.147126	0.199028	0.000102
C23	C	-0.226071	0.200533	0.000098
C24	C	-0.274480	0.119132	0.000109
C25	C	-0.360083	0.120763	0.000100
C26	C	-0.428312	0.122070	0.000093
C27	C	-0.828261	-0.179616	0.000105
C28	C	-0.966137	-0.201413	0.000114
C29	C	-0.964637	-0.295441	0.000111
C30	C	-0.894948	-0.331561	0.000103
C31	C	-0.826759	-0.273653	0.000099
C32	C	-1.032826	-0.353357	0.000106
C33	C	-1.031329	-0.447392	0.000102
C34	C	-0.961638	-0.483513	0.000100
C35	C	-0.893446	-0.425598	0.000097
C36	C	-0.823757	-0.461718	0.000090
C37	C	-0.755564	-0.403805	0.000092
C38	C	-0.757069	-0.309774	0.000097
C39	C	-0.960134	-0.577544	0.000095
C40	C	-0.822255	-0.555755	0.000084
C41	C	-0.032566	0.114535	0.000117
C42	C	-0.116588	0.116130	0.000117
C43	C	-0.888846	0.286258	0.000093
C44	C	-0.890445	0.386336	0.000087
N45	N	-0.894179	0.121406	0.206652
N46	N	-0.894222	0.121427	-0.206445
C47	C	-0.945584	0.060029	0.248380
C48	C	-0.945588	0.060029	0.331832
C49	C	-0.894190	0.121410	0.373555
C50	C	-0.842780	0.182790	0.331823
C51	C	-0.842773	0.182785	0.248372
C52	C	-0.842807	0.182807	0.668370
C53	C	-0.842820	0.182809	0.751826
C54	C	-0.945622	0.060051	0.751830
C55	C	-0.945615	0.060046	0.668379
C56	C	-0.894203	0.121423	0.626653
C57	C	-0.894198	0.121422	0.536165
C58	C	-0.894198	0.121416	0.464042
H59	H	-0.648253	0.275612	0.000062
H60	H	-0.987445	0.010050	0.365805
Br61	Br	-1.052673	-0.656136	0.000079
H62	H	-1.089563	-0.323941	0.000162
Br63	Br	-0.735717	-0.101024	0.000115
Br64	Br	-0.123557	-0.077780	0.000127
H65	H	-0.505038	0.272882	0.000075
Br66	Br	-0.520888	-0.070207	0.000118
Br67	Br	-0.267509	0.313043	0.000077
Br68	Br	-0.309638	-0.074241	0.000133
H69	H	-0.987483	0.010072	0.785811
Br70	Br	-0.727672	-0.604767	0.000083
H71	H	-1.022875	-0.171998	0.000136
H72	H	-0.800947	0.232784	0.634403
H73	H	-1.086856	-0.494538	0.000101
Br74	Br	-0.660989	-0.452837	0.000069
Br75	Br	-1.015347	-0.023272	0.191763
H76	H	-0.680690	-0.022475	0.000097
Br77	Br	-1.015375	-0.023254	0.611756
H78	H	-0.701550	-0.262613	0.000098
H79	H	-0.800963	0.232794	0.785796
H80	H	-0.800927	0.232764	0.365799
Br81	Br	-0.773001	0.266081	0.191742
H82	H	-0.107701	0.265309	0.000096
