data_functionalizedCrystal
_audit_creation_method	'MofGen! by Chris Wilmer'
_symmetry_space_group_name_H-M	'P1'
_symmetry_Int_Tables_number	1
_symmetry_cell_setting	triclinic
loop_
_symmetry_equiv_pos_as_xyz
  x,y,z
_cell_length_a	12.759401
_cell_length_b	17.640280
_cell_length_c	12.759393
_cell_angle_alpha	78.769257
_cell_angle_beta	89.981708
_cell_angle_gamma	78.801088
loop_
_atom_site_label
_atom_site_type_symbol
_atom_site_fract_x
_atom_site_fract_y
_atom_site_fract_z
Zn1	Zn	1.690815	-0.314628	-0.509513
Zn2	Zn	1.726240	-0.446822	-0.298343
Zn3	Zn	1.515128	-0.314667	-0.333842
Zn4	Zn	1.550620	-0.446763	-0.474000
O5	O	1.620701	-0.380720	-0.403924
O6	O	1.842538	-0.332172	-0.481507
O7	O	1.698207	-0.429332	-0.156020
O8	O	1.508755	-0.204055	-0.386864
O9	O	1.868564	-0.429294	-0.326361
O10	O	1.637831	-0.204026	-0.515929
O11	O	1.543105	-0.332238	-0.182101
O12	O	1.372813	-0.332181	-0.352428
O13	O	1.569245	-0.429195	-0.625743
O14	O	1.398889	-0.429232	-0.455402
O15	O	1.672246	-0.332115	-0.651834
O16	O	1.732622	-0.557420	-0.291925
O17	O	1.603595	-0.557377	-0.420980
C18	C	1.347730	-0.380705	-0.403914
C19	C	1.230956	-0.380718	-0.403929
C20	C	1.189721	-0.431333	-0.457415
C21	C	1.080000	-0.431343	-0.457424
C22	C	1.052758	-0.330121	-0.350453
C23	C	1.162476	-0.330107	-0.350451
C24	C	1.205449	-0.489776	-0.519170
C25	C	1.095727	-0.489786	-0.519179
C26	C	1.675832	-0.586078	-0.348770
C27	C	1.699514	-0.673931	-0.325210
C28	C	1.441226	-0.962895	-0.583291
C29	C	1.463480	-1.045446	-0.561119
C30	C	1.597920	-1.045425	-0.426871
C31	C	1.575680	-0.962872	-0.449035
C32	C	1.497331	-0.921613	-0.527245
C33	C	1.631785	-0.921591	-0.392989
C34	C	1.609543	-0.839045	-0.415148
C35	C	1.531196	-0.797781	-0.493353
C36	C	1.475089	-0.839068	-0.549404
C37	C	1.710129	-0.962851	-0.314774
C38	C	1.766234	-0.921570	-0.258728
C39	C	1.743998	-0.839023	-0.280892
C40	C	1.665650	-0.797758	-0.359096
C41	C	1.800105	-0.797736	-0.224840
C42	C	1.777863	-0.715190	-0.246999
C43	C	1.643408	-0.715212	-0.381255
C44	C	1.894738	-0.380735	-0.403935
C45	C	2.011516	-0.380741	-0.403940
C46	C	1.620753	-0.380644	-0.677978
C47	C	1.620775	-0.380612	-0.794764
C48	C	1.565383	-0.174560	-0.459317
C49	C	1.541809	-0.086707	-0.482923
C50	C	1.701535	-0.431149	-0.836048
C51	C	1.701558	-0.431116	-0.945781
C52	C	1.540051	-0.330005	-0.972937
C53	C	1.540033	-0.330035	-0.863206
C54	C	1.794778	-0.489527	-0.820370
C55	C	1.794800	-0.489493	-0.930103
C56	C	1.620694	-0.380738	-0.130952
C57	C	1.620815	-0.380548	-0.014227
H58	H	1.230869	-0.473452	-0.604959
C59	C	1.272508	-0.568286	-0.458541
H60	H	1.226448	-0.603260	-0.431548
H61	H	1.311853	-0.558835	-0.400843
H62	H	1.320586	-0.591208	-0.505840
H63	H	1.871746	-0.473147	-0.795002
C64	C	1.506723	-0.706982	-0.517734
H65	H	1.452022	-0.688324	-0.572333
H66	H	1.569465	-0.688258	-0.540988
H67	H	1.483564	-0.688347	-0.454919
C68	C	1.787543	-0.572171	-0.948124
H69	H	1.784531	-0.606194	-0.881072
H70	H	1.848696	-0.592505	-0.984023
H71	H	1.724904	-0.568819	-0.990383
H72	H	1.474314	-0.288826	-1.028676
C73	C	1.891285	-0.459876	-0.984049
H74	H	1.934241	-0.446715	-0.932139
H75	H	1.866651	-0.414530	-1.038136
H76	H	1.932499	-0.500123	-1.015141
C77	C	1.451207	-0.274436	-0.817799
H78	H	1.403121	-0.244316	-0.874278
H79	H	1.482159	-0.240016	-0.784249
H80	H	1.413523	-0.304678	-0.766867
H81	H	1.781238	-0.547686	-0.770708
H82	H	1.661708	-1.079029	-0.363189
C83	C	1.041857	-0.460271	-0.631592
H84	H	1.093793	-0.447126	-0.681649
H85	H	0.987770	-0.414932	-0.631390
H86	H	1.010787	-0.500558	-0.651094
C87	C	1.839580	-0.669774	-0.185361
H88	H	1.815105	-0.614703	-0.209755
H89	H	1.913793	-0.683253	-0.197184
H90	H	1.827897	-0.683337	-0.111110
H91	H	1.082380	-0.550986	-0.480816
H92	H	0.996989	-0.288914	-0.306914
C93	C	1.207832	-0.274429	-0.291621
H94	H	1.151333	-0.244296	-0.259764
H95	H	1.241410	-0.240023	-0.341124
H96	H	1.258724	-0.304621	-0.237659
C97	C	1.886279	-0.843126	-0.138813
H98	H	1.891492	-0.898200	-0.133645
H99	H	1.867312	-0.829634	-0.071831
H100	H	1.953210	-0.829555	-0.157903
C101	C	1.388920	-0.793678	-0.635449
H102	H	1.358689	-0.830084	-0.665659
H103	H	1.420409	-0.761436	-0.689907
H104	H	1.334492	-0.761518	-0.603853
H105	H	1.579616	-0.681618	-0.444950
H106	H	1.417799	-1.079054	-0.606777
C107	C	1.734597	-1.053650	-0.290392
H108	H	1.789282	-1.072310	-0.235777
H109	H	1.757753	-1.072289	-0.353200
H110	H	1.671846	-1.072368	-0.267137
C111	C	1.355057	-0.917505	-0.669336
H112	H	1.324825	-0.953911	-0.699546
H113	H	1.386545	-0.885263	-0.723793
H114	H	1.300629	-0.885346	-0.637740
H115	H	1.830023	-0.955174	-0.195046
