data_functionalizedCrystal
_audit_creation_method	'MofGen! by Chris Wilmer'
_symmetry_space_group_name_H-M	'P1'
_symmetry_Int_Tables_number	1
_symmetry_cell_setting	triclinic
loop_
_symmetry_equiv_pos_as_xyz
  x,y,z
_cell_length_a	19.377625
_cell_length_b	14.809374
_cell_length_c	14.809374
_cell_angle_alpha	60.797835
_cell_angle_beta	75.690422
_cell_angle_gamma	58.479323
loop_
_atom_site_label
_atom_site_type_symbol
_atom_site_fract_x
_atom_site_fract_y
_atom_site_fract_z
Zr1	Zr	0.803141	0.902959	-0.437923
O2	O	0.714071	1.066674	-0.559103
O3	O	0.817835	0.724236	-0.384132
O4	O	0.847578	0.871449	-0.579347
O5	O	0.675211	0.949549	-0.228831
O6	O	0.967235	0.863666	-0.614246
O7	O	0.684329	0.919461	-0.363888
O8	O	0.914030	0.600329	-0.265043
O9	O	0.728415	1.212886	-0.578035
O10	O	0.928636	0.797497	-0.407343
O11	O	0.832533	0.825761	-0.280506
O12	O	0.867551	0.999085	-0.510346
O13	O	0.771449	1.027349	-0.383509
Zr14	Zr	0.979438	0.938534	-0.278183
Zr15	Zr	0.993979	0.890545	-0.493584
Zr16	Zr	0.788599	0.950947	-0.222522
Zr17	Zr	0.826018	1.136152	-0.468116
Zr18	Zr	0.956561	0.705341	-0.247989
O19	O	0.964743	1.117256	-0.331974
O20	O	0.985419	1.049023	-0.638246
O21	O	0.693396	1.134906	-0.252831
O22	O	1.068507	0.774819	-0.157003
O23	O	1.089183	0.706586	-0.463275
O24	O	0.797160	0.792469	-0.077859
O25	O	1.107368	0.891943	-0.487275
O26	O	0.935001	0.970043	-0.136759
O27	O	0.815344	0.977826	-0.101859
O28	O	1.098250	0.922032	-0.352217
O29	O	0.880107	1.203019	-0.622278
O30	O	0.902472	0.638473	-0.093828
O31	O	1.054163	0.628606	-0.138071
O32	O	1.065722	0.590462	-0.309286
O33	O	0.716857	1.251031	-0.406820
O34	O	0.868548	1.241163	-0.451063
O35	O	0.915027	0.842407	-0.205760
O36	O	1.011130	0.814144	-0.332597
O37	O	0.950046	1.015731	-0.435600
O38	O	0.853943	1.043995	-0.308763
C39	C	0.862673	0.629058	-0.320285
C40	C	0.852961	0.530061	-0.307467
C41	C	0.896305	0.471905	-0.364672
C42	C	0.886268	0.369587	-0.351426
C43	C	0.652579	0.936274	-0.288429
C44	C	0.571563	0.941544	-0.264800
C45	C	0.330210	0.875957	-0.559043
C46	C	0.254084	0.880906	-0.536808
C47	C	0.244060	0.914056	-0.388009
C48	C	0.320184	0.909116	-0.410235
C49	C	0.363254	0.890065	-0.495752
C50	C	0.353229	0.923224	-0.346944
C51	C	0.429349	0.918277	-0.369165
C52	C	0.472425	0.899224	-0.454677
C53	C	0.439374	0.885119	-0.517974
C54	C	0.310160	0.942266	-0.261423
C55	C	0.343204	0.956374	-0.198132
C56	C	0.419323	0.951436	-0.220357
C57	C	0.462399	0.932382	-0.305869
C58	C	0.452374	0.965541	-0.157061
C59	C	0.528494	0.960595	-0.179282
C60	C	0.538519	0.927436	-0.328090
C61	C	1.129999	0.905219	-0.427677
C62	C	1.211015	0.899949	-0.451306
C63	C	0.909478	0.860720	-0.627486
C64	C	0.915651	0.840348	-0.718930
C65	C	0.919905	1.212435	-0.395821
C66	C	0.929617	1.311431	-0.408639
C67	C	0.888101	0.931267	-0.810795
C68	C	0.894481	0.910213	-0.905307
C69	C	0.873101	0.980772	-0.088619
C70	C	0.866927	1.001144	0.002824
C71	C	1.101383	0.613530	-0.389909
C72	C	1.172687	0.509264	-0.400721
C73	C	0.844484	0.689084	-0.050852
C74	C	0.828599	0.610459	0.053410
C75	C	1.083194	0.673556	-0.120475
C76	C	1.148325	0.589662	-0.039844
C77	C	0.699384	1.167936	-0.595630
C78	C	0.634253	1.251830	-0.676262
C79	C	0.681195	1.227962	-0.326197
C80	C	0.609891	1.332228	-0.315385
C81	C	0.938094	1.152409	-0.665254
C82	C	0.953979	1.231033	-0.769515
C83	C	1.163112	0.451608	-0.444824
C84	C	1.230105	0.353648	-0.455002
C85	C	1.306671	0.313340	-0.421070
C86	C	1.316246	0.371006	-0.376966
C87	C	1.249255	0.468969	-0.366795
C88	C	0.864200	0.582228	0.141398
C89	C	0.849272	0.508367	0.239370
C90	C	0.798747	0.462733	0.249351
C91	C	0.763142	0.490971	0.161353
C92	C	0.778066	0.564838	0.063384
C93	C	1.229084	0.535511	-0.068188
C94	C	1.290290	0.456694	0.007562
C95	C	1.270736	0.432024	0.111656
C96	C	1.189969	0.486185	0.140000
C97	C	1.128765	0.565006	0.064250
C98	C	0.553496	1.305993	-0.647919
C99	C	0.492292	1.384839	-0.723673
C100	C	0.511847	1.409514	-0.827768
C101	C	0.592613	1.355347	-0.856111
C102	C	0.653816	1.276509	-0.780359
C103	C	0.619468	1.389892	-0.271292
C104	C	0.552480	1.487873	-0.261141
C105	C	0.475914	1.528183	-0.295077
C106	C	0.466338	1.470514	-0.339176
C107	C	0.533327	1.372540	-0.349333
C108	C	1.004508	1.276645	-0.779463
C109	C	1.019449	1.350509	-0.877423
C110	C	0.983857	1.378766	-0.965433
C111	C	0.933326	1.333146	-0.955482
C112	C	0.918390	1.259277	-0.857524
H113	H	0.573585	0.911935	-0.397734
Cl114	Cl	0.370077	1.521201	-0.381827
Cl115	Cl	0.390765	1.452914	-0.688018
H116	H	1.356049	0.412602	-0.015534
H117	H	1.174059	0.466086	0.224764
H118	H	1.257062	0.515902	-0.330876
Cl119	Cl	0.998395	0.351486	-0.499394
Cl120	Cl	0.784199	0.489985	-0.216703
Cl121	Cl	0.733308	0.600311	-0.047224
H122	H	0.904349	1.356165	-1.027153
H123	H	0.841728	0.343630	-0.292637
H124	H	0.417300	0.981041	-0.087426
Cl125	Cl	1.412506	0.320314	-0.334307
Cl126	Cl	0.823222	1.145399	-1.010597
Cl127	Cl	1.347688	0.332927	0.206875
H128	H	0.534408	0.895191	-0.472765
Cl129	Cl	1.253689	0.566514	-0.199045
Cl130	Cl	1.218049	0.281170	-0.510443
H131	H	1.060594	1.387647	-0.885505
H132	H	0.537558	1.285908	-0.563163
Cl133	Cl	0.212550	0.863164	-0.616384
Cl134	Cl	0.570038	0.978325	-0.099711
H135	H	0.859796	1.024692	-0.819474
Cl136	Cl	0.959366	0.696101	-0.705522
H137	H	0.474440	0.869618	-0.587617
Cl138	Cl	0.521272	1.300053	-0.404760
Cl139	Cl	0.699629	0.433589	0.173918
Cl140	Cl	1.049265	1.241136	-0.668837
H141	H	0.365276	0.860456	-0.628687
Cl142	Cl	0.965073	0.511973	-0.455429
H143	H	0.560291	1.534812	-0.225228
H144	H	0.878271	0.485385	0.311009
Cl145	Cl	0.779995	0.369870	0.372521
H146	H	0.996025	1.438917	-1.045190
Cl147	Cl	0.927722	0.639580	0.128877
Cl148	Cl	0.189911	0.938002	-0.280503
Cl149	Cl	0.434896	1.508626	-0.922988
Cl150	Cl	1.027240	0.633067	0.099903
Cl151	Cl	0.755338	1.208418	-0.816008
Cl152	Cl	1.066865	0.502263	-0.487495
H153	H	0.922795	0.816781	-0.896623
Cl154	Cl	0.214467	0.948476	-0.233488
Cl155	Cl	0.289056	0.980319	-0.090626
Cl156	Cl	1.390881	0.190180	-0.433861
Cl157	Cl	0.617183	1.386375	-0.986979
Cl158	Cl	0.715716	1.339243	-0.228628
H159	H	0.421373	1.607961	-0.286800
Cl160	Cl	0.854855	1.201957	-0.845034
