data_functionalizedCrystal
_audit_creation_method	'MofGen! by Chris Wilmer'
_symmetry_space_group_name_H-M	'P1'
_symmetry_Int_Tables_number	1
_symmetry_cell_setting	triclinic
loop_
_symmetry_equiv_pos_as_xyz
  x,y,z
_cell_length_a	16.992694
_cell_length_b	9.016244
_cell_length_c	16.992695
_cell_angle_alpha	90.007158
_cell_angle_beta	90.668223
_cell_angle_gamma	89.996559
loop_
_atom_site_label
_atom_site_type_symbol
_atom_site_fract_x
_atom_site_fract_y
_atom_site_fract_z
O1	O	1.050848	0.123156	0.166919
O2	O	0.822448	0.123199	0.165088
O3	O	0.935732	0.123166	0.051803
O4	O	0.937564	0.123189	0.280203
O5	O	0.935727	-0.123515	0.051794
O6	O	0.822442	-0.123481	0.165079
O7	O	1.050842	-0.123525	0.166910
Cu8	Cu	0.936642	-0.146027	0.165993
Cu9	Cu	0.936649	0.145702	0.166004
O10	O	0.937558	-0.123492	0.280194
C11	C	0.793085	-0.000135	0.162727
C12	C	0.705600	-0.000119	0.155699
C13	C	0.659610	-0.000113	0.223517
C14	C	0.577409	-0.000134	0.216908
C15	C	0.541201	-0.000151	0.142480
C16	C	0.587198	-0.000161	0.074657
C17	C	0.669397	-0.000150	0.081267
C18	C	0.295886	-0.000193	0.115086
C19	C	0.213681	-0.000199	0.108481
C20	C	0.203898	-0.000176	0.250732
C21	C	0.286099	-0.000156	0.257335
C22	C	0.332089	-0.000174	0.189512
N23	N	0.457178	-0.000168	0.135723
N24	N	0.416110	-0.000168	0.196270
N25	N	0.936643	-0.351213	0.165985
C26	C	0.997494	-0.586218	0.105619
C27	C	0.997307	-0.414327	0.105367
C28	C	0.853392	-0.413625	0.142900
C29	C	0.853750	-0.585569	0.142472
C30	C	0.958335	-0.585713	0.249621
C31	C	0.960162	-0.413757	0.249180
C32	C	1.080205	-0.000187	0.169270
C33	C	1.167690	-0.000193	0.176299
C34	C	0.933374	-0.000174	0.022439
C35	C	0.926345	-0.000172	-0.065046
N36	N	0.936653	0.350888	0.166006
C37	C	0.994163	-0.000187	-0.111037
C38	C	0.987554	-0.000171	-0.193238
C39	C	0.913127	-0.000152	-0.229446
C40	C	0.845303	-0.000133	-0.183449
C41	C	0.851913	-0.000138	-0.101250
C42	C	0.885732	-0.000126	-0.474760
C43	C	0.879127	-0.000126	-0.556966
C44	C	1.021379	-0.000161	-0.566749
C45	C	1.027982	-0.000175	-0.484547
C46	C	0.960159	-0.000148	-0.438558
N47	N	0.906369	-0.000141	-0.313468
N48	N	0.966917	-0.000149	-0.354537
C49	C	0.939917	-0.000149	0.309559
C50	C	0.946945	-0.000141	0.397044
H51	H	0.539966	-0.000128	0.272133
H52	H	0.333322	-0.000209	0.059859
H53	H	0.919115	-0.370791	0.296618
C54	C	0.153312	-0.000163	0.325333
H55	H	0.186649	-0.000141	0.370605
H56	H	0.121046	-0.086187	0.325712
H57	H	0.121040	0.085870	0.325713
H58	H	0.557710	-0.000195	0.014056
C59	C	0.898486	-0.640664	0.310413
H60	H	0.860468	-0.701948	0.285004
H61	H	0.872972	-0.557984	0.333568
H62	H	0.925096	-0.695996	0.350161
H63	H	0.834753	-0.370579	0.082424
C64	C	1.062152	-0.000172	-0.243828
H65	H	1.047558	-0.000143	-0.297968
H66	H	1.092461	-0.086199	-0.232380
H67	H	1.092455	0.085858	-0.232353
C68	C	0.325923	-0.000160	0.339206
H69	H	0.286758	-0.000176	0.378650
H70	H	0.357783	0.085863	0.344748
H71	H	0.357787	-0.086194	0.344732
H72	H	1.021431	-0.372967	0.266579
H73	H	1.059026	-0.372129	0.119875
H74	H	1.076596	-0.000180	-0.604202
H75	H	1.059407	-0.627568	0.119970
H76	H	0.796688	-0.000126	-0.063804
C77	C	0.719987	-0.000142	0.006667
H78	H	0.686651	-0.000137	-0.038606
H79	H	0.752264	-0.086158	0.006283
H80	H	0.752248	0.085899	0.006295
C81	C	0.977862	-0.358772	0.021686
H82	H	0.970038	-0.441291	-0.012285
H83	H	1.020230	-0.300272	0.003036
H84	H	0.931304	-0.300497	0.022679
H85	H	0.830505	-0.000105	-0.437325
H86	H	1.054770	-0.000211	-0.081563
H87	H	0.835426	-0.625693	0.081335
C88	C	1.038968	-0.644284	0.277880
H89	H	1.060166	-0.707956	0.238941
H90	H	1.032793	-0.697824	0.325552
H91	H	1.073698	-0.563199	0.286559
H92	H	0.983283	-0.629448	0.044032
H93	H	0.806851	-0.627175	0.184515
H94	H	0.806812	-0.372744	0.185493
C95	C	0.173849	-0.000228	0.026609
H96	H	0.118308	-0.000216	0.032389
H97	H	0.189332	-0.086259	-0.001532
H98	H	0.189326	0.085798	-0.001533
C99	C	0.699432	-0.000095	0.305388
H100	H	0.660265	-0.000108	0.344830
H101	H	0.731289	0.085932	0.310928
H102	H	0.731298	-0.086125	0.310920
C103	C	1.109852	-0.000177	-0.444724
H104	H	1.149297	-0.000168	-0.483888
H105	H	1.115389	-0.086198	-0.412865
H106	H	1.115384	0.085859	-0.412858
C107	C	0.797254	-0.000080	-0.596793
H108	H	0.757807	-0.000046	-0.557631
H109	H	0.791708	-0.086097	-0.628664
H110	H	0.791734	0.085960	-0.628648
C111	C	0.763435	-0.000116	-0.223276
H112	H	0.769210	-0.000132	-0.278818
H113	H	0.735294	0.085910	-0.207789
H114	H	0.735296	-0.086146	-0.207798
