data_functionalizedCrystal
_audit_creation_method	'MofGen! by Chris Wilmer'
_symmetry_space_group_name_H-M	'P1'
_symmetry_Int_Tables_number	1
_symmetry_cell_setting	triclinic
loop_
_symmetry_equiv_pos_as_xyz
  x,y,z
_cell_length_a	17.699077
_cell_length_b	14.853567
_cell_length_c	16.176319
_cell_angle_alpha	89.999649
_cell_angle_beta	90.005422
_cell_angle_gamma	83.457753
loop_
_atom_site_label
_atom_site_type_symbol
_atom_site_fract_x
_atom_site_fract_y
_atom_site_fract_z
O1	O	1.004376	0.113978	0.068729
O2	O	0.784036	0.128817	0.068732
O3	O	0.900092	-0.009854	0.068733
O4	O	0.888320	0.252649	0.068728
O5	O	0.900078	-0.009854	-0.068761
O6	O	0.784022	0.128816	-0.068761
O7	O	1.004363	0.113978	-0.068765
Cu8	Cu	0.894191	0.121397	-0.081317
Cu9	Cu	0.894207	0.121398	0.081284
O10	O	0.888307	0.252649	-0.068765
C11	C	0.755830	0.128286	-0.000014
C12	C	0.671808	0.126694	-0.000013
C13	C	0.632331	0.125943	-0.074961
C14	C	0.553385	0.124432	-0.074962
C15	C	0.513916	0.123679	-0.000014
C16	C	0.553398	0.124427	0.074941
C17	C	0.632344	0.125931	0.074941
C18	C	0.235019	0.118360	0.074942
C19	C	0.156068	0.116858	0.074937
C20	C	0.156060	0.116861	-0.074960
C21	C	0.235006	0.118365	-0.074960
C22	C	0.274482	0.119108	-0.000007
C23	C	0.360085	0.120745	-0.000007
C24	C	0.428314	0.122049	-0.000013
C25	C	0.899551	-0.043441	-0.000012
C26	C	0.897953	-0.143519	-0.000004
C27	C	0.822257	-0.555772	-0.000019
C28	C	0.960134	-0.577564	-0.000021
C29	C	0.961637	-0.483536	-0.000016
C30	C	0.893449	-0.425621	-0.000014
C31	C	0.823758	-0.461735	-0.000017
C32	C	1.031327	-0.447415	-0.000022
C33	C	1.032832	-0.353382	-0.000018
C34	C	0.964643	-0.295465	-0.000010
C35	C	0.894950	-0.331584	-0.000012
C36	C	0.826761	-0.273669	-0.000009
C37	C	0.757067	-0.309786	-0.000005
C38	C	0.755569	-0.403818	-0.000009
C39	C	0.966141	-0.201433	-0.000006
C40	C	0.828262	-0.179632	-0.000007
C41	C	1.032568	0.114509	-0.000017
C42	C	1.116590	0.116101	-0.000013
C43	C	0.888847	0.286236	-0.000019
C44	C	0.890445	0.386313	-0.000021
N45	N	0.894185	0.121396	-0.195682
C46	C	0.940142	0.176008	-0.238945
C47	C	0.940150	0.176004	-0.325492
C48	C	0.894197	0.121394	-0.368775
C49	C	0.848238	0.066776	-0.325507
C50	C	0.848235	0.066775	-0.238961
C51	C	0.848252	0.066777	-0.674535
C52	C	0.848258	0.066784	-0.761086
C53	C	0.940168	0.176006	-0.761066
C54	C	0.940164	0.176005	-0.674520
C55	C	0.894209	0.121385	-0.631259
C56	C	0.894202	0.121388	-0.537415
C57	C	0.894200	0.121395	-0.462618
N58	N	0.894219	0.121391	0.195650
H59	H	0.521257	0.123807	0.135965
N60	N	0.798702	0.007868	-0.807773
H61	H	0.761695	0.047170	-0.843685
H62	H	0.769643	-0.026729	-0.767183
H63	H	0.977581	0.220478	-0.639283
N64	N	0.674898	0.126765	-0.155799
H65	H	0.637907	0.126059	-0.203278
H66	H	0.713734	0.071524	-0.159066
H67	H	0.521248	0.123806	-0.135993
N68	N	1.033671	-0.640033	-0.000023
H69	H	1.064076	-0.628441	0.050948
H70	H	1.064009	-0.628403	-0.051024
N71	N	0.277575	0.119188	-0.155797
H72	H	0.240587	0.118482	-0.203278
H73	H	0.316411	0.063946	-0.159061
N74	N	0.798669	0.007889	-0.627884
H75	H	0.805635	0.016172	-0.566490
H76	H	0.813547	-0.057705	-0.643009
H77	H	0.698827	-0.433234	-0.000006
H78	H	1.086842	-0.494576	-0.000031
H79	H	1.022885	-0.172031	-0.000015
H80	H	0.977589	0.220479	-0.796299
N81	N	0.683522	-0.247318	-0.000024
H82	H	0.695054	-0.182271	-0.000032
H83	H	0.653151	-0.258981	0.050944
N84	N	0.754719	-0.117161	-0.000005
H85	H	0.724324	-0.128758	0.050965
H86	H	0.724373	-0.128788	-0.051007
N87	N	0.113482	0.116058	-0.155806
H88	H	0.057353	0.116246	-0.144442
H89	H	0.132638	0.059823	-0.188038
H90	H	0.810826	0.022307	-0.360755
H91	H	0.123935	0.116244	0.135972
N92	N	0.747089	-0.594718	-0.000010
H93	H	0.756481	-0.663075	-0.000010
H94	H	0.717242	-0.573521	-0.050980
N95	N	0.798670	0.007868	-0.192298
H96	H	0.743622	0.025731	-0.207363
H97	H	0.805708	0.016175	-0.130920
H98	H	1.089582	-0.323984	-0.000020
N99	N	0.277582	0.119159	0.155787
H100	H	0.257764	0.174762	0.188553
H101	H	0.333575	0.120186	0.144360
N102	N	0.674927	0.126733	0.155777
H103	H	0.637946	0.126028	0.203258
H104	H	0.701605	0.183221	0.159045
H105	H	0.977558	0.220483	-0.203710
H106	H	0.977574	0.220472	-0.360712
