data_functionalizedCrystal
_audit_creation_method	'MofGen! by Chris Wilmer'
_symmetry_space_group_name_H-M	'P1'
_symmetry_Int_Tables_number	1
_symmetry_cell_setting	triclinic
loop_
_symmetry_equiv_pos_as_xyz
  x,y,z
_cell_length_a	10.723023
_cell_length_b	19.188930
_cell_length_c	9.198806
_cell_angle_alpha	89.991701
_cell_angle_beta	90.004114
_cell_angle_gamma	96.193836
loop_
_atom_site_label
_atom_site_type_symbol
_atom_site_fract_x
_atom_site_fract_y
_atom_site_fract_z
O1	O	-1.655156	0.097919	-0.120917
O2	O	-1.291809	0.107293	-0.120920
O3	O	-1.483968	0.001019	-0.120890
O4	O	-1.462997	0.204194	-0.120947
O5	O	-1.483952	0.001018	0.120895
O6	O	-1.291794	0.107293	0.120865
O7	O	-1.655141	0.097919	0.120868
Cu8	Cu	-1.473466	0.102606	0.142943
Cu9	Cu	-1.473484	0.102606	-0.142996
O10	O	-1.462982	0.204193	0.120838
C11	C	-1.245316	0.106611	-0.000028
C12	C	-1.106804	0.104570	-0.000028
C13	C	-1.483281	-0.024997	0.000007
C14	C	-1.481242	-0.102515	0.000019
C15	C	-0.901907	0.101552	-0.125276
C16	C	-1.045066	0.103661	-0.125279
C17	C	-0.701634	0.098601	-0.000024
C18	C	-0.840146	0.100642	-0.000024
C19	C	-1.593995	-0.146706	0.000027
C20	C	-1.592080	-0.219542	0.000004
C21	C	-1.477405	-0.248184	0.000002
C22	C	-1.364638	-0.203983	-0.000015
C23	C	-1.366557	-0.131148	-0.000006
N24	N	-1.389746	-0.356758	0.082285
N25	N	-1.387931	-0.425949	0.082280
C26	C	-1.471618	-0.467630	-0.000028
N27	N	-1.557208	-0.437508	-0.082312
N28	N	-1.559027	-0.368312	-0.082300
C29	C	-1.475313	-0.327160	-0.000009
C30	C	-1.582302	-0.590799	-0.000047
C31	C	-1.580382	-0.663637	-0.000079
C32	C	-1.352937	-0.648076	-0.000083
C33	C	-1.354861	-0.575240	-0.000065
C34	C	-1.469546	-0.546606	-0.000041
C35	C	-1.463668	0.230209	-0.000062
C36	C	-1.465707	0.307727	-0.000084
N37	N	-1.473462	0.102605	0.344057
N38	N	-1.473497	0.102601	-0.344109
C39	C	-1.554148	0.057787	0.416267
C40	C	-1.554168	0.057784	0.583679
H41	H	-1.098178	0.104447	-0.232512
N42	N	-1.711129	-0.117447	0.000027
N43	N	-1.712832	-0.052416	0.000030
H44	H	-1.795557	-0.031750	0.000028
N45	N	-1.386814	0.150732	0.578010
N46	N	-1.271437	0.149371	0.594918
H47	H	-1.210215	0.183363	0.539905
N48	N	-0.906779	0.101632	0.134487
N49	N	-0.967665	0.151831	0.163758
H50	H	-1.014727	0.152531	0.258760
N51	N	-1.695552	-0.708790	-0.000050
N52	N	-1.693825	-0.773819	-0.000057
H53	H	-1.775164	-0.805711	-0.000031
N54	N	-1.707270	-0.264683	0.000010
N55	N	-1.809655	-0.239109	0.000029
H56	H	-1.891010	-0.270987	0.000036
N57	N	-1.247512	-0.233247	-0.000030
N58	N	-1.245813	-0.298279	-0.000036
H59	H	-1.163089	-0.318947	-0.000054
N60	N	-1.386815	0.150750	0.421947
N61	N	-1.310959	0.192888	0.354144
H62	H	-1.249761	0.226892	0.409149
H63	H	-0.848799	0.100765	-0.232507
H64	H	-1.053698	0.103792	0.107210
H65	H	-1.675686	-0.567485	-0.000034
N66	N	-1.251365	-0.086014	-0.000022
N67	N	-1.148982	-0.111591	-0.000038
H68	H	-1.067626	-0.079714	-0.000049
N69	N	-1.235809	-0.677334	-0.000102
N70	N	-1.234109	-0.742366	-0.000118
H71	H	-1.151385	-0.763034	-0.000137
H72	H	-1.263045	-0.539258	-0.000064
N73	N	-1.640707	0.009640	0.338264
N74	N	-1.600931	-0.033750	0.253330
H75	H	-1.662037	-0.067757	0.198208
N76	N	-1.640821	0.009649	0.661591
N77	N	-1.640710	0.009713	0.797475
H78	H	-1.701908	-0.024285	0.852505
