data_functionalizedCrystal
_audit_creation_method	'MofGen! by Chris Wilmer'
_symmetry_space_group_name_H-M	'P1'
_symmetry_Int_Tables_number	1
_symmetry_cell_setting	triclinic
loop_
_symmetry_equiv_pos_as_xyz
  x,y,z
_cell_length_a	10.654550
_cell_length_b	22.610064
_cell_length_c	10.654548
_cell_angle_alpha	90.005960
_cell_angle_beta	95.515399
_cell_angle_gamma	90.011830
loop_
_atom_site_label
_atom_site_type_symbol
_atom_site_fract_x
_atom_site_fract_y
_atom_site_fract_z
O1	O	1.667849	0.049231	-0.176382
O2	O	1.302370	0.049221	-0.193188
O3	O	1.493514	0.049225	-0.002045
O4	O	1.476706	0.049227	-0.367524
O5	O	1.493480	-0.049144	-0.002073
O6	O	1.302336	-0.049148	-0.193216
O7	O	1.667815	-0.049139	-0.176410
Zn8	Zn	1.485070	-0.064762	-0.184817
Zn9	Zn	1.485115	0.064844	-0.184780
O10	O	1.476672	-0.049142	-0.367552
C11	C	1.255555	0.000035	-0.191968
C12	C	1.116112	0.000031	-0.188276
N13	N	1.485049	-0.153214	-0.184841
C14	C	1.036626	0.000041	-0.300818
C15	C	0.905605	0.000051	-0.297341
C16	C	0.933570	0.000045	-0.068771
C17	C	1.064588	0.000031	-0.072249
C18	C	1.088150	0.000041	-0.416844
C19	C	1.008662	0.000051	-0.529395
C20	C	0.877642	0.000061	-0.525919
C21	C	0.826108	0.000062	-0.409891
C22	C	1.569757	-0.561854	-0.100156
C23	C	1.569763	-0.623774	-0.100147
O24	O	1.641732	-0.655791	-0.028162
N25	N	1.485114	-0.654751	-0.184754
C26	C	1.400443	-0.623806	-0.269368
O27	O	1.328442	-0.655840	-0.341332
C28	C	1.400432	-0.561887	-0.269370
C29	C	1.485096	-0.530913	-0.184765
C30	C	1.654413	-0.530879	-0.015557
C31	C	1.654408	-0.468964	-0.015568
C32	C	1.569747	-0.438022	-0.100178
C33	C	1.485091	-0.468997	-0.184776
C34	C	1.315757	-0.530943	-0.353977
C35	C	1.315752	-0.469020	-0.353971
C36	C	1.400416	-0.438045	-0.269366
C37	C	1.400425	-0.376140	-0.269397
N38	N	1.485074	-0.345163	-0.184789
C39	C	1.569736	-0.376104	-0.100180
C40	C	1.400472	-0.753839	-0.269356
C41	C	1.400489	-0.815757	-0.269361
C42	C	1.569808	-0.815721	-0.100138
C43	C	1.569796	-0.753802	-0.100140
C44	C	1.485122	-0.722862	-0.184748
C45	C	1.569719	-0.246076	-0.100210
C46	C	1.569710	-0.184155	-0.100232
C47	C	1.400388	-0.184197	-0.269450
C48	C	1.400401	-0.246113	-0.269433
C49	C	1.485071	-0.277051	-0.184803
O50	O	1.328489	-0.344083	-0.341342
O51	O	1.641714	-0.344062	-0.028217
C52	C	1.714630	0.000049	-0.177630
C53	C	1.854073	0.000056	-0.181322
C54	C	1.492263	0.000041	0.044739
C55	C	1.488572	0.000044	0.184182
N56	N	1.485146	0.153296	-0.184746
C57	C	1.477922	0.000042	-0.414336
C58	C	1.481614	0.000044	-0.553779
C59	C	1.483368	0.053665	0.380729
C60	C	1.486851	0.053666	0.249709
C61	C	1.486821	-0.053582	0.249683
C62	C	1.483347	-0.053582	0.380702
C63	C	1.481635	0.107290	0.446247
C64	C	1.483387	0.160916	0.380755
C65	C	1.486871	0.160917	0.249735
C66	C	1.488602	0.107291	0.184207
H67	H	1.194832	0.000036	-0.419688
H68	H	1.488229	-0.097241	0.196320
H69	H	1.723345	-0.443748	0.053328
N70	N	1.313894	-0.152594	-0.355872
N71	N	1.238303	-0.180251	-0.431404
H72	H	1.177210	-0.157931	-0.492436
N73	N	0.796432	0.000059	-0.640869
N74	N	0.720173	-0.041402	-0.664440
H75	H	0.662819	-0.041405	-0.745629
H76	H	0.719421	0.000061	-0.407070
N77	N	1.061276	0.000054	-0.647918
N78	N	0.990287	0.000061	-0.748394
H79	H	1.027441	0.000062	-0.832105
N80	N	1.481554	-0.108359	0.447590
N81	N	1.483086	-0.156234	0.389078
H82	H	1.481822	-0.194922	0.436317
H83	H	1.331472	-0.271333	-0.338338
H84	H	1.478793	0.107296	0.552929
H85	H	0.891600	0.000055	0.025693
N86	N	1.145793	0.000009	0.042704
N87	N	1.140487	-0.041459	0.119592
H88	H	1.197841	-0.041479	0.200781
N89	N	1.656193	-0.152526	-0.013785
N90	N	1.731761	-0.180164	0.061764
H91	H	1.792831	-0.157828	0.122824
N92	N	1.656211	-0.277664	-0.013751
N93	N	1.731783	-0.249991	0.061772
H94	H	1.792873	-0.272299	0.122831
H95	H	1.723354	-0.556066	0.053348
H96	H	1.638736	-0.728586	-0.031247
N97	N	1.656256	-0.847342	-0.013690
N98	N	1.656222	-0.902626	-0.013689
H99	H	1.717262	-0.924961	0.047370
N100	N	1.314017	-0.847383	-0.355810
N101	N	1.238441	-0.819742	-0.431348
H102	H	1.177363	-0.842076	-0.492403
N103	N	1.313970	-0.722246	-0.355801
N104	N	1.238402	-0.749918	-0.431331
H105	H	1.177307	-0.727609	-0.492382
H106	H	1.491450	0.107296	0.077523
N107	N	1.229273	-0.562563	-0.440417
N108	N	1.153695	-0.534917	-0.515944
H109	H	1.092611	-0.557247	-0.577000
H110	H	1.481988	0.204576	0.434117
N111	N	1.229243	-0.437425	-0.440403
N112	N	1.153664	-0.465093	-0.515928
H113	H	1.092568	-0.442781	-0.576973
N114	N	1.488681	0.215696	0.182856
N115	N	1.487140	0.263568	0.241376
H116	H	1.488415	0.302259	0.194146
