data_functionalizedCrystal
_audit_creation_method	'MofGen! by Chris Wilmer'
_symmetry_space_group_name_H-M	'P1'
_symmetry_Int_Tables_number	1
_symmetry_cell_setting	triclinic
loop_
_symmetry_equiv_pos_as_xyz
  x,y,z
_cell_length_a	12.827893
_cell_length_b	12.827892
_cell_length_c	19.077174
_cell_angle_alpha	92.275857
_cell_angle_beta	87.686480
_cell_angle_gamma	90.015552
loop_
_atom_site_label
_atom_site_type_symbol
_atom_site_fract_x
_atom_site_fract_y
_atom_site_fract_z
Zn1	Zn	1.621354	-0.439781	-0.397936
Zn2	Zn	2.121354	0.060219	0.102064
Zn3	Zn	1.614243	-0.607519	-0.280248
Zn4	Zn	2.114243	-0.107519	0.219752
Zn5	Zn	1.439591	-0.432794	-0.280258
Zn6	Zn	1.939591	0.067206	0.219742
Zn7	Zn	1.446579	-0.614480	-0.397909
Zn8	Zn	1.946579	-0.114480	0.102091
O9	O	1.530442	-0.523643	-0.339088
O10	O	2.030442	-0.023643	0.160912
O11	O	1.766647	-0.462043	-0.382332
O12	O	2.266647	0.037957	0.117668
O13	O	1.585175	-0.578504	-0.181760
O14	O	2.085175	-0.078504	0.318240
O15	O	1.463754	-0.287485	-0.295883
O16	O	1.963754	0.212515	0.204117
O17	O	1.761423	-0.585279	-0.295867
O18	O	2.261423	-0.085279	0.204133
O19	O	1.597294	-0.292619	-0.382341
O20	O	2.097294	0.207381	0.117659
O21	O	1.456859	-0.450134	-0.181766
O22	O	1.956859	0.049866	0.318234
O23	O	1.294282	-0.456883	-0.295857
O24	O	1.794282	0.043117	0.204143
O25	O	1.475663	-0.597143	-0.496403
O26	O	1.975663	-0.097143	0.003597
O27	O	1.299415	-0.590368	-0.382295
O28	O	1.799415	-0.090368	0.117705
O29	O	1.604070	-0.468793	-0.496423
O30	O	2.104070	0.031207	0.003577
O31	O	1.591951	-0.754677	-0.295841
O32	O	2.091951	-0.254677	0.204159
O33	O	1.468769	-0.759792	-0.382286
O34	O	1.968769	-0.259792	0.117714
C35	C	1.258931	-0.523623	-0.339074
C36	C	1.758931	-0.023623	0.160926
C37	C	1.142779	-0.523641	-0.339085
C38	C	1.642779	-0.023641	0.160915
C39	C	1.093583	-0.462776	-0.381938
C40	C	1.593583	0.037224	0.118062
C41	C	0.973533	-0.462793	-0.381950
C42	C	1.473533	0.037207	0.118050
C43	C	1.530376	-0.795153	-0.339075
C44	C	2.030376	-0.295153	0.160925
C45	C	1.530444	-0.911307	-0.339093
C46	C	2.030444	-0.411307	0.160907
C47	C	1.596498	-0.965551	-0.381913
C48	C	2.096498	-0.465551	0.118087
C49	C	1.596571	-1.085602	-0.381933
C50	C	2.096571	-0.585602	0.118067
C51	C	1.803013	-0.523664	-0.339102
C52	C	2.303013	-0.023664	0.160898
C53	C	1.919166	-0.523673	-0.339108
C54	C	2.419166	-0.023673	0.160892
C55	C	1.541439	-0.534524	-0.522664
C56	C	2.041439	-0.034524	-0.022664
C57	C	1.546125	-0.539161	-0.600893
C58	C	2.046125	-0.039161	-0.100893
C59	C	1.530538	-0.251075	-0.339116
C60	C	2.030538	0.248925	0.160884
C61	C	1.530578	-0.134923	-0.339128
C62	C	2.030578	0.365077	0.160872
C63	C	1.481522	-0.474505	-0.637649
C64	C	1.981522	0.025495	-0.137649
C65	C	1.485922	-0.478870	-0.711154
C66	C	1.985922	0.021130	-0.211154
C67	C	1.554930	-0.547887	-0.747902
C68	C	2.054930	-0.047887	-0.247902
C69	C	1.619535	-0.612550	-0.711141
C70	C	2.119535	-0.112550	-0.211141
C71	C	1.615130	-0.608189	-0.637638
C72	C	2.115130	-0.108189	-0.137638
C73	C	1.575264	-0.568101	-0.967733
C74	C	2.075264	-0.068101	-0.467733
C75	C	1.579667	-0.572454	-1.041241
C76	C	2.079667	-0.072454	-0.541241
C77	C	1.446051	-0.438776	-1.041249
C78	C	1.946051	0.061224	-0.541249
C79	C	1.441656	-0.434417	-0.967744
C80	C	1.941656	0.065583	-0.467744
C81	C	1.506258	-0.499083	-0.930990
C82	C	2.006258	0.000917	-0.430990
N83	N	1.559431	-0.552348	-0.823035
N84	N	2.059431	-0.052348	-0.323035
N85	N	1.501751	-0.494627	-0.855858
N86	N	2.001751	0.005373	-0.355858
C87	C	1.519548	-0.512730	-0.156226
C88	C	2.019548	-0.012730	0.343774
C89	C	1.515064	-0.507799	-0.077997
C90	C	2.015064	-0.007799	0.422003
H91	H	1.096021	-0.575759	-0.302406
H92	H	1.596021	-0.075759	0.197594
Br93	Br	1.702801	-0.695947	-0.587754
Br94	Br	2.202801	-0.195947	-0.087754
Br95	Br	1.690841	-1.163330	-0.443034
Br96	Br	2.190841	-0.663330	0.056966
H97	H	1.652993	-0.923116	-0.418562
H98	H	2.152993	-0.423116	0.081438
H99	H	1.474028	-1.088291	-0.302463
H100	H	1.974028	-0.588291	0.197537
Br101	Br	1.436264	-0.982027	-0.278016
Br102	Br	1.936264	-0.482027	0.221984
Br103	Br	1.387872	-0.380827	-0.587784
Br104	Br	1.887872	0.119173	-0.087784
H105	H	1.433311	-0.426225	-0.741076
H106	H	1.933311	0.073775	-0.241076
H107	H	1.635866	-0.628657	-1.071160
H108	H	2.135866	-0.128657	-0.571160
H109	H	1.385460	-0.378219	-0.937829
H110	H	1.885460	0.121781	-0.437829
H111	H	1.675718	-0.668750	-0.741067
H112	H	2.175718	-0.168750	-0.241067
Br113	Br	1.171504	-0.375894	-0.443070
Br114	Br	1.671504	0.124106	0.056930
Br115	Br	0.903010	-0.375946	-0.443108
Br116	Br	1.403010	0.124054	0.056892
Br117	Br	1.662944	-0.655857	-0.917862
Br118	Br	2.162944	-0.155857	-0.417862
Br119	Br	0.989684	-0.610541	-0.277960
Br120	Br	1.489684	-0.110541	0.222040
Br121	Br	1.358380	-0.351021	-1.091133
Br122	Br	1.858380	0.148979	-0.591133
