data_functionalizedCrystal
_audit_creation_method	'MofGen! by Chris Wilmer'
_symmetry_space_group_name_H-M	'P1'
_symmetry_Int_Tables_number	1
_symmetry_cell_setting	triclinic
loop_
_symmetry_equiv_pos_as_xyz
  x,y,z
_cell_length_a	9.065215
_cell_length_b	15.995350
_cell_length_c	8.140239
_cell_angle_alpha	89.998714
_cell_angle_beta	89.997810
_cell_angle_gamma	84.253536
loop_
_atom_site_label
_atom_site_type_symbol
_atom_site_fract_x
_atom_site_fract_y
_atom_site_fract_z
O1	O	1.957510	0.122759	-0.136585
O2	O	1.527987	0.132831	-0.136592
O3	O	1.754490	0.005996	-0.136587
O4	O	1.731007	0.249594	-0.136590
O5	O	1.754477	0.005995	0.136640
O6	O	1.527975	0.132830	0.136635
O7	O	1.957497	0.122757	0.136642
Zn8	Zn	1.742734	0.127793	0.180019
Zn9	Zn	1.742750	0.127795	-0.179969
O10	O	1.730995	0.249592	0.136637
C11	C	1.473017	0.131863	0.000021
C12	C	1.309242	0.128970	0.000018
C13	C	1.753513	-0.025207	0.000024
C14	C	1.750602	-0.118179	0.000014
C15	C	1.740150	-0.456006	0.000020
C16	C	1.578839	-0.409794	-0.000596
C17	C	1.581750	-0.313082	0.000020
C18	C	1.745334	-0.288406	0.000016
C19	C	1.824892	-0.328881	0.156040
C20	C	1.820839	-0.425548	0.156171
C21	C	1.824186	-0.425879	-0.154539
C22	C	1.824148	-0.328934	-0.156601
C23	C	1.748273	-0.193686	0.000019
C24	C	1.737216	-0.550726	0.000027
C25	C	2.012467	0.123725	0.000026
C26	C	2.176242	0.126618	0.000018
C27	C	1.731972	0.280795	0.000023
C28	C	1.734882	0.373767	0.000021
N29	N	1.742734	0.127791	0.425702
N30	N	1.742763	0.127790	-0.425652
H31	H	1.514370	-0.428814	-0.112484
H32	H	1.943441	-0.312668	-0.166025
H33	H	1.514646	-0.429875	0.110667
H34	H	1.943120	-0.456738	-0.155591
H35	H	1.945073	-0.313845	0.161840
O36	O	1.506445	-0.280492	0.133626
C37	C	1.358500	-0.300331	0.126571
H38	H	1.352042	-0.358143	0.046001
H39	H	1.285379	-0.245028	0.072293
C40	C	1.312323	-0.247608	0.399982
C41	C	1.304394	-0.318618	0.301035
H42	H	1.278943	-0.258885	0.507599
H43	H	1.411995	-0.234239	0.404734
H44	H	1.251389	-0.201529	0.354731
H45	H	1.365341	-0.364693	0.346275
H46	H	1.204731	-0.331995	0.296295
O47	O	1.761059	-0.450887	-0.295469
C48	C	1.639928	-0.496081	-0.256496
H49	H	1.597480	-0.477656	-0.128396
H50	H	1.676846	-0.566323	-0.259613
C51	C	1.567217	-0.498083	-0.540092
C52	C	1.515073	-0.475447	-0.382762
H53	H	1.490202	-0.485359	-0.617981
H54	H	1.648828	-0.467637	-0.566351
H55	H	1.597981	-0.556617	-0.542666
H56	H	1.484327	-0.416913	-0.380184
H57	H	1.433453	-0.505882	-0.356506
H58	H	1.769625	-0.300919	0.272151
H59	H	1.519212	-0.285133	-0.111824
O60	O	1.962031	-0.463091	0.164573
C61	C	1.959707	-0.551096	0.164827
H62	H	1.852116	-0.567887	0.106733
H63	H	1.967113	-0.575249	0.296630
C64	C	2.224651	-0.571295	0.136888
C65	C	2.092510	-0.591919	0.065522
H66	H	2.306572	-0.596478	0.075639
H67	H	2.226218	-0.512005	0.136723
H68	H	2.230801	-0.591424	0.246722
H69	H	2.086353	-0.571781	-0.044301
H70	H	2.090945	-0.651207	0.065667
O71	O	1.754725	-0.296780	-0.294146
C72	C	1.635351	-0.237928	-0.249053
H73	H	1.655524	-0.212951	-0.120688
H74	H	1.528165	-0.269616	-0.249621
C75	C	1.597721	-0.195252	-0.530086
C76	C	1.622503	-0.164570	-0.372432
H77	H	1.589790	-0.150003	-0.606195
H78	H	1.678141	-0.234904	-0.560469
H79	H	1.508401	-0.221659	-0.530536
H80	H	1.711831	-0.138174	-0.371979
H81	H	1.542098	-0.124912	-0.342052
H82	H	1.762816	-0.444290	0.272804
