data_functionalizedCrystal
_audit_creation_method	'MofGen! by Chris Wilmer'
_symmetry_space_group_name_H-M	'P1'
_symmetry_Int_Tables_number	1
_symmetry_cell_setting	triclinic
loop_
_symmetry_equiv_pos_as_xyz
  x,y,z
_cell_length_a	15.625950
_cell_length_b	15.944551
_cell_length_c	14.749905
_cell_angle_alpha	104.209917
_cell_angle_beta	86.559376
_cell_angle_gamma	83.890525
loop_
_atom_site_label
_atom_site_type_symbol
_atom_site_fract_x
_atom_site_fract_y
_atom_site_fract_z
O1	O	1.127700	0.045903	-0.312631
O2	O	0.883820	0.076282	-0.227752
O3	O	1.012418	-0.061649	-0.272517
O4	O	0.999102	0.183834	-0.267865
O5	O	0.979956	-0.091948	-0.420894
O6	O	0.851358	0.045982	-0.376129
O7	O	1.095237	0.015604	-0.461008
Zn8	Zn	0.968143	0.025982	-0.442126
Zn9	Zn	1.010914	0.065903	-0.246633
O10	O	0.966639	0.153534	-0.416242
C11	C	0.836380	0.062756	-0.291079
C12	C	0.743390	0.067584	-0.258715
C13	C	0.349010	0.000951	-0.556567
C14	C	0.261638	0.005513	-0.526114
C15	C	0.297070	0.038542	-0.364374
C16	C	0.384446	0.033987	-0.394813
C17	C	0.410409	0.015190	-0.490910
C18	C	0.445845	0.048226	-0.329157
C19	C	0.533215	0.043667	-0.359594
C20	C	0.559185	0.024868	-0.455687
C21	C	0.497778	0.010631	-0.521347
C22	C	0.419882	0.067017	-0.233060
C23	C	0.481281	0.081256	-0.167404
C24	C	0.568651	0.076703	-0.197841
C25	C	0.594621	0.057904	-0.293934
C26	C	0.630058	0.090940	-0.132181
C27	C	0.717427	0.086381	-0.162618
C28	C	0.681991	0.053345	-0.324371
C29	C	0.995634	-0.108054	-0.346513
C30	C	0.993976	-0.201185	-0.345937
C31	C	0.910304	-0.410198	-0.316803
C32	C	0.933154	-0.488867	-0.403485
C33	C	0.990978	-0.371700	-0.344886
C34	C	0.965178	-0.458979	-0.257203
C35	C	0.988078	-0.536408	-0.343866
C36	C	1.013837	-0.449154	-0.431637
C37	C	1.045864	-0.419246	-0.285285
C38	C	1.068769	-0.497904	-0.372006
C39	C	0.992647	-0.276815	-0.345474
C40	C	0.986414	-0.631293	-0.343286
C41	C	1.142677	0.029130	-0.397679
C42	C	1.235669	0.024303	-0.430037
C43	C	0.983424	0.199940	-0.342244
C44	C	0.985083	0.293071	-0.342815
N45	N	0.938960	-0.001264	-0.575548
C46	C	0.857533	-0.077307	-0.697994
C47	C	0.877957	-0.058226	-0.604588
C48	C	0.979560	0.036644	-0.639909
C49	C	0.959141	0.017574	-0.733320
C50	C	0.898128	-0.039403	-0.762354
C51	C	0.999737	0.055478	-0.797679
C52	C	0.979323	0.036405	-0.891083
C53	C	0.918314	-0.020571	-0.920126
C54	C	0.877714	-0.058475	-0.855758
C55	C	1.060754	0.112449	-0.768644
C56	C	1.101350	0.150353	-0.833004
C57	C	1.080932	0.131286	-0.926408
C58	C	1.019923	0.074310	-0.955451
C59	C	1.121531	0.169191	-0.990776
C60	C	1.101117	0.150118	-1.084180
C61	C	0.999509	0.055238	-1.048854
N62	N	1.040104	0.093142	-0.113214
H63	H	0.211644	-0.006064	-0.579586
H64	H	0.949817	0.008850	-1.072493
H65	H	0.608907	0.106236	-0.053938
H66	H	1.151030	0.196741	-0.809351
H67	H	1.134174	0.180984	-1.136584
H68	H	0.703128	0.038052	-0.402622
O69	O	0.798364	-0.132775	-0.726197
C70	C	0.826543	-0.214976	-0.711433
H71	H	0.899706	-0.222525	-0.709247
H72	H	0.808236	-0.268504	-0.771167
H73	H	0.794475	-0.220367	-0.641947
H74	H	1.171215	0.215574	-0.967123
O75	O	0.876187	-0.525009	-0.462992
C76	C	0.792726	-0.479710	-0.433680
H77	H	0.788861	-0.445568	-0.355721
H78	H	0.742977	-0.527752	-0.446105
H79	H	0.778852	-0.429180	-0.475510
H80	H	0.843324	-0.372232	-0.293570
O81	O	1.038498	-0.443292	-0.519645
C82	C	1.121728	-0.489201	-0.548807
H83	H	1.156847	-0.494639	-0.484551
H84	H	1.159681	-0.452795	-0.591799
H85	H	1.115961	-0.557289	-0.593652
O86	O	0.644094	0.020340	-0.485156
C87	C	0.692463	-0.045505	-0.454286
H88	H	0.655621	-0.057684	-0.390614
H89	H	0.757502	-0.023946	-0.434160
H90	H	0.703380	-0.108127	-0.513118
O91	O	0.334986	0.071583	-0.203516
C92	C	0.286589	0.137397	-0.234408
H93	H	0.330623	0.186342	-0.248224
H94	H	0.232606	0.172182	-0.178075
H95	H	0.257403	0.106888	-0.301903
O96	O	1.102789	-0.383121	-0.225719
C97	C	1.185995	-0.429361	-0.254006
H98	H	1.180175	-0.497986	-0.297403
H99	H	1.221012	-0.433406	-0.189308
H100	H	1.224080	-0.394083	-0.298178
H101	H	1.135783	-0.535750	-0.395373
O102	O	0.522984	-0.007779	-0.614714
C103	C	0.500307	-0.090064	-0.659787
H104	H	0.493265	-0.130425	-0.606408
H105	H	0.552910	-0.125179	-0.717591
H106	H	0.436409	-0.081128	-0.691811
O107	O	0.940484	-0.464916	-0.169232
C108	C	0.856896	-0.419751	-0.140455
H109	H	0.843511	-0.368818	-0.181887
H110	H	0.852383	-0.386111	-0.062320
H111	H	0.807205	-0.467801	-0.153887
H112	H	0.460130	0.096556	-0.089162
H113	H	0.370147	-0.014342	-0.634818
H114	H	0.901698	-0.036103	-0.996183
H115	H	0.767420	0.097980	-0.109153
H116	H	0.828023	-0.104863	-0.879396
H117	H	0.844892	-0.089095	-0.552186
H118	H	1.077374	0.127975	-0.692589
O119	O	0.271909	0.056659	-0.271025
C120	C	0.313524	-0.007749	-0.232546
H121	H	0.333791	-0.069948	-0.290533
H122	H	0.267283	-0.021876	-0.176945
H123	H	0.373146	0.016494	-0.199045
O124	O	1.038778	0.092000	-0.611535
C125	C	1.048110	0.100688	-0.515300
H126	H	0.987456	0.083723	-0.480481
H127	H	1.057976	0.170750	-0.480526
H128	H	1.106445	0.054618	-0.507075
