data_functionalizedCrystal
_audit_creation_method	'MofGen! by Chris Wilmer'
_symmetry_space_group_name_H-M	'P1'
_symmetry_Int_Tables_number	1
_symmetry_cell_setting	triclinic
loop_
_symmetry_equiv_pos_as_xyz
  x,y,z
_cell_length_a	16.974800
_cell_length_b	12.811415
_cell_length_c	15.455313
_cell_angle_alpha	87.254642
_cell_angle_beta	90.973911
_cell_angle_gamma	84.065383
loop_
_atom_site_label
_atom_site_type_symbol
_atom_site_fract_x
_atom_site_fract_y
_atom_site_fract_z
O1	O	1.050013	0.133135	-0.008866
O2	O	0.820693	0.149085	-0.026226
O3	O	0.940553	-0.010906	-0.005219
O4	O	0.930153	0.293126	-0.029873
O5	O	0.933698	-0.001795	0.137844
O6	O	0.813838	0.158196	0.116838
O7	O	1.043158	0.142247	0.134198
Cu8	Cu	0.927872	0.151053	0.138581
Cu9	Cu	0.935979	0.140278	-0.030609
O10	O	0.923298	0.302237	0.113191
C11	C	0.787901	0.152867	0.043305
C12	C	0.700403	0.150550	0.037342
C13	C	0.655564	0.154425	0.112527
C14	C	0.573352	0.152231	0.106928
C15	C	0.535979	0.146169	0.026143
C16	C	0.580824	0.142290	-0.049047
C17	C	0.663035	0.144477	-0.043447
C18	C	0.290505	0.139090	0.001032
C19	C	0.208287	0.136906	-0.004563
C20	C	0.200821	0.146845	0.151414
C21	C	0.283034	0.149038	0.157006
C22	C	0.327872	0.145153	0.081817
N23	N	0.451945	0.143929	0.020418
N24	N	0.411905	0.147385	0.087543
C25	C	0.936333	-0.045262	0.069317
C26	C	0.933961	-0.161207	0.078268
C27	C	0.936964	-0.389003	-0.060899
C28	C	0.934735	-0.497944	-0.052493
C29	C	0.927271	-0.488031	0.103485
C30	C	0.929499	-0.379090	0.095079
C31	C	0.934347	-0.329580	0.012884
C32	C	0.936581	-0.220638	0.004479
C33	C	0.929110	-0.210726	0.160456
C34	C	0.926882	-0.319667	0.168862
C35	C	1.075951	0.138465	0.064665
C36	C	1.163449	0.140782	0.070622
C37	C	0.927518	0.336594	0.038653
C38	C	0.929890	0.452538	0.029696
N39	N	0.922177	0.158631	0.257580
N40	N	0.941680	0.132692	-0.149607
C41	C	0.973116	0.090687	0.311898
C42	C	0.968816	0.096427	0.401952
C43	C	0.913580	0.170118	0.437686
C44	C	0.862636	0.238066	0.383362
C45	C	0.866932	0.232319	0.293309
C46	C	0.895033	0.194893	0.706016
C47	C	0.890742	0.200637	0.796075
C48	C	0.996921	0.058996	0.814659
C49	C	1.001216	0.053261	0.724604
C50	C	0.950269	0.121204	0.670287
N51	N	0.909185	0.175990	0.529736
N52	N	0.954661	0.115327	0.578240
H53	H	0.550389	0.137347	-0.114824
O54	O	0.922214	-0.367938	0.248641
C55	C	0.915434	-0.531367	0.330717
C56	C	0.920734	-0.476840	0.240316
H57	H	0.914220	-0.619420	0.324016
H58	H	0.969095	-0.516978	0.372136
H59	H	0.859001	-0.498048	0.362924
H60	H	0.977134	-0.510125	0.208034
H61	H	0.867033	-0.491224	0.198960
H62	H	0.536850	0.155369	0.168153
H63	H	0.817657	0.298063	0.412462
H64	H	0.936864	-0.546321	-0.112576
O65	O	0.926431	-0.152937	0.232100
C66	C	0.856507	-0.012516	0.307425
C67	C	0.859429	-0.077895	0.226256
H68	H	0.802350	0.048185	0.302718
H69	H	0.852609	-0.066566	0.367635
H70	H	0.912440	0.029282	0.311984
H71	H	0.803510	-0.119701	0.221613
H72	H	0.863367	-0.023792	0.166085
H73	H	0.699542	0.141323	-0.104671
O74	O	1.054528	-0.018651	0.689763
C75	C	1.107424	-0.091289	0.559297
C76	C	1.047232	-0.009513	0.598632
H77	H	1.101534	-0.083943	0.485614
H78	H	1.170011	-0.076962	0.580057
H79	H	1.095251	-0.173563	0.583113
H80	H	1.059332	0.072793	0.574836
H81	H	0.984665	-0.023932	0.577877
O82	O	0.941253	-0.172701	-0.075428
C83	C	0.948462	-0.194044	-0.229246
C84	C	0.943156	-0.248458	-0.138803
H85	H	0.950019	-0.255271	-0.280507
H86	H	0.894633	-0.133922	-0.241739
H87	H	1.004726	-0.152650	-0.232439
H88	H	0.886925	-0.289911	-0.135544
H89	H	0.997024	-0.308522	-0.126348
H90	H	1.038399	0.003678	0.858892
H91	H	0.164306	0.150006	0.212629
H92	H	0.940918	-0.348692	-0.127825
H93	H	0.923317	-0.528360	0.170404
O94	O	0.837005	0.272244	0.830647
C95	C	0.732156	0.412144	0.802717
C96	C	0.792960	0.331092	0.763449
H97	H	0.696541	0.459759	0.748405
H98	H	0.690418	0.369633	0.845633
H99	H	0.764538	0.467097	0.843192
H100	H	0.760644	0.276117	0.722933
H101	H	0.834695	0.373672	0.720581
O102	O	0.845666	0.260945	0.653174
C103	C	0.834747	0.397099	0.539221
C104	C	0.890745	0.322323	0.599000
H105	H	0.871171	0.446758	0.495419
H106	H	0.797080	0.349242	0.497782
H107	H	0.794524	0.450709	0.580259
H108	H	0.931017	0.268698	0.558030
H109	H	0.928357	0.370245	0.640444
H110	H	0.327003	0.135923	-0.060193
O111	O	1.026795	0.019010	0.277332
C112	C	1.131684	-0.120833	0.305279
C113	C	1.070918	-0.039721	0.344535
H114	H	1.167385	-0.168324	0.359593
H115	H	1.099348	-0.175895	0.264865
H116	H	1.173346	-0.078268	0.262305
H117	H	1.029240	-0.082197	0.387549
H118	H	1.103307	0.015337	0.384898
H119	H	1.010293	0.041101	0.446178
O120	O	0.817417	0.298433	0.240666
C121	C	0.711617	0.439485	0.231732
C122	C	0.767663	0.364694	0.291449
H123	H	0.671365	0.493061	0.272766
H124	H	0.747974	0.489169	0.187871
H125	H	0.673983	0.391533	0.190341
H126	H	0.805309	0.412563	0.332894
H127	H	0.731259	0.315006	0.335252
H128	H	0.685986	0.159370	0.178310
H129	H	0.313457	0.153969	0.222791
O130	O	0.172111	0.130976	-0.083108
C131	C	0.188179	0.121429	-0.237231
C132	C	0.229253	0.128108	-0.148339
H133	H	0.234358	0.119131	-0.289997
H134	H	0.156595	0.047122	-0.237595
H135	H	0.143160	0.193174	-0.249914
H136	H	0.274308	0.056418	-0.135601
H137	H	0.260785	0.202460	-0.148020
