data_functionalizedCrystal
_audit_creation_method	'MofGen! by Chris Wilmer'
_symmetry_space_group_name_H-M	'P1'
_symmetry_Int_Tables_number	1
_symmetry_cell_setting	triclinic
loop_
_symmetry_equiv_pos_as_xyz
  x,y,z
_cell_length_a	23.196402
_cell_length_b	19.376995
_cell_length_c	23.196401
_cell_angle_alpha	90.014017
_cell_angle_beta	60.008822
_cell_angle_gamma	72.117230
loop_
_atom_site_label
_atom_site_type_symbol
_atom_site_fract_x
_atom_site_fract_y
_atom_site_fract_z
Zr1	Zr	0.802658	0.580544	-0.161444
O2	O	0.894466	0.484301	-0.239263
O3	O	0.691115	0.610046	-0.137591
O4	O	0.811374	0.610019	-0.257852
O5	O	0.774213	0.484351	-0.024134
O6	O	0.840698	0.709191	-0.272512
O7	O	0.774207	0.484327	-0.119002
O8	O	0.625576	0.709239	-0.057386
O9	O	0.989334	0.484303	-0.239260
O10	O	0.766187	0.696642	-0.138355
O11	O	0.744307	0.622649	-0.056615
O12	O	0.885897	0.622617	-0.198208
O13	O	0.864017	0.548624	-0.116468
Zr14	Zr	0.849434	0.738750	-0.033521
Zr15	Zr	0.849426	0.738712	-0.184824
Zr16	Zr	0.802666	0.580582	-0.010140
Zr17	Zr	0.953961	0.580549	-0.161438
Zr18	Zr	0.698131	0.738746	-0.033527
O19	O	0.960977	0.709248	-0.057374
O20	O	0.960964	0.709195	-0.272507
O21	O	0.894479	0.484354	-0.024130
O22	O	0.757626	0.834994	0.044299
O23	O	0.757613	0.834940	-0.170835
O24	O	0.691128	0.610100	0.077543
O25	O	0.877879	0.834944	-0.170830
O26	O	0.840718	0.709275	0.062888
O27	O	0.811394	0.610103	0.077547
O28	O	0.877885	0.834967	-0.075962
O29	O	1.026509	0.610026	-0.257844
O30	O	0.625583	0.709269	0.062879
O31	O	0.662758	0.834991	0.044295
O32	O	0.662750	0.834961	-0.075971
O33	O	0.989341	0.484333	-0.118994
O34	O	1.026516	0.610056	-0.137578
O35	O	0.766195	0.696677	0.003243
O36	O	0.788075	0.770670	-0.078496
O37	O	0.907785	0.696646	-0.138349
O38	O	0.885905	0.622653	-0.056610
C39	C	0.636788	0.659642	-0.097490
C40	C	0.572556	0.659640	-0.097492
C41	C	0.767546	0.461804	-0.068237
C42	C	0.747692	0.394657	-0.058311
C43	C	0.553805	0.698259	-0.140161
C44	C	0.493446	0.698266	-0.140156
C45	C	0.451847	0.659640	-0.097490
C46	C	0.470602	0.621019	-0.054813
C47	C	0.530956	0.621020	-0.054814
C48	C	0.370684	0.594927	-0.093199
C49	C	0.310334	0.594925	-0.093203
C50	C	0.265693	0.659641	-0.097483
C51	C	0.281417	0.724358	-0.101774
C52	C	0.341771	0.724358	-0.101775
C53	C	0.386402	0.659636	-0.097484
C54	C	0.181494	0.698271	-0.140149
C55	C	0.121131	0.698280	-0.140140
C56	C	0.098292	0.621026	-0.054800
C57	C	0.158650	0.621024	-0.054806
C58	C	0.200250	0.659645	-0.097484
C59	C	0.657226	0.338654	-0.013080
C60	C	0.675889	0.401743	-0.022411
C61	C	0.800861	0.324472	-0.084893
C62	C	0.782208	0.261374	-0.075564
C63	C	0.710389	0.268472	-0.039659
C64	C	0.835372	0.191192	-0.102143
C65	C	0.816720	0.128100	-0.092818
C66	C	0.744905	0.135190	-0.056916
C67	C	0.691738	0.205380	-0.030334
C68	C	0.907190	0.184097	-0.138052
C69	C	0.960354	0.113915	-0.164630
C70	C	0.941703	0.050821	-0.155302
C71	C	0.869888	0.057911	-0.119400
C72	C	0.994870	-0.019368	-0.181884
C73	C	0.976219	-0.082460	-0.172559
C74	C	0.851236	-0.005181	-0.110075
C75	C	1.015304	0.659653	-0.097475
C76	C	1.079536	0.659654	-0.097472
C77	C	0.826035	0.659600	-0.286740
C78	C	0.826031	0.659584	-0.350972
C79	C	0.884546	0.857491	-0.126728
C80	C	0.904400	0.924637	-0.136653
C81	C	0.888517	0.620947	-0.412388
C82	C	0.888524	0.620966	-0.472746
C83	C	0.826037	0.659611	-0.471682
C84	C	0.763544	0.698256	-0.410255
C85	C	0.763541	0.698242	-0.349900
C86	C	0.767786	0.654122	-0.538190
C87	C	0.767791	0.654130	-0.598545
C88	C	0.826045	0.659658	-0.657837
C89	C	0.884304	0.665162	-0.656771
C90	C	0.884301	0.665149	-0.596416
C91	C	0.826034	0.659631	-0.537124
C92	C	0.888543	0.621040	-0.784702
C93	C	0.888548	0.621064	-0.845061
C94	C	0.763564	0.698349	-0.782567
C95	C	0.763563	0.698330	-0.722211
C96	C	0.826053	0.659671	-0.723283
C97	C	0.826057	0.659695	0.091775
C98	C	0.826061	0.659711	0.156007
C99	C	0.695288	0.857485	-0.126735
C100	C	0.650909	0.924630	-0.136663
C101	C	0.636799	0.659689	0.091768
C102	C	0.572571	0.659703	0.155998
C103	C	0.695299	0.857533	0.062522
C104	C	0.650924	0.924693	0.116827
C105	C	0.956793	0.461762	-0.257487
C106	C	1.001168	0.394601	-0.311791
C107	C	0.956804	0.461809	-0.068230
C108	C	1.001182	0.394664	-0.058302
C109	C	1.015293	0.659605	-0.286732
C110	C	1.079521	0.659591	-0.350962
C111	C	0.618644	0.917520	-0.172577
C112	C	0.576952	0.980603	-0.181919
C113	C	0.567523	1.050796	-0.155342
C114	C	0.599795	1.057905	-0.119426
C115	C	0.641489	0.994822	-0.110089
C116	C	0.553833	0.698352	0.217412
C117	C	0.493492	0.698363	0.277769
C118	C	0.451885	0.659728	0.276709
C119	C	0.470626	0.621075	0.215288
C120	C	0.530970	0.621060	0.154933
C121	C	0.641509	0.994863	0.099660
C122	C	0.599824	1.057974	0.150678
C123	C	0.567552	1.050913	0.218862
C124	C	0.576972	0.980736	0.236028
C125	C	0.618659	0.917627	0.185010
C126	C	1.010591	0.324431	-0.294625
C127	C	1.052294	0.261321	-0.345643
C128	C	1.084569	0.268382	-0.413826
C129	C	1.075146	0.338559	-0.430992
C130	C	1.033447	0.401668	-0.379975
C131	C	1.033455	0.401775	-0.022394
C132	C	1.075163	0.338692	-0.013069
C133	C	1.084594	0.268498	-0.039648
C134	C	1.052319	0.261390	-0.075560
C135	C	1.010616	0.324472	-0.084889
C136	C	1.121111	0.698233	-0.349880
C137	C	1.181457	0.698234	-0.410228
C138	C	1.200215	0.659588	-0.471655
C139	C	1.158619	0.620945	-0.472735
C140	C	1.098271	0.620949	-0.412389
H141	H	0.478176	0.729715	-0.174903
H142	H	0.792754	0.000600	-0.080832
H143	H	1.059957	0.204186	-0.331653
H144	H	0.729720	0.083815	-0.049328
H145	H	0.550680	0.974800	-0.211163
N146	N	0.178879	0.579371	-0.008784
H147	H	0.143369	0.554903	0.018247
H148	H	0.227977	0.540524	-0.036974
N149	N	1.129563	0.200460	-0.029575
H150	H	1.170666	0.170076	-0.075132
H151	H	1.148521	0.215678	-0.002766
H152	H	0.550690	0.974998	0.291549
N153	N	0.522575	1.118985	0.273882
H154	H	0.503553	1.103871	0.319684
H155	H	0.552595	1.149327	0.269360
N156	N	0.614276	0.213026	0.008402
H157	H	0.583424	0.267061	0.023830
H158	H	0.603812	0.188523	-0.021911
H159	H	1.064413	0.589479	-0.413279
H160	H	0.297539	0.542228	-0.089712
H161	H	1.249356	0.659591	-0.520787
H162	H	1.053345	-0.025135	-0.211124
N163	N	0.618540	0.477441	0.006262
H164	H	0.623492	0.505352	0.039329
H165	H	0.623524	0.505269	-0.031798
N166	N	1.023275	0.477353	-0.398489
H167	H	1.071066	0.483261	-0.426023
H168	H	0.999961	0.483192	-0.426000
H169	H	1.025780	0.458924	-0.000743
N170	N	0.522553	1.118832	-0.165417
H171	H	0.503545	1.103670	-0.192201
H172	H	0.481485	1.149184	-0.119833
H173	H	0.354570	0.777053	-0.105267
N174	N	0.696159	0.739995	-0.655967
H175	H	0.682387	0.704556	-0.624057
H176	H	0.704403	0.778868	-0.635065
N177	N	0.955924	0.579284	-0.538995
H178	H	0.947715	0.540416	-0.559946
H179	H	0.969669	0.614767	-0.570860
H180	H	0.859336	0.318704	-0.114129
N181	N	0.598672	0.739912	-0.186190
H182	H	0.577631	0.764379	-0.213220
H183	H	0.599657	0.778761	-0.158001
N184	N	1.178854	0.579265	-0.538990
H185	H	1.223397	0.585128	-0.577049
H186	H	1.187882	0.525235	-0.536598
N187	N	0.704952	0.648203	-0.599687
H188	H	0.721241	0.602609	-0.632885
H189	H	0.668072	0.644743	-0.552941
N190	N	0.975792	0.316796	-0.221090
H191	H	0.993524	0.341262	-0.198016
H192	H	0.922447	0.341236	-0.198071
N193	N	0.425740	0.579355	-0.008798
H194	H	0.446779	0.554889	0.018234
H195	H	0.375647	0.614837	0.023109
N196	N	0.579764	0.346300	0.025656
H197	H	0.548912	0.400335	0.041084
H198	H	0.569300	0.321797	-0.004657
N199	N	0.226364	0.739926	-0.186176
H200	H	0.227369	0.778808	-0.158034
H201	H	0.276439	0.704428	-0.218120
H202	H	0.931736	0.669632	-0.595551
H203	H	1.101435	0.344494	0.016176
N204	N	1.062482	0.185679	-0.104211
H205	H	1.114813	0.157765	-0.137271
H206	H	1.043691	0.157868	-0.066138
N207	N	0.233279	0.794164	-0.106394
H208	H	0.192656	0.784348	-0.105739
H209	H	0.213717	0.834010	-0.066595
N210	N	1.037811	0.106270	-0.203358
H211	H	1.048334	0.130737	-0.173075
H212	H	1.068611	0.052222	-0.218777
N213	N	1.129542	0.200311	-0.468849
H214	H	1.130608	0.154789	-0.447622
H215	H	1.108502	0.200333	-0.497877
H216	H	0.626318	0.860494	0.198997
N217	N	0.425738	0.579419	0.214151
H218	H	0.446758	0.554930	0.166087
H219	H	0.424756	0.540588	0.243325
N220	N	0.100902	0.739939	-0.186160
H221	H	0.136416	0.764401	-0.213196
H222	H	0.100908	0.704455	-0.218064
N223	N	0.696168	0.740041	-0.781410
H224	H	0.682390	0.704621	-0.799580
H225	H	0.656630	0.764512	-0.733326
N226	N	0.589623	1.133615	-0.090764
H227	H	0.558310	1.172492	-0.102130
H228	H	0.566351	1.139477	-0.039945
H229	H	0.626321	0.860371	-0.194230
N230	N	1.109958	0.346168	-0.504534
H231	H	1.137799	0.295538	-0.534242
H232	H	1.072116	0.374055	-0.514255
H233	H	0.922374	0.235473	-0.145644
H234	H	1.019510	-0.139606	-0.194203
H235	H	0.712667	0.729722	-0.409393
H236	H	0.546222	0.589570	-0.020067
N237	N	0.975810	0.316798	-0.123619
H238	H	0.988115	0.262757	-0.139038
H239	H	0.922469	0.341290	-0.093309
H240	H	0.939403	0.589472	-0.413267
N241	N	1.100889	0.739917	-0.283632
H242	H	1.136397	0.764396	-0.292114
H243	H	1.051789	0.778758	-0.262726
H244	H	0.478241	0.729842	0.327774
N245	N	0.386793	0.659756	0.341806
H246	H	0.392318	0.607436	0.349579
H247	H	0.381273	0.690141	0.380830
H248	H	0.587704	0.729813	0.218288
H249	H	0.546217	0.589590	0.104929
N250	N	0.676286	1.002497	-0.071349
H251	H	0.663981	1.056537	-0.055931
H252	H	0.658537	0.978020	-0.030570
H253	H	0.667780	1.000626	0.044145
N254	N	0.589669	1.133658	0.132156
H255	H	0.616434	1.128548	0.081220
H256	H	0.537324	1.161526	0.151467
H257	H	1.215319	0.729701	-0.409335
H258	H	0.064423	0.589577	-0.020060
N259	N	0.947143	0.671121	-0.720715
H260	H	0.938306	0.670298	-0.759112
H261	H	0.953684	0.718881	-0.713413
N262	N	0.418827	0.525122	-0.088579
H263	H	0.438447	0.485245	-0.128378
H264	H	0.459407	0.535007	-0.089207
N265	N	0.955937	0.579355	-0.785846
H266	H	0.972274	0.525309	-0.804536
H267	H	0.994196	0.599680	-0.815471
N268	N	0.955956	0.579420	-0.911312
H269	H	0.995542	0.554937	-0.902830
H270	H	0.947712	0.540586	-0.932260
H271	H	0.712655	0.729705	-0.299891
N272	N	0.704949	0.648164	-0.474240
H273	H	0.668048	0.644673	-0.484074
H274	H	0.721311	0.602563	-0.457393
