data_functionalizedCrystal
_audit_creation_method	'MofGen! by Chris Wilmer'
_symmetry_space_group_name_H-M	'P1'
_symmetry_Int_Tables_number	1
_symmetry_cell_setting	triclinic
loop_
_symmetry_equiv_pos_as_xyz
  x,y,z
_cell_length_a	25.639242
_cell_length_b	25.639233
_cell_length_c	11.169416
_cell_angle_alpha	90.007165
_cell_angle_beta	89.995614
_cell_angle_gamma	89.985652
loop_
_atom_site_label
_atom_site_type_symbol
_atom_site_fract_x
_atom_site_fract_y
_atom_site_fract_z
Zn1	Zn	0.799322	-0.295675	0.478200
Zn2	Zn	0.799286	-0.208257	0.678868
Zn3	Zn	0.711898	-0.208251	0.478171
Zn4	Zn	0.711884	-0.295659	0.678812
O5	O	0.755597	-0.251961	0.578513
O6	O	0.872482	-0.284088	0.504854
O7	O	0.787685	-0.135091	0.652257
O8	O	0.723516	-0.219853	0.310225
O9	O	0.872456	-0.219863	0.652285
O10	O	0.787746	-0.284083	0.310246
O11	O	0.723481	-0.135087	0.504805
O12	O	0.638731	-0.219837	0.504751
O13	O	0.723492	-0.368827	0.652189
O14	O	0.638720	-0.284055	0.652161
O15	O	0.787732	-0.368838	0.504800
O16	O	0.787671	-0.219847	0.846811
O17	O	0.723457	-0.284061	0.846770
C18	C	0.619755	-0.251944	0.578448
C19	C	0.561641	-0.251949	0.578449
C20	C	0.310469	-0.285464	0.501882
C21	C	0.365073	-0.285461	0.501870
O22	O	0.393329	-0.313953	0.436718
N23	N	0.392367	-0.251967	0.578499
C24	C	0.365053	-0.218477	0.655153
O25	O	0.393282	-0.189987	0.720331
C26	C	0.310450	-0.218483	0.655170
C27	C	0.283159	-0.251976	0.578528
C28	C	0.283178	-0.318955	0.425247
C29	C	0.228578	-0.318957	0.425258
C30	C	0.201268	-0.285468	0.501903
C31	C	0.228559	-0.251978	0.578538
C32	C	0.283137	-0.184996	0.731829
C33	C	0.228530	-0.185005	0.731840
C34	C	0.201239	-0.218498	0.655198
C35	C	0.146648	-0.218492	0.655194
N36	N	0.119355	-0.251986	0.578566
C37	C	0.146665	-0.285474	0.501920
C38	C	0.479724	-0.218468	0.655113
C39	C	0.534326	-0.218459	0.655091
C40	C	0.534343	-0.285444	0.501809
C41	C	0.479739	-0.285450	0.501826
C42	C	0.452430	-0.251962	0.578484
C43	C	0.032000	-0.285476	0.501948
C44	C	-0.022606	-0.285474	0.501961
C45	C	-0.022618	-0.218491	0.655247
C46	C	0.031983	-0.218491	0.655229
C47	C	0.059290	-0.251988	0.578575
O48	O	0.118358	-0.190016	0.720317
O49	O	0.118429	-0.313964	0.436764
C50	C	0.755614	-0.388334	0.578492
C51	C	0.755621	-0.446448	0.578483
C52	C	0.789114	-0.806823	0.501509
C53	C	0.789120	-0.861427	0.501476
O54	O	0.817554	-0.889674	0.436172
N55	N	0.755679	-0.888731	0.578201
C56	C	0.722225	-0.861427	0.654957
O57	O	0.693781	-0.889664	0.720214
C58	C	0.722217	-0.806823	0.654983
C59	C	0.755664	-0.779523	0.578261
C60	C	0.822558	-0.779522	0.424792
C61	C	0.822552	-0.724922	0.424828
C62	C	0.789102	-0.697622	0.501579
C63	C	0.755658	-0.724922	0.578296
C64	C	0.688761	-0.779521	0.731731
C65	C	0.688755	-0.724913	0.731750
C66	C	0.722202	-0.697613	0.655028
C67	C	0.722202	-0.643022	0.655083
N68	N	0.755643	-0.615718	0.578357
C69	C	0.789093	-0.643018	0.501605
C70	C	0.722246	-0.976097	0.654894
C71	C	0.722256	-1.030700	0.654875
C72	C	0.789151	-1.030696	0.501392
C73	C	0.789142	-0.976093	0.501419
C74	C	0.755687	-0.948794	0.578169
C75	C	0.789079	-0.528353	0.501686
C76	C	0.789071	-0.473748	0.501731
C77	C	0.722175	-0.473756	0.655209
C78	C	0.722184	-0.528357	0.655168
C79	C	0.755638	-0.555654	0.578397
O80	O	0.693781	-0.614740	0.720350
O81	O	0.817528	-0.614774	0.436348
C82	C	0.891970	-0.251978	0.578579
C83	C	0.950084	-0.251985	0.578607
C84	C	0.755572	-0.251964	0.890337
C85	C	0.755610	-0.251983	1.023737
C86	C	0.755611	-0.116118	0.578447
C87	C	0.755705	-0.058005	0.578118
C88	C	0.755633	-0.251976	1.265470
C89	C	0.755639	-0.252000	1.132070
H90	H	0.054204	-0.191214	0.717626
H91	H	0.816310	-0.451522	0.439254
F92	F	0.824681	-0.557398	0.419972
H93	H	0.054227	-0.312752	0.439528
H94	H	0.695026	-1.052923	0.717363
H95	H	0.695002	-0.953874	0.717400
F96	F	0.653163	-0.808564	0.813394
F97	F	-0.051692	-0.182851	0.736811
F98	F	0.686590	-0.557413	0.736831
F99	F	0.450664	-0.182818	0.736697
H100	H	-0.044823	-0.312748	0.439544
F101	F	0.199540	-0.354608	0.343692
F102	F	0.858148	-0.695873	0.343163
H103	H	0.816377	-0.953869	0.438943
H104	H	0.694943	-0.451518	0.717702
H105	H	0.849797	-0.801744	0.362285
H106	H	0.305408	-0.346227	0.362833
H107	H	0.816386	-1.052934	0.438894
F108	F	0.653145	-0.695863	0.813438
H109	H	0.556588	-0.312712	0.439401
F110	F	0.450699	-0.321097	0.420256
F111	F	0.312170	-0.149341	0.813389
F112	F	0.563365	-0.182802	0.736644
H113	H	0.206298	-0.157736	0.794269
