data_functionalizedCrystal
_audit_creation_method	'MofGen! by Chris Wilmer'
_symmetry_space_group_name_H-M	'P1'
_symmetry_Int_Tables_number	1
_symmetry_cell_setting	triclinic
loop_
_symmetry_equiv_pos_as_xyz
  x,y,z
_cell_length_a	25.639242
_cell_length_b	25.639239
_cell_length_c	21.395355
_cell_angle_alpha	90.019334
_cell_angle_beta	90.033313
_cell_angle_gamma	90.034213
loop_
_atom_site_label
_atom_site_type_symbol
_atom_site_fract_x
_atom_site_fract_y
_atom_site_fract_z
Zn1	Zn	0.799283	-0.208274	0.354404
Zn2	Zn	0.799189	-0.295693	0.249625
Zn3	Zn	0.711842	-0.208267	0.249625
Zn4	Zn	0.711804	-0.295673	0.354349
O5	O	0.755529	-0.251977	0.302001
O6	O	0.872435	-0.219881	0.340528
O7	O	0.787579	-0.284102	0.161947
O8	O	0.723496	-0.135103	0.263547
O9	O	0.872367	-0.284108	0.263547
O10	O	0.787738	-0.135108	0.340528
O11	O	0.723405	-0.219870	0.161947
O12	O	0.638672	-0.219850	0.263494
O13	O	0.723432	-0.284074	0.442035
O14	O	0.638644	-0.284067	0.340434
O15	O	0.787702	-0.219862	0.442075
O16	O	0.787542	-0.368856	0.263494
O17	O	0.723341	-0.368841	0.340435
C18	C	0.619687	-0.251956	0.301959
C19	C	0.561573	-0.251960	0.301955
C20	C	0.201204	-0.285470	0.342026
C21	C	0.146600	-0.285474	0.342036
O22	O	0.118358	-0.313940	0.376070
N23	N	0.119290	-0.251991	0.302042
C24	C	0.146588	-0.218500	0.262040
O25	O	0.118345	-0.190020	0.228023
C26	C	0.201191	-0.218494	0.262034
C27	C	0.228498	-0.251983	0.302026
C28	C	0.228511	-0.318956	0.382015
C29	C	0.283111	-0.318953	0.382004
C30	C	0.310405	-0.285465	0.342004
C31	C	0.283098	-0.251980	0.302015
C32	C	0.228488	-0.185000	0.222035
C33	C	0.283095	-0.184998	0.222033
C34	C	0.310402	-0.218486	0.262025
C35	C	0.364993	-0.218489	0.262004
N36	N	0.392302	-0.251972	0.301998
C37	C	0.365008	-0.285460	0.341998
C38	C	0.031917	-0.218513	0.262057
C39	C	-0.022685	-0.218521	0.262059
C40	C	-0.022669	-0.285494	0.342056
C41	C	0.031934	-0.285489	0.342050
C42	C	0.059227	-0.251995	0.302051
C43	C	0.479674	-0.285452	0.341972
C44	C	0.534279	-0.285448	0.341955
C45	C	0.534259	-0.218473	0.261961
C46	C	0.479658	-0.218479	0.261975
C47	C	0.452367	-0.251970	0.301985
O48	O	0.393269	-0.190036	0.227989
O49	O	0.393258	-0.313930	0.376015
C50	C	0.755441	-0.387819	0.301972
C51	C	0.755452	-0.445933	0.301981
C52	C	0.789046	-0.806292	0.262006
C53	C	0.789067	-0.860896	0.262015
O54	O	0.817539	-0.889129	0.227996
N55	N	0.755621	-0.888216	0.302043
C56	C	0.722157	-0.860929	0.342069
O57	O	0.693712	-0.889180	0.376117
C58	C	0.722140	-0.806325	0.342063
C59	C	0.755584	-0.779008	0.302028
C60	C	0.822488	-0.778975	0.221975
C61	C	0.822467	-0.724374	0.221966
C62	C	0.789004	-0.697091	0.261988
C63	C	0.755563	-0.724408	0.302019
C64	C	0.688679	-0.779039	0.382092
C65	C	0.688665	-0.724432	0.382084
C66	C	0.722109	-0.697115	0.342049
C67	C	0.722079	-0.642524	0.342032
N68	N	0.755524	-0.615204	0.302005
C69	C	0.788987	-0.642487	0.261983
C70	C	0.722197	-0.975599	0.342079
C71	C	0.722211	-1.030202	0.342082
C72	C	0.789121	-1.030165	0.262028
C73	C	0.789104	-0.975562	0.262022
C74	C	0.755642	-0.948279	0.302051
C75	C	0.788940	-0.527822	0.261966
C76	C	0.788914	-0.473217	0.261959
C77	C	0.722006	-0.473258	0.342014
C78	C	0.722030	-0.527859	0.342020
C79	C	0.755501	-0.555139	0.301994
O80	O	0.693623	-0.614256	0.376036
O81	O	0.817433	-0.614229	0.227946
C82	C	0.891902	-0.251998	0.302044
C83	C	0.950016	-0.252007	0.302062
C84	C	0.755573	-0.251966	0.465424
C85	C	0.755591	-0.251962	0.535066
C86	C	0.755632	-0.115604	0.302044
C87	C	0.755676	-0.057490	0.302062
C88	C	0.755516	-0.251950	0.139213
C89	C	0.755599	-0.251807	0.069573
C90	C	0.789055	-0.218525	0.567801
C91	C	0.789055	-0.218503	0.633236
C92	C	0.755595	-0.251926	0.665934
C93	C	0.722125	-0.285365	0.633191
C94	C	0.722123	-0.285383	0.567757
C95	C	0.751437	-0.299003	0.769598
C96	C	0.751442	-0.298986	0.835031
C97	C	0.755599	-0.251871	0.867755
C98	C	0.759760	-0.204771	0.835038
C99	C	0.759758	-0.204789	0.769604
C100	C	0.755594	-0.251910	0.736886
C101	C	0.789064	-0.218407	0.971443
C102	C	0.789059	-0.218384	1.036879
C103	C	0.722132	-0.285251	1.036833
C104	C	0.722134	-0.285269	0.971397
C105	C	0.755602	-0.251848	0.938706
H106	H	0.054136	-0.191239	0.229480
C107	C	0.825928	-1.060184	0.218002
H108	H	0.821148	-1.096615	0.223746
H109	H	0.818290	-1.051259	0.175894
H110	H	0.861054	-1.051203	0.227217
C111	C	0.313142	-0.355784	0.426004
H112	H	0.289060	-0.375722	0.449830
H113	H	0.334419	-0.378538	0.401993
H114	H	0.334466	-0.335811	0.453348
C115	C	0.764332	-0.152940	0.871022
H116	H	0.766814	-0.124894	0.842166
H117	H	0.734371	-0.148331	0.896527
H118	H	0.794642	-0.153617	0.896568
C119	C	0.685320	-0.322131	0.669153
H120	H	0.665386	-0.342046	0.640283
H121	H	0.705303	-0.344909	0.694691
H122	H	0.662554	-0.302117	0.694664
C123	C	0.685380	-0.945593	0.386105
H124	H	0.665463	-0.969688	0.409938
H125	H	0.705357	-0.924263	0.413432
H126	H	0.662599	-0.924324	0.362102
H127	H	0.816307	-0.191310	0.541188
C128	C	0.825870	-0.181725	0.669252
H129	H	0.845805	-0.161826	0.640411
H130	H	0.805893	-0.158933	0.694769
H131	H	0.848636	-0.201732	0.694789
H132	H	0.694760	-0.451035	0.374598
C133	C	0.313117	-0.148156	0.178033
H134	H	0.349548	-0.152944	0.183755
H135	H	0.304137	-0.155753	0.135920
H136	H	0.304191	-0.113037	0.187288
H137	H	0.661417	-0.702221	0.414682
C138	C	0.685329	-0.322054	0.935384
H139	H	0.690117	-0.317275	0.891731
H140	H	0.692953	-0.357181	0.946112
H141	H	0.650203	-0.314390	0.946085
C142	C	0.746871	-0.350792	0.871017
H143	H	0.747476	-0.344035	0.914673
H144	H	0.715029	-0.367509	0.860276
H145	H	0.775300	-0.372791	0.860307
C146	C	0.746864	-0.350832	0.733605
H147	H	0.747454	-0.344097	0.689949
H148	H	0.775290	-0.372826	0.744347
H149	H	0.715019	-0.367542	0.744308
H150	H	0.457424	-0.191211	0.229409
C151	C	0.859261	-0.694332	0.177935
H152	H	0.879195	-0.718408	0.154109
H153	H	0.839273	-0.673058	0.150602
H154	H	0.882028	-0.673004	0.201935
C155	C	0.825896	-0.945518	0.217990
H156	H	0.845827	-0.969592	0.194160
H157	H	0.805904	-0.924243	0.190661
H158	H	0.848664	-0.924191	0.241988
C159	C	0.764329	-0.152985	0.733614
H160	H	0.763736	-0.159746	0.689958
H161	H	0.735904	-0.130985	0.744318
H162	H	0.796175	-0.136268	0.744355
H163	H	0.694870	-0.312610	0.541104
H164	H	0.816313	-0.191191	0.944824
C165	C	0.685242	-0.557909	0.386056
H166	H	0.665312	-0.533837	0.409892
H167	H	0.662479	-0.579246	0.362068
H168	H	0.705246	-0.579174	0.413388
H169	H	0.816309	-0.191153	1.063531
C170	C	0.198462	-0.148158	0.178048
H171	H	0.222545	-0.128212	0.154235
H172	H	0.177133	-0.168118	0.150702
H173	H	0.177191	-0.125406	0.202075
H174	H	0.206294	-0.346226	0.414592
C175	C	0.685421	-1.060247	0.386115
H176	H	0.690219	-1.096675	0.380389
H177	H	0.693052	-1.051271	0.428219
H178	H	0.650290	-1.051334	0.376893
C179	C	0.564313	-0.322284	0.385951
H180	H	0.540235	-0.342223	0.409779
H181	H	0.585588	-0.345036	0.361934
H182	H	0.585640	-0.302312	0.413293
C183	C	0.651894	-0.809076	0.426136
H184	H	0.631971	-0.784999	0.449973
H185	H	0.629125	-0.830409	0.402152
H186	H	0.671896	-0.830344	0.453468
C187	C	0.825697	-0.443169	0.217913
H188	H	0.820889	-0.406741	0.223631
H189	H	0.860828	-0.452077	0.227121
H190	H	0.818055	-0.452147	0.175808
C191	C	0.061966	-0.322321	0.386046
H192	H	0.037886	-0.342262	0.409870
H193	H	0.083244	-0.345072	0.362031
H194	H	0.083289	-0.302349	0.413392
C195	C	0.685331	-0.322019	1.072792
H196	H	0.690127	-0.317223	1.116452
H197	H	0.650206	-0.314370	1.062047
H198	H	0.692964	-0.357154	1.062072
H199	H	0.556491	-0.191209	0.229392
H200	H	0.849740	-0.801183	0.189384
C201	C	0.825753	-0.557823	0.217934
H202	H	0.845660	-0.533728	0.194090
H203	H	0.848536	-0.579095	0.241926
H204	H	0.805768	-0.579151	0.190608
H205	H	0.457460	-0.312723	0.374553
H206	H	-0.044902	-0.312760	0.374629
H207	H	-0.044913	-0.191256	0.229487
