data_functionalizedCrystal
_audit_creation_method	'MofGen! by Chris Wilmer'
_symmetry_space_group_name_H-M	'P1'
_symmetry_Int_Tables_number	1
_symmetry_cell_setting	triclinic
loop_
_symmetry_equiv_pos_as_xyz
  x,y,z
_cell_length_a	18.215399
_cell_length_b	12.759401
_cell_length_c	12.759400
_cell_angle_alpha	90.014845
_cell_angle_beta	90.024965
_cell_angle_gamma	90.016015
loop_
_atom_site_label
_atom_site_type_symbol
_atom_site_fract_x
_atom_site_fract_y
_atom_site_fract_z
Zn1	Zn	-0.416068	-1.606230	0.418268
Zn2	Zn	-0.293009	-1.606132	0.593967
Zn3	Zn	-0.293022	-1.430539	0.418303
Zn4	Zn	-0.416041	-1.430520	0.593906
O5	O	-0.354535	-1.518355	0.506111
O6	O	-0.399749	-1.753238	0.441586
O7	O	-0.190026	-1.582806	0.570705
O8	O	-0.309361	-1.453894	0.271277
O9	O	-0.309338	-1.753166	0.570671
O10	O	-0.399762	-1.582973	0.271252
O11	O	-0.190036	-1.453799	0.441645
O12	O	-0.309335	-1.283516	0.441586
O13	O	-0.519029	-1.453862	0.570568
O14	O	-0.399717	-1.283502	0.570601
O15	O	-0.519049	-1.582955	0.441527
O16	O	-0.309312	-1.582788	0.740980
O17	O	-0.399704	-1.453767	0.740935
C18	C	-0.354520	-1.518293	0.779078
C19	C	-0.354538	-1.518362	0.895855
C20	C	-0.354525	-1.245388	0.506092
C21	C	-0.354538	-1.128611	0.506109
C22	C	-0.546488	-1.518417	0.506037
C23	C	-0.628287	-1.518443	0.506005
C24	C	-0.893356	-1.585701	0.438723
C25	C	-0.816497	-1.585688	0.438751
C26	C	-0.816466	-1.451271	0.573135
C27	C	-0.893324	-1.451290	0.573111
C28	C	-0.931767	-1.518503	0.505899
C29	C	-0.778050	-1.518472	0.505951
C30	C	-0.694717	-1.518458	0.505983
C31	C	-1.015106	-1.518519	0.505869
C32	C	-0.163329	-1.518354	0.506109
C33	C	-0.081530	-1.518532	0.505845
C34	C	-0.354545	-1.792389	0.506131
C35	C	-0.354550	-1.909165	0.506140
C36	C	-0.401522	-1.073770	0.573394
C37	C	-0.401530	-0.964046	0.573408
C38	C	-0.307564	-0.964015	0.438847
C39	C	-0.307560	-1.073737	0.438829
C40	C	-0.455770	-1.073786	0.651085
C41	C	-0.455778	-0.964062	0.651099
C42	C	-0.354566	-1.518447	0.232078
C43	C	-0.354580	-1.518485	0.115301
C44	C	-0.307523	-1.585618	0.950705
C45	C	-0.307546	-1.585683	1.060429
C46	C	-0.401600	-1.451227	1.060443
C47	C	-0.401580	-1.451168	0.950721
C48	C	-0.253219	-1.663242	0.950698
C49	C	-0.253242	-1.663307	1.060422
H50	H	-0.924654	-1.640430	0.383994
H51	H	-0.924599	-1.396568	0.627819
F52	F	-0.526597	-0.919615	0.613148
F53	F	-0.178735	-1.634901	1.099448
H54	H	-0.440415	-0.934268	0.732446
H55	H	-0.269317	-0.919322	0.384069
F56	F	-0.451664	-1.379719	1.118845
H57	H	-0.439870	-1.396413	0.906063
H58	H	-0.785227	-1.640409	0.384051
H59	H	-0.512793	-1.103591	0.629395
F60	F	-0.273226	-1.769560	0.911670
F61	F	-0.182428	-1.625159	0.906310
F62	F	-0.257566	-1.132100	0.367199
H63	H	-0.785157	-1.396547	0.627855
H64	H	-0.435257	-1.107802	0.728334
F65	F	-0.279998	-1.764338	1.104801
