data_functionalizedCrystal
_audit_creation_method	'MofGen! by Chris Wilmer'
_symmetry_space_group_name_H-M	'P1'
_symmetry_Int_Tables_number	1
_symmetry_cell_setting	triclinic
loop_
_symmetry_equiv_pos_as_xyz
  x,y,z
_cell_length_a	17.000383
_cell_length_b	9.065218
_cell_length_c	8.140239
_cell_angle_alpha	90.001686
_cell_angle_beta	89.994131
_cell_angle_gamma	99.691906
loop_
_atom_site_label
_atom_site_type_symbol
_atom_site_fract_x
_atom_site_fract_y
_atom_site_fract_z
O1	O	1.056481	-0.053127	-0.136724
O2	O	1.556481	0.446873	0.363276
O3	O	0.825135	-0.106617	-0.136701
O4	O	1.325135	0.393383	0.363299
O5	O	0.945590	0.135509	-0.136710
O6	O	1.445590	0.635509	0.363290
O7	O	0.936026	-0.295253	-0.136715
O8	O	1.436026	0.204747	0.363285
O9	O	0.945583	0.135511	0.136517
O10	O	1.445583	0.635511	0.636517
O11	O	0.825128	-0.106615	0.136526
O12	O	1.325128	0.393385	0.636526
O13	O	1.056474	-0.053125	0.136503
O14	O	1.556474	0.446875	0.636503
Zn15	Zn	0.940800	-0.079870	0.179895
Zn16	Zn	1.440800	0.420130	0.679895
Zn17	Zn	0.940809	-0.079872	-0.180093
Zn18	Zn	1.440809	0.420128	0.319907
O19	O	0.936019	-0.295252	0.136512
O20	O	1.436019	0.204748	0.636512
C21	C	0.795498	-0.109489	-0.000085
C22	C	1.295498	0.390511	0.499915
C23	C	0.707201	-0.118031	-0.000076
C24	C	1.207201	0.381969	0.499924
C25	C	0.207382	-0.173190	-0.000138
C26	C	0.707382	0.326810	0.499862
C27	C	0.290347	-0.165152	-0.000136
C28	C	0.790347	0.334848	0.499864
C29	C	0.340336	-0.025634	-0.000122
C30	C	0.840336	0.474366	0.499878
C31	C	0.307356	0.105855	-0.000126
C32	C	0.807356	0.605855	0.499874
C33	C	0.224393	0.097816	-0.000139
C34	C	0.724393	0.597816	0.499861
C35	C	0.591258	0.005419	-0.000093
C36	C	1.091258	0.505419	0.499907
C37	C	0.674227	0.013448	-0.000075
C38	C	1.174227	0.513448	0.499925
C39	C	0.657212	-0.257561	-0.000088
C40	C	1.157212	0.242439	0.499912
C41	C	0.574248	-0.265588	-0.000092
C42	C	1.074248	0.234412	0.499908
C43	C	0.541275	-0.134099	-0.000104
C44	C	1.041275	0.365901	0.499896
C45	C	0.425140	-0.017414	-0.000116
C46	C	0.925140	0.482586	0.499884
C47	C	0.456473	-0.142320	-0.000122
C48	C	0.956473	0.357680	0.499878
C49	C	0.944667	0.190355	-0.000099
C50	C	1.444667	0.690355	0.499901
C51	C	0.941919	0.353773	-0.000106
C52	C	1.441919	0.853773	0.499894
C53	C	1.086111	-0.050253	-0.000117
C54	C	1.586111	0.449747	0.499883
C55	C	1.174408	-0.041711	-0.000137
C56	C	1.674408	0.458289	0.499863
C57	C	0.936942	-0.350097	-0.000103
C58	C	1.436942	0.149903	0.499897
C59	C	0.939690	-0.513515	-0.000106
C60	C	1.439690	-0.013515	0.499894
N61	N	0.940800	-0.079867	0.425578
N62	N	1.440800	0.420133	0.925578
N63	N	0.940815	-0.079863	-0.425776
N64	N	1.440815	0.420137	0.074224
H65	H	0.415768	-0.255915	-0.000142
H66	H	0.915768	0.244085	0.499858
H67	H	0.684068	-0.364611	-0.000081
H68	H	1.184068	0.135389	0.499919
Cl69	Cl	0.370200	0.281251	-0.000112
Cl70	Cl	0.870200	0.781251	0.499888
Cl71	Cl	0.549818	0.170720	-0.000147
Cl72	Cl	1.049818	0.670720	0.499853
Cl73	Cl	0.182939	0.263111	-0.000138
Cl74	Cl	0.682939	0.763111	0.499862
Cl75	Cl	0.487990	0.157975	-0.000080
Cl76	Cl	0.987990	0.657975	0.499920
H77	H	0.533551	-0.379199	-0.000108
H78	H	1.033551	0.120801	0.499892
H79	H	0.166686	-0.286802	-0.000137
H80	H	0.666686	0.213198	0.499863
H81	H	0.317191	-0.272217	-0.000153
H82	H	0.817191	0.227783	0.499847
Cl83	Cl	0.737070	0.188856	-0.000060
Cl84	Cl	1.237070	0.688856	0.499940
