data_functionalizedCrystal
_audit_creation_method	'MofGen! by Chris Wilmer'
_symmetry_space_group_name_H-M	'P1'
_symmetry_Int_Tables_number	1
_symmetry_cell_setting	triclinic
loop_
_symmetry_equiv_pos_as_xyz
  x,y,z
_cell_length_a	16.625546
_cell_length_b	13.897449
_cell_length_c	13.897441
_cell_angle_alpha	89.978743
_cell_angle_beta	89.967525
_cell_angle_gamma	90.023294
loop_
_atom_site_label
_atom_site_type_symbol
_atom_site_fract_x
_atom_site_fract_y
_atom_site_fract_z
Zn1	Zn	-0.320966	1.474650	-0.545431
Zn2	Zn	0.012367	1.807984	-0.212097
Zn3	Zn	0.345701	2.141317	0.121236
Zn4	Zn	-0.455814	1.474537	-0.384124
Zn5	Zn	-0.122481	1.807870	-0.050791
Zn6	Zn	0.210853	2.141204	0.282543
Zn7	Zn	-0.321001	1.313345	-0.384141
Zn8	Zn	0.012332	1.646679	-0.050808
Zn9	Zn	0.345666	1.980012	0.282525
Zn10	Zn	-0.455762	1.313308	-0.545369
Zn11	Zn	-0.122429	1.646641	-0.212036
Zn12	Zn	0.210905	1.979974	0.121298
O13	O	-0.388386	1.393960	-0.464766
O14	O	-0.055052	1.727293	-0.131433
O15	O	0.278281	2.060627	0.201900
O16	O	-0.338861	1.609617	-0.524051
O17	O	-0.005527	1.942950	-0.190718
O18	O	0.327806	2.276284	0.142615
O19	O	-0.437967	1.453123	-0.249145
O20	O	-0.104634	1.786456	0.084189
O21	O	0.228700	2.119789	0.417522
O22	O	-0.208164	1.334806	-0.405570
O23	O	0.125170	1.668139	-0.072237
O24	O	0.458503	2.001473	0.261097
O25	O	-0.437933	1.609534	-0.405540
O26	O	-0.104600	1.942867	-0.072207
O27	O	0.228734	2.276200	0.261127
O28	O	-0.208138	1.453316	-0.524068
O29	O	0.125195	1.786649	-0.190735
O30	O	0.458529	2.119983	0.142598
O31	O	-0.338920	1.334696	-0.249157
O32	O	-0.005587	1.668029	0.084176
O33	O	0.327746	2.001363	0.417509
O34	O	-0.338870	1.178359	-0.405510
O35	O	-0.005537	1.511692	-0.072177
O36	O	0.327796	1.845025	0.261156
O37	O	-0.437845	1.334742	-0.680359
O38	O	-0.104511	1.668075	-0.347026
O39	O	0.228822	2.001408	-0.013692
O40	O	-0.437879	1.178331	-0.523963
O41	O	-0.104545	1.511664	-0.190630
O42	O	0.228788	1.844998	0.142703
O43	O	-0.338811	1.453280	-0.680404
O44	O	-0.005477	1.786613	-0.347071
O45	O	0.327856	2.119946	-0.013737
O46	O	-0.568639	1.453086	-0.405480
O47	O	-0.235306	1.786420	-0.072147
O48	O	0.098027	2.119753	0.261186
O49	O	-0.568601	1.334632	-0.523946
O50	O	-0.235268	1.667965	-0.190613
O51	O	0.098065	2.001298	0.142720
C52	C	-0.388373	1.143346	-0.464733
C53	C	-0.055040	1.476679	-0.131399
C54	C	0.278293	1.810012	0.201934
C55	C	-0.388387	1.036132	-0.464741
C56	C	-0.055054	1.369465	-0.131408
C57	C	0.278279	1.702798	0.201926
C58	C	-0.388390	0.949062	-0.464757
C59	C	-0.055057	1.282395	-0.131424
C60	C	0.278277	1.615729	0.201909
C61	C	-0.388396	0.839830	-0.464787
C62	C	-0.055062	1.173163	-0.131453
C63	C	0.278271	1.506496	0.201880
C64	C	-0.597877	1.393869	-0.464726
C65	C	-0.264543	1.727202	-0.131393
C66	C	0.068790	2.060535	0.201941
C67	C	-0.687498	1.393918	-0.464741
C68	C	-0.354164	1.727251	-0.131408
C69	C	-0.020831	2.060585	0.201926
C70	C	-1.015673	1.394086	-0.464841
C71	C	-0.682340	1.727420	-0.131508
C72	C	-0.349007	2.060753	0.201825
C73	C	-0.924365	1.394036	-0.464816
C74	C	-0.591031	1.727370	-0.131483
C75	C	-0.257698	2.060703	0.201851
C76	C	-0.851588	1.394001	-0.464791
C77	C	-0.518255	1.727335	-0.131457
C78	C	-0.184922	2.060668	0.201876
C79	C	-0.760274	1.393953	-0.464766
C80	C	-0.426941	1.727286	-0.131433
C81	C	-0.093607	2.060620	0.201900
C82	C	-0.178077	1.394078	-0.464828
C83	C	0.155257	1.727411	-0.131495
C84	C	0.488590	2.060745	0.201839
C85	C	-0.088456	1.394128	-0.464854
C86	C	0.244878	1.727462	-0.131521
C87	C	0.578211	2.060795	0.201812
C88	C	-0.388318	1.394019	-0.716359
C89	C	-0.054985	1.727352	-0.383026
C90	C	0.278349	2.060686	-0.049693
C91	C	-0.388289	1.394044	-0.823573
C92	C	-0.054956	1.727378	-0.490240
C93	C	0.278378	2.060711	-0.156907
C94	C	-0.388399	1.645553	-0.464801
C95	C	-0.055065	1.978886	-0.131467
C96	C	0.278268	2.312220	0.201866
C97	C	-0.388404	1.752767	-0.464815
C98	C	-0.055071	2.086100	-0.131482
C99	C	0.278262	2.419434	0.201851
C100	C	-0.388266	1.394064	-0.910643
C101	C	-0.054933	1.727397	-0.577310
C102	C	0.278400	2.060731	-0.243977
C103	C	-0.388230	1.394092	-1.019876
C104	C	-0.054897	1.727425	-0.686542
C105	C	0.278437	2.060758	-0.353209
C106	C	-0.388395	1.393957	-0.214152
C107	C	-0.055062	1.727290	0.119181
C108	C	0.278272	2.060623	0.452515
C109	C	-0.388197	1.394118	-0.106939
C110	C	-0.054863	1.727452	0.226395
C111	C	0.278470	2.060785	0.559728
