data_functionalizedCrystal
_audit_creation_method	'MofGen! by Chris Wilmer'
_symmetry_space_group_name_H-M	'P1'
_symmetry_Int_Tables_number	1
_symmetry_cell_setting	triclinic
loop_
_symmetry_equiv_pos_as_xyz
  x,y,z
_cell_length_a	6.817900
_cell_length_b	11.102289
_cell_length_c	12.908943
_cell_angle_alpha	94.412341
_cell_angle_beta	100.860631
_cell_angle_gamma	108.605707
loop_
_atom_site_label
_atom_site_type_symbol
_atom_site_fract_x
_atom_site_fract_y
_atom_site_fract_z
V1	V	-4.022089	-0.174253	-0.328682
O2	O	-3.982824	0.010006	-0.322425
O3	O	-3.999478	-0.347084	-0.326434
O4	O	-3.959861	-0.170856	-0.472031
O5	O	-4.022714	-0.167442	-0.175820
V6	V	-4.504167	-0.152298	-0.310398
O7	O	-4.286517	-0.222412	-0.368788
O8	O	-4.689936	-0.104138	-0.270292
O9	O	-4.303571	0.020533	-0.312646
O10	O	-4.660828	-0.336557	-0.316655
O11	O	-4.620938	-0.159109	-0.463260
O12	O	-4.343188	-0.155695	-0.167049
C13	C	-3.851199	-0.389239	-0.321248
C14	C	-3.913907	-0.530526	-0.320366
C15	C	-3.800664	-0.164441	-0.506971
C16	C	-3.831240	-0.162808	-0.624160
C17	C	-4.125943	-0.603351	-0.325210
C18	C	-4.184854	-0.736106	-0.324390
C19	C	-3.819670	-0.723199	-0.313877
C20	C	-3.760765	-0.590447	-0.314705
C21	C	-4.336778	-0.610803	-0.331275
C22	C	-4.395690	-0.743558	-0.330455
C23	C	-4.253829	-0.172350	-0.855107
C24	C	-4.282568	-0.170816	-0.965217
C25	C	-3.917455	-0.158196	-0.954491
C26	C	-3.888716	-0.159730	-0.844381
C27	C	-4.056912	-0.166809	-0.794693
C28	C	-4.028175	-0.168353	-0.684583
C29	C	-3.663060	-0.155723	-0.673857
C30	C	-3.691799	-0.154189	-0.783967
C31	C	-4.115193	0.062681	-0.317829
C32	C	-4.031723	0.203967	-0.318718
C33	C	-4.165728	-0.162114	-0.132103
C34	C	-4.114390	-0.163741	-0.014913
H35	H	-3.588114	-0.531160	-0.310772
Br36	Br	-3.611851	-0.804530	-0.306197
Br37	Br	-4.488436	-0.578137	-0.459056
H38	H	-4.357072	-0.557934	-0.256948
H39	H	-3.554864	-0.148421	-0.824438
H40	H	-3.780523	-0.152424	-0.994965
Br41	Br	-4.549817	-0.178327	-1.047204
H42	H	-4.506246	-0.801048	-0.408553
H43	H	-4.165134	-0.174122	-0.644130
Br44	Br	-4.513866	-0.785768	-0.210439
Br45	Br	-3.395806	-0.148219	-0.591864
H46	H	-4.390788	-0.178128	-0.814652
