data_functionalizedCrystal
_audit_creation_method	'MofGen! by Chris Wilmer'
_symmetry_space_group_name_H-M	'P1'
_symmetry_Int_Tables_number	1
_symmetry_cell_setting	triclinic
loop_
_symmetry_equiv_pos_as_xyz
  x,y,z
_cell_length_a	8.497374
_cell_length_b	12.759401
_cell_length_c	12.759400
_cell_angle_alpha	89.996253
_cell_angle_beta	90.001841
_cell_angle_gamma	89.996688
loop_
_atom_site_label
_atom_site_type_symbol
_atom_site_fract_x
_atom_site_fract_y
_atom_site_fract_z
Zn1	Zn	0.892095	-1.606153	-0.418425
Zn2	Zn	0.628329	-1.606139	-0.594072
Zn3	Zn	0.628315	-1.430511	-0.418410
Zn4	Zn	0.892053	-1.430480	-0.594065
O5	O	0.760198	-1.518321	-0.506243
O6	O	0.857130	-1.753173	-0.441734
O7	O	0.407564	-1.582849	-0.570767
O8	O	0.663319	-1.453829	-0.271391
O9	O	0.663341	-1.753162	-0.570781
O10	O	0.857117	-1.582873	-0.271402
O11	O	0.407555	-1.453816	-0.441709
O12	O	0.663277	-1.283486	-0.441702
O13	O	1.112821	-1.453776	-0.570770
O14	O	0.857044	-1.283463	-0.570755
O15	O	1.112852	-1.582843	-0.441728
O16	O	0.663300	-1.582819	-0.741092
O17	O	0.857057	-1.453763	-0.741087
C18	C	0.760156	-1.245354	-0.506227
C19	C	0.760175	-1.128577	-0.506245
C20	C	0.860908	-1.073731	-0.573545
C21	C	0.860935	-0.964007	-0.573548
C22	C	0.659482	-0.963985	-0.438948
C23	C	0.659464	-1.073707	-0.438941
C24	C	0.760209	-1.518315	-0.779211
C25	C	0.760267	-1.518408	-0.895987
C26	C	1.171678	-1.518313	-0.506245
C27	C	1.350322	-1.518315	-0.506256
C28	C	0.760221	-1.518356	-0.232210
C29	C	0.760231	-1.518371	-0.115433
C30	C	0.760231	-0.792354	-0.506257
C31	C	0.760219	-0.909131	-0.506255
C32	C	0.659360	-1.451213	0.049167
C33	C	0.659337	-1.451197	-0.060557
C34	C	0.861143	-1.585573	-0.060580
C35	C	0.861156	-1.585594	0.049142
H36	H	0.942964	-0.919356	-0.628348
N37	N	0.969995	-1.658069	0.108312
H38	H	0.945508	-1.733134	0.089210
H39	H	1.082667	-1.641655	0.089198
H40	H	0.577484	-0.919296	-0.384153
N41	N	0.969968	-1.658031	-0.119756
H42	H	0.905864	-1.706712	-0.165287
H43	H	1.043047	-1.615249	-0.165213
N44	N	0.550831	-1.132872	-0.366337
H45	H	0.487031	-1.081465	-0.323703
H46	H	0.477710	-1.178396	-0.409013
H47	H	0.577166	-1.396481	-0.105207
N48	N	0.969527	-1.132915	-0.646132
H49	H	1.033346	-1.081516	-0.688765
H50	H	1.042631	-1.178449	-0.603442
N51	N	0.550545	-1.378755	0.108352
H52	H	0.486615	-1.336187	0.056953
H53	H	0.477552	-1.421534	0.153874
