data_functionalizedCrystal
_audit_creation_method	'MofGen! by Chris Wilmer'
_symmetry_space_group_name_H-M	'P1'
_symmetry_Int_Tables_number	1
_symmetry_cell_setting	triclinic
loop_
_symmetry_equiv_pos_as_xyz
  x,y,z
_cell_length_a	16.992697
_cell_length_b	14.421503
_cell_length_c	16.974885
_cell_angle_alpha	86.341883
_cell_angle_beta	92.975698
_cell_angle_gamma	89.998313
loop_
_atom_site_label
_atom_site_type_symbol
_atom_site_fract_x
_atom_site_fract_y
_atom_site_fract_z
O1	O	-1.040214	0.064403	0.167640
O2	O	-0.811931	0.064572	0.165800
O3	O	-0.932437	0.073084	0.052019
O4	O	-0.919707	0.055891	0.281421
O5	O	-0.932417	-0.081140	0.052036
O6	O	-0.811911	-0.089653	0.165817
O7	O	-1.040194	-0.089822	0.167657
Cu8	Cu	-0.926050	-0.103819	0.166738
Cu9	Cu	-0.926074	0.078569	0.166719
O10	O	-0.919687	-0.098334	0.281438
C11	C	-0.782711	-0.012359	0.163443
C12	C	-0.695674	-0.011817	0.156383
N13	N	-0.926040	-0.232101	0.166752
C14	C	-0.645360	-0.016923	0.224498
C15	C	-0.563580	-0.016437	0.217860
C16	C	-0.532117	-0.010838	0.143106
C17	C	-0.582438	-0.005736	0.074986
C18	C	-0.664216	-0.006229	0.081624
C19	C	-0.288549	-0.008797	0.115591
C20	C	-0.206765	-0.008302	0.108957
C21	C	-0.187913	-0.019004	0.251832
C22	C	-0.269693	-0.019491	0.258464
C23	C	-0.320007	-0.014393	0.190344
N24	N	-0.448526	-0.010338	0.136319
N25	N	-0.403597	-0.014900	0.197132
C26	C	-0.870308	-0.485689	0.219339
C27	C	-0.941137	-0.548988	0.239161
C28	C	-0.926059	-0.421262	0.166735
C29	C	-0.855247	-0.542059	0.146932
C30	C	-0.926071	-0.603982	0.166719
C31	C	-0.996924	-0.483202	0.186595
C32	C	-0.910988	-0.476265	0.094331
C33	C	-0.981868	-0.539533	0.114127
C34	C	-0.926051	-0.316001	0.166746
C35	C	-0.926087	-0.709240	0.166708
C36	C	-0.069414	-0.012885	0.170014
C37	C	-0.156451	-0.013407	0.177072
C38	C	-0.931943	-0.001816	0.022539
C39	C	-0.930492	0.004777	-0.065329
N40	N	-0.926091	0.206852	0.166699
C41	C	-0.929797	-0.076190	-0.106608
C42	C	-0.928438	-0.069987	-0.189170
C43	C	-0.927768	0.017183	-0.230451
C44	C	-0.928466	0.098156	-0.189167
C45	C	-0.929830	0.091952	-0.106607
C46	C	-0.923694	0.044751	-0.477369
C47	C	-0.922328	0.050948	-0.559935
C48	C	-0.922302	-0.117196	-0.559932
C49	C	-0.923661	-0.123391	-0.477370
C50	C	-0.924363	-0.042419	-0.436094
N51	N	-0.926377	0.023525	-0.314842
N52	N	-0.925760	-0.048762	-0.351704
C53	C	-0.920181	-0.023432	0.310918
C54	C	-0.921633	-0.030019	0.398786
H55	H	-0.670970	-0.021481	0.285371
H56	H	-0.927925	0.169131	-0.222785
O57	O	-0.956226	-0.586849	0.312245
C58	C	-0.897318	-0.559530	0.367539
H59	H	-0.841721	-0.539793	0.335674
H60	H	-0.918983	-0.497177	0.398449
C61	C	-0.947089	-0.664823	0.468367
C62	C	-0.878802	-0.640588	0.429231
H63	H	-0.935670	-0.714820	0.506424
H64	H	-0.986779	-0.683226	0.431116
H65	H	-0.965137	-0.612855	0.494119
H66	H	-0.860761	-0.692552	0.403472
H67	H	-0.839108	-0.622195	0.466480
O68	O	-0.552007	-0.000331	0.002308
C69	C	-0.613955	0.004093	-0.056389
H70	H	-0.669484	-0.027031	-0.030711
H71	H	-0.625554	0.079676	-0.077653
C72	C	-0.522744	-0.012905	-0.158003
C73	C	-0.590944	-0.051140	-0.126468
H74	H	-0.508549	-0.046971	-0.201234
H75	H	-0.481007	-0.015883	-0.118459
H76	H	-0.532419	0.050080	-0.175718
H77	H	-0.581265	-0.114119	-0.108745
H78	H	-0.632678	-0.048174	-0.166011
O79	O	-0.924226	-0.208127	-0.437362
C80	C	-0.856015	-0.258105	-0.452852
H81	H	-0.832385	-0.229807	-0.511232
H82	H	-0.809263	-0.250206	-0.403110
C83	C	-0.905601	-0.396354	-0.386403
C84	C	-0.876582	-0.361602	-0.458109
H85	H	-0.918286	-0.460196	-0.389642
H86	H	-0.951555	-0.362682	-0.375963
H87	H	-0.866637	-0.389763	-0.344958
H88	H	-0.915549	-0.368183	-0.499550
H89	H	-0.830635	-0.395278	-0.468556
O90	O	-0.930466	0.170695	-0.066626
C91	C	-0.929601	0.248965	-0.120765
H92	H	-0.903813	0.228618	-0.177910
H93	H	-0.992330	0.275787	-0.133868
C94	C	-0.910429	0.350706	-0.014819
C95	C	-0.878750	0.325717	-0.085005
H96	H	-0.879065	0.398053	0.007239
H97	H	-0.911015	0.297975	0.021655
H98	H	-0.962703	0.373052	-0.025749
H99	H	-0.826481	0.303361	-0.074072
H100	H	-0.878154	0.378447	-0.121477
O101	O	-1.038116	-0.567851	0.061055
C102	C	-1.037095	-0.665620	0.061183
H103	H	-0.976728	-0.692818	0.084385
H104	H	-1.084186	-0.695596	0.100863
C105	C	-1.128060	-0.661779	-0.052120
C106	C	-1.053913	-0.695184	-0.023629
H107	H	-1.138437	-0.680017	-0.104435
H108	H	-1.128750	-0.595911	-0.052205
H109	H	-1.167293	-0.686762	-0.019046
H110	H	-1.014681	-0.670192	-0.056697
H111	H	-1.053217	-0.761049	-0.023552
O112	O	-0.300385	-0.024853	0.331020
C113	C	-0.383353	-0.024196	0.322273
H114	H	-0.402618	0.009503	0.261769
H115	H	-0.406129	-0.098572	0.327585
C116	C	-0.393534	-0.009921	0.461585
C117	C	-0.417195	0.031476	0.387275
H118	H	-0.414410	0.024416	0.501682
H119	H	-0.337636	-0.010367	0.467479
H120	H	-0.412515	-0.071899	0.466000
H121	H	-0.398205	0.093448	0.382857
H122	H	-0.473090	0.031933	0.381381
O123	O	-0.921528	0.135596	-0.600081
C124	C	-0.852870	0.143825	-0.643176
H125	H	-0.805847	0.094017	-0.615006
H126	H	-0.867169	0.125981	-0.706794
C127	C	-0.879829	0.305379	-0.676964
C128	C	-0.822073	0.244209	-0.642361
H129	H	-0.860833	0.367301	-0.676465
H130	H	-0.926087	0.299835	-0.647933
H131	H	-0.891740	0.290497	-0.729976
H132	H	-0.810170	0.259084	-0.589348
H133	H	-0.775812	0.249758	-0.671384
H134	H	-0.898207	-0.444481	0.033126
H135	H	-1.056826	-0.457417	0.203410
H136	H	-0.705182	-0.002071	0.026157
H137	H	-0.795359	-0.567965	0.130190
H138	H	-0.930329	-0.147173	-0.073002
H139	H	-0.921732	-0.183119	-0.593549
O140	O	-0.927871	-0.148601	-0.229324
C141	C	-0.994927	-0.149719	-0.281777
H142	H	-1.042811	-0.103682	-0.260159
H143	H	-0.978548	-0.122478	-0.343283
C144	C	-0.966808	-0.306469	-0.311743
C145	C	-1.025622	-0.249933	-0.285187
H146	H	-0.985741	-0.368286	-0.313850
H147	H	-0.921629	-0.305716	-0.276407
H148	H	-0.953164	-0.283758	-0.362995
H149	H	-1.039258	-0.272638	-0.233932
H150	H	-1.070804	-0.250693	-0.320515
O151	O	-0.176291	-0.002739	0.036295
C152	C	-0.201992	0.080279	-0.005550
H153	H	-0.258693	0.105025	0.019570
H154	H	-0.154664	0.135750	0.000615
C155	C	-0.147767	0.032211	-0.124372
C156	C	-0.217412	0.062600	-0.093523
H157	H	-0.157276	0.021308	-0.178639
H158	H	-0.130448	-0.023719	-0.096180
H159	H	-0.108333	0.078441	-0.119227
H160	H	-0.256841	0.016365	-0.098659
H161	H	-0.234738	0.118522	-0.121718
H162	H	-0.924264	0.110684	-0.443772
H163	H	-0.146940	-0.023156	0.307292
O164	O	-0.814216	-0.457216	0.272503
C165	C	-0.850029	-0.406387	0.329290
H166	H	-0.908908	-0.377314	0.303498
H167	H	-0.860210	-0.454031	0.383997
C168	C	-0.723545	-0.361484	0.383940
C169	C	-0.795858	-0.325770	0.352259
H170	H	-0.690129	-0.311758	0.398111
H171	H	-0.699416	-0.395731	0.345684
H172	H	-0.732040	-0.401187	0.429525
H173	H	-0.787363	-0.286077	0.306669
H174	H	-0.819984	-0.291514	0.390508
H175	H	-0.522617	-0.020593	0.273327
H176	H	-0.329505	-0.004646	0.060122
