data_functionalizedCrystal
_audit_creation_method	'MofGen! by Chris Wilmer'
_symmetry_space_group_name_H-M	'P1'
_symmetry_Int_Tables_number	1
_symmetry_cell_setting	triclinic
loop_
_symmetry_equiv_pos_as_xyz
  x,y,z
_cell_length_a	14.446369
_cell_length_b	21.606444
_cell_length_c	21.606444
_cell_angle_alpha	60.000398
_cell_angle_beta	89.997476
_cell_angle_gamma	59.999894
loop_
_atom_site_label
_atom_site_type_symbol
_atom_site_fract_x
_atom_site_fract_y
_atom_site_fract_z
Zr1	Zr	0.891712	0.677482	-0.081232
O2	O	0.743909	0.806597	-0.180048
O3	O	0.937023	0.548365	-0.050942
O4	O	0.937022	0.677486	-0.180059
O5	O	0.743909	0.677474	0.050922
O6	O	1.089351	0.677492	-0.180065
O7	O	0.743910	0.677476	-0.050931
O8	O	1.089352	0.446517	0.050902
O9	O	0.743908	0.908448	-0.180045
O10	O	1.070027	0.601478	-0.038025
O11	O	0.956345	0.601472	0.037991
O12	O	0.956344	0.753495	-0.114028
O13	O	0.842662	0.753489	-0.038012
Zr14	Zr	1.134657	0.677487	0.081203
Zr15	Zr	1.134659	0.677491	-0.081241
Zr16	Zr	0.891710	0.677478	0.081212
Zr17	Zr	0.891709	0.839922	-0.081227
Zr18	Zr	1.134660	0.515047	0.081198
O19	O	1.089346	0.806605	0.050914
O20	O	1.089349	0.806610	-0.180061
O21	O	0.743907	0.806592	0.050926
O22	O	1.282460	0.548372	0.180020
O23	O	1.282462	0.548377	-0.050955
O24	O	0.937021	0.548359	0.180032
O25	O	1.282460	0.677496	-0.050950
O26	O	1.089347	0.677483	0.180031
O27	O	0.937019	0.677478	0.180036
O28	O	1.282459	0.677493	0.050903
O29	O	0.937018	0.908455	-0.180052
O30	O	1.089351	0.446514	0.180023
O31	O	1.282461	0.446521	0.180017
O32	O	1.282462	0.446524	0.050895
O33	O	0.743907	0.908445	-0.050924
O34	O	0.937017	0.908452	-0.050931
O35	O	1.070025	0.601474	0.113999
O36	O	1.183707	0.601480	0.037983
O37	O	1.070024	0.753498	-0.038020
O38	O	0.956342	0.753492	0.037996
C39	C	1.013188	0.474297	-0.000021
C40	C	1.013189	0.405337	-0.000023
C41	C	1.072527	0.372942	-0.039704
C42	C	1.072531	0.308142	-0.039699
C43	C	1.013190	0.275742	-0.000017
C44	C	0.953850	0.308139	0.039669
C45	C	0.953853	0.372934	0.039668
C46	C	0.953836	0.046830	0.039675
C47	C	0.953835	-0.017967	0.039671
C48	C	1.072514	-0.017962	-0.039691
C49	C	1.072518	0.046833	-0.039692
C50	C	1.013183	0.079221	-0.000004
C51	C	1.013181	0.149483	-0.000009
C52	C	1.013184	0.205485	-0.000016
C53	C	0.709295	0.677474	-0.000003
C54	C	0.606158	0.677470	0.000000
C55	C	0.531176	0.581602	0.047687
C56	C	0.638505	0.581537	0.047960
C57	C	0.531597	0.725091	0.034971
C58	C	0.424738	0.724483	0.035315
C59	C	0.423166	0.726460	-0.082733
C60	C	0.531837	0.724653	-0.082598
C61	C	1.317074	0.677496	-0.000025
C62	C	1.420211	0.677500	-0.000029
C63	C	1.013186	0.677490	-0.203207
C64	C	1.013187	0.677491	-0.272169
C65	C	1.013181	0.880673	-0.000008
C66	C	1.013180	0.949633	-0.000005
C67	C	1.097106	0.677496	-0.304570
C68	C	1.097109	0.677490	-0.369363
C69	C	1.013188	0.677485	-0.401757
C70	C	0.929265	0.677478	-0.369349
C71	C	0.929267	0.677478	-0.304555
C72	C	0.929255	0.677477	-0.630660
C73	C	0.929258	0.677480	-0.695460
C74	C	1.097097	0.677489	-0.695468
C75	C	1.097100	0.677489	-0.630673
C76	C	1.013180	0.677477	-0.598269
C77	C	1.013179	0.677482	-0.528013
C78	C	1.013184	0.677486	-0.472015
C79	C	1.013183	0.677480	0.203178
C80	C	1.013182	0.677478	0.272140
C81	C	1.317077	0.474308	-0.000032
C82	C	1.420216	0.405351	-0.000038
C83	C	1.013186	0.474292	0.203172
C84	C	1.013186	0.405330	0.272131
C85	C	1.317075	0.474303	0.203161
C86	C	1.420213	0.405345	0.272117
C87	C	0.709294	0.880666	-0.203189
C88	C	0.606156	0.949624	-0.272145
C89	C	0.709292	0.880662	0.000003
C90	C	0.606154	0.949618	0.000009
C91	C	1.013183	0.880678	-0.203200
C92	C	1.013183	0.949639	-0.272160
C93	C	1.409310	0.372968	-0.039722
C94	C	1.506210	0.308185	-0.039743
C95	C	1.614015	0.275783	-0.000074
C96	C	1.624918	0.308173	0.039612
C97	C	1.528019	0.372959	0.039628
C98	C	1.072527	0.372946	0.344198
C99	C	1.072523	0.308158	0.408999
C100	C	1.013185	0.275751	0.401732
C101	C	0.953837	0.308141	0.329658
C102	C	0.953835	0.372933	0.264859
C103	C	1.527999	0.372965	0.264820
C104	C	1.624917	0.308180	0.329605
C105	C	1.614047	0.275773	0.401686
C106	C	1.506250	0.308160	0.408982
C107	C	1.409334	0.372947	0.344198
C108	C	0.498370	0.982013	-0.264848
C109	C	0.401452	1.046817	-0.329633
C110	C	0.412322	1.079228	-0.401715
C111	C	0.520119	1.046837	-0.409010
C112	C	0.617035	0.982038	-0.344226
C113	C	0.617059	0.982009	0.039687
C114	C	0.520159	1.046809	0.039690
C115	C	0.412354	1.079214	0.000019
C116	C	0.401451	1.046821	-0.039664
C117	C	0.498350	0.982025	-0.039671
C118	C	1.072532	0.982026	-0.264869
C119	C	1.072554	1.046814	-0.329657
C120	C	1.013219	1.079219	-0.401736
C121	C	0.953867	1.046826	-0.409026
C122	C	0.953853	0.982035	-0.344238
H123	H	1.120833	-0.044342	-0.072005
C124	C	1.290734	0.408603	-0.083370
N125	N	1.201425	0.435443	-0.116251
H126	H	0.860933	0.677472	-0.278173
H127	H	1.712705	0.281781	0.071909
H128	H	1.536871	0.399341	0.206133
H129	H	1.120850	0.955652	-0.206184
C130	C	1.137801	0.408587	0.352210
N131	N	1.186962	0.435432	0.358251
H132	H	0.489455	0.955655	-0.071980
H133	H	0.905558	1.073220	-0.467721
H134	H	0.905539	0.281750	0.071983
C135	C	1.137825	0.272533	0.488272
N136	N	1.187015	0.245699	0.547980
H137	H	0.346158	0.794841	0.002807
H138	H	1.120850	0.281766	-0.072009
H139	H	1.712681	0.281818	0.323651
H140	H	0.489498	0.955627	-0.206162
H141	H	0.504365	0.795627	0.001893
C142	C	0.305700	1.150502	-0.472973
N143	N	0.225388	1.204182	-0.526641
C144	C	1.137842	1.082439	-0.321621
N145	N	1.187015	1.109270	-0.315567
H146	H	1.692971	0.223019	0.454432
C147	C	0.532057	1.082490	-0.488307
N148	N	0.541045	1.109341	-0.548036
H149	H	0.704830	0.955630	0.071997
H150	H	1.497416	0.281764	0.467679
C151	C	1.720596	0.204510	-0.000093
N152	N	1.800870	0.150824	-0.000107
C153	C	0.282856	1.082463	-0.083288
N154	N	0.193526	1.109304	-0.116137
C155	C	0.888584	-0.053627	0.083348
N156	N	0.839448	-0.080493	0.116250
H157	H	1.120835	0.073214	-0.072008
H158	H	1.321574	0.399303	0.350150
C159	C	0.888542	0.946428	-0.352271
N160	N	0.839343	0.919615	-0.358328
H161	H	0.704796	0.955668	-0.350177
C162	C	1.494192	0.272560	-0.083395
N163	N	1.485136	0.245727	-0.116271
C164	C	1.189420	0.677491	-0.731112
N165	N	1.258955	0.677493	-0.757959
C166	C	0.532177	1.082423	0.083353
N167	N	0.541233	1.109244	0.116242
H168	H	0.333462	1.131974	0.000031
C169	C	0.888607	0.082421	0.083361
N170	N	0.839489	0.109220	0.116278
H171	H	1.013239	1.131977	-0.454484
H172	H	0.313689	1.073179	-0.323678
H173	H	0.905530	0.399311	0.071978
C174	C	0.888575	0.272479	0.321677
N175	N	0.839427	0.245612	0.315668
H176	H	1.165433	0.677497	-0.604302
C177	C	0.711836	0.531053	0.016280
N178	N	0.767070	0.493021	-0.007577
C179	C	1.540034	0.408566	0.083295
N180	N	1.549092	0.435380	0.116189
H181	H	0.905517	0.399291	0.206181
C182	C	0.532815	0.531124	0.129700
N183	N	0.534134	0.493150	0.191504
C184	C	0.534334	0.530750	0.016163
N185	N	0.536704	0.492446	-0.007581
C186	C	0.711169	0.530734	0.130385
N187	N	0.765900	0.492466	0.192471
H188	H	1.120844	0.399322	-0.072021
H189	H	0.425007	0.690638	0.096175
H190	H	1.013195	0.222994	0.454502
H191	H	0.583200	0.692013	0.095256
H192	H	0.583261	0.689931	-0.108723
C193	C	0.417614	0.685000	-0.122199
N194	N	0.413440	0.653762	-0.151916
C195	C	0.497364	0.819204	-0.134668
N196	N	0.471401	0.890423	-0.173886
H197	H	0.344950	0.797105	-0.118451
H198	H	0.860916	0.677475	-0.721834
H199	H	1.165440	0.677505	-0.278202
H200	H	0.860923	0.677470	-0.604283
C201	C	1.189450	0.677464	-0.404986
N202	N	1.259015	0.677432	-0.431810
C203	C	0.836960	0.677461	-0.404979
N204	N	0.767434	0.677447	-0.431814
