data_functionalizedCrystal
_audit_creation_method	'MofGen! by Chris Wilmer'
_symmetry_space_group_name_H-M	'P1'
_symmetry_Int_Tables_number	1
_symmetry_cell_setting	triclinic
loop_
_symmetry_equiv_pos_as_xyz
  x,y,z
_cell_length_a	16.109296
_cell_length_b	15.072220
_cell_length_c	16.109301
_cell_angle_alpha	90.001893
_cell_angle_beta	83.460385
_cell_angle_gamma	89.996229
loop_
_atom_site_label
_atom_site_type_symbol
_atom_site_fract_x
_atom_site_fract_y
_atom_site_fract_z
O1	O	-1.103137	0.073743	-0.106836
O2	O	-0.603137	0.573743	0.393164
O3	O	-0.861075	0.073755	-0.120140
O4	O	-0.361075	0.573755	0.379860
O5	O	-0.988756	0.073740	0.007543
O6	O	-0.488756	0.573740	0.507543
O7	O	-0.975456	0.073759	-0.234519
O8	O	-0.475456	0.573759	0.265481
O9	O	-0.988739	-0.073825	0.007527
O10	O	-0.488739	0.426175	0.507527
O11	O	-0.861058	-0.073810	-0.120156
O12	O	-0.361058	0.426190	0.379844
O13	O	-1.103121	-0.073822	-0.106852
O14	O	-0.603121	0.426178	0.393148
Zn15	Zn	-0.982087	-0.097245	-0.113507
Zn16	Zn	-0.482087	0.402755	0.386493
Zn17	Zn	-0.982109	0.097178	-0.113485
Zn18	Zn	-0.482109	0.597178	0.386515
O19	O	-0.975440	-0.073807	-0.234535
O20	O	-0.475440	0.426193	0.265465
C21	C	-0.830092	-0.000026	-0.119610
C22	C	-0.330092	0.499974	0.380390
C23	C	-0.737796	-0.000022	-0.117996
C24	C	-0.237796	0.499978	0.382004
N25	N	-0.982078	-0.229934	-0.113520
N26	N	-0.482078	0.270066	0.386480
C27	C	-0.428797	-0.000034	-0.188486
C28	C	0.071203	0.499966	0.311514
C29	C	-0.515517	-0.000029	-0.190009
C30	C	-0.015517	0.499971	0.309991
C31	C	-0.535391	-0.000028	-0.038520
C32	C	-0.035391	0.499972	0.461480
C33	C	-0.448672	-0.000028	-0.036998
C34	C	0.051328	0.499972	0.463002
C35	C	-0.395377	-0.000035	-0.111983
C36	C	0.104623	0.499965	0.388017
C37	C	-0.568816	-0.000030	-0.115029
C38	C	-0.068816	0.499970	0.384971
C39	C	-0.662842	-0.000024	-0.116681
C40	C	-0.162842	0.499976	0.383319
C41	C	-0.301345	-0.000040	-0.110332
C42	C	0.198655	0.499960	0.389668
C43	C	-0.982094	-0.410931	-0.113501
C44	C	-0.482094	0.089069	0.386499
C45	C	-0.913763	-0.448592	-0.181797
C46	C	-0.413763	0.051408	0.318203
C47	C	-0.913530	-0.551418	-0.181611
C48	C	-0.413530	-0.051418	0.318389
C49	C	-0.982109	-0.589135	-0.113484
C50	C	-0.482109	-0.089135	0.386516
C51	C	-0.963539	-0.551799	-0.026634
C52	C	-0.463539	-0.051799	0.473366
C53	C	-0.963040	-0.448941	-0.027045
C54	C	-0.463040	0.051059	0.472955
C55	C	-1.069204	-0.448822	-0.131271
C56	C	-0.569204	0.051178	0.368729
C57	C	-1.068628	-0.551687	-0.133232
C58	C	-0.568628	-0.051687	0.366768
C59	C	-0.982119	-0.689849	-0.113469
C60	C	-0.482119	-0.189849	0.386531
C61	C	-0.982082	-0.310218	-0.113511
C62	C	-0.482082	0.189782	0.386489
C63	C	-0.134103	-0.000040	-0.107387
C64	C	0.365897	0.499960	0.392613
C65	C	-0.226397	-0.000043	-0.109016
C66	C	0.273603	0.499957	0.390984
C67	C	-0.988209	-0.000043	0.038510
C68	C	-0.488209	0.499957	0.538510
C69	C	-0.986594	-0.000044	0.130805
C70	C	-0.486594	0.499956	0.630805
N71	N	-0.982124	0.229867	-0.113465
N72	N	-0.482124	0.729867	0.386535
C73	C	-0.975987	-0.000022	-0.265502
C74	C	-0.475987	0.499978	0.234498
C75	C	-0.977602	-0.000015	-0.357797
C76	C	-0.477602	0.499985	0.142203
C77	C	-1.058602	-0.000034	0.353079
C78	C	-0.558602	0.499966	0.853079
C79	C	-1.057078	-0.000026	0.439799
C80	C	-0.557078	0.499974	0.939799
C81	C	-0.905588	-0.000023	0.419922
C82	C	-0.405588	0.499977	0.919922
C83	C	-0.907113	-0.000024	0.333204
C84	C	-0.407113	0.499976	0.833204
C85	C	-0.983622	-0.000034	0.299785
C86	C	-0.483622	0.499966	0.799785
C87	C	-0.980573	-0.000025	0.473224
C88	C	-0.480573	0.499975	0.973224
C89	C	-0.978920	-0.000017	0.567250
C90	C	-0.478920	0.499983	1.067250
C91	C	-0.985276	-0.000040	0.205753
C92	C	-0.485276	0.499960	0.705753
H93	H	-0.385406	-0.000040	-0.249544
H94	H	0.114594	0.499960	0.250456
H95	H	-1.120900	-0.000040	0.325873
H96	H	-0.620900	0.499960	0.825873
H97	H	-0.578794	-0.000024	0.022530
H98	H	-0.078794	0.499976	0.522530
H99	H	-0.924578	-0.423864	-0.246565
H100	H	-0.424578	0.076136	0.253435
H101	H	-1.118133	-0.000024	0.483189
H102	H	-0.618133	0.499976	0.983189
F103	F	-0.413102	-0.000019	0.044432
F104	F	0.086898	0.499981	0.544432
F105	F	-1.135664	-0.416981	-0.066181
F106	F	-0.635664	0.083019	0.433819
F107	F	-0.551081	-0.000024	-0.271434
F108	F	-0.051081	0.499976	0.228566
H109	H	-0.899522	-0.424965	-0.011434
H110	H	-0.399522	0.075035	0.488566
H111	H	-0.924535	-0.576663	-0.246159
H112	H	-0.424535	-0.076663	0.253841
H113	H	-0.849476	-0.422760	-0.170572
H114	H	-0.349476	0.077240	0.329428
F115	F	-1.138179	-0.585243	-0.072456
F116	F	-0.638179	-0.085243	0.427544
F117	F	-1.025640	-0.416372	0.041399
F118	F	-0.525640	0.083628	0.541399
F119	F	-0.829034	-0.583604	-0.166721
F120	F	-0.329034	-0.083604	0.333279
F121	F	-1.026887	-0.583728	0.041418
F122	F	-0.526887	-0.083728	0.541418
F123	F	-0.881476	-0.585485	-0.005731
F124	F	-0.381476	-0.085485	0.494269
H125	H	-1.087133	-0.422885	-0.193271
H126	H	-0.587133	0.077115	0.306729
F127	F	-1.087058	-0.583579	-0.216744
F128	F	-0.587058	-0.083579	0.283256
H129	H	-0.846052	-0.000021	0.289808
H130	H	-0.346052	0.499979	0.789808
H131	H	-0.843297	-0.000016	0.447143
H132	H	-0.343297	0.499984	0.947143
