data_functionalizedCrystal
_audit_creation_method	'MofGen! by Chris Wilmer'
_symmetry_space_group_name_H-M	'P1'
_symmetry_Int_Tables_number	1
_symmetry_cell_setting	triclinic
loop_
_symmetry_equiv_pos_as_xyz
  x,y,z
_cell_length_a	15.944551
_cell_length_b	18.266242
_cell_length_c	15.944551
_cell_angle_alpha	90.006078
_cell_angle_beta	83.498738
_cell_angle_gamma	90.004451
loop_
_atom_site_label
_atom_site_type_symbol
_atom_site_fract_x
_atom_site_fract_y
_atom_site_fract_z
O1	O	1.114530	0.060806	0.108332
O2	O	0.869980	0.060825	0.121688
O3	O	0.998933	0.060808	-0.007265
O4	O	0.985577	0.060822	0.237285
O5	O	0.998911	-0.060954	-0.007268
O6	O	0.869958	-0.060937	0.121684
O7	O	1.114508	-0.060956	0.108328
Zn8	Zn	0.992229	-0.080279	0.115006
Zn9	Zn	0.992258	0.080148	0.115011
O10	O	0.985555	-0.060940	0.237281
C11	C	0.838675	-0.000054	0.121132
C12	C	0.745429	-0.000047	0.119470
C13	C	0.530572	-0.000066	0.035565
C14	C	0.469563	0.059971	0.074529
C15	C	0.574703	-0.000056	0.116462
C16	C	0.469564	-0.060077	0.074545
C17	C	0.409790	-0.000068	0.113551
C18	C	0.514922	0.060031	0.155449
C19	C	0.514929	-0.060071	0.155453
C20	C	0.453937	-0.000019	0.194476
C21	C	0.669705	-0.000049	0.118137
C22	C	0.314789	-0.000070	0.111883
N23	N	0.992216	-0.189766	0.115002
C24	C	1.043153	-0.228070	0.165983
C25	C	1.043167	-0.304714	0.165981
C26	C	0.992228	-0.343053	0.115007
C27	C	0.941287	-0.304740	0.064015
C28	C	0.941281	-0.228096	0.064013
N29	N	0.918658	-0.463400	0.112709
N30	N	0.918666	-0.536208	0.112716
C31	C	0.992245	-0.573975	0.115010
N32	N	1.065816	-0.536184	0.117313
N33	N	1.065807	-0.463369	0.117310
C34	C	0.992229	-0.426160	0.115004
C35	C	1.043202	-0.695386	0.165992
C36	C	1.043217	-0.772032	0.165983
C37	C	0.941329	-0.772056	0.064023
C38	C	0.941321	-0.695411	0.064026
C39	C	0.992256	-0.657081	0.115015
C40	C	1.145813	-0.000075	0.108885
C41	C	1.239059	-0.000078	0.110547
C42	C	0.998367	-0.000073	-0.038561
C43	C	0.996705	-0.000073	-0.131807
N44	N	0.992279	0.189635	0.115008
C45	C	0.912801	-0.000057	-0.346663
C46	C	0.951752	-0.060096	-0.407682
C47	C	0.993698	-0.000067	-0.302533
C48	C	0.951793	0.059952	-0.407662
C49	C	0.990787	-0.000058	-0.467445
C50	C	1.032672	-0.060156	-0.362323
C51	C	1.032701	0.059946	-0.362297
C52	C	1.071711	-0.000108	-0.423298
C53	C	0.995372	-0.000073	-0.207530
C54	C	0.989119	-0.000058	-0.562446
C55	C	0.986120	-0.000057	0.268577
C56	C	0.987782	-0.000052	0.361823
H57	H	0.534919	0.110843	0.189641
C58	C	1.099265	-0.814170	0.222055
C59	C	1.099288	-0.898475	0.222047
C60	C	1.155341	-0.940613	0.278115
C61	C	1.211371	-0.898447	0.334191
C62	C	1.211349	-0.814137	0.334201
C63	C	1.155296	-0.771999	0.278133
H64	H	1.057810	-0.929693	0.180534
H65	H	1.155357	-1.003025	0.278107
H66	H	1.252864	-0.929640	0.375696
H67	H	1.252827	-0.782919	0.375714
H68	H	1.155281	-0.709587	0.278141
C69	C	0.885305	-0.814219	0.007939
C70	C	0.885316	-0.898523	0.007930
C71	C	0.829297	-0.940690	-0.048163
C72	C	0.773267	-0.898552	-0.104247
C73	C	0.773253	-0.814242	-0.104240
C74	C	0.829272	-0.772076	-0.048147
H75	H	0.926794	-0.929721	0.049449
H76	H	0.829307	-1.003102	-0.048167
H77	H	0.731798	-0.929766	-0.145770
H78	H	0.731775	-0.783045	-0.145759
H79	H	0.829262	-0.709664	-0.048143
H80	H	0.899839	-0.664224	0.022515
H81	H	0.845652	-0.000112	-0.313356
H82	H	0.535051	-0.110827	0.189639
C83	C	1.099237	-0.653218	0.222069
C84	C	1.058839	-0.600530	0.290470
C85	C	1.114875	-0.558365	0.346548
C86	C	1.211309	-0.568889	0.334224
C87	C	1.251712	-0.621580	0.265821
C88	C	1.195676	-0.663744	0.209743
H89	H	0.987448	-0.592737	0.299595
H90	H	1.084965	-0.519360	0.397185
H91	H	1.252790	-0.537676	0.375736
H92	H	1.323103	-0.629372	0.256696
H93	H	1.225586	-0.702749	0.159106
C94	C	0.442417	-0.128647	0.028306
C95	C	0.476627	-0.141824	-0.064701
C96	C	0.449485	-0.210390	-0.110945
C97	C	0.388132	-0.265780	-0.064183
C98	C	0.353918	-0.252606	0.028829
C99	C	0.381061	-0.184039	0.075074
H100	H	0.522048	-0.100819	-0.099321
H101	H	0.474813	-0.220143	-0.179800
H102	H	0.368040	-0.316537	-0.098417
H103	H	0.308498	-0.293610	0.063450
H104	H	0.355733	-0.174287	0.143928
C105	C	0.885241	-0.185957	0.007935
C106	C	0.816820	-0.133272	0.048291
C107	C	0.760778	-0.091131	-0.007785
C108	C	0.773157	-0.101674	-0.104217
C109	C	0.841582	-0.154361	-0.144579
C110	C	0.897624	-0.196502	-0.088502
H111	H	0.807653	-0.125466	0.119681
H112	H	0.710126	-0.052129	0.022094
H113	H	0.731672	-0.070478	-0.145728
H114	H	0.850749	-0.162168	-0.215968
H115	H	0.948276	-0.235505	-0.118381
H116	H	0.917527	-0.110849	-0.427792
C117	C	1.078841	-0.128806	-0.335328
C118	C	1.088908	-0.141513	-0.241517
C119	C	1.135073	-0.210163	-0.214520
C120	C	1.171172	-0.266106	-0.281332
C121	C	1.161106	-0.253401	-0.375148
C122	C	1.114941	-0.184751	-0.402146
H123	H	1.062184	-0.100099	-0.192053
H124	H	1.142524	-0.219568	-0.145070
H125	H	1.205346	-0.316925	-0.261347
H126	H	1.187830	-0.294815	-0.424613
H127	H	1.107490	-0.175346	-0.471596
H128	H	1.084632	-0.196866	0.207499
H129	H	1.138919	-0.000147	-0.456457
H130	H	1.084647	-0.335907	0.207498
C131	C	0.885248	-0.346908	0.007948
C132	C	0.885245	-0.431213	0.007955
C133	C	0.829205	-0.473380	-0.048117
C134	C	0.773169	-0.431243	-0.104195
C135	C	0.773170	-0.346933	-0.104204
C136	C	0.829209	-0.304766	-0.048133
H137	H	0.926728	-0.462410	0.049469
H138	H	0.829205	-0.535792	-0.048110
H139	H	0.731685	-0.462458	-0.145703
H140	H	0.731686	-0.315737	-0.145719
H141	H	0.829209	-0.242354	-0.048140
C142	C	0.442399	0.128534	0.028312
C143	C	0.381043	0.183910	0.075096
C144	C	0.353883	0.252470	0.028873
C145	C	0.388079	0.265654	-0.064134
C146	C	0.449439	0.210277	-0.110923
C147	C	0.476599	0.141717	-0.064700
H148	H	0.355725	0.174151	0.143950
H149	H	0.308460	0.293464	0.063510
H150	H	0.367974	0.316407	-0.098351
H151	H	0.474757	0.220036	-0.179777
H152	H	0.522022	0.100723	-0.099337
H153	H	0.420779	0.000019	0.261683
C154	C	1.078898	0.128511	-0.335090
C155	C	1.044953	0.205260	-0.352664
C156	C	1.091142	0.273832	-0.325453
C157	C	1.171276	0.265655	-0.280669
C158	C	1.205226	0.188903	-0.263093
C159	C	1.159037	0.120331	-0.290303
H160	H	0.985629	0.211317	-0.385818
H161	H	1.066010	0.330650	-0.338464
H162	H	1.205468	0.316416	-0.260526
H163	H	1.264550	0.182846	-0.229939
H164	H	1.184169	0.063513	-0.277292
H165	H	0.917575	0.110714	-0.427738
H166	H	0.563905	0.000004	-0.031573
