data_functionalizedCrystal
_audit_creation_method	'MofGen! by Chris Wilmer'
_symmetry_space_group_name_H-M	'P1'
_symmetry_Int_Tables_number	1
_symmetry_cell_setting	triclinic
loop_
_symmetry_equiv_pos_as_xyz
  x,y,z
_cell_length_a	6.817900
_cell_length_b	10.773894
_cell_length_c	10.773890
_cell_angle_alpha	96.485539
_cell_angle_beta	96.645716
_cell_angle_gamma	96.645922
loop_
_atom_site_label
_atom_site_type_symbol
_atom_site_fract_x
_atom_site_fract_y
_atom_site_fract_z
V1	V	-3.915798	-0.386966	-0.168034
O2	O	-3.940463	-0.381691	0.012792
O3	O	-3.834375	-0.382308	-0.337720
O4	O	-3.834377	-0.556653	-0.163379
O5	O	-3.940461	-0.206139	-0.162756
V6	V	-4.407984	-0.365582	-0.146649
O7	O	-4.158054	-0.433873	-0.214942
O8	O	-4.615925	-0.318674	-0.099741
O9	O	-4.266200	-0.370240	0.023037
O10	O	-4.500717	-0.370857	-0.327476
O11	O	-4.500718	-0.546408	-0.151928
O12	O	-4.266199	-0.195895	-0.151304
C13	C	-3.672411	-0.375684	-0.379151
C14	C	-3.686905	-0.373007	-0.517858
C15	C	-3.864075	-0.377659	-0.585666
C16	C	-3.879059	-0.374892	-0.729028
C17	C	-3.672413	-0.598077	-0.156760
C18	C	-3.686907	-0.736783	-0.154077
C19	C	-3.864077	-0.804591	-0.158727
C20	C	-3.879061	-0.947951	-0.155954
C21	C	-4.091506	-0.376860	0.064461
C22	C	-4.056249	-0.379545	0.203167
C23	C	-4.091506	-0.154464	-0.157928
C24	C	-4.056251	-0.015757	-0.160604
H25	H	-3.546318	-0.366982	-0.565941
H26	H	-3.738459	-0.996027	-0.149911
H27	H	-4.004664	-0.383698	-0.537585
O28	O	-3.711152	-0.367525	-0.786205
C29	C	-3.585076	-0.256021	-0.735000
H30	H	-3.621587	-0.223465	-0.636894
H31	H	-3.423302	-0.274843	-0.728449
H32	H	-3.608388	-0.179590	-0.798250
O33	O	-4.031778	-0.747215	-0.166146
C34	C	-4.047899	-0.687813	-0.276305
H35	H	-3.959548	-0.734551	-0.347791
H36	H	-4.211114	-0.697009	-0.318148
H37	H	-3.986075	-0.583848	-0.252054
O38	O	-4.224201	-0.386801	-0.739699
C39	C	-4.391835	-0.390556	-0.830580
H40	H	-4.353984	-0.426571	-0.927411
H41	H	-4.520980	-0.456327	-0.805988
H42	H	-4.436095	-0.291809	-0.831830
O43	O	-4.223973	-0.958394	-0.168029
C44	C	-4.240097	-0.898996	-0.278190
H45	H	-4.151733	-0.945729	-0.349671
H46	H	-4.403311	-0.908203	-0.320038
H47	H	-4.178289	-0.795028	-0.253942
H48	H	-3.546318	-0.784864	-0.148034
