data_functionalizedCrystal
_audit_creation_method	'MofGen! by Chris Wilmer'
_symmetry_space_group_name_H-M	'P1'
_symmetry_Int_Tables_number	1
_symmetry_cell_setting	triclinic
loop_
_symmetry_equiv_pos_as_xyz
  x,y,z
_cell_length_a	18.050591
_cell_length_b	21.295417
_cell_length_c	18.050583
_cell_angle_alpha	89.959541
_cell_angle_beta	89.977979
_cell_angle_gamma	90.026512
loop_
_atom_site_label
_atom_site_type_symbol
_atom_site_fract_x
_atom_site_fract_y
_atom_site_fract_z
Zn1	Zn	1.135289	-0.250631	-0.420010
Zn2	Zn	1.635289	0.249369	0.079990
Zn3	Zn	1.135192	-0.355917	-0.295811
Zn4	Zn	1.635192	0.144083	0.204189
Zn5	Zn	1.011106	-0.250659	-0.295821
Zn6	Zn	1.511106	0.249341	0.204179
Zn7	Zn	1.011051	-0.355859	-0.419946
Zn8	Zn	1.511051	0.144141	0.080054
O9	O	1.073159	-0.303267	-0.357897
O10	O	1.573159	0.196733	0.142103
O11	O	1.239201	-0.264610	-0.403557
O12	O	1.739201	0.235390	0.096443
O13	O	1.118714	-0.341991	-0.191887
O14	O	1.618714	0.158009	0.308113
O15	O	1.027642	-0.162566	-0.312326
O16	O	1.527642	0.337434	0.187674
O17	O	1.239130	-0.341964	-0.312308
O18	O	1.739130	0.158036	0.187692
O19	O	1.118879	-0.162545	-0.403567
O20	O	1.618879	0.337455	0.096433
O21	O	1.027548	-0.264658	-0.191895
O22	O	1.527548	0.235342	0.308105
O23	O	0.907174	-0.264601	-0.312264
O24	O	1.407174	0.235399	0.187736
O25	O	1.027549	-0.341864	-0.523879
O26	O	1.527549	0.158136	-0.023879
O27	O	0.907134	-0.341891	-0.403458
O28	O	1.407134	0.158109	0.096542
O29	O	1.118826	-0.264554	-0.523926
O30	O	1.618826	0.235446	-0.023926
O31	O	1.118661	-0.443999	-0.312247
O32	O	1.618661	0.056001	0.187753
O33	O	1.027455	-0.443956	-0.403449
O34	O	1.527455	0.056044	0.096551
C35	C	0.880207	-0.303243	-0.357856
C36	C	1.380207	0.196757	0.142144
C37	C	0.797662	-0.303248	-0.357856
C38	C	1.297662	0.196752	0.142144
C39	C	0.598211	-0.261169	-0.308379
C40	C	1.098211	0.238831	0.191621
C41	C	0.548788	-0.318588	-0.290098
C42	C	1.048788	0.181412	0.209902
C43	C	0.646531	-0.303267	-0.357889
C44	C	1.146531	0.196733	0.142111
C45	C	0.548872	-0.245869	-0.376169
C46	C	1.048872	0.254131	0.123831
C47	C	0.500546	-0.303281	-0.357921
C48	C	1.000546	0.196719	0.142079
C49	C	0.598196	-0.360716	-0.339573
C50	C	1.098196	0.139284	0.160427
C51	C	0.598284	-0.287959	-0.425676
C52	C	1.098284	0.212041	0.074324
C53	C	0.548883	-0.345417	-0.407420
C54	C	1.048883	0.154583	0.092580
C55	C	0.730629	-0.303259	-0.357870
C56	C	1.230629	0.196741	0.142130
C57	C	0.416450	-0.303296	-0.357940
C58	C	0.916450	0.196704	0.142060
C59	C	1.073062	-0.466818	-0.357856
C60	C	1.573062	0.033182	0.142144
C61	C	1.073088	-0.536786	-0.357863
C62	C	1.573088	-0.036786	0.142137
C63	C	1.120621	-0.569654	-0.310423
C64	C	1.620621	-0.069654	0.189577
C65	C	1.120656	-0.635397	-0.310440
C66	C	1.620656	-0.135397	0.189560
C67	C	1.073145	-0.668269	-0.357889
C68	C	1.573145	-0.168269	0.142111
C69	C	1.025608	-0.635393	-0.405338
C70	C	1.525608	-0.135393	0.094662
C71	C	1.025580	-0.569652	-0.405325
C72	C	1.525580	-0.069652	0.094675
N73	N	1.008178	-0.771530	-0.363536
N74	N	1.508178	-0.271530	0.136464
N75	N	1.008207	-0.833981	-0.363544
N76	N	1.508207	-0.333981	0.136456
C77	C	1.073228	-0.866344	-0.357931
C78	C	1.573228	-0.366344	0.142069
N79	N	1.138221	-0.833895	-0.352296
N80	N	1.638221	-0.333895	0.147704
N81	N	1.138191	-0.771438	-0.352284
N82	N	1.638191	-0.271438	0.147716
C83	C	1.073170	-0.739554	-0.357908
C84	C	1.573170	-0.239554	0.142092
C85	C	1.120803	-0.970497	-0.310507
C86	C	1.620803	-0.470497	0.189493
C87	C	1.120839	-1.036241	-0.310529
C88	C	1.620839	-0.536241	0.189471
C89	C	1.025784	-1.036235	-0.405423
C90	C	1.525784	-0.536235	0.094577
C91	C	1.025755	-0.970493	-0.405405
C92	C	1.525755	-0.470493	0.094595
C93	C	1.073263	-0.937628	-0.357943
C94	C	1.573263	-0.437628	0.142057
C95	C	1.266865	-0.303291	-0.357939
C96	C	1.766865	0.196709	0.142061
C97	C	1.349411	-0.303301	-0.357956
C98	C	1.849411	0.196699	0.142044
C99	C	1.073192	-0.303199	-0.551603
C100	C	1.573192	0.196801	-0.051603
C101	C	1.073206	-0.303171	-0.634148
C102	C	1.573206	0.196829	-0.134148
C103	C	1.073277	-0.139076	-0.357955
C104	C	1.573277	0.360924	0.142045
C105	C	1.073328	-0.069108	-0.357979
C106	C	1.573328	0.430892	0.142021
C107	C	1.122892	-0.261109	-0.833625
C108	C	1.622892	0.238891	-0.333625
C109	C	1.055159	-0.245698	-0.883014
C110	C	1.555159	0.254302	-0.383014
C111	C	1.073236	-0.303160	-0.785279
C112	C	1.573236	0.196840	-0.285279
C113	C	1.140996	-0.318531	-0.882972
C114	C	1.640996	0.181469	-0.382972
C115	C	1.073271	-0.303148	-0.931264
C116	C	1.573271	0.196852	-0.431264
C117	C	1.005467	-0.287720	-0.833581
C118	C	1.505467	0.212280	-0.333581
C119	C	1.091350	-0.360579	-0.833534
C120	C	1.591350	0.139421	-0.333534
C121	C	1.023570	-0.345190	-0.882901
C122	C	1.523570	0.154810	-0.382901
C123	C	1.073217	-0.303165	-0.701181
C124	C	1.573217	0.196835	-0.201181
C125	C	1.073282	-0.303143	-1.015361
C126	C	1.573282	0.196857	-0.515361
C127	C	1.073169	-0.303288	-0.164945
C128	C	1.573169	0.196712	0.335055
C129	C	1.073299	-0.303139	-0.082399
C130	C	1.573299	0.196861	0.417601
H131	H	0.619771	-0.409277	-0.324062
H132	H	1.119771	0.090723	0.175938
C133	C	0.567626	-0.183957	-0.216462
C134	C	1.067626	0.316043	0.283538
C135	C	0.627457	-0.213160	-0.251800
C136	C	1.127457	0.286840	0.248200
H137	H	0.585683	-0.154324	-0.181530
H138	H	1.085683	0.345676	0.318470
H139	H	0.537981	-0.163043	-0.252253
H140	H	1.037981	0.336957	0.247747
H141	H	0.538643	-0.214702	-0.191626
H142	H	1.038643	0.285298	0.308374
H143	H	0.656436	-0.182417	-0.276641
H144	H	1.156436	0.317583	0.223359
H145	H	0.657114	-0.234075	-0.216003
H146	H	1.157114	0.265925	0.283997
H147	H	0.987103	-1.062999	-0.444060
H148	H	1.487103	-0.562999	0.055940
C149	C	0.989314	-0.549342	-0.531039
C150	C	1.489314	-0.049342	-0.031039
C151	C	0.973324	-0.533520	-0.457472
C152	C	1.473324	-0.033520	0.042528
H153	H	0.957048	-0.527037	-0.563230
H154	H	1.457048	-0.027037	-0.063230
H155	H	1.039193	-0.538520	-0.541950
H156	H	1.539193	-0.038520	-0.041950
H157	H	0.982530	-0.593200	-0.537831
H158	H	1.482530	-0.093200	-0.037831
H159	H	0.980112	-0.489662	-0.450679
H160	H	1.480112	0.010338	0.049321
H161	H	0.923432	-0.544338	-0.446557
H162	H	1.423432	-0.044338	0.053443
C163	C	1.214764	-0.977103	-0.216711
C164	C	1.714764	-0.477103	0.283289
C165	C	1.173027	-0.934367	-0.258343
C166	C	1.673027	-0.434367	0.241657
H167	H	1.247006	-0.954798	-0.184511
H168	H	1.747006	-0.454798	0.315489
H169	H	1.182438	-1.002790	-0.188279
H170	H	1.682438	-0.502790	0.311721
H171	H	1.243162	-1.002699	-0.249112
H172	H	1.743162	-0.502699	0.250888
H173	H	1.144624	-0.908774	-0.225942
H174	H	1.644624	-0.408774	0.274058
H175	H	1.205357	-0.908669	-0.286777
H176	H	1.705357	-0.408669	0.213223
H177	H	1.159551	-1.063001	-0.271899
H178	H	1.659551	-0.563001	0.228101
H179	H	0.527361	-0.381065	-0.449303
H180	H	1.027361	0.118935	0.050697
C181	C	0.967741	-0.393146	-0.989508
C182	C	1.467741	0.106854	-0.489508
C183	C	0.966839	-0.393185	-0.911940
C184	C	1.466839	0.106815	-0.411940
H185	H	0.932718	-0.422776	-1.007435
H186	H	1.432718	0.077224	-0.507435
H187	H	0.955298	-0.352479	-1.007190
H188	H	1.455298	0.147521	-0.507190
H189	H	1.015818	-0.404168	-1.006503
H190	H	1.515818	0.095832	-0.506503
H191	H	0.918762	-0.382159	-0.894945
H192	H	1.418762	0.117841	-0.394945
H193	H	0.979277	-0.433861	-0.894250
H194	H	1.479277	0.066139	-0.394250
H195	H	0.987046	-0.943730	-0.444032
H196	H	1.487046	-0.443730	0.055968
C197	C	1.160352	-0.152971	-0.829384
C198	C	1.660352	0.347029	-0.329384
C199	C	1.179488	-0.213077	-0.804404
C200	C	1.679488	0.286923	-0.304404
H201	H	1.195287	-0.123318	-0.811338
H202	H	1.695287	0.376682	-0.311338
H203	H	1.160445	-0.152374	-0.881999
H204	H	1.660445	0.347626	-0.381999
H205	H	1.112349	-0.142455	-0.811743
H206	H	1.612349	0.357545	-0.311743
H207	H	1.227489	-0.223594	-0.822049
H208	H	1.727489	0.276406	-0.322049
H209	H	1.179402	-0.213675	-0.751777
H210	H	1.679402	0.286325	-0.251777
C211	C	0.475832	-0.157045	-0.339204
C212	C	0.975832	0.342955	0.160796
C213	C	0.519624	-0.180333	-0.397027
C214	C	1.019624	0.319667	0.102973
H215	H	0.457782	-0.116584	-0.352075
H216	H	0.957782	0.383416	0.147925
H217	H	0.435252	-0.184585	-0.330933
H218	H	0.935252	0.315415	0.169067
H219	H	0.504767	-0.154163	-0.295389
H220	H	1.004767	0.345837	0.204611
H221	H	0.490687	-0.183220	-0.440839
H222	H	0.990687	0.316780	0.059161
H223	H	0.560209	-0.152786	-0.405306
H224	H	1.060209	0.347214	0.094694
H225	H	0.527049	-0.331546	-0.232786
H226	H	1.027049	0.168454	0.267214
C227	C	1.213346	-0.390836	-0.954898
C228	C	1.713346	0.109164	-0.454898
C229	C	1.218332	-0.336093	-0.912262
C230	C	1.718332	0.163907	-0.412262
H231	H	1.261091	-0.401671	-0.972982
H232	H	1.761091	0.098329	-0.472982
H233	H	1.194716	-0.424110	-0.925174
H234	H	1.694716	0.075890	-0.425174
H235	H	1.180859	-0.383848	-0.995462
H236	H	1.680859	0.116152	-0.495462
H237	H	1.250815	-0.343082	-0.871695
H238	H	1.750815	0.156918	-0.371695
H239	H	1.236973	-0.302811	-0.941987
H240	H	1.736973	0.197189	-0.441987
C241	C	1.034099	-0.180998	-0.989934
C242	C	1.534099	0.319002	-0.489934
C243	C	1.034504	-0.180143	-0.912369
C244	C	1.534504	0.319857	-0.412369
H245	H	1.021351	-0.140527	-1.008056
H246	H	1.521351	0.359473	-0.508056
H247	H	1.081877	-0.192219	-1.007557
H248	H	1.581877	0.307781	-0.507557
H249	H	0.998783	-0.210823	-1.006791
H250	H	1.498783	0.289177	-0.506791
H251	H	1.069824	-0.150322	-0.895512
H252	H	1.569824	0.349678	-0.395512
H253	H	0.986719	-0.168914	-0.894739
H254	H	1.486719	0.331086	-0.394739
C255	C	1.220491	-0.495662	-0.300191
C256	C	1.720491	0.004338	0.199809
C257	C	1.172846	-0.533526	-0.258261
C258	C	1.672846	-0.033526	0.241739
H259	H	1.252728	-0.473353	-0.267987
H260	H	1.752728	0.026647	0.232013
H261	H	1.248887	-0.521266	-0.332572
H262	H	1.748887	-0.021266	0.167428
H263	H	1.192167	-0.466679	-0.328440
H264	H	1.692167	0.033321	0.171560
H265	H	1.201170	-0.562512	-0.230015
H266	H	1.701170	-0.062512	0.269985
H267	H	1.144446	-0.507920	-0.225866
H268	H	1.644446	-0.007920	0.274134
C269	C	0.928798	-0.270220	-0.726853
C270	C	1.428798	0.229780	-0.226853
C271	C	0.928106	-0.270081	-0.804423
C272	C	1.428106	0.229919	-0.304423
H273	H	0.881041	-0.259326	-0.708853
H274	H	1.381041	0.240674	-0.208853
H275	H	0.941728	-0.310881	-0.709505
H276	H	1.441728	0.189119	-0.209505
H277	H	0.964088	-0.240539	-0.709595
H278	H	1.464088	0.259461	-0.209595
H279	H	0.892820	-0.299766	-0.821681
H280	H	1.392820	0.200234	-0.321681
H281	H	0.915167	-0.229414	-0.821777
H282	H	1.415167	0.270586	-0.321777
H283	H	0.620041	-0.274983	-0.482970
H284	H	1.120041	0.225017	0.017030
H285	H	0.986925	-0.662161	-0.443973
H286	H	1.486925	-0.162161	0.056027
H287	H	1.159366	-0.662163	-0.271808
H288	H	1.659366	-0.162163	0.228192
C289	C	1.060785	-0.470289	-0.830130
C290	C	1.560785	0.029711	-0.330130
C291	C	1.112044	-0.426118	-0.804168
C292	C	1.612044	0.073882	-0.304168
H293	H	1.073572	-0.510750	-0.812003
H294	H	1.573572	-0.010750	-0.312003
H295	H	1.012629	-0.459419	-0.813246
H296	H	1.512629	0.040581	-0.313246
H297	H	1.061403	-0.470660	-0.882752
H298	H	1.561403	0.029340	-0.382752
H299	H	1.111422	-0.425743	-0.751547
H300	H	1.611422	0.074257	-0.251547
H301	H	1.160213	-0.436990	-0.821049
H302	H	1.660213	0.063010	-0.321049
