data_functionalizedCrystal
_audit_creation_method	'MofGen! by Chris Wilmer'
_symmetry_space_group_name_H-M	'P1'
_symmetry_Int_Tables_number	1
_symmetry_cell_setting	triclinic
loop_
_symmetry_equiv_pos_as_xyz
  x,y,z
_cell_length_a	19.121102
_cell_length_b	21.295417
_cell_length_c	19.120904
_cell_angle_alpha	92.409419
_cell_angle_beta	90.088173
_cell_angle_gamma	87.583861
loop_
_atom_site_label
_atom_site_type_symbol
_atom_site_fract_x
_atom_site_fract_y
_atom_site_fract_z
Zn1	Zn	1.054819	-0.307921	-0.442038
Zn2	Zn	1.554819	0.192079	0.057962
Zn3	Zn	1.059730	-0.408895	-0.324794
Zn4	Zn	1.559730	0.091105	0.175206
Zn5	Zn	0.942589	-0.298968	-0.319823
Zn6	Zn	1.442589	0.201032	0.180177
Zn7	Zn	0.937541	-0.408472	-0.436996
Zn8	Zn	1.437541	0.091528	0.063004
O9	O	0.998670	-0.356064	-0.380912
O10	O	1.498670	0.143936	0.119088
O11	O	1.153575	-0.325240	-0.430676
O12	O	1.653575	0.174760	0.069324
O13	O	1.048358	-0.390743	-0.226029
O14	O	1.548358	0.109257	0.273971
O15	O	0.957533	-0.212069	-0.336065
O16	O	1.457533	0.287931	0.163935
O17	O	1.157183	-0.399425	-0.344537
O18	O	1.657183	0.100575	0.155463
O19	O	1.039988	-0.218647	-0.425856
O20	O	1.539988	0.281353	0.074144
O21	O	0.962295	-0.309980	-0.222377
O22	O	1.462295	0.190020	0.277623
O23	O	0.843814	-0.309570	-0.331175
O24	O	1.343814	0.190430	0.168825
O25	O	0.948931	-0.398704	-0.535769
O26	O	1.448931	0.101296	-0.035769
O27	O	0.840106	-0.390022	-0.417262
O28	O	1.340106	0.109978	0.082738
O29	O	1.035094	-0.324829	-0.539474
O30	O	1.535094	0.175171	-0.039474
O31	O	1.043464	-0.496925	-0.339648
O32	O	1.543464	0.003075	0.160352
O33	O	0.953692	-0.496614	-0.422082
O34	O	1.453692	0.003386	0.077918
C35	C	0.816522	-0.348779	-0.373133
C36	C	1.316522	0.151221	0.126867
C37	C	0.738598	-0.345678	-0.369821
C38	C	1.238598	0.154322	0.130179
C39	C	0.998582	-0.519611	-0.380873
C40	C	1.498582	-0.019611	0.119127
C41	C	0.998607	-0.589580	-0.380883
C42	C	1.498607	-0.089580	0.119117
C43	C	0.700080	-0.386167	-0.413015
C44	C	1.200080	0.113833	0.086985
C45	C	0.626862	-0.383245	-0.409907
C46	C	1.126862	0.116755	0.090093
C47	C	0.592163	-0.339837	-0.363600
C48	C	1.092163	0.160163	0.136400
C49	C	0.630687	-0.299344	-0.320404
C50	C	1.130687	0.200656	0.179596
C51	C	0.703903	-0.302263	-0.323516
C52	C	1.203903	0.197737	0.176484
C53	C	0.371192	-0.328921	-0.351968
C54	C	0.871192	0.171079	0.148032
C55	C	0.297970	-0.326007	-0.348857
C56	C	0.797970	0.173993	0.151143
C57	C	0.294150	-0.409907	-0.438361
C58	C	0.794150	0.090093	0.061639
C59	C	0.367368	-0.412825	-0.441467
C60	C	0.867368	0.087175	0.058533
C61	C	0.405885	-0.372330	-0.398273
C62	C	0.905885	0.127670	0.101727
C63	C	0.517323	-0.336851	-0.360421
C64	C	1.017323	0.163149	0.139579
C65	C	0.480724	-0.375313	-0.401457
C66	C	0.980724	0.124687	0.098543
C67	C	1.041515	-0.625815	-0.427668
C68	C	1.541515	-0.125815	0.072332
C69	C	1.041539	-0.691559	-0.427686
C70	C	1.541539	-0.191559	0.072314
C71	C	0.998663	-0.721066	-0.380907
C72	C	1.498663	-0.221066	0.119093
C73	C	0.955747	-0.684823	-0.334118
C74	C	1.455747	-0.184823	0.165882
C75	C	0.955719	-0.619080	-0.334106
C76	C	1.455719	-0.119080	0.165894
N77	N	0.995988	-0.821870	-0.319328
N78	N	1.495988	-0.321870	0.180672
N79	N	0.996019	-0.884323	-0.319341
N80	N	1.496019	-0.384323	0.180659
C81	C	0.998744	-0.919145	-0.380942
C82	C	1.498744	-0.419145	0.119058
N83	N	1.001450	-0.889155	-0.442531
N84	N	1.501450	-0.389155	0.057469
N85	N	1.001423	-0.826696	-0.442516
N86	N	1.501423	-0.326696	0.057484
C87	C	0.998688	-0.792353	-0.380915
C88	C	1.498688	-0.292353	0.119085
C89	C	1.041679	-1.026667	-0.427751
C90	C	1.541679	-0.526667	0.072249
C91	C	1.041698	-1.092413	-0.427771
C92	C	1.541698	-0.592413	0.072229
C93	C	0.955911	-1.085675	-0.334197
C94	C	1.455911	-0.585675	0.165803
C95	C	0.955888	-1.019931	-0.334183
C96	C	1.455888	-0.519931	0.165817
C97	C	0.998776	-0.990431	-0.380960
C98	C	1.498776	-0.490431	0.119040
C99	C	1.181528	-0.363378	-0.388723
C100	C	1.681528	0.136622	0.111277
C101	C	1.259452	-0.366495	-0.392052
C102	C	1.759452	0.133505	0.107948
C103	C	0.990902	-0.362718	-0.563770
C104	C	1.490902	0.137282	-0.063770
C105	C	0.987591	-0.365554	-0.641693
C106	C	1.487591	0.134446	-0.141693
C107	C	0.998776	-0.191880	-0.380968
C108	C	1.498776	0.308120	0.119032
C109	C	0.998822	-0.121915	-0.380992
C110	C	1.498822	0.378085	0.119008
C111	C	1.030895	-0.328425	-0.680232
C112	C	1.530895	0.171575	-0.180232
C113	C	1.027776	-0.331087	-0.753448
C114	C	1.527776	0.168913	-0.253448
C115	C	0.981357	-0.370881	-0.788125
C116	C	1.481357	0.129119	-0.288125
C117	C	0.938049	-0.408011	-0.749582
C118	C	1.438049	0.091989	-0.249582
C119	C	0.941165	-0.405345	-0.676366
C120	C	1.441165	0.094655	-0.176366
C121	C	0.969701	-0.380849	-1.009092
C122	C	1.469701	0.119151	-0.509092
C123	C	0.966590	-0.383513	-1.082313
C124	C	1.466590	0.116487	-0.582313
C125	C	1.056317	-0.306588	-1.086174
C126	C	1.556317	0.193412	-0.586174
C127	C	1.059432	-0.303929	-1.012957
C128	C	1.559432	0.196071	-0.512957
C129	C	1.016121	-0.341057	-0.974420
C130	C	1.516121	0.158943	-0.474420
C131	C	0.978169	-0.373604	-0.862965
C132	C	1.478169	0.126396	-0.362965
C133	C	1.019305	-0.338330	-0.899582
C134	C	1.519305	0.161670	-0.399582
C135	C	1.006448	-0.349392	-0.198768
C136	C	1.506448	0.150608	0.301232
C137	C	1.009894	-0.346385	-0.120851
C138	C	1.509894	0.153615	0.379149
H139	H	0.728326	-0.421516	-0.450721
H140	H	1.228326	0.078484	0.049279
C141	C	0.405531	-0.460570	-0.492409
C142	C	0.905531	0.039430	0.007591
H143	H	0.372104	-0.484262	-0.517694
H144	H	0.872104	0.015738	-0.017694
H145	H	0.435216	-0.488120	-0.466750
H146	H	0.935216	0.011880	0.033250
H147	H	0.432810	-0.438779	-0.524220
H148	H	0.932810	0.061221	-0.024220
H149	H	0.508979	-0.410653	-0.439163
H150	H	1.008979	0.089347	0.060837
H151	H	1.068696	-0.296023	-0.652003
H152	H	1.568696	0.203977	-0.152003
C153	C	1.088739	-0.731428	-0.479148
C154	C	1.588739	-0.231428	0.020852
H155	H	1.082610	-0.774807	-0.472458
H156	H	1.582610	-0.274807	0.027542
H157	H	1.136281	-0.722129	-0.470934
H158	H	1.636281	-0.222129	0.029066
H159	H	1.076436	-0.721950	-0.525806
H160	H	1.576436	-0.221950	-0.025806
C161	C	0.584496	-0.427819	-0.457378
C162	C	1.084496	0.072181	0.042622
H163	H	0.615648	-0.454105	-0.485383
H164	H	1.115648	0.045895	0.014617
H165	H	0.554632	-0.403794	-0.486776
H166	H	1.054632	0.096206	0.013224
H167	H	0.557080	-0.453079	-0.429246
H168	H	1.057080	0.046921	0.070754
H169	H	0.940378	-0.406007	-0.891207
H170	H	1.440378	0.093993	-0.391207
H171	H	1.063040	-0.300854	-0.784823
H172	H	1.563040	0.199146	-0.284823
C173	C	1.088899	-1.132274	-0.479235
C174	C	1.588899	-0.632274	0.020765
H175	H	1.082768	-1.175654	-0.472549
H176	H	1.582768	-0.675654	0.027451
H177	H	1.136440	-1.122976	-0.471018
H178	H	1.636440	-0.622976	0.028982
H179	H	1.076596	-1.122791	-0.525892
H180	H	1.576596	-0.622791	-0.025892
C181	C	0.908587	-0.717277	-0.282662
C182	C	1.408587	-0.217277	0.217338
H183	H	0.914754	-0.761621	-0.289365
H184	H	1.414754	-0.261621	0.210635
H185	H	0.861035	-0.705030	-0.290869
H186	H	1.361035	-0.205030	0.209131
H187	H	0.920886	-0.705209	-0.236002
H188	H	1.420886	-0.205209	0.263998
C189	C	0.251780	-0.454442	-0.485876
C190	C	0.751780	0.045558	0.014124
H191	H	0.203205	-0.446484	-0.477397
H192	H	0.703205	0.053516	0.022603
H193	H	0.264194	-0.496824	-0.476043
H194	H	0.764194	0.003176	0.023957
H195	H	0.261794	-0.447481	-0.533511
H196	H	0.761794	0.052519	-0.033511
H197	H	0.269721	-0.290652	-0.311153
H198	H	0.769721	0.209348	0.188847
C199	C	0.413552	-0.284389	-0.304444
C200	C	0.913552	0.215611	0.195556
H201	H	0.382399	-0.258127	-0.276414
H202	H	0.882399	0.241873	0.223586
H203	H	0.440995	-0.259112	-0.332524
H204	H	0.940995	0.240888	0.167476
H205	H	0.443390	-0.308460	-0.275061
H206	H	0.943390	0.191540	0.224939
H207	H	0.602429	-0.263998	-0.282703
H208	H	1.102429	0.236002	0.217297
H209	H	1.097233	-0.271527	-0.984728
H210	H	1.597233	0.228473	-0.484728
C211	C	1.103949	-0.265747	-1.128566
C212	C	1.603949	0.234253	-0.628566
H213	H	1.095443	-0.273028	-1.177137
H214	H	1.595443	0.226972	-0.677137
H215	H	1.151557	-0.276404	-1.118579
H216	H	1.651557	0.223596	-0.618579
H217	H	1.094220	-0.222604	-1.116141
H218	H	1.594220	0.277396	-0.616141
H219	H	1.076599	-1.002648	-0.465842
H220	H	1.576599	-0.502648	0.034158
C221	C	0.908698	-0.980071	-0.282711
C222	C	1.408698	-0.480071	0.217289
H223	H	0.883170	-1.007058	-0.254849
H224	H	1.383170	-0.507058	0.245151
H225	H	0.876981	-0.954191	-0.308190
H226	H	1.376981	-0.454191	0.191810
H227	H	0.936834	-0.954378	-0.253327
H228	H	1.436834	-0.454378	0.246673
C229	C	0.886990	-0.451784	-0.787725
C230	C	1.386990	0.048216	-0.287725
H231	H	0.891340	-0.448059	-0.836849
H232	H	1.391340	0.051941	-0.336849
H233	H	0.840402	-0.440252	-0.773716
H234	H	1.340402	0.059748	-0.273716
H235	H	0.897738	-0.494053	-0.776148
H236	H	1.397738	0.005947	-0.276148
H237	H	0.735264	-0.269290	-0.288347
H238	H	1.235264	0.230710	0.211653
C239	C	1.088689	-0.593369	-0.479120
C240	C	1.588689	-0.093369	0.020880
H241	H	1.114244	-0.624369	-0.506989
H242	H	1.614244	-0.124369	-0.006989
H243	H	1.120382	-0.567954	-0.453625
H244	H	1.620382	-0.067954	0.046375
H245	H	1.060539	-0.567772	-0.508500
H246	H	1.560539	-0.067772	-0.008500
C247	C	0.908524	-0.579220	-0.282636
C248	C	1.408524	-0.079220	0.217364
H249	H	0.882993	-0.606206	-0.254775
H250	H	1.382993	-0.106206	0.245225
H251	H	0.876809	-0.553339	-0.308116
H252	H	1.376809	-0.053339	0.191884
H253	H	0.936660	-0.553529	-0.253250
H254	H	1.436660	-0.053529	0.246750
C255	C	0.908745	-1.118121	-0.282741
C256	C	1.408745	-0.618121	0.217259
H257	H	0.883184	-1.087122	-0.254876
H258	H	1.383184	-0.587122	0.245124
H259	H	0.936892	-1.143721	-0.253368
H260	H	1.436892	-0.643721	0.246632
H261	H	0.877046	-1.143533	-0.308240
H262	H	1.377046	-0.643533	0.191760
C263	C	0.915525	-0.427287	-1.120457
C264	C	1.415525	0.072713	-0.620457
H265	H	0.890173	-0.449013	-1.087020
H266	H	1.390173	0.050987	-0.587020
H267	H	0.941110	-0.456826	-1.150154
H268	H	1.441110	0.043174	-0.650154
H269	H	0.883781	-0.403019	-1.147721
H270	H	1.383781	0.096981	-0.647721
C271	C	0.922048	-0.421675	-0.966710
C272	C	1.422048	0.078325	-0.466710
H273	H	0.893957	-0.445755	-0.997850
H274	H	1.393957	0.054245	-0.497850
H275	H	0.892736	-0.395320	-0.936861
H276	H	1.392736	0.104680	-0.436861
H277	H	0.950048	-0.449142	-0.939276
H278	H	1.450048	0.050858	-0.439276
C279	C	0.893548	-0.446203	-0.633975
C280	C	1.393548	0.053797	-0.133975
H281	H	0.865466	-0.470293	-0.665113
H282	H	1.365466	0.029707	-0.165113
H283	H	0.864229	-0.419875	-0.604107
H284	H	1.364229	0.080125	-0.104107
H285	H	0.921582	-0.473662	-0.606561
H286	H	1.421582	0.026338	-0.106561
H287	H	0.489063	-0.301509	-0.322716
H288	H	0.989063	0.198491	0.177284
H289	H	1.057097	-0.305927	-0.871344
H290	H	1.557097	0.194073	-0.371344
