data_functionalizedCrystal
_audit_creation_method	'MofGen! by Chris Wilmer'
_symmetry_space_group_name_H-M	'P1'
_symmetry_Int_Tables_number	1
_symmetry_cell_setting	triclinic
loop_
_symmetry_equiv_pos_as_xyz
  x,y,z
_cell_length_a	17.699104
_cell_length_b	11.792240
_cell_length_c	16.176319
_cell_angle_alpha	89.990074
_cell_angle_beta	90.008289
_cell_angle_gamma	96.257533
loop_
_atom_site_label
_atom_site_type_symbol
_atom_site_fract_x
_atom_site_fract_y
_atom_site_fract_z
O1	O	1.004835	-0.143629	0.068780
O2	O	1.504835	0.356371	0.568780
O3	O	0.784558	-0.162278	0.068781
O4	O	1.284558	0.337722	0.568781
O5	O	0.900042	0.012281	0.068755
O6	O	1.400042	0.512281	0.568755
O7	O	0.889351	-0.318187	0.068806
O8	O	1.389351	0.181813	0.568806
O9	O	0.900025	0.012271	-0.068738
O10	O	1.400025	0.512271	0.431262
O11	O	0.784541	-0.162287	-0.068713
O12	O	1.284541	0.337713	0.431287
O13	O	1.004818	-0.143639	-0.068713
O14	O	1.504818	0.356361	0.431287
Cu15	Cu	0.894678	-0.152964	-0.081267
Cu16	Cu	1.394678	0.347036	0.418733
Cu17	Cu	0.894698	-0.152953	0.081335
Cu18	Cu	1.394698	0.347047	0.581335
O19	O	0.889334	-0.318197	-0.068688
O20	O	1.389334	0.181803	0.431312
C21	C	0.756349	-0.161610	0.000034
C22	C	1.256349	0.338390	0.500034
C23	C	0.672321	-0.159593	0.000033
C24	C	1.172321	0.340407	0.500033
C25	C	0.899362	0.054559	0.000004
C26	C	1.399362	0.554559	0.500004
C27	C	0.897352	0.180549	-0.000010
C28	C	1.397352	0.680549	0.499990
C29	C	0.147936	-0.250682	0.000055
C30	C	0.647936	0.249318	0.500055
C31	C	0.226890	-0.252570	0.000058
C32	C	0.726890	0.247430	0.500058
C33	C	0.274961	-0.150098	0.000042
C34	C	0.774961	0.349902	0.500042
C35	C	0.244075	-0.045731	0.000032
C36	C	0.744075	0.454269	0.500032
C37	C	0.165122	-0.043844	0.000035
C38	C	0.665122	0.456156	0.500035
C39	C	0.562481	-0.053338	0.000020
C40	C	1.062481	0.446662	0.500020
C41	C	0.641439	-0.055233	0.000014
C42	C	1.141439	0.444767	0.500014
C43	C	0.624249	-0.262065	0.000042
C44	C	1.124249	0.237935	0.500042
C45	C	0.545296	-0.260178	0.000046
C46	C	1.045296	0.239822	0.500046
C47	C	0.514417	-0.155811	0.000040
C48	C	1.014417	0.344189	0.500040
C49	C	0.428806	-0.153765	0.000039
C50	C	0.928806	0.346235	0.500039
C51	C	0.360570	-0.152143	0.000037
C52	C	0.860570	0.347857	0.500037
C53	C	0.893656	0.411217	-0.000023
C54	C	1.393656	0.911217	0.499977
C55	C	0.895709	0.282856	-0.000016
C56	C	1.395709	0.782856	0.499984
C57	C	1.033027	-0.144306	0.000036
C58	C	1.533027	0.355694	0.500036
C59	C	1.117055	-0.146323	0.000043
C60	C	1.617055	0.353677	0.500043
C61	C	0.890014	0.639525	0.000036
C62	C	1.390014	1.139525	0.500036
C63	C	0.892024	0.513535	-0.000032
C64	C	1.392024	1.013535	0.499968
N65	N	0.894669	-0.152971	-0.195632
N66	N	1.394669	0.347029	0.304368
C67	C	0.945856	-0.075670	-0.761026
C68	C	1.445856	0.424330	-0.261026
C69	C	0.945853	-0.075678	-0.674479
C70	C	1.445853	0.424322	-0.174479
C71	C	0.894703	-0.152947	-0.631207
C72	C	1.394703	0.347053	-0.131207
C73	C	0.843557	-0.230222	-0.674488
C74	C	1.343557	0.269778	-0.174488
C75	C	0.843565	-0.230219	-0.761033
C76	C	1.343565	0.269781	-0.261033
C77	C	0.843527	-0.230238	-0.325459
C78	C	1.343527	0.269762	0.174541
C79	C	0.843521	-0.230233	-0.238908
C80	C	1.343521	0.269767	0.261092
C81	C	0.945815	-0.075697	-0.238905
C82	C	1.445815	0.424303	0.261095
C83	C	0.945822	-0.075693	-0.325450
C84	C	1.445822	0.424307	0.174550
C85	C	0.894680	-0.152972	-0.368723
C86	C	1.394680	0.347028	0.131277
C87	C	0.894685	-0.152964	-0.462567
C88	C	1.394685	0.347036	0.037433
C89	C	0.894693	-0.152951	-0.537365
C90	C	1.394693	0.347049	-0.037365
N91	N	0.894713	-0.152936	0.195700
N92	N	1.394713	0.347064	0.695700
H93	H	0.108801	-0.334127	0.000062
H94	H	0.608801	0.165873	0.500062
H95	H	0.649399	-0.347045	0.000051
H96	H	1.149399	0.152955	0.500051
H97	H	0.801884	-0.293159	-0.360685
H98	H	1.301884	0.206841	0.139315
O99	O	1.000990	0.007647	-0.372125
O100	O	1.500990	0.507647	0.127875
H101	H	1.037962	-0.040073	-0.411544
H102	H	1.537962	0.459927	0.088456
H103	H	0.139981	0.041136	0.000027
H104	H	0.639981	0.541136	0.500027
H105	H	0.801920	-0.293139	-0.796266
H106	H	1.301920	0.206861	-0.296266
O107	O	0.788341	-0.313573	-0.192238
O108	O	1.288341	0.186427	0.307762
H109	H	0.796921	-0.300574	-0.124788
H110	H	1.296921	0.199426	0.375212
H111	H	0.801912	-0.293142	-0.639251
H112	H	1.301912	0.206858	-0.139251
H113	H	0.987498	-0.012762	-0.639245
H114	H	1.487498	0.487238	-0.139245
O115	O	0.529190	0.059231	0.000003
O116	O	1.029190	0.559231	0.500003
H117	H	0.493649	0.065059	0.056048
H118	H	0.993649	0.565059	0.556048
H119	H	0.680578	0.028218	0.000003
H120	H	1.180578	0.528218	0.500003
H121	H	0.283221	0.037704	0.000024
H122	H	0.783221	0.537704	0.500024
O123	O	0.260200	-0.365128	0.000052
O124	O	0.760200	0.134872	0.500052
H125	H	0.213509	-0.436066	0.000046
H126	H	0.713509	0.063934	0.500046
O127	O	0.493446	-0.370700	0.000063
O128	O	0.993446	0.129300	0.500063
H129	H	0.528184	-0.443587	0.000080
H130	H	1.028184	0.056413	0.500080
O131	O	1.001031	0.007663	-0.807696
O132	O	1.501031	0.507663	-0.307696
H133	H	1.036600	0.061379	-0.763061
H134	H	1.536600	0.561379	-0.263061
H135	H	0.987460	-0.012776	-0.203663
H136	H	1.487460	0.487224	0.296337
