data_functionalizedCrystal
_audit_creation_method	'MofGen! by Chris Wilmer'
_symmetry_space_group_name_H-M	'P1'
_symmetry_Int_Tables_number	1
_symmetry_cell_setting	triclinic
loop_
_symmetry_equiv_pos_as_xyz
  x,y,z
_cell_length_a	12.827893
_cell_length_b	16.120444
_cell_length_c	16.120256
_cell_angle_alpha	95.616860
_cell_angle_beta	92.880277
_cell_angle_gamma	92.926466
loop_
_atom_site_label
_atom_site_type_symbol
_atom_site_fract_x
_atom_site_fract_y
_atom_site_fract_z
Zn1	Zn	1.543788	-0.356763	-0.489420
Zn2	Zn	2.043788	0.143237	0.010580
Zn3	Zn	1.543654	-0.489450	-0.356732
Zn4	Zn	2.043654	0.010550	0.143268
Zn5	Zn	1.378366	-0.349695	-0.349670
Zn6	Zn	1.878366	0.150305	0.150330
Zn7	Zn	1.359652	-0.496495	-0.496460
Zn8	Zn	1.859652	0.003505	0.003540
O9	O	1.456365	-0.423101	-0.423071
O10	O	1.956365	0.076899	0.076929
O11	O	1.690005	-0.374374	-0.471828
O12	O	2.190005	0.125626	0.028172
O13	O	1.529504	-0.465004	-0.238832
O14	O	2.029504	0.034996	0.261168
O15	O	1.408198	-0.233667	-0.362307
O16	O	1.908198	0.266333	0.137693
O17	O	1.689906	-0.471858	-0.374343
O18	O	2.189906	0.028142	0.125657
O19	O	1.529733	-0.238860	-0.464981
O20	O	2.029733	0.261140	0.035019
O21	O	1.408068	-0.362327	-0.233644
O22	O	1.908068	0.137673	0.266356
O23	O	1.229649	-0.369159	-0.369133
O24	O	1.729649	0.130841	0.130867
O25	O	1.376302	-0.483866	-0.612489
O26	O	1.876302	0.016134	-0.112489
O27	O	1.215900	-0.477012	-0.476979
O28	O	1.715900	0.022988	0.023021
O29	O	1.511586	-0.381206	-0.607317
O30	O	2.011586	0.118794	-0.107317
O31	O	1.511357	-0.607350	-0.381169
O32	O	2.011357	-0.107350	0.118831
O33	O	1.376172	-0.612527	-0.483827
O34	O	1.876172	-0.112527	0.016173
C35	C	1.184857	-0.423084	-0.423054
C36	C	1.684857	0.076916	0.076946
C37	C	1.068702	-0.423098	-0.423068
C38	C	1.568702	0.076902	0.076932
C39	C	1.010142	-0.476542	-0.476359
C40	C	1.510142	0.023458	0.023641
C41	C	0.890089	-0.476558	-0.476374
C42	C	1.390089	0.023442	0.023626
C43	C	1.441746	-0.640267	-0.434046
C44	C	1.941746	-0.140267	0.065954
C45	C	1.435586	-0.733173	-0.438769
C46	C	1.935586	-0.233173	0.061231
C47	C	1.488565	-0.942082	-0.398748
C48	C	1.988565	-0.442082	0.101252
C49	C	1.424358	-0.903269	-0.447402
C50	C	1.924358	-0.403269	0.052598
C51	C	1.430607	-0.808619	-0.442597
C52	C	1.930607	-0.308619	0.057403
C53	C	1.482317	-1.036740	-0.403552
C54	C	1.982317	-0.536740	0.096448
C55	C	1.728933	-0.423118	-0.423088
C56	C	2.228933	0.076882	0.076912
C57	C	1.845085	-0.423126	-0.423095
C58	C	2.345085	0.076874	0.076905
C59	C	1.441872	-0.434110	-0.641078
C60	C	1.941872	0.065890	-0.141078
C61	C	1.435696	-0.438802	-0.733980
C62	C	1.935696	0.061198	-0.233980
C63	C	1.471068	-0.205087	-0.412071
C64	C	1.971068	0.294913	0.087929
C65	C	1.477334	-0.112183	-0.407383
C66	C	1.977334	0.387817	0.092617
C67	C	1.488573	-0.398613	-0.942904
C68	C	1.988573	0.101387	-0.442904
C69	C	1.424387	-0.447333	-0.904065
C70	C	1.924387	0.052667	-0.404065
C71	C	1.430681	-0.442585	-0.809421
C72	C	1.930681	0.057415	-0.309421
C73	C	1.482280	-0.403360	-1.037557
C74	C	1.982280	0.096640	-0.537557
C75	C	1.470866	-0.412074	-0.205908
C76	C	1.970866	0.087926	0.294092
C77	C	1.477260	-0.407147	-0.112995
C78	C	1.977260	0.092853	0.387005
H79	H	1.029960	-0.377350	-0.377458
H80	H	1.529960	0.122650	0.122542
Br81	Br	1.324912	-0.966359	-0.522840
Br82	Br	1.824912	-0.466359	-0.022840
Br83	Br	0.928967	-0.346862	-0.347037
Br84	Br	1.428967	0.153138	0.152963
Br85	Br	0.806201	-0.552833	-0.552417
Br86	Br	1.306201	-0.052833	-0.052417
Br87	Br	1.588019	-0.323141	-0.879855
Br88	Br	2.088019	0.176859	-0.379855
H89	H	1.548223	-0.904231	-0.353489
H90	H	2.048223	-0.404231	0.146511
H91	H	1.364703	-0.492604	-0.941895
H92	H	1.864703	0.007396	-0.441895
Br93	Br	1.074703	-0.552793	-0.552387
Br94	Br	1.574703	-0.052793	-0.052387
