data_functionalizedCrystal
_audit_creation_method	'MofGen! by Chris Wilmer'
_symmetry_space_group_name_H-M	'P1'
_symmetry_Int_Tables_number	1
_symmetry_cell_setting	triclinic
loop_
_symmetry_equiv_pos_as_xyz
  x,y,z
_cell_length_a	13.033291
_cell_length_b	19.120904
_cell_length_c	13.032721
_cell_angle_alpha	80.740061
_cell_angle_beta	74.815798
_cell_angle_gamma	84.914678
loop_
_atom_site_label
_atom_site_type_symbol
_atom_site_fract_x
_atom_site_fract_y
_atom_site_fract_z
Zn1	Zn	1.530178	-0.549865	0.256836
Zn2	Zn	1.515084	-0.445640	0.426895
Zn3	Zn	1.362056	-0.419171	0.269899
Zn4	Zn	1.329963	-0.549784	0.456936
O5	O	1.434320	-0.491115	0.352642
O6	O	1.676009	-0.547150	0.261356
O7	O	1.501898	-0.343848	0.398964
O8	O	1.404107	-0.425464	0.118720
O9	O	1.664919	-0.470577	0.386297
O10	O	1.527625	-0.521484	0.109123
O11	O	1.389470	-0.324402	0.283619
O12	O	1.209966	-0.425386	0.312749
O13	O	1.349408	-0.648075	0.437498
O14	O	1.186387	-0.521347	0.450164
O15	O	1.496505	-0.648135	0.290485
O16	O	1.470778	-0.470498	0.580326
O17	O	1.334771	-0.547013	0.602397
C18	C	1.159845	-0.470486	0.386135
C19	C	1.042418	-0.461679	0.400490
C20	C	0.874172	-0.486616	0.360004
C21	C	0.995538	-0.495718	0.345169
C22	C	1.421060	-0.674301	0.365885
C23	C	1.415410	-0.752363	0.371529
C24	C	1.489337	-0.789069	0.297642
C25	C	1.484015	-0.862416	0.302942
C26	C	1.404770	-0.899057	0.382135
C27	C	1.330835	-0.862345	0.456025
C28	C	1.336153	-0.788999	0.450719
C29	C	1.384878	-1.120514	0.401980
C30	C	1.379567	-1.193865	0.407282
C31	C	1.532747	-1.193931	0.254197
C32	C	1.538061	-1.120584	0.248903
C33	C	1.464123	-1.083878	0.322789
C34	C	1.399331	-0.974030	0.387557
C35	C	1.469559	-1.008906	0.317362
C36	C	1.709867	-0.511825	0.319018
C37	C	1.827289	-0.520650	0.304690
C38	C	1.397682	-0.511637	0.630109
C39	C	1.382102	-0.520447	0.748801
C40	C	1.447600	-0.308641	0.339365
C41	C	1.453495	-0.230572	0.333396
C42	C	1.471130	-0.470531	0.074088
C43	C	1.486816	-0.461759	-0.044615
C44	C	1.442505	-0.486553	0.790758
C45	C	1.426405	-0.495657	0.913432
H46	H	0.824461	-0.450737	0.418337
N47	N	1.346568	-0.540511	0.982304
N48	N	1.272952	-0.515298	1.051053
H49	H	1.216568	-0.546974	1.099696
H50	H	1.550456	-0.426001	0.900491
H51	H	1.506142	-0.450797	0.735862
H52	H	1.602594	-1.090757	0.184418
N53	N	1.249874	-0.899774	0.536896
N54	N	1.184564	-0.932862	0.510477
H55	H	1.127383	-0.959297	0.567591
N56	N	1.302285	-0.565309	0.817674
N57	N	1.289322	-0.572644	0.917229
H58	H	1.232949	-0.604330	0.965871
H59	H	1.275945	-0.759112	0.510876
H60	H	1.045248	-0.531593	0.286821
H61	H	0.992711	-0.425800	0.458833
N62	N	1.570298	-0.751657	0.216747
N63	N	1.636296	-0.784443	0.150782
H64	H	1.693476	-0.758023	0.093645
H65	H	0.877002	-0.556523	0.246347
N66	N	1.318365	-1.011454	0.468429
N67	N	1.222419	-0.995407	0.472623
H68	H	1.165230	-1.021842	0.529728
N69	N	1.559538	-0.899900	0.227460
N70	N	1.630292	-0.867178	0.156763
H71	H	1.683635	-0.893649	0.103449
H72	H	1.592941	-1.223825	0.194042
H73	H	1.315033	-1.223696	0.471773
H74	H	1.324686	-1.090639	0.462158
H75	H	1.534076	-0.979070	0.252880
