data_functionalizedCrystal
_audit_creation_method	'MofGen! by Chris Wilmer'
_symmetry_space_group_name_H-M	'P1'
_symmetry_Int_Tables_number	1
_symmetry_cell_setting	triclinic
loop_
_symmetry_equiv_pos_as_xyz
  x,y,z
_cell_length_a	23.532407
_cell_length_b	11.026607
_cell_length_c	10.065875
_cell_angle_alpha	79.268236
_cell_angle_beta	81.311311
_cell_angle_gamma	84.282619
loop_
_atom_site_label
_atom_site_type_symbol
_atom_site_fract_x
_atom_site_fract_y
_atom_site_fract_z
O1	O	0.777225	-0.129228	-0.113402
O2	O	0.613601	-0.150512	-0.113423
O3	O	0.681852	0.036619	-0.113409
O4	O	0.708974	-0.316359	-0.113416
O5	O	0.668852	0.000793	0.113577
O6	O	0.600602	-0.186338	0.113563
O7	O	0.764225	-0.165053	0.113584
Zn8	Zn	0.680349	-0.181384	0.149613
Zn9	Zn	0.697477	-0.134182	-0.149451
O10	O	0.695974	-0.352185	0.113571
C11	C	0.585829	-0.167883	0.000068
C12	C	0.522441	-0.166251	0.000060
N13	N	0.668664	-0.213597	0.353716
C14	C	0.670349	0.063857	0.000082
C15	C	0.655433	0.198392	0.000075
C16	C	0.243917	-0.048794	0.000099
C17	C	0.303476	-0.050309	0.000098
O18	O	0.330417	0.042866	0.000147
N19	N	0.337804	-0.161558	0.000087
C20	C	0.312569	-0.271302	0.000090
O21	O	0.347236	-0.366067	0.000082
C22	C	0.253010	-0.269788	0.000100
C23	C	0.218685	-0.158530	0.000098
C24	C	0.209592	0.062455	0.000098
C25	C	0.150037	0.063969	0.000096
C26	C	0.124806	-0.045767	0.000095
C27	C	0.159130	-0.157016	0.000096
C28	C	0.227775	-0.379533	0.000113
C29	C	0.168211	-0.378010	0.000124
C30	C	0.133887	-0.266751	0.000122
C31	C	0.074344	-0.265238	0.000092
N32	N	0.040016	-0.153988	0.000104
C33	C	0.065247	-0.044253	0.000105
C34	C	0.437646	-0.274473	0.000071
C35	C	0.497205	-0.275986	0.000051
C36	C	0.488108	-0.054993	0.000062
C37	C	0.428549	-0.053479	0.000072
C38	C	0.403318	-0.163224	0.000082
C39	C	-0.059823	-0.041082	0.000099
C40	C	-0.119383	-0.039577	0.000091
C41	C	-0.110281	-0.260571	0.000087
C42	C	-0.050726	-0.262076	0.000088
C43	C	-0.025499	-0.152322	0.000098
O44	O	0.047363	-0.358364	0.000049
O45	O	0.030572	0.050494	0.000131
C46	C	0.791998	-0.147683	0.000091
C47	C	0.855386	-0.149312	0.000090
C48	C	0.707478	-0.379422	0.000077
C49	C	0.722394	-0.513956	0.000075
C50	C	0.696618	0.272694	0.000078
C51	C	0.681203	0.411744	0.000071
N52	N	0.709166	-0.101959	-0.353554
C53	C	0.693407	-0.145382	0.421500
C54	C	0.684419	-0.170184	0.578665
H55	H	-0.147327	0.051027	0.000086
H56	H	0.743289	0.233363	0.000093
H57	H	0.608762	0.237724	0.000060
H58	H	0.634529	0.451069	0.000056
H59	H	0.417109	-0.363845	0.000069
H60	H	0.721242	-0.068615	0.363181
H61	H	0.656577	-0.246947	0.636981
H62	H	0.255713	-0.470131	0.000109
H63	H	-0.039290	0.048290	0.000107
H64	H	0.769075	0.446738	-0.000022
H65	H	0.122095	0.154566	0.000099
H66	H	0.737003	-0.025187	0.588130
H67	H	0.640824	-0.290356	0.412037
H68	H	0.400605	0.037117	0.000071
H69	H	0.230128	0.151819	0.000103
H70	H	0.508662	0.034360	0.000063
H71	H	-0.022777	-0.352671	0.000089
H72	H	0.147672	-0.467381	0.000139
H73	H	0.525148	-0.366581	0.000034
H74	H	-0.130834	-0.349914	0.000080
