data_functionalizedCrystal
_audit_creation_method	'MofGen! by Chris Wilmer'
_symmetry_space_group_name_H-M	'P1'
_symmetry_Int_Tables_number	1
_symmetry_cell_setting	triclinic
loop_
_symmetry_equiv_pos_as_xyz
  x,y,z
_cell_length_a	11.026607
_cell_length_b	14.971482
_cell_length_c	13.448316
_cell_angle_alpha	89.993798
_cell_angle_beta	90.003018
_cell_angle_gamma	83.900688
loop_
_atom_site_label
_atom_site_type_symbol
_atom_site_fract_x
_atom_site_fract_y
_atom_site_fract_z
O1	O	-0.158159	1.212291	-0.082674
O2	O	-0.177106	0.954926	-0.082678
O3	O	0.009051	1.062278	-0.082675
O4	O	-0.344316	1.104939	-0.082677
O5	O	0.009063	1.062259	0.082709
O6	O	-0.177094	0.954907	0.082706
O7	O	-0.158147	1.212272	0.082710
Cu8	Cu	-0.167620	1.083588	0.097809
Cu9	Cu	-0.167633	1.083610	-0.097777
O10	O	-0.344304	1.104919	0.082707
C11	C	-0.176254	0.921456	0.000013
C12	C	-0.173717	0.821752	0.000011
C13	C	-0.172516	0.774906	0.090163
C14	C	-0.170113	0.681222	0.090164
C15	C	-0.168919	0.634388	0.000013
C16	C	-0.170117	0.681240	-0.090146
C17	C	-0.172511	0.774922	-0.090146
C18	C	-0.165129	0.485979	-0.090140
C19	C	-0.162737	0.392292	-0.090140
C20	C	-0.162731	0.392280	0.090171
C21	C	-0.165125	0.485961	0.090171
C22	C	-0.166325	0.532808	0.000012
C23	C	-0.389532	1.112799	0.000015
C24	C	-0.524280	1.136260	0.000014
C25	C	-0.597993	1.071480	0.000012
C26	C	-0.737262	1.095727	0.000011
C27	C	0.054279	1.054399	0.000015
C28	C	0.189027	1.030938	0.000009
C29	C	-0.158999	1.245742	0.000016
C30	C	-0.161536	1.345445	0.000012
N31	N	-0.167609	1.083578	0.235373
N32	N	-0.167634	1.083625	-0.235341
C33	C	-0.085213	1.131138	0.287415
C34	C	-0.085212	1.131143	0.391518
C35	C	-0.167614	1.083594	0.443578
C36	C	-0.250015	1.036028	0.391528
C37	C	-0.250009	1.036018	0.287427
C38	C	-0.250023	1.036054	0.608509
C39	C	-0.250030	1.036065	0.712617
C40	C	-0.085226	1.131180	0.712599
C41	C	-0.085220	1.131170	0.608498
C42	C	-0.167622	1.083605	0.556456
H43	H	-0.173491	0.813063	-0.163557
H44	H	-0.018131	1.169908	0.754978
H45	H	-0.317120	0.997318	0.566140
H46	H	-0.317130	0.997344	0.754999
H47	H	-0.317103	0.997288	0.245056
Cl48	Cl	-0.174023	0.833775	0.203504
Cl49	Cl	-0.168625	0.622335	0.203503
H50	H	-0.166104	0.524092	0.163580
Cl51	Cl	-0.536252	0.958137	-0.000003
Cl52	Cl	-0.586020	1.249604	0.000007
Cl53	Cl	-0.798996	1.209075	0.000005
Cl54	Cl	-0.161234	0.333415	-0.203475
H55	H	-0.018118	1.169869	0.433890
Cl56	Cl	-0.353602	0.976245	0.456973
H57	H	-0.770984	0.957522	0.000004
H58	H	-0.018117	1.169863	0.245035
Cl59	Cl	-0.166635	0.544870	-0.203485
Cl60	Cl	-0.161223	0.333388	0.203514
Cl61	Cl	-0.168572	0.622359	-0.203481
Cl62	Cl	0.018364	1.190953	0.543050
