data_functionalizedCrystal
_audit_creation_method	'MofGen! by Chris Wilmer'
_symmetry_space_group_name_H-M	'P1'
_symmetry_Int_Tables_number	1
_symmetry_cell_setting	triclinic
loop_
_symmetry_equiv_pos_as_xyz
  x,y,z
_cell_length_a	29.839134
_cell_length_b	29.839131
_cell_length_c	12.759393
_cell_angle_alpha	90.036816
_cell_angle_beta	90.034807
_cell_angle_gamma	90.034165
loop_
_atom_site_label
_atom_site_type_symbol
_atom_site_fract_x
_atom_site_fract_y
_atom_site_fract_z
Zn1	Zn	0.686766	-0.178918	0.594363
Zn2	Zn	1.186766	0.321082	1.094363
Zn3	Zn	0.686685	-0.254056	0.418663
Zn4	Zn	1.186685	0.245944	0.918663
Zn5	Zn	0.611635	-0.178931	0.418655
Zn6	Zn	1.111635	0.321069	0.918655
Zn7	Zn	0.611597	-0.254013	0.594258
Zn8	Zn	1.111597	0.245987	1.094258
O9	O	0.649171	-0.216479	0.506485
O10	O	1.149171	0.283521	1.006485
O11	O	0.749622	-0.188898	0.571103
O12	O	1.249622	0.311102	1.071103
O13	O	0.676711	-0.244113	0.271641
O14	O	1.176711	0.255887	0.771641
O15	O	0.621652	-0.116062	0.442004
O16	O	1.121652	0.383938	0.942004
O17	O	0.749563	-0.244101	0.442017
O18	O	1.249563	0.255899	0.942017
O19	O	0.676850	-0.116053	0.571095
O20	O	1.176850	0.383947	1.071095
O21	O	0.621573	-0.188919	0.271635
O22	O	1.121573	0.311081	0.771635
O23	O	0.548763	-0.188878	0.441902
O24	O	1.048763	0.311122	0.941902
O25	O	0.621586	-0.244028	0.741293
O26	O	1.121586	0.255972	1.241293
O27	O	0.548735	-0.244040	0.570917
O28	O	1.048735	0.255960	1.070917
O29	O	0.676813	-0.188857	0.741370
O30	O	1.176813	0.311143	1.241370
O31	O	0.676674	-0.316917	0.441916
O32	O	1.176674	0.183083	0.941916
O33	O	0.621507	-0.316885	0.570924
O34	O	1.121507	0.183115	1.070924
C35	C	0.532448	-0.216456	0.506398
C36	C	1.032448	0.283544	1.006398
C37	C	0.482514	-0.216457	0.506386
C38	C	0.982514	0.283543	1.006386
C39	C	0.125929	-0.187714	0.439444
C40	C	0.625929	0.312286	0.939444
C41	C	0.313602	-0.187701	0.439380
C42	C	0.813602	0.312299	0.939380
O43	O	0.337868	-0.163225	0.382366
O44	O	0.837868	0.336775	0.882366
N45	N	0.337069	-0.216464	0.506438
N46	N	0.837069	0.283536	1.006438
C47	C	0.313614	-0.245230	0.573522
C48	C	0.813614	0.254770	1.073522
O49	O	0.337880	-0.269691	0.630565
O50	O	0.837880	0.230309	1.130565
C51	C	0.125942	-0.245240	0.573590
C52	C	0.625942	0.254760	1.073590
C53	C	0.102478	-0.216479	0.506520
C54	C	0.602478	0.283521	1.006520
C55	C	0.102464	-0.158954	0.372380
C56	C	0.602464	0.341046	0.872380
C57	C	0.055549	-0.158960	0.372393
C58	C	0.555549	0.341040	0.872393
C59	C	0.032098	-0.187724	0.439469
C60	C	0.532098	0.312276	0.939469
C61	C	0.055562	-0.216484	0.506533
C62	C	0.555562	0.283516	1.006533
C63	C	0.102488	-0.274004	0.640679
C64	C	0.602488	0.225996	1.140679
C65	C	0.055567	-0.274003	0.640692
C66	C	0.555567	0.225997	1.140692
C67	C	0.032103	-0.245241	0.573622
C68	C	0.532103	0.254759	1.073622
C69	C	-0.014804	-0.245254	0.573622
C70	C	0.485196	0.254746	1.073622
N71	N	-0.038271	-0.216491	0.506564
N72	N	0.461729	0.283509	1.006564
C73	C	-0.014820	-0.187726	0.439487
C74	C	0.485180	0.312274	0.939487
C75	C	0.412145	-0.245223	0.573480
C76	C	0.912145	0.254777	1.073480
C77	C	0.459063	-0.245222	0.573462
C78	C	0.959063	0.254778	1.073462
C79	C	0.459047	-0.187692	0.439321
C80	C	0.959047	0.312308	0.939321
C81	C	0.412128	-0.187696	0.439335
C82	C	0.912128	0.312304	0.939335
C83	C	0.388678	-0.216461	0.506422
C84	C	0.888678	0.283539	1.006422
C85	C	-0.113346	-0.187739	0.439518
C86	C	0.386654	0.312261	0.939518
C87	C	-0.160265	-0.187749	0.439534
C88	C	0.339735	0.312251	0.939534
C89	C	-0.160246	-0.245276	0.573678
C90	C	0.339754	0.254724	1.073678
C91	C	-0.113330	-0.245269	0.573659
C92	C	0.386670	0.254731	1.073659
C93	C	-0.089881	-0.216497	0.506576
C94	C	0.410119	0.283503	1.006576
O95	O	-0.039100	-0.269714	0.630614
O96	O	0.460900	0.230286	1.130614
O97	O	-0.039094	-0.163262	0.382469
O98	O	0.460906	0.336738	0.882469
C99	C	0.172844	-0.187709	0.439431
C100	C	0.672844	0.312291	0.939431
C101	C	0.196309	-0.216468	0.506495
C102	C	0.696309	0.283532	1.006495
C103	C	0.172857	-0.245233	0.573572
C104	C	0.672857	0.254767	1.073572
C105	C	0.243226	-0.216466	0.506477
C106	C	0.743226	0.283534	1.006477
C107	C	0.266678	-0.187702	0.439401
C108	C	0.766678	0.312298	0.939401
C109	C	0.243211	-0.158939	0.372342
C110	C	0.743211	0.341061	0.872342
C111	C	0.196295	-0.158944	0.372355
C112	C	0.696295	0.341056	0.872355
C113	C	0.196324	-0.273996	0.640630
C114	C	0.696324	0.226004	1.140630
C115	C	0.243240	-0.273989	0.640611
C116	C	0.743240	0.226011	1.140611
C117	C	0.266691	-0.245224	0.573535
C118	C	0.766691	0.254776	1.073535
C119	C	0.649090	-0.333202	0.506433
C120	C	1.149090	0.166798	1.006433
C121	C	0.649096	-0.383136	0.506445
C122	C	1.149096	0.116864	1.006445
C123	C	0.677948	-0.692784	0.439408
C124	C	1.177948	-0.192784	0.939408
C125	C	0.678004	-0.880457	0.439449
C126	C	1.178004	-0.380457	0.939449
O127	O	0.702471	-0.904725	0.382411
O128	O	1.202471	-0.404725	0.882411
N129	N	0.649264	-0.903921	0.506564
N130	N	1.149264	-0.403921	1.006564
C131	C	0.620510	-0.880465	0.573679
C132	C	1.120510	-0.380465	1.073679
O133	O	0.596070	-0.904730	0.630773
O134	O	1.096070	-0.404730	1.130773
C135	C	0.620457	-0.692793	0.573642
C136	C	1.120457	-0.192793	1.073642
C137	C	0.649196	-0.669331	0.506515
C138	C	1.149196	-0.169331	1.006515
C139	C	0.706685	-0.669321	0.372287
C140	C	1.206685	-0.169321	0.872287
C141	C	0.706669	-0.622406	0.372274
C142	C	1.206669	-0.122406	0.872274
C143	C	0.677916	-0.598953	0.439381
C144	C	1.177916	-0.098953	0.939381
C145	C	0.649180	-0.622415	0.506502
C146	C	1.149180	-0.122415	1.006502
C147	C	0.591706	-0.669338	0.640761
C148	C	1.091706	-0.169338	1.140761
C149	C	0.591696	-0.622417	0.640748
C150	C	1.091696	-0.122417	1.140748
C151	C	0.620435	-0.598954	0.573621
C152	C	1.120435	-0.098954	1.073621
C153	C	0.620412	-0.552047	0.573595
C154	C	1.120412	-0.052047	1.073595
N155	N	0.649151	-0.528582	0.506480
N156	N	1.149151	-0.028582	1.006480
C157	C	0.677904	-0.552035	0.439373
C158	C	1.177904	-0.052035	0.939373
C159	C	0.620539	-0.978996	0.573691
C160	C	1.120539	-0.478996	1.073691
C161	C	0.620552	-1.025914	0.573699
C162	C	1.120552	-0.525914	1.073699
C163	C	0.678046	-1.025902	0.439471
C164	C	1.178046	-0.525902	0.939471
C165	C	0.678031	-0.978983	0.439458
C166	C	1.178031	-0.478983	0.939458
C167	C	0.649279	-0.955531	0.506576
C168	C	1.149279	-0.455531	1.006576
C169	C	0.677868	-0.453509	0.439349
C170	C	1.177868	0.046491	0.939349
C171	C	0.677848	-0.406589	0.439338
C172	C	1.177848	0.093411	0.939338
C173	C	0.620356	-0.406605	0.573570
C174	C	1.120356	0.093395	1.073570
C175	C	0.620374	-0.453521	0.573577
C176	C	1.120374	0.046479	1.073577
C177	C	0.649134	-0.476971	0.506463
C178	C	1.149134	0.023029	1.006463
O179	O	0.595961	-0.527750	0.630611
O180	O	1.095961	-0.027750	1.130611
O181	O	0.702348	-0.527762	0.382304
O182	O	1.202348	-0.027762	0.882304
C183	C	0.677964	-0.739699	0.439422
C184	C	1.177964	-0.239699	0.939422
C185	C	0.649228	-0.763161	0.506542
C186	C	1.149228	-0.263161	1.006542
C187	C	0.620475	-0.739708	0.573650
C188	C	1.120475	-0.239708	1.073650
C189	C	0.649240	-0.810079	0.506550
C190	C	1.149240	-0.310079	1.006550
C191	C	0.677993	-0.833532	0.439443
C192	C	1.177993	-0.333532	0.939443
C193	C	0.706732	-0.810067	0.372328
C194	C	1.206732	-0.310067	0.872328
C195	C	0.706717	-0.763152	0.372315
C196	C	1.206717	-0.263152	0.872315
C197	C	0.591735	-0.763173	0.640765
C198	C	1.091735	-0.263173	1.140765
C199	C	0.591753	-0.810089	0.640772
C200	C	1.091753	-0.310089	1.140772
C201	C	0.620506	-0.833542	0.573665
C202	C	1.120506	-0.333542	1.073665
C203	C	0.766349	-0.216503	0.506573
C204	C	1.266349	0.283497	1.006573
C205	C	0.816283	-0.216513	0.506610
C206	C	1.316283	0.283487	1.006610
C207	C	0.649204	-0.216436	0.780518
C208	C	1.149204	0.283564	1.280518
C209	C	0.649219	-0.216418	0.897295
C210	C	1.149219	0.283582	1.397295
C211	C	0.649264	-0.099301	0.506560
C212	C	1.149264	0.400699	1.006560
C213	C	0.649304	-0.049367	0.506592
C214	C	1.149304	0.450633	1.006592
C215	C	0.649163	-0.216490	0.233517
C216	C	1.149163	0.283510	0.733517
C217	C	0.649236	-0.216382	0.116741
C218	C	1.149236	0.283618	0.616741
C219	C	0.677977	-0.187686	0.952199
C220	C	1.177977	0.312314	1.452199
C221	C	0.677985	-0.187666	1.061923
C222	C	1.177985	0.312334	1.561923
C223	C	0.620474	-0.245115	1.061830
C224	C	1.120474	0.254885	1.561830
C225	C	0.620464	-0.245132	0.952108
C226	C	1.120464	0.254868	1.452108
H227	H	0.036448	-0.135539	0.317777
H228	H	0.536448	0.364461	0.817777
H229	H	0.262340	-0.297414	0.695226
H230	H	0.762340	0.202586	1.195226
Cl231	Cl	0.555581	-0.698822	0.725168
Cl232	Cl	1.055581	-0.198822	1.225168
Cl233	Cl	0.166804	-0.122783	0.288037
Cl234	Cl	0.666804	0.377217	0.788037
Cl235	Cl	0.272701	-0.122779	0.288016
Cl236	Cl	0.772701	0.377221	0.788016
H237	H	0.701433	-0.959883	0.384798
H238	H	1.201433	-0.459883	0.884798
H239	H	0.730142	-0.829171	0.317684
H240	H	1.230142	-0.329171	0.817684
H241	H	0.701390	-0.164303	0.907573
H242	H	1.201390	0.335697	1.407573
Cl243	Cl	0.714144	-0.151548	1.130940
Cl244	Cl	1.214144	0.348452	1.630940
H245	H	0.568284	-0.603324	0.695407
H246	H	1.068284	-0.103324	1.195407
H247	H	0.597064	-0.268494	1.106472
H248	H	1.097064	0.231506	1.606472
Cl249	Cl	0.714191	-1.055394	0.355107
Cl250	Cl	1.214191	-0.555394	0.855107
H251	H	0.177235	-0.297420	0.695254
H252	H	0.677235	0.202580	1.195254
H253	H	0.597042	-0.268529	0.907404
H254	H	1.097042	0.231471	1.407404
H255	H	0.701251	-0.387488	0.384672
H256	H	1.201251	0.112512	0.884672
H257	H	0.121585	-0.297425	0.695294
H258	H	0.621585	0.202575	1.195294
Cl259	Cl	-0.189760	-0.151589	0.355210
Cl260	Cl	0.310240	0.348411	0.855210
H261	H	-0.094259	-0.164308	0.384897
H262	H	0.405741	0.335692	0.884897
Cl263	Cl	-0.083832	-0.281431	0.657966
Cl264	Cl	0.416168	0.218569	1.157966
H265	H	0.568347	-0.829188	0.695434
H266	H	1.068347	-0.329188	1.195434
H267	H	0.597146	-1.045013	0.628351
H268	H	1.097146	-0.545013	1.128351
H269	H	0.121553	-0.135528	0.317758
H270	H	0.621553	0.364472	0.817758
H271	H	0.393027	-0.164275	0.384724
H272	H	0.893027	0.335725	0.884724
Cl273	Cl	0.742806	-0.592917	0.287897
Cl274	Cl	1.242806	-0.092917	0.787897
H275	H	-0.179348	-0.268697	0.628286
H276	H	0.320652	0.231303	1.128286
Cl277	Cl	0.584389	-0.949520	0.658075
Cl278	Cl	1.084389	-0.449520	1.158075
Cl279	Cl	0.488537	-0.151530	0.354998
Cl280	Cl	0.988537	0.348470	0.854998
H281	H	0.568322	-0.744082	0.695413
H282	H	1.068322	-0.244082	1.195413
Cl283	Cl	0.488555	-0.281387	0.657767
Cl284	Cl	0.988555	0.218613	1.157767
Cl285	Cl	0.026090	-0.310165	0.725038
Cl286	Cl	0.526090	0.189835	1.225038
Cl287	Cl	0.382671	-0.281390	0.657823
Cl288	Cl	0.882671	0.218610	1.157823
H289	H	0.596974	-0.472625	0.628241
H290	H	1.096974	0.027375	1.128241
Cl291	Cl	0.742836	-0.698796	0.287912
Cl292	Cl	1.242836	-0.198796	0.787912
Cl293	Cl	0.714023	-0.482983	0.354974
Cl294	Cl	1.214023	0.017017	0.854974
H295	H	0.596945	-0.387503	0.628205
H296	H	1.096945	0.112497	1.128205
Cl297	Cl	0.742849	-0.733663	0.287926
Cl298	Cl	1.242849	-0.233663	0.787926
