data_functionalizedCrystal
_audit_creation_method	'MofGen! by Chris Wilmer'
_symmetry_space_group_name_H-M	'P1'
_symmetry_Int_Tables_number	1
_symmetry_cell_setting	triclinic
loop_
_symmetry_equiv_pos_as_xyz
  x,y,z
_cell_length_a	10.654545
_cell_length_b	10.489716
_cell_length_c	9.730223
_cell_angle_alpha	89.999635
_cell_angle_beta	89.997167
_cell_angle_gamma	84.506107
loop_
_atom_site_label
_atom_site_type_symbol
_atom_site_fract_x
_atom_site_fract_y
_atom_site_fract_z
O1	O	1.667911	0.179136	-0.114263
O2	O	1.302438	0.196212	-0.114267
O3	O	1.493507	0.002070	-0.114270
O4	O	1.476842	0.373278	-0.114260
O5	O	1.493494	0.002065	0.114310
O6	O	1.302426	0.196207	0.114313
O7	O	1.667898	0.179131	0.114317
Zn8	Zn	1.485160	0.187668	0.150607
Zn9	Zn	1.485176	0.187675	-0.150557
O10	O	1.476830	0.373273	0.114320
C11	C	1.255633	0.194957	0.000022
C12	C	1.116188	0.191209	0.000020
C13	C	1.050676	0.189442	0.124619
C14	C	0.919656	0.185900	0.124619
C15	C	0.919670	0.185897	-0.124591
C16	C	1.050689	0.189430	-0.124590
C17	C	1.492248	-0.045464	0.000016
C18	C	1.488502	-0.187093	0.000003
C19	C	1.605671	-0.284826	0.000017
C20	C	1.543763	-0.362153	-0.112682
C21	C	1.543723	-0.362122	0.112680
C22	C	1.426642	-0.262555	-0.112789
C23	C	1.426620	-0.262519	0.112674
C24	C	1.364625	-0.339797	-0.000052
C25	C	1.714703	0.180386	0.000025
C26	C	1.854148	0.184134	0.000018
C27	C	1.478088	0.420807	0.000031
C28	C	1.481834	0.562436	0.000034
N29	N	1.485158	0.187662	0.356143
N30	N	1.485188	0.187671	-0.356093
C31	C	1.569792	0.101733	0.428068
C32	C	1.569805	0.101733	0.571951
C33	C	1.400545	0.273604	0.571972
C34	C	1.400527	0.273596	0.428091
H35	H	0.866324	0.184450	-0.226043
N36	N	1.121362	0.191321	-0.258985
H37	H	1.059989	0.189665	-0.337925
H38	H	1.166250	0.271720	-0.264417
H39	H	0.866321	0.184461	0.226081
N40	N	1.740669	-0.252204	-0.000114
H41	H	1.784791	-0.288639	-0.085327
H42	H	1.742182	-0.156086	0.000805
H43	H	1.638720	0.031761	0.630508
N44	N	1.309269	0.366286	0.649573
H45	H	1.322122	0.353256	0.751635
H46	H	1.324574	0.456917	0.624411
H47	H	1.593230	-0.405670	-0.207961
N48	N	1.361161	-0.205173	-0.239137
H49	H	1.364158	-0.109231	-0.238388
H50	H	1.405093	-0.242422	-0.324091
N51	N	1.229546	-0.372158	-0.000157
H52	H	1.185463	-0.335603	-0.085335
H53	H	1.227880	-0.468259	0.000697
H54	H	1.377197	-0.218978	0.207957
H55	H	1.638702	0.031759	0.369491
N56	N	1.121325	0.191360	0.259012
H57	H	1.059937	0.189702	0.337944
H58	H	1.185167	0.113890	0.264442
N59	N	1.609254	-0.419742	0.238889
H60	H	1.700239	-0.400155	0.238781
H61	H	1.565843	-0.382060	0.323941
N62	N	1.309229	0.366271	0.350503
H63	H	1.255622	0.420715	0.417912
H64	H	1.357795	0.423116	0.290785
