data_functionalizedCrystal
_audit_creation_method	'MofGen! by Chris Wilmer'
_symmetry_space_group_name_H-M	'P1'
_symmetry_Int_Tables_number	1
_symmetry_cell_setting	triclinic
loop_
_symmetry_equiv_pos_as_xyz
  x,y,z
_cell_length_a	18.101398
_cell_length_b	18.101395
_cell_length_c	15.296720
_cell_angle_alpha	99.643705
_cell_angle_beta	99.666182
_cell_angle_gamma	90.029256
loop_
_atom_site_label
_atom_site_type_symbol
_atom_site_fract_x
_atom_site_fract_y
_atom_site_fract_z
Zn1	Zn	1.059619	-0.367298	-0.509969
Zn2	Zn	1.080961	-0.469721	-0.359118
Zn3	Zn	0.957221	-0.345897	-0.359144
Zn4	Zn	0.935733	-0.491093	-0.509935
O5	O	1.008384	-0.418502	-0.434542
O6	O	1.166082	-0.380896	-0.489962
O7	O	1.082471	-0.435395	-0.232883
O8	O	0.970865	-0.245107	-0.379176
O9	O	1.181762	-0.456146	-0.379133
O10	O	1.046096	-0.260829	-0.489987
O11	O	0.991559	-0.344422	-0.232902
O12	O	0.850738	-0.365146	-0.379143
O13	O	0.934243	-0.492572	-0.636178
O14	O	0.834951	-0.471821	-0.489929
O15	O	1.025261	-0.401620	-0.636203
O16	O	1.061636	-0.576185	-0.379100
O17	O	0.954938	-0.591887	-0.489904
C18	C	0.815974	-0.418481	-0.434535
C19	C	0.733657	-0.418493	-0.434554
C20	C	0.582949	-0.418506	-0.434553
C21	C	0.541703	-0.485696	-0.504148
C22	C	0.456114	-0.485898	-0.503942
C23	C	0.434566	-0.418520	-0.434553
C24	C	0.479152	-0.425828	-0.339366
C25	C	0.564739	-0.426293	-0.339769
C26	C	0.547908	-0.343748	-0.459312
C27	C	0.461959	-0.344475	-0.461409
C28	C	0.350708	-0.418525	-0.434547
C29	C	0.666808	-0.418501	-0.434552
C30	C	1.008288	-0.610909	-0.434515
C31	C	1.008311	-0.693226	-0.434534
C32	C	1.008466	-0.992323	-0.434582
C33	C	0.941443	-0.970933	-0.504470
C34	C	0.941203	-0.885284	-0.504252
C35	C	1.008389	-0.843938	-0.434559
C36	C	1.000776	-0.861585	-0.339487
C37	C	1.000349	-0.947290	-0.339905
C38	C	1.083347	-0.964128	-0.458930
C39	C	1.082590	-0.878773	-0.461015
C40	C	1.008348	-0.760075	-0.434540
C41	C	1.008507	-1.076185	-0.434595
C42	C	1.201544	-0.418524	-0.434548
C43	C	1.283858	-0.418533	-0.434551
C44	C	0.974974	-0.451867	-0.669838
C45	C	0.960737	-0.466085	-0.770107
C46	C	1.008497	-0.225347	-0.434588
C47	C	1.008545	-0.143035	-0.434608
C48	C	1.110165	-0.316754	-1.052801
C49	C	1.123546	-0.303396	-0.958593
C50	C	1.082845	-0.344067	-0.911467
C51	C	1.028761	-0.398098	-0.958558
C52	C	1.015383	-0.411461	-1.052775
C53	C	0.988062	-0.438774	-0.911441
C54	C	0.933978	-0.492805	-0.958532
C55	C	0.920602	-0.506165	-1.052740
C56	C	0.961303	-0.465494	-1.099866
C57	C	1.001441	-0.425411	-0.817224
C58	C	0.906658	-0.520118	-0.817198
C59	C	0.893277	-0.533476	-0.911406
C60	C	1.041705	-0.385214	-0.200161
C61	C	1.056086	-0.370787	-0.099892
H62	H	0.593104	-0.378721	-0.286136
N63	N	1.060829	-0.826512	-0.272364
N64	N	1.104173	-0.865554	-0.227782
H65	H	1.146586	-0.840783	-0.180376
N66	N	0.463128	-0.365577	-0.272535
N67	N	0.418561	-0.316462	-0.294366
H68	H	0.407243	-0.273908	-0.247169
H69	H	1.045476	-0.381418	-0.778892
N70	N	1.096502	-0.330435	-0.815237
N71	N	1.117909	-0.382239	-0.773168
H72	H	1.127552	-0.372609	-0.705201
H73	H	1.167583	-0.259406	-0.920259
N74	N	0.947620	-0.479148	-1.196100
N75	N	0.883887	-0.469630	-1.238148
H76	H	0.874223	-0.479274	-1.306115
N77	N	0.871222	-0.856775	-0.484071
N78	N	0.858872	-0.788487	-0.480434
H79	H	0.809439	-0.768354	-0.466202
N80	N	1.151737	-0.275230	-1.100952
N81	N	1.139787	-0.287174	-1.185069
H82	H	1.169151	-0.257847	-1.219078
H83	H	1.088576	-0.868348	-0.530983
H84	H	0.431708	-0.338713	-0.531460
N85	N	0.865373	-0.561376	-1.100829
N86	N	0.829045	-0.597692	-1.058747
H87	H	0.790043	-0.636690	-1.092708
N88	N	1.147183	-0.843503	-0.401804
N89	N	1.139548	-0.791891	-0.338859
H90	H	1.185166	-0.766982	-0.297032
N91	N	0.838024	-0.588654	-0.959519
N92	N	0.783391	-0.570034	-1.012093
H93	H	0.744366	-0.609001	-1.046076
H94	H	0.437927	-0.541571	-0.487515
H95	H	0.873517	-0.553237	-0.778828
N96	N	0.417202	-0.482186	-0.592477
N97	N	0.424843	-0.532484	-0.656821
H98	H	0.397367	-0.529867	-0.719355
N99	N	0.554930	-0.482180	-0.592952
N100	N	0.594913	-0.430118	-0.605989
H101	H	0.604255	-0.427630	-0.668710
H102	H	1.092922	-0.995355	-0.527074
N103	N	0.945215	-0.871427	-0.592690
N104	N	0.948210	-0.925093	-0.655006
H105	H	0.951041	-0.915311	-0.717471
H106	H	0.565498	-0.541063	-0.487920
H107	H	0.460698	-0.479389	-0.318084
N108	N	0.593483	-0.494331	-0.313512
N109	N	0.550316	-0.541142	-0.295019
H110	H	0.570612	-0.589196	-0.276475
N111	N	0.933440	-0.831012	-0.313154
N112	N	0.890959	-0.796212	-0.364241
H113	H	0.843401	-0.774619	-0.345648
N114	N	1.059827	-0.963699	-0.272335
N115	N	1.045445	-0.994380	-0.209510
H116	H	1.087445	-1.005969	-0.161784
H117	H	0.559832	-0.334412	-0.527552
N118	N	0.945290	-1.009264	-0.593203
N119	N	0.997468	-1.052801	-0.605971
H120	H	1.000200	-1.079860	-0.668645
H121	H	0.447254	-0.292856	-0.414455
N122	N	1.145776	-0.980461	-0.395065
N123	N	1.135270	-1.012721	-0.331869
H124	H	1.179355	-1.024258	-0.286760
H125	H	0.575391	-0.293858	-0.408627
H126	H	0.946014	-0.964402	-0.319280
N127	N	0.871883	-0.995180	-0.484492
N128	N	0.871456	-1.028145	-0.419007
H129	H	0.822330	-1.045272	-0.404894
