data_functionalizedCrystal
_audit_creation_method	'MofGen! by Chris Wilmer'
_symmetry_space_group_name_H-M	'P1'
_symmetry_Int_Tables_number	1
_symmetry_cell_setting	triclinic
loop_
_symmetry_equiv_pos_as_xyz
  x,y,z
_cell_length_a	14.519710
_cell_length_b	16.992695
_cell_length_c	15.455313
_cell_angle_alpha	87.152573
_cell_angle_beta	87.314736
_cell_angle_gamma	92.825816
loop_
_atom_site_label
_atom_site_type_symbol
_atom_site_fract_x
_atom_site_fract_y
_atom_site_fract_z
O1	O	1.235033	-0.099371	-0.072113
O2	O	0.967425	-0.111477	-0.072119
O3	O	1.100156	0.008720	-0.072109
O4	O	1.102302	-0.219568	-0.072123
O5	O	1.092564	0.001875	0.072153
O6	O	0.959833	-0.118322	0.072143
O7	O	1.227441	-0.106216	0.072149
Cu8	Cu	1.092944	-0.112894	0.085318
Cu9	Cu	1.101922	-0.104799	-0.085288
O10	O	1.094710	-0.226413	0.072139
C11	C	0.929229	-0.114335	0.000011
C12	C	0.826726	-0.112644	0.000009
C13	C	1.265637	-0.103358	0.000017
C14	C	1.368140	-0.105048	0.000013
C15	C	1.093600	0.034514	0.000022
C16	C	1.085364	0.121570	0.000021
C17	C	1.743483	-0.111272	0.000013
C18	C	1.639051	-0.109544	0.000012
C19	C	1.555815	-0.108160	0.000012
C20	C	1.451376	-0.106432	0.000014
C21	C	1.101266	-0.252207	0.000006
C22	C	1.109502	-0.339262	0.000001
N23	N	1.086635	-0.118587	0.205313
C24	C	1.164824	0.171698	0.000024
C25	C	1.157081	0.253496	0.000016
C26	C	1.069877	0.285163	0.000011
C27	C	0.990412	0.235028	0.000006
C28	C	0.998156	0.153232	0.000008
C29	C	1.037781	0.528807	-0.000002
C30	C	1.030042	0.610609	-0.000001
C31	C	1.196713	0.629072	0.000007
C32	C	1.204449	0.547273	0.000015
C33	C	1.124984	0.497145	0.000005
N34	N	1.061960	0.368774	0.000005
N35	N	1.132902	0.413537	0.000004
N36	N	1.108238	-0.099100	-0.205283
C37	C	1.143046	-0.067542	0.250711
C38	C	1.138284	-0.071855	0.341519
C39	C	1.077116	-0.127217	0.386927
C40	C	1.020699	-0.178264	0.341522
C41	C	1.025456	-0.173947	0.250716
C42	C	1.056578	-0.145830	0.658507
C43	C	1.051827	-0.150144	0.749319
C44	C	1.169412	-0.043734	0.749310
C45	C	1.174168	-0.039425	0.658502
C46	C	1.117748	-0.090469	0.613105
N47	N	1.072249	-0.131628	0.479746
N48	N	1.122610	-0.086054	0.520287
H49	H	1.235835	0.145922	0.000033
H50	H	0.979519	-0.215512	0.213754
H51	H	1.184218	-0.030290	0.378482
C52	C	0.950365	0.473677	-0.000017
N53	N	0.884520	0.432150	-0.000032
H54	H	1.192860	-0.022464	0.213747
H55	H	0.933451	0.112417	0.000005
C56	C	0.994640	-0.202082	0.608582
N57	N	0.948031	-0.244491	0.570976
H58	H	0.919408	0.260818	-0.000004
H59	H	0.970889	-0.223338	0.378498
H60	H	1.215346	-0.002175	0.786280
C61	C	1.300380	0.512446	0.000021
N62	N	1.372636	0.486214	0.000029
C63	C	1.244493	0.308634	0.000033
N64	N	1.310336	0.350164	0.000050
H65	H	1.261409	0.669894	0.000013
H66	H	1.002013	-0.195230	0.786285
H67	H	0.959026	0.636388	0.000009
C68	C	1.241453	0.021481	0.608560
N69	N	1.292134	0.067357	0.570944
