data_functionalizedCrystal
_audit_creation_method	'MofGen! by Chris Wilmer'
_symmetry_space_group_name_H-M	'P1'
_symmetry_Int_Tables_number	1
_symmetry_cell_setting	triclinic
loop_
_symmetry_equiv_pos_as_xyz
  x,y,z
_cell_length_a	13.897449
_cell_length_b	21.295416
_cell_length_c	13.897441
_cell_angle_alpha	89.966051
_cell_angle_beta	90.020733
_cell_angle_gamma	89.968389
loop_
_atom_site_label
_atom_site_type_symbol
_atom_site_fract_x
_atom_site_fract_y
_atom_site_fract_z
Zn1	Zn	1.474618	0.250568	0.545359
Zn2	Zn	1.474476	0.355847	0.384051
Zn3	Zn	1.313307	0.250598	0.384077
Zn4	Zn	1.313253	0.355805	0.545303
O5	O	1.393914	0.303204	0.464697
O6	O	1.609581	0.264538	0.523973
O7	O	1.453060	0.341915	0.249072
O8	O	1.334787	0.162504	0.405506
O9	O	1.609477	0.341886	0.405461
O10	O	1.453301	0.162482	0.523999
O11	O	1.334650	0.264589	0.249092
O12	O	1.178318	0.264549	0.405452
O13	O	1.334695	0.341815	0.680292
O14	O	1.178279	0.341844	0.523904
O15	O	1.453249	0.264498	0.680333
O16	O	1.453008	0.443931	0.405407
O17	O	1.334558	0.443900	0.523878
C18	C	1.143299	0.303196	0.464675
C19	C	1.036085	0.303207	0.464689
C20	C	0.839790	0.303210	0.464714
C21	C	0.949023	0.303207	0.464697
C22	C	1.393788	0.466756	0.464655
C23	C	1.393822	0.536724	0.464669
C24	C	1.455554	0.569586	0.403046
C25	C	1.455600	0.635328	0.403072
C26	C	1.393896	0.668207	0.464711
C27	C	1.332160	0.635337	0.526346
C28	C	1.332123	0.569596	0.526325
N29	N	1.309516	0.771473	0.472064
N30	N	1.309554	0.833925	0.472078
C31	C	1.394005	0.866281	0.464779
N32	N	1.478419	0.833827	0.457447
N33	N	1.478381	0.771370	0.457427
C34	C	1.393930	0.739492	0.464741
C35	C	1.455792	0.970428	0.403181
C36	C	1.455839	1.036172	0.403214
C37	C	1.332390	1.036180	0.526483
C38	C	1.332352	0.970437	0.526455
C39	C	1.394051	0.937565	0.464799
C40	C	1.645507	0.303213	0.464720
C41	C	1.752720	0.303217	0.464730
C42	C	1.393982	0.303149	0.716291
C43	C	1.394011	0.303125	0.823505
C44	C	1.394067	1.139014	0.464778
C45	C	1.394136	1.069046	0.464855
C46	C	1.393901	0.303214	0.214083
C47	C	1.394059	0.303061	0.106870
C48	C	1.394037	0.303082	1.019800
C49	C	1.394020	0.303108	0.910567
H50	H	1.505873	0.662089	0.352892
H51	H	1.282154	1.062949	0.576674
O52	O	1.265533	0.534151	0.592792
H53	H	1.275876	0.482914	0.582424
H54	H	1.281922	0.662111	0.576534
O55	O	1.522111	0.534129	0.336563
H56	H	1.565053	0.568029	0.293724
O57	O	1.522346	0.934966	0.336699
H58	H	1.565295	0.968865	0.293864
O59	O	1.522426	1.071623	0.336752
H60	H	1.505905	1.059064	0.261027
H61	H	1.282080	0.943680	0.576630
