data_functionalizedCrystal
_audit_creation_method	'MofGen! by Chris Wilmer'
_symmetry_space_group_name_H-M	'P1'
_symmetry_Int_Tables_number	1
_symmetry_cell_setting	triclinic
loop_
_symmetry_equiv_pos_as_xyz
  x,y,z
_cell_length_a	12.759401
_cell_length_b	29.839131
_cell_length_c	12.759393
_cell_angle_alpha	90.043693
_cell_angle_beta	89.979062
_cell_angle_gamma	89.957873
loop_
_atom_site_label
_atom_site_type_symbol
_atom_site_fract_x
_atom_site_fract_y
_atom_site_fract_z
Zn1	Zn	1.606077	0.178813	-0.593924
Zn2	Zn	1.605889	0.253950	-0.418203
Zn3	Zn	1.430376	0.178837	-0.418259
Zn4	Zn	1.430288	0.253919	-0.593841
O5	O	1.518158	0.216380	-0.506057
O6	O	1.753073	0.188784	-0.570626
O7	O	1.582565	0.244010	-0.271190
O8	O	1.453799	0.115967	-0.441619
O9	O	1.752935	0.243986	-0.441525
O10	O	1.582886	0.115949	-0.570679
O11	O	1.453616	0.188824	-0.271230
O12	O	1.283343	0.188794	-0.441539
O13	O	1.453649	0.243933	-0.740873
O14	O	1.283279	0.243956	-0.570538
O15	O	1.582801	0.188753	-0.740934
O16	O	1.582480	0.316813	-0.441444
O17	O	1.453467	0.316790	-0.570484
C18	C	1.245190	0.216375	-0.506036
C19	C	1.128414	0.216383	-0.506052
C20	C	1.073546	0.245150	-0.573116
C21	C	0.963822	0.245151	-0.573137
C22	C	0.963843	0.187618	-0.439020
C23	C	1.073565	0.187615	-0.439006
C24	C	0.813909	0.261272	-0.696988
C25	C	0.759037	0.290045	-0.764043
C26	C	0.794588	0.333888	-0.779968
C27	C	0.885010	0.348966	-0.728822
C28	C	0.939876	0.320195	-0.661759
C29	C	0.904326	0.276346	-0.645855
C30	C	1.223480	0.171499	-0.315152
C31	C	1.278348	0.142730	-0.248084
C32	C	1.242799	0.098886	-0.232149
C33	C	1.152374	0.083810	-0.283276
C34	C	1.097506	0.112579	-0.350345
C35	C	1.133063	0.156422	-0.366281
C36	C	1.517972	0.333103	-0.505972
C37	C	1.517988	0.383037	-0.505971
C38	C	1.585254	0.692636	-0.573369
C39	C	1.585327	0.880309	-0.573438
O40	O	1.642414	0.904537	-0.630670
N41	N	1.518185	0.903822	-0.506195
C42	C	1.451016	0.880414	-0.438935
O43	O	1.393902	0.904719	-0.381749
C44	C	1.450938	0.692741	-0.438872
C45	C	1.518092	0.669231	-0.506112
C46	C	1.652401	0.669126	-0.640605
C47	C	1.652387	0.622211	-0.640583
C48	C	1.585224	0.598805	-0.573325
C49	C	1.518077	0.622316	-0.506090
C50	C	1.383764	0.669334	-0.371617
C51	C	1.383749	0.622413	-0.371609
C52	C	1.450903	0.598903	-0.438850
C53	C	1.450900	0.551995	-0.438810
N54	N	1.518042	0.528482	-0.506054
C55	C	1.585204	0.551888	-0.573311
C56	C	1.451063	0.978944	-0.438971
C57	C	1.451083	1.025862	-0.438985
C58	C	1.585393	1.025755	-0.573490
C59	C	1.585377	0.978836	-0.573470
C60	C	1.518204	0.955432	-0.506214
C61	C	1.585168	0.453362	-0.573259
C62	C	1.585151	0.406442	-0.573228
C63	C	1.450837	0.406554	-0.438727
C64	C	1.450858	0.453469	-0.438754
C65	C	1.518027	0.476872	-0.506028
O66	O	1.393835	0.527739	-0.381617
O67	O	1.642293	0.527574	-0.630504
C68	C	1.585269	0.739552	-0.573391
C69	C	1.518122	0.763062	-0.506156
C70	C	1.450960	0.739657	-0.438898
C71	C	1.518142	0.809980	-0.506170
C72	C	1.585304	0.833385	-0.573427
C73	C	1.652446	0.809872	-0.640671
C74	C	1.652431	0.762957	-0.640649
C75	C	1.383818	0.763170	-0.371655
C76	C	1.383839	0.810085	-0.371682
C77	C	1.451001	0.833490	-0.438939
C78	C	1.792191	0.216386	-0.506078
C79	C	1.908968	0.216388	-0.506087
C80	C	1.518318	1.099202	-0.506173
C81	C	1.518245	1.049267	-0.506243
C82	C	1.518236	0.216337	-0.780090
C83	C	1.518270	0.216319	-0.896867
C84	C	1.585524	0.187582	-0.951762
C85	C	1.585542	0.187562	-1.061487
C86	C	1.451048	0.245020	-1.061410
C87	C	1.451026	0.245037	-0.951688
C88	C	1.623210	0.134558	-1.211493
C89	C	1.690480	0.105825	-1.266392
C90	C	1.793000	0.098936	-1.230805
C91	C	1.828271	0.120786	-1.140320
C92	C	1.761006	0.149523	-1.085426
C93	C	1.658471	0.156403	-1.121012
C94	C	1.413369	0.298042	-0.801679
C95	C	1.346108	0.326781	-0.746784
C96	C	1.243587	0.333675	-0.782369
C97	C	1.208320	0.311832	-0.872858
C98	C	1.275580	0.283093	-0.927753
C99	C	1.378101	0.276199	-0.892160
C100	C	1.518140	0.216391	-0.233089
C101	C	1.518310	0.216282	-0.116313
H102	H	0.919172	0.164197	-0.384432
H103	H	0.913942	0.384669	-0.741784
H104	H	1.640275	0.164196	-0.907130
H105	H	1.252440	0.207199	-0.328131
H106	H	1.351977	0.155009	-0.206452
H107	H	1.396361	0.959892	-0.384200
H108	H	1.123417	0.048112	-0.270285
Cl109	Cl	0.769220	0.206150	-0.676991
Cl110	Cl	0.983823	0.093626	-0.414615
Cl111	Cl	1.736856	0.733408	-0.725186
Cl112	Cl	1.142494	0.281313	-0.657407
Cl113	Cl	1.494317	0.143210	-1.256230
Cl114	Cl	1.669614	0.482775	-0.657830
H115	H	1.124840	0.317447	-0.901835
H116	H	1.639839	0.387302	-0.627983
Cl117	Cl	1.805336	0.176991	-0.971681
Cl118	Cl	1.053540	0.339146	-0.597463
H119	H	1.661753	0.088034	-1.340066
Cl120	Cl	1.311769	0.062722	-0.147817
Cl121	Cl	0.725609	0.370058	-0.864272
H122	H	1.396411	1.045000	-0.384220
Cl123	Cl	1.736880	0.839305	-0.725219
H124	H	1.188828	0.357080	-0.737668
Cl125	Cl	1.877567	0.062815	-1.299825
Cl126	Cl	1.366449	0.483026	-0.354209
Cl127	Cl	1.390450	0.354245	-0.633032
H128	H	1.329156	0.829223	-0.316917
H129	H	1.707093	0.688178	-0.695380
Cl130	Cl	1.299298	0.592993	-0.287053
Cl131	Cl	1.736804	0.592662	-0.725127
H132	H	1.640059	0.959697	-0.628223
Cl133	Cl	1.669824	1.055187	-0.658043
Cl134	Cl	0.645372	0.271089	-0.828343
Cl135	Cl	1.299332	0.698878	-0.287085
Cl136	Cl	1.366409	0.377121	-0.354180
Cl137	Cl	1.542247	0.289364	-0.756913
H138	H	1.329125	0.744117	-0.316887
Cl139	Cl	1.957167	0.112131	-1.095596
Cl140	Cl	1.366524	0.281124	-1.130335
H141	H	1.246858	0.265308	-1.001434
