data_functionalizedCrystal
_audit_creation_method	'MofGen! by Chris Wilmer'
_symmetry_space_group_name_H-M	'P1'
_symmetry_Int_Tables_number	1
_symmetry_cell_setting	triclinic
loop_
_symmetry_equiv_pos_as_xyz
  x,y,z
_cell_length_a	12.827893
_cell_length_b	16.120484
_cell_length_c	12.827885
_cell_angle_alpha	92.863928
_cell_angle_beta	89.980728
_cell_angle_gamma	92.925431
loop_
_atom_site_label
_atom_site_type_symbol
_atom_site_fract_x
_atom_site_fract_y
_atom_site_fract_z
Zn1	Zn	1.576504	-0.331866	-0.611895
Zn2	Zn	1.567505	-0.471301	-0.445998
Zn3	Zn	1.401742	-0.331907	-0.437171
Zn4	Zn	1.392841	-0.471239	-0.620694
O5	O	1.484648	-0.401579	-0.528940
O6	O	1.721545	-0.350372	-0.589900
O7	O	1.545475	-0.452853	-0.298594
O8	O	1.432416	-0.215236	-0.452972
O9	O	1.714934	-0.452814	-0.468017
O10	O	1.560812	-0.215206	-0.581341
O11	O	1.423690	-0.350441	-0.292109
O12	O	1.254326	-0.350381	-0.461505
O13	O	1.417245	-0.452708	-0.765761
O14	O	1.247787	-0.452748	-0.596338
O15	O	1.552181	-0.350311	-0.759296
O16	O	1.536844	-0.587959	-0.476549
O17	O	1.408520	-0.587913	-0.604897
C18	C	1.213139	-0.401562	-0.528919
C19	C	1.096985	-0.401576	-0.528936
C20	C	1.041987	-0.452309	-0.595563
C21	C	0.921936	-0.452324	-0.595582
C22	C	1.470768	-0.618186	-0.542658
C23	C	1.464925	-0.710851	-0.548562
C24	C	1.454265	-0.880512	-0.559362
C25	C	1.515219	-0.921804	-0.498534
C26	C	1.509287	-1.016209	-0.504544
C27	C	1.460195	-0.786099	-0.553355
C28	C	1.757217	-0.401595	-0.528962
C29	C	1.873370	-0.401602	-0.528971
C30	C	1.484724	-0.401498	-0.801505
C31	C	1.484757	-0.401464	-0.917656
C32	C	1.498611	-0.184125	-0.515191
C33	C	1.504561	-0.091460	-0.509332
C34	C	1.551535	-0.350785	-0.966241
C35	C	1.551570	-0.350749	-1.086289
C36	C	1.484636	-0.401598	-0.257431
C37	C	1.484821	-0.401397	-0.141266
H38	H	1.083779	-0.495730	-0.652594
H39	H	1.427651	-0.444791	-1.099479
H40	H	1.571857	-0.886255	-0.441944
Br41	Br	1.359867	-0.939760	-0.653677
H42	H	1.608676	-0.307421	-0.918962
Br43	Br	1.646874	-0.278434	-1.155942
Br44	Br	0.843131	-0.524730	-0.690654
Br45	Br	1.389497	-0.473734	-0.996447
H46	H	0.920648	-0.358168	-0.471922
Br47	Br	1.027342	-0.329188	-0.433889
