data_functionalizedCrystal
_audit_creation_method	'MofGen! by Chris Wilmer'
_symmetry_space_group_name_H-M	'P1'
_symmetry_Int_Tables_number	1
_symmetry_cell_setting	triclinic
loop_
_symmetry_equiv_pos_as_xyz
  x,y,z
_cell_length_a	16.959455
_cell_length_b	12.645330
_cell_length_c	16.959447
_cell_angle_alpha	89.971796
_cell_angle_beta	89.979626
_cell_angle_gamma	90.009666
loop_
_atom_site_label
_atom_site_type_symbol
_atom_site_fract_x
_atom_site_fract_y
_atom_site_fract_z
Zn1	Zn	1.208425	-0.422103	-0.447048
Zn2	Zn	1.708425	0.077897	0.052952
Zn3	Zn	1.208364	-0.599394	-0.314874
Zn4	Zn	1.708364	-0.099394	0.185126
Zn5	Zn	1.076253	-0.422136	-0.314871
Zn6	Zn	1.576253	0.077864	0.185129
Zn7	Zn	1.076235	-0.599315	-0.446999
Zn8	Zn	1.576235	-0.099315	0.053001
O9	O	1.142319	-0.510737	-0.380948
O10	O	1.642319	-0.010737	0.119052
O11	O	1.319028	-0.445640	-0.429537
O12	O	1.819028	0.054360	0.070463
O13	O	1.190822	-0.575928	-0.204263
O14	O	1.690822	-0.075928	0.295737
O15	O	1.093819	-0.273784	-0.332424
O16	O	1.593819	0.226216	0.167576
O17	O	1.318983	-0.575895	-0.332429
O18	O	1.818983	-0.075895	0.167571
O19	O	1.190925	-0.273760	-0.429534
O20	O	1.690925	0.226240	0.070466
O21	O	1.093760	-0.445697	-0.204261
O22	O	1.593760	0.054303	0.295739
O23	O	0.965640	-0.445620	-0.332377
O24	O	1.465640	0.054380	0.167623
O25	O	1.093788	-0.575761	-0.557616
O26	O	1.593788	-0.075761	-0.057616
O27	O	0.965626	-0.575793	-0.429450
O28	O	1.465626	-0.075793	0.070550
O29	O	1.190907	-0.445563	-0.557652
O30	O	1.690907	0.054437	-0.057652
O31	O	1.190804	-0.747731	-0.332382
O32	O	1.690804	-0.247731	0.167618
O33	O	1.093729	-0.747673	-0.429453
O34	O	1.593729	-0.247673	0.070547
C35	C	0.936953	-0.510702	-0.380908
C36	C	1.436953	-0.010702	0.119092
C37	C	0.849096	-0.510713	-0.380910
C38	C	1.349096	-0.010713	0.119090
C39	C	0.477587	-0.578494	-0.330359
C40	C	0.977587	-0.078494	0.169641
C41	C	0.477655	-0.443068	-0.431634
C42	C	0.977655	0.056932	0.068366
C43	C	0.560200	-0.443051	-0.431615
C44	C	1.060200	0.056949	0.068385
C45	C	0.601443	-0.510757	-0.380968
C46	C	1.101443	-0.010757	0.119032
C47	C	0.560141	-0.578481	-0.330339
C48	C	1.060141	-0.078481	0.169661
C49	C	0.601509	-0.375336	-0.482248
C50	C	1.101509	0.124664	0.017752
C51	C	0.684060	-0.375317	-0.482231
C52	C	1.184060	0.124683	0.017769
C53	C	0.725305	-0.443018	-0.431579
C54	C	1.225305	0.056982	0.068421
C55	C	0.683997	-0.510744	-0.380948
C56	C	1.183997	-0.010744	0.119052
C57	C	0.725240	-0.578450	-0.330301
C58	C	1.225240	-0.078450	0.169699
C59	C	0.683933	-0.646171	-0.279666
C60	C	1.183933	-0.146171	0.220334
C61	C	0.601385	-0.646182	-0.279688
C62	C	1.101385	-0.146182	0.220312
C63	C	0.807853	-0.443007	-0.431557
C64	C	1.307853	0.056993	0.068443
C65	C	0.807793	-0.578437	-0.330282
C66	C	1.307793	-0.078437	0.169718
C67	C	1.142280	-0.786167	-0.380929
C68	C	1.642280	-0.286167	0.119071
C69	C	1.142335	-0.903997	-0.380948
C70	C	1.642335	-0.403997	0.119052
C71	C	1.203307	-1.071553	-0.319756
C72	C	1.703307	-0.571553	0.180244
C73	C	1.203505	-0.948993	-0.319906
C74	C	1.703505	-0.448993	0.180094
C75	C	1.164917	-0.948378	-0.464269
C76	C	1.664917	-0.448378	0.035731
C77	C	1.165401	-1.070976	-0.463944
C78	C	1.665401	-0.570976	0.036056
C79	C	1.058757	-1.071319	-0.359639
C80	C	1.558757	-0.571319	0.140361
C81	C	1.059158	-0.948715	-0.357771
C82	C	1.559158	-0.448715	0.142229
C83	C	1.348487	-0.510773	-0.380989
C84	C	1.848487	-0.010773	0.119011
C85	C	1.436344	-0.510788	-0.381006
C86	C	1.936344	-0.010788	0.118994
C87	C	1.142352	-0.510649	-0.587116
C88	C	1.642352	-0.010649	-0.087116
C89	C	1.142366	-0.510612	-0.674973
C90	C	1.642366	-0.010612	-0.174973
C91	C	1.142380	-0.234232	-0.380984
C92	C	1.642380	0.265768	0.119016
C93	C	1.142407	-0.116402	-0.381000
C94	C	1.642407	0.383598	0.119000
C95	C	1.091895	-0.578288	-1.046433
C96	C	1.591895	-0.078288	-0.546433
C97	C	1.193026	-0.442712	-1.046465
C98	C	1.693026	0.057288	-0.546465
C99	C	1.193005	-0.442735	-0.963919
C100	C	1.693005	0.057265	-0.463919
C101	C	1.142429	-0.510536	-0.922626
C102	C	1.642429	-0.010536	-0.422626
C103	C	1.091874	-0.578315	-0.963879
C104	C	1.591874	-0.078315	-0.463879
C105	C	1.243565	-0.374965	-0.922660
C106	C	1.743565	0.125035	-0.422660
C107	C	1.243546	-0.374986	-0.840109
C108	C	1.743546	0.125014	-0.340109
C109	C	1.192966	-0.442782	-0.798815
C110	C	1.692966	0.057218	-0.298815
C111	C	1.142408	-0.510563	-0.840073
C112	C	1.642408	-0.010563	-0.340073
C113	C	1.091832	-0.578364	-0.798780
C114	C	1.591832	-0.078364	-0.298780
C115	C	1.041270	-0.646140	-0.840036
C116	C	1.541270	-0.146140	-0.340036
C117	C	1.041293	-0.646111	-0.922585
C118	C	1.541293	-0.146111	-0.422585
C119	C	1.192942	-0.442811	-0.716266
C120	C	1.692942	0.057189	-0.216266
C121	C	1.091811	-0.578391	-0.716226
C122	C	1.591811	-0.078391	-0.216226
C123	C	1.142332	-0.510748	-0.175582
C124	C	1.642332	-0.010748	0.324418
C125	C	1.142471	-0.510487	-0.087726
C126	C	1.642471	-0.010487	0.412274
H127	H	0.567923	-0.320220	-0.523487
H128	H	1.067923	0.179780	-0.023487
Cl129	Cl	1.098514	-0.903388	-0.536610
Cl130	Cl	1.598514	-0.403388	-0.036610
Cl131	Cl	1.259802	-1.115008	-0.491875
Cl132	Cl	1.759802	-0.615008	0.008125
Cl133	Cl	0.735981	-0.290182	-0.545884
Cl134	Cl	1.235981	0.209818	-0.045884
Cl135	Cl	0.977695	-0.731378	-0.788115
Cl136	Cl	1.477695	-0.231378	-0.288115
Cl137	Cl	1.307147	-0.289743	-0.974575
Cl138	Cl	1.807147	0.210257	-0.474575
H139	H	1.225370	-0.917594	-0.482663
H140	H	1.725370	-0.417594	0.017337
Cl141	Cl	1.099884	-1.116779	-0.536790
Cl142	Cl	1.599884	-0.616779	-0.036790
Cl143	Cl	1.299161	-0.903587	-0.341726
Cl144	Cl	1.799161	-0.403587	0.158274
H145	H	1.234207	-0.387518	-1.080091
H146	H	1.734207	0.112482	-0.580091
H147	H	0.567746	-0.701317	-0.238463
H148	H	1.067746	-0.201317	0.261537
Cl149	Cl	0.735792	-0.731291	-0.216003
Cl150	Cl	1.235792	-0.231291	0.283997
Cl151	Cl	1.027048	-1.119194	-0.267467
Cl152	Cl	1.527048	-0.619194	0.232533
Cl153	Cl	1.028221	-0.663626	-0.664321
Cl154	Cl	1.528221	-0.163626	-0.164321
Cl155	Cl	1.032862	-0.903940	-0.263104
Cl156	Cl	1.532862	-0.403940	0.236896
Cl157	Cl	0.977740	-0.731313	-0.974454
Cl158	Cl	1.477740	-0.231313	-0.474454
H159	H	1.284717	-0.319798	-0.806525
H160	H	1.784717	0.180202	-0.306525
Cl161	Cl	0.425805	-0.357968	-0.495310
Cl162	Cl	0.925805	0.142032	0.004690
H163	H	1.011335	-0.918096	-0.399106
H164	H	1.511335	-0.418096	0.100894
H165	H	0.443952	-0.633628	-0.289130
H166	H	0.943952	-0.133628	0.210870
Cl167	Cl	1.256506	-0.357621	-0.664405
Cl168	Cl	1.756506	0.142379	-0.164405
Cl169	Cl	1.028332	-0.663485	-1.098295
Cl170	Cl	1.528332	-0.163485	-0.598295
Cl171	Cl	0.859635	-0.663553	-0.266603
Cl172	Cl	1.359635	-0.163553	0.233397
Cl173	Cl	0.859778	-0.357885	-0.495211
Cl174	Cl	1.359778	0.142115	0.004789
H175	H	1.189356	-1.101107	-0.257794
H176	H	1.689356	-0.601107	0.242206
Cl177	Cl	1.181642	-0.902667	-0.224532
Cl178	Cl	1.681642	-0.402667	0.275468
H179	H	1.264931	-1.102287	-0.333727
H180	H	1.764931	-0.602287	0.166273
Cl181	Cl	0.988700	-1.116100	-0.428504
Cl182	Cl	1.488700	-0.616100	0.071496
