data_functionalizedCrystal
_audit_creation_method	'MofGen! by Chris Wilmer'
_symmetry_space_group_name_H-M	'P1'
_symmetry_Int_Tables_number	1
_symmetry_cell_setting	triclinic
loop_
_symmetry_equiv_pos_as_xyz
  x,y,z
_cell_length_a	12.594517
_cell_length_b	12.594516
_cell_length_c	16.625539
_cell_angle_alpha	89.974997
_cell_angle_beta	89.986122
_cell_angle_gamma	90.011773
loop_
_atom_site_label
_atom_site_type_symbol
_atom_site_fract_x
_atom_site_fract_y
_atom_site_fract_z
Zn1	Zn	1.627294	-0.423741	-0.455784
Zn2	Zn	2.127294	0.076259	0.044216
Zn3	Zn	1.627199	-0.601743	-0.320959
Zn4	Zn	2.127199	-0.101743	0.179041
Zn5	Zn	1.449299	-0.423779	-0.320980
Zn6	Zn	1.949299	0.076221	0.179020
Zn7	Zn	1.449293	-0.601678	-0.455765
Zn8	Zn	1.949293	-0.101678	0.044235
O9	O	1.538271	-0.512735	-0.388372
O10	O	2.038271	-0.012735	0.111628
O11	O	1.776227	-0.447365	-0.437898
O12	O	2.276227	0.052635	0.062102
O13	O	1.603563	-0.578178	-0.208129
O14	O	2.103563	-0.078178	0.291871
O15	O	1.472952	-0.274828	-0.338879
O16	O	1.972952	0.225172	0.161121
O17	O	1.776157	-0.578142	-0.338843
O18	O	2.276157	-0.078142	0.161157
O19	O	1.603724	-0.274801	-0.437919
O20	O	2.103724	0.225199	0.062081
O21	O	1.472861	-0.447428	-0.208145
O22	O	1.972861	0.052572	0.291855
O23	O	1.300352	-0.447366	-0.338860
O24	O	1.800352	0.052634	0.161140
O25	O	1.472942	-0.578032	-0.568600
O26	O	1.972942	-0.078032	-0.068600
O27	O	1.300348	-0.578068	-0.437886
O28	O	1.800348	-0.078068	0.062114
O29	O	1.603719	-0.447303	-0.568614
O30	O	2.103719	0.052697	-0.068614
O31	O	1.603557	-0.750680	-0.338824
O32	O	2.103557	-0.250680	0.161176
O33	O	1.472850	-0.750633	-0.437865
O34	O	1.972850	-0.250633	0.062135
C35	C	1.261730	-0.512715	-0.388374
C36	C	1.761730	-0.012715	0.111626
C37	C	1.143425	-0.512731	-0.388394
C38	C	1.643425	-0.012731	0.111606
C39	C	1.003437	-0.583949	-0.442154
C40	C	1.503437	-0.083949	0.057846
C41	C	1.074210	-0.609852	-0.368565
C42	C	1.574210	-0.109852	0.131435
C43	C	1.074223	-0.486876	-0.461974
C44	C	1.574223	0.013124	0.038026
C45	C	1.003412	-0.538719	-0.314742
C46	C	1.503412	-0.038719	0.185258
C47	C	1.003420	-0.415698	-0.408201
C48	C	1.503420	0.084302	0.091799
C49	C	1.074161	-0.441564	-0.334561
C50	C	1.574161	0.058436	0.165439
C51	C	1.538222	-0.789276	-0.388358
C52	C	2.038222	-0.289276	0.111642
C53	C	1.538298	-0.907582	-0.388379
C54	C	2.038298	-0.407582	0.111621
C55	C	1.609472	-0.976822	-0.334568
C56	C	2.109472	-0.476822	0.165432
C57	C	1.635482	-1.047523	-0.408160
C58	C	2.135482	-0.547523	0.091840
C59	C	1.512421	-1.047679	-0.314834
C60	C	2.012421	-0.547679	0.185166
C61	C	1.564358	-0.976725	-0.462010
C62	C	2.064358	-0.476725	0.037990
C63	C	1.441252	-0.976874	-0.368633
C64	C	1.941252	-0.476874	0.131367
C65	C	1.467225	-1.047544	-0.442276
C66	C	1.967225	-0.547544	0.057724
C67	C	1.815892	-0.512757	-0.388370
C68	C	2.315892	-0.012757	0.111630
C69	C	1.934197	-0.512766	-0.388370
C70	C	2.434197	-0.012766	0.111630
C71	C	1.538340	-0.512656	-0.598681
C72	C	2.038340	-0.012656	-0.098681
C73	C	1.538370	-0.512622	-0.688302
C74	C	2.038370	-0.012622	-0.188302
C75	C	1.538350	-0.235114	-0.388404
C76	C	2.038350	0.264886	0.111596
C77	C	1.538383	-0.116809	-0.388417
C78	C	2.038383	0.383191	0.111583
C79	C	1.538419	-0.512503	-1.016478
C80	C	2.038419	-0.012503	-0.516478
C81	C	1.538402	-0.512540	-0.925169
C82	C	2.038402	-0.012540	-0.425169
C83	C	1.538395	-0.512563	-0.852393
C84	C	2.038395	-0.012563	-0.352393
C85	C	1.538377	-0.512598	-0.761079
C86	C	2.038377	-0.012598	-0.261079
C87	C	1.538263	-0.512737	-0.178881
C88	C	2.038263	-0.012737	0.321119
C89	C	1.538440	-0.512471	-0.089260
C90	C	2.038440	-0.012471	0.410740
H91	H	1.105304	-0.691926	-0.351796
H92	H	1.605304	-0.191926	0.148204
F93	F	1.742804	-1.088070	-0.430029
F94	F	2.242804	-0.588070	0.069971
F95	F	1.333959	-0.936283	-0.346750
F96	F	1.833959	-0.436283	0.153250
F97	F	0.962932	-0.567447	-0.233371
F98	F	1.462932	-0.067447	0.266629
F99	F	1.688153	-0.936230	-0.275141
F100	F	2.188153	-0.436230	0.224859
F101	F	1.114881	-0.458272	-0.543320
F102	F	1.614881	0.041728	-0.043320
F103	F	1.593148	-0.936165	-0.543347
F104	F	2.093148	-0.436165	-0.043347
F105	F	1.388600	-1.087880	-0.501844
F106	F	1.888600	-0.587880	-0.001844
F107	F	1.114487	-0.362854	-0.275060
F108	F	1.614487	0.137146	0.224940
F109	F	0.962742	-0.308452	-0.430146
F110	F	1.462742	0.191548	0.069854
F111	F	1.483767	-1.088417	-0.233519
F112	F	1.983767	-0.588417	0.266481
H113	H	0.972383	-0.644207	-0.487570
H114	H	1.472383	-0.144207	0.012430
