data_functionalizedCrystal
_audit_creation_method	'MofGen! by Chris Wilmer'
_symmetry_space_group_name_H-M	'P1'
_symmetry_Int_Tables_number	1
_symmetry_cell_setting	triclinic
loop_
_symmetry_equiv_pos_as_xyz
  x,y,z
_cell_length_a	16.959455
_cell_length_b	25.639239
_cell_length_c	16.959447
_cell_angle_alpha	89.966924
_cell_angle_beta	89.985678
_cell_angle_gamma	90.035633
loop_
_atom_site_label
_atom_site_type_symbol
_atom_site_fract_x
_atom_site_fract_y
_atom_site_fract_z
Zn1	Zn	1.208282	-0.208183	-0.446894
Zn2	Zn	1.541615	0.125150	-0.113560
Zn3	Zn	1.874948	0.458484	0.219773
Zn4	Zn	1.208161	-0.295624	-0.314709
Zn5	Zn	1.541494	0.037710	0.018625
Zn6	Zn	1.874828	0.371043	0.351958
Zn7	Zn	1.076110	-0.208199	-0.314731
Zn8	Zn	1.409443	0.125134	0.018602
Zn9	Zn	1.742777	0.458467	0.351936
Zn10	Zn	1.076032	-0.295585	-0.446847
Zn11	Zn	1.409365	0.037749	-0.113514
Zn12	Zn	1.742698	0.371082	0.219819
O13	O	1.142146	-0.251898	-0.380795
O14	O	1.475479	0.081436	-0.047462
O15	O	1.808813	0.414769	0.285872
O16	O	1.318876	-0.219792	-0.429369
O17	O	1.652210	0.113542	-0.096036
O18	O	1.985543	0.446875	0.237298
O19	O	1.190627	-0.284050	-0.204101
O20	O	1.523960	0.049283	0.129233
O21	O	1.857293	0.382617	0.462566
O22	O	1.093726	-0.135032	-0.332291
O23	O	1.427059	0.198301	0.001042
O24	O	1.760393	0.531635	0.334375
O25	O	1.318788	-0.284034	-0.332253
O26	O	1.652121	0.049299	0.001080
O27	O	1.985455	0.382633	0.334413
O28	O	1.190832	-0.135020	-0.429391
O29	O	1.524165	0.198313	-0.096057
O30	O	1.857499	0.531647	0.237276
O31	O	1.093609	-0.219820	-0.204117
O32	O	1.426943	0.113514	0.129216
O33	O	1.760276	0.446847	0.462550
O34	O	0.965489	-0.219782	-0.332247
O35	O	1.298822	0.113552	0.001087
O36	O	1.632155	0.446885	0.334420
O37	O	1.093593	-0.283967	-0.557464
O38	O	1.426926	0.049366	-0.224131
O39	O	1.760259	0.382699	0.109202
O40	O	0.965431	-0.283983	-0.429312
O41	O	1.298765	0.049350	-0.095978
O42	O	1.632098	0.382683	0.237355
O43	O	1.190756	-0.219754	-0.557498
O44	O	1.524089	0.113579	-0.224165
O45	O	1.857423	0.446913	0.109168
O46	O	1.190551	-0.368784	-0.332208
O47	O	1.523884	-0.035450	0.001125
O48	O	1.857217	0.297883	0.334458
O49	O	1.093476	-0.368755	-0.429290
O50	O	1.426809	-0.035422	-0.095957
O51	O	1.760142	0.297912	0.237377
C52	C	0.936780	-0.251880	-0.380777
C53	C	1.270113	0.081453	-0.047444
C54	C	1.603446	0.414786	0.285890
C55	C	0.848923	-0.251886	-0.380788
C56	C	1.182257	0.081448	-0.047455
C57	C	1.515590	0.414781	0.285879
C58	C	1.142013	-0.387740	-0.380759
C59	C	1.475346	-0.054407	-0.047426
C60	C	1.808680	0.278926	0.285908
C61	C	1.142029	-0.445854	-0.380770
C62	C	1.475362	-0.112521	-0.047437
C63	C	1.808695	0.220812	0.285897
C64	C	0.477453	-0.218441	-0.330359
C65	C	0.810786	0.114893	0.002975
C66	C	1.144120	0.448226	0.336308
C67	C	0.477442	-0.285398	-0.431277
C68	C	0.810775	0.047935	-0.097943
C69	C	1.144109	0.381269	0.235390
C70	C	0.559988	-0.285390	-0.431272
C71	C	0.893321	0.047943	-0.097938
C72	C	1.226655	0.381276	0.235395
C73	C	0.601270	-0.251908	-0.380809
C74	C	0.934604	0.081425	-0.047476
C75	C	1.267937	0.414759	0.285858
C76	C	0.560007	-0.218433	-0.330351
C77	C	0.893340	0.114900	0.002983
C78	C	1.226673	0.448233	0.336316
C79	C	0.601258	-0.318868	-0.481723
C80	C	0.934591	0.014465	-0.148390
C81	C	1.267924	0.347798	0.184943
C82	C	0.683809	-0.318863	-0.481720
C83	C	1.017142	0.014471	-0.148387
C84	C	1.350475	0.347804	0.184947
C85	C	0.725092	-0.285377	-0.431260
C86	C	1.058426	0.047956	-0.097927
C87	C	1.391759	0.381289	0.235406
C88	C	0.683824	-0.251901	-0.380801
C89	C	1.017157	0.081433	-0.047467
C90	C	1.350490	0.414766	0.285866
C91	C	0.725106	-0.218418	-0.330338
C92	C	1.058439	0.114915	0.002995
C93	C	1.391773	0.448248	0.336329
C94	C	0.683839	-0.184939	-0.279882
C95	C	1.017172	0.148395	0.053452
C96	C	1.350506	0.481728	0.386785
C97	C	0.601290	-0.184948	-0.279891
C98	C	0.934624	0.148386	0.053442
C99	C	1.267957	0.481719	0.386775
C100	C	0.807641	-0.285368	-0.431251
C101	C	1.140974	0.047965	-0.097918
C102	C	1.474308	0.381299	0.235416
C103	C	0.807660	-0.218411	-0.330330
C104	C	1.140993	0.114922	0.003003
C105	C	1.474326	0.448256	0.336337
C106	C	1.192825	-0.806220	-0.330331
C107	C	1.526158	-0.472886	0.003003
C108	C	1.859492	-0.139553	0.336336
C109	C	1.192855	-0.860824	-0.330341
C110	C	1.526189	-0.527491	0.002992
C111	C	1.859522	-0.194157	0.336325
O112	O	1.235906	-0.889063	-0.287417
O113	O	1.569240	-0.555729	0.045917
O114	O	1.902573	-0.222396	0.379250
N115	N	1.142285	-0.888137	-0.380847
N116	N	1.475618	-0.554803	-0.047514
N117	N	1.808952	-0.221470	0.285819
C118	C	1.091686	-0.860842	-0.431352
C119	C	1.425020	-0.527509	-0.098019
C120	C	1.758353	-0.194176	0.235315
O121	O	1.048675	-0.889088	-0.474313
O122	O	1.382009	-0.555755	-0.140979
O123	O	1.715342	-0.222421	0.192354
C124	C	1.091660	-0.806239	-0.431345
C125	C	1.424994	-0.472906	-0.098011
C126	C	1.758327	-0.139572	0.235322
C127	C	1.142228	-0.778929	-0.380830
C128	C	1.475562	-0.445596	-0.047496
C129	C	1.808895	-0.112262	0.285837
C130	C	1.243389	-0.778910	-0.279820
C131	C	1.576723	-0.445576	0.053513
C132	C	1.910056	-0.112243	0.386846
C133	C	1.243358	-0.724309	-0.279809
C134	C	1.576691	-0.390976	0.053524
C135	C	1.910024	-0.057643	0.386858
C136	C	1.192761	-0.697019	-0.330308
C137	C	1.526094	-0.363685	0.003025
C138	C	1.859428	-0.030352	0.336359
C139	C	1.142196	-0.724329	-0.380818
C140	C	1.475530	-0.390995	-0.047485
C141	C	1.808863	-0.057662	0.285848
C142	C	1.041066	-0.778946	-0.481853
C143	C	1.374399	-0.445612	-0.148519
C144	C	1.707733	-0.112279	0.184814
C145	C	1.041045	-0.724339	-0.481842
C146	C	1.374378	-0.391005	-0.148508
C147	C	1.707711	-0.057672	0.184825
C148	C	1.091613	-0.697029	-0.431326
C149	C	1.424946	-0.363695	-0.097993
C150	C	1.758280	-0.030362	0.235340
C151	C	1.091568	-0.642437	-0.431306
C152	C	1.424901	-0.309104	-0.097972
C153	C	1.758235	0.024229	0.235361
N154	N	1.142139	-0.615125	-0.380800
N155	N	1.475472	-0.281791	-0.047466
N156	N	1.808805	0.051542	0.285867
C157	C	1.192735	-0.642415	-0.330301
C158	C	1.526068	-0.309082	0.003033
C159	C	1.859402	0.024251	0.336366
C160	C	1.091746	-0.975513	-0.431364
C161	C	1.425079	-0.642180	-0.098031
C162	C	1.758412	-0.308846	0.235303
C163	C	1.091767	-1.030115	-0.431368
C164	C	1.425101	-0.696782	-0.098035
C165	C	1.758434	-0.363449	0.235299
C166	C	1.192938	-1.030093	-0.330358
C167	C	1.526271	-0.696760	0.002975
C168	C	1.859604	-0.363427	0.336308
C169	C	1.192912	-0.975490	-0.330351
C170	C	1.526245	-0.642157	0.002982
C171	C	1.859578	-0.308823	0.336316
C172	C	1.142316	-0.948200	-0.380858
C173	C	1.475650	-0.614867	-0.047525
C174	C	1.808983	-0.281534	0.285809
C175	C	1.192664	-0.527750	-0.330280
C176	C	1.525997	-0.194417	0.003053
C177	C	1.859330	0.138916	0.336386
C178	C	1.192625	-0.473145	-0.330271
C179	C	1.525958	-0.139812	0.003062
C180	C	1.859292	0.193522	0.336396
C181	C	1.091458	-0.473172	-0.431283
C182	C	1.424791	-0.139838	-0.097950
C183	C	1.758125	0.193495	0.235383
C184	C	1.091493	-0.527772	-0.431290
C185	C	1.424827	-0.194439	-0.097957
C186	C	1.758160	0.138894	0.235377
C187	C	1.142103	-0.555060	-0.380786
C188	C	1.475436	-0.221727	-0.047452
C189	C	1.808769	0.111606	0.285881
O190	O	1.048541	-0.614164	-0.474211
O191	O	1.381875	-0.280831	-0.140878
O192	O	1.715208	0.052503	0.192456
O193	O	1.235746	-0.614163	-0.287355
O194	O	1.569079	-0.280830	0.045979
O195	O	1.902413	0.052504	0.379312
C196	C	1.348314	-0.251915	-0.380814
C197	C	1.681648	0.081418	-0.047480
C198	C	2.014981	0.414751	0.285853
C199	C	1.436171	-0.251923	-0.380822
C200	C	1.769504	0.081410	-0.047488
C201	C	2.102838	0.414744	0.285845
C202	C	1.142179	-0.251854	-0.586963
C203	C	1.475512	0.081479	-0.253630
C204	C	1.808846	0.414812	0.079703
C205	C	1.142193	-0.251836	-0.674820
C206	C	1.475526	0.081497	-0.341487
C207	C	1.808860	0.414831	-0.008153
C208	C	1.142301	-0.115525	-0.380849
C209	C	1.475634	0.217809	-0.047515
C210	C	1.808968	0.551142	0.285818
C211	C	1.142367	-0.057411	-0.380872
C212	C	1.475700	0.275923	-0.047538
C213	C	1.809034	0.609256	0.285795
C214	C	1.091699	-0.285214	-1.046281
C215	C	1.425032	0.048119	-0.712947
C216	C	1.758366	0.381453	-0.379614
C217	C	1.192876	-0.218348	-1.046311
C218	C	1.526209	0.114985	-0.712978
C219	C	1.859543	0.448319	-0.379644
C220	C	1.192855	-0.218359	-0.963765
C221	C	1.526188	0.114974	-0.630432
C222	C	1.859522	0.448308	-0.297099
C223	C	1.142256	-0.251799	-0.922473
C224	C	1.475589	0.081535	-0.589140
C225	C	1.808923	0.414868	-0.255806
C226	C	1.091678	-0.285227	-0.963727
C227	C	1.425011	0.048106	-0.630394
C228	C	1.758345	0.381440	-0.297060
C229	C	1.243438	-0.184935	-0.922505
C230	C	1.576771	0.148399	-0.589172
C231	C	1.910104	0.481732	-0.255838
C232	C	1.243419	-0.184945	-0.839954
C233	C	1.576753	0.148388	-0.506621
C234	C	1.910086	0.481722	-0.173287
C235	C	1.192816	-0.218382	-0.798661
C236	C	1.526149	0.114951	-0.465327
C237	C	1.859482	0.448284	-0.131994
C238	C	1.142235	-0.251812	-0.839920
C239	C	1.475568	0.081522	-0.506586
C240	C	1.808902	0.414855	-0.173253
C241	C	1.091636	-0.285251	-0.798628
C242	C	1.424969	0.048082	-0.465294
C243	C	1.758303	0.381415	-0.131961
C244	C	1.041051	-0.318679	-0.839885
C245	C	1.374384	0.014655	-0.506552
C246	C	1.707717	0.347988	-0.173218
C247	C	1.041074	-0.318665	-0.922433
C248	C	1.374408	0.014669	-0.589100
C249	C	1.707741	0.348002	-0.255767
C250	C	1.192792	-0.218396	-0.716112
C251	C	1.526125	0.114937	-0.382779
C252	C	1.859459	0.448270	-0.049445
C253	C	1.091615	-0.285265	-0.716074
C254	C	1.424948	0.048069	-0.382741
C255	C	1.758282	0.381402	-0.049407
C256	C	1.142159	-0.251903	-0.175429
C257	C	1.475492	0.081430	0.157904
C258	C	1.808825	0.414764	0.491238
C259	C	1.142298	-0.251774	-0.087573
C260	C	1.475631	0.081559	0.245761
C261	C	1.808965	0.414892	0.579094
H262	H	0.841266	-0.191142	-0.289241
H263	H	1.174599	0.142191	0.044092
H264	H	1.507933	0.475525	0.377426
H265	H	0.717462	-0.157680	-0.238791
H266	H	1.050795	0.175654	0.094542
H267	H	1.384128	0.508987	0.427875
F268	F	1.246786	-1.059147	-0.276611
F269	F	1.580120	-0.725814	0.056722
F270	F	1.913453	-0.392481	0.390056
F271	F	1.297290	-0.149352	-0.966455
F272	F	1.630623	0.183981	-0.633121
F273	F	1.963957	0.517315	-0.299788
H274	H	1.050260	-0.450943	-0.472397
H275	H	1.383594	-0.117610	-0.139063
H276	H	1.716927	0.215723	0.194270
H277	H	0.567683	-0.157691	-0.238812
H278	H	0.901017	0.175642	0.094522
H279	H	1.234350	0.508976	0.427855
H280	H	1.233980	-0.191182	-0.682524
H281	H	1.567313	0.142151	-0.349191
H282	H	1.900647	0.475485	-0.015857
F283	F	0.433534	-0.182808	-0.276666
F284	F	0.766868	0.150525	0.056667
F285	F	1.100201	0.483858	0.390000
H286	H	0.443825	-0.312661	-0.472356
H287	H	0.777158	0.020673	-0.139023
H288	H	1.110492	0.354006	0.194310
H289	H	0.999857	-0.345907	-0.806254
H290	H	1.333190	-0.012574	-0.472921
H291	H	1.666523	0.320759	-0.139588
H292	H	1.233804	-0.450911	-0.289133
H293	H	1.567137	-0.117578	0.044201
H294	H	1.900470	0.215756	0.377534
H295	H	1.284537	-0.702077	-0.238678
H296	H	1.617870	-0.368743	0.094656
H297	H	1.951203	-0.035410	0.427989
F298	F	0.557318	-0.354514	-0.535405
F299	F	0.890652	-0.021180	-0.202072
F300	F	1.223985	0.312153	0.131262
F301	F	1.037755	-0.320854	-0.672134
F302	F	1.371089	0.012479	-0.338801
F303	F	1.704422	0.345813	-0.005468
H304	H	0.717401	-0.346123	-0.522805
H305	H	1.050735	-0.012790	-0.189471
H306	H	1.384068	0.320543	0.143862
F307	F	0.987246	-0.354239	-0.966348
F308	F	1.320579	-0.020905	-0.633014
F309	F	1.653912	0.312428	-0.299681
F310	F	1.037886	-0.946474	-0.485119
F311	F	1.371219	-0.613141	-0.151786
F312	F	1.704553	-0.279807	0.181548
H313	H	0.841237	-0.312628	-0.472329
H314	H	1.174570	0.020705	-0.138996
H315	H	1.507904	0.354038	0.194338
H316	H	1.233876	-0.549962	-0.289157
H317	H	1.567210	-0.216628	0.044177
H318	H	1.900543	0.116705	0.377510
F319	F	1.037863	-0.320786	-1.090189
F320	F	1.371196	0.012547	-0.756856
F321	F	1.704530	0.345880	-0.423522
F322	F	1.246733	-0.946430	-0.276587
F323	F	1.580066	-0.613096	0.056746
F324	F	1.913400	-0.279763	0.390080
F325	F	1.297247	-0.807946	-0.226069
F326	F	1.630581	-0.474613	0.107264
F327	F	1.963914	-0.141280	0.440598
H328	H	1.050582	-1.052346	-0.472495
H329	H	1.383916	-0.719013	-0.139162
H330	H	1.717249	-0.385680	0.194172
F331	F	1.246729	-0.182765	-1.090259
F332	F	1.580062	0.150569	-0.756926
F333	F	1.913396	0.483902	-0.423592
H334	H	1.284608	-0.157726	-0.806369
H335	H	1.617942	0.175607	-0.473036
H336	H	1.951275	0.508941	-0.139703
H337	H	0.999884	-0.801172	-0.522984
H338	H	1.333218	-0.467839	-0.189650
H339	H	1.666551	-0.134505	0.143683
H340	H	1.050319	-0.550009	-0.472426
H341	H	1.383652	-0.216676	-0.139092
H342	H	1.716986	0.116657	0.194241
F343	F	0.987194	-0.695298	-0.535601
F344	F	1.320527	-0.361965	-0.202268
F345	F	1.653861	-0.028631	0.131065
