data_functionalizedCrystal
_audit_creation_method	'MofGen! by Chris Wilmer'
_symmetry_space_group_name_H-M	'P1'
_symmetry_Int_Tables_number	1
_symmetry_cell_setting	triclinic
loop_
_symmetry_equiv_pos_as_xyz
  x,y,z
_cell_length_a	17.077404
_cell_length_b	12.827892
_cell_length_c	17.077396
_cell_angle_alpha	90.025067
_cell_angle_beta	90.019501
_cell_angle_gamma	90.015617
loop_
_atom_site_label
_atom_site_type_symbol
_atom_site_fract_x
_atom_site_fract_y
_atom_site_fract_z
Zn1	Zn	1.200096	-0.416027	0.443861
Zn2	Zn	1.700096	0.083973	0.943861
Zn3	Zn	1.200020	-0.590789	0.312603
Zn4	Zn	1.700020	-0.090789	0.812603
Zn5	Zn	1.068827	-0.416063	0.312609
Zn6	Zn	1.568827	0.083937	0.812609
Zn7	Zn	1.068812	-0.590727	0.443827
Zn8	Zn	1.568812	-0.090727	0.943827
O9	O	1.134439	-0.503402	0.378225
O10	O	1.634439	-0.003402	0.878225
O11	O	1.309932	-0.439220	0.426462
O12	O	1.809932	0.060780	0.926462
O13	O	1.182591	-0.567653	0.202757
O14	O	1.682591	-0.067653	0.702757
O15	O	1.086278	-0.269823	0.330037
O16	O	1.586278	0.230177	0.830037
O17	O	1.309877	-0.567617	0.330027
O18	O	1.809877	-0.067617	0.830027
O19	O	1.182720	-0.269796	0.426468
O20	O	1.682720	0.230204	0.926468
O21	O	1.086205	-0.439282	0.202762
O22	O	1.586205	0.060718	0.702762
O23	O	0.958978	-0.439222	0.330004
O24	O	1.458978	0.060778	0.830004
O25	O	1.086253	-0.567511	0.553678
O26	O	1.586253	-0.067511	1.053678
O27	O	0.958968	-0.567547	0.426409
O28	O	1.458968	-0.067547	0.926409
O29	O	1.182706	-0.439160	0.553704
O30	O	1.682706	0.060840	1.053704
O31	O	1.182577	-0.737017	0.329993
O32	O	1.682577	-0.237017	0.829993
O33	O	1.086179	-0.736971	0.426403
O34	O	1.586179	-0.236971	0.926403
C35	C	0.930491	-0.503383	0.378203
C36	C	1.430491	-0.003383	0.878203
C37	C	0.843241	-0.503400	0.378213
C38	C	1.343241	-0.003400	0.878213
C39	C	0.802266	-0.570319	0.428330
C40	C	1.302266	-0.070319	0.928330
C41	C	0.720285	-0.570321	0.428343
C42	C	1.220285	-0.070321	0.928343
C43	C	0.679282	-0.503409	0.378233
C44	C	1.179282	-0.003409	0.878233
C45	C	0.720263	-0.436482	0.328114
C46	C	1.220263	0.063518	0.828114
C47	C	0.802242	-0.436475	0.328106
C48	C	1.302242	0.063525	0.828106
C49	C	0.549393	-0.436502	0.328133
C50	C	1.049393	0.063498	0.828133
C51	C	0.467408	-0.436510	0.328139
C52	C	0.967408	0.063490	0.828139
C53	C	0.467436	-0.570349	0.428370
C54	C	0.967436	-0.070349	0.928370
C55	C	0.549415	-0.570342	0.428362
C56	C	1.049415	-0.070342	0.928362
C57	C	0.590391	-0.503416	0.378241
C58	C	1.090391	-0.003416	0.878241
C59	C	1.134390	-0.774912	0.378211
C60	C	1.634390	-0.274912	0.878211
C61	C	1.134440	-0.891065	0.378231
C62	C	1.634440	-0.391065	0.878231
C63	C	1.182142	-0.942753	0.425990
C64	C	1.682142	-0.442753	0.925990
C65	C	1.182195	-1.062803	0.426012
C66	C	1.682195	-0.562803	0.926012
C67	C	1.339183	-0.503421	0.378247
C68	C	1.839183	-0.003421	0.878247
C69	C	1.426433	-0.503430	0.378257
C70	C	1.926433	-0.003430	0.878257
C71	C	1.134486	-0.503325	0.582970
C72	C	1.634486	-0.003325	1.082970
C73	C	1.134506	-0.503292	0.670219
C74	C	1.634506	-0.003292	1.170219
C75	C	1.134509	-0.230831	0.378257
C76	C	1.634509	0.269169	0.878257
C77	C	1.134540	-0.114678	0.378270
C78	C	1.634540	0.385322	0.878270
C79	C	1.134437	-0.503403	0.174277
C80	C	1.634437	-0.003403	0.674277
C81	C	1.134568	-0.503141	0.087028
C82	C	1.634568	-0.003141	0.587028
C83	C	1.184731	-0.436454	0.711224
C84	C	1.684731	0.063546	1.211224
C85	C	1.184741	-0.436419	0.793205
C86	C	1.684741	0.063581	1.293205
C87	C	1.134529	-0.503228	0.834179
C88	C	1.634529	-0.003228	1.334179
C89	C	1.084298	-0.570069	0.793168
C90	C	1.584298	-0.070069	1.293168
C91	C	1.084285	-0.570098	0.711189
C92	C	1.584285	-0.070098	1.211189
C93	C	1.084330	-0.570007	0.964039
C94	C	1.584330	-0.070007	1.464039
C95	C	1.084344	-0.569980	1.046023
C96	C	1.584344	-0.069980	1.546023
C97	C	1.184785	-0.436327	1.046054
C98	C	1.684785	0.063673	1.546054
C99	C	1.184772	-0.436356	0.964075
C100	C	1.684772	0.063644	1.464075
C101	C	1.134543	-0.503199	0.923070
C102	C	1.634543	-0.003199	1.423070
H103	H	0.686927	-0.624815	0.469153
H104	H	1.186927	-0.124815	0.969153
H105	H	1.222939	-0.898130	0.466867
H106	H	1.722939	-0.398130	0.966867
C107	C	1.237370	-1.122851	0.481253
C108	C	1.737370	-0.622851	0.981253
N109	N	1.278928	-1.168082	0.522863
N110	N	1.778928	-0.668082	1.022863
H111	H	0.686871	-0.381996	0.287317
H112	H	1.186871	0.118004	0.787317
H113	H	1.093701	-1.070235	0.337376
H114	H	1.593701	-0.570235	0.837376
C115	C	0.422306	-0.362899	0.273019
C116	C	0.922306	0.137101	0.773019
N117	N	0.388334	-0.307453	0.231502
N118	N	0.888334	0.192547	0.731502
C119	C	0.422362	-0.643963	0.483507
C120	C	0.922362	-0.143963	0.983507
N121	N	0.388408	-0.699409	0.525034
N122	N	0.888408	-0.199409	1.025034
C123	C	1.239994	-0.362893	0.838306
C124	C	1.739994	0.137107	1.338306
N125	N	1.281613	-0.307510	0.872276
N126	N	1.781613	0.192490	1.372276
C127	C	0.594464	-0.362883	0.272995
C128	C	1.094464	0.137117	0.772995
N129	N	0.628411	-0.307439	0.231462
N130	N	1.128411	0.192561	0.731462
C131	C	1.079339	-0.951346	0.322993
C132	C	1.579339	-0.451346	0.822993
N133	N	1.037843	-0.996748	0.281378
N134	N	1.537843	-0.496748	0.781378
H135	H	0.835645	-0.624811	0.469133
H136	H	1.335645	-0.124811	0.969133
C137	C	1.239969	-0.362956	0.666160
C138	C	1.739969	0.137044	1.166160
N139	N	1.281573	-0.307591	0.632220
N140	N	1.781573	0.192409	1.132220
H141	H	1.225664	-0.381960	0.930716
H142	H	1.725664	0.118040	1.430716
C143	C	1.240038	-0.362798	1.091160
C144	C	1.740038	0.137202	1.591160
N145	N	1.281655	-0.307422	1.125138
N146	N	1.781655	0.192578	1.625138
C147	C	1.029103	-0.643467	1.091093
C148	C	1.529103	-0.143467	1.591093
N149	N	0.987493	-0.698817	1.125040
N150	N	1.487493	-0.198817	1.625040
H151	H	1.043415	-0.624421	0.930655
H152	H	1.543415	-0.124421	1.430655
C153	C	1.029035	-0.643627	0.666085
C154	C	1.529035	-0.143627	1.166085
N155	N	0.987418	-0.699010	0.632113
N156	N	1.487418	-0.199010	1.132113
C157	C	0.594518	-0.643955	0.483481
C158	C	1.094518	-0.143955	0.983481
N159	N	0.628489	-0.699400	0.524998
N160	N	1.128489	-0.199400	1.024998
C161	C	0.847314	-0.362861	0.272971
C162	C	1.347314	0.137139	0.772971
N163	N	0.881262	-0.307410	0.231443
N164	N	1.381262	0.192590	0.731443
C165	C	1.029057	-0.643551	0.838243
C166	C	1.529057	-0.143551	1.338243
N167	N	0.987447	-0.698898	0.872193
N168	N	1.487447	-0.198898	1.372193
