data_functionalizedCrystal
_audit_creation_method	'MofGen! by Chris Wilmer'
_symmetry_space_group_name_H-M	'P1'
_symmetry_Int_Tables_number	1
_symmetry_cell_setting	triclinic
loop_
_symmetry_equiv_pos_as_xyz
  x,y,z
_cell_length_a	14.908520
_cell_length_b	19.805407
_cell_length_c	19.805399
_cell_angle_alpha	90.019573
_cell_angle_beta	93.270609
_cell_angle_gamma	86.679227
loop_
_atom_site_label
_atom_site_type_symbol
_atom_site_fract_x
_atom_site_fract_y
_atom_site_fract_z
Zn1	Zn	-0.359181	-1.019204	-0.398269
Zn2	Zn	-0.025848	-0.685870	-0.064936
Zn3	Zn	0.307486	-0.352537	0.268397
Zn4	Zn	-0.510047	-1.012594	-0.291612
Zn5	Zn	-0.176714	-0.679261	0.041721
Zn6	Zn	0.156620	-0.345928	0.375054
Zn7	Zn	-0.359206	-0.906017	-0.285095
Zn8	Zn	-0.025873	-0.572684	0.048238
Zn9	Zn	0.307461	-0.239350	0.381572
Zn10	Zn	-0.509999	-0.899460	-0.404757
Zn11	Zn	-0.176666	-0.566127	-0.071424
Zn12	Zn	0.156668	-0.232793	0.261910
O13	O	-0.434608	-0.959319	-0.344934
O14	O	-0.101275	-0.625985	-0.011600
O15	O	0.232058	-0.292652	0.321733
O16	O	-0.379203	-1.113043	-0.384134
O17	O	-0.045870	-0.779710	-0.050800
O18	O	0.287463	-0.446376	0.282533
O19	O	-0.490068	-0.998435	-0.196033
O20	O	-0.156735	-0.665102	0.137301
O21	O	0.176599	-0.331768	0.470634
O22	O	-0.232958	-0.926542	-0.294665
O23	O	0.100376	-0.593208	0.038668
O24	O	0.433709	-0.259875	0.372001
O25	O	-0.490044	-1.108187	-0.305773
O26	O	-0.156710	-0.774854	0.027560
O27	O	0.176623	-0.441521	0.360894
O28	O	-0.232939	-1.009699	-0.377814
O29	O	0.100394	-0.676366	-0.044481
O30	O	0.433727	-0.343033	0.288853
O31	O	-0.379246	-0.920133	-0.191244
O32	O	-0.045913	-0.586800	0.142089
O33	O	0.287421	-0.253466	0.475422
O34	O	-0.379199	-0.810431	-0.300956
O35	O	-0.045866	-0.477098	0.032377
O36	O	0.287467	-0.143764	0.365711
O37	O	-0.489962	-0.915366	-0.498612
O38	O	-0.156629	-0.582032	-0.165278
O39	O	0.176705	-0.248699	0.168055
O40	O	-0.489986	-0.805614	-0.388871
O41	O	-0.156653	-0.472280	-0.055538
O42	O	0.176680	-0.138947	0.277795
O43	O	-0.379157	-1.003341	-0.493845
O44	O	-0.045824	-0.670008	-0.160512
O45	O	0.287510	-0.336674	0.172821
O46	O	-0.636286	-0.992077	-0.312064
O47	O	-0.302952	-0.658743	0.021269
O48	O	0.030381	-0.325410	0.354603
O49	O	-0.636250	-0.908957	-0.395191
O50	O	-0.302917	-0.575624	-0.061858
O51	O	0.030416	-0.242291	0.271476
C52	C	-0.669002	-0.949107	-0.355053
C53	C	-0.335669	-0.615773	-0.021720
C54	C	-0.002335	-0.282440	0.311613
C55	C	-0.769277	-0.944800	-0.359405
C56	C	-0.435943	-0.611466	-0.026072
C57	C	-0.102610	-0.278133	0.307261
C58	C	-0.434591	-0.783463	-0.344911
C59	C	-0.101258	-0.450130	-0.011578
C60	C	0.232076	-0.116797	0.321756
C61	C	-0.434605	-0.708231	-0.344918
C62	C	-0.101272	-0.374898	-0.011585
C63	C	0.232061	-0.041564	0.321748
C64	C	-0.434551	-0.959359	-0.521474
C65	C	-0.101218	-0.626026	-0.188141
C66	C	0.232115	-0.292693	0.145193
C67	C	-0.434527	-0.959376	-0.596705
C68	C	-0.101194	-0.626043	-0.263371
C69	C	0.232139	-0.292710	0.069962
C70	C	-0.957679	-1.023348	-0.281093
C71	C	-0.624346	-0.690015	0.052240
C72	C	-0.291012	-0.356681	0.385574
C73	C	-1.051896	-1.019304	-0.285180
C74	C	-0.718563	-0.685970	0.048153
C75	C	-0.385229	-0.352637	0.381487
C76	C	-1.051929	-0.932671	-0.371669
C77	C	-0.718596	-0.599337	-0.038336
C78	C	-0.385263	-0.266004	0.294998
C79	C	-0.957712	-0.936715	-0.367582
C80	C	-0.624379	-0.603382	-0.034249
C81	C	-0.291046	-0.270048	0.299084
C82	C	-0.910590	-0.982055	-0.322292
C83	C	-0.577257	-0.648721	0.011041
C84	C	-0.243924	-0.315388	0.344375
C85	C	-0.816372	-0.986095	-0.318202
C86	C	-0.483038	-0.652762	0.015131
C87	C	-0.149705	-0.319428	0.348465
C88	C	-0.816407	-0.899466	-0.404694
C89	C	-0.483073	-0.566132	-0.071361
C90	C	-0.149740	-0.232799	0.261972
C91	C	-0.910624	-0.895421	-0.408781
C92	C	-0.577290	-0.562088	-0.075448
C93	C	-0.243957	-0.228755	0.257886
C94	C	-0.199299	-0.969589	-0.334789
C95	C	0.134034	-0.636256	-0.001456
C96	C	0.467368	-0.302922	0.331878
C97	C	-0.099024	-0.973966	-0.330466
C98	C	0.234309	-0.640632	0.002868
C99	C	0.567642	-0.307299	0.336201
C100	C	-0.434626	-1.135861	-0.344957
C101	C	-0.101293	-0.802527	-0.011623
C102	C	0.232040	-0.469194	0.321710
C103	C	-0.434634	-1.211092	-0.344967
C104	C	-0.101301	-0.877759	-0.011633
C105	C	0.232033	-0.544426	0.321700
C106	C	-0.492379	-0.670392	-0.390629
C107	C	-0.159046	-0.337059	-0.057296
C108	C	0.174288	-0.003725	0.276037
C109	C	-0.492380	-0.599704	-0.390639
C110	C	-0.159047	-0.266370	-0.057306
C111	C	0.174286	0.066963	0.276028
C112	C	-0.434612	-0.566855	-0.344934
C113	C	-0.101279	-0.233522	-0.011600
C114	C	0.232054	0.099812	0.321733
C115	C	-0.376832	-0.604699	-0.299220
C116	C	-0.043499	-0.271366	0.034113
C117	C	0.289834	0.061968	0.367446
C118	C	-0.376827	-0.675386	-0.299214
C119	C	-0.043494	-0.342053	0.034119
C120	C	0.289840	-0.008720	0.367452
C121	C	-0.376852	-0.319625	-0.299244
C122	C	-0.043519	0.013709	0.034090
C123	C	0.289814	0.347042	0.367423
C124	C	-0.376864	-0.248932	-0.299252
C125	C	-0.043531	0.084401	0.034082
C126	C	0.289803	0.417735	0.367415
C127	C	-0.492406	-0.243942	-0.390668
C128	C	-0.159073	0.089391	-0.057335
C129	C	0.174261	0.422725	0.275999
C130	C	-0.492400	-0.314629	-0.390662
C131	C	-0.159067	0.018704	-0.057329
C132	C	0.174266	0.352037	0.276004
C133	C	-0.434618	-0.352467	-0.344952
C134	C	-0.101284	-0.019134	-0.011618
C135	C	0.232049	0.314199	0.321715
C136	C	-0.434615	-0.429116	-0.344943
C137	C	-0.101282	-0.095783	-0.011609
C138	C	0.232051	0.237551	0.321724
C139	C	-0.434618	-0.490208	-0.344939
C140	C	-0.101285	-0.156874	-0.011606
C141	C	0.232048	0.176459	0.321728
C142	C	-0.376828	-1.005186	-0.629568
C143	C	-0.043495	-0.671853	-0.296235
C144	C	0.289839	-0.338519	0.037099
C145	C	-0.376802	-1.005194	-0.700255
C146	C	-0.043469	-0.671861	-0.366922
C147	C	0.289865	-0.338528	-0.033589
C148	C	-0.434480	-0.959395	-0.738078
C149	C	-0.101147	-0.626062	-0.404745
C150	C	0.232187	-0.292729	-0.071412
C151	C	-0.492182	-0.913581	-0.705210
C152	C	-0.158848	-0.580247	-0.371877
C153	C	0.174485	-0.246914	-0.038544
C154	C	-0.492203	-0.913570	-0.634524
C155	C	-0.158869	-0.580237	-0.301191
C156	C	0.174464	-0.246903	0.032143
C157	C	-0.492098	-0.913622	-0.990280
C158	C	-0.158764	-0.580289	-0.656947
C159	C	0.174569	-0.246956	-0.323614
C160	C	-0.492074	-0.913638	-1.060971
C161	C	-0.158741	-0.580305	-0.727638
C162	C	0.174593	-0.246971	-0.394305
C163	C	-0.376697	-1.005247	-1.056011
C164	C	-0.043363	-0.671914	-0.722678
C165	C	0.289970	-0.338580	-0.389345
C166	C	-0.376718	-1.005236	-0.985325
C167	C	-0.043384	-0.671903	-0.651992
C168	C	0.289949	-0.338569	-0.318659
C169	C	-0.434416	-0.959419	-0.952463
C170	C	-0.101082	-0.626086	-0.619130
C171	C	0.232251	-0.292753	-0.285796
C172	C	-0.434442	-0.959410	-0.875816
C173	C	-0.101109	-0.626077	-0.542482
C174	C	0.232225	-0.292744	-0.209149
C175	C	-0.434459	-0.959407	-0.814725
C176	C	-0.101125	-0.626074	-0.481391
C177	C	0.232208	-0.292740	-0.148058
C178	C	-0.434600	-0.959320	-0.169077
C179	C	-0.101266	-0.625987	0.164256
C180	C	0.232067	-0.292654	0.497590
C181	C	-0.434370	-0.959445	-0.093836
C182	C	-0.101036	-0.626112	0.239498
C183	C	0.232297	-0.292779	0.572831
H184	H	-0.778006	-1.023011	-0.281323
H185	H	-0.444673	-0.689678	0.052011
H186	H	-0.111339	-0.356344	0.385344
H187	H	-0.329713	-1.042551	-1.082776
H188	H	0.003620	-0.709217	-0.749443
H189	H	0.336953	-0.375884	-0.416109
H190	H	-0.919312	-1.060261	-0.244211
H191	H	-0.585978	-0.726927	0.089122
H192	H	-0.252645	-0.393594	0.422455
H193	H	-0.539426	-0.568898	-0.427861
H194	H	-0.206093	-0.235565	-0.094528
H195	H	0.127240	0.097768	0.238806
H196	H	-0.539044	-0.876340	-1.091765
H197	H	-0.205711	-0.543007	-0.758432
H198	H	0.127622	-0.209673	-0.425099
H199	H	-0.539092	-0.876325	-0.963533
H200	H	-0.205759	-0.542992	-0.630200
H201	H	0.127575	-0.209658	-0.296866
H202	H	-0.329793	-0.577948	-0.262009
H203	H	0.003541	-0.244615	0.071324
H204	H	0.336874	0.088719	0.404658
H205	H	-0.329777	-0.706194	-0.261995
H206	H	0.003556	-0.372861	0.071338
H207	H	0.336890	-0.039528	0.404672
H208	H	-0.539141	-0.876288	-0.736011
H209	H	-0.205808	-0.542955	-0.402678
H210	H	0.127526	-0.209621	-0.069345
H211	H	-0.329817	-0.222189	-0.262033
H212	H	0.003517	0.111144	0.071301
H213	H	0.336850	0.444477	0.404634
H214	H	-0.329809	-0.350424	-0.262018
H215	H	0.003525	-0.017090	0.071315
H216	H	0.336858	0.316243	0.404648
H217	H	-0.778057	-0.865840	-0.438239
H218	H	-0.444723	-0.532506	-0.104906
H219	H	-0.111390	-0.199173	0.228427
H220	H	-0.539178	-0.876260	-0.607768
H221	H	-0.205845	-0.542927	-0.274434
H222	H	0.127489	-0.209594	0.058899
H223	H	-0.329753	-1.042533	-0.954533
H224	H	0.003580	-0.709199	-0.621200
H225	H	0.336913	-0.375866	-0.287866
H226	H	-1.090232	-1.052931	-0.251633
H227	H	-0.756899	-0.719597	0.081700
H228	H	-0.423565	-0.386264	0.415034
H229	H	-0.539444	-0.341371	-0.427878
H230	H	-0.206111	-0.008038	-0.094545
H231	H	0.127222	0.325296	0.238789
H232	H	-0.949003	-0.858509	-0.445657
H233	H	-0.615670	-0.525176	-0.112323
H234	H	-0.282337	-0.191842	0.221010
H235	H	-0.539423	-0.697132	-0.427846
H236	H	-0.206090	-0.363799	-0.094513
H237	H	0.127243	-0.030465	0.238821
H238	H	-0.539452	-0.213126	-0.427890
H239	H	-0.206119	0.120207	-0.094557
H240	H	0.127215	0.453541	0.238776
H241	H	-1.090312	-0.895762	-0.408547
H242	H	-0.756979	-0.562428	-0.075213
H243	H	-0.423646	-0.229095	0.258120
H244	H	-0.329820	-1.042499	-0.727009
H245	H	0.003514	-0.709165	-0.393676
H246	H	0.336847	-0.375832	-0.060343
H247	H	-0.329862	-1.042483	-0.598777
H248	H	0.003471	-0.709150	-0.265444
H249	H	0.336804	-0.375816	0.067889
