data_functionalizedCrystal
_audit_creation_method	'MofGen! by Chris Wilmer'
_symmetry_space_group_name_H-M	'P1'
_symmetry_Int_Tables_number	1
_symmetry_cell_setting	triclinic
loop_
_symmetry_equiv_pos_as_xyz
  x,y,z
_cell_length_a	19.121102
_cell_length_b	11.169416
_cell_length_c	11.169409
_cell_angle_alpha	90.030816
_cell_angle_beta	87.536992
_cell_angle_gamma	92.435079
loop_
_atom_site_label
_atom_site_type_symbol
_atom_site_fract_x
_atom_site_fract_y
_atom_site_fract_z
Zn1	Zn	1.073843	0.556105	-0.756855
Zn2	Zn	1.073777	0.756841	-0.556172
Zn3	Zn	0.956382	0.547600	-0.547625
Zn4	Zn	0.956388	0.748170	-0.748258
O5	O	1.015097	0.652179	-0.652228
O6	O	1.172120	0.589922	-0.737410
O7	O	1.058174	0.729154	-0.387087
O8	O	0.971988	0.380781	-0.575401
O9	O	1.172071	0.737401	-0.589969
O10	O	1.058287	0.387029	-0.729121
O11	O	0.971924	0.575426	-0.380807
O12	O	0.858097	0.567018	-0.567064
O13	O	0.971998	0.722623	-0.917350
O14	O	0.858101	0.714376	-0.714468
O15	O	1.058293	0.581514	-0.923667
O16	O	1.058180	0.923639	-0.581632
O17	O	0.971934	0.917268	-0.722756
C18	C	1.015069	0.964002	-0.652216
C19	C	1.015122	1.097406	-0.652256
C20	C	0.832614	0.638834	-0.638906
C21	C	0.754547	0.633154	-0.633236
C22	C	1.015154	0.652050	-0.965274
C23	C	1.015178	0.651995	-1.098676
C24	C	0.717892	0.707323	-0.707197
C25	C	0.644540	0.701970	-0.701874
C26	C	0.607844	0.622454	-0.622584
C27	C	0.644505	0.548277	-0.548621
C28	C	0.717856	0.553624	-0.553950
C29	C	0.386371	0.602457	-0.602666
C30	C	0.313015	0.597118	-0.597340
C31	C	0.313055	0.750810	-0.750596
C32	C	0.386407	0.756156	-0.755913
C33	C	0.423061	0.681975	-0.681954
C34	C	0.532867	0.616983	-0.617140
C35	C	0.498038	0.687440	-0.687405
C36	C	1.198293	0.665577	-0.665602
C37	C	1.276360	0.671287	-0.671301
C38	C	1.015144	0.339140	-0.652266
C39	C	1.015164	0.205742	-0.652283
C40	C	1.015082	0.652224	-0.340402
C41	C	1.015194	0.651951	-0.207010
H42	H	0.614698	0.762367	-0.762100
H43	H	0.416206	0.542063	-0.542434
O44	O	0.753357	0.481538	-0.481976
C45	C	0.745580	0.328492	-0.329446
C46	C	0.705290	0.410086	-0.410869
H47	H	0.706736	0.270684	-0.271953
H48	H	0.779878	0.385969	-0.269012
H49	H	0.779962	0.268355	-0.387166
H50	H	0.670870	0.470237	-0.353242
H51	H	0.671036	0.352537	-0.471309
H52	H	0.283140	0.532352	-0.532780
O53	O	0.753643	0.784535	-0.784116
C54	C	0.866658	0.860835	-0.860308
C55	C	0.826260	0.773361	-0.773117
H56	H	0.925376	0.851813	-0.851463
H57	H	0.852275	0.956565	-0.838027
H58	H	0.852223	0.838825	-0.956055
H59	H	0.840674	0.795261	-0.677340
H60	H	0.840647	0.677656	-0.795501
H61	H	0.416280	0.820909	-0.820477
H62	H	0.283203	0.811203	-0.810811
H63	H	0.614622	0.483528	-0.484066
H64	H	0.527918	0.752177	-0.751968
O65	O	0.497183	0.539910	-0.539997
C66	C	0.414260	0.517523	-0.372051
C67	C	0.454647	0.604949	-0.459305
H68	H	0.379849	0.570071	-0.306806
H69	H	0.453017	0.465436	-0.320002
H70	H	0.379977	0.452319	-0.424817
H71	H	0.488931	0.670226	-0.406632
H72	H	0.415852	0.656950	-0.511356
