data_functionalizedCrystal
_audit_creation_method	'MofGen! by Chris Wilmer'
_symmetry_space_group_name_H-M	'P1'
_symmetry_Int_Tables_number	1
_symmetry_cell_setting	triclinic
loop_
_symmetry_equiv_pos_as_xyz
  x,y,z
_cell_length_a	14.044220
_cell_length_b	14.044220
_cell_length_c	13.101039
_cell_angle_alpha	93.671451
_cell_angle_beta	86.328313
_cell_angle_gamma	93.188878
loop_
_atom_site_label
_atom_site_type_symbol
_atom_site_fract_x
_atom_site_fract_y
_atom_site_fract_z
O1	O	1.272352	0.234978	0.085101
O2	O	1.522352	0.484978	0.335101
O3	O	1.772352	0.734978	0.585101
O4	O	2.022352	0.984978	0.835101
O5	O	0.995679	0.226674	0.085127
O6	O	1.245679	0.476674	0.335127
O7	O	1.495679	0.726674	0.585127
O8	O	1.745679	0.976674	0.835127
O9	O	1.129863	0.092490	0.085110
O10	O	1.379863	0.342490	0.335110
O11	O	1.629863	0.592490	0.585110
O12	O	1.879863	0.842490	0.835110
O13	O	1.138169	0.369162	0.085118
O14	O	1.388169	0.619162	0.335118
O15	O	1.638169	0.869162	0.585118
O16	O	1.888169	1.119162	0.835118
O17	O	1.139494	0.082850	-0.085321
O18	O	1.389494	0.332850	0.164679
O19	O	1.639494	0.582850	0.414679
O20	O	1.889494	0.832850	0.664679
O21	O	1.005310	0.217034	-0.085304
O22	O	1.255310	0.467034	0.164696
O23	O	1.505310	0.717034	0.414696
O24	O	1.755310	0.967034	0.664696
O25	O	1.281983	0.225338	-0.085330
O26	O	1.531983	0.475338	0.164670
O27	O	1.781983	0.725338	0.414670
O28	O	2.031983	0.975338	0.664670
Zn29	Zn	1.145176	0.219656	-0.112376
Zn30	Zn	1.395176	0.469656	0.137624
Zn31	Zn	1.645176	0.719656	0.387624
Zn32	Zn	1.895176	0.969656	0.637624
Zn33	Zn	1.132487	0.232357	0.112174
Zn34	Zn	1.382487	0.482357	0.362174
Zn35	Zn	1.632487	0.732357	0.612174
Zn36	Zn	1.882487	0.982357	0.862174
O37	O	1.147800	0.359522	-0.085313
O38	O	1.397800	0.609522	0.164687
O39	O	1.647800	0.859522	0.414687
O40	O	1.897800	1.109522	0.664687
C41	C	0.964873	0.218219	-0.000085
C42	C	1.214873	0.468219	0.249915
C43	C	1.464873	0.718219	0.499915
C44	C	1.714873	0.968219	0.749915
C45	C	0.858730	0.207375	-0.000075
C46	C	1.108730	0.457375	0.249925
C47	C	1.358730	0.707375	0.499925
C48	C	1.608730	0.957375	0.749925
C49	C	1.131043	0.052048	-0.000104
C50	C	1.381043	0.302048	0.249896
C51	C	1.631043	0.552048	0.499896
C52	C	1.881043	0.802048	0.749896
C53	C	1.120198	-0.054094	-0.000100
C54	C	1.370198	0.195906	0.249900
C55	C	1.620198	0.445906	0.499900
C56	C	1.870198	0.695906	0.749900
N57	N	1.123827	0.241018	0.265424
N58	N	1.373827	0.491018	0.515424
N59	N	1.623827	0.741018	0.765424
N60	N	1.873827	0.991018	1.015424
C61	C	0.664393	0.187547	-0.000096
C62	C	0.914393	0.437547	0.249904
C63	C	1.164393	0.687547	0.499904
C64	C	1.414393	0.937547	0.749904
C65	C	0.613263	0.264461	-0.000098
C66	C	0.863263	0.514461	0.249902
C67	C	1.113263	0.764461	0.499902
C68	C	1.363263	1.014461	0.749902
C69	C	0.505128	0.253429	-0.000109
C70	C	0.755128	0.503429	0.249891
C71	C	1.005128	0.753429	0.499891
C72	C	1.255128	1.003429	0.749891
C73	C	0.772538	0.198578	-0.000084
C74	C	1.022538	0.448578	0.249916
C75	C	1.272538	0.698578	0.499916
C76	C	1.522538	0.948578	0.749916
C77	C	1.312790	0.233794	-0.000115
C78	C	1.562790	0.483794	0.249885
C79	C	1.812790	0.733794	0.499885
C80	C	2.062790	0.983794	0.749885
C81	C	1.418933	0.244638	-0.000119
C82	C	1.668933	0.494638	0.249881
C83	C	1.918933	0.744638	0.499881
C84	C	2.168933	0.994638	0.749881
C85	C	1.146620	0.399964	-0.000096
C86	C	1.396620	0.649964	0.249904
C87	C	1.646620	0.899964	0.499904
C88	C	1.896620	1.149964	0.749904
C89	C	1.157464	0.506107	-0.000093
C90	C	1.407464	0.756107	0.249907
C91	C	1.657464	1.006107	0.499907
C92	C	1.907464	1.256107	0.749907
C93	C	1.177291	0.700444	-0.000100
C94	C	1.427291	0.950444	0.249900
C95	C	1.677291	1.200444	0.499900
C96	C	1.927291	1.450444	0.749900
C97	C	1.100376	0.751574	-0.000094
C98	C	1.350376	1.001574	0.249906
C99	C	1.600376	1.251574	0.499906
C100	C	1.850376	1.501574	0.749906
C101	C	1.111408	0.859710	-0.000097
C102	C	1.361408	1.109710	0.249903
C103	C	1.611408	1.359710	0.499903
C104	C	1.861408	1.609710	0.749903
C105	C	1.166260	0.592298	-0.000096
C106	C	1.416260	0.842298	0.249904
C107	C	1.666260	1.092298	0.499904
C108	C	1.916260	1.342298	0.749904
N109	N	1.153843	0.210987	-0.265626
N110	N	1.403843	0.460987	-0.015626
N111	N	1.653843	0.710987	0.234374
N112	N	1.903843	0.960987	0.484374
C113	C	1.112036	0.252801	0.474468
C114	C	1.362036	0.502801	0.724468
C115	C	1.612036	0.752801	0.974468
C116	C	1.862036	1.002801	1.224468
C117	C	1.165631	0.199207	0.525336
C118	C	1.415631	0.449207	0.775336
C119	C	1.665631	0.699207	1.025336
C120	C	1.915631	0.949207	1.275336
C121	C	1.159071	0.205763	0.641656
C122	C	1.409071	0.455763	0.891656
C123	C	1.659071	0.705763	1.141656
C124	C	1.909071	0.955763	1.391656
C125	C	1.118595	0.246246	0.358138
C126	C	1.368595	0.496246	0.608138
C127	C	1.618595	0.746246	0.858138
C128	C	1.868595	0.996246	1.108138
H129	H	0.650702	0.338595	-0.000091
H130	H	0.900702	0.588595	0.249909
H131	H	1.150702	0.838595	0.499909
H132	H	1.400702	1.088595	0.749909
C133	C	1.000228	0.701004	-0.000092
C134	C	1.250228	0.951004	0.249908
C135	C	1.500228	1.201004	0.499908
C136	C	1.750228	1.451004	0.749908
H137	H	1.005853	0.633904	-0.000101
H138	H	1.255853	0.883904	0.249899
H139	H	1.505853	1.133904	0.499899
H140	H	1.755853	1.383904	0.749899
H141	H	0.963160	0.722311	0.059339
H142	H	1.213160	0.972311	0.309339
H143	H	1.463160	1.222311	0.559339
H144	H	1.713160	1.472311	0.809339
H145	H	0.969894	0.715585	-0.059534
H146	H	1.219894	0.965585	0.190466
H147	H	1.469894	1.215585	0.440466
H148	H	1.719894	1.465585	0.690466
H149	H	0.626957	0.113419	-0.000104
H150	H	0.876957	0.363419	0.249896
H151	H	1.126957	0.613419	0.499896
H152	H	1.376957	0.863419	0.749896
H153	H	1.251419	0.737881	-0.000111
H154	H	1.501419	0.987881	0.249889
H155	H	1.751419	1.237881	0.499889
H156	H	2.001419	1.487881	0.749889
H157	H	1.216442	0.148399	0.481528
H158	H	1.466442	0.398399	0.731528
H159	H	1.716442	0.648399	0.981528
H160	H	1.966442	0.898399	1.231528
C161	C	1.043389	0.321425	0.533642
C162	C	1.293389	0.571425	0.783642
C163	C	1.543389	0.821425	1.033642
C164	C	1.793389	1.071425	1.283642
H165	H	1.047923	0.316874	0.605191
H166	H	1.297923	0.566874	0.855191
H167	H	1.547923	0.816874	1.105191
H168	H	1.797923	1.066874	1.355191
H169	H	1.060119	0.385054	0.516135
H170	H	1.310119	0.635054	0.766135
H171	H	1.560119	0.885054	1.016135
H172	H	1.810119	1.135054	1.266135
H173	H	0.979763	0.304664	0.516125
H174	H	1.229763	0.554664	0.766125
H175	H	1.479763	0.804664	1.016125
H176	H	1.729763	1.054664	1.266125
