data_functionalizedCrystal
_audit_creation_method	'MofGen! by Chris Wilmer'
_symmetry_space_group_name_H-M	'P1'
_symmetry_Int_Tables_number	1
_symmetry_cell_setting	triclinic
loop_
_symmetry_equiv_pos_as_xyz
  x,y,z
_cell_length_a	15.698487
_cell_length_b	14.809374
_cell_length_c	14.809374
_cell_angle_alpha	57.530506
_cell_angle_beta	98.953622
_cell_angle_gamma	67.426214
loop_
_atom_site_label
_atom_site_type_symbol
_atom_site_fract_x
_atom_site_fract_y
_atom_site_fract_z
Zr1	Zr	0.890524	1.000553	-0.231377
O2	O	0.749756	1.191261	-0.398586
O3	O	0.922112	0.809847	-0.165389
O4	O	0.910794	1.000552	-0.377337
O5	O	0.783158	1.000555	-0.036206
O6	O	1.050979	1.000549	-0.377331
O7	O	0.761074	1.000556	-0.186638
O8	O	1.071225	0.659411	0.001806
O9	O	0.762911	1.341692	-0.415342
O10	O	1.054175	0.888283	-0.155037
O11	O	0.966037	0.888285	-0.042776
O12	O	0.952711	1.112816	-0.292318
O13	O	0.864573	1.112819	-0.180056
Zr14	Zr	1.149323	1.000546	0.008554
Zr15	Zr	1.114103	1.000547	-0.231368
Zr16	Zr	0.925744	1.000552	0.008545
Zr17	Zr	0.911505	1.240473	-0.258101
Zr18	Zr	1.128342	0.760626	0.035278
O19	O	1.117735	1.191252	-0.057434
O20	O	1.067656	1.191253	-0.398573
O21	O	0.799835	1.191260	-0.057448
O22	O	1.290091	0.809837	0.175763
O23	O	1.240013	0.809839	-0.165375
O24	O	0.972191	0.809845	0.175750
O25	O	1.256690	1.000543	-0.186617
O26	O	1.129053	1.000546	0.154514
O27	O	0.988868	1.000550	0.154508
O28	O	1.278773	1.000543	-0.036185
O29	O	0.940627	1.341688	-0.415335
O30	O	1.099221	0.659411	0.192512
O31	O	1.276936	0.659406	0.192519
O32	O	1.248940	0.659407	0.001813
O33	O	0.790907	1.341692	-0.224636
O34	O	0.968622	1.341687	-0.224629
O35	O	1.087136	0.888282	0.069495
O36	O	1.175274	0.888280	-0.042767
O37	O	1.073810	1.112813	-0.180047
O38	O	0.985672	1.112815	-0.067786
C39	C	0.993679	0.700446	-0.077984
C40	C	0.984772	0.598593	-0.066639
C41	C	1.024523	0.553183	-0.117270
C42	C	1.015319	0.447913	-0.105546
C43	C	0.740261	1.000557	-0.111423
C44	C	0.645346	1.000559	-0.111427
C45	C	0.568264	1.000562	-0.111426
C46	C	0.471568	1.000555	-0.111413
C47	C	1.299587	1.000542	-0.111400
C48	C	1.394502	1.000540	-0.111396
C49	C	0.975868	1.000550	-0.411518
C50	C	0.960917	1.000551	-0.513371
C51	C	1.046168	1.300653	-0.144839
C52	C	1.055075	1.402505	-0.156184
C53	C	1.027645	1.000549	-0.558777
C54	C	1.012193	1.000550	-0.664048
C55	C	1.063979	1.000548	0.188695
C56	C	1.078931	1.000548	0.290548
C57	C	1.273342	0.700438	-0.077972
C58	C	1.359350	0.598584	-0.066623
C59	C	1.037735	0.700444	0.222122
C60	C	1.043779	0.598592	0.335321
C61	C	1.317398	0.700437	0.222134
C62	C	1.418357	0.598582	0.335336
C63	C	0.722450	1.300661	-0.444957
C64	C	0.621490	1.402517	-0.558159
C65	C	0.766505	1.300660	-0.144851
C66	C	0.680497	1.402515	-0.156200
C67	C	1.002113	1.300654	-0.444945
C68	C	0.996068	1.402507	-0.558144
C69	C	1.336527	0.550753	-0.119908
C70	C	1.417330	0.455063	-0.109268
C71	C	1.520956	0.407198	-0.045336
C72	C	1.543779	0.455038	0.007949
C73	C	1.462976	0.550733	-0.002698
C74	C	0.703320	1.450356	-0.102927
C75	C	0.622516	1.546072	-0.113596
C76	C	0.518889	1.593940	-0.177531
C77	C	0.496067	1.546096	-0.230811
C78	C	0.576870	1.450387	-0.220149
C79	C	0.976626	0.633640	0.379246
C80	C	0.982285	0.537952	0.485597
C81	C	1.055102	0.407217	0.548026
C82	C	1.122258	0.372168	0.504092
C83	C	1.116594	0.467856	0.397738
C84	C	1.458528	0.467864	0.397729
C85	C	1.553398	0.372145	0.504086
C86	C	1.608092	0.407147	0.548052
C87	C	1.567917	0.537879	0.485649
C88	C	1.473052	0.633595	0.379290
C89	C	0.581326	1.533235	-0.620561
C90	C	0.486473	1.628954	-0.726938
C91	C	0.431782	1.593951	-0.770908
C92	C	0.471954	1.463219	-0.708501
C93	C	0.566809	1.367503	-0.602130
C94	C	0.923244	1.533227	-0.620540
C95	C	0.917563	1.628942	-0.726894
C96	C	0.984702	1.593934	-0.770854
C97	C	1.057534	1.463201	-0.708448
C98	C	1.063219	1.367489	-0.602092
H99	H	1.065376	0.592233	-0.169293
H100	H	0.943623	1.000544	-0.703100
C101	C	0.551748	1.397758	-0.278743
N102	N	0.532817	1.358121	-0.322878
C103	C	1.143322	1.223695	-0.533478
N104	N	1.203658	1.115390	-0.481804
H105	H	0.787693	1.411389	-0.050857
C106	C	0.641473	1.571770	-0.572220
N107	N	0.686774	1.600805	-0.535822
H108	H	1.685335	0.329196	0.634659
H109	H	0.974471	0.408857	-0.053512
H110	H	0.453104	1.671872	-0.186204
C111	C	0.610970	1.223711	-0.533489
N112	N	0.644226	1.115407	-0.481792
H113	H	1.095931	0.441553	-0.208210
H114	H	0.943928	0.559533	-0.014609
C115	C	1.657776	0.402364	0.078282
N116	N	1.743642	0.362679	0.131265
H117	H	1.586741	0.329276	-0.036674
H118	H	1.147508	1.000539	-0.670391
H119	H	0.892351	1.000546	-0.552427
C120	C	0.382071	1.598747	-0.301118
N121	N	0.296207	1.638396	-0.354061
C122	C	0.647644	1.598673	-0.054967
N123	N	0.666573	1.638287	-0.010805
C124	C	0.442299	1.772750	-0.795563
N125	N	0.409029	1.881056	-0.847246
H126	H	1.096217	1.000540	-0.519714
H127	H	1.171285	0.439300	0.361987
C128	C	0.896511	0.777445	0.310589
N129	N	0.836160	0.885757	0.258877
H130	H	1.252154	0.589723	-0.171982
C131	C	1.597565	0.228348	0.572717
N132	N	1.630827	0.120043	0.624409
H133	H	0.354546	1.671901	-0.857524
C134	C	0.849385	1.571767	-0.572200
N135	N	0.793754	1.600805	-0.535792
C136	C	0.837426	1.772740	-0.795536
N137	N	0.777061	1.881046	-0.847238
C138	C	1.392202	0.402445	-0.167878
N139	N	1.373274	0.362813	-0.212020
H140	H	0.427410	1.434737	-0.744317
C141	C	1.398385	0.429330	0.349382
N142	N	1.353094	0.400295	0.312970
C143	C	1.628091	0.576361	0.534034
N144	N	1.673414	0.605343	0.570485
H145	H	1.481575	0.589665	0.040701
H146	H	0.927596	0.566514	0.521354
C147	C	1.061321	0.301972	0.665019
N148	N	1.066002	0.222708	0.753139
C149	C	1.202358	0.228350	0.572782
N150	N	1.262693	0.120023	0.624528
H151	H	0.980059	1.671882	-0.857461
H152	H	1.440351	0.740030	0.328500
C153	C	1.131369	1.424713	-0.756832
N154	N	1.186975	1.395727	-0.793286
