data_functionalizedCrystal
_audit_creation_method	'MofGen! by Chris Wilmer'
_symmetry_space_group_name_H-M	'P1'
_symmetry_Int_Tables_number	1
_symmetry_cell_setting	triclinic
loop_
_symmetry_equiv_pos_as_xyz
  x,y,z
_cell_length_a	14.853567
_cell_length_b	22.010155
_cell_length_c	14.853567
_cell_angle_alpha	90.008054
_cell_angle_beta	96.365070
_cell_angle_gamma	90.005502
loop_
_atom_site_label
_atom_site_type_symbol
_atom_site_fract_x
_atom_site_fract_y
_atom_site_fract_z
O1	O	1.196371	0.050478	-0.117692
O2	O	0.933912	0.050488	-0.131713
O3	O	1.072152	0.050484	0.006527
O4	O	1.058131	0.050481	-0.255932
O5	O	1.072127	-0.050566	0.006507
O6	O	0.933887	-0.050563	-0.131734
O7	O	1.196346	-0.050572	-0.117712
Cu8	Cu	1.065114	-0.059794	-0.124725
Cu9	Cu	1.065144	0.059710	-0.124700
O10	O	1.058106	-0.050569	-0.255953
C11	C	0.900311	-0.000036	-0.131088
C12	C	0.800227	-0.000032	-0.129184
C13	C	0.387693	-0.000045	-0.039019
C14	C	0.366412	-0.000046	-0.203251
C15	C	0.460446	-0.000044	-0.205042
C16	C	0.518108	-0.000041	-0.123819
C17	C	0.481736	-0.000041	-0.040806
C18	C	0.496825	-0.000039	-0.288053
C19	C	0.590864	-0.000036	-0.289846
C20	C	0.648528	-0.000038	-0.208623
C21	C	0.612150	-0.000038	-0.125607
C22	C	0.669812	-0.000035	-0.044384
C23	C	0.633437	-0.000040	0.038633
C24	C	0.539399	-0.000043	0.040417
C25	C	0.742565	-0.000035	-0.210407
C26	C	0.763855	-0.000031	-0.046172
N27	N	1.065100	-0.143847	-0.124742
C28	C	1.126360	-0.563627	-0.063496
C29	C	1.126365	-0.627235	-0.063490
O30	O	1.178414	-0.660128	-0.011429
N31	N	1.065143	-0.659054	-0.124682
C32	C	1.003908	-0.627261	-0.185877
O33	O	0.951834	-0.660166	-0.237924
C34	C	1.003900	-0.563655	-0.185878
C35	C	1.065131	-0.531840	-0.124689
C36	C	1.187586	-0.531812	-0.002311
C37	C	1.187583	-0.468209	-0.002319
C38	C	1.126354	-0.436421	-0.063511
C39	C	1.065128	-0.468236	-0.124696
C40	C	0.942661	-0.531864	-0.247069
C41	C	0.942658	-0.468253	-0.247064
C42	C	1.003889	-0.436438	-0.185875
C43	C	1.003896	-0.372845	-0.185897
N44	N	1.065117	-0.341027	-0.124705
C45	C	1.126346	-0.372815	-0.063513
C46	C	1.003928	-0.760839	-0.185869
C47	C	1.003939	-0.824445	-0.185873
C48	C	1.126395	-0.824414	-0.063485
C49	C	1.126387	-0.760807	-0.063486
C50	C	1.065149	-0.729021	-0.124678
C51	C	1.126335	-0.239243	-0.063534
C52	C	1.126329	-0.175634	-0.063549
C53	C	1.003870	-0.175671	-0.185934
C54	C	1.003879	-0.239274	-0.185922
C55	C	1.065115	-0.271059	-0.124714
O56	O	0.951870	-0.339912	-0.237929
O57	O	1.178403	-0.339902	-0.011466
C58	C	1.229947	-0.000047	-0.118337
C59	C	1.330031	-0.000047	-0.120241
C60	C	1.071504	-0.000039	0.040106
C61	C	1.069601	-0.000034	0.140189
N62	N	1.065165	0.143762	-0.124677
C63	C	1.058754	-0.000044	-0.289531
C64	C	1.060657	-0.000046	-0.389615
C65	C	0.979435	-0.000042	0.552723
C66	C	1.143668	-0.000048	0.574004
C67	C	1.145458	-0.000044	0.479970
C68	C	1.064235	-0.000040	0.422309
C69	C	0.981223	-0.000040	0.458680
C70	C	1.228469	-0.000051	0.443591
C71	C	1.230262	-0.000048	0.349552
C72	C	1.149039	-0.000040	0.291889
C73	C	1.066023	-0.000039	0.328266
C74	C	0.984800	-0.000035	0.270604
C75	C	0.901783	-0.000030	0.306979
C76	C	0.899999	-0.000032	0.401017
C77	C	1.150823	-0.000037	0.197851
C78	C	0.986588	-0.000033	0.176561
H79	H	0.620472	-0.000032	-0.357443
H80	H	0.892788	-0.442376	-0.296893
H81	H	1.209795	-0.000056	0.620958
C82	C	1.193734	-0.725816	0.003828
H83	H	1.230194	-0.753863	0.040273
H84	H	1.231298	-0.700999	-0.028666
H85	H	1.161252	-0.701007	0.041424
C86	C	0.808689	-0.000027	0.441027
H87	H	0.760570	-0.000017	0.393220
H88	H	0.804567	-0.035265	0.477260
H89	H	0.804593	0.035216	0.477279
H90	H	0.954028	-0.265179	-0.235757
C91	C	0.936517	-0.140696	-0.253234
H92	H	0.945282	-0.098259	-0.244461
H93	H	0.946366	-0.151121	-0.313427
H94	H	0.876341	-0.151124	-0.243315
C95	C	0.433403	-0.000033	-0.377391
H96	H	0.468533	-0.000022	-0.427087
H97	H	0.396270	-0.035272	-0.380122
H98	H	0.396283	0.035210	-0.380088
H99	H	1.297860	-0.000052	0.319944
H100	H	0.509774	-0.000061	0.108005
H101	H	0.772178	-0.000032	-0.277998
H102	H	1.176194	-0.149732	-0.013721
H103	H	0.920445	-0.000027	0.129618
H104	H	0.835652	-0.000031	0.260019
C105	C	1.242129	-0.000045	0.157841
H106	H	1.290246	-0.000047	0.205650
H107	H	1.246228	-0.035282	0.121586
H108	H	1.246253	0.035200	0.121613
C109	C	0.302992	-0.000042	-0.292591
H110	H	0.338124	-0.000037	-0.342285
H111	H	0.265855	-0.035279	-0.295318
H112	H	0.265876	0.035202	-0.295294
C113	C	0.888123	-0.000038	0.592731
H114	H	0.898687	-0.000043	0.656995
H115	H	0.854683	0.035200	0.572953
H116	H	0.854672	-0.035281	0.572938
H117	H	1.176198	-0.265115	-0.013692
C118	C	1.317805	-0.000059	0.507017
H119	H	1.304848	-0.000053	0.568232
H120	H	1.351827	-0.035301	0.495972
H121	H	1.351850	0.035181	0.495990
C122	C	0.347690	-0.000048	0.052295
H123	H	0.395502	-0.000049	0.100409
H124	H	0.311448	0.035187	0.056417
H125	H	0.311450	-0.035294	0.056400
C126	C	0.827280	-0.000029	0.043173
H127	H	0.888496	-0.000029	0.030222
H128	H	0.816242	0.035207	0.077217
H129	H	0.816240	-0.035275	0.077194
C130	C	0.696866	-0.000031	0.127975
H131	H	0.661740	-0.000030	0.177673
H132	H	0.733998	-0.035265	0.130682
H133	H	0.733986	0.035217	0.130690
C134	C	1.254927	-0.433220	0.065000
H135	H	1.291382	-0.461269	0.101447
H136	H	1.292498	-0.408404	0.032512
H137	H	1.222443	-0.408410	0.102593
C138	C	1.254949	-0.566769	0.065002
H139	H	1.291410	-0.538703	0.101430
H140	H	1.222492	-0.591585	0.102600
H141	H	1.292524	-0.591576	0.032495
H142	H	1.176250	-0.850307	-0.013657
C143	C	0.936586	-0.859435	-0.253182
H144	H	0.900117	-0.831388	-0.289618
H145	H	0.969050	-0.884253	-0.290774
H146	H	0.899017	-0.884242	-0.220670
H147	H	0.954062	-0.734962	-0.235706
C148	C	0.875313	-0.566847	-0.314386
H149	H	0.838848	-0.538797	-0.350820
H150	H	0.907787	-0.591658	-0.351978
H151	H	0.837739	-0.591661	-0.281889
