data_functionalizedCrystal
_audit_creation_method	'MofGen! by Chris Wilmer'
_symmetry_space_group_name_H-M	'P1'
_symmetry_Int_Tables_number	1
_symmetry_cell_setting	triclinic
loop_
_symmetry_equiv_pos_as_xyz
  x,y,z
_cell_length_a	10.723023
_cell_length_b	9.198806
_cell_length_c	10.723023
_cell_angle_alpha	89.997827
_cell_angle_beta	84.467548
_cell_angle_gamma	89.996513
loop_
_atom_site_label
_atom_site_type_symbol
_atom_site_fract_x
_atom_site_fract_y
_atom_site_fract_z
O1	O	1.657188	-0.120874	0.175020
O2	O	1.294035	-0.120880	0.191774
O3	O	1.483989	-0.120871	0.001821
O4	O	1.467234	-0.120883	0.364973
O5	O	1.483974	0.120914	0.001820
O6	O	1.294020	0.120905	0.191774
O7	O	1.657173	0.120911	0.175019
Cu8	Cu	1.475595	0.142985	0.183396
Cu9	Cu	1.475613	-0.142954	0.183397
O10	O	1.467219	0.120902	0.364973
C11	C	1.247528	0.000012	0.190555
C12	C	1.108974	0.000010	0.186908
C13	C	1.047194	0.125260	0.185281
C14	C	0.903991	0.125261	0.181512
C15	C	1.482762	0.000020	-0.044679
C16	C	1.479115	0.000015	-0.183233
C17	C	1.703680	0.000016	0.176239
C18	C	1.842234	0.000009	0.179886
N19	N	1.475592	0.344099	0.183395
N20	N	1.475626	-0.344068	0.183388
C21	C	1.555347	0.416300	0.103288
C22	C	1.555367	0.583712	0.103283
C23	C	1.473711	0.125257	-0.388208
C24	C	1.477481	0.125265	-0.245004
C25	C	1.468446	0.000008	0.411473
C26	C	1.472093	0.000003	0.550027
H27	H	1.623612	0.354177	0.034702
H28	H	1.407345	0.593852	0.251980
O29	O	1.471816	0.253223	-0.451508
C30	C	1.364776	0.333474	-0.406563
H31	H	1.290315	0.256414	-0.361450
H32	H	1.326303	0.393123	-0.487815
H33	H	1.391153	0.415776	-0.334082
O34	O	1.477228	-0.127886	-0.246617
C35	C	1.367371	-0.135636	-0.308746
H36	H	1.292997	-0.060900	-0.260199
H37	H	1.331116	-0.252203	-0.305919
H38	H	1.389166	-0.100073	-0.410357
O39	O	0.905480	-0.128025	0.181386
C40	C	0.886997	-0.208237	0.072648
H41	H	0.796838	-0.170900	0.034185
H42	H	0.879708	-0.328818	0.096801
H43	H	0.969497	-0.189857	-0.000969
O44	O	1.110401	0.253288	0.187109
C45	C	1.065490	0.333501	0.294179
H46	H	0.966527	0.296163	0.327664
H47	H	1.064129	0.454082	0.269798
H48	H	1.129495	0.315121	0.371652
O49	O	1.473921	-0.128008	-0.386731
C50	C	1.580992	-0.208247	-0.431607
H51	H	1.614483	-0.170950	-0.530582
H52	H	1.556610	-0.328827	-0.432924
H53	H	1.658462	-0.189849	-0.367603
O54	O	0.840778	0.253289	0.179679
C55	C	0.885685	0.333503	0.072606
H56	H	0.984652	0.296165	0.039126
H57	H	0.887033	0.454084	0.096982
H58	H	0.821683	0.315124	-0.004868
H59	H	1.478879	0.232499	-0.191888
O60	O	1.045723	-0.128016	0.185413
C61	C	1.064215	-0.208230	0.294154
H62	H	1.154373	-0.170897	0.332612
H63	H	1.071512	-0.328812	0.270007
H64	H	0.981716	-0.189847	0.367773
O65	O	1.636774	0.657615	0.021286
C66	C	1.615086	0.620566	-0.102370
H67	H	1.567053	0.510026	-0.102607
H68	H	1.708217	0.615497	-0.163223
H69	H	1.552453	0.706212	-0.141270
O70	O	1.394090	0.418362	0.265043
C71	C	1.316389	0.506395	0.197665
H72	H	1.365019	0.529037	0.100338
H73	H	1.297330	0.613493	0.249519
H74	H	1.223986	0.447844	0.188656
