data_functionalizedCrystal
_audit_creation_method	'MofGen! by Chris Wilmer'
_symmetry_space_group_name_H-M	'P1'
_symmetry_Int_Tables_number	1
_symmetry_cell_setting	triclinic
loop_
_symmetry_equiv_pos_as_xyz
  x,y,z
_cell_length_a	27.732048
_cell_length_b	14.971486
_cell_length_c	26.210047
_cell_angle_alpha	89.980506
_cell_angle_beta	90.011237
_cell_angle_gamma	96.871608
loop_
_atom_site_label
_atom_site_type_symbol
_atom_site_fract_x
_atom_site_fract_y
_atom_site_fract_z
O1	O	0.062989	-1.185975	0.042376
O2	O	0.070532	-0.925456	0.042391
O3	O	-0.003599	-1.063807	0.042373
O4	O	0.137120	-1.047625	0.042394
O5	O	-0.003600	-1.063743	-0.042485
O6	O	0.070531	-0.925392	-0.042467
O7	O	0.062988	-1.185912	-0.042482
Cu8	Cu	0.066760	-1.055646	-0.050223
Cu9	Cu	0.066761	-1.055721	0.050132
O10	O	0.137119	-1.047561	-0.042465
C11	C	0.070195	-0.892105	-0.000037
C12	C	0.069184	-0.792824	-0.000031
C13	C	-0.021608	-1.063435	-0.000057
C14	C	-0.075267	-1.062412	-0.000061
N15	N	0.066758	-1.055599	-0.120807
C16	C	-0.413735	-1.137729	-0.000039
C17	C	-0.615412	-1.133934	-0.000032
O18	O	-0.646350	-1.202806	-0.000014
N19	N	-0.634914	-1.051898	-0.000028
C20	C	-0.603994	-0.970804	-0.000022
O21	O	-0.625209	-0.900940	-0.000013
C22	C	-0.402318	-0.974601	-0.000026
C23	C	-0.382818	-1.056642	-0.000035
C24	C	-0.394235	-1.219764	-0.000048
C25	C	-0.343819	-1.220712	-0.000053
C26	C	-0.312902	-1.139625	-0.000049
C27	C	-0.332402	-1.057590	-0.000040
C28	C	-0.371398	-0.893508	-0.000017
C29	C	-0.320976	-0.894464	-0.000016
C30	C	-0.301477	-0.976506	-0.000026
C31	C	-0.251069	-0.977451	-0.000040
N32	N	-0.231567	-1.059487	-0.000044
C33	C	-0.262483	-1.140574	-0.000049
C34	C	-0.709877	-0.968817	-0.000021
C35	C	-0.760296	-0.967868	-0.000021
C36	C	-0.771710	-1.130998	-0.000030
C37	C	-0.721291	-1.131946	-0.000034
C38	C	-0.690375	-1.050854	-0.000025
C39	C	-0.156605	-1.142559	-0.000059
C40	C	-0.106184	-1.143499	-0.000065
C41	C	-0.094773	-0.980370	-0.000054
C42	C	-0.145190	-0.979429	-0.000050
C43	C	-0.176105	-1.060530	-0.000051
O44	O	-0.220103	-0.908616	-0.000053
O45	O	-0.241258	-1.210428	-0.000046
C46	C	-0.464151	-1.136781	-0.000035
C47	C	-0.483651	-1.054746	-0.000026
C48	C	-0.452734	-0.973659	-0.000022
C49	C	-0.534070	-1.053797	-0.000026
C50	C	-0.564986	-1.134884	-0.000030
C51	C	-0.545484	-1.216921	-0.000034
C52	C	-0.495067	-1.217868	-0.000039
C53	C	-0.472237	-0.891623	-0.000018
C54	C	-0.522654	-0.890682	-0.000014
C55	C	-0.553570	-0.971769	-0.000018
C56	C	0.155128	-1.047932	-0.000033
C57	C	0.208788	-1.048955	-0.000025
C58	C	0.063326	-1.219263	-0.000054
C59	C	0.064337	-1.318544	-0.000055
C60	C	0.112734	-0.734910	-0.000026
C61	C	0.111781	-0.641626	-0.000034
C62	C	0.067278	-0.606257	-0.000043
C63	C	0.023724	-0.664177	-0.000050
C64	C	0.024678	-0.757460	-0.000046
C65	C	0.021741	-0.469746	-0.000058
C66	C	0.020787	-0.376457	-0.000061
C67	C	0.108844	-0.353912	-0.000045
C68	C	0.109797	-0.447195	-0.000041
C69	C	0.066243	-0.505109	-0.000047
C70	C	0.099570	-0.994401	-0.526767
C71	C	0.099570	-0.994358	-0.313108
O72	O	0.127463	-0.942219	-0.285483
N73	N	0.066757	-1.055628	-0.286391
C74	C	0.033939	-1.116909	-0.313091
O75	O	0.006026	-1.169015	-0.285464
C76	C	0.033937	-1.116947	-0.526749
C77	C	0.066756	-1.055679	-0.553463
C78	C	0.132386	-0.933138	-0.553481
C79	C	0.132388	-0.933153	-0.606893
C80	C	0.099573	-0.994431	-0.633589
C81	C	0.066757	-1.055694	-0.606875
C82	C	0.001117	-1.178223	-0.553448
C83	C	0.001119	-1.178226	-0.606866
C84	C	0.033938	-1.116958	-0.633581
C85	C	0.033944	-1.116987	-0.686983
N86	N	0.066758	-1.055717	-0.713700
C87	C	0.099572	-0.994439	-0.687004
C88	C	0.033943	-1.116886	-0.200918
C89	C	0.033944	-1.116877	-0.147504
C90	C	0.099575	-0.994325	-0.147524
C91	C	0.099576	-0.994339	-0.200939
C92	C	0.066756	-1.055616	-0.227635
C93	C	0.099573	-0.994475	-0.799171
C94	C	0.099573	-0.994497	-0.852588
C95	C	0.033940	-1.117046	-0.852563
C96	C	0.033942	-1.117027	-0.799151
C97	C	0.066760	-1.055734	-0.772457
O98	O	0.006063	-1.169092	-0.714641
O99	O	0.127474	-0.942327	-0.714640
C100	C	0.099569	-0.994387	-0.473355
C101	C	0.066753	-1.055650	-0.446640
C102	C	0.033939	-1.116928	-0.473337
C103	C	0.066754	-1.055642	-0.393226
C104	C	0.099568	-0.994364	-0.366529
C105	C	0.132382	-0.933094	-0.393247
C106	C	0.132383	-0.933109	-0.446658
C107	C	0.001125	-1.178198	-0.446620
C108	C	0.001127	-1.178179	-0.393208
C109	C	0.033941	-1.116901	-0.366512
N110	N	0.066758	-1.055775	0.120716
H111	H	-0.090310	-1.210310	-0.000074
H112	H	-0.015451	-0.347663	-0.000069
H113	H	0.007217	-1.166787	-0.222650
Cl114	Cl	0.173643	-0.856081	-0.480235
H115	H	0.146035	-0.475989	-0.000028
H116	H	-0.447069	-0.825590	-0.000013
H117	H	-0.796891	-1.197022	-0.000034
Cl118	Cl	0.163597	-0.281106	-0.000038
Cl119	Cl	0.173644	-0.856122	-0.640471
H120	H	-0.013726	-0.516899	-0.000064
H121	H	-0.012511	-0.635373	-0.000066
Cl122	Cl	-0.030073	-0.830266	-0.000056
Cl123	Cl	-0.040144	-1.255247	-0.519875
Cl124	Cl	-0.195462	-1.244517	-0.000060
H125	H	-0.776167	-0.901062	-0.000023
Cl126	Cl	0.166532	-0.568823	-0.000024
H127	H	0.126300	-0.944606	-0.874337
Cl128	Cl	-0.040134	-1.255212	-0.359630
Cl129	Cl	0.140831	-0.917421	-0.765622
Cl130	Cl	0.168684	-0.779364	-0.000010
H131	H	0.159108	-0.883234	-0.531749
Cl132	Cl	0.140834	-0.917312	-0.234517
H133	H	0.126294	-0.944432	-0.125779
H134	H	0.007225	-1.166776	-0.125756
Cl135	Cl	-0.319313	-1.323856	-0.000050
H136	H	0.007225	-1.166940	-0.874307
H137	H	-0.025608	-1.228124	-0.628599
Cl138	Cl	-0.007312	-1.194061	-0.765568
H139	H	0.159103	-0.883202	-0.371502
Cl140	Cl	-0.040131	-1.255241	-0.480175
H141	H	-0.161067	-0.912624	-0.000057
Cl142	Cl	-0.696783	-1.235088	-0.000045
Cl143	Cl	-0.433093	-1.321717	-0.000054
H144	H	-0.387265	-0.826701	-0.000006
Cl145	Cl	-0.671017	-0.866861	-0.000011
Cl146	Cl	-0.470562	-1.321012	-0.000046
Cl147	Cl	-0.282113	-0.792512	-0.000005
H148	H	-0.570665	-1.282944	-0.000040
Cl149	Cl	-0.547160	-0.787533	-0.000005
H150	H	-0.069592	-0.914351	-0.000052
