data_functionalizedCrystal
_audit_creation_method	'MofGen! by Chris Wilmer'
_symmetry_space_group_name_H-M	'P1'
_symmetry_Int_Tables_number	1
_symmetry_cell_setting	triclinic
loop_
_symmetry_equiv_pos_as_xyz
  x,y,z
_cell_length_a	18.101398
_cell_length_b	25.639239
_cell_length_c	18.101389
_cell_angle_alpha	90.020449
_cell_angle_beta	90.024327
_cell_angle_gamma	90.033952
loop_
_atom_site_label
_atom_site_type_symbol
_atom_site_fract_x
_atom_site_fract_y
_atom_site_fract_z
Zn1	Zn	1.132082	-0.208272	0.418828
Zn2	Zn	1.131961	-0.295693	0.294982
Zn3	Zn	1.008241	-0.208266	0.294989
Zn4	Zn	1.008175	-0.295671	0.418771
O5	O	1.070115	-0.251975	0.356893
O6	O	1.235699	-0.219880	0.402421
O7	O	1.115527	-0.284103	0.191350
O8	O	1.024747	-0.135102	0.311444
O9	O	1.235610	-0.284108	0.311432
O10	O	1.115732	-0.135106	0.402428
O11	O	1.024630	-0.219871	0.191356
O12	O	0.904599	-0.219849	0.311388
O13	O	1.024635	-0.284070	0.522411
O14	O	0.904551	-0.284065	0.402330
O15	O	1.115668	-0.219858	0.522454
O16	O	1.115463	-0.368855	0.311376
O17	O	1.024518	-0.368839	0.402323
C18	C	0.877704	-0.251954	0.356854
C19	C	0.795390	-0.251958	0.356855
C20	C	0.496299	-0.251990	0.356917
C21	C	0.527630	-0.211386	0.299978
C22	C	0.613248	-0.211495	0.299735
C23	C	0.644682	-0.251974	0.356886
C24	C	0.613553	-0.307048	0.335559
C25	C	0.527908	-0.306822	0.335163
C26	C	0.527917	-0.238000	0.435317
C27	C	0.613568	-0.236773	0.434890
C28	C	0.728541	-0.251968	0.356870
C29	C	0.412440	-0.252000	0.356932
C30	C	1.069990	-0.387818	0.356859
C31	C	1.070005	-0.445932	0.356869
C32	C	1.117594	-0.806291	0.309617
C33	C	1.117622	-0.860895	0.309627
O34	O	1.157955	-0.889129	0.269415
N35	N	1.070245	-0.888214	0.356942
C36	C	1.022841	-0.860926	0.404255
O37	O	0.982546	-0.889177	0.444501
C38	C	1.022817	-0.806323	0.404248
C39	C	1.070192	-0.779007	0.356925
C40	C	1.164965	-0.778975	0.262299
C41	C	1.164936	-0.724374	0.262288
C42	C	1.117534	-0.697090	0.309596
C43	C	1.070162	-0.724406	0.356914
C44	C	0.975417	-0.779036	0.451564
C45	C	0.975397	-0.724429	0.451554
C46	C	1.022773	-0.697113	0.404231
C47	C	1.022731	-0.642522	0.404212
N48	N	1.070108	-0.615202	0.356897
C49	C	1.117509	-0.642487	0.309589
C50	C	1.022897	-0.975597	0.404266
C51	C	1.022917	-1.030199	0.404270
C52	C	1.117699	-1.030164	0.309643
C53	C	1.117675	-0.975561	0.309636
C54	C	1.070274	-0.948278	0.356952
C55	C	1.117443	-0.527822	0.309570
C56	C	1.117406	-0.473216	0.309561
C57	C	1.022627	-0.473256	0.404190
C58	C	1.022661	-0.527856	0.404197
C59	C	1.070074	-0.555138	0.356884
O60	O	0.982421	-0.614254	0.444405
O61	O	1.157804	-0.614229	0.269357
C62	C	1.263277	-0.251997	0.356932
C63	C	1.345591	-0.252006	0.356949
C64	C	1.070158	-0.251962	0.550055
C65	C	1.070176	-0.251957	0.632369
C66	C	1.070260	-0.115602	0.356943
C67	C	1.070322	-0.057488	0.356964
C68	C	1.070115	-0.251951	0.164482
C69	C	1.070240	-0.251809	0.082169
C70	C	1.070219	-0.251859	0.931460
C71	C	1.012746	-0.292130	0.900108
C72	C	1.012901	-0.292317	0.814490
C73	C	1.070197	-0.251907	0.783077
C74	C	1.148220	-0.266868	0.814182
C75	C	1.147899	-0.267132	0.899827
C76	C	1.050348	-0.196537	0.899887
C77	C	1.048612	-0.196856	0.814236
C78	C	1.070189	-0.251934	0.699218
C79	C	1.070232	-0.251833	1.015320
H80	H	0.633912	-0.338111	0.375733
C81	C	0.642469	-0.323355	0.258966
H82	H	0.673502	-0.296679	0.239883
H83	H	0.669808	-0.354820	0.263300
H84	H	0.601928	-0.328616	0.226455
H85	H	0.984086	-0.550098	0.442733
C86	C	0.500543	-0.277949	0.492632
H87	H	0.469993	-0.303033	0.468938
H88	H	0.541723	-0.294958	0.514470
H89	H	0.473007	-0.260500	0.529838
C90	C	1.217101	-0.808982	0.210247
H91	H	1.210340	-0.845415	0.217020
H92	H	1.206277	-0.800047	0.160483
H93	H	1.266853	-0.799997	0.221132
C94	C	0.923314	-0.809075	0.503628
H95	H	0.930109	-0.845504	0.496864
H96	H	0.934131	-0.800095	0.553390
H97	H	0.873554	-0.800162	0.492742
C98	C	0.500867	-0.322846	0.257737
H99	H	0.542224	-0.329429	0.226820
H100	H	0.471620	-0.353509	0.261414
H101	H	0.472085	-0.295476	0.237202
H102	H	1.156053	-0.550028	0.271045
H103	H	0.633700	-0.220743	0.241642
C104	C	1.171376	-0.320921	0.785225
H105	H	1.218667	-0.329627	0.804354
H106	H	1.136334	-0.346263	0.800657
H107	H	1.173423	-0.320215	0.732793
H108	H	0.991194	-0.185574	0.793905
C109	C	0.970493	-0.443236	0.456228
H110	H	0.977271	-0.406805	0.449447
H111	H	0.920743	-0.452217	0.445350
H112	H	0.981317	-0.452160	0.506001
C113	C	0.934746	-0.279663	0.786073
H114	H	0.902613	-0.274365	0.826872
H115	H	0.936340	-0.248932	0.756819
H116	H	0.917060	-0.307894	0.757008
C117	C	0.974825	-0.178122	0.929039
H118	H	0.963888	-0.144669	0.909326
H119	H	0.937680	-0.202177	0.914355
H120	H	0.976320	-0.176155	0.981428
H121	H	0.954715	-0.282864	0.920695
C122	C	1.106891	-0.156000	0.927279
H123	H	1.094598	-0.122651	0.908014
H124	H	1.106075	-0.154766	0.979722
H125	H	1.154889	-0.165574	0.910987
H126	H	1.087419	-0.165258	0.792854
H127	H	0.507180	-0.338099	0.374826
C128	C	1.030616	-0.347713	0.786812
H129	H	1.037757	-0.370188	0.827911
H130	H	0.990707	-0.360229	0.757671
H131	H	1.074314	-0.346900	0.757786
H132	H	0.634297	-0.170655	0.313104
H133	H	1.025734	-0.332886	0.921632
H134	H	1.155985	-0.450977	0.271023
H135	H	0.507068	-0.170421	0.313200
H136	H	0.506079	-0.220529	0.242223
C137	C	1.170650	-0.321764	0.926825
H138	H	1.179997	-0.343588	0.885450
H139	H	1.214080	-0.319112	0.956066
H140	H	1.131897	-0.336301	0.955602
H141	H	0.633919	-0.196245	0.450971
H142	H	1.203514	-0.702136	0.223756
H143	H	1.192172	-0.239073	0.920569
H144	H	1.192191	-0.238457	0.793838
C145	C	0.498790	-0.184693	0.461517
H146	H	0.518531	-0.176995	0.508924
H147	H	0.513462	-0.158452	0.427510
H148	H	0.446403	-0.185750	0.464287
C149	C	0.642461	-0.273820	0.495272
H150	H	0.674016	-0.299158	0.473604
H151	H	0.669241	-0.254378	0.531061
H152	H	0.601943	-0.290794	0.518395
H153	H	0.984333	-1.052436	0.442798
C154	C	1.169793	-0.945518	0.257588
H155	H	1.198027	-0.969593	0.229419
H156	H	1.141479	-0.924243	0.225287
H157	H	1.202040	-0.924191	0.285951
H158	H	1.156299	-1.052389	0.271125
H159	H	0.984292	-0.953386	0.442794
H160	H	0.936799	-0.702218	0.490086
