data_functionalizedCrystal
_audit_creation_method	'MofGen! by Chris Wilmer'
_symmetry_space_group_name_H-M	'P1'
_symmetry_Int_Tables_number	1
_symmetry_cell_setting	triclinic
loop_
_symmetry_equiv_pos_as_xyz
  x,y,z
_cell_length_a	10.489741
_cell_length_b	10.967971
_cell_length_c	9.482944
_cell_angle_alpha	88.400884
_cell_angle_beta	100.363637
_cell_angle_gamma	84.625751
loop_
_atom_site_label
_atom_site_type_symbol
_atom_site_fract_x
_atom_site_fract_y
_atom_site_fract_z
O1	O	1.704918	0.186801	0.074003
O2	O	1.333122	0.202750	0.070029
O3	O	1.534099	0.019579	0.115902
O4	O	1.503942	0.369972	0.028130
O5	O	1.499462	-0.014292	-0.117404
O6	O	1.298486	0.168879	-0.163276
O7	O	1.670282	0.152930	-0.159303
Cu8	Cu	1.481222	0.157812	-0.182592
Cu9	Cu	1.522183	0.197868	0.093319
O10	O	1.469306	0.336102	-0.205175
C11	C	1.268319	0.184611	-0.046319
C12	C	1.126827	0.181009	-0.045408
C13	C	1.517204	-0.042224	0.010491
C14	C	1.518449	-0.175915	0.043990
C15	C	1.501061	-0.253071	-0.061933
C16	C	1.502347	-0.391248	-0.027313
C17	C	1.063096	0.064461	-0.016227
C18	C	0.985962	0.136216	0.085011
C19	C	0.951847	0.102850	-0.145017
C20	C	1.051570	0.252825	0.055913
C21	C	1.017450	0.219428	-0.174214
C22	C	0.940344	0.291271	-0.072970
C23	C	1.735087	0.171070	-0.042951
C24	C	1.876580	0.174673	-0.043853
C25	C	1.486202	0.397905	-0.099762
C26	C	1.484958	0.531597	-0.133251
N27	N	1.452421	0.129638	-0.376653
C28	C	1.489736	0.166114	-0.625405
C29	C	1.513688	0.189566	-0.463864
N30	N	1.550994	0.226032	0.287382
H31	H	1.485230	-0.216831	-0.178247
H32	H	0.971252	0.101021	0.194613
H33	H	1.518193	-0.427484	0.089009
H34	H	1.469125	-0.432170	-0.249574
N35	N	0.894175	0.018803	-0.257471
H36	H	0.906362	0.049349	-0.355161
H37	H	0.798168	0.017621	-0.256565
H38	H	1.583874	0.258228	-0.418943
H39	H	1.382240	0.060972	-0.421571
N40	N	1.133709	-0.062438	0.015699
H41	H	1.096114	-0.119418	-0.059148
H42	H	1.122972	-0.093575	0.113693
N43	N	0.870066	0.418319	-0.104704
H44	H	0.774151	0.415072	-0.104750
H45	H	0.882311	0.450146	-0.201849
N46	N	1.396785	0.075157	-0.684907
H47	H	1.323937	0.118236	-0.758863
H48	H	1.359291	0.038414	-0.604431
N49	N	1.539441	-0.223905	0.198068
H50	H	1.537388	-0.315812	0.200959
H51	H	1.468213	-0.184865	0.245885
N52	N	1.643965	0.316976	-0.653125
H53	H	1.647900	0.320835	-0.546158
H54	H	1.612585	0.400632	-0.700609
H55	H	1.094987	0.316234	0.140927
H56	H	1.032192	0.254581	-0.283812
