data_functionalizedCrystal
_audit_creation_method	'MofGen! by Chris Wilmer'
_symmetry_space_group_name_H-M	'P1'
_symmetry_Int_Tables_number	1
_symmetry_cell_setting	triclinic
loop_
_symmetry_equiv_pos_as_xyz
  x,y,z
_cell_length_a	17.000373
_cell_length_b	17.019294
_cell_length_c	9.130313
_cell_angle_alpha	93.884772
_cell_angle_beta	89.997747
_cell_angle_gamma	100.494335
loop_
_atom_site_label
_atom_site_type_symbol
_atom_site_fract_x
_atom_site_fract_y
_atom_site_fract_z
O1	O	-1.056066	0.028427	0.125434
O2	O	-0.824300	0.057060	0.129036
O3	O	-0.946649	-0.072538	0.112689
O4	O	-0.933717	0.158025	0.141782
O5	O	-0.946648	-0.072545	-0.130911
O6	O	-0.824299	0.057053	-0.114563
O7	O	-1.056065	0.028420	-0.118166
Cu8	Cu	-0.940182	0.042736	-0.138607
Cu9	Cu	-0.940183	0.042744	0.149478
O10	O	-0.933716	0.158018	-0.101818
C11	C	-0.794644	0.058594	0.007429
C12	C	-0.706280	0.063167	0.008003
C13	C	-0.946158	-0.101897	-0.012812
C14	C	-0.944688	-0.189366	-0.023840
C15	C	-0.674335	-0.007206	-0.000881
C16	C	-0.591307	-0.002905	-0.000331
C17	C	-0.540226	0.071772	0.009092
C18	C	-0.572177	0.142151	0.017981
C19	C	-0.655203	0.137848	0.017442
C20	C	-0.289061	0.088391	0.011189
C21	C	-0.206030	0.092688	0.011723
C22	C	-0.225166	-0.052368	-0.006587
C23	C	-0.308193	-0.056664	-0.007134
C24	C	-0.340136	0.013715	0.001763
C25	C	-0.455358	0.076171	0.009650
C26	C	-0.425003	0.009315	0.001215
C27	C	-0.943999	-0.230450	0.103764
C28	C	-0.942612	-0.312635	0.093397
C29	C	-0.941920	-0.353735	-0.044575
C30	C	-0.942606	-0.312644	-0.172189
C31	C	-0.943987	-0.230460	-0.161821
C32	C	-0.937745	-0.601879	-0.082522
C33	C	-0.936366	-0.684070	-0.092881
C34	C	-0.936371	-0.684055	0.172707
C35	C	-0.937757	-0.601870	0.183062
C36	C	-0.938438	-0.560785	0.055449
C37	C	-0.940505	-0.437742	-0.055174
C38	C	-0.939848	-0.476779	0.066050
C39	C	-0.085721	0.026886	0.003434
C40	C	-0.174084	0.022314	0.002839
C41	C	-0.934207	0.187377	0.023686
C42	C	-0.935677	0.274845	0.034724
N43	N	-0.940184	0.042744	0.352100
C44	C	-0.994460	-0.014544	0.421526
C45	C	-0.994462	-0.014549	0.574862
C46	C	-0.885905	0.100027	0.589334
C47	C	-0.885908	0.100035	0.436001
C48	C	-1.057131	-0.080696	0.413171
C49	C	-1.057133	-0.080701	0.566508
N50	N	-0.940184	0.042733	0.658770
H51	H	-0.715921	-0.068016	-0.008561
H52	H	-0.530579	0.202954	0.025664
H53	H	-0.681211	0.195154	0.024669
H54	H	-0.841716	0.146672	0.657663
H55	H	-0.940406	-0.443311	0.178386
H56	H	-0.199149	-0.109667	-0.013813
H57	H	-1.114698	-0.065877	0.615946
H58	H	-0.938316	-0.568441	-0.186435
H59	H	-1.118136	-0.071827	0.372691
H60	H	-1.038466	-0.136573	0.358542
H61	H	-0.944537	-0.197007	-0.265730
H62	H	-0.939944	-0.471215	-0.167512
H63	H	-0.841719	0.146690	0.379478
H64	H	-0.565302	-0.060211	-0.007564
H65	H	-0.349779	-0.117473	-0.014814
H66	H	-1.044254	-0.140365	0.600577
H67	H	-0.935798	-0.717531	-0.205240
H68	H	-0.164440	0.153502	0.019391
H69	H	-0.466597	-0.051486	-0.006449
H70	H	-0.315059	0.145698	0.018443
H71	H	-0.942038	-0.346114	-0.284529
H72	H	-0.413759	0.136972	0.017321
H73	H	-0.944567	-0.196993	0.216116
H74	H	-0.942055	-0.346083	0.197307
H75	H	-0.938321	-0.568412	0.295414
H76	H	-0.935814	-0.717515	0.276602
