data_functionalizedCrystal
_audit_creation_method	'MofGen! by Chris Wilmer'
_symmetry_space_group_name_H-M	'P1'
_symmetry_Int_Tables_number	1
_symmetry_cell_setting	triclinic
loop_
_symmetry_equiv_pos_as_xyz
  x,y,z
_cell_length_a	12.759401
_cell_length_b	19.805405
_cell_length_c	19.805399
_cell_angle_alpha	90.029301
_cell_angle_beta	90.015508
_cell_angle_gamma	90.025455
loop_
_atom_site_label
_atom_site_type_symbol
_atom_site_fract_x
_atom_site_fract_y
_atom_site_fract_z
Zn1	Zn	1.606138	-0.269496	0.382638
Zn2	Zn	1.606006	-0.382685	0.269446
Zn3	Zn	1.430449	-0.269513	0.269471
Zn4	Zn	1.430393	-0.382647	0.382601
O5	O	1.518247	-0.326085	0.326039
O6	O	1.753142	-0.284520	0.367628
O7	O	1.582686	-0.367695	0.174733
O8	O	1.453834	-0.174794	0.284508
O9	O	1.753044	-0.367679	0.284467
O10	O	1.582912	-0.174782	0.367652
O11	O	1.453706	-0.284548	0.174751
O12	O	1.283421	-0.284512	0.284472
O13	O	1.453737	-0.367614	0.477323
O14	O	1.283379	-0.367630	0.367589
O15	O	1.582857	-0.284483	0.477350
O16	O	1.582631	-0.477396	0.284431
O17	O	1.453609	-0.477368	0.367565
C18	C	1.518128	-0.501941	0.326006
C19	C	1.518174	-0.577173	0.326015
C20	C	1.245279	-0.326069	0.326030
C21	C	1.128503	-0.326079	0.326042
C22	C	1.585421	-0.612509	0.282772
C23	C	1.585466	-0.683198	0.282787
C24	C	1.518257	-0.718549	0.326042
C25	C	1.451007	-0.683208	0.369290
C26	C	1.450968	-0.612520	0.369278
C27	C	1.451162	-0.968281	0.369340
C28	C	1.451203	-1.038973	0.369347
C29	C	1.585659	-1.038958	0.282849
C30	C	1.585621	-0.968271	0.282837
C31	C	1.518375	-0.932936	0.326087
C32	C	1.518329	-0.856288	0.326071
C33	C	1.518297	-0.795196	0.326055
C34	C	1.073684	-0.282860	0.369411
C35	C	0.963960	-0.282872	0.369415
C36	C	0.963883	-0.369330	0.282679
C37	C	1.073605	-0.369313	0.282672
C38	C	1.128582	-0.239625	0.412781
C39	C	1.073764	-0.196403	0.456154
C40	C	0.964040	-0.196416	0.456158
C41	C	0.909134	-0.239651	0.412789
C42	C	1.792280	-0.326102	0.326049
C43	C	1.909056	-0.326109	0.326053
C44	C	1.518306	-0.326042	0.502582
C45	C	1.518331	-0.326024	0.577814
C46	C	1.518394	-0.149542	0.326087
C47	C	1.518457	-0.074310	0.326107
C48	C	1.518248	-0.326079	0.150183
C49	C	1.518427	-0.325906	0.074952
C50	C	1.585565	-0.282736	0.613173
C51	C	1.585575	-0.282716	0.683862
C52	C	1.518357	-0.325989	0.719190
C53	C	1.451115	-0.369279	0.683825
C54	C	1.451100	-0.369295	0.613138
C55	C	1.451175	-0.369216	0.968899
C56	C	1.451197	-0.369199	1.039591
C57	C	1.585650	-0.282637	1.039622
C58	C	1.585635	-0.282653	0.968935
C59	C	1.518390	-0.325941	0.933577
C60	C	1.518378	-0.325960	0.856929
C61	C	1.518374	-0.325973	0.795837
H62	H	1.640145	-0.583731	0.247546
Cl63	Cl	1.670148	-0.228324	0.728311
H64	H	1.118239	-0.404506	0.247357
H65	H	1.396435	-0.404474	0.940119
H66	H	1.640400	-0.247388	1.068420
Cl67	Cl	1.670144	-0.228253	0.924527
H68	H	1.640224	-0.711965	0.247574
Cl69	Cl	1.266520	-0.239609	0.412781
Cl70	Cl	1.366622	-0.923869	0.423710
Cl71	Cl	1.366522	-0.727649	0.423671
Cl72	Cl	1.142785	-0.142048	0.510666
Cl73	Cl	1.366686	-0.423602	1.084002
H74	H	1.396475	-1.067754	0.404575
Cl75	Cl	1.366608	-0.423678	0.728238
Cl76	Cl	1.366571	-0.423715	0.568686
Cl77	Cl	0.895127	-0.142076	0.510679
H78	H	0.819789	-0.239644	0.412782
H79	H	1.640344	-0.939490	0.247613
H80	H	1.640305	-0.247500	0.584414
H81	H	1.640418	-1.067736	0.247636
Cl82	Cl	0.894858	-0.423680	0.228164
H83	H	1.396210	-0.583750	0.404491
