data_functionalizedCrystal
_audit_creation_method	'MofGen! by Chris Wilmer'
_symmetry_space_group_name_H-M	'P1'
_symmetry_Int_Tables_number	1
_symmetry_cell_setting	triclinic
loop_
_symmetry_equiv_pos_as_xyz
  x,y,z
_cell_length_a	11.026607
_cell_length_b	23.532407
_cell_length_c	10.065875
_cell_angle_alpha	98.729142
_cell_angle_beta	79.302338
_cell_angle_gamma	95.717347
loop_
_atom_site_label
_atom_site_type_symbol
_atom_site_fract_x
_atom_site_fract_y
_atom_site_fract_z
O1	O	1.625135	0.231639	-0.113547
O2	O	1.272155	0.204517	-0.113543
O3	O	1.459285	0.136267	-0.113520
O4	O	1.438005	0.299889	-0.113570
O5	O	1.423601	0.149349	0.113464
O6	O	1.236471	0.217598	0.113442
O7	O	1.589451	0.244720	0.113437
Zn8	Zn	1.407295	0.233236	0.149478
Zn9	Zn	1.454310	0.216001	-0.149584
O10	O	1.402321	0.312970	0.113415
C11	C	1.209162	0.206054	-0.000050
C12	C	1.074627	0.191139	-0.000047
C13	C	1.000327	0.232323	-0.000060
C14	C	0.861279	0.216908	-0.000057
C15	C	1.440900	0.121535	-0.000024
C16	C	1.439269	0.058147	-0.000014
C17	C	1.539800	-0.330388	-0.000090
C18	C	1.538287	-0.389948	-0.000100
O19	O	1.631478	-0.416895	-0.000152
N20	N	1.427036	-0.424275	-0.000098
C21	C	1.317292	-0.399040	-0.000099
O22	O	1.222526	-0.433707	-0.000099
C23	C	1.318808	-0.339482	-0.000099
C24	C	1.430064	-0.305157	-0.000087
C25	C	1.651047	-0.296063	-0.000080
C26	C	1.652559	-0.236507	-0.000067
C27	C	1.542823	-0.211276	-0.000064
C28	C	1.431575	-0.245600	-0.000074
C29	C	1.209067	-0.314248	-0.000109
C30	C	1.210592	-0.254685	-0.000110
C31	C	1.321848	-0.220360	-0.000098
C32	C	1.323351	-0.160813	-0.000058
N33	N	1.434602	-0.126486	-0.000061
C34	C	1.544338	-0.151717	-0.000064
C35	C	1.314119	-0.524117	-0.000103
C36	C	1.312601	-0.583674	-0.000093
C37	C	1.533597	-0.574578	-0.000097
C38	C	1.535112	-0.515019	-0.000097
C39	C	1.425370	-0.489790	-0.000105
C40	C	1.547504	-0.026645	-0.000035
C41	C	1.549005	0.032916	-0.000017
C42	C	1.328011	0.023814	-0.000020
C43	C	1.326508	-0.035742	-0.000032
C44	C	1.436265	-0.060970	-0.000044
O45	O	1.230210	-0.133827	-0.000012
O46	O	1.639092	-0.117045	-0.000081
C47	C	1.652444	0.243183	-0.000059
C48	C	1.786980	0.258098	-0.000071
C49	C	1.420706	0.327702	-0.000084
C50	C	1.422339	0.391089	-0.000104
N51	N	1.375217	0.244999	0.353580
N52	N	1.486398	0.204235	-0.353685
C53	C	1.443142	0.220090	0.421367
C54	C	1.418463	0.229148	0.578531
H55	H	0.826302	0.304773	-0.000076
C56	C	1.668234	-0.054390	-0.000038
C57	C	1.741055	-0.035660	0.117841
C58	C	1.861781	-0.063404	0.117850
C59	C	1.909687	-0.109879	-0.000020
C60	C	1.836865	-0.128612	-0.117907
C61	C	1.716139	-0.100867	-0.117916
H62	H	1.705593	-0.001255	0.205103
H63	H	1.915689	-0.049537	0.205118
H64	H	1.999056	-0.130417	-0.000013
H65	H	1.872327	-0.163017	-0.205169
H66	H	1.662232	-0.114735	-0.205185
H67	H	1.298790	0.273029	0.411897
C68	C	1.021509	0.128086	-0.000028
C69	C	0.920166	0.111448	0.117844
C70	C	0.867052	0.048394	0.117863
C71	C	0.915279	0.001979	0.000008
C72	C	1.016627	0.018616	-0.117873
C73	C	1.069741	0.081670	-0.117892
H74	H	0.884461	0.145808	0.205095
H75	H	0.792027	0.036078	0.205127
H76	H	0.875960	-0.044697	0.000022
H77	H	1.052332	-0.015744	-0.205124
H78	H	1.144766	0.093986	-0.205156
C79	C	1.193389	-0.496366	-0.000088
C80	C	1.145506	-0.449887	0.117784
C81	C	1.024778	-0.422140	0.117797
C82	C	0.951934	-0.440871	-0.000061
C83	C	0.999816	-0.487351	-0.117942
C84	C	1.120544	-0.515099	-0.117955
H85	H	1.199430	-0.436020	0.205038
H86	H	0.989332	-0.387732	0.205061
H87	H	0.862564	-0.420330	-0.000052
H88	H	0.945892	-0.501219	-0.205196
H89	H	1.155990	-0.549507	-0.205219
H90	H	1.639606	0.060862	-0.000004
H91	H	1.342031	0.257180	0.636843
C92	C	1.771770	-0.323810	-0.000076
C93	C	1.844589	-0.305072	0.117801
C94	C	1.965319	-0.332812	0.117818
C95	C	2.013230	-0.379289	-0.000042
C96	C	1.940410	-0.398029	-0.117928
C97	C	1.819680	-0.370289	-0.117945
H98	H	1.809124	-0.270665	0.205057
H99	H	2.019225	-0.318939	0.205086
H100	H	2.102602	-0.399824	-0.000030
H101	H	1.975876	-0.432436	-0.205184
H102	H	1.765774	-0.384162	-0.205213
C103	C	1.654314	-0.602339	-0.000112
C104	C	1.665130	-0.635254	0.117744
C105	C	1.785839	-0.663017	0.117730
C106	C	1.895733	-0.657865	-0.000140
C107	C	1.884921	-0.624949	-0.118005
C108	C	1.764212	-0.597186	-0.117991
H109	H	1.583776	-0.639069	0.205006
H110	H	1.793842	-0.687384	0.204983
H111	H	1.985089	-0.678417	-0.000150
H112	H	1.966274	-0.621134	-0.205267
H113	H	1.756209	-0.572819	-0.205244
C114	C	1.089870	-0.226933	-0.000115
C115	C	1.017040	-0.245660	-0.117987
C116	C	0.896320	-0.217908	-0.117989
C117	C	0.848430	-0.171431	-0.000118
C118	C	0.921260	-0.152703	0.117763
C119	C	1.041981	-0.180454	0.117765
H120	H	1.052490	-0.280067	-0.205250
H121	H	0.842406	-0.231773	-0.205253
H122	H	0.759066	-0.150888	-0.000119
H123	H	0.885810	-0.118295	0.205026
H124	H	1.095894	-0.166589	0.205029
H125	H	1.562822	0.176198	0.588003
H126	H	1.039657	0.278994	-0.000067
H127	H	1.743156	-0.208565	-0.000063
H128	H	0.821959	0.170232	-0.000078
H129	H	1.625707	-0.487075	-0.000089
H130	H	1.118471	-0.342186	-0.000127
H131	H	1.222001	-0.611615	-0.000079
H132	H	1.235908	-0.063688	-0.000003
H133	H	1.238666	0.044369	-0.000013
H134	H	1.519561	0.192055	0.363052
