data_functionalizedCrystal
_audit_creation_method	'MofGen! by Chris Wilmer'
_symmetry_space_group_name_H-M	'P1'
_symmetry_Int_Tables_number	1
_symmetry_cell_setting	triclinic
loop_
_symmetry_equiv_pos_as_xyz
  x,y,z
_cell_length_a	15.995292
_cell_length_b	15.995292
_cell_length_c	15.186229
_cell_angle_alpha	90.002910
_cell_angle_beta	89.993216
_cell_angle_gamma	83.468616
loop_
_atom_site_label
_atom_site_type_symbol
_atom_site_fract_x
_atom_site_fract_y
_atom_site_fract_z
O1	O	1.110995	0.107692	-0.073246
O2	O	0.867211	0.121071	-0.073242
O3	O	0.995792	-0.007511	-0.073245
O4	O	0.982414	0.236274	-0.073243
O5	O	0.995777	-0.007504	0.073212
O6	O	0.867196	0.121078	0.073215
O7	O	1.110980	0.107699	0.073211
Zn8	Zn	0.989086	0.114390	0.096467
Zn9	Zn	0.989105	0.114380	-0.096497
O10	O	0.982399	0.236281	0.073215
C11	C	0.836008	0.120530	-0.000013
C12	C	0.743055	0.118898	-0.000011
C13	C	0.405318	0.112896	-0.000021
C14	C	0.428611	0.205703	-0.000347
C15	C	0.525286	0.207467	-0.000013
C16	C	0.572873	0.115874	-0.000017
C17	C	0.543772	0.069479	0.083614
C18	C	0.446982	0.068362	0.083680
C19	C	0.447144	0.066458	-0.082869
C20	C	0.543636	0.069898	-0.083971
C21	C	0.667569	0.117552	-0.000011
C22	C	0.310622	0.111215	-0.000021
C23	C	0.995240	-0.038703	-0.000019
C24	C	0.993608	-0.131655	-0.000026
C25	C	0.987607	-0.469393	-0.000017
C26	C	1.080413	-0.446100	0.000308
C27	C	1.082177	-0.349424	-0.000025
C28	C	0.990584	-0.301837	-0.000021
C29	C	0.944194	-0.330933	-0.083652
C30	C	0.943077	-0.427723	-0.083719
C31	C	0.941164	-0.427571	0.082831
C32	C	0.944604	-0.331080	0.083933
C33	C	0.992263	-0.207141	-0.000026
C34	C	0.985926	-0.564088	-0.000018
C35	C	1.142183	0.108240	-0.000020
C36	C	1.235136	0.109873	-0.000027
C37	C	0.982951	0.267473	-0.000014
C38	C	0.984583	0.360426	-0.000013
N39	N	0.989078	0.114396	0.228159
N40	N	0.989120	0.114368	-0.228190
C41	C	1.039864	0.165186	0.453882
C42	C	1.039873	0.165180	0.546071
C43	C	0.938331	0.063571	0.546081
C44	C	0.938327	0.063573	0.453893
C45	C	0.989092	0.114386	0.407796
C46	C	0.989105	0.114378	0.592173
C47	C	0.989115	0.114371	0.692130
C48	C	0.989084	0.114392	0.307833
H49	H	0.432446	0.000316	0.087477
N50	N	0.883580	0.008774	0.595808
H51	H	0.842592	0.045216	0.634064
H52	H	0.851472	-0.023403	0.552568
N53	N	0.883560	0.008777	0.404186
H54	H	0.842570	0.045218	0.365944
H55	H	0.920084	-0.032186	0.365981
H56	H	0.420152	0.100499	0.146198
H57	H	0.418818	0.095463	-0.146257
N58	N	0.550496	0.255588	-0.079424
H59	H	0.498763	0.275845	-0.114961
H60	H	0.578938	0.305515	-0.059383
N61	N	0.586009	-0.019796	0.087741
H62	H	0.619981	-0.027980	0.143761
H63	H	0.541794	-0.060114	0.086878
H64	H	0.399579	0.241279	0.059292
N65	N	1.094627	0.219969	0.595792
H66	H	1.135617	0.183519	0.634027
H67	H	1.126734	0.252153	0.552554
N68	N	0.391528	0.253092	-0.079788
H69	H	0.359265	0.214865	-0.116339
H70	H	0.352257	0.303420	-0.059761
H71	H	0.543676	0.244027	0.060039
N72	N	0.986878	-0.304388	-0.166104
H73	H	0.985386	-0.241099	-0.167060
H74	H	1.047261	-0.330937	-0.166884
H75	H	1.118510	-0.330404	0.059923
N76	N	0.852946	-0.446982	-0.088758
H77	H	0.844947	-0.480931	-0.143578
H78	H	0.839449	-0.480271	-0.035110
H79	H	0.562205	0.103678	-0.145840
N80	N	0.570321	0.112157	0.166063
H81	H	0.601191	0.161534	0.149433
H82	H	0.518851	0.132663	0.201901
N83	N	0.587322	-0.018660	-0.090673
H84	H	0.626858	-0.030284	-0.039150
H85	H	0.543955	-0.059879	-0.089959
H86	H	0.433165	-0.001854	-0.083437
H87	H	1.116179	-0.474101	0.060283
H88	H	1.115993	-0.475128	-0.059332
H89	H	1.118736	-0.331030	-0.060081
H90	H	0.975217	-0.454549	-0.146237
H91	H	0.876794	-0.299051	-0.086758
N92	N	0.979658	-0.465003	0.166800
H93	H	1.027597	-0.509456	0.151983
H94	H	1.001538	-0.419251	0.203089
H95	H	0.877749	-0.298096	0.088987
N96	N	0.989337	-0.306491	0.165891
H97	H	1.039180	-0.276532	0.148720
H98	H	0.949275	-0.267845	0.202996
N99	N	0.850677	-0.446081	0.083598
H100	H	0.821492	-0.422655	0.028448
H101	H	0.848827	-0.508946	0.085919
H102	H	1.081200	0.206561	0.416352
