data_functionalizedCrystal
_audit_creation_method	'MofGen! by Chris Wilmer'
_symmetry_space_group_name_H-M	'P1'
_symmetry_Int_Tables_number	1
_symmetry_cell_setting	triclinic
loop_
_symmetry_equiv_pos_as_xyz
  x,y,z
_cell_length_a	21.295417
_cell_length_b	21.295420
_cell_length_c	12.645323
_cell_angle_alpha	89.976296
_cell_angle_beta	90.033992
_cell_angle_gamma	89.975452
loop_
_atom_site_label
_atom_site_type_symbol
_atom_site_fract_x
_atom_site_fract_y
_atom_site_fract_z
Zn1	Zn	-0.250704	-0.962343	0.599408
Zn2	Zn	-0.355979	-0.962249	0.422120
Zn3	Zn	-0.250717	-0.857070	0.422149
Zn4	Zn	-0.355929	-0.857035	0.599332
O5	O	-0.303332	-0.909674	0.510752
O6	O	-0.264685	-1.050419	0.575910
O7	O	-0.342042	-0.948272	0.273776
O8	O	-0.162625	-0.871088	0.445707
O9	O	-0.342030	-1.050351	0.445657
O10	O	-0.162617	-0.948432	0.575938
O11	O	-0.264706	-0.870997	0.273798
O12	O	-0.264657	-0.768976	0.445633
O13	O	-0.341944	-0.871029	0.747690
O14	O	-0.341956	-0.768950	0.575809
O15	O	-0.264636	-0.948398	0.747745
O16	O	-0.444062	-0.948238	0.445583
O17	O	-0.444025	-0.870938	0.575780
C18	C	-0.303303	-0.746122	0.510717
C19	C	-0.303306	-0.676154	0.510727
C20	C	-0.263131	-0.176732	0.578676
C21	C	-0.263129	-0.242474	0.578678
C22	C	-0.303332	-0.275315	0.510755
C23	C	-0.343552	-0.242408	0.442844
C24	C	-0.343558	-0.176666	0.442852
N25	N	-0.308083	-0.378507	0.417934
N26	N	-0.308073	-0.440958	0.417930
C27	C	-0.303317	-0.473390	0.510731
N28	N	-0.298559	-0.441010	0.603537
N29	N	-0.298565	-0.378553	0.603540
C30	C	-0.303330	-0.346600	0.510740
C31	C	-0.263100	-0.577574	0.578645
C32	C	-0.263101	-0.643318	0.578649
C33	C	-0.343522	-0.643250	0.442806
C34	C	-0.343523	-0.577508	0.442811
C35	C	-0.303309	-0.544674	0.510729
C36	C	-0.466884	-0.909591	0.510694
C37	C	-0.536852	-0.909614	0.510704
C38	C	-0.569717	-0.949900	0.442980
C39	C	-0.635459	-0.949929	0.443004
C40	C	-0.668334	-0.909662	0.510740
C41	C	-0.635461	-0.869373	0.578478
C42	C	-0.569720	-0.869349	0.578460
N43	N	-0.771594	-0.854594	0.518810
N44	N	-0.834046	-0.854619	0.518821
C45	C	-0.866409	-0.909732	0.510801
N46	N	-0.833962	-0.964821	0.502749
N47	N	-0.771504	-0.964796	0.502732
C48	C	-0.739620	-0.909683	0.510768
C49	C	-0.970559	-0.950053	0.443099
C50	C	-1.036303	-0.950084	0.443131
C51	C	-1.036304	-0.869522	0.578599
C52	C	-0.970562	-0.869497	0.578574
C53	C	-0.937693	-0.909762	0.510818
C54	C	-0.139142	-0.909774	0.510834
C55	C	-0.069174	-0.909817	0.510869
C56	C	-0.303283	-0.909720	0.787258
C57	C	-0.303263	-0.909740	0.905088
C58	C	-0.303354	-0.073864	0.510780
C59	C	-0.303344	-0.143832	0.510770
C60	C	-0.303335	-0.909664	0.235323
C61	C	-0.303179	-0.909766	0.117493
C62	C	-0.351668	-0.860917	1.072617
C63	C	-0.351907	-0.861045	0.950057
C64	C	-0.321273	-0.976064	0.949605
C65	C	-0.321576	-0.975796	1.072203
C66	C	-0.236577	-0.892866	1.072303
C67	C	-0.236976	-0.891387	0.949696
H68	H	-0.230357	-0.670104	0.633954
H69	H	-0.662223	-0.982737	0.387855
H70	H	-1.063070	-0.836738	0.633757
C71	C	-0.533564	-0.825032	0.652954
H72	H	-0.489704	-0.830787	0.643244
H73	H	-0.544380	-0.782745	0.637381
H74	H	-0.544297	-0.834232	0.724203
H75	H	-0.376288	-0.269151	0.387544
H76	H	-0.943797	-0.982841	0.387932
C77	C	-0.275078	-1.026555	0.910265
H78	H	-0.286833	-1.066283	0.938122
H79	H	-0.276076	-1.028105	0.835208
H80	H	-0.233822	-1.016428	0.933215
H81	H	-0.200450	-0.928446	1.101327
H82	H	-0.943801	-0.836690	0.633716
C83	C	-0.533565	-0.994196	0.368464
H84	H	-0.562558	-1.018198	0.328140
H85	H	-0.507956	-0.970125	0.322229
H86	H	-0.507883	-1.021605	0.409062
H87	H	-0.401282	-0.872200	0.920730
C88	C	-0.218891	-0.278671	0.653373
H89	H	-0.194939	-0.249700	0.693819
H90	H	-0.242998	-0.304324	0.699488
H91	H	-0.191432	-0.304312	0.612886
C92	C	-0.387346	-0.995148	1.110848
H93	H	-0.388110	-0.995159	1.185966
H94	H	-0.417601	-0.966191	1.084888
H95	H	-0.396898	-1.036042	1.085540
H96	H	-0.340636	-0.811863	0.919957
C97	C	-0.387746	-0.679367	0.368093
H98	H	-0.381981	-0.723233	0.377810
H99	H	-0.430052	-0.668582	0.383479
H100	H	-0.378478	-0.668577	0.296891
H101	H	-0.662232	-0.836588	0.633631
H102	H	-0.230355	-0.550839	0.633948
C103	C	-0.336588	-0.794277	1.112423
H104	H	-0.300588	-0.795646	1.156774
H105	H	-0.328554	-0.767597	1.053754
H106	H	-0.371318	-0.778479	1.151323
C107	C	-0.387750	-0.541317	0.368101
H108	H	-0.411690	-0.570290	0.327641
H109	H	-0.415210	-0.515671	0.408568
H110	H	-0.363633	-0.515669	0.321984
H111	H	-0.198938	-0.924368	0.919086
C112	C	-1.072455	-0.994400	0.368629
H113	H	-1.043462	-1.018371	0.328270
H114	H	-1.098060	-1.021828	0.409226
H115	H	-1.098141	-0.970337	0.322410
C116	C	-0.417951	-0.875831	1.114241
H117	H	-0.416203	-0.911700	1.158844
H118	H	-0.433376	-0.840973	1.153236
H119	H	-0.445164	-0.884031	1.056318
C120	C	-0.275951	-1.026638	1.112316
H121	H	-0.257316	-1.047367	1.053682
H122	H	-0.244099	-1.007637	1.154054
H123	H	-0.298300	-1.056285	1.153944
H124	H	-0.369450	-0.990636	0.918904
H125	H	-0.220161	-0.845346	1.103210
C126	C	-0.218622	-0.825452	0.910397
H127	H	-0.178483	-0.814615	0.937654
H128	H	-0.217236	-0.825297	0.835314
H129	H	-0.248823	-0.795761	0.933997
C130	C	-0.218906	-0.140615	0.653393
H131	H	-0.224665	-0.096749	0.643670
H132	H	-0.228169	-0.151409	0.724589
H133	H	-0.176596	-0.151397	0.637999
C134	C	-0.387790	-0.140476	0.368145
H135	H	-0.411732	-0.169448	0.327687
H136	H	-0.415247	-0.114829	0.408613
H137	H	-0.363672	-0.114829	0.322026
