data_functionalizedCrystal
_audit_creation_method	'MofGen! by Chris Wilmer'
_symmetry_space_group_name_H-M	'P1'
_symmetry_Int_Tables_number	1
_symmetry_cell_setting	triclinic
loop_
_symmetry_equiv_pos_as_xyz
  x,y,z
_cell_length_a	29.839134
_cell_length_b	29.839131
_cell_length_c	12.759387
_cell_angle_alpha	89.962744
_cell_angle_beta	89.965041
_cell_angle_gamma	90.034165
loop_
_atom_site_label
_atom_site_type_symbol
_atom_site_fract_x
_atom_site_fract_y
_atom_site_fract_z
Zn1	Zn	0.686767	-0.178917	-0.594363
Zn2	Zn	0.686685	-0.254054	-0.418663
Zn3	Zn	0.611636	-0.178929	-0.418655
Zn4	Zn	0.611597	-0.254011	-0.594258
O5	O	0.649171	-0.216478	-0.506485
O6	O	0.749623	-0.188896	-0.571103
O7	O	0.676711	-0.244112	-0.271641
O8	O	0.621652	-0.116061	-0.442004
O9	O	0.749563	-0.244100	-0.442017
O10	O	0.676851	-0.116051	-0.571095
O11	O	0.621573	-0.188919	-0.271635
O12	O	0.548763	-0.188876	-0.441902
O13	O	0.621587	-0.244026	-0.741293
O14	O	0.548735	-0.244038	-0.570917
O15	O	0.676814	-0.188854	-0.741370
O16	O	0.676674	-0.316916	-0.441916
O17	O	0.621508	-0.316884	-0.570925
C18	C	0.532449	-0.216454	-0.506398
C19	C	0.482514	-0.216455	-0.506386
C20	C	0.125929	-0.187712	-0.439444
C21	C	0.313602	-0.187700	-0.439380
O22	O	0.337869	-0.163224	-0.382367
N23	N	0.337069	-0.216462	-0.506439
C24	C	0.313615	-0.245228	-0.573522
O25	O	0.337881	-0.269689	-0.630566
C26	C	0.125943	-0.245238	-0.573591
C27	C	0.102478	-0.216477	-0.506521
C28	C	0.102465	-0.158953	-0.372380
C29	C	0.055549	-0.158958	-0.372393
C30	C	0.032098	-0.187723	-0.439469
C31	C	0.055563	-0.216482	-0.506533
C32	C	0.102489	-0.274002	-0.640679
C33	C	0.055568	-0.274001	-0.640692
C34	C	0.032104	-0.245239	-0.573622
C35	C	-0.014804	-0.245252	-0.573622
N36	N	-0.038271	-0.216489	-0.506564
C37	C	-0.014819	-0.187725	-0.439488
C38	C	0.412145	-0.245222	-0.573480
C39	C	0.459063	-0.245220	-0.573462
C40	C	0.459048	-0.187691	-0.439321
C41	C	0.412129	-0.187695	-0.439335
C42	C	0.388679	-0.216459	-0.506422
C43	C	-0.113345	-0.187738	-0.439518
C44	C	-0.160265	-0.187747	-0.439534
C45	C	-0.160245	-0.245274	-0.573678
C46	C	-0.113330	-0.245267	-0.573659
C47	C	-0.089881	-0.216495	-0.506576
O48	O	-0.039099	-0.269712	-0.630615
O49	O	-0.039094	-0.163260	-0.382469
C50	C	0.172845	-0.187707	-0.439432
C51	C	0.196309	-0.216467	-0.506495
C52	C	0.172858	-0.245231	-0.573572
C53	C	0.243227	-0.216465	-0.506477
C54	C	0.266678	-0.187700	-0.439401
C55	C	0.243211	-0.158938	-0.372343
C56	C	0.196296	-0.158943	-0.372355
C57	C	0.196325	-0.273994	-0.640630
C58	C	0.243240	-0.273987	-0.640611
C59	C	0.266691	-0.245222	-0.573535
C60	C	0.649090	-0.333200	-0.506433
C61	C	0.649097	-0.383135	-0.506446
C62	C	0.677949	-0.692782	-0.439408
C63	C	0.678004	-0.880455	-0.439449
O64	O	0.702471	-0.904723	-0.382411
N65	N	0.649264	-0.903920	-0.506564
C66	C	0.620511	-0.880463	-0.573679
O67	O	0.596070	-0.904728	-0.630773
C68	C	0.620458	-0.692791	-0.573643
C69	C	0.649196	-0.669329	-0.506515
C70	C	0.706685	-0.669320	-0.372288
C71	C	0.706669	-0.622404	-0.372274
C72	C	0.677917	-0.598951	-0.439381
C73	C	0.649181	-0.622413	-0.506502
C74	C	0.591707	-0.669335	-0.640762
C75	C	0.591697	-0.622414	-0.640748
C76	C	0.620436	-0.598952	-0.573621
C77	C	0.620412	-0.552045	-0.573596
N78	N	0.649152	-0.528580	-0.506480
C79	C	0.677904	-0.552033	-0.439373
C80	C	0.620540	-0.978994	-0.573692
C81	C	0.620553	-1.025912	-0.573700
C82	C	0.678047	-1.025900	-0.439471
C83	C	0.678031	-0.978982	-0.439459
C84	C	0.649280	-0.955529	-0.506577
C85	C	0.677869	-0.453508	-0.439349
C86	C	0.677849	-0.406588	-0.439338
C87	C	0.620357	-0.406603	-0.573570
C88	C	0.620375	-0.453519	-0.573578
C89	C	0.649134	-0.476970	-0.506464
O90	O	0.595962	-0.527748	-0.630612
O91	O	0.702348	-0.527761	-0.382304
C92	C	0.677965	-0.739698	-0.439422
C93	C	0.649228	-0.763160	-0.506543
C94	C	0.620476	-0.739707	-0.573650
C95	C	0.649241	-0.810078	-0.506551
C96	C	0.677993	-0.833531	-0.439443
C97	C	0.706733	-0.810066	-0.372328
C98	C	0.706717	-0.763151	-0.372315
C99	C	0.591736	-0.763171	-0.640765
C100	C	0.591754	-0.810087	-0.640772
C101	C	0.620506	-0.833540	-0.573665
C102	C	0.766350	-0.216502	-0.506573
C103	C	0.816284	-0.216512	-0.506610
C104	C	0.649205	-0.216434	-0.780519
C105	C	0.649220	-0.216415	-0.897295
C106	C	0.649265	-0.099299	-0.506560
C107	C	0.649305	-0.049365	-0.506592
C108	C	0.706731	-0.158969	-0.897395
C109	C	0.735493	-0.130239	-0.952306
C110	C	0.735504	-0.130223	-1.062028
C111	C	0.706749	-0.158938	-1.116841
C112	C	0.677987	-0.187668	-1.061930
C113	C	0.677980	-0.187682	-0.952206
C114	C	0.620474	-0.245111	-1.061831
C115	C	0.620465	-0.245131	-0.952109
C116	C	0.591719	-0.273827	-1.116644
C117	C	0.562958	-0.302560	-1.061733
C118	C	0.562949	-0.302575	-0.952005
C119	C	0.591703	-0.273860	-0.897198
C120	C	0.649163	-0.216489	-0.233517
C121	C	0.649236	-0.216381	-0.116741
H122	H	0.121554	-0.135527	-0.317759
H123	H	0.036449	-0.135538	-0.317778
C124	C	0.767123	-0.098654	-0.892008
C125	C	0.763505	-0.047579	-0.907125
C126	C	0.795134	-0.015993	-0.846831
C127	C	0.830381	-0.035483	-0.771421
C128	C	0.834000	-0.086561	-0.756301
C129	C	0.802371	-0.118146	-0.816595
H130	H	0.737412	-0.033149	-0.962951
H131	H	0.792454	0.021818	-0.858024
H132	H	0.853794	-0.012101	-0.726788
H133	H	0.860093	-0.100990	-0.700475
H134	H	0.805051	-0.155957	-0.805402
C135	C	0.588763	-0.479332	-0.647414
C136	C	0.553515	-0.511640	-0.601819
C137	C	0.521908	-0.537451	-0.675666
C138	C	0.525550	-0.530954	-0.795108
C139	C	0.560800	-0.498644	-0.840709
C140	C	0.592407	-0.472834	-0.766862
H141	H	0.550818	-0.516451	-0.513395
H142	H	0.495814	-0.561368	-0.641908
H143	H	0.502153	-0.550060	-0.849774
H144	H	0.563498	-0.493833	-0.929133
H145	H	0.618501	-0.448916	-0.800620
C146	C	0.767142	-0.098621	-1.122436
C147	C	0.798771	-0.067035	-1.062155
C148	C	0.830409	-0.035434	-1.122563
C149	C	0.830419	-0.035419	-1.243253
C150	C	0.798789	-0.067006	-1.303542
C151	C	0.767151	-0.098607	-1.243133
H152	H	0.798765	-0.067045	-0.972807
H153	H	0.853824	-0.012051	-1.077933
H154	H	0.853840	-0.012026	-1.287972
H155	H	0.798795	-0.066997	-1.392890
H156	H	0.743736	-0.121990	-1.287763
H157	H	0.706757	-0.158918	-1.206182
C158	C	0.588936	-1.051717	-0.647532
C159	C	0.557313	-1.025913	-0.721349
C160	C	0.525698	-1.051716	-0.795190
C161	C	0.525706	-1.103324	-0.795213
C162	C	0.557330	-1.129131	-0.721394
C163	C	0.588946	-1.103328	-0.647553
H164	H	0.557306	-0.987707	-0.721334
H165	H	0.502287	-1.032611	-0.849836
H166	H	0.502302	-1.122425	-0.849875
H167	H	0.557337	-1.167337	-0.721409
H168	H	0.612356	-1.122432	-0.592907
C169	C	0.709502	-0.479299	-0.365518
C170	C	0.744779	-0.511504	-0.411126
C171	C	0.776409	-0.537295	-0.337289
C172	C	0.772762	-0.530880	-0.217845
C173	C	0.737483	-0.498672	-0.172230
C174	C	0.705853	-0.472882	-0.246067
H175	H	0.747480	-0.516255	-0.499552
H176	H	0.802524	-0.561137	-0.371057
H177	H	0.796176	-0.549971	-0.163186
H178	H	0.734782	-0.493922	-0.083805
H179	H	0.679737	-0.449040	-0.212300
H180	H	0.591728	-0.273810	-1.205985
C181	C	0.560105	-0.737376	-0.714582
C182	C	0.579535	-0.705076	-0.797119
C183	C	0.547900	-0.679282	-0.870936
C184	C	0.496833	-0.685788	-0.862216
C185	C	0.477400	-0.718089	-0.779676
C186	C	0.509035	-0.743883	-0.705859
H187	H	0.617340	-0.700259	-0.803577
H188	H	0.562286	-0.655371	-0.932037
H189	H	0.473414	-0.666694	-0.916860
H190	H	0.439595	-0.722907	-0.773218
H191	H	0.494649	-0.767794	-0.644758
C192	C	0.531331	-0.334143	-1.122027
C193	C	0.531339	-0.334123	-1.242717
C194	C	0.499711	-0.365708	-1.303015
C195	C	0.468075	-0.397313	-1.242623
C196	C	0.468065	-0.397334	-1.121927
C197	C	0.499693	-0.365750	-1.061628
H198	H	0.554759	-0.310726	-1.287429
H199	H	0.499718	-0.365691	-1.392363
H200	H	0.444662	-0.420694	-1.287260
H201	H	0.444645	-0.420732	-1.077215
H202	H	0.499686	-0.365766	-0.972280
C203	C	0.588908	-0.953199	-0.647519
C204	C	0.608341	-0.920903	-0.730061
C205	C	0.576708	-0.895110	-0.803884
C206	C	0.525641	-0.901612	-0.795165
C207	C	0.506205	-0.933909	-0.712620
C208	C	0.537838	-0.959702	-0.638797
H209	H	0.646147	-0.916088	-0.736518
H210	H	0.591096	-0.871201	-0.864989
H211	H	0.502224	-0.882518	-0.849813
H212	H	0.468399	-0.938724	-0.706162
H213	H	0.523450	-0.983611	-0.577691
H214	H	0.539523	-0.325966	-0.907303
C215	C	0.029773	-0.305644	-0.714488
C216	C	0.036197	-0.356710	-0.705702
C217	C	0.010403	-0.388354	-0.779494
C218	C	-0.021815	-0.368931	-0.862072
C219	C	-0.028240	-0.317861	-0.870861
C220	C	-0.002446	-0.286218	-0.797069
H221	H	0.060049	-0.371091	-0.644570
H222	H	0.015160	-0.426159	-0.772987
H223	H	-0.040909	-0.392355	-0.916697
H224	H	-0.052092	-0.303481	-0.931993
H225	H	-0.007203	-0.248413	-0.803576
H226	H	0.262341	-0.297412	-0.695226
H227	H	0.596945	-0.387501	-0.628205
C228	C	-0.186047	-0.276912	-0.647466
C229	C	-0.237655	-0.276909	-0.647481
C230	C	-0.263458	-0.308543	-0.721278
C231	C	-0.237653	-0.340180	-0.795059
C232	C	-0.186043	-0.340183	-0.795046
C233	C	-0.160240	-0.308549	-0.721250
H234	H	-0.256760	-0.253489	-0.592862
H235	H	-0.301664	-0.308541	-0.721287
H236	H	-0.256754	-0.363597	-0.849687
H237	H	-0.166938	-0.363603	-0.849666
H238	H	-0.122034	-0.308552	-0.721241
C239	C	0.738333	-0.737347	-0.298478
C240	C	0.734697	-0.743846	-0.179036
C241	C	0.766316	-0.718046	-0.105196
C242	C	0.801570	-0.685747	-0.150800
C243	C	0.805208	-0.679247	-0.270249
C244	C	0.773589	-0.705046	-0.344088
H245	H	0.708598	-0.767757	-0.145272
H246	H	0.763623	-0.722859	-0.016772
H247	H	0.824976	-0.666649	-0.096139
H248	H	0.831307	-0.655336	-0.304012
H249	H	0.776282	-0.700234	-0.432512
H250	H	0.591700	-0.273872	-0.807857
H251	H	-0.094259	-0.164307	-0.384898
H252	H	0.393027	-0.164273	-0.384724
C253	C	0.484848	-0.156046	-0.365539
C254	C	0.517137	-0.120800	-0.411219
C255	C	0.542939	-0.089155	-0.337447
C256	C	0.536452	-0.092756	-0.217995
C257	C	0.504162	-0.128004	-0.172309
C258	C	0.478360	-0.159649	-0.246081
H259	H	0.521940	-0.118133	-0.499650
H260	H	0.566842	-0.063062	-0.371267
H261	H	0.555553	-0.069330	-0.163384
H262	H	0.499359	-0.130671	-0.083878
H263	H	0.454457	-0.185741	-0.212261
H264	H	0.478164	-0.268645	-0.628066
C265	C	0.738362	-0.835871	-0.298511
C266	C	0.718923	-0.868174	-0.215993
C267	C	0.750552	-0.893981	-0.142185
C268	C	0.801620	-0.887485	-0.150896
C269	C	0.821061	-0.855180	-0.233418
C270	C	0.789432	-0.829373	-0.307225
H271	H	0.681117	-0.872984	-0.209541
H272	H	0.736159	-0.917895	-0.081097
H273	H	0.825033	-0.906589	-0.096259
H274	H	0.858867	-0.850370	-0.239869
H275	H	0.803825	-0.805459	-0.368314
H276	H	-0.179368	-0.164325	-0.384914
H277	H	0.393056	-0.268646	-0.628113
H278	H	0.121586	-0.297422	-0.695294
H279	H	-0.094224	-0.268690	-0.628265
H280	H	0.706729	-0.158983	-0.808054
C281	C	0.170490	-0.127303	-0.298578
C282	C	0.176976	-0.076236	-0.307364
C283	C	0.151175	-0.044594	-0.233582
C284	C	0.118887	-0.064019	-0.151013
C285	C	0.112399	-0.115088	-0.142224
C286	C	0.138201	-0.146730	-0.216006
H287	H	0.200879	-0.061854	-0.368489
H288	H	0.155978	-0.006788	-0.240088
H289	H	0.099787	-0.040595	-0.096396
H290	H	0.088496	-0.129470	-0.081099
H291	H	0.133398	-0.184536	-0.209499
C292	C	0.269013	-0.127295	-0.298560
C293	C	0.262595	-0.076228	-0.307354
C294	C	0.288400	-0.044585	-0.233582
C295	C	0.320623	-0.064009	-0.151016
C296	C	0.327043	-0.115079	-0.142219
C297	C	0.301238	-0.146722	-0.215991
H298	H	0.238741	-0.061846	-0.368478
H299	H	0.283648	-0.006779	-0.240095
H300	H	0.339726	-0.040585	-0.096406
H301	H	0.350898	-0.129460	-0.081095
H302	H	0.305990	-0.184527	-0.209478
C303	C	0.170534	-0.305640	-0.714416
C304	C	0.176964	-0.356705	-0.705614
C305	C	0.151176	-0.388356	-0.779400
C306	C	0.118958	-0.368941	-0.861988
C307	C	0.112526	-0.317873	-0.870794
C308	C	0.138314	-0.286222	-0.797007
H309	H	0.200815	-0.371080	-0.644474
H310	H	0.155937	-0.426160	-0.772882
H311	H	0.099868	-0.392371	-0.916609
H312	H	0.088675	-0.303498	-0.931933
H313	H	0.133553	-0.248418	-0.803526
C314	C	0.709464	-0.380781	-0.365497
C315	C	0.705829	-0.387278	-0.246054
C316	C	0.737444	-0.361473	-0.172217
C317	C	0.772695	-0.329170	-0.217823
C318	C	0.776332	-0.322671	-0.337272
C319	C	0.744717	-0.348477	-0.411109
H320	H	0.679733	-0.411191	-0.212288
H321	H	0.734751	-0.366284	-0.083792
H322	H	0.796098	-0.310068	-0.163164
H323	H	0.802428	-0.298758	-0.371038
H324	H	0.747409	-0.343666	-0.499534
H325	H	0.730072	-0.603304	-0.317617
H326	H	0.730101	-0.688410	-0.317640
H327	H	0.568303	-0.688430	-0.695419
H328	H	0.701458	-1.045004	-0.384830
H329	H	0.568348	-0.829186	-0.695434
H330	H	0.701433	-0.959881	-0.384799
H331	H	0.568284	-0.603322	-0.695407
