data_functionalizedCrystal
_audit_creation_method	'MofGen! by Chris Wilmer'
_symmetry_space_group_name_H-M	'P1'
_symmetry_Int_Tables_number	1
_symmetry_cell_setting	triclinic
loop_
_symmetry_equiv_pos_as_xyz
  x,y,z
_cell_length_a	17.077404
_cell_length_b	18.215405
_cell_length_c	17.077396
_cell_angle_alpha	90.031591
_cell_angle_beta	90.019501
_cell_angle_gamma	90.025110
loop_
_atom_site_label
_atom_site_type_symbol
_atom_site_fract_x
_atom_site_fract_y
_atom_site_fract_z
Zn1	Zn	1.200044	-0.292980	0.443826
Zn2	Zn	1.199946	-0.416053	0.312553
Zn3	Zn	1.068776	-0.293006	0.312574
Zn4	Zn	1.068739	-0.416010	0.443776
O5	O	1.134376	-0.354512	0.378182
O6	O	1.309878	-0.309313	0.426424
O7	O	1.182521	-0.399760	0.202708
O8	O	1.086245	-0.190018	0.330014
O9	O	1.309806	-0.399735	0.329978
O10	O	1.182687	-0.189999	0.426444
O11	O	1.086150	-0.309357	0.202724
O12	O	0.958924	-0.309315	0.329966
O13	O	1.086182	-0.399660	0.553630
O14	O	0.958897	-0.399685	0.426360
O15	O	1.182651	-0.309271	0.553666
O16	O	1.182485	-0.519032	0.329930
O17	O	1.086088	-0.519000	0.426340
C18	C	0.930428	-0.354499	0.378160
C19	C	0.843178	-0.354511	0.378170
C20	C	0.802195	-0.401638	0.428282
C21	C	0.720214	-0.401639	0.428294
C22	C	0.679219	-0.354517	0.378190
C23	C	0.720208	-0.307385	0.328076
C24	C	0.802187	-0.307380	0.328068
C25	C	0.549338	-0.307400	0.328095
C26	C	0.467354	-0.307405	0.328102
C27	C	0.467365	-0.401659	0.428321
C28	C	0.549344	-0.401654	0.428313
C29	C	0.590328	-0.354522	0.378198
C30	C	1.134293	-0.545718	0.378144
C31	C	1.134330	-0.627517	0.378154
C32	C	1.184642	-0.815703	0.328046
C33	C	1.184677	-0.892562	0.328065
C34	C	1.084211	-0.892569	0.428374
C35	C	1.084180	-0.815711	0.428359
C36	C	1.134395	-0.777281	0.378190
C37	C	1.134460	-0.930997	0.378225
C38	C	1.134498	-1.014330	0.378246
C39	C	1.134358	-0.693942	0.378170
C40	C	1.339120	-0.354526	0.378204
C41	C	1.426370	-0.354532	0.378214
C42	C	1.134424	-0.354458	0.582926
C43	C	1.134444	-0.354435	0.670176
C44	C	1.134481	-0.162559	0.378237
C45	C	1.134525	-0.080760	0.378261
C46	C	1.134374	-0.354513	0.174234
C47	C	1.134506	-0.354329	0.086985
C48	C	1.184677	-0.307365	0.711187
C49	C	1.184687	-0.307341	0.793167
C50	C	1.134466	-0.354390	0.834136
C51	C	1.084227	-0.401462	0.793120
C52	C	1.084214	-0.401482	0.711141
C53	C	1.084259	-0.401418	0.963990
C54	C	1.084273	-0.401399	1.045974
C55	C	1.184731	-0.307276	1.046016
C56	C	1.184718	-0.307296	0.964037
C57	C	1.134480	-0.354369	0.923027
H58	H	0.686849	-0.440016	0.469099
H59	H	0.582705	-0.269014	0.287293
C60	C	1.028904	-0.773440	0.483519
C61	C	1.028874	-0.688900	0.483504
C62	C	0.973603	-0.646629	0.538664
C63	C	0.918362	-0.688898	0.593840
C64	C	0.918390	-0.773442	0.593858
C65	C	0.973661	-0.815714	0.538698
H66	H	1.069768	-0.657606	0.442657
H67	H	0.973583	-0.584043	0.538650
H68	H	0.877447	-0.657606	0.634673
H69	H	0.877496	-0.804737	0.634705
H70	H	0.973682	-0.878300	0.538711
C71	C	0.594440	-0.453489	0.483427
C72	C	0.583134	-0.537144	0.476862
C73	C	0.628229	-0.588978	0.531979
C74	C	0.684629	-0.557156	0.593661
C75	C	0.695937	-0.473497	0.600228
C76	C	0.650842	-0.421663	0.545111
H77	H	0.541381	-0.560704	0.431200
H78	H	0.619858	-0.650908	0.527117
H79	H	0.718011	-0.595527	0.634462
H80	H	0.737690	-0.449937	0.645891
H81	H	0.659213	-0.359733	0.549973
C82	C	0.422266	-0.255559	0.272994
C83	C	0.365869	-0.287362	0.211298
C84	C	0.320786	-0.235511	0.156189
C85	C	0.332099	-0.151858	0.162777
C86	C	0.388498	-0.120052	0.224475
C87	C	0.433582	-0.171902	0.279583
H88	H	0.357492	-0.349290	0.206419
H89	H	0.279035	-0.259057	0.110516
H90	H	0.298726	-0.113476	0.121982
H91	H	0.396876	-0.058123	0.229354
H92	H	0.475332	-0.148356	0.325257
C93	C	1.029058	-0.453178	1.091042
C94	C	0.973814	-0.504972	1.045937
C95	C	0.918614	-0.556766	1.091004
C96	C	0.918658	-0.556766	1.181178
C97	C	0.973903	-0.504971	1.226289
C98	C	1.029103	-0.453177	1.181221
H99	H	0.973780	-0.504973	0.979180
H100	H	0.877718	-0.595108	1.057610
H101	H	0.877795	-0.595107	1.214540
H102	H	0.973938	-0.504969	1.293045
H103	H	1.070000	-0.414834	1.214615
H104	H	0.835567	-0.440013	0.469079
C105	C	0.422290	-0.453504	0.483452
C106	C	0.365891	-0.511242	0.449330
C107	C	0.320813	-0.563090	0.504454
C108	C	0.332133	-0.557199	0.593701
C109	C	0.388535	-0.499458	0.627828
C110	C	0.433613	-0.447611	0.572703
H111	H	0.357509	-0.515605	0.383259
H112	H	0.279061	-0.605833	0.479191
H113	H	0.298764	-0.595579	0.634508
H114	H	0.396917	-0.495095	0.693898
H115	H	0.475365	-0.404867	0.597967
C116	C	0.675113	-0.255550	0.272963
C117	C	0.618788	-0.197820	0.307098
C118	C	0.573693	-0.145985	0.251983
C119	C	0.584922	-0.151880	0.162733
C120	C	0.641249	-0.209611	0.128594
C121	C	0.686344	-0.261446	0.183709
H122	H	0.610474	-0.193455	0.373170
H123	H	0.531996	-0.103248	0.277256
H124	H	0.551540	-0.113508	0.121933
H125	H	0.649564	-0.213977	0.062521
H126	H	0.728041	-0.304183	0.158436
H127	H	1.043327	-0.923868	0.469218
H128	H	1.043301	-0.439804	0.677751
H129	H	0.835555	-0.269001	0.287266
C130	C	1.029010	-0.453205	0.918870
C131	C	0.967391	-0.421339	0.862501
C132	C	0.912153	-0.473130	0.817378
C133	C	0.918534	-0.556789	0.828624
C134	C	0.980156	-0.588659	0.884996
C135	C	1.035394	-0.536868	0.930119
H136	H	0.962666	-0.359406	0.854173
H137	H	0.866537	-0.449537	0.775647
H138	H	0.877644	-0.595128	0.795221
H139	H	0.984881	-0.650592	0.893323
H140	H	1.081010	-0.560461	0.971849
C141	C	1.239881	-0.773429	0.272869
C142	C	1.295156	-0.815697	0.217715
C143	C	1.350399	-0.773425	0.162539
C144	C	1.350369	-0.688885	0.162515
C145	C	1.295092	-0.646612	0.217671
C146	C	1.239849	-0.688884	0.272848
H147	H	1.295180	-0.878283	0.217731
H148	H	1.391318	-0.804718	0.121709
H149	H	1.391263	-0.657592	0.121670
H150	H	1.295068	-0.584026	0.217655
H151	H	1.198930	-0.657591	0.313678
C152	C	1.239948	-0.934826	0.272904
C153	C	1.205995	-0.987736	0.211256
C154	C	1.261269	-1.029999	0.156092
C155	C	1.350497	-1.019352	0.162576
C156	C	1.384455	-0.966440	0.224227
C157	C	1.329180	-0.924177	0.279390
H158	H	1.139938	-0.995619	0.206453
H159	H	1.236131	-1.069168	0.110454
H160	H	1.391415	-1.050638	0.121741
H161	H	1.450511	-0.958557	0.229029
H162	H	1.354319	-0.885008	0.325028
H163	H	1.225575	-0.269054	0.677836
H164	H	1.225593	-0.269013	0.826554
H165	H	1.225616	-0.268989	0.930683
H166	H	1.225635	-0.268946	1.079411
H167	H	1.043334	-0.439768	0.826483
