data_functionalizedCrystal
_audit_creation_method	'MofGen! by Chris Wilmer'
_symmetry_space_group_name_H-M	'P1'
_symmetry_Int_Tables_number	1
_symmetry_cell_setting	triclinic
loop_
_symmetry_equiv_pos_as_xyz
  x,y,z
_cell_length_a	10.654550
_cell_length_b	15.186229
_cell_length_c	10.654550
_cell_angle_alpha	90.000822
_cell_angle_beta	84.484929
_cell_angle_gamma	90.000116
loop_
_atom_site_label
_atom_site_type_symbol
_atom_site_fract_x
_atom_site_fract_y
_atom_site_fract_z
O1	O	1.667839	0.073157	0.176397
O2	O	2.167839	0.573157	0.676397
O3	O	1.302361	0.073172	0.193203
O4	O	1.802361	0.573172	0.693203
O5	O	1.493503	0.073165	0.002061
O6	O	1.993503	0.573165	0.502061
O7	O	1.476697	0.073164	0.367540
O8	O	1.976697	0.573164	0.867540
O9	O	1.493490	-0.073293	0.002058
O10	O	1.993490	0.426707	0.502058
O11	O	1.302348	-0.073285	0.193201
O12	O	1.802348	0.426715	0.693201
O13	O	1.667826	-0.073301	0.176395
O14	O	2.167826	0.426699	0.676395
Zn15	Zn	1.485085	-0.096546	0.184797
Zn16	Zn	1.985085	0.403454	0.684797
Zn17	Zn	1.485102	0.096418	0.184801
Zn18	Zn	1.985102	0.596418	0.684801
O19	O	1.476684	-0.073293	0.367537
O20	O	1.976684	0.426707	0.867537
C21	C	1.255556	-0.000054	0.191968
C22	C	1.755556	0.499946	0.691968
C23	C	1.116113	-0.000048	0.188276
C24	C	1.616113	0.499952	0.688276
N25	N	1.485083	-0.228239	0.184794
N26	N	1.985083	0.271761	0.684794
C27	C	1.036628	-0.000051	0.300818
C28	C	1.536628	0.499949	0.800818
C29	C	0.905607	-0.000066	0.297341
C30	C	1.405607	0.499934	0.797341
C31	C	0.933570	-0.000072	0.068772
C32	C	1.433570	0.499928	0.568772
C33	C	1.064588	-0.000063	0.072250
C34	C	1.564588	0.499937	0.572250
C35	C	1.569750	-0.453965	0.100185
C36	C	2.069750	0.046035	0.600185
C37	C	1.569754	-0.546155	0.100182
C38	C	2.069754	-0.046155	0.600182
C39	C	1.400438	-0.546157	0.269407
C40	C	1.900438	-0.046157	0.769407
C41	C	1.400429	-0.453969	0.269403
C42	C	1.900429	0.046031	0.769403
C43	C	1.485092	-0.407875	0.184793
C44	C	1.985092	0.092125	0.684793
C45	C	1.485105	-0.592253	0.184795
C46	C	1.985105	-0.092253	0.684795
C47	C	1.485109	-0.692209	0.184792
C48	C	1.985109	-0.192209	0.684792
C49	C	1.485087	-0.307913	0.184794
C50	C	1.985087	0.192087	0.684794
C51	C	1.714631	-0.000072	0.177630
C52	C	2.214631	0.499928	0.677630
C53	C	1.854074	-0.000073	0.181322
C54	C	2.354074	0.499927	0.681322
C55	C	1.492263	-0.000062	-0.044738
C56	C	1.992263	0.499938	0.455262
C57	C	1.488571	-0.000056	-0.184181
C58	C	1.988571	0.499944	0.315819
N59	N	1.485114	0.228110	0.184794
N60	N	1.985114	0.728110	0.684794
C61	C	1.483361	0.079772	-0.380720
C62	C	1.983361	0.579772	0.119280
C63	C	1.486843	0.079777	-0.249700
C64	C	1.986843	0.579777	0.250300
C65	C	1.486830	-0.079899	-0.249691
C66	C	1.986830	0.420101	0.250309
C67	C	1.483357	-0.079903	-0.380710
C68	C	1.983357	0.420097	0.119290
C69	C	1.477925	-0.000065	0.414336
C70	C	1.977925	0.499935	0.914336
C71	C	1.481616	-0.000065	0.553779
C72	C	1.981616	0.499935	1.053779
H73	H	1.078574	-0.000045	0.395294
H74	H	1.578574	0.499955	0.895294
H75	H	1.331509	-0.583696	0.338296
H76	H	1.831509	-0.083696	0.838296
H77	H	1.481940	-0.144920	-0.434042
H78	H	1.981940	0.355080	0.065958
Cl79	Cl	0.805687	-0.000071	0.438829
Cl80	Cl	1.305687	0.499929	0.938829
H81	H	1.481942	0.144781	-0.434055
H82	H	1.981942	0.644781	0.065945
H83	H	1.129309	-0.000064	-0.019401
H84	H	1.629309	0.499936	0.480599
H85	H	1.331485	-0.416440	0.338302
H86	H	1.831485	0.083560	0.838302
H87	H	1.488265	0.144788	-0.196376
H88	H	1.988265	0.644788	0.303624
Cl89	Cl	1.676182	-0.604093	-0.006190
Cl90	Cl	2.176182	-0.104093	0.493810
H91	H	0.891602	-0.000090	-0.025693
H92	H	1.391602	0.499910	0.474307
Cl93	Cl	1.676178	-0.396022	-0.006186
Cl94	Cl	2.176178	0.103978	0.493814
Cl95	Cl	1.489010	-0.180261	-0.167325
Cl96	Cl	1.989010	0.319739	0.332675
