data_functionalizedCrystal
_audit_creation_method	'MofGen! by Chris Wilmer'
_symmetry_space_group_name_H-M	'P1'
_symmetry_Int_Tables_number	1
_symmetry_cell_setting	triclinic
loop_
_symmetry_equiv_pos_as_xyz
  x,y,z
_cell_length_a	17.699077
_cell_length_b	17.699083
_cell_length_c	18.366186
_cell_angle_alpha	89.992864
_cell_angle_beta	89.991511
_cell_angle_gamma	83.281795
loop_
_atom_site_label
_atom_site_type_symbol
_atom_site_fract_x
_atom_site_fract_y
_atom_site_fract_z
O1	O	1.004084	0.095691	-0.060541
O2	O	1.504084	0.595691	0.439459
O3	O	0.783705	0.108148	-0.060545
O4	O	1.283705	0.608148	0.439455
O5	O	0.900120	-0.008270	-0.060537
O6	O	1.400120	0.491730	0.439463
O7	O	0.887668	0.212109	-0.060550
O8	O	1.387668	0.712109	0.439450
O9	O	0.900101	-0.008276	0.060563
O10	O	1.400101	0.491724	0.560563
O11	O	0.783685	0.108142	0.060554
O12	O	1.283685	0.608142	0.560554
O13	O	1.004064	0.095685	0.060558
O14	O	1.504064	0.595685	0.560558
Zn15	Zn	0.893871	0.101913	0.079783
Zn16	Zn	1.393871	0.601913	0.579783
Zn17	Zn	0.893897	0.101920	-0.079770
Zn18	Zn	1.393897	0.601920	0.420230
O19	O	0.887648	0.212103	0.060550
O20	O	1.387648	0.712103	0.560550
C21	C	0.755498	0.107700	0.000004
C22	C	1.255498	0.607700	0.500004
C23	C	0.671479	0.106363	0.000003
C24	C	1.171479	0.606363	0.500003
C25	C	0.632001	0.105730	0.066015
C26	C	1.132001	0.605730	0.566015
C27	C	0.553059	0.104462	0.066016
C28	C	1.053059	0.604462	0.566016
C29	C	0.513595	0.103832	0.000004
C30	C	1.013595	0.603832	0.500004
C31	C	0.553079	0.104463	-0.066013
C32	C	1.053079	0.604463	0.433987
C33	C	0.632021	0.105725	-0.066013
C34	C	1.132021	0.605725	0.433987
C35	C	0.234716	0.099369	-0.066014
C36	C	0.734716	0.599369	0.433986
C37	C	0.155768	0.098109	-0.066009
C38	C	0.655768	0.598109	0.433991
C39	C	0.155753	0.098105	0.066015
C40	C	0.655753	0.598105	0.566015
C41	C	0.234695	0.099368	0.066015
C42	C	0.734695	0.599368	0.566015
C43	C	0.274173	0.099995	-0.000002
C44	C	0.774173	0.599995	0.499998
C45	C	0.359772	0.101369	-0.000002
C46	C	0.859772	0.601369	0.499998
C47	C	0.427997	0.102464	0.000003
C48	C	0.927997	0.602464	0.500003
C49	C	0.899664	-0.036470	0.000013
C50	C	1.399664	0.463530	0.500013
C51	C	0.898326	-0.120488	0.000013
C52	C	1.398326	0.379512	0.500013
C53	C	0.966659	-0.169110	0.000015
C54	C	1.466659	0.330890	0.500015
C55	C	0.965397	-0.248054	0.000009
C56	C	1.465397	0.251946	0.500009
C57	C	0.895800	-0.278373	0.000006
C58	C	1.395800	0.221627	0.500006
C59	C	0.827461	-0.229744	0.000001
C60	C	1.327461	0.270256	0.500001
C61	C	0.828724	-0.150803	0.000002
C62	C	1.328724	0.349197	0.500002
C63	C	0.822366	-0.548107	-0.000005
C64	C	1.322366	-0.048107	0.499995
C65	C	0.821108	-0.627055	-0.000004
C66	C	1.321108	-0.127055	0.499996
C67	C	0.959039	-0.645358	0.000002
C68	C	1.459039	-0.145358	0.500002
C69	C	0.960302	-0.566417	0.000003
C70	C	1.460302	-0.066417	0.500003
C71	C	0.891963	-0.517795	-0.000005
C72	C	1.391963	-0.017795	0.499995
C73	C	0.893333	-0.432196	0.000000
C74	C	1.393333	0.067804	0.500000
C75	C	0.894430	-0.363971	0.000005
C76	C	1.394430	0.136029	0.500005
C77	C	1.032271	0.096133	0.000007
C78	C	1.532271	0.596133	0.500007
C79	C	1.116289	0.097470	0.000004
C80	C	1.616289	0.597470	0.500004
C81	C	0.888104	0.240303	-0.000002
C82	C	1.388104	0.740303	0.499998
C83	C	0.889443	0.324321	-0.000007
C84	C	1.389443	0.824321	0.499993
N85	N	0.893859	0.101907	0.188674
N86	N	1.393859	0.601907	0.688674
N87	N	0.893915	0.101920	-0.188662
N88	N	1.393915	0.601920	0.311338
C89	C	0.945425	0.050383	0.226778
C90	C	1.445425	0.550383	0.726778
C91	C	0.945429	0.050379	0.303006
C92	C	1.445429	0.550379	0.803006
C93	C	0.893876	0.101913	0.341127
C94	C	1.393876	0.601913	0.841127
C95	C	0.842300	0.153442	0.303014
C96	C	1.342300	0.653442	0.803014
C97	C	0.842292	0.153439	0.226787
C98	C	1.342292	0.653439	0.726787
C99	C	0.883833	0.170863	0.461883
C100	C	1.383833	0.670863	0.961883
C101	C	0.883846	0.170867	0.538108
C102	C	1.383846	0.670867	1.038108
C103	C	0.893897	0.101923	0.576235
C104	C	1.393897	0.601923	1.076235
C105	C	0.903950	0.032972	0.538127
C106	C	1.403950	0.532972	1.038127
C107	C	0.903942	0.032969	0.461900
C108	C	1.403942	0.532969	0.961900
C109	C	0.893879	0.101922	0.423782
C110	C	1.393879	0.601922	0.923782
C111	C	0.945471	0.050390	0.696994
C112	C	1.445471	0.550390	1.196994
C113	C	0.945471	0.050386	0.773223
C114	C	1.445471	0.550386	1.273223
C115	C	0.842345	0.153455	0.773229
C116	C	1.342345	0.653455	1.273229
C117	C	0.842342	0.153453	0.697001
C118	C	1.342342	0.653453	1.197001
C119	C	0.893909	0.101921	0.658888
C120	C	1.393909	0.601921	1.158888
H121	H	0.266822	0.099885	0.119769
H122	H	0.766822	0.599885	0.619769
H123	H	0.266849	0.099877	-0.119769
H124	H	0.766849	0.599877	0.380231
O125	O	1.001064	-0.005198	0.655867
O126	O	1.501064	0.494802	1.155867
H127	H	1.060053	0.004352	0.670476
H128	H	1.560053	0.504352	1.170476
H129	H	0.875635	0.227009	0.430847
H130	H	1.375635	0.727009	0.930847
H131	H	0.123639	0.097595	-0.119767
H132	H	0.623639	0.597595	0.380233
H133	H	0.520942	0.103945	-0.119762
H134	H	1.020942	0.603945	0.380238
O135	O	0.748656	-0.495679	-0.000004
O136	O	1.248656	0.004321	0.499996
H137	H	0.745928	-0.459274	-0.049365
H138	H	1.245928	0.040726	0.450635
O139	O	1.001058	-0.005192	0.344112
O140	O	1.501058	0.494808	0.844112
H141	H	0.969281	-0.041944	0.378854
H142	H	1.469281	0.458056	0.878854
O143	O	0.674562	0.106411	0.137216
O144	O	1.174562	0.606411	0.637216
H145	H	0.703675	0.158558	0.140370
H146	H	1.203675	0.658558	0.640370
H147	H	0.123602	0.097592	0.119769
H148	H	0.623602	0.597592	0.619769
O149	O	1.032748	-0.697805	0.000003
O150	O	1.532748	-0.197805	0.500003
H151	H	1.066044	-0.687052	0.049369
H152	H	1.566044	-0.187052	0.549369
H153	H	0.912126	-0.023173	0.430876
H154	H	1.412126	0.476827	0.930876
H155	H	0.773080	-0.111214	0.000001
H156	H	1.273080	0.388786	0.500001
H157	H	0.912134	-0.023169	0.569168
H158	H	1.412134	0.476831	1.069168
O159	O	0.510474	0.103787	0.137214
O160	O	1.010474	0.603787	0.637214
H161	H	0.551177	0.104449	0.183116
H162	H	1.051177	0.604449	0.683116
H163	H	0.664163	0.106242	-0.119767
H164	H	1.164163	0.606242	0.380233
H165	H	1.023333	-0.144431	0.000023
H166	H	1.523333	0.355569	0.500023
O167	O	0.746041	-0.659762	-0.000009
O168	O	1.246041	-0.159762	0.499991
H169	H	0.713225	-0.640227	-0.049374
H170	H	1.213225	-0.140227	0.450626
O171	O	1.001098	-0.005181	0.814327
O172	O	1.501098	0.494819	1.314327
H173	H	1.036959	-0.041004	0.775015
H174	H	1.536959	0.458996	1.275015
H175	H	1.021041	-0.287639	0.000012
H176	H	1.521041	0.212361	0.500012
H177	H	1.016974	-0.541735	0.000009
H178	H	1.516974	-0.041735	0.500009
O179	O	1.001031	-0.005205	0.185669
O180	O	1.501031	0.494795	0.685669
H181	H	1.036883	-0.041040	0.224977
H182	H	1.536883	0.458960	0.724977
O183	O	0.752393	-0.262440	0.000005
O184	O	1.252393	0.237560	0.500005
H185	H	0.762993	-0.325502	0.000015
H186	H	1.262993	0.174498	0.500015
H187	H	0.800366	0.195412	0.804266
H188	H	1.300366	0.695412	1.304266
O189	O	0.786733	0.209035	0.655895
O190	O	1.286733	0.709035	1.155895
H191	H	0.750889	0.244875	0.695207
H192	H	1.250889	0.744875	1.195207
H193	H	0.875665	0.227011	0.569130
H194	H	1.375665	0.727011	1.069130
O195	O	0.786698	0.209031	0.344123
O196	O	1.286698	0.709031	0.844123
H197	H	0.795373	0.200384	0.403530
H198	H	1.295373	0.700384	0.903530
H199	H	0.800300	0.195397	0.195762
H200	H	1.300300	0.695397	0.695762
