data_functionalizedCrystal
_audit_creation_method	'MofGen! by Chris Wilmer'
_symmetry_space_group_name_H-M	'P1'
_symmetry_Int_Tables_number	1
_symmetry_cell_setting	triclinic
loop_
_symmetry_equiv_pos_as_xyz
  x,y,z
_cell_length_a	10.540510
_cell_length_b	16.053802
_cell_length_c	16.992695
_cell_angle_alpha	92.741074
_cell_angle_beta	87.590767
_cell_angle_gamma	87.392914
loop_
_atom_site_label
_atom_site_type_symbol
_atom_site_fract_x
_atom_site_fract_y
_atom_site_fract_z
O1	O	1.700517	-0.069436	0.107177
O2	O	1.332005	-0.069436	0.117618
O3	O	1.514783	-0.069429	-0.001753
O4	O	1.517739	-0.069442	0.226548
O5	O	1.504720	0.069429	0.004790
O6	O	1.321942	0.069422	0.124162
O7	O	1.690454	0.069423	0.113720
Zn8	Zn	1.504600	0.091469	0.119980
Zn9	Zn	1.517859	-0.091483	0.111359
O10	O	1.507676	0.069416	0.233091
C11	C	1.279603	-0.000007	0.120112
C12	C	1.138451	-0.000007	0.117784
N13	N	1.495560	0.216329	0.125863
N14	N	1.526908	-0.216343	0.105470
C15	C	0.928214	-0.000331	0.200696
C16	C	1.075003	-0.000013	0.203194
C17	C	1.084150	0.079289	0.077799
C18	C	0.937222	0.079350	0.075923
C19	C	0.948705	-0.078558	0.066704
C20	C	1.095473	-0.079601	0.070706
C21	C	1.742857	-0.000008	0.111227
C22	C	1.884009	-0.000014	0.113554
C23	C	1.505951	-0.000000	-0.027715
C24	C	1.494610	-0.000000	-0.114822
C25	C	1.573365	0.260026	0.075089
C26	C	1.567054	0.347433	0.079212
C27	C	1.482944	0.391141	0.134113
C28	C	1.405131	0.347438	0.184889
C29	C	1.411437	0.260033	0.180762
C30	C	1.455400	0.652549	0.152119
C31	C	1.449104	0.739961	0.156244
C32	C	1.611025	0.739949	0.050564
C33	C	1.617328	0.652543	0.046445
C34	C	1.539511	0.608847	0.097219
N35	N	1.476495	0.480484	0.138330
N36	N	1.545955	0.519506	0.092997
C37	C	1.604031	0.000001	-0.164457
C38	C	1.593368	-0.000007	-0.246303
C39	C	1.473284	-0.000010	-0.278512
C40	C	1.363855	-0.000014	-0.228871
C41	C	1.374519	-0.000012	-0.147026
C42	C	1.429085	-0.000022	-0.522355
C43	C	1.418428	-0.000021	-0.604205
C44	C	1.647943	-0.000016	-0.621632
C45	C	1.658597	-0.000009	-0.539785
C46	C	1.549168	-0.000017	-0.490151
N47	N	1.462382	-0.000016	-0.362171
N48	N	1.560072	-0.000018	-0.406493
C49	C	1.516508	-0.000015	0.259053
C50	C	1.527849	-0.000020	0.346160
H51	H	0.893270	-0.057199	0.231291
H52	H	1.113363	0.138297	0.110943
H53	H	1.125870	0.082241	0.015061
H54	H	1.111436	-0.056857	0.234720
H55	H	1.266079	-0.000022	-0.255102
O56	O	1.142647	-0.157313	0.109181
H57	H	1.196489	-0.139334	0.161612
O58	O	0.912042	-0.079275	-0.018271
H59	H	0.848059	-0.023995	-0.027134
O60	O	1.111200	0.075407	0.252296
H61	H	1.170878	0.115015	0.215516
O62	O	1.314420	0.394574	0.244113
H63	H	1.246474	0.434421	0.212611
H64	H	1.641861	0.224445	0.030385
H65	H	0.912850	-0.138660	0.090806
H66	H	1.348078	0.224456	0.222107
H67	H	1.701817	0.000008	-0.138239
O68	O	1.711384	0.000008	-0.299840
H69	H	1.796676	0.000025	-0.263692
H70	H	1.392040	0.616980	0.193462
H71	H	1.756382	-0.000007	-0.513567
O72	O	1.256499	-0.000002	-0.093488
H73	H	1.203518	-0.056594	-0.107684
H74	H	0.883481	0.056211	0.236443
O75	O	0.881690	0.157866	0.119192
H76	H	0.776411	0.158694	0.118278
H77	H	1.737034	-0.000011	-0.662052
O78	O	1.153737	-0.085942	-0.012197
H79	H	1.214501	-0.032220	-0.021182
H80	H	1.630408	0.383010	0.037867
H81	H	1.320635	-0.000010	-0.630425
O82	O	0.899054	0.084138	-0.008464
H83	H	0.985525	0.086407	-0.047754
H84	H	1.685817	0.616957	0.001740
H85	H	1.339980	-0.000028	-0.481952
H86	H	1.380608	0.775544	0.200954
O87	O	1.694944	0.787075	-0.004204
H88	H	1.676426	0.855197	0.007882
