data_functionalizedCrystal
_audit_creation_method	'MofGen! by Chris Wilmer'
_symmetry_space_group_name_H-M	'P1'
_symmetry_Int_Tables_number	1
_symmetry_cell_setting	triclinic
loop_
_symmetry_equiv_pos_as_xyz
  x,y,z
_cell_length_a	12.594517
_cell_length_b	12.594516
_cell_length_c	16.959447
_cell_angle_alpha	90.029785
_cell_angle_beta	90.005911
_cell_angle_gamma	90.009410
loop_
_atom_site_label
_atom_site_type_symbol
_atom_site_fract_x
_atom_site_fract_y
_atom_site_fract_z
Zn1	Zn	1.627227	-0.423838	0.446734
Zn2	Zn	2.127227	0.076162	0.946734
Zn3	Zn	1.627143	-0.601845	0.314557
Zn4	Zn	2.127143	-0.101845	0.814557
Zn5	Zn	1.449248	-0.423868	0.314591
Zn6	Zn	1.949248	0.076132	0.814591
Zn7	Zn	1.449221	-0.601762	0.446715
Zn8	Zn	1.949221	-0.101762	0.946715
O9	O	1.538210	-0.512828	0.380649
O10	O	2.038210	-0.012828	0.880649
O11	O	1.776162	-0.447473	0.429194
O12	O	2.276162	0.052527	0.929194
O13	O	1.603521	-0.578283	0.203951
O14	O	2.103521	-0.078283	0.703951
O15	O	1.472904	-0.274918	0.332143
O16	O	1.972904	0.225082	0.832143
O17	O	1.776100	-0.578254	0.332084
O18	O	2.276100	-0.078254	0.832084
O19	O	1.603664	-0.274896	0.429228
O20	O	2.103664	0.225104	0.929228
O21	O	1.472823	-0.447524	0.203976
O22	O	1.972823	0.052476	0.703976
O23	O	1.300299	-0.447444	0.332124
O24	O	1.800299	0.052556	0.832124
O25	O	1.472858	-0.578113	0.557328
O26	O	1.972858	-0.078113	1.057328
O27	O	1.300279	-0.578142	0.429195
O28	O	1.800279	-0.078142	0.929195
O29	O	1.603638	-0.447393	0.557343
O30	O	2.103638	0.052607	1.057343
O31	O	1.603495	-0.750780	0.332066
O32	O	2.103495	-0.250780	0.832066
O33	O	1.472776	-0.750719	0.429161
O34	O	1.972776	-0.250719	0.929161
C35	C	1.538152	-0.789369	0.380625
C36	C	2.038152	-0.289369	0.880625
C37	C	1.538225	-0.907675	0.380641
C38	C	2.038225	-0.407675	0.880641
C39	C	1.261669	-0.512788	0.380661
C40	C	1.761669	-0.012788	0.880661
C41	C	1.143364	-0.512797	0.380685
C42	C	1.643364	-0.012797	0.880685
C43	C	1.609453	-1.047686	0.327922
C44	C	2.109453	-0.547686	0.827922
C45	C	1.512326	-0.976994	0.308509
C46	C	2.012326	-0.476994	0.808509
C47	C	1.635341	-0.976795	0.400019
C48	C	2.135341	-0.476795	0.900019
C49	C	1.441156	-1.047769	0.361258
C50	C	1.941156	-0.547769	0.861258
C51	C	1.564236	-1.047576	0.452802
C52	C	2.064236	-0.547576	0.952802
C53	C	1.467042	-0.976916	0.433416
C54	C	1.967042	-0.476916	0.933416
C55	C	1.074130	-0.584022	0.433380
C56	C	1.574130	-0.084022	0.933380
C57	C	1.003315	-0.486977	0.452824
C58	C	1.503315	0.013023	0.952824
C59	C	1.003380	-0.609922	0.361224
C60	C	1.503380	-0.109922	0.861224
C61	C	1.074106	-0.415699	0.400167
C62	C	1.574106	0.084301	0.900167
C63	C	1.074177	-0.538710	0.308533
C64	C	1.574177	-0.038710	0.808533
C65	C	1.003394	-0.441598	0.327950
C66	C	1.503394	0.058402	0.827950
C67	C	1.815831	-0.512870	0.380638
C68	C	2.315831	-0.012870	0.880638
C69	C	1.934136	-0.512887	0.380633
C70	C	2.434136	-0.012887	0.880633
C71	C	1.538254	-0.512740	0.586818
C72	C	2.038254	-0.012740	1.086818
C73	C	1.538273	-0.512703	0.674674
C74	C	2.038273	-0.012703	1.174674
C75	C	1.538297	-0.235207	0.380691
C76	C	2.038297	0.264793	0.880691
C77	C	1.538334	-0.116902	0.380709
C78	C	2.038334	0.383098	0.880709
C79	C	1.538227	-0.512839	0.175283
C80	C	2.038227	-0.012839	0.675283
C81	C	1.538414	-0.512577	0.087427
C82	C	2.038414	-0.012577	0.587427
C83	C	1.470309	-0.580650	1.046145
C84	C	1.970309	-0.080650	1.546145
C85	C	1.606492	-0.444531	1.046155
C86	C	2.106492	0.055469	1.546155
C87	C	1.606463	-0.444553	0.963609
C88	C	2.106463	0.055447	1.463609
C89	C	1.538358	-0.512626	0.922327
C90	C	2.038358	-0.012626	1.422327
C91	C	1.470281	-0.580677	0.963592
C92	C	1.970281	-0.080677	1.463592
C93	C	1.674547	-0.376511	0.922339
C94	C	2.174547	0.123489	1.422339
C95	C	1.674522	-0.376532	0.839788
C96	C	2.174522	0.123468	1.339788
C97	C	1.606410	-0.444601	0.798504
C98	C	2.106410	0.055399	1.298504
C99	C	1.538330	-0.512653	0.839774
C100	C	2.038330	-0.012653	1.339774
C101	C	1.470224	-0.580727	0.798492
C102	C	1.970224	-0.080727	1.298492
C103	C	1.402137	-0.648775	0.839760
C104	C	1.902137	-0.148775	1.339760
C105	C	1.402169	-0.648746	0.922308
C106	C	1.902169	-0.148746	1.422308
C107	C	1.606379	-0.444629	0.715956
C108	C	2.106379	0.055371	1.215956
C109	C	1.470196	-0.580754	0.715938
C110	C	1.970196	-0.080754	1.215938
H111	H	1.669568	-1.078759	0.283277
H112	H	2.169568	-0.578759	0.783277
F113	F	1.329662	-0.721226	0.795815
F114	F	1.829662	-0.221226	1.295815
H115	H	1.346740	-0.704150	0.955916
H116	H	1.846740	-0.204150	1.455916
F117	F	1.747031	-0.304075	0.966277
F118	F	2.247031	0.195925	1.466277
F119	F	1.397847	-0.653065	1.090065
F120	F	1.897847	-0.153065	1.590065
F121	F	1.678977	-0.372094	1.090092
F122	F	2.178977	0.127906	1.590092
H123	H	1.729962	-0.321122	0.806194
H124	H	2.229962	0.178878	1.306194
F125	F	1.678842	-0.372220	0.672039
F126	F	2.178842	0.127780	1.172039
H127	H	1.717424	-0.945621	0.416379
H128	H	2.217424	-0.445621	0.916379
F129	F	1.483621	-0.936459	0.228783
F130	F	1.983621	-0.436459	0.728783
H131	H	1.105192	-0.644139	0.477999
H132	H	1.605192	-0.144139	0.977999
H133	H	1.406783	-0.946039	0.478027
H134	H	1.906783	-0.446039	0.978027
H135	H	0.972189	-0.465091	0.513819
H136	H	1.472189	0.034909	1.013819
H137	H	1.105044	-0.333575	0.416674
H138	H	1.605044	0.166425	0.916674
H139	H	1.359049	-1.078811	0.344829
H140	H	1.859049	-0.578811	0.844829
H141	H	1.586227	-1.078605	0.513782
H142	H	2.086227	-0.578605	1.013782
H143	H	0.972531	-0.381334	0.283365
H144	H	1.472531	0.118666	0.783365
F145	F	1.114863	-0.567339	0.228819
F146	F	1.614863	-0.067339	0.728819
H147	H	0.972307	-0.692021	0.344787
H148	H	1.472307	-0.192021	0.844787
H149	H	1.414726	-0.636178	0.682333
H150	H	1.914726	-0.136178	1.182333
