data_functionalizedCrystal
_audit_creation_method	'MofGen! by Chris Wilmer'
_symmetry_space_group_name_H-M	'P1'
_symmetry_Int_Tables_number	1
_symmetry_cell_setting	triclinic
loop_
_symmetry_equiv_pos_as_xyz
  x,y,z
_cell_length_a	14.044220
_cell_length_b	12.503572
_cell_length_c	14.044220
_cell_angle_alpha	86.156832
_cell_angle_beta	93.188878
_cell_angle_gamma	93.835250
loop_
_atom_site_label
_atom_site_type_symbol
_atom_site_fract_x
_atom_site_fract_y
_atom_site_fract_z
O1	O	1.282200	0.089210	0.225116
O2	O	1.782200	0.589210	0.725116
O3	O	1.005530	0.089237	0.216809
O4	O	1.505530	0.589237	0.716809
O5	O	1.139712	0.089213	0.082627
O6	O	1.639712	0.589213	0.582627
O7	O	1.148019	0.089234	0.359298
O8	O	1.648019	0.589234	0.859298
O9	O	1.129622	-0.089427	0.092737
O10	O	1.629622	0.410573	0.592737
O11	O	0.995440	-0.089403	0.226918
O12	O	1.495440	0.410597	0.726918
O13	O	1.272110	-0.089430	0.235226
O14	O	1.772110	0.410570	0.735226
Cu15	Cu	1.132854	-0.105728	0.231995
Cu16	Cu	1.632854	0.394272	0.731995
Cu17	Cu	1.144786	0.105535	0.220040
Cu18	Cu	1.644786	0.605535	0.720040
O19	O	1.137929	-0.089406	0.369407
O20	O	1.637929	0.410594	0.869407
C21	C	0.964864	-0.000080	0.218228
C22	C	1.464864	0.499920	0.718228
C23	C	0.858721	-0.000070	0.207383
C24	C	1.358721	0.499930	0.707383
C25	C	0.664382	-0.000092	0.187558
C26	C	1.164382	0.499908	0.687558
C27	C	0.613253	-0.000091	0.264472
C28	C	1.113253	0.499909	0.764472
C29	C	0.505116	-0.000104	0.253441
C30	C	1.005116	0.499896	0.753441
C31	C	0.772529	-0.000080	0.198587
C32	C	1.272529	0.499920	0.698587
N33	N	1.124469	-0.254319	0.240404
N34	N	1.624469	0.245681	0.740404
C35	C	1.112134	-0.473432	0.252782
C36	C	1.612134	0.026568	0.752782
C37	C	1.165511	-0.526768	0.199249
C38	C	1.665511	-0.026768	0.699249
C39	C	1.158648	-0.648690	0.206136
C40	C	1.658648	-0.148690	0.706136
C41	C	1.118996	-0.351499	0.245896
C42	C	1.618996	0.148501	0.745896
C43	C	1.312777	-0.000111	0.233807
C44	C	1.812777	0.499889	0.733807
C45	C	1.418920	-0.000114	0.244651
C46	C	1.918920	0.499886	0.744651
C47	C	1.131031	-0.000107	0.052060
C48	C	1.631031	0.499893	0.552060
C49	C	1.120187	-0.000107	-0.054082
C50	C	1.620187	0.499893	0.445918
N51	N	1.153179	0.254126	0.211624
N52	N	1.653179	0.754126	0.711624
C53	C	1.100361	-0.000090	-0.248421
C54	C	1.600361	0.499910	0.251579
C55	C	1.177275	-0.000094	-0.299551
C56	C	1.677275	0.499906	0.200449
C57	C	1.166244	-0.000084	-0.407687
C58	C	1.666244	0.499916	0.092313
C59	C	1.111391	-0.000099	-0.140274
C60	C	1.611391	0.499901	0.359726
C61	C	1.146609	-0.000084	0.399974
C62	C	1.646609	0.499916	0.899974
C63	C	1.157454	-0.000077	0.506117
C64	C	1.657454	0.499923	1.006117
H65	H	0.626945	-0.000104	0.113431
H66	H	1.126945	0.499896	0.613431
C67	C	0.931298	-0.000078	-0.230711
C68	C	1.431298	0.499922	0.269289
C69	C	1.000288	-0.000079	-0.298954
C70	C	1.500288	0.499921	0.201046
H71	H	0.869520	-0.000066	-0.261919
H72	H	1.369520	0.499934	0.238081
H73	H	0.935270	-0.062373	-0.188456
H74	H	1.435270	0.437627	0.311544
H75	H	0.942310	0.062219	-0.195488
H76	H	1.442310	0.562219	0.304512
H77	H	0.989280	-0.062380	-0.334173
H78	H	1.489280	0.437620	0.165827
H79	H	0.996313	0.062223	-0.341227
H80	H	1.496313	0.562223	0.158773
C81	C	0.642471	0.091779	0.409002
C82	C	1.142471	0.591779	0.909002
C83	C	0.663778	-0.000061	0.364556
C84	C	1.163778	0.499939	0.864556
H85	H	0.673660	0.091796	0.470790
H86	H	1.173660	0.591796	0.970790
H87	H	0.663929	0.154056	0.371769
H88	H	1.163929	0.654056	0.871769
H89	H	0.575374	0.091757	0.414604
H90	H	1.075374	0.591757	0.914604
H91	H	0.730875	-0.000035	0.358947
H92	H	1.230875	0.499965	0.858947
H93	H	0.642325	-0.062354	0.401798
H94	H	1.142325	0.437646	0.901798
C95	C	0.995456	-0.462434	0.369805
C96	C	1.495456	0.037566	0.869805
C97	C	1.043488	-0.535390	0.321634
C98	C	1.543488	-0.035390	0.821634
H99	H	0.953075	-0.500696	0.412306
H100	H	1.453075	-0.000696	0.912306
H101	H	1.040589	-0.418570	0.405020
H102	H	1.540589	0.081430	0.905020
H103	H	0.960117	-0.418570	0.324754
H104	H	1.460117	0.081430	0.824754
H105	H	1.078833	-0.579249	0.366684
H106	H	1.578833	-0.079249	0.866684
H107	H	0.998349	-0.579272	0.286417
H108	H	1.498349	-0.079272	0.786417
H109	H	1.216364	-0.480864	0.148245
H110	H	1.716364	0.019136	0.648245
C111	C	1.269056	-0.000133	-0.150119
C112	C	1.769056	0.499867	0.349881
C113	C	1.277354	-0.000120	-0.249015
C114	C	1.777354	0.499880	0.250985
H115	H	1.330838	-0.000158	-0.118919
H116	H	1.830838	0.499842	0.381081
H117	H	1.238887	0.062165	-0.135697
H118	H	1.738887	0.562165	0.364303
H119	H	1.231827	-0.062427	-0.128669
H120	H	1.731827	0.437573	0.371331
H121	H	1.314578	0.062178	-0.270466
H122	H	1.814578	0.562178	0.229534
H123	H	1.307537	-0.062425	-0.263444
H124	H	1.807537	0.437575	0.236556
