data_functionalizedCrystal
_audit_creation_method	'MofGen! by Chris Wilmer'
_symmetry_space_group_name_H-M	'P1'
_symmetry_Int_Tables_number	1
_symmetry_cell_setting	triclinic
loop_
_symmetry_equiv_pos_as_xyz
  x,y,z
_cell_length_a	16.992694
_cell_length_b	14.853559
_cell_length_c	15.455322
_cell_angle_alpha	92.671164
_cell_angle_beta	87.141817
_cell_angle_gamma	87.149838
loop_
_atom_site_label
_atom_site_type_symbol
_atom_site_fract_x
_atom_site_fract_y
_atom_site_fract_z
O1	O	1.044022	0.187488	-0.072015
O2	O	0.815736	0.185389	-0.072041
O3	O	0.935980	0.055639	-0.072026
O4	O	0.923778	0.317238	-0.072030
O5	O	0.929103	0.063027	0.072235
O6	O	0.808859	0.192777	0.072221
O7	O	1.037145	0.194876	0.072246
Cu8	Cu	0.922374	0.194501	0.085406
Cu9	Cu	0.930507	0.185764	-0.085200
O10	O	0.916901	0.324626	0.072232
C11	C	0.783082	0.186385	0.000087
C12	C	0.696030	0.178334	0.000077
C13	C	0.645872	0.256010	0.000076
C14	C	0.564077	0.248441	0.000088
C15	C	0.532441	0.163195	0.000095
C16	C	0.582606	0.085514	0.000097
C17	C	0.664399	0.093084	0.000092
C18	C	0.288809	0.131820	0.000118
C19	C	0.207010	0.124255	0.000121
C20	C	0.188486	0.287183	0.000114
C21	C	0.270282	0.294746	0.000103
C22	C	0.320439	0.217064	0.000110
N23	N	0.448834	0.155456	0.000104
N24	N	0.404045	0.224804	0.000107
C25	C	0.931990	0.025705	0.000103
C26	C	0.930337	-0.074496	0.000098
C27	C	0.927072	-0.502193	-0.078540
C28	C	0.919574	-0.494133	0.078739
C29	C	0.921134	-0.399990	0.078740
C30	C	0.925662	-0.356944	0.000100
C31	C	0.928630	-0.408041	-0.078542
C32	C	0.918158	-0.348885	0.157380
C33	C	0.919717	-0.254736	0.157384
C34	C	0.924251	-0.211688	0.078743
C35	C	0.927220	-0.262791	0.000098
C36	C	0.931747	-0.219745	-0.078542
C37	C	0.934722	-0.270847	-0.157188
C38	C	0.933163	-0.364993	-0.157183
C39	C	0.925809	-0.117542	0.078738
C40	C	0.933305	-0.125593	-0.078544
C41	C	1.069799	0.193880	0.000117
C42	C	1.156852	0.201931	0.000121
C43	C	0.920891	0.354560	0.000101
C44	C	0.922544	0.454761	0.000100
N45	N	0.916660	0.200646	0.205400
C46	C	0.967761	0.145547	0.250801
C47	C	0.963447	0.150203	0.341608
C48	C	0.908034	0.209963	0.387013
C49	C	0.856927	0.265065	0.341607
C50	C	0.861238	0.260403	0.250801
C51	C	0.889426	0.230058	0.658593
C52	C	0.885120	0.234717	0.749405
C53	C	0.991639	0.119853	0.749400
C54	C	0.995949	0.115201	0.658592
C55	C	0.944839	0.170299	0.613194
N56	N	0.903624	0.214726	0.479833
N57	N	0.949245	0.165531	0.520375
N58	N	0.936221	0.179617	0.794805
H59	H	0.296034	0.364161	0.000088
H60	H	1.012887	0.096888	0.213837
Cl61	Cl	0.939003	-0.071486	-0.177412
Cl62	Cl	0.167240	0.017082	0.000149
Cl63	Cl	0.542835	-0.021653	0.000111
Cl64	Cl	0.825178	0.299326	0.601526
Cl65	Cl	1.027689	0.080933	0.398684
H66	H	1.033249	0.074994	0.786372
H67	H	0.147640	0.350426	0.000110
H68	H	0.329638	0.068566	0.000125
H69	H	0.671623	0.325426	0.000071
Cl70	Cl	0.501024	0.346095	0.000083
H71	H	0.705237	0.029832	0.000091
H72	H	0.923370	-0.075938	0.142770
H73	H	0.811805	0.313720	0.378581
Cl74	Cl	0.940417	-0.216721	-0.256046
Cl75	Cl	0.913869	-0.548249	0.177595
Cl76	Cl	0.796990	0.329671	0.193727
H77	H	0.839994	0.283384	0.786370
Cl78	Cl	0.915975	-0.190502	0.256250
Cl79	Cl	0.930819	-0.566433	-0.177403
Cl80	Cl	0.936905	-0.429241	-0.256042
Cl81	Cl	0.912449	-0.403003	0.256235
H82	H	1.041070	0.066539	0.621625
