data_functionalizedCrystal
_audit_creation_method	'MofGen! by Chris Wilmer'
_symmetry_space_group_name_H-M	'P1'
_symmetry_Int_Tables_number	1
_symmetry_cell_setting	triclinic
loop_
_symmetry_equiv_pos_as_xyz
  x,y,z
_cell_length_a	15.995350
_cell_length_b	14.971486
_cell_length_c	14.048226
_cell_angle_alpha	90.001501
_cell_angle_beta	89.995798
_cell_angle_gamma	96.446748
loop_
_atom_site_label
_atom_site_type_symbol
_atom_site_fract_x
_atom_site_fract_y
_atom_site_fract_z
O1	O	0.109116	-1.186822	-0.079046
O2	O	0.122183	-0.926407	-0.079072
O3	O	-0.006231	-1.063733	-0.079057
O4	O	0.237530	-1.049496	-0.079061
O5	O	-0.006238	-1.063717	0.079264
O6	O	0.122176	-0.926391	0.079250
O7	O	0.109109	-1.186806	0.079275
Zn8	Zn	0.115641	-1.056596	0.104399
Zn9	Zn	0.115651	-1.056617	-0.104196
O10	O	0.237523	-1.049480	0.079261
C11	C	-0.037430	-1.063137	0.000101
C12	C	-0.130382	-1.061372	0.000096
C13	C	0.121595	-0.893075	0.000086
C14	C	0.119844	-0.793780	0.000076
C15	C	0.109697	-1.220138	0.000116
C16	C	0.111448	-1.319433	0.000119
C17	C	-0.468136	-1.055035	0.000098
C18	C	-0.420800	-0.957234	-0.000266
C19	C	-0.324108	-0.958999	0.000091
C20	C	-0.300572	-1.058178	0.000097
C21	C	-0.341606	-1.106408	0.090509
C22	C	-0.438244	-1.103951	0.090584
C23	C	-0.438591	-1.105990	-0.089456
C24	C	-0.341646	-1.105967	-0.090651
C25	C	-0.205873	-1.059960	0.000099
C26	C	-0.562835	-1.053256	0.000103
C27	C	0.268722	-1.050077	0.000100
C28	C	0.361674	-1.051841	0.000099
N29	N	0.115634	-1.056587	0.246760
C30	C	0.195284	-0.736468	0.000076
C31	C	0.193633	-0.643171	0.000090
C32	C	0.116542	-0.607187	0.000098
C33	C	0.041097	-0.664505	0.000100
C34	C	0.042748	-0.757801	0.000093
C35	C	0.037660	-0.470047	0.000113
C36	C	0.036008	-0.376745	0.000119
C37	C	0.188545	-0.355417	0.000111
C38	C	0.190197	-0.448712	0.000104
C39	C	0.114751	-0.506025	0.000104
N40	N	0.115652	-1.056633	-0.246557
C41	C	0.058795	-1.117414	0.296584
C42	C	0.058795	-1.117421	0.396242
C43	C	0.115637	-1.056603	0.446073
C44	C	0.172478	-0.995769	0.396242
C45	C	0.172474	-0.995760	0.296586
C46	C	0.172484	-0.995795	0.603956
C47	C	0.172490	-0.995806	0.703619
C48	C	0.058805	-1.117456	0.703612
C49	C	0.058801	-1.117446	0.603956
C50	C	0.115643	-1.056614	0.554132
H51	H	-0.439368	-0.918150	-0.065103
H52	H	-0.026766	-0.347450	0.000126
H53	H	0.218758	-0.946246	0.436821
N54	N	-0.321208	-1.201774	-0.097877
H55	H	-0.375067	-1.244028	-0.097070
H56	H	-0.289972	-1.209785	-0.159219
H57	H	0.258060	-0.765759	0.000070
N58	N	-0.038623	-0.819613	0.000090
H59	H	-0.041338	-0.858797	-0.058601
H60	H	-0.041291	-0.858739	0.058818
N61	N	-0.002488	-1.183085	0.757347
H62	H	-0.038487	-1.221622	0.710658
H63	H	0.029657	-1.222614	0.798672
N64	N	0.233794	-0.930219	0.757381
H65	H	0.293238	-0.940509	0.740029
H66	H	0.223979	-0.866764	0.740042
N67	N	0.274977	-0.581318	0.000105
H68	H	0.277656	-0.542152	0.058808
H69	H	0.324044	-0.618295	0.000065
N70	N	0.273339	-0.487535	0.000099
H71	H	0.277420	-0.525766	-0.058594
H72	H	0.320838	-0.437028	0.000138
N73	N	0.233773	-0.930149	0.242842
H74	H	0.269784	-0.891623	0.289530
H75	H	0.270843	-0.964380	0.201480
H76	H	0.012513	-1.166950	0.436809
N77	N	0.269919	-0.293605	0.000204
H78	H	0.319006	-0.330557	0.000220
H79	H	0.272608	-0.254387	-0.058456
H80	H	-0.470280	-1.178098	-0.090060
H81	H	-0.023776	-0.516709	0.000115
H82	H	-0.440436	-0.918310	0.064202
N83	N	-0.287243	-0.908431	0.086078
H84	H	-0.333815	-0.884911	0.123901
H85	H	-0.257355	-0.950173	0.127203
N86	N	-0.462546	-1.057349	0.180098
H87	H	-0.410506	-1.038591	0.219137
H88	H	-0.490553	-1.002452	0.162499
H89	H	0.218769	-0.946256	0.563393
N90	N	-0.480874	-1.199057	0.096030
H91	H	-0.436864	-1.242390	0.098376
H92	H	-0.516754	-1.206209	0.155289
N93	N	-0.002500	-1.183046	0.550206
H94	H	-0.038510	-1.221584	0.596889
H95	H	-0.039570	-1.148801	0.508867
N96	N	-0.042049	-0.625689	0.000119
H97	H	-0.046133	-0.587454	-0.058568
H98	H	-0.089544	-0.676201	0.000158
H99	H	0.012511	-1.166943	0.256018
H100	H	-0.295721	-0.921086	-0.064720
N101	N	-0.322832	-1.202936	0.094958
H102	H	-0.287458	-1.216361	0.038276
H103	H	-0.291177	-1.212886	0.155545
N104	N	-0.304051	-1.062022	0.179622
H105	H	-0.314697	-0.996797	0.180515
H106	H	-0.330870	-1.093595	0.237369
H107	H	-0.459160	-1.074021	-0.157983
H108	H	-0.314429	-1.070705	-0.157536
