data_functionalizedCrystal
_audit_creation_method	'MofGen! by Chris Wilmer'
_symmetry_space_group_name_H-M	'P1'
_symmetry_Int_Tables_number	1
_symmetry_cell_setting	triclinic
loop_
_symmetry_equiv_pos_as_xyz
  x,y,z
_cell_length_a	14.519709
_cell_length_b	16.109302
_cell_length_c	12.996460
_cell_angle_alpha	89.991849
_cell_angle_beta	89.998766
_cell_angle_gamma	83.570963
loop_
_atom_site_label
_atom_site_type_symbol
_atom_site_fract_x
_atom_site_fract_y
_atom_site_fract_z
O1	O	0.118538	1.103339	-0.085615
O2	O	0.133289	0.861303	-0.085607
O3	O	-0.008338	0.988738	-0.085602
O4	O	0.260166	0.975904	-0.085620
O5	O	-0.008330	0.988722	0.085532
O6	O	0.133298	0.861287	0.085526
O7	O	0.118546	1.103323	0.085519
Cu8	Cu	0.125923	0.982303	0.101148
Cu9	Cu	0.125913	0.982323	-0.101237
O10	O	0.260174	0.975888	0.085513
C11	C	0.132696	0.830319	-0.000039
C12	C	0.130904	0.738021	-0.000036
C13	C	-0.042693	0.988132	-0.000035
C14	C	-0.145070	0.986340	-0.000035
C15	C	0.126765	0.525664	0.093239
C16	C	0.125072	0.438941	0.093235
C17	C	0.125068	0.438969	-0.093344
C18	C	0.126754	0.525691	-0.093339
C19	C	0.127608	0.569036	-0.000045
C20	C	0.124228	0.395590	-0.000053
C21	C	0.122391	0.301562	-0.000057
C22	C	0.129442	0.663071	-0.000040
C23	C	-0.519952	0.979741	-0.000061
C24	C	-0.415648	0.981574	-0.000053
C25	C	-0.332514	0.983040	-0.000047
C26	C	-0.228204	0.984873	-0.000041
C27	C	0.294528	0.976494	-0.000056
C28	C	0.396906	0.978286	-0.000063
C29	C	0.119140	1.134307	-0.000052
C30	C	0.120932	1.226605	-0.000062
N31	N	0.125929	0.982296	0.243495
N32	N	0.125899	0.982337	-0.243584
C33	C	0.125931	0.982300	0.336601
C34	C	0.125925	0.982307	0.453407
C35	C	0.125915	0.982318	0.546505
C36	C	0.125910	0.982326	0.663317
H37	H	0.127460	0.560952	0.169205
H38	H	0.127438	0.561006	-0.169307
Br39	Br	0.123927	0.380081	0.219841
Br40	Br	0.123881	0.380142	-0.219952
