data_functionalizedCrystal
_audit_creation_method	'MofGen! by Chris Wilmer'
_symmetry_space_group_name_H-M	'P1'
_symmetry_Int_Tables_number	1
_symmetry_cell_setting	triclinic
loop_
_symmetry_equiv_pos_as_xyz
  x,y,z
_cell_length_a	14.519710
_cell_length_b	11.026607
_cell_length_c	9.482900
_cell_angle_alpha	78.599815
_cell_angle_beta	80.694056
_cell_angle_gamma	83.866919
loop_
_atom_site_label
_atom_site_type_symbol
_atom_site_fract_x
_atom_site_fract_y
_atom_site_fract_z
O1	O	1.261306	-0.140161	-0.120859
O2	O	1.761306	0.359839	0.379141
O3	O	0.995918	-0.158899	-0.120868
O4	O	1.495918	0.341101	0.379132
O5	O	1.106616	0.027170	-0.120859
O6	O	1.606616	0.527170	0.379141
O7	O	1.150608	-0.326230	-0.120868
O8	O	1.650608	0.173770	0.379132
O9	O	1.084156	-0.010777	0.120932
O10	O	1.584156	0.489223	0.620932
O11	O	0.973458	-0.196846	0.120923
O12	O	1.473458	0.303154	0.620923
O13	O	1.238846	-0.178108	0.120932
O14	O	1.738846	0.321892	0.620932
Cu15	Cu	1.104101	-0.190942	0.143005
Cu16	Cu	1.604101	0.309058	0.643005
Cu17	Cu	1.130663	-0.146065	-0.142941
Cu18	Cu	1.630663	0.353935	0.357059
O19	O	1.128148	-0.364177	0.120923
O20	O	1.628148	0.135823	0.620923
C21	C	0.950184	-0.176999	0.000026
C22	C	1.450184	0.323001	0.500026
C23	C	0.847372	-0.174382	0.000022
C24	C	1.347372	0.325618	0.500022
C25	C	1.087271	0.053425	0.000034
C26	C	1.587271	0.553425	0.500034
C27	C	1.063079	0.188193	0.000028
C28	C	1.563079	0.688193	0.500028
C29	C	1.284580	-0.160007	0.000035
C30	C	1.784580	0.339993	0.500035
C31	C	1.387393	-0.162624	0.000029
C32	C	1.887393	0.337376	0.500029
C33	C	1.763876	-0.172258	0.000028
C34	C	2.263876	0.327742	0.500028
C35	C	1.659128	-0.169583	0.000028
C36	C	2.159128	0.330417	0.500028
C37	C	1.575638	-0.167441	0.000027
C38	C	2.075638	0.332559	0.500027
C39	C	1.470883	-0.164765	0.000029
C40	C	1.970883	0.335235	0.500029
C41	C	1.147493	-0.390432	0.000026
C42	C	1.647493	0.109568	0.500026
C43	C	1.171686	-0.525198	0.000023
C44	C	1.671686	-0.025198	0.500023
N45	N	1.085426	-0.222505	0.344123
N46	N	1.585426	0.277495	0.844123
C47	C	1.129879	0.261853	0.000029
C48	C	1.629879	0.761853	0.500029
C49	C	1.104877	0.401143	0.000022
C50	C	1.604877	0.901143	0.500022
N51	N	1.149344	-0.114493	-0.344059
N52	N	1.649344	0.385507	0.155941
C53	C	1.125147	-0.155369	0.416326
C54	C	1.625147	0.344631	0.916326
C55	C	1.109617	-0.181639	0.583742
C56	C	1.609617	0.318361	1.083742
H57	H	1.205577	0.221796	0.000040
H58	H	1.705577	0.721796	0.500040
H59	H	1.194847	-0.037557	0.593820
H60	H	1.694847	0.462443	1.093820
Cl61	Cl	1.015163	-0.341271	0.440031
Cl62	Cl	1.515163	0.158729	0.940031
H63	H	1.064106	-0.258566	0.645863
H64	H	1.564106	0.241434	1.145863
H65	H	0.987381	0.228250	0.000016
H66	H	1.487381	0.728250	0.500016
H67	H	1.029174	0.441195	0.000010
H68	H	1.529174	0.941195	0.500010
Cl69	Cl	1.288570	0.412980	0.000020
Cl70	Cl	1.788570	0.912980	0.500020
H71	H	1.170647	-0.078437	0.354202
H72	H	1.670647	0.421563	0.854202
