data_functionalizedCrystal
_audit_creation_method	'MofGen! by Chris Wilmer'
_symmetry_space_group_name_H-M	'P1'
_symmetry_Int_Tables_number	1
_symmetry_cell_setting	triclinic
loop_
_symmetry_equiv_pos_as_xyz
  x,y,z
_cell_length_a	19.288864
_cell_length_b	17.038278
_cell_length_c	18.366186
_cell_angle_alpha	89.986923
_cell_angle_beta	89.977106
_cell_angle_gamma	87.123372
loop_
_atom_site_label
_atom_site_type_symbol
_atom_site_fract_x
_atom_site_fract_y
_atom_site_fract_z
O1	O	0.927385	0.097514	-0.060796
O2	O	0.725938	0.110668	-0.060748
O3	O	0.825465	-0.009720	-0.060754
O4	O	0.827858	0.217903	-0.060791
O5	O	0.825447	-0.009726	0.060346
O6	O	0.725920	0.110662	0.060351
O7	O	0.927367	0.097508	0.060303
Zn8	Zn	0.826640	0.104084	0.079554
Zn9	Zn	0.826665	0.104092	-0.080000
O10	O	0.827840	0.217897	0.060308
C11	C	0.700027	0.110242	-0.000192
C12	C	0.622844	0.108972	-0.000173
C13	C	0.823279	-0.038845	-0.000200
C14	C	0.816782	-0.125616	-0.000189
C15	C	0.582518	0.179610	-0.000196
C16	C	0.509997	0.178417	-0.000204
C17	C	0.477805	0.106580	-0.000203
C18	C	0.518141	0.035932	-0.000176
C19	C	0.590661	0.037128	-0.000161
C20	C	0.366056	0.050111	-0.042645
C21	C	0.293538	0.048918	-0.042665
C22	C	0.254132	0.102889	-0.000247
C23	C	0.287251	0.158066	0.042181
C24	C	0.359771	0.159262	0.042197
C25	C	0.399171	0.105276	-0.000219
C26	C	0.135169	0.172239	-0.000277
C27	C	0.062647	0.171042	-0.000281
C28	C	0.070793	0.028556	-0.000260
C29	C	0.143314	0.029754	-0.000249
C30	C	0.175497	0.101598	-0.000262
C31	C	0.776868	-0.615899	-0.000246
C32	C	0.782978	-0.534369	-0.000240
C33	C	0.848744	-0.503147	-0.000246
C34	C	0.908404	-0.553462	-0.000265
C35	C	0.902294	-0.634991	-0.000276
C36	C	0.870331	-0.257460	-0.000219
C37	C	0.876437	-0.175924	-0.000206
C38	C	0.751010	-0.156837	-0.000182
C39	C	0.744905	-0.238368	-0.000189
C40	C	0.804566	-0.288675	-0.000212
C41	C	0.854991	-0.419810	-0.000238
C42	C	0.798318	-0.372011	-0.000225
C43	C	0.953279	0.097934	-0.000255
C44	C	1.030461	0.099205	-0.000279
C45	C	0.830027	0.247021	-0.000247
C46	C	0.836523	0.333793	-0.000263
N47	N	0.826629	0.104079	0.188445
N48	N	0.826681	0.104092	-0.188891
C49	C	0.870716	0.050797	0.226543
C50	C	0.870721	0.050793	0.302771
C51	C	0.826645	0.104085	0.340898
C52	C	0.782548	0.157371	0.302791
C53	C	0.782540	0.157368	0.226564
C54	C	0.821753	0.175309	0.461648
C55	C	0.821765	0.175313	0.537873
C56	C	0.826665	0.104095	0.576006
C57	C	0.831566	0.032869	0.537904
C58	C	0.831558	0.032866	0.461677
C59	C	0.826648	0.104094	0.423553
C60	C	0.870759	0.050805	0.696759
C61	C	0.870759	0.050800	0.772988
C62	C	0.782590	0.157385	0.773006
C63	C	0.782587	0.157383	0.696778
C64	C	0.826676	0.104093	0.658659
H65	H	0.608717	0.238111	-0.000207
H66	H	0.950872	-0.675951	-0.000292
H67	H	0.746690	0.200773	0.665757
H68	H	0.746660	0.200761	0.333837
H69	H	0.044583	-0.029935	-0.000305
H70	H	0.744772	-0.397435	-0.000224
H71	H	0.734399	-0.493411	-0.000229
H72	H	0.161375	0.230738	-0.000276
H73	H	0.255168	0.202015	0.076723
H74	H	0.691352	-0.263782	-0.000193
H75	H	0.477157	0.235941	-0.000221
H76	H	0.723314	-0.641313	-0.000233
H77	H	0.908538	-0.394381	-0.000218
H78	H	0.702439	-0.115869	-0.000165
H79	H	0.029814	0.228567	-0.000295
H80	H	0.817779	0.233309	0.568889
H81	H	0.906657	0.007411	0.665721
H82	H	0.929995	-0.150508	-0.000210
H83	H	0.386734	0.204187	0.076745
H84	H	0.918911	-0.298411	-0.000233
H85	H	0.906614	0.007403	0.195509
H86	H	0.906623	0.007403	0.333796
H87	H	0.176148	-0.027768	-0.000235
H88	H	0.623494	-0.020396	-0.000142
H89	H	0.817751	0.233307	0.430607
H90	H	0.835547	-0.025128	0.430658
H91	H	0.746638	0.200757	0.195544
H92	H	0.961953	-0.528035	-0.000268
H93	H	0.266578	0.003993	-0.077215
H94	H	0.746700	0.200773	0.804048
H95	H	0.398136	0.006159	-0.077191
H96	H	0.835556	-0.025124	0.568950
H97	H	0.491926	-0.022557	-0.000186
H98	H	0.906658	0.007407	0.804008
