data_functionalizedCrystal
_audit_creation_method	'MofGen! by Chris Wilmer'
_symmetry_space_group_name_H-M	'P1'
_symmetry_Int_Tables_number	1
_symmetry_cell_setting	triclinic
loop_
_symmetry_equiv_pos_as_xyz
  x,y,z
_cell_length_a	10.654550
_cell_length_b	17.699077
_cell_length_c	16.776229
_cell_angle_alpha	89.993415
_cell_angle_beta	89.994543
_cell_angle_gamma	83.882740
loop_
_atom_site_label
_atom_site_type_symbol
_atom_site_fract_x
_atom_site_fract_y
_atom_site_fract_z
O1	O	0.158773	1.005091	-0.066276
O2	O	0.658773	1.505091	0.433724
O3	O	0.179442	0.784843	-0.066279
O4	O	0.679442	1.284843	0.433721
O5	O	-0.013721	0.900031	-0.066274
O6	O	0.486279	1.400031	0.433726
O7	O	0.351936	0.889903	-0.066280
O8	O	0.851936	1.389903	0.433720
O9	O	-0.013732	0.900015	0.066302
O10	O	0.486268	1.400015	0.566302
O11	O	0.179430	0.784828	0.066297
O12	O	0.679430	1.284828	0.566297
O13	O	0.158761	1.005075	0.066301
O14	O	0.658761	1.505075	0.566301
Zn15	Zn	0.169094	0.894949	0.087348
Zn16	Zn	0.669094	1.394949	0.587348
Zn17	Zn	0.169109	0.894969	-0.087327
Zn18	Zn	0.669109	1.394969	0.412673
O19	O	0.351924	0.889888	0.066296
O20	O	0.851924	1.389888	0.566296
C21	C	0.178697	0.756634	0.000008
C22	C	0.678697	1.256634	0.500008
C23	C	0.176479	0.672601	0.000007
C24	C	0.676479	1.172601	0.500007
C25	C	0.175427	0.633119	0.072275
C26	C	0.675427	1.133119	0.572275
C27	C	0.173323	0.554163	0.072276
C28	C	0.673323	1.054163	0.572276
C29	C	0.172280	0.514690	0.000008
C30	C	0.672280	1.014690	0.500008
C31	C	0.173328	0.554178	-0.072266
C32	C	0.673328	1.054178	0.427734
C33	C	0.175423	0.633134	-0.072266
C34	C	0.675423	1.133134	0.427734
C35	C	0.164877	0.235761	-0.072267
C36	C	0.664877	0.735761	0.427733
C37	C	0.162785	0.156800	-0.072262
C38	C	0.662785	0.656800	0.427738
C39	C	0.162777	0.156791	0.072275
C40	C	0.662777	0.656791	0.572275
C41	C	0.164872	0.235746	0.072275
C42	C	0.664872	0.735746	0.572275
C43	C	0.165913	0.275228	0.000002
C44	C	0.665913	0.775228	0.500002
C45	C	0.168192	0.360841	0.000001
C46	C	0.668192	0.860841	0.500001
C47	C	0.170009	0.429078	0.000007
C48	C	0.670009	0.929078	0.500007
C49	C	-0.060511	0.899279	0.000013
C50	C	0.439489	1.399279	0.500013
C51	C	-0.199916	0.897055	0.000010
C52	C	0.300084	1.397055	0.500010
C53	C	-0.280591	0.964875	0.000014
C54	C	0.219409	1.464875	0.500014
C55	C	-0.411575	0.962780	0.000008
C56	C	0.088425	1.462780	0.500008
C57	C	-0.381196	0.825038	-0.000001
C58	C	0.118804	1.325038	0.499999
C59	C	-0.250214	0.827134	-0.000001
C60	C	0.249786	1.327134	0.499999
C61	C	-0.230292	1.034796	0.000025
C62	C	0.269708	1.534796	0.500025
C63	C	-0.310969	1.102623	0.000030
C64	C	0.189031	1.602623	0.500030
C65	C	-0.441953	1.100527	0.000024
C66	C	0.058047	1.600527	0.500024
C67	C	-0.492261	1.030606	0.000014
C68	C	0.007739	1.530606	0.500014
C69	C	0.398715	0.890639	0.000007
C70	C	0.898715	1.390639	0.500007
C71	C	0.538119	0.892864	0.000005
C72	C	1.038119	1.392864	0.500005
C73	C	0.159506	1.033285	0.000011
C74	C	0.659506	1.533285	0.500011
C75	C	0.161724	1.117317	0.000008
C76	C	0.661724	1.617317	0.500008
N77	N	0.169082	0.894941	0.206560
N78	N	0.669082	1.394941	0.706560
N79	N	0.169111	0.894984	-0.206538
N80	N	0.669111	1.394984	0.293462
C81	C	0.083585	0.945962	0.248279
C82	C	0.583585	1.445962	0.748279
C83	C	0.083584	0.945966	0.331731
C84	C	0.583584	1.445966	0.831731
C85	C	0.169087	0.894952	0.373463
C86	C	0.669087	1.394952	0.873463
C87	C	0.254589	0.843926	0.331737
C88	C	0.754589	1.343926	0.831737
C89	C	0.254583	0.843918	0.248287
C90	C	0.754583	1.343918	0.748287
C91	C	0.254613	0.843953	0.668285
C92	C	0.754613	1.343953	1.168285
C93	C	0.254615	0.843966	0.751741
C94	C	0.754615	1.343966	1.251741
C95	C	0.083615	0.946001	0.751729
C96	C	0.583615	1.446001	1.251729
C97	C	0.083609	0.945993	0.668278
C98	C	0.583609	1.445993	1.168278
C99	C	0.169105	0.894964	0.626561
C100	C	0.669105	1.394964	1.126561
C101	C	0.169104	0.894960	0.536072
C102	C	0.669104	1.394960	1.036072
C103	C	0.169096	0.894960	0.463949
C104	C	0.669096	1.394960	0.963949
H105	H	0.165720	0.267898	-0.131117
H106	H	0.665720	0.767898	0.368883
H107	H	0.176281	0.665279	-0.131114
H108	H	0.676281	1.165279	0.368886
Br109	Br	-0.449471	0.730151	-0.000015
Br110	Br	0.050529	1.230151	0.499985
Br111	Br	0.370623	0.774685	0.388370
Br112	Br	0.870623	1.274685	0.888370
H113	H	-0.270000	1.159550	0.000018
H114	H	0.230000	1.659550	0.500018
H115	H	0.324230	0.802405	0.634325
H116	H	0.824230	1.302405	1.134325
H117	H	0.324202	0.802371	0.214320
H118	H	0.824202	1.302371	0.714320
H119	H	-0.123640	1.036510	0.000032
H120	H	0.376360	1.536510	0.500032
H121	H	0.172469	0.522034	-0.131108
H122	H	0.672469	1.022034	0.368892
H123	H	-0.507637	1.155755	0.000019
H124	H	-0.007637	1.655755	0.500019
Br125	Br	-0.032454	1.015207	0.388353
Br126	Br	0.467546	1.515207	0.888353
H127	H	-0.598918	1.028906	0.000001
H128	H	-0.098918	1.528906	0.500001
Br129	Br	-0.140717	0.735090	-0.000010
Br130	Br	0.359283	1.235090	0.499990
H131	H	0.324245	0.802421	0.785718
H132	H	0.824245	1.302421	1.285718
H133	H	0.176287	0.665251	0.131125
H134	H	0.676287	1.165251	0.631125
Br135	Br	-0.032453	1.015204	0.191652
Br136	Br	0.467547	1.515204	0.691652
H137	H	0.013994	0.987549	0.785704
H138	H	0.513994	1.487549	1.285704
Br139	Br	0.171917	0.500580	0.170359
Br140	Br	0.671917	1.000580	0.670359
Br141	Br	0.166300	0.289311	0.170357
Br142	Br	0.666300	0.789311	0.670357
Br143	Br	-0.032428	1.015232	0.611645
Br144	Br	0.467572	1.515232	1.111645
H145	H	0.161934	0.124664	-0.131115
H146	H	0.661934	0.624664	0.368885
Br147	Br	0.161362	0.103204	0.170363
Br148	Br	0.661362	0.603204	0.670363
