data_functionalizedCrystal
_audit_creation_method	'MofGen! by Chris Wilmer'
_symmetry_space_group_name_H-M	'P1'
_symmetry_Int_Tables_number	1
_symmetry_cell_setting	triclinic
loop_
_symmetry_equiv_pos_as_xyz
  x,y,z
_cell_length_a	10.654550
_cell_length_b	14.971486
_cell_length_c	13.448316
_cell_angle_alpha	90.006811
_cell_angle_beta	90.010265
_cell_angle_gamma	84.049516
loop_
_atom_site_label
_atom_site_type_symbol
_atom_site_fract_x
_atom_site_fract_y
_atom_site_fract_z
O1	O	-1.666497	-0.125633	-0.082774
O2	O	-1.300890	-0.137602	-0.082758
O3	O	-1.493493	-0.001471	-0.082760
O4	O	-1.473895	-0.261765	-0.082773
O5	O	-1.493469	-0.001462	0.082624
O6	O	-1.300866	-0.137594	0.082626
O7	O	-1.666473	-0.125625	0.082610
Cu8	Cu	-1.483667	-0.131608	0.097718
Cu9	Cu	-1.483696	-0.131619	-0.097867
O10	O	-1.473870	-0.261756	0.082611
C11	C	-1.254090	-0.136719	-0.000064
C12	C	-1.114675	-0.134090	-0.000058
C13	C	-1.492605	0.031863	-0.000068
C14	C	-1.489978	0.131174	-0.000069
C15	C	-1.713274	-0.126508	-0.000087
C16	C	-1.852689	-0.129137	-0.000099
C17	C	-1.034329	-0.214242	-0.000077
C18	C	-0.903335	-0.211766	-0.000094
C19	C	-0.933045	-0.048979	-0.000078
C20	C	-1.064036	-0.051456	-0.000054
C21	C	-1.017175	-0.308226	-0.000090
C22	C	-0.886181	-0.305750	-0.000107
C23	C	-1.474759	-0.295090	-0.000083
C24	C	-1.477386	-0.394401	-0.000089
N25	N	-1.483656	-0.131601	0.235283
C26	C	-1.603127	0.187784	-0.000073
C27	C	-1.600651	0.281097	-0.000083
C28	C	-1.485026	0.317798	-0.000081
C29	C	-1.371868	0.261181	-0.000080
C30	C	-1.374345	0.167870	-0.000077
C31	C	-1.366714	0.455672	-0.000084
C32	C	-1.364237	0.548989	-0.000084
C33	C	-1.593020	0.568898	-0.000089
C34	C	-1.595497	0.475587	-0.000086
C35	C	-1.482339	0.418977	-0.000083
N36	N	-1.483717	-0.131619	-0.235431
C37	C	-1.568967	-0.071347	0.287323
C38	C	-1.568975	-0.071346	0.391426
C39	C	-1.483677	-0.131604	0.443487
C40	C	-1.398357	-0.191861	0.391440
C41	C	-1.398344	-0.191857	0.287339
C42	C	-1.398392	-0.191867	0.608420
C43	C	-1.398406	-0.191873	0.712529
C44	C	-1.569023	-0.071357	0.712507
C45	C	-1.569010	-0.071352	0.608406
C46	C	-1.483691	-0.131611	0.556366
H47	H	-1.129450	0.013812	-0.000024
H48	H	-1.638432	-0.022282	0.244941
Br49	Br	-1.760056	0.137984	-0.000060
H50	H	-1.692789	0.327185	-0.000084
H51	H	-1.328912	-0.240933	0.566053
H52	H	-1.689650	0.445708	-0.000080
H53	H	-0.844079	-0.341165	-0.069327
Br54	Br	-0.809520	-0.353082	0.118891
H55	H	-1.685158	0.614995	-0.000095
Br56	Br	-1.213141	0.378843	-0.000083
Br57	Br	-1.282552	-0.273628	0.216713
H58	H	-1.270084	0.578868	-0.000067
Br59	Br	-1.684751	0.010431	0.462055
H60	H	-0.891798	0.018299	-0.000089
Br61	Br	-1.220780	0.091041	-0.000080
H62	H	-1.638492	-0.022293	0.754884
Br63	Br	-1.282639	-0.273656	0.783176
Br64	Br	-1.282583	-0.273636	0.462091
Br65	Br	-1.065400	-0.369489	0.115263
Br66	Br	-1.076100	-0.358106	-0.119101
Br67	Br	-1.214945	0.310989	-0.000095
Br68	Br	-1.684782	0.010418	0.537747
