data_functionalizedCrystal
_audit_creation_method	'MofGen! by Chris Wilmer'
_symmetry_space_group_name_H-M	'P1'
_symmetry_Int_Tables_number	1
_symmetry_cell_setting	triclinic
loop_
_symmetry_equiv_pos_as_xyz
  x,y,z
_cell_length_a	11.792241
_cell_length_b	14.971486
_cell_length_c	13.448316
_cell_angle_alpha	90.001801
_cell_angle_beta	89.993264
_cell_angle_gamma	96.096228
loop_
_atom_site_label
_atom_site_type_symbol
_atom_site_fract_x
_atom_site_fract_y
_atom_site_fract_z
O1	O	0.147909	-1.187540	-0.082578
O2	O	0.165622	-0.927211	-0.082605
O3	O	-0.008446	-1.063693	-0.082584
O4	O	0.321977	-1.051058	-0.082599
O5	O	-0.008456	-1.063676	0.082800
O6	O	0.165611	-0.927194	0.082779
O7	O	0.147899	-1.187523	0.082806
Cu8	Cu	0.156754	-1.057357	0.097893
Cu9	Cu	0.156767	-1.057377	-0.097692
O10	O	0.321966	-1.051041	0.082785
C11	C	0.164824	-0.893874	0.000084
C12	C	0.162451	-0.794568	0.000073
C13	C	-0.050737	-1.062891	0.000108
C14	C	-0.176735	-1.060515	0.000107
C15	C	0.148696	-1.220859	0.000115
C16	C	0.151070	-1.320166	0.000119
C17	C	-0.407419	-1.056147	0.000089
C18	C	-0.279050	-1.058574	0.000099
C19	C	0.364257	-1.051843	0.000091
C20	C	0.490256	-1.054218	0.000086
N21	N	0.156744	-1.057349	0.235458
C22	C	0.264710	-0.737752	0.000070
C23	C	0.262473	-0.644444	0.000085
C24	C	0.157975	-0.607953	0.000096
C25	C	0.055707	-0.664776	0.000102
C26	C	0.057946	-0.758082	0.000095
C27	C	0.051049	-0.470294	0.000116
C28	C	0.048810	-0.376981	0.000122
C29	C	0.255577	-0.356656	0.000107
C30	C	0.257815	-0.449963	0.000099
C31	C	0.155547	-0.506779	0.000103
N32	N	0.156767	-1.057392	-0.235257
C33	C	0.079699	-1.117802	0.287507
C34	C	0.079698	-1.117808	0.391611
C35	C	0.156749	-1.057363	0.443662
C36	C	0.233798	-0.996904	0.391605
C37	C	0.233792	-0.996895	0.287504
C38	C	0.233805	-0.996929	0.608585
C39	C	0.233813	-0.996939	0.712694
C40	C	0.079711	-1.117842	0.712692
C41	C	0.079706	-1.117832	0.608591
C42	C	0.156756	-1.057374	0.556541
H43	H	0.349805	-0.767455	0.000060
O44	O	0.308764	-0.938168	0.558177
C45	C	0.376758	-0.884808	0.626439
H46	H	0.378117	-0.921489	0.700641
H47	H	0.467370	-0.871600	0.596350
H48	H	0.339770	-0.818186	0.637523
O49	O	-0.041360	-0.813312	0.000269
C50	C	-0.046244	-0.867911	0.085907
H51	H	0.011744	-0.834025	0.145773
H52	H	-0.137656	-0.877960	0.114664
H53	H	-0.016774	-0.935895	0.066536
H54	H	0.345744	-0.598187	0.000081
H55	H	0.342907	-0.479670	0.000080
O56	O	0.004709	-1.176505	0.442056
C57	C	-0.107684	-1.161424	0.416653
H58	H	-0.107623	-1.126935	0.341078
H59	H	-0.163421	-1.228393	0.413079
H60	H	-0.142890	-1.116752	0.475259
H61	H	0.338847	-0.310391	0.000108
H62	H	-0.036282	-0.347274	0.000133
H63	H	0.016960	-1.167026	0.245134
H64	H	0.016971	-1.167055	0.566210
H65	H	-0.032229	-0.516553	0.000121
O66	O	-0.045873	-0.629435	-0.000021
C67	C	-0.108200	-0.658401	-0.085685
H68	H	-0.077178	-0.723257	-0.114245
H69	H	-0.202700	-0.670891	-0.066418
H70	H	-0.095122	-0.604477	-0.145662
H71	H	0.016974	-1.167069	0.755077
O72	O	0.308492	-0.938183	0.763374
C73	C	0.247573	-0.882719	0.823591
H74	H	0.158838	-0.917929	0.839180
H75	H	0.294908	-0.868808	0.896797
H76	H	0.239714	-0.816571	0.783491
O77	O	0.308488	-0.938150	0.442277
C78	C	0.247589	-0.882672	0.502495
H79	H	0.158850	-0.917872	0.518096
H80	H	0.294936	-0.868760	0.575695
H81	H	0.239736	-0.816527	0.462389
O82	O	0.308747	-0.938139	0.237093
C83	C	0.376738	-0.884777	0.305356
H84	H	0.378104	-0.921460	0.379557
H85	H	0.467349	-0.871563	0.275264
H86	H	0.339743	-0.818159	0.316444
