data_functionalizedCrystal
_audit_creation_method	'MofGen! by Chris Wilmer'
_symmetry_space_group_name_H-M	'P1'
_symmetry_Int_Tables_number	1
_symmetry_cell_setting	triclinic
loop_
_symmetry_equiv_pos_as_xyz
  x,y,z
_cell_length_a	13.635800
_cell_length_b	19.361435
_cell_length_c	19.551833
_cell_angle_alpha	97.102001
_cell_angle_beta	78.336523
_cell_angle_gamma	81.486590
loop_
_atom_site_label
_atom_site_type_symbol
_atom_site_fract_x
_atom_site_fract_y
_atom_site_fract_z
V1	V	1.990897	-0.097421	-0.218268
O2	O	1.997617	0.003928	-0.213694
O3	O	1.954754	-0.192445	-0.217177
O4	O	1.962391	-0.096254	-0.313278
O5	O	1.989927	-0.092930	-0.116928
V6	V	2.234817	-0.085260	-0.206098
O7	O	2.116792	-0.124099	-0.244963
O8	O	2.334020	-0.058582	-0.179402
O9	O	2.159357	0.009764	-0.207188
O10	O	2.286795	-0.186609	-0.210671
O11	O	2.294486	-0.089751	-0.307437
O12	O	2.151719	-0.086428	-0.111087
V13	V	2.490897	-0.097421	-0.218268
O14	O	2.497617	0.003928	-0.213694
O15	O	2.454754	-0.192445	-0.217177
O16	O	2.462391	-0.096254	-0.313278
O17	O	2.489927	-0.092930	-0.116928
V18	V	2.734817	-0.085260	-0.206098
O19	O	2.616792	-0.124099	-0.244963
O20	O	2.834020	-0.058582	-0.179402
O21	O	2.659357	0.009764	-0.207188
O22	O	2.786795	-0.186609	-0.210671
O23	O	2.794486	-0.089751	-0.307437
O24	O	2.651719	-0.086428	-0.111087
C25	C	2.374488	-0.215600	-0.213838
C26	C	2.385551	-0.293285	-0.213580
C27	C	2.481199	-0.333342	-0.216965
C28	C	2.491610	-0.406338	-0.216733
C29	C	2.406372	-0.439274	-0.213111
C30	C	2.310717	-0.399212	-0.209728
C31	C	2.300308	-0.326219	-0.209965
C32	C	1.874488	-0.215600	-0.213838
C33	C	1.885551	-0.293285	-0.213580
C34	C	1.884230	-0.092897	-0.336423
C35	C	1.901486	-0.092571	-0.414097
C36	C	2.071293	0.032915	-0.210526
C37	C	2.049849	0.110599	-0.210788
C38	C	2.126705	0.150653	-0.207463
C39	C	2.106592	0.223632	-0.207800
C40	C	2.009624	0.256551	-0.211476
C41	C	1.932757	0.216489	-0.214798
C42	C	1.952869	0.143513	-0.214454
C43	C	1.927622	0.362823	-0.255856
C44	C	1.907515	0.435797	-0.256204
C45	C	1.947585	0.481634	-0.212534
C46	C	2.007784	0.454487	-0.168523
C47	C	2.027897	0.381511	-0.168179
C48	C	1.987805	0.335681	-0.211849
C49	C	2.002638	0.600820	-0.209572
C50	C	1.982519	0.673801	-0.209905
C51	C	1.808685	0.666655	-0.216910
C52	C	1.828803	0.593677	-0.216570
C53	C	1.925783	0.560763	-0.212905
C54	C	2.000038	-0.095926	-0.454159
C55	C	2.016252	-0.095619	-0.527142
C56	C	1.933910	-0.091972	-0.560063
C57	C	1.835343	-0.088613	-0.519992
C58	C	1.819131	-0.088912	-0.447009
C59	C	1.897733	-0.129970	-0.679535
C60	C	1.913950	-0.129675	-0.752517
C61	C	1.983910	-0.091046	-0.785166
C62	C	2.037671	-0.052721	-0.744826
C63	C	2.021458	-0.053021	-0.671843
C64	C	1.951480	-0.091647	-0.639200
C65	C	2.100050	-0.094068	-0.904364
C66	C	2.116260	-0.093757	-0.977348
C67	C	1.935349	-0.086758	-0.970197
C68	C	1.919141	-0.087062	-0.897214
C69	C	2.001496	-0.090720	-0.864302
C70	C	2.061552	-0.089787	-0.087939
C71	C	2.033916	-0.090109	-0.010264
C72	C	2.384230	-0.092897	-0.336423
C73	C	2.401486	-0.092571	-0.414097
C74	C	2.571293	0.032915	-0.210526
C75	C	2.549849	0.110599	-0.210788
C76	C	2.561552	-0.089787	-0.087939
C77	C	2.533916	-0.090109	-0.010264
C78	C	2.500046	-0.095914	-0.454150
C79	C	2.516272	-0.095598	-0.527132
C80	C	2.433937	-0.091945	-0.560061
C81	C	2.335369	-0.088599	-0.520003
C82	C	2.319143	-0.088910	-0.447021
C83	C	2.626695	0.150656	-0.207405
C84	C	2.606555	0.223651	-0.207641
C85	C	2.509570	0.256588	-0.211264
C86	C	2.432718	0.216526	-0.214645
C87	C	2.452857	0.143533	-0.214405
C88	C	2.434020	-0.093755	0.022647
C89	C	2.408036	-0.094049	0.095632
C90	C	2.481951	-0.090703	0.135703
C91	C	2.581855	-0.087055	0.102788
C92	C	2.607835	-0.086756	0.029806
H93	H	2.550614	-0.306534	-0.219910
Cl94	Cl	2.079145	0.724157	-0.205713
H95	H	1.766218	0.561064	-0.219279
H96	H	2.569504	-0.438946	-0.219486
Cl97	Cl	2.419475	-0.531039	-0.212812
H98	H	2.390277	0.110923	-0.217166
Cl99	Cl	2.058185	0.512101	-0.113631
Cl100	Cl	1.810852	0.257873	-0.219412
Cl101	Cl	2.733431	-0.082183	-0.011560
Cl102	Cl	2.103566	0.347385	-0.112852
Cl103	Cl	2.240166	-0.097974	-1.027712
Cl104	Cl	2.140157	-0.099833	-0.577515
H105	H	2.081603	0.574021	-0.206584
Cl106	Cl	1.846372	-0.177860	-0.803224
Cl107	Cl	2.603569	-0.100506	-0.412770
H108	H	2.169178	0.256251	-0.205088
Cl109	Cl	2.640193	-0.099810	-0.577478
H110	H	1.738875	-0.086175	-0.414390
Cl111	Cl	1.831845	0.469917	-0.311534
H112	H	2.241321	-0.426041	-0.206779
H113	H	1.840753	-0.161422	-0.652957
H114	H	1.868303	-0.083783	-0.997000
H115	H	1.838890	-0.084338	-0.864596
Cl116	Cl	2.341078	-0.097960	-0.027714
Cl117	Cl	1.856241	0.093156	-0.218633
H118	H	2.353752	0.243354	-0.217594
H119	H	2.065231	-0.021814	-0.639000
H120	H	2.222418	-0.293609	-0.207205
Cl121	Cl	2.282442	-0.098642	0.136994
H122	H	2.205671	0.123860	-0.204477
H123	H	1.729731	0.693457	-0.219901
Cl124	Cl	2.484269	0.348352	-0.211566
Cl125	Cl	1.877254	0.305205	-0.310771
Cl126	Cl	2.449274	-0.091084	0.227453
Cl127	Cl	2.703183	0.273999	-0.203392
Cl128	Cl	2.674769	-0.082858	0.153173
H129	H	2.067100	-0.098902	-0.427367
H130	H	2.094641	-0.021268	-0.771407
Cl131	Cl	2.203578	-0.098661	-0.862985
Cl132	Cl	2.454354	-0.091559	-0.651812
H133	H	1.768300	-0.085642	-0.546800
H134	H	2.268338	-0.085625	-0.546824
H135	H	2.238884	-0.086189	-0.414415
H136	H	2.705671	0.123849	-0.204456
