data_functionalizedCrystal
_audit_creation_method	'MofGen! by Chris Wilmer'
_symmetry_space_group_name_H-M	'P1'
_symmetry_Int_Tables_number	1
_symmetry_cell_setting	triclinic
loop_
_symmetry_equiv_pos_as_xyz
  x,y,z
_cell_length_a	27.440280
_cell_length_b	17.917603
_cell_length_c	27.440280
_cell_angle_alpha	57.010829
_cell_angle_beta	89.998875
_cell_angle_gamma	63.028294
loop_
_atom_site_label
_atom_site_type_symbol
_atom_site_fract_x
_atom_site_fract_y
_atom_site_fract_z
Zr1	Zr	0.493812	0.818564	-0.088301
O2	O	0.420622	0.974611	-0.170754
O3	O	0.513034	0.662532	-0.059810
O4	O	0.517660	0.818569	-0.166120
O5	O	0.416004	0.818565	0.015757
O6	O	0.597861	0.818557	-0.166122
O7	O	0.415996	0.818573	-0.064444
O8	O	0.589586	0.539434	0.024047
O9	O	0.424279	1.097687	-0.174412
O10	O	0.584969	0.726696	-0.051545
O11	O	0.525121	0.726699	0.008310
O12	O	0.530568	0.910413	-0.116856
O13	O	0.470720	0.910415	-0.057001
Zr14	Zr	0.621737	0.818531	0.039606
Zr15	Zr	0.621724	0.818545	-0.088305
Zr16	Zr	0.493824	0.818551	0.039610
Zr17	Zr	0.499644	1.014857	-0.094135
Zr18	Zr	0.615904	0.622239	0.045440
O19	O	0.602515	0.974564	0.011114
O20	O	0.602497	0.974584	-0.170759
O21	O	0.420640	0.974591	0.011120
O22	O	0.694926	0.662485	0.122058
O23	O	0.694908	0.662504	-0.059815
O24	O	0.513051	0.662512	0.122064
O25	O	0.699544	0.818531	-0.064453
O26	O	0.597889	0.818527	0.117424
O27	O	0.517687	0.818539	0.117427
O28	O	0.699552	0.818522	0.015748
O29	O	0.525952	1.097672	-0.174415
O30	O	0.589596	0.539423	0.125720
O31	O	0.691269	0.539408	0.125716
O32	O	0.691259	0.539419	0.024044
O33	O	0.424289	1.097677	-0.072739
O34	O	0.525962	1.097661	-0.072742
O35	O	0.584981	0.726683	0.068161
O36	O	0.644828	0.726681	0.008306
O37	O	0.590427	0.910397	-0.057005
O38	O	0.530579	0.910400	0.002850
C39	C	0.550479	0.573015	-0.017050
C40	C	0.548003	0.489684	-0.014573
C41	C	0.543479	0.337115	-0.010051
C42	C	0.572068	0.299976	-0.038643
C43	C	0.569551	0.215082	-0.036127
C44	C	0.545995	0.422017	-0.012566
C45	C	0.397775	0.818572	-0.024343
C46	C	0.343473	0.818580	-0.024341
C47	C	0.006770	0.818529	-0.068531
C48	C	-0.044249	0.818522	-0.068531
O49	O	-0.070628	0.818486	-0.106094
N50	N	-0.069762	0.818519	-0.024349
C51	C	-0.044252	0.818513	0.019841
O52	O	-0.070637	0.818509	0.057422
C53	C	0.006768	0.818513	0.019843
C54	C	0.032276	0.818526	-0.024346
C55	C	0.032278	0.818541	-0.112717
C56	C	0.083292	0.818551	-0.112717
C57	C	0.108798	0.818548	-0.068532
C58	C	0.083290	0.818536	-0.024347
C59	C	0.032280	0.818499	0.064035
C60	C	0.083303	0.818498	0.064034
C61	C	0.108810	0.818512	0.019844
C62	C	0.159810	0.818542	0.019838
N63	N	0.185323	0.818545	-0.024345
C64	C	0.159817	0.818548	-0.068530
C65	C	-0.151395	0.818511	0.019833
C66	C	-0.202416	0.818519	0.019829
C67	C	-0.202409	0.818525	-0.068543
C68	C	-0.151390	0.818525	-0.068541
C69	C	-0.125882	0.818514	-0.024349
C70	C	0.266950	0.818569	-0.068528
C71	C	0.317967	0.818583	-0.068526
C72	C	0.317957	0.818570	0.019848
C73	C	0.266943	0.818562	0.019844
C74	C	0.241441	0.818558	-0.024346
O75	O	0.186223	0.818574	0.057383
O76	O	0.186213	0.818538	-0.106100
C77	C	0.717773	0.818524	-0.024353
C78	C	0.772075	0.818516	-0.024354
C79	C	0.557759	0.818565	-0.184346
C80	C	0.557753	0.818571	-0.238647
C81	C	0.565069	1.064080	-0.031645
C82	C	0.567545	1.147412	-0.034122
C83	C	0.513587	0.818540	-0.473332
C84	C	0.513584	0.818542	-0.422313
O85	O	0.476018	0.818512	-0.395910
N86	N	0.557766	0.818543	-0.396801
C87	C	0.601956	0.818531	-0.422308
O88	O	0.639537	0.818532	-0.395923
C89	C	0.601961	0.818522	-0.473324
C90	C	0.557773	0.818531	-0.498837
C91	C	0.469403	0.818548	-0.498844
C92	C	0.469405	0.818548	-0.549861
C93	C	0.513592	0.818539	-0.575366
C94	C	0.557775	0.818531	-0.549853
C95	C	0.646153	0.818502	-0.498827
C96	C	0.646154	0.818492	-0.549846
C97	C	0.601966	0.818501	-0.575359
C98	C	0.601964	0.818522	-0.626375
N99	N	0.557782	0.818521	-0.651886
C100	C	0.513596	0.818529	-0.626382
C101	C	0.601944	0.818550	-0.315170
C102	C	0.601938	0.818568	-0.264158
C103	C	0.513566	0.818576	-0.264166
C104	C	0.513571	0.818567	-0.315182
C105	C	0.557763	0.818549	-0.340682
C106	C	0.513604	0.818529	-0.733521
C107	C	0.513609	0.818533	-0.784543
C108	C	0.601982	0.818519	-0.784530
C109	C	0.601976	0.818521	-0.733513
C110	C	0.557784	0.818522	-0.708009
O111	O	0.639512	0.818547	-0.652808
O112	O	0.476026	0.818515	-0.652767
C113	C	0.557790	0.818531	0.135650
C114	C	0.557795	0.818525	0.189952
C115	C	0.710478	0.572992	-0.017055
C116	C	0.762304	0.489652	-0.014580
C117	C	0.550494	0.572998	0.142948
C118	C	0.548024	0.489661	0.199726
C119	C	0.710493	0.572974	0.142943
C120	C	0.762325	0.489629	0.199719
C121	C	0.405055	1.064121	-0.191638
C122	C	0.353224	1.147467	-0.248415
C123	C	0.405071	1.064104	-0.031640
C124	C	0.353244	1.147444	-0.034115
C125	C	0.565054	1.064097	-0.191643
C126	C	0.567525	1.147435	-0.248422
C127	C	0.755396	0.450523	-0.044665
C128	C	0.804088	0.372227	-0.042352
C129	C	0.859686	0.333057	-0.009950
C130	C	0.866593	0.372194	0.020136
C131	C	0.817902	0.450493	0.017819
C132	C	0.578109	0.450517	0.257637
C133	C	0.575786	0.372224	0.310991
C134	C	0.543380	0.333071	0.306433
C135	C	0.513291	0.372222	0.248516
C136	C	0.515611	0.450519	0.195163
C137	C	0.817911	0.450488	0.195139
C138	C	0.866617	0.372187	0.248481
C139	C	0.859736	0.333023	0.306404
C140	C	0.804144	0.372172	0.310984
C141	C	0.755439	0.450477	0.257641
C142	C	0.297638	1.186618	-0.243834
C143	C	0.248932	1.264943	-0.297178
C144	C	0.255813	1.304111	-0.355101
C145	C	0.311405	1.264957	-0.359680
C146	C	0.360109	1.186638	-0.306337
C147	C	0.360153	1.186581	-0.004036
C148	C	0.311462	1.264898	-0.006364
C149	C	0.255863	1.304071	-0.038768
C150	C	0.248956	1.264931	-0.068851
C151	C	0.297646	1.186620	-0.066526
C152	C	0.599936	1.186563	-0.243844
C153	C	0.602269	1.264857	-0.297188
C154	C	0.572187	1.304026	-0.355110
C155	C	0.539774	1.264890	-0.359686
C156	C	0.537445	1.186593	-0.306342
H157	H	0.598433	0.331940	-0.065012
O158	O	0.604983	0.334377	0.367209
C159	C	0.617602	0.374865	0.435021
C160	C	0.584501	0.417867	0.371331
H161	H	0.601046	0.442341	0.438379
H162	H	0.665844	0.338243	0.441490
H163	H	0.610393	0.312149	0.472367
H164	H	0.591662	0.480620	0.333947
H165	H	0.536271	0.454422	0.364915
H166	H	-0.130632	0.818510	0.055818
H167	H	-0.223185	0.818526	-0.104520
H168	H	0.491113	0.482380	0.148012
H169	H	0.433421	0.818552	-0.478082
O170	O	0.574407	1.380058	-0.406986
C171	C	0.543430	1.492508	-0.517831
C172	C	0.540876	1.406384	-0.459134
H173	H	0.516314	1.513835	-0.560008
H174	H	0.590275	1.461725	-0.516964
H175	H	0.525561	1.565784	-0.519973
H176	H	0.558717	1.333080	-0.456954
H177	H	0.494023	1.437252	-0.460025
O178	O	0.512134	0.298822	0.021528
C179	C	0.498183	0.210137	0.119578
C180	C	0.533714	0.253492	0.083878
H181	H	0.515609	0.173497	0.169992
H182	H	0.501774	0.147401	0.116075
H183	H	0.450829	0.277494	0.099081
H184	H	0.581081	0.186207	0.104350
H185	H	0.530074	0.316256	0.087379
O186	O	0.318206	1.302733	0.022967
C187	C	0.354858	1.262170	0.119578
C188	C	0.347244	1.219195	0.086438
H189	H	0.378346	1.194647	0.170897
H190	H	0.310526	1.324835	0.112406
H191	H	0.381376	1.298842	0.099949
H192	H	0.320748	1.182469	0.106046
H193	H	0.391596	1.156579	0.093607
O194	O	0.470757	0.818397	-0.809328
C195	C	0.446456	0.727222	-0.834489
C196	C	0.495040	0.727261	-0.806422
H197	H	0.466070	0.653536	-0.832138
H198	H	0.422451	0.800797	-0.884566
H199	H	0.414870	0.727276	-0.807501
H200	H	0.526664	0.727170	-0.833362
H201	H	0.519001	0.653693	-0.756340
H202	H	0.710129	0.482415	-0.071058
H203	H	0.433425	0.818551	-0.570629
O204	O	0.541213	0.256975	0.358326
C205	C	0.572159	0.144664	0.469168
C206	C	0.574668	0.230825	0.410449
H207	H	0.599193	0.123512	0.511324
H208	H	0.590086	0.071285	0.471409
H209	H	0.525297	0.175468	0.468238
H210	H	0.621514	0.200121	0.411339
H211	H	0.556707	0.304188	0.408230
O212	O	0.797440	0.334029	-0.071480
C213	C	0.814189	0.181203	-0.061205
C214	C	0.821771	0.224317	-0.028145
H215	H	0.833845	0.092500	-0.026182
H216	H	0.836981	0.196523	-0.097138
H217	H	0.766084	0.222695	-0.084771
H218	H	0.869861	0.182853	-0.004543
H219	H	0.798941	0.209012	0.007755
O220	O	0.208628	1.380104	-0.040936
C221	C	0.173066	1.492490	-0.010002
C222	C	0.226605	1.406371	-0.007490
H223	H	0.187582	1.513769	0.017024
H224	H	0.144448	1.461727	0.011021
H225	H	0.147530	1.565791	-0.059955
H226	H	0.252186	1.333041	0.042445
H227	H	0.255182	1.437219	-0.028550
H228	H	0.515282	1.296794	-0.406853
O229	O	0.505905	1.148746	-0.310905
C230	C	0.444184	1.157034	-0.378538
C231	C	0.479872	1.200000	-0.373454
H232	H	0.423137	1.198439	-0.429104
H233	H	0.409124	1.172483	-0.356716
H234	H	0.473910	1.068304	-0.353549
H235	H	0.450192	1.288736	-0.398446
H236	H	0.514938	1.184470	-0.395258
H237	H	0.899329	0.269300	-0.008067
H238	H	0.823524	0.482363	0.147980
O239	O	0.689125	0.818289	-0.574574
C240	C	0.767383	0.727161	-0.599797
C241	C	0.718752	0.727244	-0.571764
H242	H	0.791342	0.653571	-0.597547
H243	H	0.799002	0.727087	-0.572795
H244	H	0.747778	0.800819	-0.649849
H245	H	0.738305	0.653600	-0.521716
H246	H	0.687140	0.727373	-0.598812
O247	O	0.797386	0.334110	0.367219
C248	C	0.757021	0.245618	0.438899
C249	C	0.764618	0.288702	0.375190
H250	H	0.730538	0.208876	0.445370
H251	H	0.733552	0.313045	0.442292
H252	H	0.801389	0.182967	0.476222
H253	H	0.720275	0.351336	0.337830
H254	H	0.788115	0.221218	0.371850
O255	O	0.481871	0.334018	0.244205
C256	C	0.450609	0.213385	0.298726
C257	C	0.486215	0.256557	0.303695
H258	H	0.454099	0.150766	0.346817
H259	H	0.468046	0.176641	0.274419
H260	H	0.403285	0.280852	0.271255
H261	H	0.533545	0.189148	0.331177
H262	H	0.468730	0.293332	0.327978
H263	H	0.477590	0.818574	-0.335951
H264	H	0.405368	1.154762	-0.310074
O265	O	0.342684	0.818546	-0.111479
C266	C	0.337279	0.818615	-0.199154
C267	C	0.309236	0.818634	-0.150539
H268	H	0.310241	0.818709	-0.230754
H269	H	0.382962	0.744976	-0.175218
H270	H	0.339375	0.892227	-0.227506
H271	H	0.307098	0.745072	-0.122171
H272	H	0.263569	0.892322	-0.174512
O273	O	0.920644	0.333985	0.051608
C274	C	1.023354	0.213362	0.082844
C275	C	0.962175	0.256532	0.047187
H276	H	1.056949	0.150750	0.079271
H277	H	1.027689	0.176611	0.133280
H278	H	1.030716	0.280832	0.062340
H279	H	0.954772	0.189120	0.067639
H280	H	0.957869	0.293314	-0.003246
H281	H	0.246193	0.818564	-0.104511
O282	O	0.290844	1.148738	-0.187621
C283	C	0.223725	1.157000	-0.131274
C284	C	0.231343	1.199992	-0.194971
H285	H	0.175620	1.198405	-0.137194
H286	H	0.246478	1.172428	-0.106279
H287	H	0.243441	1.068273	-0.103188
H288	H	0.211623	1.288725	-0.223107
H289	H	0.208603	1.184483	-0.219918
O290	O	0.414189	1.148560	0.027355
C291	C	0.507334	1.124657	0.022326
C292	C	0.446165	1.167726	-0.013293
H293	H	0.533199	1.140156	-0.010525
H294	H	0.530191	1.035921	0.060434
H295	H	0.503880	1.166076	0.043437
H296	H	0.449566	1.126387	-0.034443
H297	H	0.423330	1.256468	-0.051368
H298	H	0.203672	1.296809	-0.293437
H299	H	0.104058	0.818558	-0.148698
O300	O	0.007566	0.818595	-0.155703
C301	C	0.012988	0.818559	-0.243339
C302	C	0.041025	0.818512	-0.194693
H303	H	0.040033	0.818469	-0.274867
H304	H	-0.032692	0.892205	-0.271766
H305	H	0.010885	0.744954	-0.219365
H306	H	0.043169	0.892067	-0.218617
H307	H	0.086689	0.744817	-0.166269
H308	H	-0.130624	0.818536	-0.104523
O309	O	-0.227106	0.818471	0.062810
C310	C	-0.221733	0.818529	0.150439
C311	C	-0.193709	0.818566	0.101803
H312	H	-0.194751	0.818628	0.181969
H313	H	-0.223792	0.744882	0.178866
H314	H	-0.267432	0.892134	0.126456
H315	H	-0.147998	0.745011	0.125735
H316	H	-0.191695	0.892261	0.073379
O317	O	0.920571	0.334243	0.243916
C318	C	0.977384	0.342566	0.176280
C319	C	0.916250	0.385610	0.181364
H320	H	0.973911	0.384092	0.125710
H321	H	1.000213	0.253853	0.201205
H322	H	1.003291	0.357935	0.198168
H323	H	0.890296	0.370316	0.159470
H324	H	0.893466	0.474309	0.156456
H325	H	0.899400	0.269262	0.349834
H326	H	0.710180	0.482336	0.261380
O327	O	0.194903	1.303067	-0.100273
C328	C	0.092195	1.423761	-0.131558
C329	C	0.153376	1.380652	-0.095943
H330	H	0.058604	1.486512	-0.128080
H331	H	0.084772	1.356358	-0.111032
H332	H	0.087919	1.460379	-0.181970
H333	H	0.157695	1.344047	-0.045527
H334	H	0.160772	1.448094	-0.116518
H335	H	0.216150	1.367882	-0.398531
H336	H	0.292013	1.154757	-0.091019
O337	O	0.007602	0.818429	0.107025
C338	C	0.012994	0.818450	0.194667
C339	C	0.041006	0.818510	0.146019
H340	H	0.039982	0.818537	0.226198
H341	H	0.010936	0.744801	0.223089
H342	H	-0.032706	0.892052	0.170694
H343	H	0.086717	0.744958	0.169942
H344	H	0.043019	0.892208	0.117600
H345	H	0.104070	0.818486	0.100021
H346	H	0.317001	1.296857	-0.406847
O347	O	0.470617	0.818584	-0.708845
C348	C	0.382979	0.818549	-0.714235
C349	C	0.431620	0.818502	-0.742246
H350	H	0.351444	0.818460	-0.741219
H351	H	0.358926	0.892196	-0.716547
H352	H	0.402584	0.744944	-0.664166
H353	H	0.412063	0.892057	-0.792323
H354	H	0.455667	0.744807	-0.739885
O355	O	0.629217	1.148604	-0.187630
C356	C	0.691430	1.156890	-0.131288
C357	C	0.658303	1.199952	-0.194985
H358	H	0.714944	1.198402	-0.137214
H359	H	0.724310	1.068176	-0.103194
H360	H	0.659520	1.172263	-0.106298
H361	H	0.690168	1.184654	-0.220026
H362	H	0.625414	1.288653	-0.223034
H363	H	0.823535	0.482342	0.042321
H364	H	0.604498	0.482387	0.261360
O365	O	0.633744	1.302955	-0.292843
C366	C	0.665002	1.423609	-0.347312
C367	C	0.629348	1.380540	-0.352322
H368	H	0.661450	1.486360	-0.395394
H369	H	0.712342	1.356185	-0.319892
H370	H	0.647575	1.460215	-0.322934
H371	H	0.646725	1.343946	-0.376713
H372	H	0.582013	1.448002	-0.379719
O373	O	0.242247	0.818516	0.062824
C374	C	0.247610	0.818580	0.150451
C375	C	0.275638	0.818618	0.101817
H376	H	0.274587	0.818685	0.181981
H377	H	0.245553	0.744930	0.178877
H378	H	0.201909	0.892181	0.126466
H379	H	0.321350	0.745067	0.125751
H380	H	0.277649	0.892317	0.073393
H381	H	0.338731	0.818573	0.055821
H382	H	0.477588	0.818581	-0.243390
H383	H	0.637930	0.818545	-0.335933
O384	O	0.644916	0.818524	-0.239441
C385	C	0.732549	0.818578	-0.244855
C386	C	0.683916	0.818611	-0.272899
H387	H	0.764087	0.818671	-0.271902
H388	H	0.756602	0.744936	-0.194801
H389	H	0.712937	0.892187	-0.247126
H390	H	0.703481	0.745052	-0.270672
H391	H	0.659870	0.892302	-0.322940
O392	O	0.689138	0.818438	-0.474108
C393	C	0.776780	0.818461	-0.479519
C394	C	0.728138	0.818512	-0.507565
H395	H	0.808318	0.818543	-0.506564
H396	H	0.800829	0.744817	-0.429465
H397	H	0.757176	0.892068	-0.481789
H398	H	0.747695	0.744955	-0.505339
H399	H	0.704095	0.892205	-0.557605
H400	H	0.637957	0.818517	-0.805305
O401	O	0.644953	0.818475	-0.708790
C402	C	0.732588	0.818526	-0.714195
C403	C	0.683954	0.818567	-0.742245
H404	H	0.764126	0.818623	-0.741239
H405	H	0.756639	0.744879	-0.664142
H406	H	0.712975	0.892130	-0.716460
H407	H	0.703520	0.745013	-0.740024
H408	H	0.659910	0.892263	-0.792285
