data_functionalizedCrystal
_audit_creation_method	'MofGen! by Chris Wilmer'
_symmetry_space_group_name_H-M	'P1'
_symmetry_Int_Tables_number	1
_symmetry_cell_setting	triclinic
loop_
_symmetry_equiv_pos_as_xyz
  x,y,z
_cell_length_a	12.827893
_cell_length_b	18.101395
_cell_length_c	12.827885
_cell_angle_alpha	90.035219
_cell_angle_beta	90.019272
_cell_angle_gamma	90.031922
loop_
_atom_site_label
_atom_site_type_symbol
_atom_site_fract_x
_atom_site_fract_y
_atom_site_fract_z
Zn1	Zn	1.597549	-0.294794	0.590809
Zn2	Zn	1.597393	-0.418654	0.416053
Zn3	Zn	1.422791	-0.294830	0.416083
Zn4	Zn	1.422726	-0.418599	0.590753
O5	O	1.510115	-0.356719	0.503424
O6	O	1.743765	-0.311233	0.567638
O7	O	1.574193	-0.402266	0.269821
O8	O	1.446066	-0.191193	0.439297
O9	O	1.743650	-0.402231	0.439246
O10	O	1.574460	-0.191166	0.567667
O11	O	1.445914	-0.311294	0.269843
O12	O	1.276546	-0.311241	0.439242
O13	O	1.445954	-0.402137	0.736996
O14	O	1.276498	-0.402172	0.567571
O15	O	1.574397	-0.311179	0.737038
O16	O	1.574130	-0.522279	0.439191
O17	O	1.445803	-0.522239	0.567542
C18	C	1.238605	-0.356705	0.503405
C19	C	1.122452	-0.356717	0.503421
C20	C	1.070671	-0.401783	0.566824
C21	C	0.950620	-0.401796	0.566843
C22	C	1.509971	-0.549130	0.503380
C23	C	1.510005	-0.631444	0.503396
C24	C	1.510125	-0.782152	0.503438
C25	C	1.429343	-0.813512	0.584131
C26	C	1.429648	-0.899130	0.584471
C27	C	1.510241	-0.930535	0.503479
C28	C	1.620414	-0.899350	0.533102
C29	C	1.619879	-0.813705	0.533664
C30	C	1.481722	-0.813797	0.392928
C31	C	1.479359	-0.899449	0.393540
C32	C	1.510314	-1.014394	0.503500
C33	C	1.510060	-0.698293	0.503419
C34	C	1.782685	-0.356734	0.503445
C35	C	1.898838	-0.356740	0.503454
C36	C	1.510186	-0.356648	0.775995
C37	C	1.510216	-0.356618	0.892148
C38	C	1.510288	-0.163557	0.503492
C39	C	1.510361	-0.081243	0.503520
C40	C	1.510104	-0.356737	0.231915
C41	C	1.510276	-0.356558	0.115762
C42	C	1.573780	-0.311600	0.943953
C43	C	1.573813	-0.311568	1.064004
H44	H	1.347963	-0.920219	0.565956
C45	C	1.704004	-0.785670	0.457720
N46	N	1.767376	-0.764557	0.400530
C47	C	1.130844	-0.453897	0.640139
N48	N	1.176166	-0.493153	0.695360
H49	H	1.347367	-0.792993	0.565823
H50	H	1.455814	-0.395130	0.936672
C51	C	1.652350	-0.786635	0.642789
N52	N	1.676805	-0.766251	0.724985
C53	C	0.958986	-0.304610	0.430118
N54	N	1.004298	-0.265344	0.374884
H55	H	1.077906	-0.318141	0.449157
C56	C	1.553099	-0.928301	0.308021
N57	N	1.608661	-0.950019	0.243613
C58	C	0.890465	-0.453922	0.640178
N59	N	0.845153	-0.493184	0.695418
C60	C	1.647266	-0.259560	0.883808
N61	N	1.702618	-0.220362	0.838507
H62	H	1.447939	-0.791936	0.665550
C63	C	1.436751	-0.408630	1.055585
N64	N	1.381370	-0.447849	1.010252
H65	H	1.448539	-0.919562	0.666358
H66	H	1.682279	-0.919686	0.476148
C67	C	1.561202	-0.786393	0.311709
N68	N	1.621068	-0.765747	0.250544
C69	C	1.374984	-0.784723	0.356423
N70	N	1.294584	-0.762824	0.328939
C71	C	1.653498	-0.928241	0.641045
N72	N	1.678411	-0.950000	0.722352
H73	H	1.398280	-0.919842	0.371195
C74	C	1.647332	-0.259496	1.124187
N75	N	1.702706	-0.220272	1.169520
