data_functionalizedCrystal
_audit_creation_method	'MofGen! by Chris Wilmer'
_symmetry_space_group_name_H-M	'P1'
_symmetry_Int_Tables_number	1
_symmetry_cell_setting	triclinic
loop_
_symmetry_equiv_pos_as_xyz
  x,y,z
_cell_length_a	19.288840
_cell_length_b	13.185407
_cell_length_c	17.766277
_cell_angle_alpha	89.992547
_cell_angle_beta	89.983415
_cell_angle_gamma	67.549750
loop_
_atom_site_label
_atom_site_type_symbol
_atom_site_fract_x
_atom_site_fract_y
_atom_site_fract_z
O1	O	0.896205	0.136038	-0.062715
O2	O	0.690540	0.154435	-0.062688
O3	O	0.828609	-0.013690	-0.062703
O4	O	0.758136	0.304163	-0.062699
O5	O	0.828592	-0.013699	0.062485
O6	O	0.690522	0.154427	0.062501
O7	O	0.896188	0.136029	0.062474
Cu8	Cu	0.793354	0.145227	0.073918
Cu9	Cu	0.793374	0.145237	-0.074132
O10	O	0.758119	0.304155	0.062489
C11	C	0.664763	0.153844	-0.000090
C12	C	0.587985	0.152080	-0.000080
C13	C	0.551947	0.151238	-0.068322
C14	C	0.479809	0.149569	-0.068332
C15	C	0.443717	0.148720	-0.000095
C16	C	0.479761	0.149569	0.068156
C17	C	0.551895	0.151249	0.068164
C18	C	0.346698	0.082120	0.052173
C19	C	0.274568	0.080434	0.052163
C20	C	0.221230	0.143544	-0.000115
C21	C	0.240037	0.208327	-0.052394
C22	C	0.312171	0.210007	-0.052387
C23	C	0.365499	0.146900	-0.000095
C24	C	0.106972	0.140893	-0.068371
C25	C	0.034831	0.139231	-0.068378
C26	C	0.034788	0.139220	0.068112
C27	C	0.106925	0.140894	0.068117
C28	C	0.143014	0.141725	-0.000127
C29	C	0.835745	-0.054359	-0.000111
C30	C	0.857025	-0.175527	-0.000116
C31	C	0.653936	-0.463755	-0.000097
C32	C	0.633940	-0.349912	-0.000099
C33	C	0.689709	-0.306310	-0.000103
C34	C	0.765478	-0.376563	-0.000105
C35	C	0.785476	-0.490418	-0.000109
C36	C	0.821250	-0.332972	-0.000115
C37	C	0.897018	-0.403225	-0.000118
C38	C	0.917013	-0.517069	-0.000121
C39	C	0.861243	-0.560671	-0.000117
C40	C	0.801252	-0.219117	-0.000112
C41	C	0.932792	-0.245780	-0.000124
C42	C	0.952788	-0.359623	-0.000122
C43	C	0.921965	0.136621	-0.000125
C44	C	0.998743	0.138384	-0.000140
C45	C	0.750983	0.344824	-0.000105
C46	C	0.729703	0.465992	-0.000104
N47	N	0.793345	0.145220	0.178048
N48	N	0.793390	0.145237	-0.178262
C49	C	0.854490	0.070810	0.217428
C50	C	0.854495	0.070805	0.296230
C51	C	0.793358	0.145228	0.335649
C52	C	0.732202	0.219644	0.296259
C53	C	0.732196	0.219639	0.217459
C54	C	0.765665	0.244686	0.460489
C55	C	0.765676	0.244692	0.539288
C56	C	0.793374	0.145241	0.578695
C57	C	0.821076	0.045781	0.539294
C58	C	0.821069	0.045777	0.460494
C59	C	0.793358	0.145241	0.421095
C60	C	0.854528	0.070820	0.703521
C61	C	0.854529	0.070814	0.782324
C62	C	0.732237	0.219662	0.782352
C63	C	0.732235	0.219659	0.703550
C64	C	0.793384	0.145239	0.664140
H65	H	0.327479	0.262758	-0.094953
C66	C	0.664985	0.301528	0.660226
H67	H	0.673736	0.290865	0.607651
H68	H	0.658921	0.374344	0.673136
H69	H	0.620807	0.289869	0.673157
C70	C	0.921780	-0.011048	0.660163
H71	H	0.913023	-0.000385	0.607592
H72	H	0.927849	-0.083865	0.673084
H73	H	0.965958	0.000616	0.673057
C74	C	0.146674	0.141818	-0.143433
H75	H	0.194800	0.142923	-0.133655
H76	H	0.117664	0.205185	-0.171474
H77	H	0.152061	0.077897	-0.171473
H78	H	0.005488	0.138552	-0.123951
C79	C	0.664940	0.301502	0.174135
H80	H	0.673692	0.290840	0.121560
H81	H	0.658870	0.374321	0.187045
H82	H	0.620763	0.289837	0.187065
H83	H	0.904320	0.010215	0.814388
C84	C	-0.004903	0.138292	0.143174
H85	H	0.026893	0.139039	0.183819
H86	H	-0.015846	0.074000	0.146009
H87	H	-0.050244	0.201288	0.146006
C88	C	0.405366	0.012698	0.109681
H89	H	0.451017	0.022984	0.102203
H90	H	0.413825	-0.062603	0.103098
H91	H	0.387450	0.034905	0.159223
C92	C	0.921759	-0.011047	0.339558
H93	H	0.958176	-0.055364	0.304800
H94	H	0.905255	-0.056381	0.370313
H95	H	0.943351	0.028117	0.370280
C96	C	1.000355	-0.594344	-0.000126
H97	H	1.030706	-0.552075	-0.000121
H98	H	1.010899	-0.639309	-0.043783
H99	H	1.010879	-0.639312	0.043535
C100	C	0.921761	-0.011019	0.174077
H101	H	0.913009	-0.000351	0.121506
H102	H	0.927863	-0.083853	0.186989
H103	H	0.965920	0.000692	0.186984
C104	C	0.550603	-0.272638	-0.000100
H105	H	0.546681	-0.198590	-0.000108
H106	H	0.526843	-0.285817	0.043555
H107	H	0.526872	-0.285821	-0.043762
H108	H	0.673424	-0.213612	-0.000104
H109	H	0.450370	0.148881	0.123715
C110	C	0.735210	0.354091	0.582621
H111	H	0.718702	0.413319	0.547868
H112	H	0.773797	0.359990	0.613342
H113	H	0.694323	0.356466	0.613380
H114	H	0.196609	0.259722	-0.094961
C115	C	0.664987	0.301526	0.825703
H116	H	0.673749	0.290876	0.878274
H117	H	0.620812	0.289865	0.812808
H118	H	0.658919	0.374349	0.812781
H119	H	0.259264	0.027678	0.094728
H120	H	0.450461	0.148885	-0.123904
H121	H	0.608537	-0.499268	-0.000099
C122	C	0.717914	-0.141848	-0.000107
H123	H	0.713988	-0.067798	-0.000112
H124	H	0.694159	-0.155035	0.043550
H125	H	0.694180	-0.155029	-0.043768
H126	H	0.877520	-0.653371	-0.000106
C127	C	0.591543	0.152158	0.143233
H128	H	0.559721	0.151407	0.183873
H129	H	0.602488	0.216447	0.146078
H130	H	0.636880	0.089159	0.146066
H131	H	0.136269	0.141572	0.123687
C132	C	1.036129	-0.436903	-0.000130
H133	H	1.066483	-0.394638	-0.000127
H134	H	1.046670	-0.481868	-0.043786
H135	H	1.046653	-0.481871	0.043532
C136	C	0.851550	-0.063623	0.582628
H137	H	0.868052	-0.122853	0.547877
H138	H	0.812971	-0.069523	0.613386
H139	H	0.892443	-0.065991	0.613350
H140	H	0.978204	-0.210280	-0.000166
C141	C	0.735192	0.354085	0.417144
H142	H	0.739147	0.339839	0.364571
H143	H	0.763545	0.396712	0.430038
H144	H	0.684072	0.393186	0.430076
C145	C	0.591637	0.152168	-0.143388
H146	H	0.559836	0.151437	-0.184032
H147	H	0.636980	0.089187	-0.146225
H148	H	0.602570	0.216474	-0.146220
C149	C	0.664942	0.301489	0.339613
H150	H	0.628518	0.345795	0.304870
H151	H	0.681436	0.346837	0.370346
H152	H	0.643361	0.262314	0.370360
H153	H	0.843624	-0.035207	0.428417
