data_functionalizedCrystal
_audit_creation_method	'MofGen! by Chris Wilmer'
_symmetry_space_group_name_H-M	'P1'
_symmetry_Int_Tables_number	1
_symmetry_cell_setting	triclinic
loop_
_symmetry_equiv_pos_as_xyz
  x,y,z
_cell_length_a	19.288840
_cell_length_b	10.967829
_cell_length_c	17.766277
_cell_angle_alpha	77.870630
_cell_angle_beta	89.986186
_cell_angle_gamma	83.934359
loop_
_atom_site_label
_atom_site_type_symbol
_atom_site_fract_x
_atom_site_fract_y
_atom_site_fract_z
O1	O	0.922376	0.155502	-0.082889
O2	O	0.720250	0.176533	-0.085590
O3	O	0.825973	-0.015658	-0.060672
O4	O	0.816653	0.347692	-0.107807
O5	O	0.825958	-0.015651	0.064516
O6	O	0.720236	0.176539	0.039597
O7	O	0.922362	0.155509	0.042299
Cu8	Cu	0.821297	0.166025	0.052379
Cu9	Cu	0.821314	0.166017	-0.095670
O10	O	0.816639	0.347699	0.017381
C11	C	0.694362	0.175865	-0.022906
C12	C	0.617244	0.173849	-0.022635
C13	C	0.581042	0.172877	-0.090751
C14	C	0.508582	0.170969	-0.090512
C15	C	0.472330	0.170008	-0.022151
C16	C	0.508540	0.170987	0.045973
C17	C	0.580997	0.172908	0.045731
C18	C	0.362500	0.093882	0.039993
C19	C	0.290044	0.091954	0.040233
C20	C	0.248847	0.164090	-0.021403
C21	C	0.280116	0.238139	-0.083289
C22	C	0.352573	0.240060	-0.083531
C23	C	0.393762	0.167926	-0.021881
C24	C	0.134077	0.161051	-0.089265
C25	C	0.061615	0.159151	-0.089025
C26	C	0.061575	0.159157	0.047464
C27	C	0.134034	0.161070	0.047220
C28	C	0.170281	0.162011	-0.021146
C29	C	0.825286	-0.062140	0.007951
C30	C	0.823254	-0.200651	0.025915
C31	C	0.822356	-0.262402	-0.030928
C32	C	0.820255	-0.405560	-0.012362
C33	C	0.948250	0.156177	-0.020387
C34	C	1.025367	0.158192	-0.020663
C35	C	0.817325	0.394181	-0.051244
C36	C	0.819357	0.532693	-0.069213
N37	N	0.821291	0.166030	0.156508
N38	N	0.821326	0.166002	-0.199798
C39	C	0.863812	0.241470	0.751004
C40	C	0.863805	0.241482	0.672201
C41	C	0.821321	0.166003	0.642601
C42	C	0.778827	0.090529	0.691808
C43	C	0.778830	0.090529	0.770609
C44	C	0.818861	0.053502	0.532351
C45	C	0.818863	0.053500	0.453553
C46	C	0.821308	0.166005	0.399554
C47	C	0.823765	0.278515	0.424363
C48	C	0.823768	0.278515	0.503164
C49	C	0.821312	0.165995	0.557156
C50	C	0.863788	0.241494	0.264908
C51	C	0.863776	0.241508	0.186103
C52	C	0.778802	0.090544	0.205714
C53	C	0.778810	0.090541	0.284516
C54	C	0.821306	0.166014	0.314109
H55	H	0.264592	0.031653	0.090622
C56	C	0.826450	0.402285	0.364974
C57	C	0.829148	0.526036	0.392261
C58	C	0.831834	0.649800	0.332870
C59	C	0.831822	0.649814	0.246191
C60	C	0.829123	0.526059	0.218899
C61	C	0.826437	0.402294	0.278291
H62	H	0.829158	0.526030	0.456430
H63	H	0.833832	0.741412	0.353073
H64	H	0.833810	0.741432	0.202225
H65	H	0.829113	0.526065	0.154730
H66	H	0.824439	0.310682	0.258088
H67	H	0.825767	0.370124	0.523360
H68	H	0.823138	-0.209283	-0.093337
C69	C	0.620908	0.173926	-0.165955
C70	C	0.618339	0.065329	-0.208167
C71	C	0.658205	0.066382	-0.283374
C72	C	0.700640	0.176030	-0.316368
C73	C	0.703210	0.284635	-0.274156
C74	C	0.663344	0.283583	-0.198949
H75	H	0.586925	-0.015846	-0.183743
H76	H	0.656302	-0.014015	-0.314622
H77	H	0.730151	0.176809	-0.372040
H78	H	0.734624	0.365811	-0.298579
H79	H	0.665247	0.363980	-0.167701
H80	H	0.816863	-0.038119	0.576313
H81	H	0.163511	0.161853	0.102689
C82	C	0.407810	0.014521	0.107799
C83	C	0.464655	-0.087251	0.093598
C84	C	0.509963	-0.166608	0.161403
C85	C	0.498426	-0.144194	0.243408
C86	C	0.441579	-0.042418	0.257612
C87	C	0.396271	0.036939	0.189808
H88	H	0.473198	-0.103847	0.032890
H89	H	0.552045	-0.241949	0.150887
H90	H	0.531966	-0.202939	0.293601
H91	H	0.433036	-0.025822	0.318321
H92	H	0.354189	0.112281	0.200324
C93	C	0.820418	-0.395573	-0.153533
C94	C	0.881941	-0.320579	-0.181969
C95	C	0.883002	-0.248846	-0.266288
C96	C	0.822540	-0.252106	-0.322171
C97	C	0.761013	-0.327102	-0.293736
C98	C	0.759952	-0.398835	-0.209417
H99	H	0.926702	-0.318164	-0.140600
H100	H	0.928549	-0.193329	-0.287337
H101	H	0.823325	-0.199004	-0.384588
H102	H	0.716251	-0.329518	-0.335104
H103	H	0.714405	-0.454352	-0.188368
H104	H	0.822464	-0.253768	0.088324
C105	C	0.910550	0.324501	0.783554
C106	C	0.957280	0.407525	0.729429
C107	C	1.004016	0.490560	0.761981
C108	C	1.004022	0.490570	0.848657
C109	C	0.957290	0.407542	0.902786
C110	C	0.910554	0.324508	0.870235
H111	H	0.957277	0.407521	0.665262
H112	H	1.038610	0.552022	0.721910
H113	H	1.038619	0.552037	0.872753
H114	H	0.957293	0.407547	0.966954
H115	H	0.875960	0.263046	0.910306
H116	H	0.744234	0.029076	0.667703
C117	C	0.910544	0.324494	0.618070
C118	C	0.966825	0.264188	0.571702
C119	C	1.013565	0.347197	0.517574
C120	C	1.004025	0.490511	0.509813
C121	C	0.947742	0.550825	0.556182
C122	C	0.901002	0.467816	0.610311
H123	H	0.973889	0.158092	0.577446
H124	H	1.055229	0.302548	0.483248
H125	H	1.038625	0.551959	0.469744
H126	H	0.940678	0.656922	0.550439
H127	H	0.859338	0.512465	0.644636
C128	C	0.910525	0.324522	0.297466
C129	C	0.957252	0.407556	0.243343
C130	C	1.003989	0.490585	0.275897
C131	C	1.003999	0.490580	0.362575
C132	C	0.957271	0.407543	0.416704
C133	C	0.910534	0.324514	0.384149
H134	H	0.957246	0.407562	0.179174
H135	H	1.038581	0.552055	0.235827
H136	H	1.038597	0.552043	0.386674
H137	H	0.957277	0.407537	0.480872
H138	H	0.875942	0.263045	0.424219
H139	H	0.479101	0.170179	-0.145983
H140	H	0.610472	0.173700	0.101201
C141	C	0.910512	0.324535	0.131983
C142	C	0.990167	0.305748	0.145226
C143	C	1.036903	0.388777	0.091105
C144	C	1.003984	0.490593	0.023741
C145	C	0.924325	0.509384	0.010496
C146	C	0.877589	0.426355	0.064617
H147	H	1.014539	0.230374	0.195095
H148	H	1.095872	0.374867	0.100910
H149	H	1.038581	0.552056	-0.016322
H150	H	0.899953	0.584758	-0.039373
H151	H	0.818620	0.440266	0.054811
H152	H	0.744206	0.029094	0.181613
C153	C	0.732081	0.007510	0.338640
C154	C	0.685348	-0.075518	0.306087
C155	C	0.638616	-0.158550	0.360211
C156	C	0.638617	-0.158554	0.446889
C157	C	0.685352	-0.075522	0.479447
C158	C	0.732084	0.007509	0.425322
H159	H	0.685346	-0.075518	0.241919
H160	H	0.604019	-0.220015	0.336109
H161	H	0.604022	-0.220019	0.486955
H162	H	0.685354	-0.075522	0.543615
H163	H	0.766680	0.068974	0.449424
C164	C	0.732097	0.007501	0.824732
C165	C	0.685360	-0.075523	0.792180
C166	C	0.638629	-0.158554	0.846306
C167	C	0.638634	-0.158561	0.932984
C168	C	0.685372	-0.075534	0.965541
C169	C	0.732104	0.007497	0.911415
H170	H	0.685355	-0.075521	0.728012
H171	H	0.604030	-0.220016	0.822205
H172	H	0.604040	-0.220026	0.973051
H173	H	0.685377	-0.075536	1.029709
H174	H	0.766702	0.068959	0.935516
H175	H	0.816867	-0.038113	0.433360
H176	H	0.246574	0.296885	-0.133477
C177	C	0.386968	0.321519	-0.151596
C178	C	0.341663	0.400874	-0.219398
C179	C	0.376058	0.482340	-0.287462
C180	C	0.455758	0.484451	-0.287724
C181	C	0.501068	0.405093	-0.219920
C182	C	0.466673	0.323627	-0.151856
H183	H	0.282660	0.399315	-0.219206
H184	H	0.342516	0.541086	-0.337655
H185	H	0.481219	0.544757	-0.338109
H186	H	0.560071	0.406653	-0.220111
H187	H	0.500215	0.264881	-0.101663
H188	H	0.163589	0.161831	-0.144935
H189	H	0.032058	0.158382	0.103124
C190	C	0.021791	0.158087	-0.163960
C191	C	0.039149	0.050011	-0.206234
C192	C	-0.000676	0.048948	-0.281170
C193	C	-0.057858	0.155962	-0.313833
C194	C	-0.075218	0.264047	-0.271560
C195	C	-0.035393	0.265110	-0.196623
H196	H	0.081481	-0.029215	-0.182055
H197	H	0.012176	-0.031064	-0.312464
H198	H	-0.087338	0.155176	-0.369306
H199	H	-0.117550	0.343273	-0.295738
H200	H	-0.048245	0.345122	-0.165329
H201	H	0.479018	0.170208	0.101633
H202	H	0.819466	-0.458673	0.050051
