data_functionalizedCrystal
_audit_creation_method	'MofGen! by Chris Wilmer'
_symmetry_space_group_name_H-M	'P1'
_symmetry_Int_Tables_number	1
_symmetry_cell_setting	triclinic
loop_
_symmetry_equiv_pos_as_xyz
  x,y,z
_cell_length_a	12.594516
_cell_length_b	14.908780
_cell_length_c	14.908308
_cell_angle_alpha	89.787311
_cell_angle_beta	86.728502
_cell_angle_gamma	86.694491
loop_
_atom_site_label
_atom_site_type_symbol
_atom_site_fract_x
_atom_site_fract_y
_atom_site_fract_z
Zn1	Zn	-0.372328	-1.345335	0.587893
Zn2	Zn	-0.539514	-1.353926	0.437546
Zn3	Zn	-0.371171	-1.203648	0.428861
Zn4	Zn	-0.559890	-1.194953	0.579165
O5	O	-0.460726	-1.274465	0.508366
O6	O	-0.386463	-1.472302	0.575237
O7	O	-0.508172	-1.341225	0.310570
O8	O	-0.222377	-1.222487	0.449975
O9	O	-0.509294	-1.478613	0.464778
O10	O	-0.223227	-1.326584	0.566815
O11	O	-0.384491	-1.230817	0.304189
O12	O	-0.404248	-1.076668	0.441511
O13	O	-0.544021	-1.207667	0.706147
O14	O	-0.542899	-1.070279	0.551939
O15	O	-0.406220	-1.318152	0.712559
O16	O	-0.691165	-1.332794	0.456314
O17	O	-0.706135	-1.215997	0.560361
C18	C	-0.475660	-1.040848	0.494836
C19	C	-0.482076	-0.940904	0.489069
C20	C	-0.366427	-0.746515	0.593430
C21	C	-0.372451	-0.652608	0.588014
C22	C	-0.500144	-0.659184	0.472819
C23	C	-0.494119	-0.753090	0.478234
C24	C	-0.427259	-0.796752	0.538543
C25	C	-0.421241	-0.890660	0.543962
C26	C	-0.548927	-0.897233	0.428763
C27	C	-0.554951	-0.803327	0.423347
C28	C	-0.737270	-1.274407	0.508354
C29	C	-0.855574	-1.274463	0.508384
C30	C	-0.933005	-1.210933	0.564932
C31	C	-0.999363	-1.193764	0.481621
C32	C	-1.000011	-1.291714	0.591713
C33	C	-0.920373	-1.257252	0.425027
C34	C	-0.921016	-1.355237	0.535177
C35	C	-0.987336	-1.338101	0.451811
C36	C	-0.183102	-1.274547	0.508400
C37	C	-0.064795	-1.274582	0.508414
C38	C	-0.477522	-1.260981	0.742890
C39	C	-0.484680	-1.255235	0.842830
C40	C	-0.445725	-0.508996	0.521943
C41	C	-0.439309	-0.608939	0.527712
C42	C	-0.443915	-1.287949	0.274758
C43	C	-0.436446	-1.293869	0.174829
C44	C	-0.354614	-1.359483	1.037306
C45	C	-0.361335	-1.354087	1.131209
C46	C	-0.504839	-1.239042	1.124539
C47	C	-0.498117	-1.244439	1.030636
C48	C	-0.423003	-1.304662	0.987024
C49	C	-0.416288	-1.310062	0.893119
C50	C	-0.559785	-1.195014	0.886451
C51	C	-0.566507	-1.189617	0.980354
H52	H	-0.322912	-0.611709	0.632707
H53	H	-0.355127	-1.359100	0.857612
H54	H	-0.598470	-0.938147	0.384077
O55	O	-0.294951	-1.407247	1.180188
C56	C	-0.241743	-1.449956	1.327807
C57	C	-0.316977	-1.389686	1.272447
H58	H	-0.259539	-1.435793	1.402410
H59	H	-0.155588	-1.435240	1.308503
H60	H	-0.254454	-1.523511	1.313486
H61	H	-0.304361	-1.316112	1.286740
H62	H	-0.403104	-1.404479	1.291760
O63	O	-1.015760	-1.402367	0.394775
C64	C	-1.006505	-1.559913	0.357716
C65	C	-0.974213	-1.487228	0.422366
H66	H	-0.972947	-1.628543	0.380011
H67	H	-0.973472	-1.545167	0.286739
H68	H	-1.097079	-1.559841	0.358572
H69	H	-0.883650	-1.487261	0.421589
H70	H	-1.007324	-1.502002	0.493313
O71	O	-1.041454	-1.308960	0.675830
C72	C	-1.061191	-1.261361	0.830467
C73	C	-1.014180	-1.241745	0.735254
H74	H	-1.039177	-1.207020	0.878534
H75	H	-1.027681	-1.329621	0.853828
H76	H	-1.151595	-1.261937	0.829510
H77	H	-0.923778	-1.241121	0.736136
H78	H	-1.047774	-1.173499	0.711930
O79	O	-0.880138	-1.436604	0.562382
C80	C	-0.874496	-1.546746	0.680972
C81	C	-0.920851	-1.454575	0.650270
H82	H	-0.907411	-1.561313	0.752025
H83	H	-0.783971	-1.546121	0.680120
H84	H	-0.897846	-1.601073	0.633464
H85	H	-0.897582	-1.400197	0.697751
H86	H	-1.011368	-1.455277	0.651098
O87	O	-0.577753	-1.180610	1.167056
C88	C	-0.651615	-1.121245	1.308765
C89	C	-0.569016	-1.187481	1.260730
H90	H	-0.644564	-1.126764	1.384507
H91	H	-0.735149	-1.138055	1.291291
H92	H	-0.636231	-1.049826	1.286043
H93	H	-0.584300	-1.258923	1.283425
H94	H	-0.485509	-1.170594	1.278204
H95	H	-0.885671	-1.242630	0.354544
O96	O	-0.904030	-1.146812	0.621884
C97	C	-0.759324	-1.075362	0.686200
C98	C	-0.791992	-1.148026	0.621697
H99	H	-0.668740	-1.076307	0.686056
H100	H	-0.793385	-1.089334	0.757039
H101	H	-0.791676	-1.006599	0.663209
H102	H	-0.759650	-1.216819	0.644606
H103	H	-0.757946	-1.133976	0.550872
H104	H	-0.366801	-0.926208	0.593070
H105	H	-0.293458	-1.408524	1.001796
O106	O	-1.040240	-1.112273	0.454738
C107	C	-1.059148	-0.953116	0.483881
C108	C	-1.012822	-1.045351	0.514431
H109	H	-1.036980	-0.898982	0.532117
H110	H	-1.149570	-0.954100	0.483560
H111	H	-1.025127	-0.937977	0.413301
H112	H	-1.046761	-1.060547	0.585019
H113	H	-0.922401	-1.044321	0.514687
O114	O	-0.619918	-0.761054	0.364694
C115	C	-0.745999	-0.777485	0.251058
C116	C	-0.672443	-0.825472	0.317426
H117	H	-0.788502	-0.829545	0.212837
H118	H	-0.696559	-0.736244	0.201510
H119	H	-0.807450	-0.731128	0.289746
H120	H	-0.610979	-0.871873	0.278813
H121	H	-0.721953	-0.866656	0.366972
O122	O	-0.639576	-1.131247	1.022772
C123	C	-0.791600	-1.113022	1.128123
C124	C	-0.708926	-1.179225	1.080133
H125	H	-0.847677	-1.151784	1.174524
H126	H	-0.839409	-1.074780	1.076094
H127	H	-0.748865	-1.063473	1.169325
H128	H	-0.751575	-1.228827	1.038932
H129	H	-0.661121	-1.217400	1.132207
O130	O	-0.301404	-0.788793	0.652038
C131	C	-0.175457	-0.772361	0.765781
C132	C	-0.249030	-0.724370	0.699429
H133	H	-0.133111	-0.720296	0.804129
H134	H	-0.113887	-0.818668	0.727162
H135	H	-0.224974	-0.813655	0.815221
H136	H	-0.199602	-0.683028	0.649974
H137	H	-0.310605	-0.678117	0.738108
O138	O	-0.565057	-0.616618	0.414310
C139	C	-0.630849	-0.474861	0.354864
C140	C	-0.557313	-0.522951	0.421182
H141	H	-0.624596	-0.399124	0.360384
H142	H	-0.716674	-0.492337	0.371590
H143	H	-0.605658	-0.497535	0.283467
H144	H	-0.582408	-0.500304	0.492602
H145	H	-0.471505	-0.505475	0.404378
O146	O	-0.626180	-1.141622	0.837693
C147	C	-0.685521	-0.990310	0.800053
C148	C	-0.610295	-1.050665	0.855338
H149	H	-0.672689	-0.916759	0.814284
H150	H	-0.771684	-1.004938	0.819433
H151	H	-0.667829	-1.004559	0.725454
H152	H	-0.627892	-1.036450	0.929950
H153	H	-0.524156	-1.036026	0.835882
