data_functionalizedCrystal
_audit_creation_method	'MofGen! by Chris Wilmer'
_symmetry_space_group_name_H-M	'P1'
_symmetry_Int_Tables_number	1
_symmetry_cell_setting	triclinic
loop_
_symmetry_equiv_pos_as_xyz
  x,y,z
_cell_length_a	15.297475
_cell_length_b	16.959454
_cell_length_c	15.298159
_cell_angle_alpha	80.333365
_cell_angle_beta	88.367350
_cell_angle_gamma	80.323279
loop_
_atom_site_label
_atom_site_type_symbol
_atom_site_fract_x
_atom_site_fract_y
_atom_site_fract_z
Zn1	Zn	1.253258	-0.615370	0.726606
Zn2	Zn	1.278558	-0.729150	0.580134
Zn3	Zn	1.132173	-0.570920	0.554851
Zn4	Zn	1.106757	-0.721412	0.701257
O5	O	1.192687	-0.659213	0.640712
O6	O	1.379188	-0.652304	0.728366
O7	O	1.280364	-0.692797	0.454210
O8	O	1.148285	-0.466217	0.577662
O9	O	1.397776	-0.735898	0.620754
O10	O	1.237245	-0.498874	0.703850
O11	O	1.172816	-0.576545	0.435634
O12	O	1.006228	-0.569042	0.553082
O13	O	1.104966	-0.722709	0.827191
O14	O	0.987554	-0.679608	0.660647
O15	O	1.212600	-0.644800	0.845814
O16	O	1.255719	-0.838723	0.596174
O17	O	1.129497	-0.833038	0.685163
C18	C	0.965109	-0.618662	0.601371
C19	C	0.867746	-0.601336	0.584561
C20	C	0.554567	-0.783051	0.760855
C21	C	0.646044	-0.799335	0.776646
C22	C	0.701474	-0.749837	0.728627
C23	C	0.665418	-0.684051	0.664813
C24	C	0.573933	-0.667769	0.649015
C25	C	0.720840	-0.634555	0.616787
C26	C	0.684784	-0.568770	0.552973
C27	C	0.593307	-0.552491	0.537179
C28	C	0.537877	-0.601989	0.585198
C29	C	0.812325	-0.650837	0.632584
C30	C	0.831691	-0.535556	0.520744
C31	C	0.740214	-0.519272	0.504953
C32	C	1.192616	-0.864564	0.640685
C33	C	1.192661	-0.952432	0.640716
C34	C	1.127045	-1.320995	0.687057
C35	C	1.258556	-1.326883	0.594499
C36	C	1.258527	-1.244330	0.594486
C37	C	1.192755	-1.200106	0.640757
C38	C	1.127013	-1.238434	0.687043
C39	C	1.324263	-1.205994	0.548194
C40	C	1.324236	-1.123437	0.548178
C41	C	1.258467	-1.079212	0.594456
C42	C	1.192722	-1.117545	0.640743
C43	C	1.126951	-1.073321	0.687015
C44	C	1.061209	-1.111654	0.733309
C45	C	1.061243	-1.194209	0.733320
C46	C	1.258432	-0.996657	0.594444
C47	C	1.126918	-0.990760	0.687001
C48	C	1.421153	-0.699922	0.680208
C49	C	1.518512	-0.717270	0.697038
C50	C	1.153125	-0.687850	0.869172
C51	C	1.136267	-0.700053	0.966528
C52	C	1.192778	-0.453066	0.640763
C53	C	1.192817	-0.365219	0.640785
C54	C	1.072303	-0.746348	1.002567
C55	C	1.056465	-0.757818	1.094038
C56	C	1.104584	-0.722990	1.149478
C57	C	1.168544	-0.676689	1.113440
C58	C	1.184389	-0.665223	1.021960
C59	C	1.216669	-0.641865	1.168872
C60	C	1.280629	-0.595564	1.132833
C61	C	1.296471	-0.584100	1.041363
C62	C	1.248352	-0.618928	0.985922
C63	C	1.200824	-0.653331	1.260351
C64	C	1.312910	-0.572206	1.279745
C65	C	1.328748	-0.560736	1.188274
C66	C	1.232087	-0.630704	1.413140
C67	C	1.248946	-0.618501	1.315784
H68	H	0.775958	-0.763099	0.741488
H69	H	1.091684	-0.732332	1.223958
H70	H	0.675394	-0.852899	0.828601
Cl71	Cl	0.484885	-0.845283	0.821195
H72	H	0.463388	-0.588732	0.572346
H73	H	1.004390	-0.795517	1.123374
H74	H	1.348559	-0.546407	1.012025
H75	H	0.876823	-0.495251	0.481641
H76	H	0.563955	-0.498931	0.485208
Cl77	Cl	1.406947	-1.261595	0.490034
H78	H	1.380825	-0.523038	1.158918
H79	H	1.261239	-0.609586	0.911437
H80	H	0.710844	-0.465709	0.452995
H81	H	1.148747	-0.691030	1.289685
H82	H	1.007653	-1.075636	0.770979
Cl83	Cl	0.857641	-0.733535	0.712805
Cl84	Cl	1.044232	-0.935172	0.745181
Cl85	Cl	0.978603	-1.242404	0.791509
H86	H	1.312100	-1.362893	0.556821
Cl87	Cl	1.406888	-1.075256	0.489991
H88	H	1.352093	-0.543847	1.324886
Cl89	Cl	1.341064	-0.948467	0.536241
Cl90	Cl	1.044406	-1.369183	0.745256
Cl91	Cl	1.011824	-0.790130	0.932868
