data_functionalizedCrystal
_audit_creation_method	'MofGen! by Chris Wilmer'
_symmetry_space_group_name_H-M	'P1'
_symmetry_Int_Tables_number	1
_symmetry_cell_setting	triclinic
loop_
_symmetry_equiv_pos_as_xyz
  x,y,z
_cell_length_a	14.519709
_cell_length_b	14.519709
_cell_length_c	7.088929
_cell_angle_alpha	83.763835
_cell_angle_beta	96.220807
_cell_angle_gamma	83.680145
loop_
_atom_site_label
_atom_site_type_symbol
_atom_site_fract_x
_atom_site_fract_y
_atom_site_fract_z
O1	O	1.214430	0.130341	-0.158746
O2	O	1.714430	0.630341	0.341254
O3	O	0.945950	0.144582	-0.158805
O4	O	1.445950	0.644582	0.341195
O5	O	1.087310	0.003222	-0.158757
O6	O	1.587310	0.503222	0.341243
O7	O	1.073071	0.271701	-0.158794
O8	O	1.573071	0.771701	0.341206
O9	O	1.106201	-0.015712	0.159225
O10	O	1.606201	0.484288	0.659225
O11	O	0.964841	0.125647	0.159177
O12	O	1.464841	0.625647	0.659177
O13	O	1.233322	0.111407	0.159236
O14	O	1.733322	0.611407	0.659236
Cu15	Cu	1.100806	0.116799	0.188240
Cu16	Cu	1.600806	0.616799	0.688240
Cu17	Cu	1.078465	0.139190	-0.187810
Cu18	Cu	1.578465	0.639190	0.312190
O19	O	1.091962	0.252767	0.159187
O20	O	1.591962	0.752767	0.659187
C21	C	0.921035	0.134451	0.000179
C22	C	1.421035	0.634451	0.500179
C23	C	0.818653	0.132465	0.000157
C24	C	1.318653	0.632465	0.500157
C25	C	1.096092	-0.040605	0.000234
C26	C	1.596092	0.459395	0.500234
C27	C	1.094103	-0.142986	0.000235
C28	C	1.594103	0.357014	0.500235
C29	C	1.086781	-0.517879	0.000184
C30	C	1.586781	-0.017879	0.500184
C31	C	1.088814	-0.413572	0.000199
C32	C	1.588814	0.086428	0.500199
C33	C	1.090442	-0.330436	0.000211
C34	C	1.590442	0.169564	0.500211
C35	C	1.092476	-0.226122	0.000222
C36	C	1.592476	0.273878	0.500222
C37	C	0.443762	0.125140	0.000245
C38	C	0.943762	0.625140	0.500245
C39	C	0.548069	0.127174	0.000220
C40	C	1.048069	0.627174	0.500220
C41	C	0.631204	0.128802	0.000199
C42	C	1.131204	0.628802	0.500199
C43	C	0.735517	0.130836	0.000177
C44	C	1.235517	0.630836	0.500177
C45	C	1.258236	0.121538	0.000248
C46	C	1.758236	0.621538	0.500248
C47	C	1.360618	0.123525	0.000257
C48	C	1.860618	0.623525	0.500257
C49	C	1.083180	0.296594	0.000192
C50	C	1.583180	0.796594	0.500192
C51	C	1.085167	0.398976	0.000179
C52	C	1.585167	0.898976	0.500179
N53	N	1.116526	0.101049	0.452734
N54	N	1.616526	0.601049	0.952734
N55	N	1.062752	0.154933	-0.452303
N56	N	1.562752	0.654933	0.047697
H57	H	1.172268	0.045213	0.534409
H58	H	1.672268	0.545213	1.034409
C59	C	0.988547	0.229530	0.438920
C60	C	1.488547	0.729530	0.938920
C61	C	1.006656	0.317288	0.487423
C62	C	1.506656	0.817288	0.987423
C63	C	0.938324	0.386031	0.387225
C64	C	1.438324	0.886031	0.887225
H65	H	0.928848	0.217661	0.471557
H66	H	1.428848	0.717661	0.971557
H67	H	0.989624	0.228511	0.305395
H68	H	1.489624	0.728511	0.805395
H69	H	1.005570	0.318305	0.620918
H70	H	1.505570	0.818305	1.120918
H71	H	1.066342	0.329187	0.454781
H72	H	1.566342	0.829187	0.954781
H73	H	0.939401	0.385012	0.253700
H74	H	1.439401	0.885012	0.753700
H75	H	0.878629	0.374153	0.419871
H76	H	1.378629	0.874153	0.919871
H77	H	0.950606	0.445584	0.420107
H78	H	1.450606	0.945584	0.920107
