data_functionalizedCrystal
_audit_creation_method	'MofGen! by Chris Wilmer'
_symmetry_space_group_name_H-M	'P1'
_symmetry_Int_Tables_number	1
_symmetry_cell_setting	triclinic
loop_
_symmetry_equiv_pos_as_xyz
  x,y,z
_cell_length_a	12.759401
_cell_length_b	12.645330
_cell_length_c	12.759393
_cell_angle_alpha	90.028974
_cell_angle_beta	90.020938
_cell_angle_gamma	90.019217
loop_
_atom_site_label
_atom_site_type_symbol
_atom_site_fract_x
_atom_site_fract_y
_atom_site_fract_z
Zn1	Zn	1.606245	-0.421945	0.594031
Zn2	Zn	2.106245	0.078055	1.094031
Zn3	Zn	1.606126	-0.599246	0.418356
Zn4	Zn	2.106126	-0.099246	0.918356
Zn5	Zn	1.430543	-0.422001	0.418366
Zn6	Zn	1.930543	0.077999	0.918366
Zn7	Zn	1.430526	-0.599172	0.593993
Zn8	Zn	1.930526	-0.099172	1.093993
O9	O	1.518360	-0.510591	0.506187
O10	O	2.018360	-0.010591	1.006187
O11	O	1.753250	-0.445472	0.570739
O12	O	2.253250	0.054528	1.070739
O13	O	1.582793	-0.575788	0.271336
O14	O	2.082793	-0.075788	0.771336
O15	O	1.453907	-0.273647	0.441689
O16	O	1.953907	0.226353	0.941689
O17	O	1.753163	-0.575734	0.441671
O18	O	2.253163	-0.075734	0.941671
O19	O	1.582994	-0.273605	0.570749
O20	O	2.082994	0.226395	1.070749
O21	O	1.453793	-0.445568	0.271344
O22	O	1.953793	0.054432	0.771344
O23	O	1.283520	-0.445496	0.441652
O24	O	1.783520	0.054504	0.941652
O25	O	1.453878	-0.575607	0.741019
O26	O	1.953878	-0.075607	1.241019
O27	O	1.283507	-0.575662	0.570684
O28	O	1.783507	-0.075662	1.070684
O29	O	1.582977	-0.445400	0.741047
O30	O	2.082977	0.054600	1.241047
O31	O	1.582776	-0.747583	0.441634
O32	O	2.082776	-0.247583	0.941634
O33	O	1.453763	-0.747529	0.570674
O34	O	1.953763	-0.247529	1.070674
C35	C	1.245393	-0.510578	0.506166
C36	C	1.745393	-0.010578	1.006166
C37	C	1.128616	-0.510598	0.506182
C38	C	1.628616	-0.010598	1.006182
C39	C	1.073775	-0.578479	0.573263
C40	C	1.573775	-0.078479	1.073263
C41	C	0.964051	-0.578483	0.573284
C42	C	1.464051	-0.078483	1.073284
C43	C	0.964019	-0.442722	0.439133
C44	C	1.464019	0.057278	0.939133
C45	C	1.073741	-0.442714	0.439118
C46	C	1.573741	0.057286	0.939118
C47	C	1.518283	-0.786021	0.506172
C48	C	2.018283	-0.286021	1.006172
C49	C	1.518347	-0.903851	0.506201
C50	C	2.018347	-0.403851	1.006201
C51	C	1.437519	-1.071424	0.587630
C52	C	1.937519	-0.571424	1.087630
C53	C	1.437106	-0.948865	0.587368
C54	C	1.937106	-0.448865	1.087368
C55	C	1.488371	-0.948453	0.395479
C56	C	1.988371	-0.448453	0.895479
C57	C	1.487878	-1.071052	0.395973
C58	C	1.987878	-0.571052	0.895973
C59	C	1.629644	-1.070935	0.534596
C60	C	2.129644	-0.570935	1.034596
C61	C	1.628962	-0.948328	0.537017
C62	C	2.128962	-0.448328	1.037017
C63	C	1.792393	-0.510605	0.506208
C64	C	2.292393	-0.010605	1.006208
C65	C	1.909170	-0.510610	0.506217
C66	C	2.409170	-0.010610	1.006217
C67	C	1.518439	-0.510489	0.780220
C68	C	2.018439	-0.010489	1.280220
C69	C	1.518472	-0.510446	0.896997
C70	C	2.018472	-0.010446	1.396997
C71	C	1.518466	-0.234086	0.506224
C72	C	2.018466	0.265914	1.006224
C73	C	1.518511	-0.116255	0.506241
C74	C	2.018511	0.383745	1.006241
C75	C	1.518342	-0.510616	0.233219
C76	C	2.018342	-0.010616	0.733219
C77	C	1.518512	-0.510360	0.116443
C78	C	2.018512	-0.010360	0.616443
C79	C	1.585699	-0.442636	0.951875
C80	C	2.085699	0.057364	1.451875
C81	C	1.585717	-0.442590	1.061599
C82	C	2.085717	0.057410	1.561599
C83	C	1.451278	-0.578173	1.061557
C84	C	1.951278	-0.078173	1.561557
C85	C	1.451255	-0.578213	0.951835
C86	C	1.951255	-0.078213	1.451835
H87	H	1.118394	-0.387431	0.384493
H88	H	1.618394	0.112569	0.884493
H89	H	1.640459	-0.387371	1.106276
H90	H	2.140459	0.112629	1.606276
F91	F	1.379749	-0.650296	1.119929
F92	F	1.879749	-0.150296	1.619929
H93	H	1.656988	-1.101772	0.613962
H94	H	2.156988	-0.601772	1.113962
F95	F	0.905690	-0.650729	0.644683
F96	F	1.405690	-0.150729	1.144683
H97	H	1.396503	-0.633431	0.907152
H98	H	1.896503	-0.133431	1.407152
H99	H	1.640429	-0.387452	0.907229
H100	H	2.140429	0.112548	1.407229
H101	H	1.456102	-1.100830	0.669999
H102	H	1.956102	-0.600830	1.169999
F103	F	1.132174	-0.650724	0.644641
F104	F	1.632174	-0.150724	1.144641
H105	H	0.919326	-0.387455	0.384531
H106	H	1.419326	0.112545	0.884531
F107	F	1.461617	-0.909440	0.694679
F108	F	1.961617	-0.409440	1.194679
H109	H	1.355645	-1.102329	0.569085
H110	H	1.855645	-0.602329	1.069085
H111	H	1.354717	-0.919634	0.568583
H112	H	1.854717	-0.419634	1.068583
H113	H	1.406639	-1.099747	0.371952
H114	H	1.906639	-0.599747	0.871952
F115	F	1.561627	-1.109823	0.314002
F116	F	2.061627	-0.609823	0.814002
H117	H	1.545491	-0.919298	0.333180
H118	H	2.045491	-0.419298	0.833180
H119	H	1.407979	-0.917846	0.371023
H120	H	1.907979	-0.417846	0.871023
H121	H	1.689984	-1.099926	0.475316
H122	H	2.189984	-0.599926	0.975316
H123	H	1.651567	-0.919171	0.618502
H124	H	2.151567	-0.419171	1.118502
H125	H	1.692482	-0.917680	0.482054
H126	H	2.192482	-0.417680	0.982054
