data_functionalizedCrystal
_audit_creation_method	'MofGen! by Chris Wilmer'
_symmetry_space_group_name_H-M	'P1'
_symmetry_Int_Tables_number	1
_symmetry_cell_setting	triclinic
loop_
_symmetry_equiv_pos_as_xyz
  x,y,z
_cell_length_a	27.780867
_cell_length_b	27.780865
_cell_length_c	27.780953
_cell_angle_alpha	60.003118
_cell_angle_beta	89.998103
_cell_angle_gamma	119.999668
loop_
_atom_site_label
_atom_site_type_symbol
_atom_site_fract_x
_atom_site_fract_y
_atom_site_fract_z
O1	O	0.330206	-0.424599	0.014324
O2	O	0.260208	-0.326032	-0.014246
O3	O	0.260211	-0.424584	0.084318
O4	O	0.330203	-0.326047	-0.084240
O5	O	0.340274	-0.344519	0.084310
O6	O	0.340271	-0.245968	-0.014254
O7	O	0.410269	-0.344534	0.014316
Zn8	Zn	0.387981	-0.282539	0.000030
Zn9	Zn	0.282496	-0.388027	0.000040
O10	O	0.410266	-0.245982	-0.084248
C11	C	0.207590	-0.090578	-0.029858
C12	C	0.237291	-0.031174	-0.025766
C13	C	0.236694	-0.119404	-0.030269
C14	C	0.120426	-0.177741	-0.029863
C15	C	0.056931	-0.211532	-0.025776
C16	C	0.149663	-0.206434	-0.030274
C17	C	0.207593	-0.177739	-0.029866
C18	C	0.237298	-0.211528	-0.025782
C19	C	0.149659	-0.119406	-0.030266
C20	C	0.261297	-0.238826	-0.022481
C21	C	0.261287	0.016817	-0.022458
C22	C	0.005634	-0.238832	-0.022474
C23	C	0.291404	-0.273073	-0.018342
C24	C	0.291390	0.077026	-0.018310
C25	C	-0.058721	-0.273081	-0.018331
O26	O	-0.150480	-0.326036	-0.084242
O27	O	-0.179046	-0.424600	0.084318
O28	O	-0.080481	-0.326035	-0.014242
O29	O	-0.249045	-0.424601	0.014318
O30	O	-0.080486	-0.245982	-0.014235
O31	O	-0.179051	-0.344547	0.084325
O32	O	-0.150486	-0.245982	-0.084234
Zn33	Zn	-0.164769	-0.282554	0.000047
Zn34	Zn	-0.164762	-0.388028	0.000037
O35	O	-0.249050	-0.344547	0.014325
C36	C	-0.134854	-0.090581	-0.372303
C37	C	-0.138944	-0.031178	-0.402003
C38	C	-0.134448	-0.119408	-0.314374
C39	C	-0.134849	-0.177742	-0.372309
C40	C	-0.138933	-0.211531	-0.402015
C41	C	-0.134442	-0.206437	-0.314380
C42	C	-0.134852	-0.177743	-0.285143
C43	C	-0.138941	-0.211533	-0.221650
C44	C	-0.134444	-0.119407	-0.401409
C45	C	-0.142245	-0.238833	-0.170353
C46	C	-0.142250	0.016814	-0.425997
C47	C	-0.142234	-0.238830	-0.426014
C48	C	-0.146390	-0.273082	-0.106000
C49	C	-0.146397	0.077021	-0.456099
C50	C	-0.146375	-0.273077	-0.456122
C51	C	0.462870	-0.580015	0.029967
C52	C	0.433164	-0.639427	0.025886
C53	C	0.520802	-0.551186	0.030372
C54	C	0.462874	-0.492843	0.029958
C55	C	0.433172	-0.459049	0.025867
C56	C	0.520806	-0.464146	0.030363
C57	C	0.550040	-0.492844	0.029959
C58	C	0.613536	-0.459053	0.025868
C59	C	0.433769	-0.551184	0.030371
C60	C	0.664834	-0.431751	0.022562
C61	C	0.409165	-0.687425	0.022587
C62	C	0.409176	-0.431746	0.022561
C63	C	0.729190	-0.397501	0.018415
C64	C	0.379056	-0.747641	0.018450
C65	C	0.379072	-0.397494	0.018414
O66	O	0.410251	0.234688	0.014358
O67	O	0.340255	0.094695	-0.014217
O68	O	0.340252	0.094691	0.084349
O69	O	0.410254	0.234691	-0.084208
O70	O	0.260191	0.094690	0.084352
O71	O	0.260194	0.094693	-0.014214
O72	O	0.330190	0.234686	0.014360
Zn73	Zn	0.282481	0.164690	0.000074
Zn74	Zn	0.387964	0.164691	0.000070
O75	O	0.330193	0.234690	-0.084205
O76	O	-0.179022	-0.344531	-0.574995
O77	O	-0.150467	-0.245976	-0.504985
O78	O	-0.249027	-0.344537	-0.504991
O79	O	-0.080461	-0.245970	-0.574989
O80	O	-0.249026	-0.424593	-0.424937
O81	O	-0.150466	-0.326032	-0.424931
O82	O	-0.179020	-0.424588	-0.494942
Zn83	Zn	-0.164743	-0.388021	-0.447226
Zn84	Zn	-0.164745	-0.282542	-0.552700
O85	O	-0.080460	-0.326027	-0.494935
C86	C	0.462853	-0.177802	-0.372301
C87	C	0.433145	-0.211603	-0.401997
C88	C	0.433755	-0.206487	-0.314373
C89	C	0.550024	-0.090630	-0.372312
C90	C	0.613519	-0.031225	-0.402020
C91	C	0.520793	-0.119447	-0.314384
C92	C	0.462862	-0.177783	-0.285145
C93	C	0.433163	-0.211562	-0.221653
C94	C	0.520784	-0.119466	-0.401408
C95	C	0.409169	-0.238853	-0.170357
C96	C	0.409145	-0.238911	-0.425988
C97	C	0.664816	0.016767	-0.426020
C98	C	0.379068	-0.273091	-0.106005
C99	C	0.379034	-0.273170	-0.456086
C100	C	0.729172	0.076977	-0.456130
C101	C	-0.194645	-0.579985	0.372376
C102	C	-0.190551	-0.639387	0.402073
C103	C	-0.195052	-0.551158	0.401481
C104	C	-0.194656	-0.492829	0.285220
C105	C	-0.190575	-0.459042	0.221729
C106	C	-0.195063	-0.464134	0.314457
C107	C	-0.194650	-0.492826	0.372384
C108	C	-0.190562	-0.459035	0.402090
C109	C	-0.195058	-0.551162	0.314449
C110	C	-0.187258	-0.431735	0.426089
C111	C	-0.187243	-0.687376	0.426065
C112	C	-0.187276	-0.431745	0.170434
C113	C	-0.183114	-0.397487	0.456196
C114	C	-0.183093	-0.747581	0.456164
C115	C	-0.183139	-0.397500	0.106083
O116	O	-0.179080	0.234666	-0.494886
O117	O	-0.150493	0.094689	-0.424902
O118	O	-0.249067	0.094669	-0.424894
O119	O	-0.080506	0.234686	-0.494894
O120	O	-0.249062	0.094671	-0.504954
O121	O	-0.150488	0.094691	-0.504963
O122	O	-0.179076	0.234668	-0.574946
Zn123	Zn	-0.164781	0.164680	-0.552666
Zn124	Zn	-0.164787	0.164677	-0.447183
O125	O	-0.080502	0.234687	-0.574955
C126	C	0.207614	-0.492774	0.372373
C127	C	0.237320	-0.458975	0.402071
C128	C	0.149683	-0.551110	0.401478
C129	C	0.207609	-0.492790	0.285215
C130	C	0.237310	-0.459008	0.221723
C131	C	0.149678	-0.551125	0.314452
C132	C	0.120445	-0.579944	0.372380
C133	C	0.056951	-0.639349	0.402086
C134	C	0.236715	-0.464087	0.314445
C135	C	0.005653	-0.687341	0.426085
C136	C	0.261319	-0.431669	0.426064
C137	C	0.261305	-0.431715	0.170428
C138	C	-0.058703	-0.747550	0.456193
C139	C	0.291428	-0.397412	0.456164
C140	C	0.291408	-0.397476	0.106075
C141	C	0.120410	-0.177755	0.372412
C142	C	0.056915	-0.211546	0.402114
C143	C	0.149645	-0.206450	0.401513
C144	C	0.207578	-0.090590	0.285250
C145	C	0.237282	-0.031183	0.221759
C146	C	0.236680	-0.119417	0.314483
C147	C	0.207577	-0.177755	0.372411
C148	C	0.237280	-0.211545	0.402111
C149	C	0.149646	-0.119417	0.314484
C150	C	0.261277	-0.238845	0.426106
C151	C	0.005617	-0.238846	0.426110
C152	C	0.261280	0.016810	0.170464
C153	C	0.291383	-0.273094	0.456209
C154	C	-0.058739	-0.273095	0.456215
C155	C	0.291387	0.077021	0.106112
O156	O	0.260160	-0.424710	-0.494871
O157	O	0.330170	-0.326125	-0.424888
O158	O	0.330166	-0.424696	-0.424878
O159	O	0.260164	-0.326138	-0.494881
O160	O	0.410222	-0.344648	-0.504938
O161	O	0.410226	-0.246076	-0.504948
O162	O	0.340216	-0.344662	-0.574931
Zn163	Zn	0.387932	-0.282660	-0.552651
Zn164	Zn	0.282454	-0.388127	-0.447168
O165	O	0.340220	-0.246090	-0.574941
C166	C	0.462871	0.507136	-0.372267
C167	C	0.433167	0.540927	-0.401969
C168	C	0.520802	0.535831	-0.401369
C169	C	0.462869	0.419971	-0.285106
C170	C	0.433164	0.360564	-0.221615
C171	C	0.520800	0.448798	-0.314340
C172	C	0.550037	0.507135	-0.372268
C173	C	0.613532	0.540926	-0.401970
C174	C	0.433766	0.448799	-0.314340
C175	C	0.664830	0.568226	-0.425965
C176	C	0.409171	0.568228	-0.425964
C177	C	0.409166	0.312571	-0.170320
C178	C	0.729186	0.602474	-0.456069
C179	C	0.379066	0.602477	-0.456067
C180	C	0.379059	0.252360	-0.105968
H181	H	0.284295	-0.095269	-0.030932
H182	H	0.126216	-0.575228	0.449075
H183	H	0.126190	-0.095275	-0.030923
H184	H	-0.133780	-0.095271	-0.290908
Cl185	Cl	0.113409	-0.278922	0.474997
Cl186	Cl	0.310204	-0.391619	0.278206
H187	H	0.126172	-0.095294	0.291016
H188	H	-0.133800	-0.253387	-0.290909
Cl189	Cl	0.310167	-0.082171	0.278247
H190	H	0.386171	-0.575312	0.031025
Cl191	Cl	0.557025	0.411524	-0.278120
Cl192	Cl	-0.196105	-0.588434	0.474980
Cl193	Cl	-0.133428	-0.082158	-0.474895
H194	H	0.544272	0.582773	-0.448965
Cl195	Cl	-0.196061	-0.588403	0.278205
H196	H	0.386183	0.424706	-0.290856
H197	H	0.544269	-0.095309	-0.290921
H198	H	0.544279	-0.417197	0.031010
Cl199	Cl	0.557020	-0.082232	-0.474890
Cl200	Cl	-0.196076	-0.391662	0.278226
Cl201	Cl	0.557036	-0.588444	0.031396
Cl202	Cl	0.113420	-0.588354	0.278206
Cl203	Cl	0.360265	-0.278955	-0.278132
H204	H	0.126191	-0.253373	-0.030935
