data_functionalizedCrystal
_audit_creation_method	'MofGen! by Chris Wilmer'
_symmetry_space_group_name_H-M	'P1'
_symmetry_Int_Tables_number	1
_symmetry_cell_setting	triclinic
loop_
_symmetry_equiv_pos_as_xyz
  x,y,z
_cell_length_a	23.196402
_cell_length_b	17.917603
_cell_length_c	17.917559
_cell_angle_alpha	60.139256
_cell_angle_beta	90.001288
_cell_angle_gamma	63.033946
loop_
_atom_site_label
_atom_site_type_symbol
_atom_site_fract_x
_atom_site_fract_y
_atom_site_fract_z
Zr1	Zr	0.588257	0.806863	-0.129084
O2	O	0.505538	0.951892	-0.249615
O3	O	0.609662	0.654637	-0.087434
O4	O	0.620106	0.796485	-0.242842
O5	O	0.491351	0.820740	0.023033
O6	O	0.714976	0.796487	-0.242846
O7	O	0.495094	0.810043	-0.094208
O8	O	0.696293	0.542746	0.035149
O9	O	0.510035	1.074480	-0.254963
O10	O	0.694367	0.719917	-0.075354
O11	O	0.620774	0.727898	0.012145
O12	O	0.633071	0.894906	-0.170827
O13	O	0.559478	0.902888	-0.083329
Zr14	Zr	0.733596	0.823925	0.057894
Zr15	Zr	0.739564	0.806866	-0.129091
Zr16	Zr	0.582289	0.823923	0.057901
Zr17	Zr	0.595429	1.002378	-0.137613
Zr18	Zr	0.726424	0.628410	0.066423
O19	O	0.712191	0.976152	0.016244
O20	O	0.720677	0.951895	-0.249625
O21	O	0.497052	0.976148	0.016254
O22	O	0.816315	0.678897	0.178425
O23	O	0.824801	0.654640	-0.087444
O24	O	0.601176	0.678894	0.178435
O25	O	0.830501	0.810049	-0.094223
O26	O	0.701746	0.834304	0.171651
O27	O	0.606876	0.834302	0.171656
O28	O	0.826759	0.820745	0.023018
O29	O	0.630304	1.074482	-0.254968
O30	O	0.691549	0.556306	0.183778
O31	O	0.811818	0.556308	0.183773
O32	O	0.816562	0.542748	0.035144
O33	O	0.505291	1.088041	-0.106334
O34	O	0.625560	1.088043	-0.106340
O35	O	0.688782	0.735882	0.099637
O36	O	0.762375	0.727901	0.012139
O37	O	0.701079	0.902890	-0.083335
O38	O	0.627486	0.910872	0.004163
C39	C	0.471664	0.815391	-0.035587
C40	C	0.407431	0.815390	-0.035584
C41	C	0.651955	0.570835	-0.024927
C42	C	0.648911	0.487833	-0.021307
C43	C	0.409252	0.724050	0.014244
C44	C	0.348897	0.724049	0.014247
C45	C	0.286723	0.815392	-0.035594
C46	C	0.284905	0.906745	-0.085424
C47	C	0.345259	0.906744	-0.085419
C48	C	0.167920	0.881586	-0.115294
C49	C	0.107569	0.881583	-0.115302
C50	C	0.100570	0.815399	-0.035608
C51	C	0.153936	0.749200	0.044093
C52	C	0.214290	0.749200	0.044098
C53	C	0.221275	0.815403	-0.035604
C54	C	0.036950	0.724051	0.014228
C55	C	-0.023407	0.724054	0.014234
C56	C	-0.087400	0.906752	-0.085446
C57	C	-0.027043	0.906747	-0.085443
C58	C	0.035129	0.815393	-0.035608
C59	C	0.643348	0.335867	-0.014695
C60	C	0.678503	0.294917	-0.056493
C61	C	0.675408	0.210358	-0.052814
C62	C	0.646442	0.420434	-0.018373
C63	C	0.850188	0.815397	-0.035603
C64	C	0.914422	0.815398	-0.035606
C65	C	0.668392	0.794055	-0.269485
C66	C	0.670925	0.786813	-0.348865
C67	C	0.669897	1.059954	-0.046263
C68	C	0.672942	1.142955	-0.049883
C69	C	0.646286	0.857193	-0.576965
C70	C	0.675565	0.773600	-0.494223
C71	C	0.672983	0.780954	-0.413339
C72	C	0.648868	0.849841	-0.657857
C73	C	0.653461	0.836734	0.198295
C74	C	0.650927	0.843976	0.277675
C75	C	0.841217	0.570838	-0.024936
C76	C	0.902406	0.487838	-0.021318
C77	C	0.644490	0.592174	0.208963
C78	C	0.638912	0.516415	0.291963
C79	C	0.833752	0.592177	0.208954
C80	C	0.892407	0.516419	0.291952
C81	C	0.488101	1.038612	-0.280145
C82	C	0.429445	1.114370	-0.363142
C83	C	0.480635	1.059951	-0.046255
C84	C	0.419446	1.142951	-0.049872
C85	C	0.677363	1.038615	-0.280153
C86	C	0.682941	1.114374	-0.363154
C87	C	0.895642	0.444692	-0.065297
C88	C	0.953131	0.366713	-0.061916
C89	C	1.017383	0.331877	-0.014549
C90	C	1.024146	0.375031	0.029431
C91	C	0.966658	0.453013	0.026043
C92	C	0.671791	0.485006	0.376619
C93	C	0.666547	0.413834	0.454614
C94	C	0.628428	0.374067	0.447951
C95	C	0.595544	0.405483	0.363286
C96	C	0.600784	0.476659	0.285293
C97	C	0.958374	0.476676	0.285256
C98	C	1.013493	0.405504	0.363233
C99	C	1.002645	0.374070	0.447907
C100	C	0.936671	0.413821	0.454602
C101	C	0.881554	0.484997	0.376625
C102	C	0.363479	1.154122	-0.356446
C103	C	0.308361	1.225319	-0.434425
C104	C	0.319209	1.256756	-0.519099
C105	C	0.385182	1.217001	-0.525793
C106	C	0.440300	1.145811	-0.447816
C107	C	0.426211	1.186105	-0.005901
C108	C	0.368724	1.264103	-0.009304
C109	C	0.304472	1.298941	-0.056673
C110	C	0.297709	1.255784	-0.100649
C111	C	0.355196	1.177792	-0.097251
C112	C	0.721066	1.154119	-0.356462
C113	C	0.726321	1.225292	-0.434442
C114	C	0.693446	1.256725	-0.519114
C115	C	0.655319	1.216973	-0.525804
C116	C	0.650069	1.145795	-0.447824
H117	H	0.459871	0.649662	0.054818
H118	H	0.619282	0.934277	-0.587056
H119	H	0.972175	0.488133	0.061862
H120	H	0.843331	0.473052	-0.103878
H121	H	0.628554	1.242577	-0.594754
H122	H	0.574012	0.502222	0.216366
F123	F	0.945919	0.320796	-0.108725
H124	H	0.087573	0.649667	0.054826
F125	F	1.092533	0.337943	0.079841
H126	H	0.710924	0.323366	-0.095041
F127	F	1.083701	0.363207	0.356090
F128	F	0.229321	1.292870	-0.151058
H129	H	0.624166	0.316112	0.511465
H130	H	0.619020	1.113442	-0.453285
F131	F	0.271081	0.678753	0.128920
F132	F	0.699038	1.332483	-0.602100
H133	H	0.564507	0.373094	0.357874
F134	F	0.347985	1.131867	-0.144049
F135	F	1.061313	0.298316	0.530891
F136	F	0.350832	0.626827	0.067280
F137	F	0.710864	0.672837	-0.481029
H138	H	0.967220	0.502258	0.216317
F139	F	0.600976	0.298682	0.035689
H140	H	1.064188	0.268378	-0.011798
H141	H	0.148247	0.695290	0.108983
H142	H	0.927848	0.388217	0.523553
H143	H	0.693328	0.388264	0.523544
F144	F	-0.153567	1.003968	-0.138486
F145	F	-0.021465	0.626832	0.067280
F146	F	0.811348	0.527283	0.383766
F147	F	0.050776	0.952041	-0.200124
F148	F	-0.028982	1.003965	-0.138482
F149	F	0.712368	0.527314	0.383731
H150	H	0.354633	1.128530	-0.287508
H151	H	0.478523	1.157746	0.032677
F152	F	0.238153	1.267614	-0.427281
F153	F	0.396718	1.250467	-0.615917
F154	F	0.175359	0.952036	-0.200120
F155	F	0.260542	1.332524	-0.602083
F156	F	0.510505	1.103504	-0.454956
H157	H	0.374243	1.299229	0.026511
H158	H	0.234278	0.981118	-0.126005
F159	F	0.243294	1.381947	-0.060281
H160	H	0.747838	1.128538	-0.287525
F161	F	0.766897	1.267592	-0.427303
H162	H	0.343771	0.981127	-0.125993
