data_functionalizedCrystal
_audit_creation_method	'MofGen! by Chris Wilmer'
_symmetry_space_group_name_H-M	'P1'
_symmetry_Int_Tables_number	1
_symmetry_cell_setting	triclinic
loop_
_symmetry_equiv_pos_as_xyz
  x,y,z
_cell_length_a	14.908742
_cell_length_b	14.908520
_cell_length_c	14.908308
_cell_angle_alpha	83.639235
_cell_angle_beta	83.239341
_cell_angle_gamma	89.837416
loop_
_atom_site_label
_atom_site_type_symbol
_atom_site_fract_x
_atom_site_fract_y
_atom_site_fract_z
Zn1	Zn	1.325909	-0.462157	0.460058
Zn2	Zn	1.325807	-0.604797	0.317434
Zn3	Zn	1.184290	-0.445739	0.316460
Zn4	Zn	1.165782	-0.604746	0.477494
O5	O	1.250447	-0.529359	0.392862
O6	O	1.452134	-0.487971	0.434249
O7	O	1.314737	-0.576847	0.190223
O8	O	1.210864	-0.321677	0.327804
O9	O	1.452059	-0.592767	0.329464
O10	O	1.314911	-0.333739	0.433305
O11	O	1.210765	-0.459988	0.189508
O12	O	1.055596	-0.459939	0.344712
O13	O	1.179321	-0.592681	0.602263
O14	O	1.041998	-0.576761	0.463022
O15	O	1.296965	-0.487921	0.589453
O16	O	1.296791	-0.731030	0.346371
O17	O	1.179221	-0.730993	0.463966
C18	C	1.016065	-0.516564	0.405654
C19	C	0.915792	-0.511112	0.411149
C20	C	1.236010	-0.763746	0.407185
C21	C	1.229914	-0.864024	0.413338
C22	C	0.774487	-0.448974	0.473541
C23	C	0.868702	-0.454088	0.468381
C24	C	0.868661	-0.563028	0.359075
C25	C	0.774445	-0.557914	0.364234
C26	C	0.727362	-0.500883	0.421468
C27	C	0.633146	-0.495765	0.426622
C28	C	0.633106	-0.604709	0.317321
C29	C	0.727321	-0.609823	0.312161
C30	C	1.340998	-1.052446	0.302536
C31	C	1.335274	-1.146666	0.308314
C32	C	1.212747	-1.146686	0.430677
C33	C	1.218471	-1.052466	0.424898
C34	C	1.282598	-1.005349	0.360825
C35	C	1.288317	-0.911127	0.355043
C36	C	1.165795	-0.911149	0.477409
C37	C	1.160071	-1.005369	0.483188
C38	C	1.485744	-0.542206	0.380020
C39	C	1.586014	-0.547680	0.374547
C40	C	1.236090	-0.542127	0.629730
C41	C	1.229972	-0.547567	0.730669
C42	C	1.264964	-0.294060	0.378501
C43	C	1.271150	-0.193789	0.372382
C44	C	1.264804	-0.516580	0.156908
C45	C	1.271112	-0.510894	0.055944
C46	C	1.340977	-0.448684	0.907006
C47	C	1.335232	-0.453793	1.001847
C48	C	1.212732	-0.562889	1.015194
C49	C	1.218477	-0.557780	0.920353
C50	C	1.282603	-0.500676	0.866262
C51	C	1.288352	-0.495573	0.771419
C52	C	1.165849	-0.604664	0.784768
C53	C	1.160103	-0.609773	0.879609
H54	H	0.736151	-0.402528	0.520134
C55	C	1.101546	-0.859345	0.541528
H56	H	1.062532	-0.900903	0.580507
H57	H	1.135848	-0.826553	0.576989
H58	H	1.066605	-0.818628	0.506635
H59	H	0.765669	-0.656258	0.265565
C60	C	0.920540	-0.396990	0.525660
H61	H	0.983395	-0.408207	0.514397
H62	H	0.909620	-0.334805	0.509614
H63	H	0.900595	-0.412746	0.588315
H64	H	1.340568	-0.449077	0.727380
H65	H	1.382831	-1.185009	0.260850
H66	H	1.393207	-1.014082	0.250358
C67	C	1.142197	-0.625694	1.074699
H68	H	1.108248	-0.655925	1.036852
H69	H	1.172040	-0.668871	1.112218
H70	H	1.102775	-0.591022	1.111730
H71	H	0.594727	-0.646980	0.274921
C72	C	1.358855	-0.859300	0.284569
H73	H	1.392822	-0.900848	0.250689
H74	H	1.329017	-0.818574	0.244597
H75	H	1.398261	-0.826517	0.314950
C76	C	1.089534	-1.057202	0.553659
H77	H	1.094484	-1.120061	0.548749
H78	H	1.099916	-1.045734	0.613022
H79	H	1.030675	-1.037795	0.542666
H80	H	1.393195	-0.402193	0.862964
C81	C	1.142214	-1.198524	0.501148
H82	H	1.147169	-1.261383	0.496235
H83	H	1.152597	-1.187058	0.560512
H84	H	1.083353	-1.179122	0.490159
H85	H	0.907012	-0.609462	0.312481
H86	H	0.594812	-0.449324	0.473221
C87	C	1.089571	-0.672584	0.939109
H88	H	1.055626	-0.702815	0.901257
H89	H	1.119417	-0.715763	0.976624
H90	H	1.050145	-0.637920	0.976143
H91	H	1.382764	-0.411452	1.035017
C92	C	1.101633	-0.661857	0.739948
H93	H	1.114235	-0.650634	0.675717
H94	H	1.110157	-0.724027	0.758474
H95	H	1.040890	-0.646180	0.757993
