data_functionalizedCrystal
_audit_creation_method	'MofGen! by Chris Wilmer'
_symmetry_space_group_name_H-M	'P1'
_symmetry_Int_Tables_number	1
_symmetry_cell_setting	triclinic
loop_
_symmetry_equiv_pos_as_xyz
  x,y,z
_cell_length_a	15.538191
_cell_length_b	13.596369
_cell_length_c	14.519731
_cell_angle_alpha	90.000544
_cell_angle_beta	65.480474
_cell_angle_gamma	90.007174
loop_
_atom_site_label
_atom_site_type_symbol
_atom_site_fract_x
_atom_site_fract_y
_atom_site_fract_z
O1	O	1.249385	0.081832	-0.299346
O2	O	0.975314	0.081821	-0.192925
O3	O	1.119606	0.081834	-0.382813
O4	O	1.105093	0.081819	-0.109458
O5	O	1.119591	-0.081749	-0.382816
O6	O	0.975300	-0.081762	-0.192927
O7	O	1.249371	-0.081751	-0.299349
Zn8	Zn	1.112333	-0.107729	-0.246139
Zn9	Zn	1.112352	0.107799	-0.246135
O10	O	1.105079	-0.081764	-0.109460
C11	C	0.940231	0.000028	-0.181791
C12	C	0.835716	0.000025	-0.148625
N13	N	1.112327	-0.254820	-0.246144
C14	C	0.547344	0.000058	-0.478122
C15	C	0.449133	0.000057	-0.446934
C16	C	0.427000	0.000047	-0.271510
C17	C	0.525211	0.000043	-0.302683
C18	C	0.585376	0.000050	-0.405990
C19	C	0.563242	0.000035	-0.230551
C20	C	0.661444	0.000037	-0.261722
C21	C	0.721615	0.000046	-0.365025
C22	C	0.683578	0.000051	-0.437161
C23	C	0.503075	0.000036	-0.127244
C24	C	0.541107	0.000028	-0.055113
C25	C	0.639311	0.000022	-0.086283
C26	C	0.699482	0.000032	-0.189586
C27	C	0.677348	0.000017	-0.014147
C28	C	0.775551	0.000018	-0.045318
C29	C	0.797684	0.000033	-0.220757
C30	C	1.112351	-0.656111	-0.246134
C31	C	1.112341	-0.544460	-0.246132
C32	C	1.112339	-0.455469	-0.246138
C33	C	1.112329	-0.343811	-0.246138
C34	C	1.284454	0.000044	-0.310482
C35	C	1.388969	0.000054	-0.343648
C36	C	1.118919	0.000046	-0.416945
C37	C	1.116881	0.000058	-0.518640
N38	N	1.112365	0.254891	-0.246140
C39	C	1.105766	0.000026	-0.075328
C40	C	1.107804	0.000021	0.026367
C41	C	1.109460	0.000025	0.108954
C42	C	1.111528	0.000034	0.212567
C43	C	1.113170	0.000042	0.295153
C44	C	1.115239	0.000050	0.398773
H45	H	0.846675	0.000032	-0.304880
O46	O	0.605662	0.000107	-0.578516
C47	C	0.551041	0.000084	-0.635505
H48	H	0.477794	0.031046	-0.587574
H49	H	0.543998	-0.078394	-0.659166
C50	C	0.689795	0.026215	-0.789410
C51	C	0.599835	0.064251	-0.730543
H52	H	0.719894	0.065792	-0.848037
H53	H	0.726596	0.026227	-0.751017
H54	H	0.683913	-0.039183	-0.809118
H55	H	0.605718	0.129643	-0.710827
H56	H	0.563036	0.064252	-0.768935
O57	O	0.412142	0.000234	-0.516969
C58	C	0.355989	0.084941	-0.504166
H59	H	0.379310	0.144154	-0.463782
H60	H	0.278589	0.065783	-0.456974
C61	C	0.339058	0.050638	-0.658084
C62	C	0.367707	0.123367	-0.608491
H63	H	0.346282	0.074340	-0.722435
H64	H	0.376887	-0.006433	-0.666708
H65	H	0.274560	0.034679	-0.618746
H66	H	0.432207	0.139316	-0.647822
H67	H	0.329889	0.180442	-0.599876
O68	O	0.817017	0.000221	-0.395361
C69	C	0.855906	0.084932	-0.453912
H70	H	0.799126	0.144148	-0.434397
H71	H	0.883196	0.065783	-0.537707
C72	C	1.007961	0.050614	-0.455009
C73	C	0.938224	0.123347	-0.431034
H74	H	1.058742	0.074309	-0.440901
H75	H	0.981762	-0.006460	-0.415565
H76	H	1.030692	0.034663	-0.524837
H77	H	0.915487	0.139288	-0.361205
H78	H	0.964422	0.180425	-0.470466
H79	H	0.378001	0.000046	-0.187397
H80	H	0.423113	0.000038	-0.101868
H81	H	0.492108	0.000027	0.029001
H82	H	0.628348	0.000022	0.069966
O83	O	0.741994	0.000230	-0.537526
C84	C	0.724727	0.084939	-0.583282
H85	H	0.691254	0.144151	-0.523390
H86	H	0.674632	0.065784	-0.619894
C87	C	0.859865	0.050638	-0.738273
C88	C	0.818760	0.123365	-0.664713
H89	H	0.917868	0.074339	-0.788507
H90	H	0.871497	-0.006435	-0.707449
H91	H	0.818110	0.034682	-0.768772
H92	H	0.860510	0.139311	-0.634208
H93	H	0.807138	0.180442	-0.695535
O94	O	0.812609	-0.000129	0.024655
C95	C	0.868722	-0.084863	0.011881
H96	H	0.893038	-0.113097	-0.068951
H97	H	0.825408	-0.144194	0.067177
C98	C	0.925816	-0.024459	0.131703
C99	C	0.955688	-0.059131	0.032421
H100	H	0.979459	-0.008589	0.144377
H101	H	0.888009	0.032627	0.140312
H102	H	0.889720	-0.073907	0.177771
H103	H	0.991773	-0.009679	-0.013645
H104	H	0.993503	-0.116209	0.023804
