data_functionalizedCrystal
_audit_creation_method	'MofGen! by Chris Wilmer'
_symmetry_space_group_name_H-M	'P1'
_symmetry_Int_Tables_number	1
_symmetry_cell_setting	triclinic
loop_
_symmetry_equiv_pos_as_xyz
  x,y,z
_cell_length_a	16.625546
_cell_length_b	12.759401
_cell_length_c	12.759393
_cell_angle_alpha	89.980193
_cell_angle_beta	90.035077
_cell_angle_gamma	89.981453
loop_
_atom_site_label
_atom_site_type_symbol
_atom_site_fract_x
_atom_site_fract_y
_atom_site_fract_z
Zn1	Zn	-0.321047	-1.606197	0.593990
Zn2	Zn	-0.455901	-1.606068	0.418296
Zn3	Zn	-0.321077	-1.430499	0.418325
Zn4	Zn	-0.455832	-1.430463	0.593933
O5	O	-0.388465	-1.518307	0.506136
O6	O	-0.338952	-1.753200	0.570696
O7	O	-0.438058	-1.582739	0.271279
O8	O	-0.208241	-1.453875	0.441663
O9	O	-0.438029	-1.753106	0.441614
O10	O	-0.208219	-1.582959	0.570724
O11	O	-0.339003	-1.453750	0.271300
O12	O	-0.338937	-1.283473	0.441608
O13	O	-0.437911	-1.453814	0.740961
O14	O	-0.437941	-1.283447	0.570626
O15	O	-0.338885	-1.582924	0.741003
O16	O	-0.568725	-1.582704	0.441558
O17	O	-0.568674	-1.453689	0.570598
C18	C	-0.388435	-1.245339	0.506114
C19	C	-0.388442	-1.128563	0.506130
C20	C	-0.336947	-1.073743	0.573446
C21	C	-0.336959	-0.964019	0.573449
C22	C	-0.439965	-0.963944	0.438819
C23	C	-0.439949	-1.073666	0.438811
C24	C	-0.285440	-1.128640	0.640765
C25	C	-0.233942	-1.073820	0.708087
C26	C	-0.233953	-0.964096	0.708091
C27	C	-0.285462	-0.909192	0.640772
C28	C	-0.597956	-1.518207	0.506092
C29	C	-0.687577	-1.518261	0.506108
C30	C	-1.015752	-1.518444	0.506218
C31	C	-0.924444	-1.518390	0.506190
C32	C	-0.851667	-1.518352	0.506162
C33	C	-0.760353	-1.518299	0.506136
C34	C	-0.178156	-1.518435	0.506203
C35	C	-0.088535	-1.518490	0.506232
C36	C	-0.388387	-1.518379	0.780169
C37	C	-0.388354	-1.518410	0.896946
C38	C	-0.388485	-0.792340	0.506152
C39	C	-0.388468	-0.909117	0.506142
C40	C	-0.388483	-1.518295	0.233168
C41	C	-0.388289	-1.518467	0.116392
C42	C	-0.439913	-1.585578	0.951794
C43	C	-0.439878	-1.585610	1.061519
C44	C	-0.336725	-1.451296	1.061536
C45	C	-0.336756	-1.451271	0.951814
C46	C	-0.491511	-1.652718	0.896926
C47	C	-0.543074	-1.719890	0.951775
C48	C	-0.543039	-1.719922	1.061499
C49	C	-0.491442	-1.652781	1.116375
H50	H	-0.481880	-1.118301	0.383997
Cl51	Cl	-0.607855	-1.804372	1.130449
H52	H	-0.491547	-1.652696	0.807583
Cl53	Cl	-0.169209	-0.895182	0.792714
H54	H	-0.585078	-1.774560	0.907088
H55	H	-0.285450	-0.819847	0.640759
Cl56	Cl	-0.491393	-1.652834	1.254315
Cl57	Cl	-0.271868	-1.366893	1.130524
H58	H	-0.481902	-0.919232	0.384014
Cl59	Cl	-0.285426	-1.266578	0.640769
Cl60	Cl	-0.169186	-1.142840	0.792701
Cl61	Cl	-0.271937	-1.366832	0.882857
