data_functionalizedCrystal
_audit_creation_method	'MofGen! by Chris Wilmer'
_symmetry_space_group_name_H-M	'P1'
_symmetry_Int_Tables_number	1
_symmetry_cell_setting	triclinic
loop_
_symmetry_equiv_pos_as_xyz
  x,y,z
_cell_length_a	17.699077
_cell_length_b	14.853559
_cell_length_c	16.776229
_cell_angle_alpha	89.995543
_cell_angle_beta	89.993415
_cell_angle_gamma	83.456015
loop_
_atom_site_label
_atom_site_type_symbol
_atom_site_fract_x
_atom_site_fract_y
_atom_site_fract_z
O1	O	1.004374	0.113983	-0.066274
O2	O	1.504374	0.613983	0.433726
O3	O	0.784033	0.128821	-0.066277
O4	O	1.284033	0.628821	0.433723
O5	O	0.900093	-0.009850	-0.066275
O6	O	1.400093	0.490150	0.433725
O7	O	0.888315	0.252654	-0.066276
O8	O	1.388315	0.752654	0.433724
O9	O	0.900077	-0.009858	0.066302
O10	O	1.400077	0.490142	0.566302
O11	O	0.784018	0.128813	0.066299
O12	O	1.284018	0.628813	0.566299
O13	O	1.004359	0.113974	0.066303
O14	O	1.504359	0.613974	0.566303
Zn15	Zn	0.894186	0.121392	0.087350
Zn16	Zn	1.394186	0.621392	0.587350
Zn17	Zn	0.894206	0.121404	-0.087325
Zn18	Zn	1.394206	0.621404	0.412675
O19	O	0.888299	0.252646	0.066300
O20	O	1.388299	0.752646	0.566300
C21	C	0.755827	0.128286	0.000011
C22	C	1.255827	0.628286	0.500011
C23	C	0.671805	0.126694	0.000009
C24	C	1.171805	0.626694	0.500009
C25	C	0.632327	0.125939	0.072277
C26	C	1.132327	0.625939	0.572277
C27	C	0.553381	0.124429	0.072278
C28	C	1.053381	0.624429	0.572278
C29	C	0.513913	0.123679	0.000010
C30	C	1.013913	0.623679	0.500010
C31	C	0.553396	0.124432	-0.072264
C32	C	1.053396	0.624432	0.427736
C33	C	0.632342	0.125936	-0.072264
C34	C	1.132342	0.625936	0.427736
C35	C	0.235017	0.118365	-0.072265
C36	C	0.735017	0.618365	0.427735
C37	C	0.156066	0.116863	-0.072260
C38	C	0.656066	0.616863	0.427740
C39	C	0.156056	0.116857	0.072277
C40	C	0.656056	0.616857	0.572277
C41	C	0.235002	0.118362	0.072277
C42	C	0.735002	0.618362	0.572277
C43	C	0.274479	0.119109	0.000003
C44	C	0.774479	0.619109	0.500003
C45	C	0.360082	0.120745	0.000003
C46	C	0.860082	0.620745	0.500003
C47	C	0.428311	0.122050	0.000009
C48	C	0.928311	0.622050	0.500009
C49	C	0.899553	-0.043441	0.000012
C50	C	1.399553	0.456559	0.500012
C51	C	0.897957	-0.143519	0.000008
C52	C	1.397957	0.356481	0.500008
C53	C	0.891195	-0.566665	-0.072260
C54	C	1.391195	-0.066665	0.427740
C55	C	0.891179	-0.566669	0.072280
C56	C	1.391179	-0.066669	0.572280
C57	C	0.892684	-0.472641	0.072281
C58	C	1.392684	0.027359	0.572281
C59	C	0.893444	-0.425620	0.000010
C60	C	1.393444	0.074380	0.500010
C61	C	0.892699	-0.472628	-0.072261
C62	C	1.392699	0.027372	0.427739
C63	C	0.893422	-0.425625	0.144551
C64	C	1.393422	0.074375	0.644551
C65	C	0.894927	-0.331592	0.144555
C66	C	1.394927	0.168408	0.644555
C67	C	0.895692	-0.284570	0.072283
C68	C	1.395692	0.215430	0.572283
C69	C	0.894948	-0.331584	0.000009
C70	C	1.394948	0.168416	0.500009
C71	C	0.895708	-0.284563	-0.072262
C72	C	1.395708	0.215437	0.427738
C73	C	0.894969	-0.331576	-0.144538
C74	C	1.394969	0.168424	0.355462
C75	C	0.893465	-0.425607	-0.144533
C76	C	1.393465	0.074393	0.355467
C77	C	0.897197	-0.190540	0.072278
C78	C	1.397197	0.309460	0.572278
C79	C	0.897211	-0.190527	-0.072264
C80	C	1.397211	0.309473	0.427736
C81	C	1.032565	0.114509	0.000013
C82	C	1.532565	0.614509	0.500013
C83	C	1.116587	0.116102	0.000009
C84	C	1.616587	0.616102	0.500009
C85	C	0.888840	0.286237	0.000012
C86	C	1.388840	0.786237	0.500012
C87	C	0.890435	0.386315	0.000011
C88	C	1.390435	0.886315	0.500011
N89	N	0.894178	0.121384	0.206562
N90	N	1.394178	0.621384	0.706562
N91	N	0.894221	0.121405	-0.206536
N92	N	1.394221	0.621405	0.293464
C93	C	0.945584	0.060006	0.248280
C94	C	1.445584	0.560006	0.748280
C95	C	0.945589	0.060005	0.331732
C96	C	1.445589	0.560005	0.831732
C97	C	0.894189	0.121388	0.373465
C98	C	1.394189	0.621388	0.873465
C99	C	0.842777	0.182769	0.331740
C100	C	1.342777	0.682769	0.831740
C101	C	0.842769	0.182765	0.248290
C102	C	1.342769	0.682765	0.748290
C103	C	0.842804	0.182787	0.668288
C104	C	1.342804	0.682787	1.168288
C105	C	0.842817	0.182788	0.751744
C106	C	1.342817	0.682788	1.251744
C107	C	0.945623	0.060027	0.751730
C108	C	1.445623	0.560027	1.251730
C109	C	0.945616	0.060023	0.668279
C110	C	1.445616	0.560023	1.168279
C111	C	0.894201	0.121400	0.626562
C112	C	1.394201	0.621400	1.126562
C113	C	0.894196	0.121399	0.536074
C114	C	1.394196	0.621399	1.036074
C115	C	0.894197	0.121394	0.463951
C116	C	1.394197	0.621394	0.963951
H117	H	0.123905	0.116245	0.131125
H118	H	0.623905	0.616245	0.631125
H119	H	0.800908	0.232744	0.214323
H120	H	1.300908	0.732744	0.714323
H121	H	0.800958	0.232775	0.785721
H122	H	1.300958	0.732775	1.285721
H123	H	0.800942	0.232764	0.634328
H124	H	1.300942	0.732764	1.134328
H125	H	0.892862	-0.463892	-0.203376
H126	H	1.392862	0.036108	0.296624
Br127	Br	0.898252	-0.126722	-0.170351
Br128	Br	1.398252	0.373278	0.329649
Br129	Br	0.898196	-0.126740	0.170357
Br130	Br	1.398196	0.373260	0.670357
H131	H	0.987443	0.010024	0.214307
H132	H	1.487443	0.510024	0.714307
Br133	Br	1.015401	-0.023275	0.808349
Br134	Br	1.515401	0.476725	1.308349
H135	H	0.890597	-0.604947	-0.131105
H136	H	1.390597	-0.104947	0.368895
H137	H	0.521256	0.123815	-0.131106
H138	H	1.021256	0.623815	0.368894
Br139	Br	0.685921	0.126952	-0.170346
Br140	Br	1.185921	0.626952	0.329654
Br141	Br	1.015353	-0.023299	0.388352
Br142	Br	1.515353	0.476701	0.888352
Br143	Br	0.890130	-0.630479	0.170357
Br144	Br	1.390130	-0.130479	0.670357
Br145	Br	1.015378	-0.023280	0.611645
Br146	Br	1.515378	0.476720	1.111645
Br147	Br	0.895924	-0.267796	0.242640
Br148	Br	1.395924	0.232204	0.742640
Br149	Br	0.499805	0.123419	0.170361
Br150	Br	0.999805	0.623419	0.670361
H151	H	0.800922	0.232745	0.365724
H152	H	1.300922	0.732745	0.865724
H153	H	0.664455	0.126557	0.131127
H154	H	1.164455	0.626557	0.631127
Br155	Br	0.102502	0.115848	-0.170345
Br156	Br	0.602502	0.615848	0.329655
Br157	Br	0.288561	0.119387	0.170359
Br158	Br	0.788561	0.619387	0.670359
H159	H	0.267150	0.118970	-0.131115
H160	H	0.767150	0.618970	0.368885
H161	H	0.892799	-0.463915	0.203390
H162	H	1.392799	0.036085	0.703390
Br163	Br	0.896001	-0.267751	-0.242615
Br164	Br	1.396001	0.232249	0.257385
