data_functionalizedCrystal
_audit_creation_method	'MofGen! by Chris Wilmer'
_symmetry_space_group_name_H-M	'P1'
_symmetry_Int_Tables_number	1
_symmetry_cell_setting	triclinic
loop_
_symmetry_equiv_pos_as_xyz
  x,y,z
_cell_length_a	12.645331
_cell_length_b	19.805405
_cell_length_c	19.805407
_cell_angle_alpha	89.984962
_cell_angle_beta	90.008466
_cell_angle_gamma	89.974611
loop_
_atom_site_label
_atom_site_type_symbol
_atom_site_fract_x
_atom_site_fract_y
_atom_site_fract_z
Zn1	Zn	1.620518	0.269593	0.382698
Zn2	Zn	1.620417	0.382753	0.269506
Zn3	Zn	1.443277	0.269581	0.269524
Zn4	Zn	1.443188	0.382743	0.382654
O5	O	1.531850	0.326167	0.326095
O6	O	1.768852	0.284612	0.367693
O7	O	1.596914	0.367740	0.174792
O8	O	1.466868	0.174866	0.284562
O9	O	1.768778	0.367751	0.284532
O10	O	1.597087	0.174874	0.367711
O11	O	1.466770	0.284593	0.174805
O12	O	1.294918	0.284583	0.284520
O13	O	1.466716	0.367734	0.477377
O14	O	1.294852	0.367723	0.367637
O15	O	1.597000	0.284603	0.477409
O16	O	1.596827	0.477468	0.284490
O17	O	1.466618	0.477461	0.367619
C18	C	1.256420	0.326151	0.326076
C19	C	1.138590	0.326161	0.326084
C20	C	1.531859	0.326169	0.502638
C21	C	1.531863	0.326169	0.577870
C22	C	1.531731	0.502023	0.326063
C23	C	1.531777	0.577255	0.326071
C24	C	0.971032	0.273617	0.274084
C25	C	1.093592	0.273753	0.273854
C26	C	1.094060	0.397456	0.306591
C27	C	0.971462	0.397169	0.306236
C28	C	0.971417	0.308087	0.397777
C29	C	1.094024	0.306494	0.397379
C30	C	1.808355	0.326184	0.326116
C31	C	1.926185	0.326191	0.326124
C32	C	1.531999	0.149625	0.326143
C33	C	1.532062	0.074393	0.326164
C34	C	1.599643	0.612581	0.282831
C35	C	1.599688	0.683269	0.282846
C36	C	1.531861	0.718631	0.326098
C37	C	1.463992	0.683301	0.369343
C38	C	1.463953	0.612613	0.369331
C39	C	1.464148	0.968374	0.369394
C40	C	1.464190	1.039066	0.369401
C41	C	1.599883	1.039030	0.282908
C42	C	1.599844	0.968343	0.282896
C43	C	1.531979	0.933018	0.326143
C44	C	1.531933	0.856370	0.326128
C45	C	1.531901	0.795278	0.326111
C46	C	1.599694	0.282890	0.613232
C47	C	1.599685	0.282888	0.683920
C48	C	1.531850	0.326169	0.719246
C49	C	1.464012	0.369451	0.683879
C50	C	1.464016	0.369449	0.613192
C51	C	1.463991	0.369459	0.968952
C52	C	1.463994	0.369459	1.039644
C53	C	1.599659	0.282897	1.039681
C54	C	1.599664	0.282895	0.968994
C55	C	1.531823	0.326174	0.933633
C56	C	1.531832	0.326175	0.856985
C57	C	1.531845	0.326172	0.795893
C58	C	1.531830	0.326180	1.150239
C59	C	1.531820	0.326175	1.075007
H60	H	1.123700	0.220884	0.286073
H61	H	1.655071	0.939553	0.247674
H62	H	1.408776	0.404689	0.712646
H63	H	0.940202	0.285448	0.221298
Br64	Br	1.371927	0.428203	1.087586
H65	H	1.655145	1.067799	0.247697
H66	H	1.654922	0.247646	0.712709
H67	H	1.654950	0.712028	0.247635
H68	H	1.654906	0.247653	0.940235
H69	H	1.408766	0.404709	0.940170
Br70	Br	1.371951	0.428184	0.565200
Br71	Br	1.691689	0.564597	0.224122
H72	H	1.408958	1.067855	0.404627
Br73	Br	1.691730	0.224159	1.087674
H74	H	1.408770	0.712098	0.404563
Br75	Br	1.142430	0.293688	0.185353
Br76	Br	0.921940	0.185229	0.294228
H77	H	1.408691	0.583852	0.404543
H78	H	0.942833	0.412524	0.253854
Br79	Br	1.142617	0.464490	0.367788
Br80	Br	0.922006	0.464667	0.366651
H81	H	1.124732	0.413076	0.254771
H82	H	0.940526	0.257007	0.415502
Br83	Br	1.142561	0.219055	0.421888
H84	H	1.124657	0.341995	0.438227
Br85	Br	1.372046	0.920443	0.428086
Br86	Br	1.691769	0.224152	0.565297
Br87	Br	0.923079	0.371910	0.462405
