data_functionalizedCrystal
_audit_creation_method	'MofGen! by Chris Wilmer'
_symmetry_space_group_name_H-M	'P1'
_symmetry_Int_Tables_number	1
_symmetry_cell_setting	triclinic
loop_
_symmetry_equiv_pos_as_xyz
  x,y,z
_cell_length_a	15.298068
_cell_length_b	18.101396
_cell_length_c	15.296720
_cell_angle_alpha	99.643317
_cell_angle_beta	91.645182
_cell_angle_gamma	80.303310
loop_
_atom_site_label
_atom_site_type_symbol
_atom_site_fract_x
_atom_site_fract_y
_atom_site_fract_z
Zn1	Zn	1.253311	0.220315	0.727355
Zn2	Zn	1.278543	0.319779	0.580882
Zn3	Zn	1.132193	0.213119	0.555522
Zn4	Zn	1.106759	0.361298	0.701904
O5	O	1.192702	0.278628	0.641416
O6	O	1.379238	0.219145	0.729190
O7	O	1.280333	0.285244	0.454957
O8	O	1.148344	0.110434	0.578354
O9	O	1.397776	0.292221	0.621577
O10	O	1.237329	0.115721	0.704599
O11	O	1.172811	0.206881	0.436326
O12	O	1.006239	0.247139	0.553676
O13	O	1.104996	0.362983	0.827841
O14	O	0.987553	0.356005	0.661222
O15	O	1.212667	0.259404	0.846540
O16	O	1.255671	0.428926	0.596898
O17	O	1.129462	0.459430	0.685812
C18	C	0.965112	0.305297	0.601935
C19	C	0.867745	0.316728	0.585066
C20	C	0.554617	0.197118	0.761985
C21	C	0.646098	0.186381	0.777839
C22	C	0.701514	0.218966	0.729647
C23	C	0.665441	0.262291	0.665598
C24	C	0.573951	0.273034	0.649747
C25	C	0.720847	0.294883	0.617409
C26	C	0.684774	0.338207	0.553361
C27	C	0.593293	0.348947	0.537512
C28	C	0.537876	0.316362	0.585704
C29	C	0.812338	0.284140	0.633261
C30	C	0.831671	0.360056	0.521023
C31	C	0.740190	0.370793	0.505169
C32	C	1.192565	0.471051	0.641368
C33	C	1.192582	0.553366	0.641391
C34	C	1.192728	0.852447	0.641469
C35	C	1.113453	0.840354	0.697607
C36	C	1.113180	0.754737	0.697340
C37	C	1.192655	0.704070	0.641431
C38	C	1.183648	0.722774	0.544797
C39	C	1.183132	0.808539	0.545127
C40	C	1.281303	0.813864	0.681179
C41	C	1.280418	0.728612	0.683109
C42	C	1.192617	0.620212	0.641404
C43	C	1.192766	0.936304	0.641489
C44	C	1.421180	0.251855	0.681051
C45	C	1.518543	0.240446	0.697941
C46	C	1.153180	0.316628	0.869858
C47	C	1.136338	0.332821	0.967206
C48	C	1.192828	1.085458	0.641485
C49	C	1.192802	1.003151	0.641509
C50	C	1.232120	0.240717	0.413872
C51	C	1.249132	0.224295	0.316553
C52	C	1.313105	0.162759	1.280558
C53	C	1.328935	0.147545	1.189095
C54	C	1.280787	0.193862	1.133619
C55	C	1.216807	0.255397	1.169613
C56	C	1.200981	0.270615	1.261086
C57	C	1.168663	0.301719	1.114146
C58	C	1.104683	0.363253	1.150141
C59	C	1.088860	0.378469	1.241604
C60	C	1.137007	0.332152	1.297081
C61	C	1.184488	0.286500	1.022674
C62	C	1.072364	0.394357	1.003201
C63	C	1.056535	0.409571	1.094664
H64	H	0.710806	0.406069	0.453020
O65	O	0.847398	0.242171	0.695569
C66	C	0.930299	0.239893	0.831712
C67	C	0.890622	0.287519	0.761219
H68	H	0.965271	0.276532	0.884797
H69	H	0.875006	0.218468	0.863502
H70	H	0.980050	0.189396	0.798981
H71	H	0.840882	0.338049	0.793882
H72	H	0.945963	0.308885	0.729435
H73	H	1.293679	0.181472	1.059146
O74	O	1.025675	0.439455	0.949375
C75	C	0.987854	0.565767	0.913989
C76	C	1.040782	0.514780	0.975003
H77	H	1.000035	0.626681	0.934698
H78	H	1.010159	0.544381	0.842422
H79	H	0.914128	0.563991	0.919714
H80	H	1.114519	0.516534	0.969355
H81	H	1.018404	0.536183	1.046544
O82	O	1.026665	0.438168	1.276668
C83	C	0.890512	0.479179	1.359393
C84	C	0.960886	0.411501	1.319744
H85	H	0.837302	0.457642	1.394213
H86	H	0.923244	0.520312	1.409224
H87	H	0.858858	0.509686	1.304032
H88	H	0.992565	0.380934	1.375045
H89	H	0.928106	0.370420	1.269891
O90	O	0.790406	0.208506	0.744881
C91	C	0.936201	0.159950	0.683713
C92	C	0.835549	0.171768	0.666334
H93	H	0.972727	0.130232	0.620224
H94	H	0.957946	0.217401	0.706011
H95	H	0.952440	0.123417	0.737798
H96	H	0.819236	0.208274	0.612235
H97	H	0.813857	0.114290	0.644085
O98	O	0.994451	0.469336	1.129785
C99	C	0.920349	0.540545	1.262063
C100	C	0.990697	0.472849	1.222409
H101	H	0.917278	0.543398	1.336953
H102	H	0.938781	0.595499	1.246793
H103	H	0.852856	0.532823	1.231782
H104	H	1.058216	0.480498	1.252666
H105	H	0.972189	0.417920	1.237670
O106	O	1.391081	0.087723	1.154272
C107	C	1.500659	-0.017622	1.183251
C108	C	1.430287	0.050096	1.222802
H109	H	1.532390	-0.048053	1.238640
H110	H	1.467923	-0.058811	1.133497
H111	H	1.553808	0.003904	1.148331
H112	H	1.377117	0.028639	1.257767
H113	H	1.463087	0.091271	1.272510
H114	H	1.341329	0.693355	0.646480
H115	H	0.876790	0.386594	0.481785
H116	H	1.239235	0.815030	0.501010
H117	H	1.118860	0.833188	0.513354
O118	O	1.034402	0.736974	0.664537
C119	C	0.875471	0.760482	0.680989
C120	C	0.964625	0.780681	0.718227
H121	H	0.819035	0.795797	0.724391
H122	H	0.866455	0.773118	0.610433
H123	H	0.874932	0.697527	0.680604
H124	H	0.965228	0.843632	0.718672
H125	H	0.973606	0.767991	0.788762
O126	O	0.680998	0.144244	0.840050
C127	C	0.652157	0.070111	0.949731
C128	C	0.612518	0.117804	0.879288
H129	H	0.596808	0.048734	0.981488
H130	H	0.701913	0.019589	0.917059
H131	H	0.687099	0.106751	1.002843
H132	H	0.577531	0.081227	0.826155
H133	H	0.562808	0.168330	0.912023
O134	O	1.121637	0.347065	1.385932
C135	C	1.121427	0.437241	1.521084
C136	C	1.138843	0.420461	1.420463
H137	H	1.135349	0.496574	1.549036
H138	H	1.049297	0.434009	1.534203
H139	H	1.166807	0.393531	1.554517
H140	H	1.093519	0.464154	1.386963
H141	H	1.210994	0.423666	1.407409
H142	H	1.287500	0.717357	0.754305
H143	H	0.509489	0.170596	0.801221
O144	O	1.117642	0.741156	0.782276
C145	C	1.126128	0.794082	0.937084
C146	C	1.121069	0.809563	0.840934
H147	H	1.128919	0.849375	0.984535
H148	H	1.065007	0.770105	0.952280
H149	H	1.188274	0.751285	0.945611
H150	H	1.058961	0.852375	0.832337
H151	H	1.182233	0.833500	0.825782
O152	O	1.251297	0.681614	0.492720
C153	C	1.375961	0.684570	0.401335
C154	C	1.299382	0.731268	0.460291
H155	H	1.414847	0.724696	0.375084
H156	H	1.421866	0.646904	0.441954
H157	H	1.347818	0.647532	0.343264
H158	H	1.327446	0.768350	0.518369
H159	H	1.253489	0.768885	0.419609
H160	H	1.117037	0.870526	0.768953
H161	H	1.047860	0.867369	0.670307
O162	O	1.107872	0.702718	0.506557
C163	C	0.967363	0.744638	0.440299
C164	C	1.053151	0.767447	0.483566
H165	H	0.923090	0.796962	0.421716
H166	H	0.984564	0.700592	0.378102
H167	H	0.930899	0.719477	0.489114
H168	H	1.089657	0.792642	0.434819
H169	H	1.035891	0.811462	0.545778
H170	H	0.463383	0.325107	0.572804
H171	H	1.292626	0.843763	0.751288
H172	H	1.236581	0.236398	0.993376
O173	O	1.351521	0.821301	0.632712
C174	C	1.433748	0.907363	0.579764
C175	C	1.354216	0.899042	0.634698
H176	H	1.435942	0.970213	0.581337
H177	H	1.497777	0.879311	0.608935
H178	H	1.426365	0.878715	0.508292
H179	H	1.361513	0.927694	0.706180
H180	H	1.290217	0.927074	0.605456
H181	H	0.563924	0.384232	0.485366
O182	O	1.359768	0.117831	1.334568
C183	C	1.385123	0.093519	1.484122
C184	C	1.332191	0.144451	1.423054
H185	H	1.362860	0.115031	1.555678
H186	H	1.372895	0.032602	1.463569
H187	H	1.458854	0.095246	1.478330
H188	H	1.258444	0.142789	1.428815
H189	H	1.344494	0.205344	1.443625
