data_functionalizedCrystal
_audit_creation_method	'MofGen! by Chris Wilmer'
_symmetry_space_group_name_H-M	'P1'
_symmetry_Int_Tables_number	1
_symmetry_cell_setting	triclinic
loop_
_symmetry_equiv_pos_as_xyz
  x,y,z
_cell_length_a	17.699083
_cell_length_b	17.699082
_cell_length_c	16.176319
_cell_angle_alpha	89.995130
_cell_angle_beta	90.006703
_cell_angle_gamma	96.717418
loop_
_atom_site_label
_atom_site_type_symbol
_atom_site_fract_x
_atom_site_fract_y
_atom_site_fract_z
O1	O	-1.004079	0.095710	-0.068729
O2	O	-0.504079	0.595710	0.431271
O3	O	-0.783700	0.108163	-0.068733
O4	O	-0.283700	0.608163	0.431267
O5	O	-0.900116	-0.008252	-0.068730
O6	O	-0.400116	0.491748	0.431270
O7	O	-0.887663	0.212126	-0.068733
O8	O	-0.387663	0.712126	0.431267
O9	O	-0.900100	-0.008260	0.068764
O10	O	-0.400100	0.491740	0.568764
O11	O	-0.783684	0.108156	0.068760
O12	O	-0.283684	0.608156	0.568760
O13	O	-1.004063	0.095703	0.068764
O14	O	-0.504063	0.595703	0.568764
Cu15	Cu	-0.893872	0.101929	0.081316
Cu16	Cu	-0.393872	0.601929	0.581316
Cu17	Cu	-0.893891	0.101937	-0.081285
Cu18	Cu	-0.393891	0.601937	0.418715
O19	O	-0.887647	0.212119	0.068761
O20	O	-0.387647	0.712119	0.568761
C21	C	-0.755495	0.107714	0.000013
C22	C	-0.255495	0.607714	0.500013
C23	C	-0.671477	0.106375	0.000011
C24	C	-0.171477	0.606375	0.500011
C25	C	-0.899662	-0.036453	0.000016
C26	C	-0.399662	0.463547	0.500016
C27	C	-0.898324	-0.120471	0.000011
C28	C	-0.398324	0.379529	0.500011
N29	N	-0.893864	0.101922	0.195681
N30	N	-0.393864	0.601922	0.695681
C31	C	-0.632001	0.105741	0.074959
C32	C	-0.132001	0.605741	0.574959
C33	C	-0.553059	0.104471	0.074960
C34	C	-0.053059	0.604471	0.574960
C35	C	-0.513593	0.103841	0.000011
C36	C	-0.013593	0.603841	0.500011
C37	C	-0.553075	0.104474	-0.074943
C38	C	-0.053075	0.604474	0.425057
C39	C	-0.632017	0.105738	-0.074942
C40	C	-0.132017	0.605738	0.425058
C41	C	-0.234712	0.099375	-0.074945
C42	C	0.265288	0.599375	0.425055
C43	C	-0.155765	0.098113	-0.074940
C44	C	0.344235	0.598113	0.425060
C45	C	-0.155755	0.098107	0.074957
C46	C	0.344245	0.598107	0.574957
C47	C	-0.234696	0.099372	0.074958
C48	C	0.265304	0.599372	0.574958
C49	C	-0.274172	0.100000	0.000004
C50	C	0.225828	0.600000	0.500004
C51	C	-0.359770	0.101375	0.000004
C52	C	0.140230	0.601375	0.500004
C53	C	-0.427995	0.102472	0.000010
C54	C	0.072005	0.602472	0.500010
C55	C	-0.032268	0.096148	0.000016
C56	C	0.467732	0.596148	0.500016
C57	C	-0.116288	0.097473	0.000010
C58	C	0.383712	0.597473	0.500010
C59	C	-0.888101	0.240319	0.000014
C60	C	-0.388101	0.740319	0.500014
C61	C	-0.889439	0.324338	0.000012
C62	C	-0.389439	0.824338	0.500012
C63	C	-0.890077	0.363811	-0.074936
C64	C	-0.390077	0.863811	0.425064
C65	C	-0.891344	0.442753	-0.074937
C66	C	-0.391344	0.942753	0.425063
C67	C	-0.891968	0.482222	0.000011
C68	C	-0.391968	0.982222	0.500011
C69	C	-0.891332	0.442743	0.074965
C70	C	-0.391332	0.942743	0.574965
C71	C	-0.890070	0.363801	0.074966
C72	C	-0.390070	0.863801	0.574966
C73	C	-0.896421	0.761107	0.074967
C74	C	-0.396421	1.261107	0.574967
C75	C	-0.897680	0.840055	0.074961
C76	C	-0.397680	1.340055	0.574961
C77	C	-0.897695	0.840059	-0.074936
C78	C	-0.397695	1.340059	0.425064
C79	C	-0.896433	0.761117	-0.074936
C80	C	-0.396433	1.261117	0.425064
C81	C	-0.895802	0.721645	0.000018
C82	C	-0.395802	1.221645	0.500018
C83	C	-0.894429	0.636046	0.000018
C84	C	-0.394429	1.136046	0.500018
C85	C	-0.893335	0.567820	0.000012
C86	C	-0.393335	1.067820	0.500012
N87	N	-0.893905	0.101938	-0.195651
N88	N	-0.393905	0.601938	0.304349
C89	C	-0.945429	0.050394	0.238947
C90	C	-0.445429	0.550394	0.738947
C91	C	-0.945433	0.050393	0.325494
C92	C	-0.445433	0.550393	0.825494
C93	C	-0.893875	0.101925	0.368774
C94	C	-0.393875	0.601925	0.868774
C95	C	-0.842305	0.153455	0.325502
C96	C	-0.342305	0.653455	0.825502
C97	C	-0.842298	0.153452	0.238957
C98	C	-0.342298	0.653452	0.738957
C99	C	-0.842331	0.153469	0.674530
C100	C	-0.342331	0.653469	1.174530
C101	C	-0.842343	0.153470	0.761082
C102	C	-0.342343	0.653470	1.261082
C103	C	-0.945465	0.050411	0.761068
C104	C	-0.445465	0.550411	1.261068
C105	C	-0.945458	0.050408	0.674523
C106	C	-0.445458	0.550408	1.174523
C107	C	-0.893886	0.101935	0.631258
C108	C	-0.393886	0.601935	1.131258
C109	C	-0.893882	0.101934	0.537414
C110	C	-0.393882	0.601934	1.037414
C111	C	-0.893882	0.101930	0.462617
C112	C	-0.393882	0.601930	0.962617
H113	H	-0.664127	0.106259	0.135991
H114	H	-0.164127	0.606259	0.635991
C115	C	-0.112354	0.097417	-0.157387
C116	C	0.387646	0.597417	0.342613
H117	H	-0.147171	0.097966	-0.202027
H118	H	0.352829	0.597966	0.297973
H119	H	-0.075705	0.141044	-0.160504
H120	H	0.424295	0.641044	0.339496
H121	H	-0.087415	0.052800	-0.160495
H122	H	0.412585	0.552800	0.339505
C123	C	-0.509637	0.103779	0.157403
C124	C	-0.009637	0.603779	0.657403
H125	H	-0.544447	0.104345	0.202039
H126	H	-0.044447	0.604345	0.702039
H127	H	-0.484698	0.059167	0.160527
H128	H	0.015302	0.559167	0.660527
H129	H	-0.472986	0.147411	0.160513
H130	H	0.027014	0.647411	0.660513
H131	H	-0.800308	0.195410	0.203730
H132	H	-0.300308	0.695410	0.703730
C133	C	-0.892016	0.486153	0.157409
C134	C	-0.392016	0.986153	0.657409
H135	H	-0.891462	0.451335	0.202046
H136	H	-0.391462	0.951335	0.702046
H137	H	-0.848388	0.522802	0.160525
H138	H	-0.348388	1.022802	0.660525
H139	H	-0.936632	0.511093	0.160526
H140	H	-0.436632	1.011093	0.660526
C141	C	-1.002184	-0.006261	0.626915
C142	C	-0.502184	0.493739	1.126915
H143	H	-0.994802	0.001125	0.569175
H144	H	-0.494802	0.501125	1.069175
H145	H	-0.994077	-0.056770	0.641099
H146	H	-0.494077	0.443230	1.141099
H147	H	-1.052676	0.001914	0.641093
H148	H	-0.552676	0.501914	1.141093
H149	H	-0.895922	0.728986	-0.135967
H150	H	-0.395922	1.228986	0.364033
C151	C	-0.892051	0.486174	-0.157378
C152	C	-0.392051	0.986174	0.342622
H153	H	-0.892903	0.538840	-0.146647
H154	H	-0.392903	1.038840	0.353353
H155	H	-0.847729	0.479097	-0.188178
H156	H	-0.347729	0.979097	0.311822
H157	H	-0.935973	0.467377	-0.188168
H158	H	-0.435973	0.967377	0.311832
H159	H	-0.889562	0.331682	-0.135968
H160	H	-0.389562	0.831682	0.364032
C161	C	-0.889367	0.320377	0.157407
C162	C	-0.389367	0.820377	0.657407
H163	H	-0.888534	0.267709	0.146673
H164	H	-0.388534	0.767709	0.646673
H165	H	-0.845452	0.339166	0.188205
H166	H	-0.345452	0.839166	0.688205
H167	H	-0.933696	0.327458	0.188199
H168	H	-0.433696	0.827458	0.688199
H169	H	-0.266825	0.099888	0.135988
H170	H	0.233175	0.599888	0.635988
C171	C	-0.278125	0.100074	-0.157390
C172	C	0.221875	0.600074	0.342610
H173	H	-0.243311	0.099528	-0.202024
H174	H	0.256689	0.599528	0.297976
H175	H	-0.314776	0.056449	-0.160511
H176	H	0.185224	0.556449	0.339489
H177	H	-0.303062	0.144693	-0.160507
H178	H	0.196938	0.644693	0.339493
H179	H	-0.520936	0.103956	-0.135967
H180	H	-0.020936	0.603956	0.364033
C181	C	-0.675440	0.106441	-0.157385
C182	C	-0.175440	0.606441	0.342615
H183	H	-0.640629	0.105893	-0.202023
H184	H	-0.140629	0.605893	0.297977
H185	H	-0.712092	0.062816	-0.160502
H186	H	-0.212092	0.562816	0.339498
H187	H	-0.700376	0.151060	-0.160500
H188	H	-0.200376	0.651060	0.339500
C189	C	-0.898402	0.883479	-0.157385
C190	C	-0.398402	1.383479	0.342615
H191	H	-0.899252	0.936146	-0.146655
H192	H	-0.399252	1.436146	0.353345
H193	H	-0.854079	0.876400	-0.188182
H194	H	-0.354079	1.376400	0.311818
H195	H	-0.942323	0.864684	-0.188177
H196	H	-0.442323	1.364684	0.311823
C197	C	-0.785625	0.210165	0.626947
C198	C	-0.285625	0.710165	1.126947
H199	H	-0.793000	0.202785	0.569204
H200	H	-0.293000	0.702785	1.069204
H201	H	-0.793765	0.260662	0.641130
H202	H	-0.293765	0.760662	1.141130
H203	H	-0.735124	0.202019	0.641138
H204	H	-0.235124	0.702019	1.141138
H205	H	-0.800322	0.195410	0.360746
H206	H	-0.300322	0.695410	0.860746
H207	H	-0.898184	0.872189	0.135996
H208	H	-0.398184	1.372189	0.635996
C209	C	-1.002187	-0.006277	0.808661
C210	C	-0.502187	0.493723	1.308661
H211	H	-0.994804	0.001097	0.866403
H212	H	-0.494804	0.501097	1.366403
H213	H	-1.052680	0.001880	0.794466
H214	H	-0.552680	0.501880	1.294466
H215	H	-0.994058	-0.056782	0.794482
H216	H	-0.494058	0.443218	1.294482
C217	C	-0.785614	0.210144	0.808689
C218	C	-0.285614	0.710144	1.308689
H219	H	-0.754890	0.240823	0.770527
H220	H	-0.254890	0.740823	1.270527
H221	H	-0.812769	0.241623	0.842444
H222	H	-0.312769	0.741623	1.342444
H223	H	-0.754171	0.182938	0.842456
H224	H	-0.254171	0.682938	1.342456
H225	H	-0.123605	0.097592	0.135988
H226	H	0.376395	0.597592	0.635988
C227	C	-0.895707	0.717696	0.157410
C228	C	-0.395707	1.217696	0.657410
H229	H	-0.894871	0.665027	0.146681
H230	H	-0.394871	1.165027	0.646681
H231	H	-0.851787	0.736492	0.188195
H232	H	-0.351787	1.236492	0.688195
H233	H	-0.940031	0.724776	0.188212
H234	H	-0.440031	1.224776	0.688212
C235	C	-1.002142	-0.006292	0.191347
C236	C	-0.502142	0.493708	0.691347
H237	H	-1.032847	-0.036985	0.229513
H238	H	-0.532847	0.463015	0.729513
H239	H	-1.033593	0.020891	0.157573
H240	H	-0.533593	0.520891	0.657573
H241	H	-0.974968	-0.037769	0.157599
H242	H	-0.474968	0.462231	0.657599
H243	H	-0.987420	0.008435	0.360721
H244	H	-0.487420	0.508435	0.860721
