data_functionalizedCrystal
_audit_creation_method	'MofGen! by Chris Wilmer'
_symmetry_space_group_name_H-M	'P1'
_symmetry_Int_Tables_number	1
_symmetry_cell_setting	triclinic
loop_
_symmetry_equiv_pos_as_xyz
  x,y,z
_cell_length_a	6.817900
_cell_length_b	9.582860
_cell_length_c	10.773894
_cell_angle_alpha	94.946203
_cell_angle_beta	96.645922
_cell_angle_gamma	111.206767
loop_
_atom_site_label
_atom_site_type_symbol
_atom_site_fract_x
_atom_site_fract_y
_atom_site_fract_z
V1	V	-3.987869	-0.201559	-0.388722
O2	O	-3.934976	0.015345	-0.381557
O3	O	-3.979226	-0.405101	-0.385837
O4	O	-3.904451	-0.195976	-0.558360
O5	O	-4.010268	-0.195228	-0.207840
V6	V	-4.470883	-0.175909	-0.367114
O7	O	-4.250244	-0.257827	-0.436119
O8	O	-4.658705	-0.119641	-0.319717
O9	O	-4.256320	0.027633	-0.369999
O10	O	-4.641173	-0.392813	-0.374279
O11	O	-4.565881	-0.182240	-0.547996
O12	O	-4.331094	-0.181492	-0.197476
C13	C	-3.835031	-0.454798	-0.379646
C14	C	-3.909018	-0.621180	-0.378418
C15	C	-3.739648	-0.188036	-0.599715
C16	C	-3.752992	-0.184818	-0.738393
C17	C	-3.932156	-0.190395	-0.806249
C18	C	-3.945951	-0.187069	-0.949581
C19	C	-4.063858	0.077322	-0.376186
C20	C	-3.969109	0.243702	-0.377422
C21	C	-4.159242	-0.189437	-0.156114
C22	C	-4.125136	-0.192648	-0.017435
H23	H	-4.075327	-0.197623	-0.758230
O24	O	-4.296041	-0.201554	-0.960150
C25	C	-4.552992	-0.343502	-0.836955
C26	C	-4.359483	-0.333617	-0.901797
H27	H	-4.604315	-0.450251	-0.789738
H28	H	-4.690148	-0.347289	-0.910303
H29	H	-4.507667	-0.240207	-0.762743
H30	H	-4.404604	-0.436887	-0.976002
H31	H	-4.222380	-0.329757	-0.828376
O32	O	-3.775167	-0.178234	-1.006965
C33	C	-3.518066	-0.036196	-1.130037
C34	C	-3.711494	-0.046035	-1.065130
H35	H	-3.466501	0.070694	-1.177058
H36	H	-3.563307	-0.139366	-1.204374
H37	H	-3.381089	-0.032590	-1.056642
H38	H	-3.848553	-0.049594	-1.138432
H39	H	-3.666081	0.057133	-0.990769
H40	H	-3.609811	-0.177570	-0.786410
