data_functionalizedCrystal
_audit_creation_method	'MofGen! by Chris Wilmer'
_symmetry_space_group_name_H-M	'P1'
_symmetry_Int_Tables_number	1
_symmetry_cell_setting	triclinic
loop_
_symmetry_equiv_pos_as_xyz
  x,y,z
_cell_length_a	14.519731
_cell_length_b	14.519709
_cell_length_c	11.295483
_cell_angle_alpha	94.101713
_cell_angle_beta	85.886642
_cell_angle_gamma	83.684499
loop_
_atom_site_label
_atom_site_type_symbol
_atom_site_fract_x
_atom_site_fract_y
_atom_site_fract_z
O1	O	1.230057	0.114784	-0.099030
O2	O	1.730057	0.614784	0.400970
O3	O	0.961583	0.129000	-0.099032
O4	O	1.461583	0.629000	0.400968
O5	O	1.102938	-0.012345	-0.099020
O6	O	1.602938	0.487655	0.400980
O7	O	1.088703	0.256130	-0.099042
O8	O	1.588703	0.756130	0.400958
O9	O	1.090522	0.000051	0.099029
O10	O	1.590522	0.500051	0.599029
O11	O	0.949168	0.141396	0.099018
O12	O	1.449168	0.641396	0.599018
O13	O	1.217642	0.127180	0.099020
O14	O	1.717642	0.627180	0.599020
Cu15	Cu	1.082271	0.135420	0.117102
Cu16	Cu	1.582271	0.635420	0.617102
Cu17	Cu	1.096954	0.120761	-0.117115
Cu18	Cu	1.596954	0.620761	0.382885
O19	O	1.076287	0.268525	0.099008
O20	O	1.576287	0.768525	0.599008
C21	C	1.096067	-0.040507	0.000005
C22	C	1.596067	0.459493	0.500005
C23	C	1.094078	-0.142888	0.000005
C24	C	1.594078	0.357112	0.500005
C25	C	0.921016	0.134532	-0.000007
C26	C	1.421016	0.634532	0.499993
C27	C	0.818636	0.132536	-0.000008
C28	C	1.318636	0.632536	0.499992
C29	C	1.086761	-0.517787	-0.000026
C30	C	1.586761	-0.017787	0.499974
C31	C	1.088793	-0.413478	-0.000017
C32	C	1.588793	0.086522	0.499983
C33	C	1.090419	-0.330341	-0.000009
C34	C	1.590419	0.169659	0.499991
C35	C	1.092452	-0.226025	-0.000002
C36	C	1.592452	0.273975	0.499998
C37	C	0.735492	0.130914	-0.000013
C38	C	1.235492	0.630914	0.499987
C39	C	0.631183	0.128887	-0.000013
C40	C	1.131183	0.628887	0.499987
C41	C	0.548044	0.127279	-0.000013
C42	C	1.048044	0.627279	0.499987
C43	C	0.443729	0.125252	-0.000015
C44	C	0.943729	0.625252	0.499985
C45	C	1.258209	0.121648	-0.000008
C46	C	1.758209	0.621648	0.499992
C47	C	1.360590	0.123644	-0.000015
C48	C	1.860590	0.623644	0.499985
C49	C	1.083159	0.296687	-0.000020
C50	C	1.583159	0.796687	0.499980
C51	C	1.085147	0.399068	-0.000028
C52	C	1.585147	0.899068	0.499972
N53	N	1.071951	0.145730	0.281838
N54	N	1.571951	0.645730	0.781838
N55	N	1.107282	0.110443	-0.281850
N56	N	1.607282	0.610443	0.218150
C57	C	1.181573	0.036176	0.531136
C58	C	1.681573	0.536176	1.031136
C59	C	1.173781	0.043974	0.655799
C60	C	1.673781	0.543974	1.155799
C61	C	1.048569	0.169118	0.655829
C62	C	1.548569	0.669118	1.155829
C63	C	1.056362	0.161320	0.531166
C64	C	1.556362	0.661320	1.031166
C65	C	1.122867	0.094848	0.468824
C66	C	1.622867	0.594848	0.968824
C67	C	1.130663	0.087055	0.344159
C68	C	1.630663	0.587055	0.844159
C69	C	1.005448	0.212195	0.344191
C70	C	1.505448	0.712195	0.844191
C71	C	0.997655	0.219992	0.468854
C72	C	1.497655	0.719992	0.968854
H73	H	1.184817	0.032932	0.293401
H74	H	1.684817	0.532932	0.793401
H75	H	1.221584	-0.003804	0.706531
H76	H	1.721584	0.496196	1.206531
C77	C	0.975397	0.242210	0.724427
C78	C	1.475397	0.742210	1.224427
N79	N	0.920277	0.297258	0.776096
N80	N	1.420277	0.797258	1.276096
C81	C	1.254732	-0.036940	0.462558
C82	C	1.754732	0.463060	0.962558
N83	N	1.309836	-0.092012	0.410906
N84	N	1.809836	0.407988	0.910906
C85	C	0.940867	0.276738	0.275637
C86	C	1.440867	0.776738	0.775637
N87	N	0.892227	0.325352	0.224001
N88	N	1.392227	0.825352	0.724001
H89	H	0.943506	0.274111	0.519627
H90	H	1.443506	0.774111	1.019627
