data_functionalizedCrystal
_audit_creation_method	'MofGen! by Chris Wilmer'
_symmetry_space_group_name_H-M	'P1'
_symmetry_Int_Tables_number	1
_symmetry_cell_setting	triclinic
loop_
_symmetry_equiv_pos_as_xyz
  x,y,z
_cell_length_a	10.489741
_cell_length_b	12.837943
_cell_length_c	11.892095
_cell_angle_alpha	94.310562
_cell_angle_beta	93.929268
_cell_angle_gamma	90.315943
loop_
_atom_site_label
_atom_site_type_symbol
_atom_site_fract_x
_atom_site_fract_y
_atom_site_fract_z
O1	O	0.324530	-1.384503	-0.093982
O2	O	0.308135	-1.082575	-0.093989
O3	O	0.131493	-1.240409	-0.093979
O4	O	0.501172	-1.226669	-0.093992
O5	O	0.146196	-1.227249	0.094028
O6	O	0.322838	-1.069415	0.094018
O7	O	0.339233	-1.371343	0.094024
Zn8	Zn	0.333370	-1.218290	0.123871
Zn9	Zn	0.313998	-1.235629	-0.123836
O10	O	0.515875	-1.213509	0.094014
C11	C	0.309948	-1.037334	0.000014
C12	C	0.293430	-0.922133	0.000011
C13	C	0.091198	-1.232791	0.000024
C14	C	-0.050774	-1.229687	0.000022
C15	C	0.337420	-1.416585	0.000019
C16	C	0.353937	-1.531786	0.000014
C17	C	-0.129987	-1.129262	0.000011
C18	C	-0.209630	-1.170213	0.092709
C19	C	-0.224098	-1.183212	-0.092650
C20	C	-0.128541	-1.270674	0.092796
C21	C	-0.143007	-1.283664	-0.092647
C22	C	-0.222613	-1.324687	0.000074
C23	C	0.556170	-1.221127	0.000009
C24	C	0.698141	-1.224233	0.000004
N25	N	0.346591	-1.206464	0.292925
C26	C	0.492006	-0.682657	0.000020
C27	C	0.476492	-0.574415	0.000019
C28	C	0.246889	-0.597406	0.000015
C29	C	0.262403	-0.705648	0.000016
C30	C	0.384966	-0.748269	0.000017
C31	C	0.400478	-0.856513	0.000011
C32	C	0.170877	-0.879501	0.000015
C33	C	0.155363	-0.771260	0.000014
N34	N	0.300768	-1.247463	-0.292889
C35	C	0.208698	-1.329751	0.529580
C36	C	0.217950	-1.321493	0.647922
C37	C	0.374338	-1.181684	0.647951
C38	C	0.365086	-1.189943	0.529609
C39	C	0.282265	-1.263980	0.470428
C40	C	0.273021	-1.272243	0.352085
C41	C	0.429402	-1.132429	0.352116
C42	C	0.438653	-1.124171	0.470457
H43	H	-0.239197	-1.122235	0.171077
C44	C	0.640128	-1.075701	0.315703
C45	C	0.510280	-1.060128	0.287097
H46	H	0.690059	-1.031072	0.275558
H47	H	0.657472	-1.060184	0.394644
H48	H	0.660916	-1.146407	0.296289
H49	H	0.489489	-0.989423	0.306519
H50	H	0.492928	-1.075637	0.208138
C51	C	0.584686	-0.446116	-0.096631
C52	C	0.594151	-0.502291	0.000015
H53	H	0.657325	-0.401585	-0.096627
H54	H	0.580849	-0.493409	-0.162180
H55	H	0.509472	-0.405242	-0.096621
H56	H	0.669361	-0.543171	0.000000
H57	H	0.598001	-0.454992	0.065580
H58	H	-0.089432	-1.046687	0.000103
C59	C	0.021491	-0.630991	0.000014
C60	C	0.112177	-0.550545	0.000017
H61	H	-0.061674	-0.602057	0.000021
H62	H	0.027190	-0.677313	-0.065546
H63	H	0.037445	-0.668148	0.065579
H64	H	0.096228	-0.513392	-0.065552
H65	H	0.106473	-0.504204	0.065584
C66	C	-0.029966	-1.285806	-0.261640
C67	C	-0.103034	-1.348384	-0.198441
H68	H	-0.005281	-1.325759	-0.326955
H69	H	-0.079213	-1.228024	-0.283891
H70	H	0.044164	-1.261209	-0.216936
H71	H	-0.177169	-1.372975	-0.243142
H72	H	-0.053786	-1.406185	-0.176191
C73	C	0.527961	-1.044292	0.636107
C74	C	0.465346	-1.100290	0.713015
H75	H	0.584135	-0.994035	0.676278
H76	H	0.575574	-1.091036	0.589955
H77	H	0.466637	-1.009813	0.589943
H78	H	0.526671	-1.134775	0.759173
H79	H	0.417731	-1.053539	0.759186
H80	H	0.591801	-0.717359	0.000019
C81	C	0.061035	-1.322981	0.197791
C82	C	-0.072328	-1.320568	0.198717
H83	H	0.095737	-1.353774	0.263186
H84	H	0.084326	-1.363020	0.132056
H85	H	0.093486	-1.253779	0.197522
H86	H	-0.104781	-1.389771	0.198978
H87	H	-0.095631	-1.280529	0.264469
C88	C	0.055052	-1.467123	0.541433
C89	C	0.117669	-1.411132	0.464521
H90	H	-0.001152	-1.517360	0.501267
H91	H	0.116363	-1.501616	0.587578
H92	H	0.007459	-1.420363	0.587604
H93	H	0.165269	-1.457891	0.418355
H94	H	0.056348	-1.376638	0.418357
H95	H	-0.262921	-1.407327	0.000127
C96	C	0.217896	-1.453199	0.780975
C97	C	0.137085	-1.393792	0.712944
H98	H	0.167967	-1.497829	0.821121
H99	H	0.271975	-1.494138	0.734799
H100	H	0.268536	-1.407917	0.833158
H101	H	0.086451	-1.439074	0.660756
H102	H	0.082984	-1.352850	0.759124
C103	C	-0.233585	-1.030904	-0.198261
C104	C	-0.280514	-1.133241	-0.198451
H105	H	-0.268405	-1.000053	-0.263578
H106	H	-0.257449	-0.991300	-0.132447
H107	H	-0.143073	-1.031958	-0.198647
H108	H	-0.371027	-1.132186	-0.198055
H109	H	-0.256659	-1.172854	-0.264282
H110	H	0.500275	-0.891213	0.000013
H111	H	0.055577	-0.736541	0.000026
H112	H	0.083716	-0.932936	0.000005
H113	H	0.205588	-1.332530	0.303901
H114	H	0.506081	-1.063888	0.518656
