data_functionalizedCrystal
_audit_creation_method	'MofGen! by Chris Wilmer'
_symmetry_space_group_name_H-M	'P1'
_symmetry_Int_Tables_number	1
_symmetry_cell_setting	triclinic
loop_
_symmetry_equiv_pos_as_xyz
  x,y,z
_cell_length_a	17.077404
_cell_length_b	10.686285
_cell_length_c	10.686551
_cell_angle_alpha	80.915481
_cell_angle_beta	85.603036
_cell_angle_gamma	85.631810
loop_
_atom_site_label
_atom_site_type_symbol
_atom_site_fract_x
_atom_site_fract_y
_atom_site_fract_z
Zn1	Zn	1.254062	-0.450155	-0.679050
Zn2	Zn	1.253999	-0.678735	-0.450548
Zn3	Zn	1.113436	-0.466510	-0.466807
Zn4	Zn	1.132146	-0.662353	-0.662747
O5	O	1.188411	-0.564439	-0.564788
O6	O	1.363902	-0.480488	-0.648757
O7	O	1.227496	-0.664284	-0.275074
O8	O	1.124286	-0.286718	-0.508589
O9	O	1.363856	-0.648425	-0.480878
O10	O	1.227604	-0.274702	-0.664523
O11	O	1.124225	-0.508363	-0.287020
O12	O	1.006069	-0.492478	-0.492781
O13	O	1.156176	-0.620504	-0.842541
O14	O	1.019816	-0.636363	-0.636737
O15	O	1.245747	-0.464603	-0.854518
O16	O	1.245639	-0.854185	-0.465069
O17	O	1.156114	-0.842149	-0.620971
C18	C	0.984460	-0.564418	-0.564755
C19	C	0.897212	-0.564438	-0.564769
C20	C	0.863400	-0.639491	-0.639587
C21	C	0.781421	-0.639492	-0.639607
C22	C	0.733255	-0.564446	-0.564801
C23	C	0.767072	-0.489384	-0.489980
C24	C	0.849050	-0.489377	-0.489967
C25	C	0.596204	-0.489407	-0.490008
C26	C	0.514221	-0.489415	-0.490018
C27	C	0.528575	-0.639522	-0.639648
C28	C	0.610553	-0.639515	-0.639636
C29	C	0.644365	-0.564454	-0.564812
C30	C	1.202923	-0.894220	-0.539515
C31	C	1.209204	-1.035299	-0.528745
C32	C	1.393158	-0.564460	-0.564822
C33	C	1.480409	-0.564469	-0.564837
C34	C	1.203056	-0.538902	-0.895875
C35	C	1.209296	-0.528020	-1.036964
C36	C	1.173865	-0.233367	-0.590189
C37	C	1.167667	-0.092284	-0.601013
C38	C	1.173864	-0.589784	-0.234997
C39	C	1.167760	-0.600308	-0.093935
H40	H	0.902612	-0.700607	-0.700499
C41	C	1.113266	-0.695160	-1.014020
H42	H	1.116074	-0.690270	-0.926496
H43	H	1.129445	-0.778794	-1.029143
H44	H	1.060652	-0.674915	-1.037103
C45	C	1.263733	-1.115194	-0.434010
H46	H	1.260944	-1.202716	-0.438950
H47	H	1.247563	-1.100148	-0.350340
H48	H	1.316339	-1.092021	-0.454313
H49	H	1.249638	-0.457807	-1.096133
H50	H	0.753895	-0.700610	-0.700531
H51	H	0.501042	-0.700635	-0.700576
C52	C	0.663534	-0.722063	-0.721921
H53	H	0.631658	-0.766757	-0.766495
H54	H	0.695789	-0.781037	-0.669037
H55	H	0.695834	-0.669305	-0.781021
C56	C	0.461239	-0.406853	-0.407748
H57	H	0.493116	-0.362133	-0.363199
H58	H	0.428934	-0.459588	-0.348647
H59	H	0.428989	-0.347880	-0.460654
H60	H	0.623730	-0.428272	-0.429091
C61	C	0.714095	-0.406830	-0.407695
H62	H	0.745976	-0.362120	-0.363144
H63	H	0.681792	-0.459570	-0.348597
H64	H	0.681844	-0.347847	-0.460590
C65	C	1.113137	-1.012400	-0.695742
H66	H	1.087916	-1.067066	-0.739630
H67	H	1.143309	-0.956360	-0.755000
H68	H	1.074533	-0.964500	-0.651027
C69	C	0.886243	-0.406816	-0.407670
H70	H	0.845818	-0.362128	-0.363112
H71	H	0.917948	-0.347834	-0.460550
H72	H	0.917901	-0.459556	-0.348556
