data_functionalizedCrystal
_audit_creation_method	'MofGen! by Chris Wilmer'
_symmetry_space_group_name_H-M	'P1'
_symmetry_Int_Tables_number	1
_symmetry_cell_setting	triclinic
loop_
_symmetry_equiv_pos_as_xyz
  x,y,z
_cell_length_a	12.759401
_cell_length_b	13.032721
_cell_length_c	13.033109
_cell_angle_alpha	105.143326
_cell_angle_beta	82.800045
_cell_angle_gamma	97.204304
loop_
_atom_site_label
_atom_site_type_symbol
_atom_site_fract_x
_atom_site_fract_y
_atom_site_fract_z
Zn1	Zn	1.625987	-0.499084	-0.654147
Zn2	Zn	1.586268	-0.654165	-0.499093
Zn3	Zn	1.430495	-0.476576	-0.476571
Zn4	Zn	1.430459	-0.676644	-0.676647
O5	O	1.518302	-0.576618	-0.576614
O6	O	1.767739	-0.519668	-0.633589
O7	O	1.548997	-0.611781	-0.347482
O8	O	1.473065	-0.330931	-0.481285
O9	O	1.738558	-0.633605	-0.519671
O10	O	1.616692	-0.347467	-0.611750
O11	O	1.434552	-0.481307	-0.330935
O12	O	1.283470	-0.503104	-0.503102
O13	O	1.473004	-0.671918	-0.822285
O14	O	1.283443	-0.650093	-0.650097
O15	O	1.616657	-0.541465	-0.805755
O16	O	1.548962	-0.805778	-0.541487
O17	O	1.434490	-0.822293	-0.671935
C18	C	1.245336	-0.576596	-0.576597
C19	C	1.128559	-0.576616	-0.576619
C20	C	1.487443	-0.852577	-0.611620
C21	C	1.474342	-0.970638	-0.626630
C22	C	1.073686	-0.653247	-0.653060
C23	C	0.963962	-0.653262	-0.653074
C24	C	0.963993	-0.500010	-0.500194
C25	C	1.073716	-0.499991	-0.500186
C26	C	1.073667	-0.741729	-0.741321
C27	C	0.963943	-0.741744	-0.741335
C28	C	1.525201	-1.015074	-0.568828
C29	C	1.511662	-1.137096	-0.584341
C30	C	1.792335	-0.576640	-0.576632
C31	C	1.909111	-0.576649	-0.576640
C32	C	1.549257	-0.611709	-0.853634
C33	C	1.562448	-0.626664	-0.971683
C34	C	1.549313	-0.299583	-0.541496
C35	C	1.562528	-0.181528	-0.526530
C36	C	1.511703	-0.568775	-1.016127
C37	C	1.525335	-0.584229	-1.138137
C38	C	1.487537	-0.541585	-0.300663
C39	C	1.474584	-0.526332	-0.182576
H40	H	1.118391	-0.437584	-0.437946
H41	H	1.615983	-0.687667	-1.023962
C42	C	1.403077	-1.040498	-0.708013
C43	C	1.463110	-1.112751	-0.784153
C44	C	1.397493	-1.177129	-0.859133
H45	H	1.372897	-0.996932	-0.742383
H46	H	1.348028	-1.078742	-0.672852
H47	H	1.518140	-1.074510	-0.819310
H48	H	1.493289	-1.156341	-0.749815
H49	H	1.342445	-1.215373	-0.823972
H50	H	1.367317	-1.133554	-0.893494
H51	H	1.438214	-1.226166	-0.910797
H52	H	1.458096	-1.189387	-0.645321
C53	C	0.908820	-0.847751	-0.725839
C54	C	0.945580	-0.930978	-0.809164
C55	C	0.894836	-1.028642	-0.794918
H56	H	0.834359	-0.847916	-0.725887
H57	H	0.923942	-0.857387	-0.659607
H58	H	0.930450	-0.921345	-0.875379
H59	H	1.020035	-0.930848	-0.809131
H60	H	0.909958	-1.038278	-0.728686
H61	H	0.820377	-1.028795	-0.794964
H62	H	0.919777	-1.085123	-0.851445
H63	H	1.578874	-0.645236	-1.190411
H64	H	0.919326	-0.437624	-0.437966
H65	H	1.578773	-0.962783	-0.507860
H66	H	1.115093	-0.730249	-0.820835
H67	H	1.421040	-0.465328	-1.130303
H68	H	1.616103	-1.129239	-0.465558
C69	C	1.440220	-0.487588	-0.946314
C70	C	1.359100	-0.539712	-0.890237
C71	C	1.293236	-0.464955	-0.825907
H72	H	1.410038	-0.453231	-0.989891
H73	H	1.480752	-0.435882	-0.897121
H74	H	1.318573	-0.591399	-0.939425
H75	H	1.389250	-0.574064	-0.846640
H76	H	1.333769	-0.413249	-0.776713
H77	H	1.263063	-0.430602	-0.869492
H78	H	1.238195	-0.500308	-0.787844
C79	C	1.103175	-0.840877	-0.715251
C80	C	1.168777	-0.896166	-0.800788
C81	C	1.195991	-0.987498	-0.776803
H82	H	1.040582	-0.885728	-0.703441
H83	H	1.139749	-0.820471	-0.652769
H84	H	1.132202	-0.916575	-0.863251
H85	H	1.231383	-0.851347	-0.812610
H86	H	1.232565	-0.967091	-0.714321
H87	H	1.133393	-1.032339	-0.764993
H88	H	1.240513	-1.025017	-0.834831
C89	C	0.934796	-0.715871	-0.840727
C90	C	1.027333	-0.698705	-0.906558
C91	C	1.000522	-0.674876	-0.998127
H92	H	0.898337	-0.653334	-0.820621
H93	H	0.890307	-0.773903	-0.878307
H94	H	1.071804	-0.640678	-0.868985
H95	H	1.063803	-0.761230	-0.926693
H96	H	0.956032	-0.732909	-1.035707
H97	H	0.964062	-0.612341	-0.978010
H98	H	1.063302	-0.663237	-1.042809
