data_functionalizedCrystal
_audit_creation_method	'MofGen! by Chris Wilmer'
_symmetry_space_group_name_H-M	'P1'
_symmetry_Int_Tables_number	1
_symmetry_cell_setting	triclinic
loop_
_symmetry_equiv_pos_as_xyz
  x,y,z
_cell_length_a	18.050591
_cell_length_b	29.839131
_cell_length_c	18.050582
_cell_angle_alpha	89.974523
_cell_angle_beta	89.979078
_cell_angle_gamma	90.037426
loop_
_atom_site_label
_atom_site_type_symbol
_atom_site_fract_x
_atom_site_fract_y
_atom_site_fract_z
Zn1	Zn	1.135224	-0.178930	-0.420016
Zn2	Zn	1.135106	-0.254052	-0.295820
Zn3	Zn	1.011044	-0.178932	-0.295827
Zn4	Zn	1.010963	-0.254028	-0.419956
O5	O	1.073084	-0.216485	-0.357905
O6	O	1.239133	-0.188904	-0.403564
O7	O	1.118634	-0.244098	-0.191896
O8	O	1.027600	-0.116064	-0.312330
O9	O	1.239047	-0.244096	-0.312317
O10	O	1.118835	-0.116063	-0.403571
O11	O	1.027485	-0.188907	-0.191902
O12	O	0.907108	-0.188884	-0.312271
O13	O	1.027462	-0.244056	-0.523888
O14	O	0.907049	-0.244057	-0.403467
O15	O	1.118756	-0.188881	-0.523933
O16	O	1.118555	-0.316916	-0.312258
O17	O	1.027348	-0.316898	-0.403460
C18	C	0.880132	-0.216469	-0.357864
C19	C	0.797586	-0.216472	-0.357864
C20	C	0.598146	-0.186434	-0.308386
C21	C	0.548711	-0.227410	-0.290106
C22	C	0.646456	-0.216486	-0.357897
C23	C	0.548810	-0.175525	-0.376175
C24	C	0.500471	-0.216495	-0.357928
C25	C	0.598108	-0.257483	-0.339583
C26	C	0.598211	-0.205570	-0.425683
C27	C	0.548798	-0.246574	-0.407429
C28	C	0.730554	-0.216480	-0.357878
C29	C	0.416374	-0.216506	-0.357948
C30	C	1.072950	-0.333208	-0.357868
C31	C	1.072961	-0.383142	-0.357877
C32	C	1.120663	-0.692782	-0.310485
C33	C	1.120754	-0.880455	-0.310514
O34	O	1.161206	-0.904717	-0.270192
N35	N	1.073238	-0.903927	-0.357961
C36	C	1.025700	-0.880478	-0.405407
O37	O	0.985292	-0.904749	-0.445769
C38	C	1.025612	-0.692806	-0.405381
C39	C	1.073126	-0.669337	-0.357926
C40	C	1.168173	-0.669312	-0.263035
C41	C	1.168147	-0.622397	-0.263025
C42	C	1.120610	-0.598951	-0.310466
C43	C	1.073100	-0.622421	-0.357917
C44	C	0.978078	-0.669358	-0.452831
C45	C	0.978062	-0.622437	-0.452822
C46	C	1.025575	-0.598967	-0.405367
C47	C	1.025537	-0.552060	-0.405348
N48	N	1.073053	-0.528588	-0.357902
C49	C	1.120589	-0.552033	-0.310461
C50	C	1.025748	-0.979009	-0.405416
C51	C	1.025769	-1.025927	-0.405422
C52	C	1.120824	-1.025900	-0.310530
C53	C	1.120799	-0.978982	-0.310521
C54	C	1.073264	-0.955537	-0.357970
C55	C	1.120530	-0.453508	-0.310444
C56	C	1.120497	-0.406588	-0.310436
C57	C	1.025445	-0.406619	-0.405331
C58	C	1.025474	-0.453534	-0.405336
C59	C	1.073023	-0.476977	-0.357890
O60	O	0.985113	-0.527769	-0.445655
O61	O	1.161002	-0.527755	-0.270116
C62	C	1.120689	-0.739698	-0.310495
C63	C	1.073178	-0.763167	-0.357946
C64	C	1.025642	-0.739722	-0.405387
C65	C	1.073199	-0.810085	-0.357951
C66	C	1.120736	-0.833531	-0.310510
C67	C	1.168252	-0.810059	-0.263064
C68	C	1.168225	-0.763143	-0.263054
C69	C	0.978126	-0.763194	-0.452833
C70	C	0.978155	-0.810109	-0.452838
C71	C	1.025692	-0.833555	-0.405397
C72	C	1.266790	-0.216502	-0.357947
C73	C	1.349336	-0.216510	-0.357964
C74	C	1.073113	-0.216465	-0.551611
C75	C	1.073126	-0.216457	-0.634156
C76	C	1.073239	-0.099307	-0.357958
C77	C	1.073305	-0.049373	-0.357981
C78	C	1.023518	-0.246420	-0.833583
C79	C	1.091269	-0.257404	-0.882980
C80	C	1.073162	-0.216423	-0.785287
C81	C	1.005449	-0.205426	-0.882971
C82	C	1.073192	-0.216390	-0.931272
C83	C	1.140949	-0.227429	-0.833597
C84	C	1.055083	-0.175431	-0.833584
C85	C	1.122881	-0.186400	-0.882959
C86	C	1.073145	-0.216442	-0.701189
C87	C	1.073218	-0.216371	-1.015369
C88	C	1.073098	-0.216473	-0.164953
C89	C	1.073230	-0.216355	-0.082407
H90	H	1.159189	-0.387480	-0.271790
C91	C	0.519705	-0.280948	-0.464014
C92	C	0.539340	-0.330899	-0.455494
C93	C	0.510248	-0.365274	-0.512076
C94	C	0.461520	-0.349697	-0.577178
C95	C	0.441883	-0.299743	-0.585701
C96	C	0.470975	-0.265369	-0.529119
H97	H	0.575413	-0.342432	-0.407299
H98	H	0.524785	-0.402253	-0.505766
H99	H	0.439984	-0.375143	-0.619063
H100	H	0.405810	-0.288210	-0.633896
H101	H	0.456438	-0.228390	-0.535429
C102	C	1.220422	-0.596586	-0.210829
C103	C	1.214427	-0.603075	-0.126399
C104	C	1.266708	-0.577269	-0.074202
C105	C	1.324984	-0.544974	-0.106435
C106	C	1.330980	-0.538483	-0.190869
C107	C	1.278699	-0.564289	-0.243066
H108	H	1.171286	-0.626983	-0.102535
H109	H	1.262269	-0.582074	-0.011698
H110	H	1.363685	-0.525870	-0.067795
H111	H	1.374121	-0.514575	-0.214734
H112	H	1.283139	-0.559485	-0.305570
H113	H	0.619673	-0.292138	-0.324073
H114	H	0.619970	-0.196318	-0.482978
H115	H	0.986787	-0.472644	-0.443980
C116	C	1.034376	-0.128632	-0.804242
C117	C	1.082158	-0.087705	-0.824828
C118	C	1.061441	-0.040907	-0.795485
C119	C	0.992941	-0.035035	-0.745556
C120	C	0.945154	-0.075964	-0.724967
C121	C	0.965871	-0.122762	-0.754310
H122	H	1.132870	-0.092050	-0.861790
H123	H	1.096816	-0.010609	-0.810726
H124	H	0.977605	-0.000392	-0.723834
H125	H	0.894442	-0.071619	-0.688004
H126	H	0.930496	-0.153060	-0.739069
C127	C	1.218352	-0.240030	-0.804432
C128	C	1.261493	-0.206983	-0.755118
C129	C	1.338895	-0.219584	-0.725953
C130	C	1.373156	-0.265232	-0.746102
C131	C	1.330015	-0.298281	-0.795418
C132	C	1.252613	-0.285680	-0.824583
H133	H	1.236131	-0.173190	-0.740200
H134	H	1.370830	-0.195118	-0.689445
H135	H	1.430454	-0.274560	-0.724512
H136	H	1.355377	-0.332075	-0.810336
H137	H	1.220678	-0.310146	-0.861091
H138	H	0.527115	-0.140885	-0.391596
C139	C	0.928074	-0.192873	-0.912269
C140	C	0.864687	-0.183039	-0.857530
C141	C	0.787311	-0.170490	-0.886824
C142	C	0.773321	-0.167775	-0.970858
C143	C	0.836710	-0.177609	-1.025603
C144	C	0.914086	-0.190158	-0.996308
H145	H	0.875041	-0.185049	-0.795318
H146	H	0.740386	-0.163210	-0.846299
H147	H	0.716043	-0.158485	-0.992544
H148	H	0.826356	-0.175600	-1.087814
H149	H	0.961010	-0.197438	-1.036834
C150	C	0.973496	-1.051740	-0.457617
C151	C	0.889072	-1.045334	-0.451472
C152	C	0.836801	-1.071145	-0.503673
C153	C	0.868954	-1.103362	-0.562019
C154	C	0.953382	-1.109769	-0.568167
C155	C	1.005653	-1.083959	-0.515966
H156	H	0.865267	-1.021483	-0.408278
H157	H	0.774302	-1.066401	-0.499121
H158	H	0.830260	-1.122469	-0.600662
H159	H	0.977188	-1.133620	-0.611361
H160	H	1.068153	-1.088702	-0.520518
C161	C	0.925829	-0.737409	-0.505022
C162	C	0.841413	-0.743919	-0.498870
C163	C	0.789110	-0.718138	-0.551060
C164	C	0.821222	-0.685846	-0.609402
C165	C	0.905643	-0.679335	-0.615556
C166	C	0.957947	-0.705116	-0.563366
H167	H	0.817637	-0.767825	-0.455679
H168	H	0.726616	-0.722958	-0.546504
H169	H	0.782504	-0.666761	-0.648036
H170	H	0.929419	-0.655429	-0.658746
H171	H	1.020440	-0.700296	-0.567922
H172	H	1.164925	-0.161018	-0.904501
C173	C	0.973450	-0.953225	-0.457612
C174	C	0.889033	-0.959731	-0.451461
C175	C	0.836734	-0.933950	-0.503656
C176	C	0.868851	-0.901663	-0.562001
C177	C	0.953272	-0.895155	-0.568155
C178	C	1.005572	-0.920936	-0.515960
H179	H	0.865254	-0.983634	-0.408268
H180	H	0.774239	-0.938768	-0.499100
H181	H	0.830135	-0.882578	-0.600639
H182	H	0.977051	-0.871253	-0.611348
H183	H	1.068066	-0.916118	-0.520516
H184	H	0.526970	-0.236650	-0.232794
H185	H	1.159250	-0.472590	-0.271810
H186	H	1.159489	-0.959875	-0.271880
C187	C	0.627428	-0.152140	-0.251765
C188	C	0.572678	-0.124430	-0.205084
C189	C	0.601960	-0.090139	-0.148462
C190	C	0.685993	-0.083557	-0.138521
C191	C	0.740747	-0.111267	-0.185204
C192	C	0.711465	-0.145558	-0.241825
H193	H	0.510468	-0.129302	-0.212441
H194	H	0.561427	-0.069626	-0.113905
H195	H	0.707669	-0.058172	-0.096607
H196	H	0.802958	-0.106395	-0.177846
H197	H	0.751999	-0.166071	-0.276382
H198	H	0.981575	-0.271821	-0.811904
C199	C	1.111951	-0.304214	-0.912303
C200	C	1.063360	-0.344990	-0.892819
C201	C	1.084035	-0.391801	-0.922141
C202	C	1.153301	-0.397835	-0.970946
C203	C	1.201896	-0.357058	-0.990433
C204	C	1.181221	-0.310248	-0.961111
H205	H	1.012081	-0.340524	-0.856688
H206	H	1.048060	-0.421986	-0.907715
H207	H	1.168605	-0.432487	-0.992652
H208	H	1.253175	-0.361524	-1.026564
H209	H	1.217195	-0.280062	-0.975537
H210	H	1.206887	-0.688397	-0.224403
H211	H	1.159531	-1.044998	-0.271902
C212	C	0.925767	-0.596648	-0.505014
C213	C	0.841349	-0.603153	-0.498869
C214	C	0.789054	-0.577365	-0.551058
C215	C	0.821176	-0.545072	-0.609392
C216	C	0.905599	-0.538565	-0.615540
C217	C	0.957894	-0.564354	-0.563351
H218	H	0.817566	-0.627059	-0.455684
H219	H	0.726559	-0.582181	-0.546507
H220	H	0.782464	-0.525982	-0.648026
H221	H	0.929381	-0.514659	-0.658725
H222	H	1.020389	-0.559537	-0.567902
C223	C	0.973159	-0.380821	-0.457515
C224	C	0.914864	-0.348607	-0.425270
C225	C	0.862583	-0.322807	-0.477459
C226	C	0.868597	-0.329223	-0.561893
C227	C	0.926895	-0.361439	-0.594142
C228	C	0.979176	-0.387238	-0.541953
H229	H	0.910410	-0.343857	-0.362764
H230	H	0.819428	-0.298959	-0.453586
H231	H	0.829896	-0.310124	-0.600526
H232	H	0.931349	-0.366189	-0.656648
H233	H	1.022331	-0.411086	-0.565826
H234	H	1.206956	-0.829156	-0.224433
C235	C	1.220497	-0.737331	-0.210856
C236	C	1.214498	-0.743820	-0.126426
C237	C	1.266773	-0.718012	-0.074226
C238	C	1.325048	-0.685715	-0.106456
C239	C	1.331049	-0.679225	-0.190890
C240	C	1.278773	-0.705033	-0.243090
H241	H	1.171357	-0.767730	-0.102564
H242	H	1.262330	-0.722817	-0.011723
H243	H	1.363745	-0.666610	-0.067814
H244	H	1.374189	-0.655315	-0.214752
H245	H	1.283216	-0.700228	-0.305594
H246	H	0.939383	-0.688459	-0.491470
H247	H	0.939458	-0.829214	-0.491481
