data_functionalizedCrystal
_audit_creation_method	'MofGen! by Chris Wilmer'
_symmetry_space_group_name_H-M	'P1'
_symmetry_Int_Tables_number	1
_symmetry_cell_setting	triclinic
loop_
_symmetry_equiv_pos_as_xyz
  x,y,z
_cell_length_a	19.288864
_cell_length_b	10.654550
_cell_length_c	17.766277
_cell_angle_alpha	89.994852
_cell_angle_beta	89.976791
_cell_angle_gamma	83.810575
loop_
_atom_site_label
_atom_site_type_symbol
_atom_site_fract_x
_atom_site_fract_y
_atom_site_fract_z
O1	O	0.922379	0.156657	-0.062834
O2	O	0.720257	0.177789	-0.062782
O3	O	0.825965	-0.015616	-0.062807
O4	O	0.816670	0.350062	-0.062810
O5	O	0.825946	-0.015625	0.062382
O6	O	0.720238	0.177780	0.062406
O7	O	0.922360	0.156647	0.062355
Cu8	Cu	0.821297	0.167212	0.073811
Cu9	Cu	0.821319	0.167224	-0.074239
O10	O	0.816652	0.350052	0.062379
C11	C	0.694366	0.177105	-0.000181
C12	C	0.617249	0.175063	-0.000162
C13	C	0.573296	0.288545	-0.000175
C14	C	0.500836	0.286627	-0.000183
C15	C	0.472333	0.171222	-0.000193
C16	C	0.516296	0.057725	-0.000176
C17	C	0.588754	0.059646	-0.000160
C18	C	0.363484	0.080503	-0.044077
C19	C	0.291027	0.078587	-0.044098
C20	C	0.248849	0.165292	-0.000239
C21	C	0.279135	0.253934	0.043630
C22	C	0.351593	0.255855	0.043646
C23	C	0.393766	0.169126	-0.000210
C24	C	0.126326	0.276702	-0.000260
C25	C	0.053865	0.274779	-0.000263
C26	C	0.069327	0.045875	-0.000264
C27	C	0.141786	0.047800	-0.000253
C28	C	0.170281	0.163217	-0.000254
C29	C	0.825273	-0.062404	-0.000213
C30	C	0.823231	-0.201803	-0.000215
C31	C	0.885471	-0.282621	-0.000229
C32	C	0.883548	-0.413601	-0.000234
C33	C	0.757141	-0.382932	-0.000208
C34	C	0.759065	-0.251955	-0.000208
C35	C	0.958451	-0.300329	-0.000240
C36	C	0.956528	-0.431309	-0.000245
C37	C	0.948250	0.157332	-0.000248
C38	C	1.025367	0.159373	-0.000273
C39	C	0.817344	0.396840	-0.000216
C40	C	0.819385	0.536240	-0.000219
N41	N	0.821287	0.167203	0.177941
N42	N	0.821335	0.167223	-0.178369
C43	C	0.868110	0.081606	0.217318
C44	C	0.868114	0.081600	0.296119
C45	C	0.821301	0.167213	0.335542
C46	C	0.774469	0.252818	0.296156
C47	C	0.774462	0.252813	0.217356
C48	C	0.812752	0.281634	0.460380
C49	C	0.812764	0.281641	0.539179
C50	C	0.821320	0.167229	0.578588
C51	C	0.829879	0.052804	0.539189
C52	C	0.829871	0.052799	0.460389
C53	C	0.821304	0.167228	0.420988
C54	C	0.868150	0.081617	0.703410
C55	C	0.868149	0.081610	0.782214
C56	C	0.774508	0.252839	0.782249
C57	C	0.774506	0.252835	0.703447
C58	C	0.821330	0.167226	0.664033
H59	H	0.266373	0.006415	-0.079822
H60	H	0.906244	0.011893	0.328185
H61	H	0.906276	0.011899	0.814274
H62	H	0.981682	-0.265204	0.053808
H63	H	0.984018	-0.473662	0.052138
C64	C	0.986331	-0.493616	-0.073268
H65	H	0.983978	-0.582128	-0.070782
H66	H	1.033530	-0.477529	-0.079051
H67	H	0.959856	-0.459644	-0.115023
H68	H	0.906235	0.011895	0.185229
H69	H	0.736332	0.322518	0.185295
H70	H	0.596492	0.382526	-0.000177
C71	C	0.722963	0.346970	0.339514
H72	H	0.695067	0.397937	0.304774
H73	H	0.748185	0.399145	0.370243
H74	H	0.693842	0.301895	0.370266
C75	C	0.409876	-0.014878	-0.092322
H76	H	0.457367	-0.001049	-0.086024
H77	H	0.397286	-0.004154	-0.143791
H78	H	0.403604	-0.098282	-0.076898
H79	H	0.704899	-0.423782	-0.000203
H80	H	0.624542	-0.032767	-0.000150
C81	C	0.839274	-0.073053	0.417049
H82	H	0.844466	-0.141195	0.451799
H83	H	0.879642	-0.075707	0.386202
H84	H	0.799501	-0.079908	0.386417
C85	C	0.723014	0.347015	0.825601
H86	H	0.695124	0.397993	0.790860
H87	H	0.748250	0.399177	0.856324
H88	H	0.693885	0.301966	0.856358
C89	C	0.452479	0.411461	-0.000208
H90	H	0.479828	0.480472	-0.000213
H91	H	0.423862	0.415480	0.043437
H92	H	0.423923	0.415451	-0.043881
C93	C	0.723007	0.347008	0.660131
H94	H	0.695131	0.398004	0.694894
H95	H	0.693876	0.301969	0.629409
H96	H	0.748245	0.399171	0.629376
H97	H	0.177574	-0.044609	-0.000247
H98	H	0.987004	-0.271578	-0.052635
C99	C	0.484946	-0.069217	-0.000192
H100	H	0.435497	-0.054109	-0.000212
H101	H	0.499970	-0.115935	0.043466
H102	H	0.500023	-0.115918	-0.043852
C103	C	0.690602	-0.163059	-0.000199
H104	H	0.652113	-0.211689	-0.000187
H105	H	0.688734	-0.111320	-0.043853
H106	H	0.688714	-0.111335	0.043464
H107	H	0.018079	0.367194	-0.000269
C108	C	0.839285	-0.073057	0.582528
H109	H	0.838054	-0.056671	0.635101
H110	H	0.882872	-0.118046	0.569597
H111	H	0.802719	-0.122090	0.569632
C112	C	0.919647	-0.012560	0.660051
H113	H	0.947527	-0.063555	0.694792
H114	H	0.948773	0.032477	0.629292
H115	H	0.894404	-0.064723	0.629329
C116	C	0.232753	0.349316	0.091880
H117	H	0.261167	0.402384	0.118004
H118	H	0.207402	0.305149	0.127143
H119	H	0.201078	0.399278	0.060251
C120	C	0.384911	0.353342	0.091902
H121	H	0.434104	0.342069	0.085624
H122	H	0.373755	0.341988	0.143366
H123	H	0.367436	0.436119	0.076476
H124	H	0.805799	0.374812	0.571252
C125	C	0.803335	0.407493	0.417034
H126	H	0.804548	0.391104	0.364462
H127	H	0.839893	0.456540	0.429922
H128	H	0.759741	0.452469	0.429971
C129	C	0.037982	-0.081069	-0.000281
H130	H	-0.011467	-0.065962	-0.000297
H131	H	0.053009	-0.127791	0.043375
H132	H	0.053057	-0.127766	-0.043942
H133	H	0.149528	0.370681	-0.000250
