data_functionalizedCrystal
_audit_creation_method	'MofGen! by Chris Wilmer'
_symmetry_space_group_name_H-M	'P1'
_symmetry_Int_Tables_number	1
_symmetry_cell_setting	triclinic
loop_
_symmetry_equiv_pos_as_xyz
  x,y,z
_cell_length_a	17.699104
_cell_length_b	17.699077
_cell_length_c	16.776229
_cell_angle_alpha	89.993415
_cell_angle_beta	90.011179
_cell_angle_gamma	96.713953
loop_
_atom_site_label
_atom_site_type_symbol
_atom_site_fract_x
_atom_site_fract_y
_atom_site_fract_z
O1	O	-0.095691	1.004089	-0.066286
O2	O	0.404309	1.504089	0.433714
O3	O	-0.108148	0.783710	-0.066291
O4	O	0.391852	1.283710	0.433709
O5	O	0.008269	0.900117	-0.066274
O6	O	0.508269	1.400117	0.433726
O7	O	-0.212107	0.887681	-0.066303
O8	O	0.287893	1.387681	0.433697
O9	O	0.008276	0.900102	0.066303
O10	O	0.508276	1.400102	0.566303
O11	O	-0.108140	0.783695	0.066286
O12	O	0.391860	1.283695	0.566286
O13	O	-0.095683	1.004073	0.066291
O14	O	0.404317	1.504073	0.566291
Zn15	Zn	-0.101911	0.893882	0.087338
Zn16	Zn	0.398089	1.393882	0.587338
Zn17	Zn	-0.101920	0.893902	-0.087337
Zn18	Zn	0.398080	1.393902	0.412663
O19	O	-0.212100	0.887666	0.066274
O20	O	0.287900	1.387666	0.566274
C21	C	-0.107698	0.755506	-0.000003
C22	C	0.392302	1.255506	0.499997
C23	C	-0.106362	0.671487	-0.000004
C24	C	0.393638	1.171487	0.499996
C25	C	-0.105728	0.632011	0.072264
C26	C	0.394272	1.132011	0.572264
C27	C	-0.104460	0.553069	0.072265
C28	C	0.395540	1.053069	0.572265
C29	C	-0.103831	0.513603	-0.000003
C30	C	0.396169	1.013603	0.499997
C31	C	-0.104462	0.553084	-0.072277
C32	C	0.395538	1.053084	0.427723
C33	C	-0.105725	0.632026	-0.072277
C34	C	0.394275	1.132026	0.427723
C35	C	-0.099369	0.234721	-0.072278
C36	C	0.400631	0.734721	0.427722
C37	C	-0.098109	0.155773	-0.072272
C38	C	0.401891	0.655773	0.427728
C39	C	-0.098104	0.155763	0.072265
C40	C	0.401896	0.655763	0.572265
C41	C	-0.099366	0.234705	0.072265
C42	C	0.400634	0.734705	0.572265
C43	C	-0.099994	0.274180	-0.000009
C44	C	0.400006	0.774180	0.499991
C45	C	-0.101368	0.359779	-0.000009
C46	C	0.398632	0.859779	0.499991
C47	C	-0.102463	0.428005	-0.000003
C48	C	0.397537	0.928005	0.499997
C49	C	0.036469	0.899661	0.000017
C50	C	0.536469	1.399661	0.500017
C51	C	0.120487	0.898317	0.000023
C52	C	0.620487	1.398317	0.500023
C53	C	0.645359	0.959061	0.000036
C54	C	1.145359	1.459061	0.500036
C55	C	0.566415	0.960320	0.000038
C56	C	1.066415	1.460320	0.500038
C57	C	0.517796	0.891984	0.000035
C58	C	1.017796	1.391984	0.500035
C59	C	0.548125	0.822385	0.000038
C60	C	1.048125	1.322385	0.500038
C61	C	0.627067	0.821127	0.000042
C62	C	1.127067	1.321127	0.500042
C63	C	0.229759	0.827458	0.000024
C64	C	0.729759	1.327458	0.500024
C65	C	0.150811	0.828722	0.000018
C66	C	0.650811	1.328722	0.500018
C67	C	0.169107	0.966651	0.000020
C68	C	0.669107	1.466651	0.500020
C69	C	0.248049	0.965393	0.000023
C70	C	0.748049	1.465393	0.500023
C71	C	0.278371	0.895794	0.000031
C72	C	0.778371	1.395794	0.500031
C73	C	0.363971	0.894430	0.000031
C74	C	0.863971	1.394430	0.500031
C75	C	0.432198	0.893348	0.000030
C76	C	0.932198	1.393348	0.500030
C77	C	0.759700	0.888122	-0.000001
C78	C	1.259700	1.388122	0.499999
C79	C	0.675682	0.889467	0.000037
C80	C	1.175682	1.389467	0.500037
C81	C	-0.096133	1.032278	0.000001
C82	C	0.403867	1.532278	0.500001
C83	C	-0.097469	1.116296	-0.000003
C84	C	0.402531	1.616296	0.499997
N85	N	-0.101904	0.893873	0.206549
N86	N	0.398096	1.393873	0.706549
N87	N	-0.101921	0.893916	-0.206549
N88	N	0.398079	1.393916	0.293451
C89	C	-0.050376	0.945434	0.248274
C90	C	0.449624	1.445434	0.748274
C91	C	-0.050375	0.945438	0.331726
C92	C	0.449625	1.445438	0.831726
C93	C	-0.101907	0.893885	0.373452
C94	C	0.398093	1.393885	0.873452
C95	C	-0.153438	0.842319	0.331721
C96	C	0.346562	1.342319	0.831721
C97	C	-0.153434	0.842311	0.248271
C98	C	0.346566	1.342311	0.748271
C99	C	-0.153452	0.842346	0.668269
C100	C	0.346548	1.342346	1.168269
C101	C	-0.153454	0.842359	0.751725
C102	C	0.346546	1.342359	1.251725
C103	C	-0.050393	0.945473	0.751724
C104	C	0.449607	1.445473	1.251724
C105	C	-0.050390	0.945466	0.668273
C106	C	0.449610	1.445466	1.168273
C107	C	-0.101918	0.893897	0.626550
C108	C	0.398082	1.393897	1.126550
C109	C	-0.101917	0.893892	0.536062
C110	C	0.398083	1.393892	1.036062
C111	C	-0.101912	0.893893	0.463939
C112	C	0.398088	1.393893	0.963939
H113	H	-0.106243	0.664166	-0.131125
H114	H	0.393757	1.164166	0.368875
H115	H	-0.195393	0.800324	0.214299
H116	H	0.304607	1.300324	0.714299
O117	O	-0.100061	0.277265	0.150214
O118	O	0.399939	0.777265	0.650214
H119	H	-0.048253	0.268959	0.184882
H120	H	0.451747	0.768959	0.684882
O121	O	0.300485	1.039100	0.000028
O122	O	0.800485	1.539100	0.500028
H123	H	0.360473	1.026533	0.000024
H124	H	0.860473	1.526533	0.500024
H125	H	0.508533	0.766746	0.000041
H126	H	1.008533	1.266746	0.500041
O127	O	-0.103774	0.510518	-0.150223
O128	O	0.396226	1.010518	0.349777
H129	H	-0.104416	0.551235	-0.200476
H130	H	0.395584	1.051235	0.299524
H131	H	-0.106246	0.664138	0.131114
H132	H	0.393754	1.164138	0.631114
H133	H	-0.099878	0.266852	-0.131127
H134	H	0.400122	0.766852	0.368873
H135	H	0.144410	1.023322	0.000003
H136	H	0.644410	1.523322	0.500003
O137	O	0.098369	0.755014	0.000020
O138	O	0.598369	1.255014	0.500020
H139	H	0.061968	0.752295	0.054051
H140	H	0.561968	1.252295	0.554051
O141	O	0.697795	1.032767	0.000047
O142	O	1.197795	1.532767	0.500047
H143	H	0.687019	1.066093	-0.053983
H144	H	1.187019	1.566093	0.446017
O145	O	-0.097775	0.113142	0.150221
O146	O	0.402225	0.613142	0.650221
H147	H	-0.096913	0.051602	0.138085
H148	H	0.403087	0.551602	0.638085
O149	O	0.533706	1.035381	0.000019
O150	O	1.033706	1.535381	0.500019
H151	H	0.580776	1.082687	0.000005
H152	H	1.080776	1.582687	0.500005
O153	O	-0.097404	0.113204	-0.150221
O154	O	0.402596	0.613204	0.349779
H155	H	-0.098038	0.153917	-0.200478
H156	H	0.401962	0.653917	0.299522
O157	O	-0.209021	0.786717	0.376726
O158	O	0.290979	1.286717	0.876726
H159	H	-0.268008	0.796252	0.360683
H160	H	0.231992	1.296252	0.860683
O161	O	0.262460	0.752396	0.000030
O162	O	0.762460	1.252396	0.500030
H163	H	0.215387	0.705092	0.000020
H164	H	0.715387	1.205092	0.500020
H165	H	0.651754	0.764457	0.000050
H166	H	1.151754	1.264457	0.500050
O167	O	0.005211	1.001028	0.203264
O168	O	0.505211	1.501028	0.703264
H169	H	-0.004344	1.060015	0.219261
H170	H	0.495656	1.560015	0.719261
O171	O	-0.103784	0.510487	0.150211
O172	O	0.396216	1.010487	0.650211
H173	H	-0.104446	0.551191	0.200463
H174	H	0.395554	1.051191	0.700463
H175	H	-0.195409	0.800358	0.634304
H176	H	0.304591	1.300358	1.134304
H177	H	-0.008416	0.987422	0.365698
H178	H	0.491584	1.487422	0.865698
O179	O	0.005194	1.001065	0.623266
O180	O	0.505194	1.501065	1.123266
H181	H	0.041032	1.036914	0.666301
H182	H	0.541032	1.536914	1.166301
H183	H	-0.008434	0.987460	0.785704
H184	H	0.491566	1.487460	1.285704
H185	H	-0.195418	0.800375	0.785697
H186	H	0.304582	1.300375	1.285697
