data_functionalizedCrystal
_audit_creation_method	'MofGen! by Chris Wilmer'
_symmetry_space_group_name_H-M	'P1'
_symmetry_Int_Tables_number	1
_symmetry_cell_setting	triclinic
loop_
_symmetry_equiv_pos_as_xyz
  x,y,z
_cell_length_a	15.297475
_cell_length_b	16.120484
_cell_length_c	15.292386
_cell_angle_alpha	83.531716
_cell_angle_beta	69.225118
_cell_angle_gamma	83.687474
loop_
_atom_site_label
_atom_site_type_symbol
_atom_site_fract_x
_atom_site_fract_y
_atom_site_fract_z
Zn1	Zn	1.491616	-0.442487	-0.792658
Zn2	Zn	1.457270	-0.600412	-0.644405
Zn3	Zn	1.309263	-0.442851	-0.610188
Zn4	Zn	1.330582	-0.559544	-0.771189
O5	O	1.397183	-0.511324	-0.704610
O6	O	1.616395	-0.480388	-0.796297
O7	O	1.414341	-0.596767	-0.510442
O8	O	1.338905	-0.327874	-0.629058
O9	O	1.591161	-0.596415	-0.687376
O10	O	1.472879	-0.327607	-0.763118
O11	O	1.305600	-0.481007	-0.485303
O12	O	1.182756	-0.441379	-0.608241
O13	O	1.375239	-0.526760	-0.903460
O14	O	1.198419	-0.527113	-0.726527
O15	O	1.493551	-0.440759	-0.919234
O16	O	1.435013	-0.709920	-0.666558
O17	O	1.341935	-0.679894	-0.759706
C18	C	1.157052	-0.479851	-0.661342
C19	C	1.054326	-0.466404	-0.642854
C20	C	0.797398	-0.607439	-0.836746
C21	C	0.893914	-0.620080	-0.854113
C22	C	0.934022	-0.581662	-0.801300
C23	C	0.877604	-0.530601	-0.731116
C24	C	0.781078	-0.517964	-0.713742
C25	C	0.917702	-0.492187	-0.678297
C26	C	0.861285	-0.441126	-0.608112
C27	C	0.764769	-0.428491	-0.590742
C28	C	0.724661	-0.466909	-0.643555
C29	C	1.014228	-0.504824	-0.695671
C30	C	0.997908	-0.415349	-0.572667
C31	C	0.901393	-0.402708	-0.555299
C32	C	1.387089	-0.724707	-0.714540
C33	C	1.382861	-0.816001	-0.718834
C34	C	1.375150	-0.983155	-0.726694
C35	C	1.419384	-1.038671	-0.682571
C36	C	1.415093	-1.131682	-0.686944
C37	C	1.379439	-0.890136	-0.722322
C38	C	1.638251	-0.542920	-0.748048
C39	C	1.740980	-0.556384	-0.766559
C40	C	1.440604	-0.479160	-0.945844
C41	C	1.459108	-0.465454	-1.048643
C42	C	1.407345	-0.297107	-0.694666
C43	C	1.411675	-0.205821	-0.690429
C44	C	1.353986	-0.543309	-0.464322
C45	C	1.335672	-0.556807	-0.361544
C46	C	1.265836	-0.608397	-0.304896
C47	C	1.248617	-0.621077	-0.208329
C48	C	1.301238	-0.582173	-0.168403
C49	C	1.371081	-0.530586	-0.225053
C50	C	1.388297	-0.517900	-0.321628
C51	C	1.423699	-0.491676	-0.185135
C52	C	1.493542	-0.440089	-0.241785
C53	C	1.510755	-0.427406	-0.338350
C54	C	1.458133	-0.466310	-0.378276
C55	C	1.406484	-0.504362	-0.088560
C56	C	1.528945	-0.413864	-0.105292
C57	C	1.546164	-0.401185	-0.201858
H58	H	1.012609	-0.591957	-0.815446
N59	N	1.470922	-1.010688	-0.631040
N60	N	1.512504	-1.062832	-0.589545
H61	H	1.548899	-1.043067	-0.553148
H62	H	1.603030	-0.359182	-0.247996
H63	H	1.334061	-1.005477	-0.767750
H64	H	1.349611	-0.546358	-0.042443
N65	N	1.283638	-0.595129	-0.069761
N66	N	1.221278	-0.641190	-0.019192
H67	H	1.208846	-0.650345	0.050478
H68	H	1.571791	-0.382182	-0.072784
N69	N	1.177274	-0.673766	-0.150479
N70	N	1.130296	-0.708497	-0.186135
H71	H	1.079906	-0.745712	-0.145278
N72	N	1.212090	-0.648116	-0.345692
N73	N	1.227468	-0.636776	-0.431915
H74	H	1.189505	-0.664828	-0.460729
N75	N	1.475715	-0.453371	-0.476919
N76	N	1.428729	-0.488119	-0.512551
H77	H	1.441144	-0.478984	-0.582219
H78	H	1.060154	-0.546397	-0.752816
N79	N	1.582079	-0.374694	-0.396212
N80	N	1.577032	-0.299457	-0.380896
H81	H	1.627405	-0.262228	-0.421760
N82	N	0.951524	-0.672238	-0.925799
N83	N	0.915706	-0.706536	-0.972947
H84	H	0.956394	-0.743376	-1.023580
N85	N	0.756412	-0.646679	-0.890670
N86	N	0.670232	-0.635392	-0.875142
H87	H	0.641283	-0.663108	-0.913228
H88	H	0.646071	-0.456618	-0.629419
H89	H	0.718834	-0.386924	-0.533584
N90	N	0.843762	-0.350543	-0.483619
N91	N	0.798255	-0.286851	-0.504139
H92	H	0.757553	-0.250008	-0.453516
N93	N	1.038880	-0.376113	-0.518718
N94	N	1.125059	-0.387403	-0.534238
H95	H	1.154002	-0.359698	-0.496138
