data_functionalizedCrystal
_audit_creation_method	'MofGen! by Chris Wilmer'
_symmetry_space_group_name_H-M	'P1'
_symmetry_Int_Tables_number	1
_symmetry_cell_setting	triclinic
loop_
_symmetry_equiv_pos_as_xyz
  x,y,z
_cell_length_a	19.377369
_cell_length_b	12.970454
_cell_length_c	19.377372
_cell_angle_alpha	89.999468
_cell_angle_beta	62.069167
_cell_angle_gamma	72.125794
loop_
_atom_site_label
_atom_site_type_symbol
_atom_site_fract_x
_atom_site_fract_y
_atom_site_fract_z
Zr1	Zr	0.939095	-0.001649	0.435800
O2	O	1.046525	-0.107987	0.323013
O3	O	0.808585	0.001115	0.485417
O4	O	0.949299	-0.170952	0.463726
O5	O	0.905810	0.233747	0.344704
O6	O	0.983603	-0.186682	0.557613
O7	O	0.905811	0.064080	0.344704
O8	O	0.731892	0.121113	0.596414
O9	O	1.157522	-0.074048	0.305903
O10	O	0.896415	0.026599	0.558472
O11	O	0.870814	0.164959	0.488405
O12	O	1.036486	-0.037627	0.462867
O13	O	1.010885	0.100733	0.392800
Zr14	Zr	0.993805	0.243863	0.585539
Zr15	Zr	0.993806	-0.026737	0.585539
Zr16	Zr	0.939094	0.268951	0.435800
Zr17	Zr	1.116123	0.052479	0.408511
Zr18	Zr	0.816778	0.189736	0.612828
O19	O	1.124315	0.241100	0.535922
O20	O	1.124316	-0.143658	0.535922
O21	O	1.046523	0.276771	0.323013
O22	O	0.886376	0.350201	0.698326
O23	O	0.886377	-0.034557	0.698326
O24	O	0.808584	0.385872	0.485417
O25	O	1.027090	0.008467	0.676635
O26	O	0.983601	0.413166	0.557613
O27	O	0.949297	0.428897	0.463726
O28	O	1.027090	0.178134	0.676635
O29	O	1.201009	-0.093990	0.424925
O30	O	0.731891	0.336204	0.596414
O31	O	0.775379	0.316263	0.715436
O32	O	0.775379	0.101172	0.715436
O33	O	1.157521	0.141042	0.305903
O34	O	1.201009	0.121101	0.424925
O35	O	0.896414	0.279841	0.558472
O36	O	0.922015	0.141481	0.628539
O37	O	1.062086	0.077255	0.532934
O38	O	1.036485	0.215615	0.462867
C39	C	0.745016	0.053402	0.544804
C40	C	0.669863	0.030424	0.556389
C41	C	0.898015	0.152488	0.323369
C42	C	0.874789	0.163139	0.259801
C43	C	0.966449	0.459586	0.510669
C44	C	0.966448	0.574463	0.510669
C45	C	0.355677	0.316271	0.411916
C46	C	0.285004	0.294753	0.422898
C47	C	0.311739	0.150316	0.496042
C48	C	0.382414	0.171825	0.485070
C49	C	0.404377	0.254803	0.443006
C50	C	0.431114	0.110357	0.516159
C51	C	0.501785	0.131861	0.505185
C52	C	0.523756	0.214833	0.463120
C53	C	0.475048	0.276307	0.432031
C54	C	0.409152	0.027375	0.558219
C55	C	0.457852	-0.034093	0.589308
C56	C	0.528521	-0.012584	0.578338
C57	C	0.550492	0.070387	0.536274
C58	C	0.577229	-0.074059	0.609428
C59	C	0.647900	-0.052555	0.598453
C60	C	0.621163	0.091891	0.525299
C61	C	1.187884	0.188812	0.476535
C62	C	1.263037	0.211791	0.464950
C63	C	0.966451	-0.217372	0.510670
C64	C	0.966452	-0.332249	0.510670
C65	C	1.163972	0.030535	-0.198784
C66	C	1.142128	0.040553	-0.258503
C67	C	0.995904	0.107601	-0.158689
C68	C	1.017736	0.097593	-0.098960
C69	C	1.101771	0.059059	-0.119015
C70	C	0.955535	0.126117	-0.019191
C71	C	0.977365	0.116105	0.040532
C72	C	1.061396	0.077569	0.020485
C73	C	1.123601	0.049047	-0.059292
C74	C	0.871500	0.164644	0.000861
C75	C	0.809299	0.193167	0.080631
C76	C	0.831129	0.183163	0.140355
C77	C	0.915160	0.144627	0.120309
C78	C	0.768924	0.211685	0.220133
C79	C	0.790754	0.201673	0.279856
C80	C	0.936990	0.134615	0.180032
C81	C	1.034885	0.089726	0.697970
C82	C	1.058111	0.079075	0.761538
C83	C	0.813451	0.022021	0.732104
C84	C	0.761524	-0.011608	0.807257
C85	C	0.745015	0.391881	0.544804
C86	C	0.669861	0.483779	0.556388
C87	C	0.813449	0.360500	0.732104
C88	C	0.761522	0.441748	0.807257
C89	C	1.119451	-0.118286	0.289235
C90	C	1.171378	-0.199533	0.214082
C91	C	1.119450	0.220193	0.289235
C92	C	1.171376	0.253822	0.214082
C93	C	1.187886	-0.149667	0.476535
C94	C	1.263039	-0.241565	0.464951
C95	C	0.723776	-0.087379	0.805975
C96	C	0.674993	-0.118998	0.876582
C97	C	0.663955	-0.074840	0.948470
C98	C	0.701709	0.000936	0.949749
C99	C	0.750496	0.032548	0.879143
C100	C	0.647932	0.586914	0.598403
C101	C	0.577326	0.673276	0.609284
C102	C	0.528648	0.656499	0.578155
C103	C	0.550583	0.553354	0.536135
C104	C	0.621191	0.466997	0.525249
C105	C	0.750503	0.407679	0.879129
C106	C	0.701724	0.484011	0.949748
C107	C	0.663960	0.594411	0.948492
C108	C	0.674984	0.628480	0.876611
C109	C	0.723767	0.552150	0.805994
C110	C	1.182406	-0.165462	0.142208
C111	C	1.231207	-0.241788	0.071586
C112	C	1.268974	-0.352186	0.072842
C113	C	1.257946	-0.386257	0.144723
C114	C	1.209150	-0.309930	0.215342
C115	C	1.209132	0.329584	0.215362
C116	C	1.257934	0.361180	0.144753
C117	C	1.268975	0.317018	0.072864
C118	C	1.231217	0.241247	0.071586
C119	C	1.182420	0.209647	0.142194
C120	C	1.311697	-0.224755	0.496090
C121	C	1.382307	-0.311098	0.485220
C122	C	1.404261	-0.414248	0.443205
C123	C	1.355595	-0.431057	0.412066
C124	C	1.284983	-0.344717	0.422941
H125	H	0.639046	0.159461	0.491047
H126	H	0.732730	0.579904	0.747475
H127	H	0.624240	0.656553	1.005999
F128	F	0.233176	0.360180	0.389802
H129	H	1.005420	0.103273	0.163700
F130	F	1.142236	0.129017	0.140820
F131	F	1.197415	-0.346210	0.291835
F132	F	1.434092	-0.293185	0.518363
F133	F	1.084630	0.066909	0.084049
H134	H	1.293835	-0.140772	0.530301
F135	F	1.320911	0.350661	-0.002278
F136	F	0.699726	0.604792	0.631543
F137	F	1.479417	-0.506129	0.431635
F138	F	1.242973	0.194258	-0.004931
H139	H	1.373481	-0.515053	0.377856
H140	H	0.732763	-0.123357	0.747446
F141	F	1.233208	-0.362621	0.389787
H142	H	0.644257	-0.180697	0.875526
F143	F	0.689952	0.047927	1.026266
H144	H	1.240176	-0.214026	0.013065
F145	F	0.598974	0.237714	0.451436
H146	H	0.781225	0.094251	0.880197
H147	H	0.559478	0.757252	0.643502
H148	H	1.308704	-0.414325	0.015333
H149	H	0.492931	0.343877	0.397778
H150	H	0.373560	0.383841	0.377664
H151	H	0.624227	-0.100589	1.005957
F152	F	0.288357	0.062005	0.540805
F153	F	0.719866	0.234174	0.101964
F154	F	1.253412	-0.010464	-0.220126
F155	F	1.298144	-0.503757	0.146047
H156	H	1.200147	0.365559	0.273891
H157	H	0.351610	0.009864	0.567148
F158	F	0.498767	0.535515	0.503009
F159	F	0.434471	-0.122405	0.634071
F160	F	0.689998	0.447729	1.026240
F161	F	0.679491	0.252682	0.241464
H162	H	0.559341	-0.141626	0.643670
F163	F	0.848268	0.175288	-0.062703
H164	H	0.927483	0.138972	-0.142371
F165	F	0.453502	0.748419	0.589747
H166	H	0.740104	0.224921	0.344809
H167	H	0.687553	-0.102609	0.623768
F168	F	1.213041	0.008048	-0.080634
H169	H	1.192786	0.017320	-0.323458
H170	H	1.288670	0.422879	0.145809
F171	F	0.644518	0.357232	0.480535
H172	H	0.781244	0.317790	0.880167
H173	H	0.644231	0.718377	0.875600
H174	H	1.151655	-0.075576	0.141172
