data_functionalizedCrystal
_audit_creation_method	'MofGen! by Chris Wilmer'
_symmetry_space_group_name_H-M	'P1'
_symmetry_Int_Tables_number	1
_symmetry_cell_setting	triclinic
loop_
_symmetry_equiv_pos_as_xyz
  x,y,z
_cell_length_a	10.686220
_cell_length_b	16.625545
_cell_length_c	10.686551
_cell_angle_alpha	85.592418
_cell_angle_beta	89.691918
_cell_angle_gamma	85.594161
loop_
_atom_site_label
_atom_site_type_symbol
_atom_site_fract_x
_atom_site_fract_y
_atom_site_fract_z
Zn1	Zn	1.972238	0.196578	0.562376
Zn2	Zn	1.955972	0.342520	0.352610
Zn3	Zn	1.746351	0.217205	0.368692
Zn4	Zn	1.762403	0.340886	0.578387
O5	O	1.859241	0.274297	0.465516
O6	O	2.145624	0.207989	0.521118
O7	O	1.914641	0.335213	0.179197
O8	O	1.776406	0.101630	0.394415
O9	O	2.133674	0.315212	0.367004
O10	O	1.942364	0.086476	0.536713
O11	O	1.760633	0.243144	0.191013
O12	O	1.572937	0.241560	0.409940
O13	O	1.803763	0.312427	0.751809
O14	O	1.584730	0.332428	0.564002
O15	O	1.957928	0.206405	0.740046
O16	O	1.930205	0.455142	0.382530
O17	O	1.787990	0.453941	0.548408
C18	C	1.533317	0.289055	0.490455
C19	C	1.393887	0.295387	0.501153
C20	C	1.859110	0.483796	0.465486
C21	C	1.859172	0.573413	0.465506
C22	C	1.859389	0.901571	0.465640
C23	C	1.859325	0.810268	0.465607
C24	C	1.859279	0.737495	0.465573
C25	C	1.859218	0.646186	0.465540
C26	C	2.186438	0.259482	0.440481
C27	C	2.325870	0.253169	0.429813
C28	C	1.884450	0.256933	0.792717
C29	C	1.895193	0.249533	0.932151
C30	C	1.859399	1.063977	0.465587
C31	C	1.859442	0.974350	0.465657
C32	C	1.834202	0.291532	0.139583
C33	C	1.823703	0.298694	0.000131
H34	H	1.345445	0.336382	0.570413
H35	H	1.754282	0.346446	0.951661
H36	H	1.964627	0.201784	0.980627
H37	H	1.374306	0.212181	0.360549
