data_functionalizedCrystal
_audit_creation_method	'MofGen! by Chris Wilmer'
_symmetry_space_group_name_H-M	'P1'
_symmetry_Int_Tables_number	1
_symmetry_cell_setting	triclinic
loop_
_symmetry_equiv_pos_as_xyz
  x,y,z
_cell_length_a	18.215407
_cell_length_b	18.215405
_cell_length_c	18.215399
_cell_angle_alpha	90.032960
_cell_angle_beta	90.016824
_cell_angle_gamma	90.025333
loop_
_atom_site_label
_atom_site_type_symbol
_atom_site_fract_x
_atom_site_fract_y
_atom_site_fract_z
Zn1	Zn	-1.125050	0.292966	-0.416103
Zn2	Zn	-0.791717	0.626299	-0.082769
Zn3	Zn	-0.458383	0.959632	0.250564
Zn4	Zn	-1.124965	0.416042	-0.293031
Zn5	Zn	-0.791632	0.749375	0.040303
Zn6	Zn	-0.458298	1.082709	0.373636
Zn7	Zn	-1.001989	0.292995	-0.293050
Zn8	Zn	-0.668656	0.626328	0.040283
Zn9	Zn	-0.335322	0.959661	0.373617
Zn10	Zn	-1.001949	0.415996	-0.416056
Zn11	Zn	-0.668615	0.749329	-0.082722
Zn12	Zn	-0.335282	1.082663	0.250611
O13	O	-1.063488	0.354500	-0.354560
O14	O	-0.730155	0.687833	-0.021226
O15	O	-0.396822	1.021166	0.312107
O16	O	-1.228023	0.309299	-0.399788
O17	O	-0.894690	0.642632	-0.066455
O18	O	-0.561356	0.975966	0.266878
O19	O	-1.108633	0.399751	-0.190049
O20	O	-0.775300	0.733084	0.143284
O21	O	-0.441967	1.066418	0.476618
O22	O	-1.018366	0.190007	-0.309401
O23	O	-0.685033	0.523340	0.023932
O24	O	-0.351699	0.856673	0.357266
O25	O	-1.227961	0.399723	-0.309368
O26	O	-0.894627	0.733056	0.023965
O27	O	-0.561294	1.066389	0.357299
O28	O	-1.108778	0.189985	-0.399807
O29	O	-0.775445	0.523318	-0.066474
O30	O	-0.442112	0.856652	0.266860
O31	O	-1.018283	0.309349	-0.190063
O32	O	-0.684950	0.642682	0.143270
O33	O	-0.351617	0.976015	0.476604
O34	O	-0.898999	0.309304	-0.309355
O35	O	-0.565666	0.642637	0.023978
O36	O	-0.232333	0.975971	0.357311
O37	O	-1.018297	0.399644	-0.519046
O38	O	-0.684964	0.732977	-0.185713
O39	O	-0.351630	1.066311	0.147621
O40	O	-0.898970	0.399672	-0.399727
O41	O	-0.565636	0.733006	-0.066394
O42	O	-0.232303	1.066339	0.266940
O43	O	-1.108739	0.309254	-0.519081
O44	O	-0.775406	0.642588	-0.185747
O45	O	-0.442072	0.975921	0.147586
O46	O	-1.108594	0.519020	-0.309322
O47	O	-0.775261	0.852353	0.024011
O48	O	-0.441927	1.185687	0.357344
O49	O	-1.018214	0.518986	-0.399708
O50	O	-0.684881	0.852320	-0.066375
O51	O	-0.351548	1.185653	0.266958
C52	C	-0.872282	0.354487	-0.354539
C53	C	-0.538949	0.687820	-0.021205
C54	C	-0.205615	1.021154	0.312128
C55	C	-0.790483	0.354499	-0.354547
C56	C	-0.457150	0.687833	-0.021214
C57	C	-0.123816	1.021166	0.312120
C58	C	-1.063410	0.545706	-0.354524
C59	C	-0.730077	0.879039	-0.021191
C60	C	-0.396744	1.212373	0.312142
C61	C	-1.063445	0.627505	-0.354534
C62	C	-0.730111	0.960838	-0.021200
C63	C	-0.396778	1.294171	0.312133
C64	C	-1.063523	0.354441	-0.546513
C65	C	-0.730190	0.687774	-0.213179
C66	C	-0.396856	1.021107	0.120154
C67	C	-1.063538	0.354416	-0.628312
C68	C	-0.730204	0.687749	-0.294978
C69	C	-0.396871	1.021082	0.038355
C70	C	-1.255441	0.354513	-0.354581
C71	C	-0.922108	0.687846	-0.021248
C72	C	-0.588774	1.021179	0.312085
C73	C	-1.337240	0.354518	-0.354591
C74	C	-1.003907	0.687852	-0.021257
C75	C	-0.670573	1.021185	0.312076
C76	C	-0.602293	0.401628	-0.401545
C77	C	-0.268960	0.734961	-0.068211
C78	C	0.064374	1.068295	0.265122
C79	C	-0.525434	0.401630	-0.401554
C80	C	-0.192101	0.734964	-0.068220
C81	C	0.141233	1.068297	0.265113
C82	C	-0.525436	0.307384	-0.307591
C83	C	-0.192102	0.640718	0.025742
C84	C	0.141231	0.974051	0.359076
C85	C	-0.602293	0.307379	-0.307586
C86	C	-0.268960	0.640712	0.025747
C87	C	0.064374	0.974046	0.359081
C88	C	-0.640720	0.354505	-0.354562
C89	C	-0.307386	0.687838	-0.021228
C90	C	0.025947	1.021172	0.312105
C91	C	-0.487003	0.354513	-0.354576
C92	C	-0.153670	0.687846	-0.021242
C93	C	0.179663	1.021179	0.312091
C94	C	-0.403670	0.354515	-0.354585
C95	C	-0.070336	0.687848	-0.021252
C96	C	0.262997	1.021182	0.312081
C97	C	-0.724059	0.354502	-0.354553
C98	C	-0.390725	0.687835	-0.021220
C99	C	-0.057392	1.021169	0.312113
C100	C	-1.063586	0.162547	-0.354611
C101	C	-0.730253	0.495880	-0.021278
C102	C	-0.396920	0.829213	0.312055
C103	C	-1.063628	0.080748	-0.354633
C104	C	-0.730295	0.414081	-0.021300
C105	C	-0.396961	0.747414	0.312033
C106	C	-1.110616	0.815692	-0.307556
C107	C	-0.777282	1.149025	0.025777
C108	C	-0.443949	1.482358	0.359110
C109	C	-1.110649	0.892551	-0.307574
C110	C	-0.777315	1.225884	0.025759
C111	C	-0.443982	1.559217	0.359092
C112	C	-1.016455	0.892555	-0.401616
C113	C	-0.683121	1.225889	-0.068283
C114	C	-0.349788	1.559222	0.265051
C115	C	-1.016426	0.815698	-0.401601
C116	C	-0.683093	1.149031	-0.068268
C117	C	-0.349759	1.482365	0.265065
C118	C	-1.063506	0.777268	-0.354567
C119	C	-0.730172	1.110602	-0.021234
C120	C	-0.396839	1.443935	0.312099
C121	C	-1.063567	0.930984	-0.354600
C122	C	-0.730234	1.264318	-0.021266
C123	C	-0.396900	1.597651	0.312067
C124	C	-1.063602	1.014318	-0.354619
C125	C	-0.730269	1.347651	-0.021286
C126	C	-0.396936	1.680985	0.312047
C127	C	-1.063471	0.693929	-0.354548
C128	C	-0.730138	1.027263	-0.021215
C129	C	-0.396805	1.360596	0.312118
C130	C	-1.016532	0.307311	-0.816514
C131	C	-0.683199	0.640645	-0.483181
C132	C	-0.349866	0.973978	-0.149847
C133	C	-1.016545	0.307297	-0.893373
C134	C	-0.683212	0.640630	-0.560039
C135	C	-0.349879	0.973963	-0.226706
C136	C	-1.110631	0.401432	-0.893347
C137	C	-0.777298	0.734765	-0.560014
C138	C	-0.443964	1.068099	-0.226681
C139	C	-1.110614	0.401450	-0.816490
C140	C	-0.777281	0.734783	-0.483157
C141	C	-0.443947	1.068117	-0.149823
C142	C	-1.063566	0.354386	-0.778075
C143	C	-0.730232	0.687719	-0.444742
C144	C	-0.396899	1.021052	-0.111409
C145	C	-1.063596	0.354353	-0.931791
C146	C	-0.730262	0.687686	-0.598458
C147	C	-0.396929	1.021019	-0.265125
C148	C	-1.063610	0.354337	-1.015125
C149	C	-0.730277	0.687670	-0.681792
C150	C	-0.396943	1.021004	-0.348458
C151	C	-1.063550	0.354402	-0.694736
C152	C	-0.730217	0.687735	-0.361403
C153	C	-0.396884	1.021069	-0.028070
C154	C	-1.063496	0.354505	-0.163353
C155	C	-0.730163	0.687838	0.169980
C156	C	-0.396829	1.021172	0.503313
C157	C	-1.063624	0.354323	-0.081555
C158	C	-0.730290	0.687656	0.251778
C159	C	-0.396957	1.020989	0.585112
H160	H	-0.633578	0.439999	-0.439797
H161	H	-0.300244	0.773333	-0.106464
H162	H	0.033089	1.106666	0.226870
H163	H	-0.978245	0.268965	-0.924666
H164	H	-0.644912	0.602298	-0.591333
H165	H	-0.311579	0.935631	-0.257999
H166	H	-0.494150	0.440002	-0.439813
H167	H	-0.160817	0.773335	-0.106480
H168	H	0.172516	1.106668	0.226854
F169	F	-0.966286	0.774802	-0.451643
F170	F	-0.632952	1.108136	-0.118309
F171	F	-0.299619	1.441469	0.215024
F172	F	-1.160702	0.451518	-0.934237
F173	F	-0.827368	0.784851	-0.600904
F174	F	-0.494035	1.118184	-0.267571
H175	H	-1.148916	0.439786	-0.785192
H176	H	-0.815583	0.773120	-0.451859
H177	H	-0.482250	1.106453	-0.118526
H178	H	-0.978123	0.923854	-0.439908
H179	H	-0.644790	1.257187	-0.106575
H180	H	-0.311457	1.590521	0.226759
F181	F	-0.484533	0.257233	-0.257598
F182	F	-0.151199	0.590567	0.075735
F183	F	0.182134	0.923900	0.409069
H184	H	-1.148952	0.784404	-0.269260
H185	H	-0.815618	1.117737	0.064074
H186	H	-0.482285	1.451071	0.397407
F187	F	-1.160792	0.933440	-0.257541
F188	F	-0.827458	1.266774	0.075793
F189	F	-0.494125	1.600107	0.409126
F190	F	-0.643192	0.257217	-0.257582
F191	F	-0.309859	0.590551	0.075752
F192	F	0.023475	0.923884	0.409085
H193	H	-0.978223	0.268989	-0.785239
H194	H	-0.644889	0.602322	-0.451906
H195	H	-0.311556	0.935655	-0.118572
