data_functionalizedCrystal
_audit_creation_method	'MofGen! by Chris Wilmer'
_symmetry_space_group_name_H-M	'P1'
_symmetry_Int_Tables_number	1
_symmetry_cell_setting	triclinic
loop_
_symmetry_equiv_pos_as_xyz
  x,y,z
_cell_length_a	19.805407
_cell_length_b	12.759394
_cell_length_c	19.805399
_cell_angle_alpha	89.976033
_cell_angle_beta	89.980427
_cell_angle_gamma	90.014837
loop_
_atom_site_label
_atom_site_type_symbol
_atom_site_fract_x
_atom_site_fract_y
_atom_site_fract_z
Zn1	Zn	1.034790	-0.418291	-0.382737
Zn2	Zn	1.034728	-0.593984	-0.269556
Zn3	Zn	0.921605	-0.418320	-0.269561
Zn4	Zn	0.921591	-0.593928	-0.382702
O5	O	0.978178	-0.506131	-0.326139
O6	O	1.129498	-0.441608	-0.367735
O7	O	1.019701	-0.570717	-0.174840
O8	O	0.936651	-0.271295	-0.284591
O9	O	1.129453	-0.570689	-0.284581
O10	O	1.019808	-0.271274	-0.367740
O11	O	0.936590	-0.441658	-0.174844
O12	O	0.826886	-0.441603	-0.284558
O13	O	0.936628	-0.570594	-0.477423
O14	O	0.826876	-0.570622	-0.367682
O15	O	1.019794	-0.441554	-0.477449
O16	O	1.019688	-0.740998	-0.284548
O17	O	0.936567	-0.740957	-0.367676
C18	C	0.802322	-0.506111	-0.326117
C19	C	0.727090	-0.506127	-0.326124
C20	C	0.691759	-0.573409	-0.369336
C21	C	0.621070	-0.573411	-0.369346
C22	C	0.585715	-0.506136	-0.326139
C23	C	0.621051	-0.438847	-0.282924
C24	C	0.691739	-0.438841	-0.282919
C25	C	0.335978	-0.438870	-0.282947
C26	C	0.265286	-0.438884	-0.282954
C27	C	0.265310	-0.573440	-0.369374
C28	C	0.335997	-0.573434	-0.369368
C29	C	0.371327	-0.506142	-0.326157
C30	C	0.447976	-0.506139	-0.326148
C31	C	0.509068	-0.506143	-0.326144
C32	C	0.978138	-0.779098	-0.326123
C33	C	0.978182	-0.895875	-0.326138
C34	C	1.064801	-0.895864	-0.239641
C35	C	1.108128	-0.950720	-0.196401
C36	C	1.108168	-1.060441	-0.196419
C37	C	1.064877	-1.115310	-0.239684
C38	C	1.021550	-1.060455	-0.282925
C39	C	1.021514	-0.950730	-0.282900
C40	C	0.934936	-1.060465	-0.369424
C41	C	0.934892	-0.950744	-0.369403
C42	C	0.891645	-1.115334	-0.412689
C43	C	0.848314	-1.060478	-0.455927
C44	C	0.848275	-0.950750	-0.455906
C45	C	0.891565	-0.895888	-0.412644
C46	C	1.154721	-0.506152	-0.326161
C47	C	1.229953	-0.506161	-0.326171
C48	C	0.978216	-0.506065	-0.502682
C49	C	0.978233	-0.506036	-0.577914
C50	C	0.978238	-0.232097	-0.326170
C51	C	0.978263	-0.115321	-0.326183
C52	C	1.021539	-0.438842	-0.613272
C53	C	1.021545	-0.438811	-0.683961
C54	C	0.978249	-0.505982	-0.719289
C55	C	0.934939	-0.573179	-0.683926
C56	C	0.934929	-0.573203	-0.613239
C57	C	0.934977	-0.573081	-0.969000
C58	C	0.934992	-0.573054	-1.039692
C59	C	1.021594	-0.438689	-1.039721
C60	C	1.021584	-0.438713	-0.969034
C61	C	0.978271	-0.505907	-0.933677
C62	C	0.978263	-0.505937	-0.857028
C63	C	0.978260	-0.505957	-0.795937
C64	C	0.978180	-0.506121	-0.150283
C65	C	0.978295	-0.505853	-0.075051
H66	H	0.720505	-0.384048	-0.247734
F67	F	0.888907	-0.644548	-1.077290
F68	F	0.888857	-0.644663	-0.721527
H69	H	0.891533	-0.806547	-0.412618
F70	F	0.729381	-0.645018	-0.415321
H71	H	1.143452	-1.105105	-0.161213
F72	F	0.888835	-0.644719	-0.575608
H73	H	1.064919	-1.204651	-0.239701
H74	H	0.364780	-0.628219	-0.404550
F75	F	0.583471	-0.645020	-0.415339
H76	H	1.056811	-0.384097	-0.712746
H77	H	0.236502	-0.384094	-0.247770
H78	H	0.236535	-0.628229	-0.404562
H79	H	1.143377	-0.906036	-0.161176
H80	H	1.056797	-0.384147	-0.584513
H81	H	1.056842	-0.384020	-0.940273
H82	H	1.056859	-0.383973	-1.068518
F83	F	0.888879	-0.644594	-0.931379
H84	H	0.891683	-1.204675	-0.412704
H85	H	0.364736	-0.384085	-0.247756
F86	F	1.064911	-0.779089	-0.239767
F87	F	0.583422	-0.367241	-0.236944
H88	H	0.813073	-1.105161	-0.491153
H89	H	0.812996	-0.906092	-0.491120
