data_functionalizedCrystal
_audit_creation_method	'MofGen! by Chris Wilmer'
_symmetry_space_group_name_H-M	'P1'
_symmetry_Int_Tables_number	1
_symmetry_cell_setting	triclinic
loop_
_symmetry_equiv_pos_as_xyz
  x,y,z
_cell_length_a	18.050589
_cell_length_b	18.215407
_cell_length_c	18.215399
_cell_angle_alpha	89.986109
_cell_angle_beta	89.973988
_cell_angle_gamma	90.025680
loop_
_atom_site_label
_atom_site_type_symbol
_atom_site_fract_x
_atom_site_fract_y
_atom_site_fract_z
Zn1	Zn	-0.295700	1.125033	-0.416080
Zn2	Zn	0.204300	1.625033	0.083920
Zn3	Zn	-0.419900	1.124941	-0.293024
Zn4	Zn	0.080100	1.624941	0.206976
Zn5	Zn	-0.295723	1.001972	-0.293034
Zn6	Zn	0.204277	1.501972	0.206966
Zn7	Zn	-0.419847	1.001924	-0.416055
Zn8	Zn	0.080153	1.501924	0.083945
O9	O	-0.357792	1.063468	-0.354548
O10	O	0.142208	1.563468	0.145452
O11	O	-0.312188	1.228005	-0.399763
O12	O	0.187812	1.728005	0.100237
O13	O	-0.403459	1.108610	-0.190041
O14	O	0.096541	1.608610	0.309959
O15	O	-0.191795	1.018355	-0.309372
O16	O	0.308205	1.518355	0.190628
O17	O	-0.403437	1.227937	-0.309354
O18	O	0.096563	1.727937	0.190646
O19	O	-0.191778	1.108767	-0.399773
O20	O	0.308222	1.608767	0.100227
O21	O	-0.312227	1.018265	-0.190048
O22	O	0.187773	1.518265	0.309952
O23	O	-0.312176	0.898981	-0.309347
O24	O	0.187824	1.398981	0.190653
O25	O	-0.403347	1.018274	-0.519042
O26	O	0.096653	1.518274	-0.019042
O27	O	-0.403369	0.898946	-0.399729
O28	O	0.096631	1.398946	0.100271
O29	O	-0.312136	1.108721	-0.519061
O30	O	0.187864	1.608721	-0.019061
O31	O	-0.523818	1.108564	-0.309329
O32	O	-0.023818	1.608564	0.190671
O33	O	-0.523779	1.018184	-0.399719
O34	O	-0.023779	1.518184	0.100281
C35	C	-0.357770	0.872261	-0.354537
C36	C	0.142230	1.372261	0.145463
C37	C	-0.357778	0.790462	-0.354549
C38	C	0.142222	1.290462	0.145451
C39	C	-0.405355	0.525406	-0.401546
C40	C	0.094645	1.025406	0.098454
C41	C	-0.405348	0.602265	-0.401542
C42	C	0.094652	1.102265	0.098458
C43	C	-0.310247	0.602271	-0.307563
C44	C	0.189753	1.102271	0.192437
C45	C	-0.310257	0.525413	-0.307564
C46	C	0.189743	1.025413	0.192436
C47	C	-0.357810	0.486983	-0.354559
C48	C	0.142190	0.986983	0.145441
C49	C	-0.357793	0.640699	-0.354555
C50	C	0.142207	1.140699	0.145445
C51	C	-0.357786	0.724033	-0.354551
C52	C	0.142214	1.224033	0.145449
C53	C	-0.357819	0.403644	-0.354563
C54	C	0.142181	0.903644	0.145437
C55	C	-0.550745	1.063379	-0.354536
C56	C	-0.050745	1.563379	0.145464
C57	C	-0.633290	1.063408	-0.354555
C58	C	-0.133290	1.563408	0.145445
C59	C	-0.832747	1.014308	-0.403693
C60	C	-0.332747	1.514308	0.096307
C61	C	-0.882189	0.996372	-0.336539
C62	C	-0.382189	1.496372	0.163461
C63	C	-0.784421	1.063480	-0.354565
C64	C	-0.284421	1.563480	0.145435
C65	C	-0.882060	1.081453	-0.421726
C66	C	-0.382060	1.581453	0.078274
C67	C	-0.930406	1.063549	-0.354580
C68	C	-0.430406	1.563549	0.145420
C69	C	-0.832776	1.045509	-0.287376
C70	C	-0.332776	1.545509	0.212624
C71	C	-0.832642	1.130621	-0.372608
C72	C	-0.332642	1.630621	0.127392
C73	C	-0.882062	1.112710	-0.305409
C74	C	-0.382062	1.612710	0.194591
C75	C	-0.700322	1.063439	-0.354557
C76	C	-0.200322	1.563439	0.145443
C77	C	-1.014502	1.063590	-0.354580
C78	C	-0.514502	1.563590	0.145420
C79	C	-0.164087	1.063577	-0.354577
C80	C	0.335913	1.563577	0.145423
C81	C	-0.081541	1.063623	-0.354589
C82	C	0.418459	1.563623	0.145411
C83	C	-0.357733	1.063502	-0.546501
C84	C	0.142267	1.563502	-0.046501
C85	C	-0.357708	1.063517	-0.628300
C86	C	0.142292	1.563517	-0.128300
C87	C	-0.357816	1.255420	-0.354560
C88	C	0.142184	1.755420	0.145440
C89	C	-0.357826	1.337219	-0.354565
C90	C	0.142174	1.837219	0.145435
C91	C	-0.310171	1.016514	-0.816499
C92	C	0.189829	1.516514	-0.316499
C93	C	-0.310156	1.016527	-0.893358
C94	C	0.189844	1.516527	-0.393358
C95	C	-0.405156	1.110608	-0.893339
C96	C	0.094844	1.610608	-0.393339
C97	C	-0.405174	1.110591	-0.816482
C98	C	0.094826	1.610591	-0.316482
C99	C	-0.357677	1.063545	-0.778064
C100	C	0.142323	1.563545	-0.278064
C101	C	-0.357644	1.063575	-0.931780
C102	C	0.142356	1.563575	-0.431780
C103	C	-0.357628	1.063589	-1.015114
C104	C	0.142372	1.563589	-0.515114
C105	C	-0.357694	1.063530	-0.694725
C106	C	0.142306	1.563530	-0.194725
C107	C	-0.357798	1.063475	-0.163342
C108	C	0.142202	1.563475	0.336658
C109	C	-0.357614	1.063603	-0.081543
C110	C	0.142386	1.563603	0.418457
H111	H	-0.444076	0.494118	-0.439812
H112	H	0.055924	0.994118	0.060188
Br113	Br	-0.469880	0.654408	-0.465309
Br114	Br	0.030120	1.154408	0.034691
Br115	Br	-0.245711	0.654431	-0.243790
Br116	Br	0.254289	1.154431	0.256210
H117	H	-0.443826	1.148911	-0.924628
H118	H	0.056174	1.648911	-0.424628
Br119	Br	-0.918459	0.901786	-0.311102
Br120	Br	-0.418459	1.401786	0.188898
Br121	Br	-0.796848	1.020112	-0.192692
Br122	Br	-0.296848	1.520112	0.307308
Br123	Br	-0.469657	1.174417	-0.764314
Br124	Br	0.030343	1.674417	-0.264314
Br125	Br	-0.918149	1.106742	-0.516379
Br126	Br	-0.418149	1.606742	-0.016379
H127	H	-0.271540	0.494128	-0.269298
H128	H	0.228460	0.994128	0.230702
H129	H	-0.271496	0.978207	-0.785221
H130	H	0.228504	1.478207	-0.285221
Br131	Br	-0.796652	0.944903	-0.472843
Br132	Br	-0.296652	1.444903	0.027157
Br133	Br	-0.917927	1.182072	-0.236099
Br134	Br	-0.417927	1.682072	0.263901
H135	H	-0.810865	1.187355	-0.387887
H136	H	-0.310865	1.687355	0.112113
H137	H	-0.271472	0.978229	-0.924649
H138	H	0.228528	1.478229	-0.424649
