data_functionalizedCrystal
_audit_creation_method	'MofGen! by Chris Wilmer'
_symmetry_space_group_name_H-M	'P1'
_symmetry_Int_Tables_number	1
_symmetry_cell_setting	triclinic
loop_
_symmetry_equiv_pos_as_xyz
  x,y,z
_cell_length_a	12.837943
_cell_length_b	10.654550
_cell_length_c	9.730223
_cell_angle_alpha	90.001479
_cell_angle_beta	89.997877
_cell_angle_gamma	90.343066
loop_
_atom_site_label
_atom_site_type_symbol
_atom_site_fract_x
_atom_site_fract_y
_atom_site_fract_z
O1	O	1.377801	-0.326750	-0.114248
O2	O	1.075880	-0.310609	-0.114257
O3	O	1.233782	-0.136698	-0.114253
O4	O	1.219899	-0.500662	-0.114251
O5	O	1.233772	-0.136692	0.114327
O6	O	1.075869	-0.310603	0.114323
O7	O	1.377791	-0.326744	0.114332
Zn8	Zn	1.226829	-0.318672	0.150620
Zn9	Zn	1.226842	-0.318681	-0.150544
O10	O	1.219888	-0.500655	0.114329
C11	C	1.037215	-0.305153	0.000032
C12	C	0.922021	-0.288891	0.000028
C13	C	1.232758	-0.089786	0.000034
C14	C	1.229708	0.049990	0.000024
N15	N	1.226827	-0.318667	0.356156
C16	C	0.682468	-0.484395	0.000049
C17	C	0.574232	-0.469121	0.000046
C18	C	0.597312	-0.243070	0.000031
C19	C	0.705547	-0.258344	0.000033
C20	C	0.748121	-0.379010	0.000040
C21	C	0.856359	-0.394284	0.000033
C22	C	0.879436	-0.168233	0.000027
C23	C	0.771201	-0.152959	0.000024
C24	C	1.416456	-0.332200	0.000040
C25	C	1.531650	-0.348462	0.000035
C26	C	1.220913	-0.547568	0.000039
C27	C	1.223963	-0.687344	0.000039
C28	C	1.225404	0.246998	-0.124565
C29	C	1.228280	0.115664	-0.124573
C30	C	1.228270	0.115658	0.124638
C31	C	1.225401	0.246990	0.124644
N32	N	1.226852	-0.318677	-0.356081
C33	C	1.296770	-0.241698	0.428084
C34	C	1.296781	-0.241699	0.571967
C35	C	1.156901	-0.395650	0.571982
C36	C	1.156886	-0.395641	0.428101
H37	H	0.891020	-0.492536	0.000041
O38	O	0.729789	-0.035776	-0.000229
C39	C	0.667852	-0.020206	-0.118596
H40	H	0.693923	-0.088957	-0.201331
H41	H	0.676828	0.079926	-0.158347
H42	H	0.582722	-0.038993	-0.091826
O43	O	1.224168	0.310851	0.245652
C44	C	1.312184	0.390343	0.253106
H45	H	1.375758	0.353202	0.182420
H46	H	1.342239	0.393024	0.363319
H47	H	1.289730	0.489081	0.219610
H48	H	1.099925	-0.458318	0.369534
H49	H	0.717132	-0.582647	0.000052
O50	O	1.364739	-0.166803	0.358408
C51	C	1.426490	-0.098891	0.452754
H52	H	1.383954	-0.092359	0.555326
H53	H	1.441596	-0.000414	0.411191
H54	H	1.503853	-0.148981	0.468035
O55	O	1.364582	-0.166793	0.641898
C56	C	1.308481	-0.082578	0.725166
H57	H	1.226644	-0.070599	0.681825
H58	H	1.350101	0.012228	0.726794
H59	H	1.303333	-0.121263	0.834209
O60	O	1.229469	0.051795	0.245631
C61	C	1.141440	-0.027681	0.253045
H62	H	1.077893	0.009472	0.182335
H63	H	1.111353	-0.030356	0.363245
H64	H	1.163892	-0.126423	0.219553
O65	O	1.089071	-0.470392	0.642085
C66	C	1.104065	-0.453878	0.784503
H67	H	1.186214	-0.416831	0.804138
H68	H	1.093209	-0.547680	0.839175
H69	H	1.044898	-0.383771	0.825357
O70	O	0.555773	-0.125953	-0.000022
C71	C	0.446164	-0.135078	0.000027
H72	H	0.421468	-0.230127	-0.043251
H73	H	0.412389	-0.057092	-0.066325
H74	H	0.416001	-0.125393	0.109694
H75	H	0.932904	-0.082421	0.000011
H76	H	1.224232	0.300459	-0.226026
H77	H	1.229455	0.062210	-0.226038
H78	H	0.520780	-0.554937	0.000057
