data_functionalizedCrystal
_audit_creation_method	'MofGen! by Chris Wilmer'
_symmetry_space_group_name_H-M	'P1'
_symmetry_Int_Tables_number	1
_symmetry_cell_setting	triclinic
loop_
_symmetry_equiv_pos_as_xyz
  x,y,z
_cell_length_a	14.519731
_cell_length_b	14.519731
_cell_length_c	9.730223
_cell_angle_alpha	89.997677
_cell_angle_beta	89.999699
_cell_angle_gamma	83.688853
loop_
_atom_site_label
_atom_site_type_symbol
_atom_site_fract_x
_atom_site_fract_y
_atom_site_fract_z
O1	O	1.223859	0.120980	-0.114296
O2	O	1.723859	0.620980	0.385704
O3	O	0.955386	0.135195	-0.114298
O4	O	1.455386	0.635195	0.385702
O5	O	1.096731	-0.006149	-0.114285
O6	O	1.596731	0.493851	0.385715
O7	O	1.082515	0.262324	-0.114310
O8	O	1.582515	0.762324	0.385690
O9	O	1.096729	-0.006145	0.114295
O10	O	1.596729	0.493855	0.614295
O11	O	0.955385	0.135199	0.114281
O12	O	1.455385	0.635199	0.614281
O13	O	1.223858	0.120983	0.114284
O14	O	1.723858	0.620983	0.614284
Zn15	Zn	1.089621	0.128092	0.150575
Zn16	Zn	1.589621	0.628092	0.650575
Zn17	Zn	1.089623	0.128087	-0.150589
Zn18	Zn	1.589623	0.628087	0.349411
O19	O	1.082513	0.262328	0.114270
O20	O	1.582513	0.762328	0.614270
C21	C	0.921026	0.134531	-0.000009
C22	C	1.421026	0.634531	0.499991
C23	C	0.818645	0.132535	-0.000009
C24	C	1.318645	0.632535	0.499991
C25	C	0.735501	0.130913	-0.000015
C26	C	1.235501	0.630913	0.499985
C27	C	0.631192	0.128887	-0.000015
C28	C	1.131192	0.628887	0.499985
C29	C	0.548053	0.127278	-0.000015
C30	C	1.048053	0.627278	0.499985
C31	C	0.443738	0.125252	-0.000018
C32	C	0.943738	0.625252	0.499982
C33	C	1.096064	-0.040507	0.000006
C34	C	1.596064	0.459493	0.500006
C35	C	1.094068	-0.142887	0.000006
C36	C	1.594068	0.357113	0.500006
C37	C	1.092446	-0.226031	0.000003
C38	C	1.592446	0.273969	0.500003
C39	C	1.090419	-0.330340	-0.000007
C40	C	1.590419	0.169660	0.499993
C41	C	1.088811	-0.413479	-0.000016
C42	C	1.588811	0.086521	0.499984
C43	C	1.086785	-0.517795	-0.000024
C44	C	1.586785	-0.017795	0.499976
C45	C	1.258218	0.121648	-0.000009
C46	C	1.758218	0.621648	0.499991
C47	C	1.360598	0.123643	-0.000017
C48	C	1.860598	0.623643	0.499983
C49	C	1.083180	0.296685	-0.000023
C50	C	1.583180	0.796685	0.499977
C51	C	1.085176	0.399066	-0.000033
C52	C	1.585176	0.899066	0.499967
N53	N	1.089626	0.128094	0.356111
N54	N	1.589626	0.628094	0.856111
N55	N	1.089625	0.128077	-0.356126
N56	N	1.589625	0.628077	0.143874
C57	C	1.152229	0.065528	0.428043
C58	C	1.652229	0.565528	0.928043
C59	C	1.152227	0.065517	0.571926
C60	C	1.652227	0.565517	1.071926
C61	C	1.027015	0.190646	0.571932
C62	C	1.527015	0.690646	1.071932
C63	C	1.027014	0.190652	0.428052
C64	C	1.527014	0.690652	0.928052
C65	C	1.224522	-0.006712	0.428041
C66	C	1.724522	0.493288	0.928041
C67	C	1.224520	-0.006723	0.571924
C68	C	1.724520	0.493277	1.071924
H69	H	0.976029	0.241591	0.369486
H70	H	1.476029	0.741591	0.869486
H71	H	1.209271	-0.077490	0.388993
H72	H	1.709271	0.422510	0.888993
Br73	Br	1.187942	-0.118104	0.646312
Br74	Br	1.687942	0.381896	1.146312
Br75	Br	1.335856	0.029963	0.353644
Br76	Br	1.835856	0.529963	0.853644
Br77	Br	1.342460	0.018777	0.637023
Br78	Br	1.842460	0.518777	1.137023
H79	H	0.976037	0.241579	0.630522
H80	H	1.476037	0.741579	1.130522
