data_functionalizedCrystal
_audit_creation_method	'MofGen! by Chris Wilmer'
_symmetry_space_group_name_H-M	'P1'
_symmetry_Int_Tables_number	1
_symmetry_cell_setting	triclinic
loop_
_symmetry_equiv_pos_as_xyz
  x,y,z
_cell_length_a	16.959455
_cell_length_b	12.827892
_cell_length_c	12.827885
_cell_angle_alpha	89.970214
_cell_angle_beta	89.979491
_cell_angle_gamma	90.014820
loop_
_atom_site_label
_atom_site_type_symbol
_atom_site_fract_x
_atom_site_fract_y
_atom_site_fract_z
Zn1	Zn	1.208455	-0.415998	-0.590883
Zn2	Zn	1.708455	0.084002	-0.090883
Zn3	Zn	1.208375	-0.590776	-0.416143
Zn4	Zn	1.708375	-0.090776	0.083857
Zn5	Zn	1.076270	-0.416048	-0.416153
Zn6	Zn	1.576270	0.083952	0.083847
Zn7	Zn	1.076259	-0.590696	-0.590840
Zn8	Zn	1.576259	-0.090696	-0.090840
O9	O	1.142340	-0.503380	-0.503505
O10	O	1.642340	-0.003380	-0.003505
O11	O	1.319055	-0.439196	-0.567718
O12	O	1.819055	0.060804	-0.067718
O13	O	1.190822	-0.567652	-0.269909
O14	O	1.690822	-0.067652	0.230091
O15	O	1.093843	-0.269805	-0.439354
O16	O	1.593843	0.230195	0.060646
O17	O	1.318996	-0.567604	-0.439337
O18	O	1.818996	-0.067604	0.060663
O19	O	1.190958	-0.269769	-0.567727
O20	O	1.690958	0.230231	-0.067727
O21	O	1.093765	-0.439279	-0.269916
O22	O	1.593765	0.060721	0.230084
O23	O	0.965658	-0.439202	-0.439311
O24	O	1.465658	0.060798	0.060689
O25	O	1.093824	-0.567468	-0.737082
O26	O	1.593824	-0.067468	-0.237082
O27	O	0.965649	-0.567516	-0.567653
O28	O	1.465649	-0.067516	-0.067653
O29	O	1.190948	-0.439119	-0.737114
O30	O	1.690948	0.060881	-0.237114
O31	O	1.190811	-0.737001	-0.439295
O32	O	1.690811	-0.237001	0.060705
O33	O	1.093746	-0.736943	-0.567644
O34	O	1.593746	-0.236943	-0.067644
C35	C	1.142290	-0.774889	-0.503486
C36	C	1.642290	-0.274889	-0.003486
C37	C	1.142341	-0.891043	-0.503513
C38	C	1.642341	-0.391043	-0.003513
C39	C	0.936973	-0.503357	-0.503479
C40	C	1.436973	-0.003357	-0.003479
C41	C	0.849117	-0.503372	-0.503493
C42	C	1.349117	-0.003372	-0.003493
C43	C	1.094353	-1.062877	-0.567004
C44	C	1.594353	-0.562877	-0.067004
C45	C	1.094299	-0.942827	-0.566978
C46	C	1.594299	-0.442827	-0.066978
C47	C	0.807810	-0.570133	-0.436556
C48	C	1.307810	-0.070133	0.063444
C49	C	0.807870	-0.436619	-0.570438
C50	C	1.307870	0.063381	-0.070438
C51	C	0.725324	-0.436628	-0.570450
C52	C	1.225324	0.063372	-0.070450
C53	C	0.684017	-0.503389	-0.503514
C54	C	1.184017	-0.003389	-0.003514
C55	C	0.725257	-0.570141	-0.436564
C56	C	1.225257	-0.070141	0.063436
C57	C	0.684078	-0.369869	-0.637391
C58	C	1.184078	0.130131	-0.137391
C59	C	0.601527	-0.369873	-0.637406
C60	C	1.101527	0.130127	-0.137406
C61	C	0.560219	-0.436640	-0.570473
C62	C	1.060219	0.063360	-0.070473
C63	C	0.601464	-0.503397	-0.503522
C64	C	1.101464	-0.003397	-0.003522
C65	C	0.560157	-0.570158	-0.436585
C66	C	1.060157	-0.070158	0.063415
C67	C	0.601400	-0.636920	-0.369638
C68	C	1.101400	-0.136920	0.130362
C69	C	0.683949	-0.636908	-0.369632
C70	C	1.183949	-0.136908	0.130368
C71	C	0.477671	-0.436652	-0.570479
C72	C	0.977671	0.063348	-0.070479
C73	C	0.477604	-0.570166	-0.436593
C74	C	0.977604	-0.070166	0.063407
C75	C	1.348508	-0.503403	-0.503531
C76	C	1.848508	-0.003403	-0.003531
C77	C	1.436364	-0.503413	-0.503543
C78	C	1.936364	-0.003413	-0.003543
C79	C	1.142393	-0.503279	-0.776075
C80	C	1.642393	-0.003279	-0.276075
C81	C	1.142416	-0.503236	-0.892228
C82	C	1.642416	-0.003236	-0.392228
C83	C	1.142411	-0.230809	-0.503546
C84	C	1.642411	0.269191	-0.003546
C85	C	1.142441	-0.114656	-0.503564
C86	C	1.642441	0.385344	-0.003564
C87	C	1.190481	-0.439712	-0.944029
C88	C	1.690481	0.060288	-0.444029
C89	C	1.190506	-0.439667	-1.064079
C90	C	1.690506	0.060333	-0.564079
C91	C	1.142331	-0.503404	-0.231995
C92	C	1.642331	-0.003404	0.268005
C93	C	1.142462	-0.503152	-0.115842
C94	C	1.642462	-0.003152	0.384158
H95	H	1.053226	-1.107424	-0.621341
H96	H	1.553226	-0.607424	-0.121341
H97	H	1.053126	-0.898299	-0.621288
H98	H	1.553126	-0.398299	-0.121288
H99	H	0.717536	-0.691260	-0.315125
H100	H	1.217536	-0.191260	0.184875
Cl101	Cl	0.859656	-0.654062	-0.352402
Cl102	Cl	1.359656	-0.154062	0.147598
H103	H	1.101279	-0.557581	-0.936757
H104	H	1.601279	-0.057581	-0.436757
Cl105	Cl	1.205950	-1.045888	-0.419679
Cl106	Cl	1.705950	-0.545888	0.080321
Cl107	Cl	1.205906	-0.959779	-0.419644
Cl108	Cl	1.705906	-0.459779	0.080356
H109	H	0.841506	-0.382261	-0.624930
H110	H	1.341506	0.117739	-0.124930
H111	H	0.717716	-0.315511	-0.691884
H112	H	1.217716	0.184489	-0.191884
H113	H	0.443978	-0.624536	-0.382089
H114	H	0.943978	-0.124536	0.117911
H115	H	0.567758	-0.691273	-0.315134
H116	H	1.067758	-0.191273	0.184866
H117	H	1.231611	-0.385357	-0.899500
H118	H	1.731611	0.114643	-0.399500
Cl119	Cl	1.254047	-0.355701	-1.132851
Cl120	Cl	1.754047	0.144299	-0.632851
H121	H	0.567954	-0.315513	-0.691919
H122	H	1.067954	0.184487	-0.191919
H123	H	0.444094	-0.382288	-0.624979
H124	H	0.944094	0.117712	-0.124979
Cl125	Cl	1.078927	-0.587132	-1.047078
Cl126	Cl	1.578927	-0.087132	-0.547078
