data_functionalizedCrystal
_audit_creation_method	'MofGen! by Chris Wilmer'
_symmetry_space_group_name_H-M	'P1'
_symmetry_Int_Tables_number	1
_symmetry_cell_setting	triclinic
loop_
_symmetry_equiv_pos_as_xyz
  x,y,z
_cell_length_a	17.699083
_cell_length_b	10.654545
_cell_length_c	9.730223
_cell_angle_alpha	89.996700
_cell_angle_beta	89.994936
_cell_angle_gamma	83.883047
loop_
_atom_site_label
_atom_site_type_symbol
_atom_site_fract_x
_atom_site_fract_y
_atom_site_fract_z
O1	O	0.106286	1.665983	-0.114279
O2	O	0.116417	1.300326	-0.114285
O3	O	0.001228	1.493485	-0.114270
O4	O	0.221475	1.472824	-0.114295
O5	O	0.001225	1.493471	0.114310
O6	O	0.116415	1.300312	0.114295
O7	O	0.106283	1.665969	0.114301
Zn8	Zn	0.111349	1.483138	0.150590
Zn9	Zn	0.111352	1.483157	-0.150574
O10	O	0.221473	1.472810	0.114285
C11	C	0.115673	1.253534	0.000004
C12	C	0.113449	1.114130	0.000002
C13	C	0.112401	1.048636	0.124602
C14	C	0.110299	0.917653	0.124602
C15	C	0.110297	0.917669	-0.124608
C16	C	0.112393	1.048650	-0.124607
C17	C	-0.026975	1.492738	0.000020
C18	C	-0.111007	1.490517	0.000021
C19	C	-0.158908	1.603897	0.000024
C20	C	-0.237865	1.601803	0.000012
C21	C	-0.268919	1.486327	0.000006
C22	C	-0.221011	1.372938	-0.000002
C23	C	-0.142056	1.375033	0.000001
C24	C	-0.539428	1.364484	-0.000013
C25	C	-0.618389	1.362397	-0.000011
C26	C	-0.635237	1.591253	-0.000001
C27	C	-0.556282	1.593348	0.000001
C28	C	-0.508381	1.479960	-0.000014
C29	C	-0.422768	1.482233	-0.000004
C30	C	-0.354531	1.484053	0.000005
C31	C	0.249676	1.473557	-0.000008
C32	C	0.333708	1.475778	-0.000017
C33	C	0.107028	1.712761	0.000008
C34	C	0.109251	1.852165	0.000001
N35	N	0.111346	1.483135	0.356126
C36	C	0.060362	1.568694	0.428059
C37	C	0.060363	1.568705	0.571942
C38	C	0.162338	1.397594	0.571947
C39	C	0.162333	1.397578	0.428066
N40	N	0.111351	1.483162	0.643889
H41	H	-0.276864	1.694128	0.000018
O42	O	0.109156	0.847037	-0.258999
H43	H	0.110227	0.914591	-0.345642
O44	O	0.005374	1.661000	0.649514
H45	H	-0.031717	1.608274	0.715076
H46	H	-0.246302	1.278915	-0.000015
O47	O	0.217317	1.305281	0.350463
H48	H	0.254391	1.358010	0.284871
O49	O	0.113536	1.119256	0.259000
H50	H	0.115178	1.221338	0.238074
O51	O	0.113516	1.119305	-0.259004
H52	H	0.165959	1.167640	-0.264970
H53	H	-0.674247	1.683579	0.000004
H54	H	-0.133631	1.697931	0.000038
H55	H	0.018844	1.638357	0.369488
O56	O	-0.090385	1.252746	0.000011
H57	H	-0.125242	1.172095	0.000023
O58	O	0.109378	0.846973	0.258997
H59	H	0.107810	0.744877	0.238068
O60	O	0.217341	1.305340	0.649543
H61	H	0.207150	1.207471	0.621968
H62	H	-0.531003	1.687381	0.000013
H63	H	-0.500437	1.272156	-0.000025
O64	O	-0.651888	1.237843	-0.000029
H65	H	-0.605316	1.159347	-0.000053
