data_functionalizedCrystal
_audit_creation_method	'MofGen! by Chris Wilmer'
_symmetry_space_group_name_H-M	'P1'
_symmetry_Int_Tables_number	1
_symmetry_cell_setting	triclinic
loop_
_symmetry_equiv_pos_as_xyz
  x,y,z
_cell_length_a	18.215407
_cell_length_b	16.959453
_cell_length_c	18.215399
_cell_angle_alpha	90.028024
_cell_angle_beta	90.017368
_cell_angle_gamma	90.017431
loop_
_atom_site_label
_atom_site_type_symbol
_atom_site_fract_x
_atom_site_fract_y
_atom_site_fract_z
Zn1	Zn	1.125097	-0.314744	0.416067
Zn2	Zn	1.458430	0.018590	0.749400
Zn3	Zn	1.791764	0.351923	1.082734
Zn4	Zn	1.125016	-0.446929	0.293001
Zn5	Zn	1.458349	-0.113596	0.626334
Zn6	Zn	1.791683	0.219738	0.959667
Zn7	Zn	1.002030	-0.314763	0.293020
Zn8	Zn	1.335363	0.018571	0.626353
Zn9	Zn	1.668696	0.351904	0.959686
Zn10	Zn	1.002006	-0.446878	0.416031
Zn11	Zn	1.335339	-0.113545	0.749364
Zn12	Zn	1.668673	0.219789	1.082697
O13	O	1.063537	-0.380828	0.354530
O14	O	1.396870	-0.047495	0.687863
O15	O	1.730204	0.285838	1.021196
O16	O	1.228070	-0.332292	0.399749
O17	O	1.561404	0.001042	0.733083
O18	O	1.894737	0.334375	1.066416
O19	O	1.108677	-0.429426	0.190019
O20	O	1.442011	-0.096093	0.523352
O21	O	1.775344	0.237241	0.856686
O22	O	1.018398	-0.204149	0.309365
O23	O	1.351732	0.129184	0.642699
O24	O	1.685065	0.462518	0.976032
O25	O	1.228011	-0.429408	0.309333
O26	O	1.561344	-0.096074	0.642666
O27	O	1.894678	0.237259	0.975999
O28	O	1.108816	-0.204135	0.399768
O29	O	1.442149	0.129198	0.733101
O30	O	1.775482	0.462531	1.066434
O31	O	1.018320	-0.332324	0.190033
O32	O	1.351653	0.001009	0.523366
O33	O	1.684987	0.334343	0.856700
O34	O	0.899042	-0.332275	0.309330
O35	O	1.232375	0.001059	0.642664
O36	O	1.565709	0.334392	0.975997
O37	O	1.018358	-0.429321	0.519020
O38	O	1.351692	-0.095988	0.852353
O39	O	1.685025	0.237346	1.185687
O40	O	0.899025	-0.429339	0.399706
O41	O	1.232358	-0.096006	0.733039
O42	O	1.565691	0.237327	1.066373
O43	O	1.108793	-0.332242	0.519047
O44	O	1.442126	0.001091	0.852380
O45	O	1.775459	0.334424	1.185713
O46	O	1.108655	-0.557533	0.309298
O47	O	1.441988	-0.224200	0.642631
O48	O	1.775321	0.109134	0.975964
O49	O	1.018280	-0.557496	0.399687
O50	O	1.351613	-0.224162	0.733021
O51	O	1.684946	0.109171	1.066354
C52	C	0.872331	-0.380804	0.354517
C53	C	1.205664	-0.047471	0.687850
C54	C	1.538997	0.285863	1.021183
C55	C	0.790532	-0.380813	0.354529
C56	C	1.123865	-0.047479	0.687862
C57	C	1.457199	0.285854	1.021195
C58	C	0.602368	-0.330348	0.401683
C59	C	0.935701	0.002985	0.735016
C60	C	1.269035	0.336318	1.068349
C61	C	0.525509	-0.330355	0.401685
C62	C	0.858843	0.002978	0.735019
C63	C	1.192176	0.336311	1.068352
C64	C	0.525458	-0.431330	0.307389
C65	C	0.858791	-0.097997	0.640723
C66	C	1.192125	0.235336	0.974056
C67	C	0.602315	-0.431319	0.307384
C68	C	0.935649	-0.097986	0.640717
C69	C	1.268982	0.235348	0.974050
C70	C	0.640768	-0.380829	0.354535
C71	C	0.974102	-0.047496	0.687868
C72	C	1.307435	0.285837	1.021201
C73	C	0.487052	-0.380847	0.354543
C74	C	0.820386	-0.047514	0.687876
C75	C	1.153719	0.285819	1.021209
C76	C	0.403719	-0.380855	0.354545
C77	C	0.737052	-0.047522	0.687878
C78	C	1.070385	0.285812	1.021212
C79	C	0.724107	-0.380820	0.354531
C80	C	1.057441	-0.047487	0.687865
C81	C	1.390774	0.285846	1.021198
C82	C	1.063476	-0.586195	0.354503
C83	C	1.396809	-0.252861	0.687836
C84	C	1.730142	0.080472	1.021169
C85	C	1.063517	-0.674051	0.354516
C86	C	1.396850	-0.340718	0.687849
C87	C	1.730183	-0.007385	1.021182
C88	C	1.110678	-1.045461	0.401691
C89	C	1.444011	-0.712128	0.735024
C90	C	1.777344	-0.378794	1.068358
C91	C	1.016602	-1.045592	0.307478
C92	C	1.349935	-0.712259	0.640811
C93	C	1.683269	-0.378926	0.974144
C94	C	1.016575	-0.963047	0.307461
C95	C	1.349908	-0.629713	0.640794
C96	C	1.683242	-0.296380	0.974127
C97	C	1.063599	-0.921704	0.354560
C98	C	1.396932	-0.588371	0.687894
C99	C	1.730266	-0.255037	1.021227
C100	C	1.110650	-0.962907	0.401677
C101	C	1.443983	-0.629574	0.735010
C102	C	1.777317	-0.296241	1.068344
C103	C	0.969519	-0.921837	0.260350
C104	C	1.302853	-0.588504	0.593683
C105	C	1.636186	-0.255170	0.927017
C106	C	0.969489	-0.839286	0.260332
C107	C	1.302823	-0.505953	0.593665
C108	C	1.636156	-0.172619	0.926999
C109	C	1.016518	-0.797942	0.307429
C110	C	1.349851	-0.464609	0.640762
C111	C	1.683184	-0.131275	0.974095
C112	C	1.063571	-0.839151	0.354546
C113	C	1.396905	-0.505817	0.687880
C114	C	1.730238	-0.172484	1.021213
C115	C	1.110595	-0.797808	0.401646
C116	C	1.443929	-0.464475	0.734980
C117	C	1.777262	-0.131141	1.068313
C118	C	1.157653	-0.839015	0.448761
C119	C	1.490987	-0.505682	0.782094
C120	C	1.824320	-0.172348	1.115428
C121	C	1.157678	-0.921563	0.448774
C122	C	1.491012	-0.588230	0.782107
C123	C	1.824345	-0.254897	1.115440
C124	C	1.016493	-0.715394	0.307416
C125	C	1.349826	-0.382060	0.640749
C126	C	1.683159	-0.048727	0.974083
C127	C	1.110568	-0.715255	0.401632
C128	C	1.443901	-0.381921	0.734966
C129	C	1.777235	-0.048588	1.068299
C130	C	1.255490	-0.380853	0.354543
C131	C	1.588823	-0.047520	0.687876
C132	C	1.922157	0.285813	1.021210
C133	C	1.337289	-0.380864	0.354549
C134	C	1.670622	-0.047531	0.687882
C135	C	2.003956	0.285803	1.021215
C136	C	1.063582	-0.380774	0.546483
C137	C	1.396915	-0.047440	0.879816
C138	C	1.730249	0.285893	1.213149
C139	C	1.063601	-0.380751	0.628281
C140	C	1.396934	-0.047417	0.961615
C141	C	1.730268	0.285916	1.294948
C142	C	1.063619	-0.174660	0.354573
C143	C	1.396952	0.158673	0.687906
C144	C	1.730285	0.492007	1.021239
C145	C	1.063654	-0.086803	0.354591
C146	C	1.396987	0.246530	0.687924
C147	C	1.730320	0.579863	1.021258
C148	C	1.063535	-0.380826	0.163323
C149	C	1.396868	-0.047492	0.496657
C150	C	1.730201	0.285841	0.829990
C151	C	1.063658	-0.380626	0.081525
C152	C	1.396992	-0.047293	0.414858
C153	C	1.730325	0.286041	0.748192
C154	C	1.110707	-0.330154	0.816491
C155	C	1.444040	0.003179	1.149824
C156	C	1.777374	0.336512	1.483157
C157	C	1.110716	-0.330131	0.893349
C158	C	1.444049	0.003202	1.226683
C159	C	1.777383	0.336535	1.560016
C160	C	1.016547	-0.431224	0.893310
C161	C	1.349880	-0.097891	1.226644
C162	C	1.683214	0.235442	1.559977
C163	C	1.016535	-0.431243	0.816453
C164	C	1.349868	-0.097910	1.149786
C165	C	1.683202	0.235424	1.483120
C166	C	1.063619	-0.380709	0.778045
C167	C	1.396953	-0.047376	1.111378
C168	C	1.730286	0.285958	1.444712
C169	C	1.063640	-0.380668	0.931761
C170	C	1.396973	-0.047334	1.265095
C171	C	1.730307	0.285999	1.598428
C172	C	1.063649	-0.380643	1.015095
C173	C	1.396982	-0.047310	1.348428
C174	C	1.730316	0.286024	1.681762
C175	C	1.063609	-0.380732	0.694706
C176	C	1.396943	-0.047399	1.028039
C177	C	1.730276	0.285934	1.361373
H178	H	0.633582	-0.472427	0.268986
H179	H	0.966915	-0.139094	0.602319
H180	H	1.300249	0.194239	0.935653
H181	H	0.978185	-0.472410	0.785150
H182	H	1.311518	-0.139077	1.118483
H183	H	1.644852	0.194257	1.451816
H184	H	1.149044	-0.289004	0.785221
H185	H	1.482378	0.044329	1.118554
H186	H	1.815711	0.377662	1.451888
H187	H	0.494140	-0.472438	0.269001
H188	H	0.827474	-0.139105	0.602335
H189	H	1.160807	0.194229	0.935668
H190	H	1.149058	-0.288963	0.924648
H191	H	1.482392	0.044370	1.257982
H192	H	1.815725	0.377703	1.591315
H193	H	0.978214	-0.472369	0.924591
H194	H	1.311548	-0.139036	1.257925
H195	H	1.644881	0.194298	1.591258
H196	H	1.148864	-0.681598	0.439984
H197	H	1.482197	-0.348265	0.773317
H198	H	1.815530	-0.014932	1.106651
H199	H	1.195938	-0.805344	0.487113
H200	H	1.529271	-0.472011	0.820447
H201	H	1.862604	-0.138678	1.153780
N202	N	1.208429	-0.966006	0.499587
N203	N	1.541762	-0.632673	0.832921
N204	N	1.875096	-0.299340	1.166254
H205	H	1.201307	-1.024573	0.492451
H206	H	1.534640	-0.691240	0.825784
H207	H	1.867974	-0.357907	1.159117
H208	H	1.196939	-0.951546	0.552134
H209	H	1.530272	-0.618213	0.885467
H210	H	1.863606	-0.284879	1.218801
H211	H	0.633674	-0.289234	0.440074
H212	H	0.967007	0.044100	0.773407
H213	H	1.300341	0.377433	1.106740
H214	H	0.978175	-0.681847	0.269059
H215	H	1.311509	-0.348513	0.602393
H216	H	1.644842	-0.015180	0.935726
H217	H	0.494247	-0.289247	0.440077
H218	H	0.827580	0.044086	0.773410
H219	H	1.160914	0.377419	1.106744
H220	H	1.148993	-1.079015	0.440049
H221	H	1.482326	-0.745682	0.773382
H222	H	1.815660	-0.412349	1.106715
H223	H	0.931233	-0.955504	0.222006
H224	H	1.264566	-0.622171	0.555339
H225	H	1.597899	-0.288837	0.888673
N226	N	0.965889	-1.090178	0.256676
N227	N	1.299223	-0.756845	0.590009
N228	N	1.632556	-0.423512	0.923342
H229	H	0.931778	-1.124432	0.286556
H230	H	1.265111	-0.791099	0.619889
H231	H	1.598444	-0.457766	0.953222
H232	H	0.995887	-1.124385	0.222619
H233	H	1.329220	-0.791051	0.555952
H234	H	1.662554	-0.457718	0.889285
N235	N	0.918742	-0.794844	0.209515
N236	N	1.252075	-0.461511	0.542848
N237	N	1.585408	-0.128178	0.876181
H238	H	0.888958	-0.833562	0.179680
H239	H	1.222291	-0.500228	0.513013
H240	H	1.555624	-0.166895	0.846346
H241	H	0.948712	-0.760603	0.175478
H242	H	1.282045	-0.427269	0.508811
H243	H	1.615378	-0.093936	0.842145
