data_functionalizedCrystal
_audit_creation_method	'MofGen! by Chris Wilmer'
_symmetry_space_group_name_H-M	'P1'
_symmetry_Int_Tables_number	1
_symmetry_cell_setting	triclinic
loop_
_symmetry_equiv_pos_as_xyz
  x,y,z
_cell_length_a	17.699097
_cell_length_b	15.995350
_cell_length_c	16.776229
_cell_angle_alpha	89.991668
_cell_angle_beta	90.007172
_cell_angle_gamma	83.390403
loop_
_atom_site_label
_atom_site_type_symbol
_atom_site_fract_x
_atom_site_fract_y
_atom_site_fract_z
O1	O	1.004246	0.105923	0.066350
O2	O	0.783892	0.119687	0.066337
O3	O	0.900092	-0.009095	0.066343
O4	O	0.888045	0.234705	0.066344
O5	O	0.900082	-0.009072	-0.066233
O6	O	0.783881	0.119710	-0.066239
O7	O	1.004235	0.105945	-0.066226
Zn8	Zn	0.894056	0.112831	-0.087282
Zn9	Zn	0.894071	0.112801	0.087393
O10	O	0.888035	0.234727	-0.066232
C11	C	0.755689	0.119203	0.000047
C12	C	0.671669	0.117718	0.000042
C13	C	0.155941	0.108602	0.072342
C14	C	0.234888	0.109992	0.072338
C15	C	0.274349	0.110700	0.000067
C16	C	0.234861	0.110010	-0.072204
C17	C	0.155916	0.108614	-0.072200
C18	C	0.553234	0.115638	-0.072225
C19	C	0.632184	0.117037	-0.072225
C20	C	0.632205	0.117015	0.072312
C21	C	0.553261	0.115620	0.072317
C22	C	0.513780	0.114925	0.000046
C23	C	0.428178	0.113417	0.000051
C24	C	0.359949	0.112215	0.000061
C25	C	0.899589	-0.040277	0.000057
C26	C	0.898096	-0.133225	0.000061
C27	C	0.892734	-0.470961	0.000058
C28	C	0.809978	-0.423363	0.000350
C29	C	0.811471	-0.326676	0.000052
C30	C	0.895393	-0.303406	0.000060
C31	C	0.936205	-0.344552	-0.075644
C32	C	0.934127	-0.441183	-0.075707
C33	C	0.935848	-0.441570	0.075057
C34	C	0.935829	-0.344625	0.076058
C35	C	0.896901	-0.208712	0.000058
C36	C	0.891228	-0.565656	0.000054
C37	C	1.032438	0.106429	0.000066
C38	C	1.116458	0.107914	0.000076
C39	C	0.888538	0.265910	0.000056
C40	C	0.890031	0.358857	0.000057
N41	N	0.894052	0.112851	-0.206493
C42	C	0.848179	0.062060	-0.751668
C43	C	0.848177	0.062067	-0.668216
C44	C	0.894074	0.112794	-0.626493
C45	C	0.939981	0.163511	-0.668226
C46	C	0.939986	0.163499	-0.751677
C47	C	0.939961	0.163561	-0.331679
C48	C	0.939951	0.163571	-0.248222
C49	C	0.848152	0.062129	-0.248218
C50	C	0.848158	0.062116	-0.331669
C51	C	0.894067	0.112830	-0.373395
C52	C	0.894070	0.112820	-0.463883
C53	C	0.894068	0.112809	-0.536006
N54	N	0.894081	0.112775	0.206604
H55	H	0.664361	0.117577	0.131159
H56	H	0.776905	-0.441839	0.054639
H57	H	0.997029	-0.329385	0.080635
H58	H	0.810800	0.020757	-0.785634
O59	O	0.674744	0.117799	-0.150181
H60	H	0.736271	0.118897	-0.138039
H61	H	0.521100	0.115061	-0.131073
H62	H	0.266997	0.110582	-0.131048
H63	H	0.123769	0.108063	-0.131046
H64	H	0.779165	-0.298738	-0.054312
O65	O	0.894687	-0.465345	-0.150667
H66	H	0.877272	-0.408036	-0.186528
H67	H	0.123817	0.108031	0.131193
O68	O	0.798638	0.007408	-0.203231
H69	H	0.815114	-0.059532	-0.219253
O70	O	0.766348	-0.449200	-0.071170
H71	H	0.803348	-0.495793	-0.106925
O72	O	0.896360	-0.308400	0.150247
H73	H	0.937328	-0.277697	0.187140
O74	O	0.798657	0.007379	-0.623210
H75	H	0.834932	-0.037676	-0.585175
H76	H	0.810781	0.020812	-0.365636
H77	H	0.907851	-0.316104	-0.131986
O78	O	1.016669	-0.483803	0.075752
H79	H	1.026121	-0.525530	0.022972
O80	O	0.768962	-0.288943	0.071922
H81	H	0.747148	-0.339749	0.107205
H82	H	0.994884	-0.473551	-0.079136
O83	O	1.017873	-0.325998	-0.079382
H84	H	1.030268	-0.287158	-0.027198
H85	H	0.977364	0.204796	-0.785650
H86	H	0.267032	0.110546	0.131184
O87	O	0.900016	-0.468708	0.151068
H88	H	0.851072	-0.503450	0.136235
H89	H	0.977327	0.204881	-0.214253
O90	O	0.510700	0.114827	0.150265
H91	H	0.551421	0.115521	0.200517
H92	H	0.977343	0.204855	-0.365642
O93	O	0.989481	0.218233	-0.623230
H94	H	0.981758	0.209731	-0.558191
