data_functionalizedCrystal
_audit_creation_method	'MofGen! by Chris Wilmer'
_symmetry_space_group_name_H-M	'P1'
_symmetry_Int_Tables_number	1
_symmetry_cell_setting	triclinic
loop_
_symmetry_equiv_pos_as_xyz
  x,y,z
_cell_length_a	15.944557
_cell_length_b	26.210047
_cell_length_c	15.944493
_cell_angle_alpha	89.989625
_cell_angle_beta	96.511794
_cell_angle_gamma	89.992811
loop_
_atom_site_label
_atom_site_type_symbol
_atom_site_fract_x
_atom_site_fract_y
_atom_site_fract_z
O1	O	-1.114505	0.042400	0.108349
O2	O	-0.869953	0.042405	0.121700
O3	O	-0.998933	0.042407	-0.007254
O4	O	-0.985526	0.042399	0.237302
O5	O	-0.998908	-0.042451	-0.007234
O6	O	-0.869929	-0.042453	0.121720
O7	O	-1.114480	-0.042458	0.108369
Cu8	Cu	-0.992202	-0.050203	0.115046
Cu9	Cu	-0.992232	0.050151	0.115022
O10	O	-0.985501	-0.042459	0.237322
C11	C	-0.838647	-0.000023	0.121154
C12	C	-0.745402	-0.000021	0.119490
C13	C	-0.474788	-0.000026	0.034582
C14	C	-0.525349	-0.041868	0.075524
C15	C	-0.409761	-0.000033	0.113554
C16	C	-0.525354	0.041796	0.075525
C17	C	-0.574673	-0.000026	0.116466
C18	C	-0.459094	-0.041909	0.154475
C19	C	-0.459095	0.041792	0.154465
C20	C	-0.509623	-0.000059	0.195465
C21	C	-0.314760	-0.000037	0.111874
C22	C	-0.669672	-0.000025	0.118152
N23	N	-0.992188	-0.120787	0.115062
C24	C	-1.049338	-0.473301	0.057935
C25	C	-1.049356	-0.686959	0.057923
O26	O	-1.097915	-0.714581	0.009355
N27	N	-0.992236	-0.713681	0.115004
C28	C	-0.935103	-0.686985	0.172088
O29	O	-0.886514	-0.714617	0.220633
C30	C	-0.935082	-0.473328	0.172095
C31	C	-0.992211	-0.446609	0.115016
C32	C	-1.106462	-0.446581	0.000860
C33	C	-1.106460	-0.393170	0.000866
C34	C	-1.049334	-0.366478	0.057948
C35	C	-0.992209	-0.393197	0.115023
C36	C	-0.877946	-0.446633	0.229175
C37	C	-0.877944	-0.393215	0.229170
C38	C	-0.935073	-0.366496	0.172091
C39	C	-0.935080	-0.313093	0.172111
N40	N	-0.992201	-0.286371	0.115030
C41	C	-1.049327	-0.313064	0.057948
C42	C	-0.935120	-0.799159	0.172082
C43	C	-0.935126	-0.852573	0.172081
C44	C	-1.049378	-0.852543	0.057915
C45	C	-1.049375	-0.799128	0.057920
C46	C	-0.992240	-0.772437	0.115001
C47	C	-1.049319	-0.200896	0.057967
C48	C	-1.049314	-0.147480	0.057981
C49	C	-0.935059	-0.147514	0.172144
C50	C	-0.935067	-0.200926	0.172133
C51	C	-0.992200	-0.227615	0.115038
O52	O	-0.886541	-0.285439	0.220647
O53	O	-1.097897	-0.285423	0.009398
C54	C	-1.049340	-0.526712	0.057928
C55	C	-0.992216	-0.553431	0.115003
C56	C	-0.935089	-0.526739	0.172084
C57	C	-0.992222	-0.606846	0.115002
C58	C	-1.049348	-0.633538	0.057921
C59	C	-1.106469	-0.606816	0.000840
C60	C	-1.106467	-0.553404	0.000847
C61	C	-0.877969	-0.553461	0.229165
C62	C	-0.877976	-0.606873	0.229155
C63	C	-0.935103	-0.633565	0.172073
C64	C	-0.145788	-0.000031	0.108903
C65	C	-0.239038	-0.000037	0.110533
C66	C	-0.998372	-0.000020	-0.038539
C67	C	-0.996730	-0.000013	-0.131787
N68	N	-0.992253	0.120735	0.114999
C69	C	-1.072650	-0.000025	-0.367545
C70	C	-1.031721	0.041815	-0.418124
C71	C	-0.993685	-0.000020	-0.302508
C72	C	-1.031678	-0.041848	-0.418081
C73	C	-0.990751	-0.000028	-0.467418
C74	C	-0.952778	0.041855	-0.351859
C75	C	-0.952747	-0.041846	-0.351812
C76	C	-0.911760	0.000004	-0.402358
C77	C	-0.995378	-0.000014	-0.207508
C78	C	-0.989052	-0.000029	-0.562415
C79	C	-0.986061	-0.000031	0.268607
C80	C	-0.987704	-0.000035	0.361856
H81	H	-0.459149	-0.000065	-0.033433
H82	H	-0.554276	-0.077239	0.042180
H83	H	-1.095895	-0.777376	0.011441
O84	O	-0.913180	0.084143	-0.317479
C85	C	-0.925369	0.160981	-0.236786
C86	C	-0.970313	0.113116	-0.275694
H87	H	-0.971536	0.184413	-0.202979
H88	H	-0.901565	0.184966	-0.288850
H89	H	-0.869704	0.148977	-0.189673
H90	H	-1.026010	0.125074	-0.322798
H91	H	-0.994055	0.089142	-0.223584
O92	O	-0.424580	-0.084144	0.194173
C93	C	-0.297420	-0.131518	0.237187
C94	C	-0.336399	-0.083669	0.192199
H95	H	-0.226118	-0.131144	0.235621
H96	H	-0.325270	-0.167143	0.203762
H97	H	-0.312018	-0.131671	0.305544
H98	H	-0.321815	-0.083466	0.123841
H99	H	-0.308547	-0.048066	0.225690
H100	H	-0.554289	0.077168	0.042152
H101	H	-0.525101	-0.000086	0.263532
O102	O	-0.424614	0.084042	0.194088
C103	C	-0.419449	0.175912	0.197258
C104	C	-0.458551	0.128102	0.152303
H105	H	-0.446884	0.211546	0.163504
H106	H	-0.348093	0.175337	0.196120
H107	H	-0.434463	0.176245	0.265479
H108	H	-0.443601	0.127738	0.084065
H109	H	-0.529897	0.128695	0.153509
H110	H	-1.152982	-0.468310	-0.045627
O111	O	-1.153736	-0.000007	-0.348728
C112	C	-1.246135	-0.000384	-0.239158
C113	C	-1.154274	-0.000416	-0.260362
H114	H	-1.246600	-0.000703	-0.167715
H115	H	-1.280136	-0.035704	-0.267489
H116	H	-1.279681	0.035319	-0.266582
H117	H	-1.120657	-0.036095	-0.232942
H118	H	-1.120337	0.034928	-0.232046
H119	H	-1.095894	-0.874285	0.011438
H120	H	-1.065032	-0.077218	-0.447002
O121	O	-0.830570	-0.000059	-0.420861
C122	C	-0.724000	-0.044175	-0.488587
C123	C	-0.815958	-0.044176	-0.467671
H124	H	-0.712162	-0.079834	-0.526451
H125	H	-0.679254	-0.043853	-0.427517
H126	H	-0.712523	-0.008812	-0.527331
H127	H	-0.827516	-0.079533	-0.428952
H128	H	-0.860656	-0.044472	-0.528773
H129	H	-1.095839	-0.125726	0.011500
H130	H	-0.919417	-0.077219	-0.322844
O131	O	-1.104782	-0.226762	0.002392
C132	C	-1.154001	-0.243092	-0.143640
C133	C	-1.091155	-0.213758	-0.080799
H134	H	-1.142994	-0.232597	-0.210914
H135	H	-1.221288	-0.232573	-0.132715
H136	H	-1.144210	-0.285857	-0.133806
H137	H	-1.100869	-0.170986	-0.090596
H138	H	-1.023891	-0.224320	-0.091740
O139	O	-1.161981	-0.367298	-0.054668
C140	C	-1.275329	-0.372926	-0.167878
C141	C	-1.212483	-0.402285	-0.105037
H142	H	-1.316188	-0.401200	-0.208606
H143	H	-1.239116	-0.347933	-0.209926
H144	H	-1.317248	-0.347904	-0.131577
H145	H	-1.170548	-0.427335	-0.141270
H146	H	-1.248748	-0.427245	-0.062990
H147	H	-0.888615	-0.874324	0.218569
H148	H	-0.888550	-0.125773	0.218621
O149	O	-0.879587	-0.773314	0.227619
C150	C	-0.766238	-0.778994	0.340826
C151	C	-0.829092	-0.808324	0.277985
H152	H	-0.725385	-0.807287	0.381552
H153	H	-0.802444	-0.754003	0.382876
H154	H	-0.724314	-0.753974	0.304525
H155	H	-0.871033	-0.833372	0.314218
H156	H	-0.792835	-0.833283	0.235936
H157	H	-0.831425	-0.468380	0.275653
H158	H	-1.065079	0.077187	-0.447078
H159	H	-0.831456	-0.628624	0.275643
H160	H	-0.831415	-0.371486	0.275651
H161	H	-0.888555	-0.222681	0.218620
O162	O	-1.161991	-0.527532	-0.054685
C163	C	-1.275345	-0.533160	-0.167888
C164	C	-1.212494	-0.562519	-0.105053
H165	H	-1.316205	-0.561434	-0.208615
H166	H	-1.239137	-0.508166	-0.209938
H167	H	-1.317262	-0.508139	-0.131583
H168	H	-1.170561	-0.587567	-0.141289
H169	H	-1.248755	-0.587481	-0.063004
O170	O	-1.161844	-0.632774	-0.054694
C171	C	-1.179725	-0.693095	-0.169361
C172	C	-1.116930	-0.663717	-0.106530
H173	H	-1.143437	-0.718128	-0.211275
H174	H	-1.220547	-0.664851	-0.210225
H175	H	-1.221689	-0.718082	-0.133049
H176	H	-1.074911	-0.638729	-0.142773
H177	H	-1.076167	-0.691988	-0.065666
O178	O	-0.822444	-0.527616	0.284701
C179	C	-0.709096	-0.533295	0.397909
C180	C	-0.771945	-0.562626	0.335065
H181	H	-0.668239	-0.561588	0.438632
H182	H	-0.745305	-0.508307	0.439961
H183	H	-0.667174	-0.508271	0.361611
H184	H	-0.813883	-0.587677	0.371294
H185	H	-0.735684	-0.587582	0.293014
