data_functionalizedCrystal
_audit_creation_method	'MofGen! by Chris Wilmer'
_symmetry_space_group_name_H-M	'P1'
_symmetry_Int_Tables_number	1
_symmetry_cell_setting	triclinic
loop_
_symmetry_equiv_pos_as_xyz
  x,y,z
_cell_length_a	17.077404
_cell_length_b	16.625546
_cell_length_c	16.625539
_cell_angle_alpha	89.969603
_cell_angle_beta	89.979509
_cell_angle_gamma	90.022693
loop_
_atom_site_label
_atom_site_type_symbol
_atom_site_fract_x
_atom_site_fract_y
_atom_site_fract_z
Zn1	Zn	1.200065	-0.320995	-0.455896
Zn2	Zn	1.533398	0.012338	-0.122563
Zn3	Zn	1.866731	0.345671	0.210771
Zn4	Zn	1.199970	-0.455838	-0.321058
Zn5	Zn	1.533304	-0.122505	0.012275
Zn6	Zn	1.866637	0.210828	0.345608
Zn7	Zn	1.068794	-0.321024	-0.321077
Zn8	Zn	1.402127	0.012309	0.012257
Zn9	Zn	1.735461	0.345643	0.345590
Zn10	Zn	1.068765	-0.455790	-0.455848
Zn11	Zn	1.402099	-0.122457	-0.122515
Zn12	Zn	1.735432	0.210876	0.210818
O13	O	1.134399	-0.388412	-0.388470
O14	O	1.467732	-0.055079	-0.055136
O15	O	1.801065	0.278255	0.278197
O16	O	1.309899	-0.338891	-0.438022
O17	O	1.643232	-0.005557	-0.104688
O18	O	1.976566	0.327776	0.228645
O19	O	1.182542	-0.437987	-0.208228
O20	O	1.515875	-0.104654	0.125105
O21	O	1.849209	0.228679	0.458438
O22	O	1.086259	-0.208188	-0.338988
O23	O	1.419592	0.125145	-0.005655
O24	O	1.752926	0.458479	0.327678
O25	O	1.309830	-0.437959	-0.338957
O26	O	1.643163	-0.104626	-0.005624
O27	O	1.976496	0.228707	0.327710
O28	O	1.182703	-0.208167	-0.438040
O29	O	1.516036	0.125167	-0.104706
O30	O	1.849369	0.458500	0.228627
O31	O	1.086168	-0.338940	-0.208242
O32	O	1.419501	-0.005606	0.125092
O33	O	1.752834	0.327727	0.458425
O34	O	0.958943	-0.338893	-0.338942
O35	O	1.292277	-0.005560	-0.005609
O36	O	1.625610	0.327774	0.327724
O37	O	1.086210	-0.437877	-0.568687
O38	O	1.419543	-0.104544	-0.235354
O39	O	1.752876	0.228790	0.097980
O40	O	0.958922	-0.437905	-0.437958
O41	O	1.292256	-0.104572	-0.104625
O42	O	1.625589	0.228762	0.228708
O43	O	1.182675	-0.338844	-0.568722
O44	O	1.516008	-0.005511	-0.235389
O45	O	1.849341	0.327823	0.097945
O46	O	1.182514	-0.568664	-0.338911
O47	O	1.515848	-0.235331	-0.005577
O48	O	1.849181	0.098002	0.327756
O49	O	1.086118	-0.568629	-0.437940
O50	O	1.419452	-0.235296	-0.104607
O51	O	1.752785	0.098038	0.228726
C52	C	0.930451	-0.388397	-0.388448
C53	C	1.263784	-0.055064	-0.055114
C54	C	1.597117	0.278269	0.278219
C55	C	0.843201	-0.388411	-0.388457
C56	C	1.176534	-0.055077	-0.055124
C57	C	1.509868	0.278256	0.278210
C58	C	1.134324	-0.597903	-0.388436
C59	C	1.467658	-0.264570	-0.055103
C60	C	1.800991	0.068764	0.278231
C61	C	1.134364	-0.687524	-0.388449
C62	C	1.467698	-0.354191	-0.055115
C63	C	1.801031	-0.020857	0.278218
C64	C	0.802220	-0.440044	-0.439932
C65	C	1.135554	-0.106711	-0.106599
C66	C	1.468887	0.226623	0.226735
C67	C	0.720240	-0.440046	-0.439945
C68	C	1.053573	-0.106712	-0.106612
C69	C	1.386907	0.226621	0.226722
C70	C	0.679242	-0.388418	-0.388478
C71	C	1.012575	-0.055084	-0.055145
C72	C	1.345908	0.278249	0.278188
C73	C	0.720228	-0.336778	-0.337001
C74	C	1.053561	-0.003445	-0.003668
C75	C	1.386895	0.329888	0.329666
C76	C	0.802207	-0.336773	-0.336993
C77	C	1.135540	-0.003440	-0.003659
C78	C	1.468874	0.329893	0.329674
C79	C	0.549358	-0.336794	-0.337020
C80	C	0.882691	-0.003461	-0.003687
C81	C	1.216025	0.329872	0.329646
C82	C	0.467373	-0.336800	-0.337027
C83	C	0.800707	-0.003467	-0.003694
C84	C	1.134040	0.329866	0.329639
C85	C	0.467391	-0.440067	-0.439973
C86	C	0.800724	-0.106733	-0.106639
C87	C	1.134058	0.226600	0.226694
C88	C	0.549370	-0.440062	-0.439964
C89	C	0.882703	-0.106728	-0.106631
C90	C	1.216036	0.226605	0.226702
C91	C	0.590351	-0.388423	-0.388486
C92	C	0.923684	-0.055090	-0.055153
C93	C	1.257017	0.278243	0.278181
C94	C	1.134501	-1.015700	-0.388533
C95	C	1.467835	-0.682366	-0.055199
C96	C	1.801168	-0.349033	0.278134
C97	C	1.134461	-0.924391	-0.388511
C98	C	1.467794	-0.591058	-0.055178
C99	C	1.801127	-0.257724	0.278155
C100	C	1.134432	-0.851615	-0.388490
C101	C	1.467766	-0.518281	-0.055157
C102	C	1.801099	-0.184948	0.278177
C103	C	1.134393	-0.760300	-0.388470
C104	C	1.467726	-0.426967	-0.055137
C105	C	1.801059	-0.093634	0.278197
C106	C	1.339143	-0.388427	-0.388493
C107	C	1.672476	-0.055094	-0.055159
C108	C	2.005809	0.278239	0.278174
C109	C	1.426393	-0.388434	-0.388502
C110	C	1.759726	-0.055100	-0.055169
C111	C	2.093059	0.278233	0.278164
C112	C	1.134450	-0.388352	-0.598779
C113	C	1.467783	-0.055019	-0.265445
C114	C	1.801116	0.278315	0.067888
C115	C	1.134471	-0.388326	-0.688400
C116	C	1.467805	-0.054993	-0.355067
C117	C	1.801138	0.278340	-0.021733
C118	C	1.134495	-0.178103	-0.388521
C119	C	1.467828	0.155230	-0.055188
C120	C	1.801161	0.488564	0.278145
C121	C	1.134535	-0.088482	-0.388543
C122	C	1.467869	0.244851	-0.055210
C123	C	1.801202	0.578185	0.278123
C124	C	1.134508	-0.388236	-1.016576
C125	C	1.467841	-0.054903	-0.683242
C126	C	1.801174	0.278431	-0.349909
C127	C	1.134495	-0.388264	-0.925267
C128	C	1.467829	-0.054930	-0.591934
C129	C	1.801162	0.278403	-0.258601
C130	C	1.134490	-0.388282	-0.852491
C131	C	1.467823	-0.054949	-0.519157
C132	C	1.801157	0.278385	-0.185824
C133	C	1.134477	-0.388308	-0.761176
C134	C	1.467810	-0.054975	-0.427843
C135	C	1.801143	0.278358	-0.094510
C136	C	1.134393	-0.388414	-0.178979
C137	C	1.467726	-0.055080	0.154354
C138	C	1.801060	0.278253	0.487688
C139	C	1.134523	-0.388212	-0.089358
C140	C	1.467857	-0.054879	0.243975
C141	C	1.801190	0.278455	0.577308
H142	H	0.835595	-0.482088	-0.481840
H143	H	1.168929	-0.148755	-0.148506
H144	H	1.502262	0.184578	0.184827
H145	H	0.582722	-0.294738	-0.295108
H146	H	0.916055	0.038596	0.038225
H147	H	1.249389	0.371929	0.371558
H148	H	0.686877	-0.482092	-0.481860
H149	H	1.020210	-0.148758	-0.148527
H150	H	1.353544	0.184575	0.184806
C151	C	0.675127	-0.279985	-0.280389
C152	C	1.008460	0.053349	0.052944
C153	C	1.341793	0.386682	0.386278
N154	N	0.641157	-0.237208	-0.237746
N155	N	0.974491	0.096125	0.095588
N156	N	1.307824	0.429458	0.428921
H157	H	0.835572	-0.294724	-0.295081
H158	H	1.168906	0.038610	0.038253
H159	H	1.502239	0.371943	0.371586
H160	H	0.433995	-0.294751	-0.295128
H161	H	0.767328	0.038583	0.038205
H162	H	1.100661	0.371916	0.371538
H163	H	0.434020	-0.482110	-0.481891
H164	H	0.767354	-0.148777	-0.148557
H165	H	1.100687	0.184557	0.184776
C166	C	0.594466	-0.496859	-0.496576
C167	C	0.927800	-0.163526	-0.163243
C168	C	1.261133	0.169807	0.170091
N169	N	0.628433	-0.539640	-0.539218
N170	N	0.961766	-0.206306	-0.205885
N171	N	1.295100	0.127027	0.127449
