data_functionalizedCrystal
_audit_creation_method	'MofGen! by Chris Wilmer'
_symmetry_space_group_name_H-M	'P1'
_symmetry_Int_Tables_number	1
_symmetry_cell_setting	triclinic
loop_
_symmetry_equiv_pos_as_xyz
  x,y,z
_cell_length_a	12.827893
_cell_length_b	15.297327
_cell_length_c	12.827885
_cell_angle_alpha	99.642748
_cell_angle_beta	89.980728
_cell_angle_gamma	99.706532
loop_
_atom_site_label
_atom_site_type_symbol
_atom_site_fract_x
_atom_site_fract_y
_atom_site_fract_z
Zn1	Zn	1.525604	-0.359117	-0.662769
Zn2	Zn	1.495218	-0.510002	-0.518249
Zn3	Zn	1.350836	-0.359161	-0.488052
Zn4	Zn	1.320564	-0.509935	-0.692936
O5	O	1.423055	-0.434554	-0.590502
O6	O	1.667807	-0.379142	-0.643611
O7	O	1.476017	-0.490040	-0.368017
O8	O	1.399404	-0.232910	-0.485966
O9	O	1.645482	-0.489997	-0.537433
O10	O	1.527806	-0.232878	-0.614330
O11	O	1.369940	-0.379217	-0.345831
O12	O	1.200586	-0.379152	-0.515218
O13	O	1.347811	-0.489883	-0.835161
O14	O	1.178346	-0.489925	-0.665746
O15	O	1.498453	-0.379077	-0.812998
O16	O	1.446664	-0.636239	-0.566685
O17	O	1.318347	-0.636189	-0.695027
C18	C	1.151549	-0.434537	-0.590479
C19	C	1.035393	-0.434551	-0.590499
C20	C	0.874588	-0.379810	-0.643176
C21	C	0.994641	-0.379794	-0.643157
C22	C	1.375952	-0.668948	-0.637429
C23	C	1.355896	-0.769223	-0.657539
C24	C	1.566826	-1.051858	-0.447125
C25	C	1.585669	-0.957645	-0.428225
C26	C	1.528228	-0.910535	-0.485552
C27	C	1.451940	-0.957647	-0.561782
C28	C	1.433089	-1.051869	-0.580678
C29	C	1.394491	-0.910546	-0.619105
C30	C	1.318203	-0.957658	-0.695336
C31	C	1.299357	-1.051871	-0.714229
C32	C	1.356798	-1.098981	-0.656902
C33	C	1.413341	-0.816324	-0.600209
C34	C	1.279605	-0.816335	-0.733763
C35	C	1.260762	-0.910548	-0.752663
C36	C	1.695622	-0.434572	-0.590525
C37	C	1.811773	-0.434580	-0.590535
C38	C	1.423145	-0.434468	-0.863055
C39	C	1.423183	-0.434431	-0.979200
C40	C	1.470371	-0.199245	-0.543414
C41	C	1.490535	-0.098970	-0.523348
C42	C	1.475722	-0.489207	-1.161996
C43	C	1.475684	-0.489247	-1.041953
C44	C	1.423039	-0.434575	-0.318996
C45	C	1.423255	-0.434358	-0.202800
H46	H	0.839486	-0.332935	-0.688264
O47	O	1.622686	-1.097674	-0.391587
C48	C	1.679237	-1.152129	-0.462032
H49	H	1.691394	-1.123677	-0.538633
H50	H	1.759446	-1.153199	-0.424483
H51	H	1.632602	-1.223541	-0.479944
O52	O	1.546698	-0.819017	-0.467101
C53	C	1.626330	-0.787536	-0.387510
H54	H	1.676534	-0.841800	-0.383804
H55	H	1.678593	-0.724458	-0.406427
H56	H	1.588259	-0.770893	-0.307941
O57	O	1.369433	-0.378448	-1.020989
C58	C	1.261284	-0.398164	-0.998350
H59	H	1.252062	-0.432810	-0.926010
H60	H	1.227513	-0.333051	-0.981689
H61	H	1.216827	-0.444571	-1.069042
H62	H	1.048619	-0.332900	-0.688220
O63	O	1.338690	-1.190503	-0.675263
C64	C	1.432549	-1.221881	-0.708509
H65	H	1.503614	-1.167549	-0.679813
H66	H	1.438548	-1.284929	-0.674033
H67	H	1.431385	-1.238542	-0.798560
H68	H	0.981423	-0.481442	-0.545426
H69	H	1.198647	-0.948920	-0.814730
O70	O	1.225366	-1.097595	-0.788414
C71	C	1.252760	-1.074472	-0.887948
H72	H	1.341435	-1.048511	-0.888089
H73	H	1.231339	-1.136405	-0.951989
H74	H	1.207657	-1.019803	-0.904251
H75	H	0.846874	-0.481464	-0.545459
O76	O	1.369535	-0.378341	-1.138619
C77	C	1.320781	-0.327317	-1.199863
H78	H	1.309701	-0.364181	-1.285072
H79	H	1.240394	-0.317725	-1.166320
H80	H	1.372821	-0.258789	-1.197718
O81	O	1.487517	-0.770467	-0.526294
C82	C	1.565919	-0.715900	-0.574902
H83	H	1.531853	-0.701755	-0.651227
H84	H	1.593200	-0.649666	-0.519061
H85	H	1.636101	-0.752152	-0.593721
H86	H	1.232829	-0.777979	-0.780441
O87	O	1.659845	-0.912023	-0.354183
C88	C	1.706487	-0.973803	-0.307621
H89	H	1.696651	-1.040934	-0.363889
H90	H	1.794286	-0.946530	-0.291079
H91	H	1.666245	-0.983900	-0.230244
O92	O	1.529501	-0.545152	-1.226210
C93	C	1.637634	-0.525457	-1.195706
H94	H	1.646811	-0.490865	-1.109509
H95	H	1.671402	-0.590574	-1.205121
H96	H	1.682128	-0.479009	-1.247822
O97	O	1.529183	-0.545242	-0.999882
C98	C	1.517250	-0.532805	-0.889390
H99	H	1.442531	-0.503245	-0.868665
H100	H	1.510705	-0.600361	-0.861355
H101	H	1.588863	-0.484753	-0.848805
