data_functionalizedCrystal
_audit_creation_method	'MofGen! by Chris Wilmer'
_symmetry_space_group_name_H-M	'P1'
_symmetry_Int_Tables_number	1
_symmetry_cell_setting	triclinic
loop_
_symmetry_equiv_pos_as_xyz
  x,y,z
_cell_length_a	14.044220
_cell_length_b	17.019294
_cell_length_c	13.101039
_cell_angle_alpha	89.487532
_cell_angle_beta	86.340132
_cell_angle_gamma	88.280586
loop_
_atom_site_label
_atom_site_type_symbol
_atom_site_fract_x
_atom_site_fract_y
_atom_site_fract_z
O1	O	1.263665	0.185415	-0.101463
O2	O	0.987670	0.178580	-0.100886
O3	O	1.132750	0.068176	-0.091126
O4	O	1.118584	0.295818	-0.111224
O5	O	1.122341	0.076112	0.078603
O6	O	0.977260	0.186515	0.068842
O7	O	1.253256	0.193350	0.068265
Zn8	Zn	1.113605	0.191193	0.095501
Zn9	Zn	1.127320	0.180737	-0.128123
O10	O	1.108175	0.303754	0.058504
C11	C	0.947139	0.179556	-0.015761
C12	C	0.841877	0.170633	-0.014984
C13	C	1.126803	0.042835	-0.003676
C14	C	1.124580	-0.044499	0.004027
C15	C	0.649149	0.154321	-0.013523
C16	C	0.591771	0.217605	-0.019106
C17	C	0.484531	0.208529	-0.018294
C18	C	0.756399	0.163396	-0.014336
C19	C	1.129211	-0.089849	-0.084872
C20	C	1.127116	-0.171908	-0.077631
C21	C	1.120396	-0.208615	0.018511
C22	C	1.115761	-0.163258	0.107416
C23	C	1.117849	-0.081201	0.100174
C24	C	1.113800	-0.456158	0.045006
C25	C	1.111714	-0.538221	0.052242
C26	C	1.123068	-0.546866	-0.132806
C27	C	1.125162	-0.464807	-0.140040
C28	C	1.120522	-0.419457	-0.051134
C29	C	1.118257	-0.292492	0.025915
C30	C	1.122654	-0.335581	-0.058539
C31	C	1.293787	0.192374	-0.016862
C32	C	1.399048	0.201297	-0.017646
C33	C	1.114122	0.329095	-0.028947
C34	C	1.116346	0.416428	-0.036657
N35	N	1.104252	0.198328	0.248119
N36	N	1.136680	0.173596	-0.280740
C37	C	1.091527	0.208044	0.456303
C38	C	1.149402	0.163883	0.511083
C39	C	1.142322	0.169288	0.626923
C40	C	1.098606	0.202639	0.340452
H41	H	0.623190	0.278601	-0.024497
H42	H	1.036665	0.249909	0.496399
O43	O	1.109356	-0.412233	0.131468
C44	C	1.102970	-0.462230	0.217873
H45	H	1.133112	-0.523143	0.196000
H46	H	1.025025	-0.466704	0.246853
C47	C	1.123549	-0.353702	0.329525
C48	C	1.160577	-0.428515	0.302661
H49	H	1.159080	-0.332904	0.381828
H50	H	1.127848	-0.320017	0.271312
H51	H	1.058596	-0.357440	0.353668
H52	H	1.225526	-0.424774	0.278506
H53	H	1.156291	-0.462199	0.360871
O54	O	1.131468	-0.429244	-0.233497
C55	C	1.052360	-0.448876	-0.288205
H56	H	0.991174	-0.466664	-0.232198
H57	H	1.073211	-0.499966	-0.341550
C58	C	1.095579	-0.355434	-0.420347
C59	C	1.020427	-0.377274	-0.351558
H60	H	1.075883	-0.311268	-0.459431
H61	H	1.148878	-0.342208	-0.383492
H62	H	1.112948	-0.398015	-0.464792
H63	H	1.003068	-0.334697	-0.307107
H64	H	0.967124	-0.390491	-0.388407
O65	O	1.129041	-0.299839	-0.151875
C66	C	1.048541	-0.249508	-0.161889
H67	H	1.016585	-0.232414	-0.082735
H68	H	0.993098	-0.281069	-0.204950
C69	C	1.117922	-0.195983	-0.318799
C70	C	1.078677	-0.174982	-0.221581
H71	H	1.136508	-0.150013	-0.355624
H72	H	1.172154	-0.229894	-0.312055
H73	H	1.071712	-0.222285	-0.354670
H74	H	1.124890	-0.148690	-0.185707
H75	H	1.024452	-0.141065	-0.228320
H76	H	1.112788	-0.322388	0.104193
H77	H	0.617732	0.093330	-0.008133
H78	H	1.130892	-0.208829	-0.150022
O79	O	1.135567	-0.054232	-0.178293
C80	C	1.056489	-0.073793	-0.233092
H81	H	0.995266	-0.091615	-0.177156
H82	H	1.077357	-0.124838	-0.286505
C83	C	1.099814	0.019759	-0.365064
C84	C	1.024617	-0.002124	-0.296361
H85	H	1.080156	0.063965	-0.404095
H86	H	1.153093	0.032936	-0.328147
H87	H	1.117197	-0.022785	-0.409564
H88	H	1.007243	0.040415	-0.251854
H89	H	0.971334	-0.015292	-0.333272
H90	H	1.106237	-0.568105	0.130536
H91	H	1.110283	-0.193151	0.185697
O92	O	1.127388	-0.590953	-0.219128
C93	C	1.044498	-0.635541	-0.220730
H94	H	0.984582	-0.606150	-0.170606
H95	H	1.059933	-0.697277	-0.190311
C96	C	1.087627	-0.676648	-0.392843
C97	C	1.014035	-0.640547	-0.331287
H98	H	1.068837	-0.679740	-0.461039
H99	H	1.143474	-0.646611	-0.391763
H100	H	1.100483	-0.728092	-0.367481
H101	H	1.001188	-0.589101	-0.356641
H102	H	0.958185	-0.670575	-0.332373
O103	O	1.113373	-0.037263	0.186633
C104	C	1.106964	-0.087254	0.273044
H105	H	1.137139	-0.148162	0.251194
H106	H	1.029009	-0.091745	0.301981
C107	C	1.127445	0.021292	0.384696
C108	C	1.164514	-0.053515	0.357862
H109	H	1.162941	0.042105	0.437019
H110	H	1.131760	0.054973	0.326481
H111	H	1.062484	0.017539	0.408804
H112	H	1.229470	-0.049760	0.333743
H113	H	1.160212	-0.087194	0.416076
H114	H	1.204269	0.122016	0.470982
