data_functionalizedCrystal
_audit_creation_method	'MofGen! by Chris Wilmer'
_symmetry_space_group_name_H-M	'P1'
_symmetry_Int_Tables_number	1
_symmetry_cell_setting	triclinic
loop_
_symmetry_equiv_pos_as_xyz
  x,y,z
_cell_length_a	14.044220
_cell_length_b	10.654545
_cell_length_c	9.130313
_cell_angle_alpha	90.002328
_cell_angle_beta	90.004952
_cell_angle_gamma	88.835978
loop_
_atom_site_label
_atom_site_type_symbol
_atom_site_fract_x
_atom_site_fract_y
_atom_site_fract_z
O1	O	0.133210	1.681228	0.121789
O2	O	0.145908	1.317025	0.121796
O3	O	0.001539	1.493660	0.121778
O4	O	0.277580	1.504593	0.121807
O5	O	0.001536	1.493649	-0.121821
O6	O	0.145905	1.317014	-0.121803
O7	O	0.133208	1.681217	-0.121810
Cu8	Cu	0.139556	1.499114	-0.144049
Cu9	Cu	0.139560	1.499127	0.144035
O10	O	0.277577	1.504582	-0.121792
C11	C	0.144975	1.270128	-0.000003
C12	C	0.142189	1.130404	-0.000001
C13	C	0.140875	1.064762	-0.132788
C14	C	0.138241	0.933477	-0.132788
C15	C	0.138238	0.933489	0.132797
C16	C	0.140865	1.064772	0.132796
C17	C	-0.033808	1.488868	-0.000022
C18	C	-0.139128	1.474593	-0.000023
C19	C	-0.331961	1.448494	-0.000002
C20	C	-0.388929	1.549742	0.000001
C21	C	-0.496228	1.535220	0.000013
C22	C	-0.224652	1.463014	-0.000014
C23	C	0.312924	1.509373	0.000011
C24	C	0.418244	1.523649	0.000022
C25	C	0.134140	1.728114	-0.000008
C26	C	0.136927	1.867838	-0.000000
N27	N	0.139553	1.499114	-0.346671
C28	C	0.075651	1.577365	-0.576678
C29	C	0.075652	1.577358	-0.423341
C30	C	0.203464	1.420882	-0.423347
C31	C	0.203467	1.420897	-0.576681
N32	N	0.139555	1.499136	0.346658
H33	H	0.141953	1.118196	-0.240919
N34	N	0.006730	1.661737	-0.340651
H35	H	-0.033754	1.711300	-0.412488
H36	H	-0.035543	1.608925	-0.277044
H37	H	-0.357118	1.647329	0.000097
N38	N	-0.374088	1.319233	0.000003
H39	H	-0.445879	1.327053	0.000006
H40	H	-0.352247	1.272094	-0.090309
N41	N	0.006729	1.661759	-0.659366
H42	H	-0.033750	1.711320	-0.587526
H43	H	0.043443	1.721385	-0.722964
N44	N	0.272392	1.336493	-0.340662
H45	H	0.262692	1.348349	-0.231891
H46	H	0.260806	1.246117	-0.367487
N47	N	0.272392	1.336513	-0.659382
H48	H	0.312873	1.286937	-0.587553
H49	H	0.235680	1.276901	-0.723015
N50	N	0.136820	0.862677	-0.276008
H51	H	0.137388	0.924219	-0.360124
H52	H	0.194772	0.805233	-0.282231
H53	H	0.137161	0.880035	0.240915
H54	H	0.141932	1.118219	0.240933
