data_functionalizedCrystal
_audit_creation_method	'MofGen! by Chris Wilmer'
_symmetry_space_group_name_H-M	'P1'
_symmetry_Int_Tables_number	1
_symmetry_cell_setting	triclinic
loop_
_symmetry_equiv_pos_as_xyz
  x,y,z
_cell_length_a	19.188933
_cell_length_b	19.188930
_cell_length_c	11.892095
_cell_angle_alpha	93.870839
_cell_angle_beta	86.115576
_cell_angle_gamma	83.145175
loop_
_atom_site_label
_atom_site_type_symbol
_atom_site_fract_x
_atom_site_fract_y
_atom_site_fract_z
O1	O	0.930621	0.082698	-0.093977
O2	O	0.727310	0.094430	-0.093990
O3	O	0.834831	-0.013090	-0.093961
O4	O	0.823099	0.190219	-0.094006
O5	O	0.825866	-0.004139	0.094044
O6	O	0.718345	0.103381	0.094015
O7	O	0.921656	0.091649	0.094028
Zn8	Zn	0.818577	0.098936	0.123871
Zn9	Zn	0.830389	0.087143	-0.123833
O10	O	0.814134	0.199170	0.093999
C11	C	0.696817	0.098526	0.000012
C12	C	0.619312	0.097384	0.000008
C13	C	0.070943	0.084360	-0.102460
C14	C	0.143768	0.085428	-0.102464
C15	C	0.175298	0.090845	0.000017
C16	C	0.134000	0.095176	0.102510
C17	C	0.061178	0.094101	0.102512
N18	N	0.280681	0.135895	0.076289
N19	N	0.349859	0.136917	0.076281
C20	C	0.394706	0.094083	0.000018
N21	N	0.367762	0.050195	-0.076253
N22	N	0.298578	0.049176	-0.076248
C23	C	0.254261	0.092011	0.000026
C24	C	0.514961	0.090905	-0.102474
C25	C	0.587787	0.091969	-0.102474
C26	C	0.578017	0.101724	0.102503
C27	C	0.505193	0.100653	0.102501
C28	C	0.473669	0.095247	0.000009
C29	C	0.829969	-0.034626	0.000045
C30	C	0.828828	-0.112130	0.000054
C31	C	0.891918	-0.157053	0.000064
C32	C	0.890847	-0.229877	0.000045
C33	C	0.826681	-0.257775	0.000041
C34	C	0.763583	-0.212842	0.000025
C35	C	0.764656	-0.140020	0.000032
N36	N	0.774583	-0.362734	0.064019
N37	N	0.773568	-0.431913	0.064015
C38	C	0.823444	-0.477184	0.000018
N39	N	0.874384	-0.450665	-0.063962
N40	N	0.875401	-0.381480	-0.063953
C41	C	0.825511	-0.336738	0.000033
C42	C	0.885378	-0.601073	0.000005
C43	C	0.884305	-0.673899	-0.000020
C44	C	0.757038	-0.656861	-0.000029
C45	C	0.758114	-0.584038	-0.000015
C46	C	0.822285	-0.556148	0.000008
C47	C	0.952149	0.087554	0.000024
C48	C	1.029654	0.088695	0.000020
C49	C	0.818997	0.220705	-0.000009
C50	C	0.820139	0.298209	-0.000026
N51	N	0.810521	0.106985	0.292923
N52	N	0.838450	0.079089	-0.292885
C53	C	0.894508	0.023045	0.529593
C54	C	0.888882	0.028676	0.647934
C55	C	0.793640	0.123873	0.647947
C56	C	0.799266	0.118242	0.529606
C57	C	0.849702	0.067828	0.470434
C58	C	0.855331	0.062201	0.352091
C59	C	0.760087	0.157394	0.352106
C60	C	0.754461	0.163025	0.470447
H61	H	0.621405	0.088434	-0.185929
H62	H	0.603688	0.106131	0.185945
H63	H	0.713279	-0.103442	0.000025
O64	O	0.954217	-0.129889	-0.000079
C65	C	0.963300	-0.092918	-0.097462
H66	H	0.909763	-0.076152	-0.129927
H67	H	0.997536	-0.128429	-0.165642
C68	C	1.065050	-0.047805	-0.028007
C69	C	0.999294	-0.027207	-0.067876
H70	H	1.087255	-0.007273	-0.009760
H71	H	1.058933	-0.072715	0.037600
H72	H	1.093571	-0.077398	-0.084831
H73	H	0.970771	0.002378	-0.011048
H74	H	1.005407	-0.002290	-0.133473
O75	O	0.716523	0.200974	0.294813
C76	C	0.670792	0.246664	0.372422
H77	H	0.695402	0.251391	0.456772
H78	H	0.618396	0.224724	0.385024
C79	C	0.628143	0.314019	0.222633
C80	C	0.658373	0.319830	0.326230
H81	H	0.620479	0.359151	0.194138
H82	H	0.658951	0.283236	0.170345
H83	H	0.584484	0.295733	0.233148
H84	H	0.702035	0.338107	0.315711
H85	H	0.627571	0.350618	0.378515
O86	O	0.020978	0.098402	0.201992
C87	C	-0.029518	0.158537	0.208131
H88	H	-0.038882	0.174301	0.119148
H89	H	-0.009531	0.203688	0.258707
C90	C	-0.087527	0.122577	0.376010
C91	C	-0.099032	0.141936	0.266719
H92	H	-0.130406	0.112339	0.412154
H93	H	-0.053506	0.082064	0.371877
H94	H	-0.070870	0.160207	0.418142
H95	H	-0.115681	0.104303	0.224585
H96	H	-0.133058	0.182442	0.270846
O97	O	0.694757	-0.684041	-0.000187
C98	C	0.694966	-0.730263	-0.097579
H99	H	0.751600	-0.750110	-0.130036
H100	H	0.667232	-0.701229	-0.165760
C101	C	0.586595	-0.768785	-0.028155
C102	C	0.656154	-0.793167	-0.068013
H103	H	0.562652	-0.807586	-0.009920
H104	H	0.586453	-0.737643	0.037458
H105	H	0.563493	-0.744591	-0.084979
H106	H	0.679257	-0.817353	-0.011184
H107	H	0.656300	-0.824315	-0.133616
O108	O	0.705436	0.211905	0.528059
C109	C	0.659211	0.177879	0.596508
H110	H	0.686339	0.124015	0.614234
H111	H	0.609792	0.171100	0.550918
C112	C	0.605509	0.288785	0.687150
C113	C	0.638830	0.222630	0.708928
H114	H	0.592933	0.316390	0.756494
H115	H	0.636650	0.311710	0.641031
H116	H	0.564330	0.283126	0.649155
H117	H	0.680011	0.228289	0.746909
H118	H	0.607695	0.199707	0.755056
H119	H	0.942225	-0.266461	0.000048
O120	O	0.040393	0.079191	-0.202090
C121	C	0.053050	0.136950	-0.264437
H122	H	0.101833	0.159277	-0.235295
H123	H	0.005717	0.179351	-0.250244
C124	C	0.005000	0.085184	-0.426873
C125	C	0.064920	0.112602	-0.391086
H126	H	0.012319	0.070167	-0.504996
H127	H	-0.003530	0.046271	-0.384868
H128	H	-0.034438	0.120523	-0.415035
H129	H	0.104354	0.077261	-0.402911
H130	H	0.073457	0.151508	-0.433096
O131	O	0.183948	0.081321	-0.201944
C132	C	0.218252	0.142118	-0.208076
H133	H	0.222216	0.166661	-0.119092
H134	H	0.186930	0.181633	-0.258652
C135	C	0.287811	0.091854	-0.375952
C136	C	0.292685	0.121994	-0.266659
H137	H	0.333724	0.079442	-0.412093
H138	H	0.264699	0.050895	-0.371824
H139	H	0.261707	0.124788	-0.418084
H140	H	0.318781	0.089057	-0.224525
H141	H	0.315804	0.162948	-0.270781
H142	H	0.159676	0.099585	0.185951
H143	H	0.489293	0.086501	-0.185929
H144	H	0.711339	-0.235561	0.000019
H145	H	0.471574	0.104185	0.185951
O146	O	0.943430	-0.026009	0.472144
C147	C	0.930944	-0.093728	0.501078
H148	H	0.873504	-0.092395	0.533637
H149	H	0.966449	-0.111068	0.569747
C150	C	1.017485	-0.147715	0.355950
C151	C	0.946935	-0.146080	0.395931
H152	H	1.027352	-0.180009	0.291093
H153	H	1.025900	-0.102092	0.336459
H154	H	1.047064	-0.162163	0.413184
H155	H	0.917357	-0.131624	0.338703
H156	H	0.938516	-0.191702	0.415410
O157	O	0.947775	-0.574095	-0.000043
C158	C	1.003232	-0.629365	-0.000027
H159	H	0.985508	-0.680469	-0.035623
H160	H	1.018389	-0.635447	0.090166
C161	C	1.089049	-0.549726	-0.030039
C162	C	1.067281	-0.612491	-0.073769
H163	H	1.128559	-0.539317	-0.075522
H164	H	1.051687	-0.512489	-0.030046
H165	H	1.101675	-0.554802	0.045120
H166	H	1.054648	-0.607412	-0.148921
H167	H	1.104643	-0.649728	-0.073776
H168	H	0.935683	-0.710476	-0.000018
H169	H	0.706738	-0.547460	-0.000016
H170	H	0.925366	-0.007791	0.696098
O171	O	0.904249	0.013123	0.294684
C172	C	0.891721	-0.054574	0.323677
H173	H	0.834271	-0.053204	0.356208
H174	H	0.927200	-0.071902	0.392385
C175	C	0.978275	-0.108647	0.178633
C176	C	0.907713	-0.106966	0.218580
H177	H	0.988143	-0.140966	0.113807
H178	H	0.986718	-0.063038	0.159103
H179	H	1.007833	-0.123084	0.235900
H180	H	0.878157	-0.092520	0.161319
H181	H	0.899266	-0.152573	0.238099
H182	H	0.752571	0.164915	0.696140
