data_functionalizedCrystal
_audit_creation_method	'MofGen! by Chris Wilmer'
_symmetry_space_group_name_H-M	'P1'
_symmetry_Int_Tables_number	1
_symmetry_cell_setting	triclinic
loop_
_symmetry_equiv_pos_as_xyz
  x,y,z
_cell_length_a	27.731993
_cell_length_b	27.732048
_cell_length_c	22.610064
_cell_angle_alpha	89.999096
_cell_angle_beta	90.003380
_cell_angle_gamma	82.631525
loop_
_atom_site_label
_atom_site_type_symbol
_atom_site_fract_x
_atom_site_fract_y
_atom_site_fract_z
O1	O	0.640948	0.057385	-0.049032
O2	O	1.140948	0.557385	0.450968
O3	O	0.500151	0.066158	-0.049069
O4	O	1.000151	0.566158	0.450931
O5	O	0.574922	-0.008626	-0.049038
O6	O	1.074922	0.491374	0.450962
O7	O	0.566176	0.132169	-0.049063
O8	O	1.066176	0.632169	0.450937
O9	O	0.574909	-0.008615	0.049331
O10	O	1.074909	0.491385	0.549331
O11	O	0.500137	0.066169	0.049300
O12	O	1.000137	0.566169	0.549300
O13	O	0.640935	0.057396	0.049337
O14	O	1.140935	0.557396	0.549337
Zn15	Zn	0.570534	0.061784	0.064937
Zn16	Zn	1.070534	0.561784	0.564937
Zn17	Zn	0.570551	0.061770	-0.064668
Zn18	Zn	1.070551	0.561770	0.435332
O19	O	0.566163	0.132180	0.049307
O20	O	1.066163	0.632180	0.549307
C21	C	0.482137	0.065983	0.000111
C22	C	0.982137	0.565983	0.500111
C23	C	0.428480	0.065441	0.000098
C24	C	0.928480	0.565441	0.500098
C25	C	0.045327	0.061504	-0.053494
C26	C	0.545327	0.561504	0.446506
C27	C	0.246985	0.063571	-0.053510
C28	C	0.746985	0.563571	0.446490
O29	O	0.273064	0.063814	-0.099114
O30	O	0.773064	0.563814	0.400886
N31	N	0.272198	0.063836	0.000109
N32	N	0.772198	0.563836	0.500109
C33	C	0.246994	0.063581	0.053737
C34	C	0.746994	0.563581	0.553737
O35	O	0.273067	0.063848	0.099344
O36	O	0.773067	0.563848	0.599344
C37	C	0.045338	0.061510	0.053753
C38	C	0.545338	0.561510	0.553753
C39	C	0.020127	0.061251	0.000130
C40	C	0.520127	0.561251	0.500130
C41	C	0.020116	0.061244	-0.107113
C42	C	0.520116	0.561244	0.392887
C43	C	-0.030295	0.060730	-0.107108
C44	C	0.469705	0.560730	0.392892
C45	C	-0.055496	0.060476	-0.053485
C46	C	0.444504	0.560476	0.446515
C47	C	-0.030285	0.060736	0.000134
C48	C	0.469715	0.560736	0.500134
C49	C	0.020135	0.061251	0.107380
C50	C	0.520135	0.561251	0.607380
C51	C	-0.030282	0.060732	0.107379
C52	C	0.469718	0.560732	0.607379
C53	C	-0.055493	0.060473	0.053756
C54	C	0.444507	0.560473	0.553756
C55	C	-0.105897	0.059968	0.053762
C56	C	0.394103	0.559968	0.553762
N57	N	-0.131110	0.059704	0.000143
N58	N	0.368890	0.559704	0.500143
C59	C	-0.105910	0.059958	-0.053481
C60	C	0.394090	0.559958	0.446519
C61	C	0.352866	0.064669	0.053725
C62	C	0.852866	0.564669	0.553725
C63	C	0.403280	0.065187	0.053721
C64	C	0.903280	0.565187	0.553721
C65	C	0.403267	0.065177	-0.053526
C66	C	0.903267	0.565177	0.446474
C67	C	0.352852	0.064662	-0.053522
C68	C	0.852852	0.564662	0.446478
C69	C	0.327653	0.064404	0.000105
C70	C	0.827653	0.564404	0.500105
C71	C	-0.211778	0.058879	-0.053467
C72	C	0.288222	0.558879	0.446533
C73	C	-0.262194	0.058367	-0.053458
C74	C	0.237806	0.558367	0.446542
C75	C	-0.262177	0.058374	0.053790
C76	C	0.237823	0.558374	0.553790
C77	C	-0.211765	0.058889	0.053781
C78	C	0.288235	0.558889	0.553781
C79	C	-0.186567	0.059139	0.000147
C80	C	0.313433	0.559139	0.500147
O81	O	-0.132007	0.059720	0.099342
O82	O	0.367993	0.559720	0.599342
O83	O	-0.131990	0.059679	-0.099081
O84	O	0.368010	0.559679	0.400919
C85	C	0.095739	0.062019	-0.053499
C86	C	0.595739	0.562019	0.446501
C87	C	0.120950	0.062279	0.000120
C88	C	0.620950	0.562279	0.500120
C89	C	0.095750	0.062025	0.053744
C90	C	0.595750	0.562025	0.553744
C91	C	0.171364	0.062797	0.000117
C92	C	0.671364	0.562797	0.500117
C93	C	0.196564	0.063051	-0.053507
C94	C	0.696564	0.563051	0.446493
C95	C	0.171351	0.062786	-0.107127
C96	C	0.671351	0.562786	0.392873
C97	C	0.120940	0.062272	-0.107122
C98	C	0.620940	0.562272	0.392878
C99	C	0.120963	0.062289	0.107364
C100	C	0.620963	0.562289	0.607364
C101	C	0.171374	0.062804	0.107355
C102	C	0.671374	0.562804	0.607355
C103	C	0.196575	0.063058	0.053731
C104	C	0.696575	0.563058	0.553731
C105	C	0.574732	-0.026628	0.000148
C106	C	1.074732	0.473372	0.500148
C107	C	0.574179	-0.080282	0.000153
C108	C	1.074179	0.419718	0.500153
C109	C	0.614884	-0.419105	0.000133
C110	C	1.114884	0.080895	0.500133
C111	C	0.612833	-0.620765	0.000125
C112	C	1.112833	-0.120765	0.500125
O113	O	0.650055	-0.652028	0.000109
O114	O	1.150055	-0.152028	0.500109
N115	N	0.568497	-0.639880	0.000114
N116	N	1.068497	-0.139880	0.500114
C117	C	0.524670	-0.608576	0.000101
C118	C	1.024670	-0.108576	0.500101
O119	O	0.486912	-0.629462	0.000085
O120	O	0.986912	-0.129462	0.500085
C121	C	0.526721	-0.406918	0.000105
C122	C	1.026721	0.093082	0.500105
C123	C	0.571061	-0.387806	0.000122
C124	C	1.071061	0.112194	0.500122
C125	C	0.659220	-0.399993	0.000150
C126	C	1.159220	0.100007	0.500150
C127	C	0.659732	-0.349581	0.000155
C128	C	1.159732	0.150419	0.500155
C129	C	0.615909	-0.318282	0.000144
C130	C	1.115909	0.181718	0.500144
C131	C	0.571573	-0.337394	0.000128
C132	C	1.071573	0.162606	0.500128
C133	C	0.482895	-0.375616	0.000088
C134	C	0.982895	0.124384	0.500088
C135	C	0.483412	-0.325199	0.000088
C136	C	0.983412	0.174801	0.500088
C137	C	0.527751	-0.306087	0.000105
C138	C	1.027751	0.193913	0.500105
C139	C	0.528262	-0.255683	0.000122
C140	C	1.028262	0.244317	0.500122
N141	N	0.572598	-0.236568	0.000133
N142	N	1.072598	0.263432	0.500133
C143	C	0.616422	-0.267867	0.000144
C144	C	1.116422	0.232133	0.500144
C145	C	0.523596	-0.714450	0.000100
C146	C	1.023596	-0.214450	0.500100
C147	C	0.523083	-0.764865	0.000099
C148	C	1.023083	-0.264865	0.500099
C149	C	0.611246	-0.777049	0.000122
C150	C	1.111246	-0.277049	0.500122
C151	C	0.611759	-0.726634	0.000127
C152	C	1.111759	-0.226634	0.500127
C153	C	0.567932	-0.695335	0.000111
C154	C	1.067932	-0.195335	0.500111
C155	C	0.617494	-0.161998	0.000156
C156	C	1.117494	0.338002	0.500156
C157	C	0.618003	-0.111582	0.000164
C158	C	1.118003	0.388418	0.500164
C159	C	0.529839	-0.099401	0.000138
C160	C	1.029839	0.400599	0.500138
C161	C	0.529331	-0.149814	0.000133
C162	C	1.029331	0.350186	0.500133
C163	C	0.573162	-0.181112	0.000140
C164	C	1.073162	0.318888	0.500140
O165	O	0.491060	-0.224392	0.000132
O166	O	0.991060	0.275608	0.500132
O167	O	0.654174	-0.246972	0.000147
O168	O	1.154174	0.253028	0.500147
C169	C	0.614372	-0.469517	0.000128
C170	C	1.114372	0.030483	0.500128
C171	C	0.570036	-0.488630	0.000112
C172	C	1.070036	0.011370	0.500112
C173	C	0.526213	-0.457331	0.000101
C174	C	1.026213	0.042669	0.500101
C175	C	0.569523	-0.539044	0.000111
C176	C	1.069523	-0.039044	0.500111
C177	C	0.613346	-0.570343	0.000122
C178	C	1.113346	-0.070343	0.500122
C179	C	0.657683	-0.551228	0.000134
C180	C	1.157683	-0.051228	0.500134
C181	C	0.658195	-0.500817	0.000139
C182	C	1.158195	-0.000817	0.500139
C183	C	0.481876	-0.476446	0.000089
C184	C	0.981876	0.023554	0.500089
C185	C	0.481368	-0.526858	0.000085
C186	C	0.981368	-0.026858	0.500085
C187	C	0.525191	-0.558157	0.000096
C188	C	1.025191	-0.058157	0.500096
C189	C	0.658949	0.057570	0.000156
C190	C	1.158949	0.557570	0.500156
C191	C	0.712605	0.058113	0.000166
C192	C	1.212605	0.558113	0.500166
C193	C	0.566353	0.150181	0.000119
C194	C	1.066353	0.650181	0.500119
C195	C	0.566906	0.203836	0.000110
C196	C	1.066906	0.703836	0.500110
N197	N	0.570526	0.061794	0.153390
N198	N	1.070526	0.561794	0.653390
N199	N	0.570564	0.061756	-0.153121
N200	N	1.070564	0.561756	0.346879
C201	C	0.603662	0.028660	0.562045
C202	C	1.103662	0.528660	1.062045
C203	C	0.603664	0.028657	0.623965
C204	C	1.103664	0.528657	1.123965
O205	O	0.631817	0.000493	0.655995
O206	O	1.131817	0.500493	1.155995
N207	N	0.570551	0.061760	0.654927
N208	N	1.070551	0.561760	1.154927
C209	C	0.537430	0.094865	0.623966
C210	C	1.037430	0.594865	1.123966
O211	O	0.509265	0.123021	0.655987
O212	O	1.009265	0.623021	1.155987
C213	C	0.537426	0.094866	0.562047
C214	C	1.037426	0.594866	1.062047
C215	C	0.570544	0.061764	0.531088
C216	C	1.070544	0.561764	1.031088
C217	C	0.636777	-0.004439	0.531086
C218	C	1.136777	0.495561	1.031086
C219	C	0.636775	-0.004435	0.469170
C220	C	1.136775	0.495565	0.969170
C221	C	0.603658	0.028669	0.438213
C222	C	1.103658	0.528669	0.938213
C223	C	0.570542	0.061768	0.469172
C224	C	1.070542	0.561768	0.969172
C225	C	0.504303	0.127968	0.531087
C226	C	1.004303	0.627968	1.031087
C227	C	0.504301	0.127966	0.469164
C228	C	1.004301	0.627966	0.969164
C229	C	0.537419	0.094864	0.438205
C230	C	1.037419	0.594864	0.938205
C231	C	0.537423	0.094876	0.376300
C232	C	1.037423	0.594876	0.876300
N233	N	0.570536	0.061773	0.345338
N234	N	1.070536	0.561773	0.845338
C235	C	0.603653	0.028670	0.376295
C236	C	1.103653	0.528670	0.876295
C237	C	0.537441	0.094860	0.753999
C238	C	1.037441	0.594860	1.253999
C239	C	0.537448	0.094862	0.815917
C240	C	1.037448	0.594862	1.315917
C241	C	0.603681	0.028653	0.815912
C242	C	1.103681	0.528653	1.315912
C243	C	0.603677	0.028654	0.753993
C244	C	1.103677	0.528654	1.253993
C245	C	0.570554	0.061757	0.723037
C246	C	1.070554	0.561757	1.223037
C247	C	0.603647	0.028681	0.246267
C248	C	1.103647	0.528681	0.746267
C249	C	0.603643	0.028690	0.184346
C250	C	1.103643	0.528690	0.684346
C251	C	0.537408	0.094897	0.184357
C252	C	1.037408	0.594897	0.684357
C253	C	0.537413	0.094890	0.246273
C254	C	1.037413	0.594890	0.746273
C255	C	0.570534	0.061778	0.277226
C256	C	1.070534	0.561778	0.777226
O257	O	0.509283	0.123024	0.344230
O258	O	1.009283	0.623024	0.844230
O259	O	0.631810	0.000514	0.344266
O260	O	1.131810	0.500514	0.844266
H261	H	0.040629	0.061449	-0.150782
H262	H	0.540629	0.561449	0.349218
H263	H	-0.050797	0.060527	0.151050
H264	H	0.449203	0.560527	0.651050
C265	C	0.431008	0.065479	0.112705
C266	C	0.931008	0.565479	0.612705
H267	H	0.464642	0.065828	0.105028
H268	H	0.964642	0.565828	0.605028
H269	H	0.426647	0.037197	0.134742
H270	H	0.926647	0.537197	0.634742
H271	H	0.418844	0.093599	0.134732
H272	H	0.918844	0.593599	0.634732
C273	C	0.047857	0.061538	0.166367
C274	C	0.547857	0.561538	0.666367
H275	H	0.025622	0.061308	0.198298
H276	H	0.525622	0.561308	0.698298
H277	H	0.063623	0.089939	0.168597
H278	H	0.563623	0.589939	0.668597
H279	H	0.071423	0.033537	0.168602
H280	H	0.571423	0.533537	0.668602
C281	C	0.640109	-0.007764	0.849969
C282	C	1.140109	0.492236	1.349969
H283	H	0.659834	-0.027478	0.822666
H284	H	1.159834	0.472522	1.322666
H285	H	0.622870	-0.027762	0.874124
H286	H	1.122870	0.472238	1.374124
H287	H	0.660101	0.009486	0.874124
H288	H	1.160101	0.509486	1.374124
H289	H	0.663742	-0.031391	0.443967
H290	H	1.163742	0.468609	0.943967
H291	H	0.630614	0.001734	0.159141
H292	H	1.130614	0.501734	0.659141
H293	H	0.694908	-0.425472	0.000157
H294	H	1.194908	0.074528	0.500157
H295	H	-0.191267	0.059083	-0.097140
H296	H	0.308733	0.559083	0.402860
H297	H	0.630644	0.001699	0.728790
H298	H	1.130644	0.501699	1.228790
C299	C	0.475383	-0.680027	0.000090
C300	C	0.975383	-0.180027	0.500090
H301	H	0.448909	-0.698637	0.000090
H302	H	0.948909	-0.198637	0.500090
H303	H	0.473748	-0.660105	-0.034212
H304	H	0.973748	-0.160105	0.465788
H305	H	0.473747	-0.660110	0.034399
H306	H	0.973747	-0.160110	0.534399
H307	H	-0.191239	0.059110	0.097445
H308	H	0.308761	0.559110	0.597445
C309	C	0.500980	0.131309	0.150300
C310	C	1.000980	0.631309	0.650300
H311	H	0.481258	0.151026	0.177603
H312	H	0.981258	0.651026	0.677603
H313	H	0.480992	0.114059	0.126144
H314	H	0.980992	0.614059	0.626144
H315	H	0.518219	0.151311	0.126147
H316	H	1.018219	0.651311	0.626147
C317	C	-0.289898	0.058054	0.112771
C318	C	0.210102	0.558054	0.612771
H319	H	-0.323531	0.057692	0.105089
H320	H	0.176469	0.557692	0.605089
H321	H	-0.285550	0.086325	0.134836
H322	H	0.214450	0.586325	0.634836
H323	H	-0.277719	0.029923	0.134772
H324	H	0.222281	0.529923	0.634772
H325	H	0.510450	0.121849	0.271480
H326	H	1.010450	0.621849	0.771480
C327	C	0.199103	0.063090	0.166343
C328	C	0.699103	0.563090	0.666343
H329	H	0.232738	0.063435	0.158666
H330	H	0.732738	0.563435	0.658666
H331	H	0.194739	0.034808	0.188377
H332	H	0.694739	0.534808	0.688377
H333	H	0.186943	0.091210	0.188373
H334	H	0.686943	0.591210	0.688373
H335	H	0.663745	-0.031398	0.556285
H336	H	1.163745	0.468602	1.056285
H337	H	0.654110	-0.096024	0.000180
H338	H	1.154110	0.403976	0.500180
C339	C	-0.289924	0.058080	-0.112446
C340	C	0.210076	0.558080	0.387554
H341	H	-0.267691	0.058300	-0.144381
H342	H	0.232309	0.558300	0.355619
H343	H	-0.313490	0.086078	-0.114680
H344	H	0.186510	0.586078	0.385320
H345	H	-0.305690	0.029676	-0.114670
H346	H	0.194310	0.529676	0.385330
H347	H	0.510484	0.121821	0.841120
H348	H	1.010484	0.621821	1.341120
H349	H	0.100450	0.062080	0.151031
H350	H	0.600450	0.562080	0.651031
H351	H	0.447722	-0.299717	0.000074
H352	H	0.947722	0.200283	0.500074
H353	H	0.423794	0.065385	-0.097189
H354	H	0.923794	0.565385	0.402811
H355	H	0.695838	-0.334025	0.000167
H356	H	1.195838	0.165975	0.500167
H357	H	0.332354	0.064457	0.097397
H358	H	0.832354	0.564457	0.597397
C359	C	0.706969	-0.479800	0.000152
C360	C	1.206969	0.020200	0.500152
H361	H	0.732991	-0.505666	0.000152
H362	H	1.232991	-0.005666	0.500152
H363	H	0.709002	-0.460387	0.034455
H364	H	1.209002	0.039613	0.534455
H365	H	0.709007	-0.460388	-0.034156
H366	H	1.209007	0.039612	0.465844
C367	C	0.501011	0.131283	0.719953
C368	C	1.001011	0.631283	1.219953
H369	H	0.481296	0.150998	0.747266
H370	H	0.981296	0.650998	1.247266
H371	H	0.481015	0.114042	0.695797
H372	H	0.981015	0.614042	1.195797
H373	H	0.518250	0.151285	0.695802
H374	H	1.018250	0.651285	1.195802
C375	C	0.432591	-0.547875	0.000064
C376	C	0.932591	-0.047875	0.500064
H377	H	0.406567	-0.522010	0.000052
H378	H	0.906567	-0.022010	0.500052
H379	H	0.430547	-0.567293	0.034362
H380	H	0.930547	-0.067293	0.534362
H381	H	0.430565	-0.567283	-0.034249
H382	H	0.930565	-0.067283	0.465751
C383	C	-0.058020	0.060432	-0.166094
C384	C	0.441980	0.560432	0.333906
H385	H	-0.035784	0.060650	-0.198027
H386	H	0.464216	0.560650	0.301973
H387	H	-0.081590	0.088426	-0.168339
H388	H	0.418410	0.588426	0.331661
H389	H	-0.073780	0.032024	-0.168314
H390	H	0.426220	0.532024	0.331686
C391	C	0.660531	-0.705615	0.000140
C392	C	1.160531	-0.205615	0.500140
H393	H	0.686555	-0.731480	0.000143
H394	H	1.186555	-0.231480	0.500143
H395	H	0.662562	-0.686200	0.034442
H396	H	1.162562	-0.186200	0.534442
H397	H	0.662570	-0.686205	-0.034169
H398	H	1.162570	-0.186205	0.465831
C399	C	0.480559	-0.170838	0.000113
C400	C	0.980559	0.329162	0.500113
H401	H	0.454533	-0.144975	0.000104
H402	H	0.954533	0.355025	0.500104
H403	H	0.478517	-0.190258	0.034410
H404	H	0.978517	0.309742	0.534410
H405	H	0.478535	-0.190244	-0.034202
H406	H	0.978535	0.309756	0.465798
H407	H	0.494160	-0.073909	0.000131
H408	H	0.994160	0.426091	0.500131
C409	C	0.325124	0.064376	-0.112507
C410	C	0.825124	0.564376	0.387493
H411	H	0.347358	0.064600	-0.144441
H412	H	0.847358	0.564600	0.355559
H413	H	0.301556	0.092372	-0.114740
H414	H	0.801556	0.592372	0.385260
H415	H	0.309361	0.035970	-0.114735
H416	H	0.809361	0.535970	0.385265
H417	H	0.100417	0.062061	-0.150788
H418	H	0.600417	0.562061	0.349212
C419	C	0.665707	-0.196419	0.000169
C420	C	1.165707	0.303581	0.500169
H421	H	0.692182	-0.177810	0.000185
H422	H	1.192182	0.322190	0.500185
H423	H	0.667351	-0.216339	-0.034134
H424	H	1.167351	0.283661	0.465866
H425	H	0.667335	-0.216338	0.034477
H426	H	1.167335	0.283662	0.534477
C427	C	0.659451	-0.811485	0.000125
C428	C	1.159451	-0.311485	0.500125
H429	H	0.652791	-0.844245	0.000116
H430	H	1.152791	-0.344245	0.500116
H431	H	0.677651	-0.805733	0.034429
H432	H	1.177651	-0.305733	0.534429
H433	H	0.677645	-0.805725	-0.034183
H434	H	1.177645	-0.305725	0.465817
H435	H	0.446789	-0.391168	0.000071
H436	H	0.946789	0.108832	0.500071
H437	H	0.191878	0.062996	-0.150789
H438	H	0.691878	0.562996	0.349211
H439	H	0.486977	-0.780421	0.000096
H440	H	0.986977	-0.280421	0.500096
H441	H	0.477327	0.154922	0.443963
H442	H	0.977327	0.654922	0.943963
C443	C	0.705887	-0.585664	0.000141
C444	C	1.205887	-0.085664	0.500141
H445	H	0.699227	-0.618425	0.000131
H446	H	1.199227	-0.118425	0.500131
H447	H	0.724084	-0.579912	0.034448
H448	H	1.224084	-0.079912	0.534448
H449	H	0.724085	-0.579905	-0.034164
H450	H	1.224085	-0.079905	0.465836
H451	H	0.477335	0.154922	0.556285
H452	H	0.977335	0.654922	1.056285
C453	C	0.433668	-0.442023	0.000083
C454	C	0.933668	0.057977	0.500083
H455	H	0.407193	-0.460632	0.000081
H456	H	0.907193	0.039368	0.500081
H457	H	0.432032	-0.422098	-0.034216
H458	H	0.932032	0.077902	0.465784
H459	H	0.432031	-0.422108	0.034395
H460	H	0.932031	0.077892	0.534395
H461	H	0.630616	0.001718	0.271463
H462	H	1.130616	0.501718	0.771463
