data_functionalizedCrystal
_audit_creation_method	'MofGen! by Chris Wilmer'
_symmetry_space_group_name_H-M	'P1'
_symmetry_Int_Tables_number	1
_symmetry_cell_setting	triclinic
loop_
_symmetry_equiv_pos_as_xyz
  x,y,z
_cell_length_a	21.295420
_cell_length_b	21.295417
_cell_length_c	21.295411
_cell_angle_alpha	89.978356
_cell_angle_beta	90.024592
_cell_angle_gamma	89.973711
loop_
_atom_site_label
_atom_site_type_symbol
_atom_site_fract_x
_atom_site_fract_y
_atom_site_fract_z
Zn1	Zn	0.962355	0.250752	0.355912
Zn2	Zn	1.462355	0.750752	0.855912
Zn3	Zn	0.962258	0.356004	0.250637
Zn4	Zn	1.462258	0.856004	0.750637
Zn5	Zn	0.857079	0.250744	0.250657
Zn6	Zn	1.357079	0.750744	0.750657
Zn7	Zn	0.857048	0.355979	0.355869
Zn8	Zn	1.357048	0.855979	0.855869
O9	O	0.909685	0.303370	0.303269
O10	O	1.409685	0.803370	0.803269
O11	O	1.050432	0.264727	0.341957
O12	O	1.550432	0.764727	0.841957
O13	O	0.948277	0.342048	0.162550
O14	O	1.448277	0.842048	0.662550
O15	O	0.871097	0.162656	0.264645
O16	O	1.371097	0.662656	0.764645
O17	O	1.050360	0.342055	0.264612
O18	O	1.550360	0.842055	0.764612
O19	O	0.948444	0.162661	0.341976
O20	O	1.448444	0.662661	0.841976
O21	O	0.871003	0.264714	0.162565
O22	O	1.371003	0.764714	0.662565
O23	O	0.768985	0.264691	0.264604
O24	O	1.268985	0.764691	0.764604
O25	O	0.871045	0.342014	0.443964
O26	O	1.371045	0.842014	0.943964
O27	O	0.768963	0.342006	0.341903
O28	O	1.268963	0.842006	0.841903
O29	O	0.948414	0.264703	0.443996
O30	O	1.448414	0.764703	0.943996
O31	O	0.948248	0.444090	0.264570
O32	O	1.448248	0.944090	0.764570
O33	O	0.870951	0.444072	0.341884
O34	O	1.370951	0.944072	0.841884
C35	C	0.746133	0.303346	0.303251
C36	C	1.246133	0.803346	0.803251
C37	C	0.676165	0.303351	0.303258
C38	C	1.176165	0.803351	0.803258
C39	C	0.909737	0.303357	0.467459
C40	C	1.409737	0.803357	0.967459
C41	C	0.909759	0.303351	0.537427
C42	C	1.409759	0.803351	1.037427
C43	C	0.909602	0.466921	0.303234
C44	C	1.409602	0.966921	0.803234
C45	C	0.909625	0.536890	0.303240
C46	C	1.409625	1.036890	0.803240
C47	C	0.176744	0.263200	0.343617
C48	C	0.676744	0.763200	0.843617
C49	C	0.242486	0.263195	0.343617
C50	C	0.742486	0.763195	0.843617
C51	C	0.275326	0.303389	0.303283
C52	C	0.775326	0.803389	0.803283
C53	C	0.242417	0.343602	0.262958
C54	C	0.742417	0.843602	0.762958
C55	C	0.176676	0.343610	0.262964
C56	C	0.676676	0.843610	0.762964
N57	N	0.378516	0.308125	0.248164
N58	N	0.878516	0.808125	0.748164
N59	N	0.440967	0.308113	0.248160
N60	N	0.940967	0.808113	0.748160
C61	C	0.473400	0.303368	0.303265
C62	C	0.973400	0.803368	0.803265
N63	N	0.441023	0.298623	0.358375
N64	N	0.941023	0.798623	0.858375
N65	N	0.378566	0.298631	0.358377
N66	N	0.878566	0.798631	0.858377
C67	C	0.346611	0.303385	0.303273
C68	C	0.846611	0.803385	0.803273
C69	C	0.577587	0.263156	0.343591
C70	C	1.077587	0.763156	0.843591
C71	C	0.643330	0.263156	0.343592
C72	C	1.143330	0.763156	0.843592
C73	C	0.643260	0.343559	0.262927
C74	C	1.143260	0.843559	0.762927
C75	C	0.577517	0.343562	0.262932
C76	C	1.077517	0.843562	0.762932
C77	C	0.544685	0.303358	0.303263
C78	C	1.044685	0.803358	0.803263
C79	C	1.073875	0.303394	0.303287
C80	C	1.573875	0.803394	0.803287
C81	C	1.143843	0.303405	0.303295
C82	C	1.643843	0.803405	0.803295
C83	C	0.909785	0.139180	0.303318
C84	C	1.409785	0.639180	0.803318
C85	C	0.909827	0.069211	0.303338
C86	C	1.409827	0.569211	0.803338
C87	C	0.949909	0.569745	0.263024
C88	C	1.449909	1.069745	0.763024
C89	C	0.949939	0.635487	0.263038
C90	C	1.449939	1.135487	0.763038
C91	C	0.909672	0.668372	0.303262
C92	C	1.409672	1.168372	0.803262
C93	C	0.869385	0.635509	0.343485
C94	C	1.369385	1.135509	0.843485
C95	C	0.869361	0.569768	0.343474
C96	C	1.369361	1.069768	0.843474
N97	N	0.854605	0.771635	0.308055
N98	N	1.354605	1.271635	0.808055
N99	N	0.854630	0.834086	0.308061
N100	N	1.354630	1.334086	0.808061
C101	C	0.909743	0.866447	0.303298
C102	C	1.409743	1.366447	0.803298
N103	N	0.964832	0.833997	0.298515
N104	N	1.464832	1.333997	0.798515
N105	N	0.964807	0.771540	0.298505
N106	N	1.464807	1.271540	0.798505
C107	C	0.909694	0.739657	0.303278
C108	C	1.409694	1.239657	0.803278
C109	C	0.950063	0.970587	0.263095
C110	C	1.450063	1.470587	0.763095
C111	C	0.950093	1.036331	0.263114
C112	C	1.450093	1.536331	0.763114
C113	C	0.869534	1.036352	0.343557
C114	C	1.369534	1.536352	0.843557
C115	C	0.869509	0.970609	0.343542
C116	C	1.369509	1.470609	0.843542
C117	C	0.909773	0.937731	0.303308
C118	C	1.409773	1.437731	0.803308
C119	C	0.909669	0.303338	0.139717
C120	C	1.409669	0.803338	0.639717
C121	C	0.909769	0.303166	0.069749
C122	C	1.409769	0.803166	0.569749
C123	C	0.950044	0.263094	0.570311
C124	C	1.450044	0.763094	1.070311
C125	C	0.950043	0.263066	0.636054
C126	C	1.450043	0.763066	1.136054
C127	C	0.909764	0.303308	0.668910
C128	C	1.409764	0.803308	1.168910
C129	C	0.869472	0.343568	0.636018
C130	C	1.369472	0.843568	1.136018
C131	C	0.869470	0.343589	0.570276
C132	C	1.369470	0.843589	1.070276
N133	N	0.904908	0.358375	0.772125
N134	N	1.404908	0.858375	1.272125
N135	N	0.904914	0.358353	0.834577
N136	N	1.404914	0.858353	1.334577
C137	C	0.909768	0.303244	0.866985
C138	C	1.409768	0.803244	1.366985
N139	N	0.914629	0.248157	0.834582
N140	N	1.414629	0.748157	1.334582
N141	N	0.914626	0.248180	0.772125
N142	N	1.414626	0.748180	1.272125
C143	C	0.909762	0.303288	0.740195
C144	C	1.409762	0.803288	1.240195
C145	C	0.950054	0.262953	0.971154
C146	C	1.450054	0.762953	1.471154
C147	C	0.950048	0.262925	1.036898
C148	C	1.450048	0.762925	1.536898
C149	C	0.869481	0.343432	1.036861
C150	C	1.369481	0.843432	1.536861
C151	C	0.869483	0.343455	0.971118
C152	C	1.369483	0.843455	1.471118
C153	C	0.909773	0.303216	0.938269
C154	C	1.409773	0.803216	1.438269
H155	H	0.150016	0.230465	0.376460
H156	H	0.650016	0.730465	0.876460
C157	C	0.994248	0.671638	0.218792
C158	C	1.494248	1.171638	0.718792
C159	C	1.038532	0.635474	0.174535
C160	C	1.538532	1.135474	0.674535
C161	C	1.082839	0.671622	0.130287
C162	C	1.582839	1.171622	0.630287
C163	C	1.082860	0.743935	0.130296
C164	C	1.582860	1.243935	0.630296
C165	C	1.038573	0.780103	0.174555
C166	C	1.538573	1.280103	0.674555
C167	C	0.994267	0.743955	0.218803
C168	C	1.494267	1.243955	0.718803
H169	H	1.038518	0.581940	0.174526
H170	H	1.538518	1.081940	0.674526
H171	H	1.115622	0.644848	0.097523
H172	H	1.615622	1.144848	0.597523
H173	H	1.115658	0.770695	0.097541
H174	H	1.615658	1.270695	0.597541
H175	H	1.038588	0.833637	0.174564
H176	H	1.538588	1.333637	0.674564
H177	H	0.961483	0.770729	0.251567
H178	H	1.461483	1.270729	0.751567
C179	C	0.994360	0.218784	0.672237
C180	C	1.494360	0.718784	1.172237
C181	C	0.994363	0.218762	0.744550
C182	C	1.494363	0.718762	1.244550
C183	C	1.038681	0.174480	0.780730
C184	C	1.538681	0.674480	1.280730
C185	C	1.082996	0.130220	0.744598
C186	C	1.582996	0.630220	1.244598
C187	C	1.082996	0.130240	0.672281
C188	C	1.582996	0.630240	1.172281
C189	C	1.038678	0.174522	0.636100
C190	C	1.538678	0.674522	1.136100
H191	H	0.961557	0.251527	0.771300
H192	H	1.461557	0.751527	1.271300
H193	H	1.038681	0.174465	0.834264
H194	H	1.538681	0.674465	1.334264
H195	H	1.115803	0.097440	0.771381
H196	H	1.615803	0.597440	1.271381
H197	H	1.115802	0.097474	0.645530
H198	H	1.615802	0.597474	1.145530
H199	H	1.038677	0.174536	0.582566
H200	H	1.538677	0.674536	1.082566
C201	C	0.994199	0.533576	0.218771
C202	C	1.494199	1.033576	0.718771
C203	C	1.043590	0.488323	0.246083
C204	C	1.543590	0.988323	0.746083
C205	C	1.087879	0.452152	0.201830
C206	C	1.587879	0.952152	0.701830
C207	C	1.082777	0.461233	0.130266
C208	C	1.582777	0.961233	0.630266
C209	C	1.033383	0.506489	0.102950
C210	C	1.533383	1.006489	0.602950
C211	C	0.989094	0.542660	0.147203
C212	C	1.489094	1.042660	0.647203
H213	H	1.047369	0.481599	0.299063
H214	H	1.547369	0.981599	0.799063
H215	H	1.124444	0.418651	0.222051
H216	H	1.624444	0.918651	0.722051
H217	H	1.115562	0.434457	0.097507
H218	H	1.615562	0.934457	0.597507
H219	H	1.029604	0.513213	0.049970
H220	H	1.529604	1.013213	0.549970
H221	H	0.952530	0.576161	0.126982
H222	H	1.452530	1.076161	0.626982
C223	C	0.825156	0.387878	0.534102
C224	C	1.325156	0.887878	1.034102
C225	C	0.753598	0.382727	0.543112
C226	C	1.253598	0.882727	1.043112
C227	C	0.709285	0.427017	0.506937
C228	C	1.209285	0.927017	1.006937
C229	C	0.736529	0.476460	0.461751
C230	C	1.236529	0.976460	0.961751
C231	C	0.808091	0.481614	0.452739
C232	C	1.308091	0.981614	0.952739
C233	C	0.852405	0.437323	0.488915
C234	C	1.352405	0.937323	0.988915
H235	H	0.733427	0.346124	0.576562
H236	H	1.233427	0.846124	1.076562
H237	H	0.656310	0.423202	0.513608
H238	H	1.156310	0.923202	1.013608
H239	H	0.703726	0.509246	0.434972
H240	H	1.203726	1.009246	0.934972
H241	H	0.828263	0.518216	0.419289
H242	H	1.328263	1.018216	0.919289
H243	H	0.905380	0.441138	0.482243
H244	H	1.405380	0.941138	0.982243
C245	C	0.994356	0.934414	0.218847
C246	C	1.494356	1.434414	0.718847
C247	C	0.989263	0.943497	0.147282
C248	C	1.489263	1.443497	0.647282
C249	C	1.033557	0.907325	0.103034
C250	C	1.533557	1.407325	0.603034
C251	C	1.082943	0.862070	0.130352
C252	C	1.582943	1.362070	0.630352
C253	C	1.088037	0.852984	0.201920
C254	C	1.588037	1.352984	0.701920
C255	C	1.043744	0.889156	0.246168
C256	C	1.543744	1.389156	0.746168
H257	H	0.952703	0.977000	0.127056
H258	H	1.452703	1.477000	0.627056
H259	H	1.029785	0.914051	0.050054
H260	H	1.529785	1.414051	0.550054
H261	H	1.115732	0.835293	0.097597
H262	H	1.615732	1.335293	0.597597
H263	H	1.124598	0.819481	0.222146
H264	H	1.624598	1.319481	0.722146
H265	H	1.047516	0.882430	0.299148
H266	H	1.547516	1.382430	0.799148
C267	C	0.679376	0.387775	0.218561
C268	C	1.179376	0.887775	0.718561
C269	C	0.670315	0.459344	0.223572
C270	C	1.170315	0.959344	0.723572
C271	C	0.706435	0.503564	0.179207
C272	C	1.206435	1.003564	0.679207
C273	C	0.751616	0.476214	0.129832
C274	C	1.251616	0.976214	0.629832
C275	C	0.760679	0.404640	0.124819
C276	C	1.260679	0.904640	0.624819
C277	C	0.724559	0.360421	0.169183
C278	C	1.224559	0.860421	0.669183
H279	H	0.636867	0.479594	0.260125
H280	H	1.136867	0.979594	0.760125
H281	H	0.699725	0.556547	0.182919
H282	H	1.199725	1.056547	0.682919
H283	H	0.778354	0.508947	0.096990
H284	H	1.278354	1.008947	0.596990
H285	H	0.794127	0.384391	0.088266
H286	H	1.294127	0.884391	0.588266
H287	H	0.731269	0.307437	0.165472
H288	H	1.231269	0.807437	0.665472
H289	H	0.836675	0.376330	0.662773
H290	H	1.336675	0.876330	1.162773
C291	C	0.825190	0.934466	0.387777
C292	C	1.325190	1.434466	0.887777
C293	C	0.753634	0.943566	0.382576
C294	C	1.253634	1.443566	0.882576
C295	C	0.709315	0.907424	0.426816
C296	C	1.209315	1.407424	0.926816
C297	C	0.736551	0.862181	0.476257
C298	C	1.236551	1.362181	0.976257
C299	C	0.808111	0.853079	0.481460
C300	C	1.308111	1.353079	0.981460
C301	C	0.852430	0.889221	0.437220
C302	C	1.352430	1.389221	0.937220
H303	H	0.733469	0.977059	0.345975
H304	H	1.233469	1.477059	0.845975
H305	H	0.656342	0.914162	0.422965
H306	H	1.156342	1.414162	0.922965
H307	H	0.703743	0.835426	0.509006
H308	H	1.203743	1.335426	1.009006
H309	H	0.828276	0.819585	0.518061
H310	H	1.328276	1.319585	1.018061
H311	H	0.905403	0.882483	0.441072
H312	H	1.405403	1.382483	0.941072
H313	H	0.982902	1.063080	0.230367
H314	H	1.482902	1.563080	0.730367
H315	H	0.269159	0.376329	0.230120
H316	H	0.769159	0.876329	0.730120
C317	C	0.679521	0.218928	0.387952
C318	C	1.179521	0.718928	0.887952
C319	C	0.670508	0.224161	0.459505
C320	C	1.170508	0.724161	0.959505
C321	C	0.706698	0.179932	0.503867
C322	C	1.206698	0.679932	1.003867
C323	C	0.751900	0.130469	0.476677
C324	C	1.251900	0.630469	0.976677
C325	C	0.760915	0.125233	0.405121
C326	C	1.260915	0.625233	0.905121
C327	C	0.724725	0.169463	0.360759
C328	C	1.224725	0.669463	0.860759
H329	H	0.637045	0.260779	0.479636
H330	H	1.137045	0.760779	0.979636
H331	H	0.700024	0.183808	0.556838
H332	H	1.200024	0.683808	1.056838
H333	H	0.778690	0.097728	0.509517
H334	H	1.278690	0.597728	1.009517
H335	H	0.794378	0.088616	0.384990
H336	H	1.294378	0.588616	0.884990
H337	H	0.731399	0.165586	0.307788
H338	H	1.231399	0.665586	0.807788
H339	H	0.269279	0.230453	0.376452
H340	H	0.769279	0.730453	0.876452
C341	C	0.994356	0.218826	0.534180
C342	C	1.494356	0.718826	1.034180
C343	C	0.989263	0.147261	0.543226
C344	C	1.489263	0.647261	1.043226
C345	C	1.033575	0.102992	0.507094
C346	C	1.533575	0.602992	1.007094
C347	C	1.082980	0.130287	0.461917
C348	C	1.582980	0.630287	0.961917
C349	C	1.088076	0.201855	0.452869
C350	C	1.588076	0.701855	0.952869
C351	C	1.043764	0.246125	0.489001
C352	C	1.543764	0.746125	0.989001
H353	H	0.952688	0.127052	0.576670
H354	H	1.452688	0.627052	1.076670
H355	H	1.029802	0.050012	0.513792
H356	H	1.529802	0.550012	1.013792
H357	H	1.115783	0.097516	0.435170
H358	H	1.615783	0.597516	0.935170
H359	H	1.124651	0.222064	0.419425
H360	H	1.624651	0.722064	0.919425
H361	H	1.047537	0.299104	0.482303
H362	H	1.547537	0.799104	0.982303
H363	H	0.836683	0.376240	0.944344
H364	H	1.336683	0.876240	1.444344
H365	H	0.982856	0.230185	0.944407
H366	H	1.482856	0.730185	1.444407
H367	H	0.982852	0.230139	1.063671
H368	H	1.482852	0.730139	1.563671
H369	H	0.550729	0.376299	0.230094
H370	H	1.050729	0.876299	0.730094
H371	H	0.836601	0.662288	0.376237
H372	H	1.336601	1.162288	0.876237
H373	H	0.149888	0.376351	0.230128
H374	H	0.649888	0.876351	0.730128
H375	H	0.550853	0.230419	0.376430
H376	H	1.050853	0.730419	0.876430
H377	H	0.836556	0.543017	0.376224
H378	H	1.336556	1.043017	0.876224
H379	H	0.836752	1.063126	0.376311
H380	H	1.336752	1.563126	0.876311
H381	H	0.836679	0.376191	1.063611
H382	H	1.336679	0.876191	1.563611
