data_functionalizedCrystal
_audit_creation_method	'MofGen! by Chris Wilmer'
_symmetry_space_group_name_H-M	'P1'
_symmetry_Int_Tables_number	1
_symmetry_cell_setting	triclinic
loop_
_symmetry_equiv_pos_as_xyz
  x,y,z
_cell_length_a	10.723023
_cell_length_b	9.065218
_cell_length_c	7.540329
_cell_angle_alpha	89.997902
_cell_angle_beta	89.997180
_cell_angle_gamma	84.741717
loop_
_atom_site_label
_atom_site_type_symbol
_atom_site_fract_x
_atom_site_fract_y
_atom_site_fract_z
O1	O	1.658027	0.206934	-0.147471
O2	O	1.294955	0.226744	-0.147475
O3	O	1.483996	0.002154	-0.147468
O4	O	1.468986	0.431524	-0.147479
O5	O	1.483984	0.002151	0.147497
O6	O	1.294944	0.226741	0.147490
O7	O	1.658016	0.206931	0.147494
Cu8	Cu	1.476479	0.216836	0.174424
Cu9	Cu	1.476492	0.216839	-0.174406
O10	O	1.468975	0.431521	0.147487
C11	C	1.248444	0.225301	0.000007
C12	C	1.109872	0.220989	0.000005
C13	C	1.048098	0.219067	-0.152796
C14	C	0.904877	0.214610	-0.152802
C15	C	1.482547	-0.052826	0.000012
C16	C	1.478234	-0.216644	0.000005
C17	C	1.704527	0.208374	0.000008
C18	C	1.843099	0.212687	-0.000002
C19	C	1.470423	0.486501	0.000003
C20	C	1.474736	0.650319	-0.000002
N21	N	1.476478	0.216833	0.419773
N22	N	1.476502	0.216831	-0.419754
H23	H	0.896215	0.214332	0.130823
O24	O	0.841429	0.212902	-0.308830
C25	C	0.753395	0.338098	-0.318297
H26	H	0.783840	0.428478	-0.227124
H27	H	0.657625	0.306186	-0.274921
C28	C	0.708084	0.284870	-0.622374
C29	C	0.745482	0.395881	-0.510404
H30	H	0.703197	0.320511	-0.740874
H31	H	0.767390	0.200519	-0.615995
H32	H	0.628279	0.258286	-0.586205
H33	H	0.825292	0.422450	-0.546560
H34	H	0.686188	0.480238	-0.516793
O35	O	1.111287	0.221110	-0.309026
C36	C	1.026046	0.218423	-0.451102
H37	H	0.928549	0.262152	-0.404135
H38	H	1.024008	0.099833	-0.500574
C39	C	1.187137	0.262905	-0.660599
C40	C	1.067391	0.316626	-0.602917
H41	H	1.212642	0.323474	-0.754250
H42	H	1.244567	0.264709	-0.564881
H43	H	1.185423	0.164080	-0.701814
H44	H	1.069111	0.415441	-0.561683
H45	H	1.009962	0.314840	-0.698631
H46	H	1.056727	0.219342	0.130820
