data_functionalizedCrystal
_audit_creation_method	'MofGen! by Chris Wilmer'
_symmetry_space_group_name_H-M	'P1'
_symmetry_Int_Tables_number	1
_symmetry_cell_setting	triclinic
loop_
_symmetry_equiv_pos_as_xyz
  x,y,z
_cell_length_a	13.033808
_cell_length_b	18.101395
_cell_length_c	13.032268
_cell_angle_alpha	82.853748
_cell_angle_beta	76.702628
_cell_angle_gamma	97.225542
loop_
_atom_site_label
_atom_site_type_symbol
_atom_site_fract_x
_atom_site_fract_y
_atom_site_fract_z
Zn1	Zn	1.547369	-0.190852	0.394609
Zn2	Zn	2.047369	0.309148	0.894609
Zn3	Zn	1.569786	-0.296706	0.217025
Zn4	Zn	2.069786	0.203294	0.717025
Zn5	Zn	1.392322	-0.190905	0.239548
Zn6	Zn	1.892322	0.309095	0.739548
Zn7	Zn	1.369693	-0.332694	0.417089
Zn8	Zn	1.869693	0.167306	0.917089
O9	O	1.469793	-0.252789	0.317068
O10	O	1.969793	0.247211	0.817068
O11	O	1.698970	-0.189811	0.352218
O12	O	2.198970	0.310189	0.852218
O13	O	1.565098	-0.267632	0.071392
O14	O	2.065098	0.232368	0.571392
O15	O	1.412978	-0.087258	0.260135
O16	O	1.912978	0.412742	0.760135
O17	O	1.715440	-0.267581	0.221748
O18	O	2.215440	0.232419	0.721748
O19	O	1.526890	-0.087220	0.374057
O20	O	2.026890	0.412780	0.874057
O21	O	1.434715	-0.189901	0.087939
O22	O	1.934715	0.310099	0.587939
O23	O	1.240693	-0.224796	0.281933
O24	O	1.740693	0.275204	0.781933
O25	O	1.374410	-0.328917	0.562728
O26	O	1.874410	0.171083	1.062728
O27	O	1.224068	-0.328968	0.412372
O28	O	1.724068	0.171032	0.912372
O29	O	1.504947	-0.224707	0.546212
O30	O	2.004947	0.275293	1.046212
O31	O	1.543155	-0.405119	0.243547
O32	O	2.043155	0.094881	0.743547
O33	O	1.396148	-0.431559	0.390533
O34	O	1.896148	0.068441	0.890533
C35	C	1.193843	-0.280794	0.352037
C36	C	1.693843	0.219206	0.852037
C37	C	1.075788	-0.292794	0.367022
C38	C	1.575788	0.207206	0.867022
C39	C	0.909323	-0.258943	0.324754
C40	C	1.409323	0.241057	0.824754
C41	C	1.031340	-0.246540	0.309263
C42	C	1.531340	0.253460	0.809263
C43	C	1.469655	-0.445211	0.317055
C44	C	1.969655	0.054789	0.817055
C45	C	1.469688	-0.527524	0.317072
C46	C	1.969688	-0.027524	0.817072
C47	C	1.469914	-0.826597	0.317100
C48	C	1.969914	-0.326597	0.817100
C49	C	1.377585	-0.811939	0.409759
C50	C	1.877585	-0.311939	0.909759
C51	C	1.377229	-0.726334	0.409551
C52	C	1.877229	-0.226334	0.909551
C53	C	1.469802	-0.678223	0.317087
C54	C	1.969802	-0.178223	0.817087
C55	C	1.453721	-0.701101	0.208996
C56	C	1.953721	-0.201101	0.708996
C57	C	1.453131	-0.786850	0.209555
C58	C	1.953131	-0.286850	0.709555
C59	C	1.578627	-0.786439	0.331524
C60	C	2.078627	-0.286439	0.831524
C61	C	1.577655	-0.701104	0.334062
C62	C	2.077655	-0.201104	0.834062
C63	C	1.469741	-0.594368	0.317073
C64	C	1.969741	-0.094368	0.817073
C65	C	1.469973	-0.910451	0.317107
C66	C	1.969973	-0.410451	0.817107
C67	C	1.746820	-0.224676	0.281963
C68	C	2.246820	0.275324	0.781963
C69	C	1.864872	-0.212696	0.267003
C70	C	2.364872	0.287304	0.767003
C71	C	1.434654	-0.280820	0.594083
C72	C	1.934654	0.219180	1.094083
C73	C	1.419680	-0.292766	0.712131
C74	C	1.919680	0.207234	1.212131
C75	C	1.469957	-0.059615	0.317101
C76	C	1.969957	0.440385	0.817101
C77	C	1.470027	0.022704	0.317115
C78	C	1.970027	0.522704	0.817115
C79	C	1.504856	-0.224807	0.041122
C80	C	2.004856	0.275193	0.541122
C81	C	1.520036	-0.212633	-0.076951
C82	C	2.020036	0.287367	0.423049
C83	C	1.477591	-0.246530	0.756588
C84	C	1.977591	0.253470	1.256588
C85	C	1.462116	-0.258875	0.878596
C86	C	1.962116	0.241125	1.378596
H87	H	0.917149	-0.163921	0.206087
H88	H	1.417149	0.336079	0.706087
C89	C	1.388590	-0.706646	0.518432
C90	C	1.888590	-0.206646	1.018432
N91	N	1.397142	-0.691821	0.600447
N92	N	1.897142	-0.191821	1.100447
C93	C	1.005175	-0.358695	0.449319
C94	C	1.505175	0.141305	0.949319
N95	N	0.951988	-0.408330	0.511306
N96	N	1.451988	0.091670	1.011306
H97	H	1.581071	-0.163902	0.870790
H98	H	2.081071	0.336098	1.370790
H99	H	1.401069	-0.307597	0.930858
H100	H	1.901069	0.192403	1.430858
C101	C	1.602175	-0.822746	0.435184
C102	C	2.102175	-0.322746	0.935184
N103	N	1.619898	-0.850094	0.513268
N104	N	2.119898	-0.350094	1.013268
H105	H	1.083614	-0.197762	0.248343
H106	H	1.583614	0.302238	0.748343
C107	C	1.388641	-0.848537	0.519036
C108	C	1.888641	-0.348537	1.019036
N109	N	1.396968	-0.876109	0.601346
N110	N	1.896968	-0.376109	1.101346
C111	C	1.594416	-0.681708	0.441410
C112	C	2.094416	-0.181708	0.941410
N113	N	1.607045	-0.667084	0.522257
N114	N	2.107045	-0.167084	1.022257
H115	H	1.297193	-0.840029	0.401503
H116	H	1.797193	-0.340029	0.901503
H117	H	1.358636	-0.341485	0.764396
H118	H	1.858636	0.158515	1.264396
C119	C	1.346341	-0.821869	0.190821
C120	C	1.846341	-0.321869	0.690821
N121	N	1.265902	-0.848243	0.176714
N122	N	1.765902	-0.348243	0.676714
C123	C	1.267951	-0.707573	0.398241
C124	C	1.767951	-0.207573	0.898241
N125	N	1.185629	-0.693446	0.389750
N126	N	1.685629	-0.193446	0.889750
C127	C	0.838705	-0.324841	0.407045
C128	C	1.338705	0.175159	0.907045
N129	N	0.785516	-0.374476	0.469030
N130	N	1.285516	0.125524	0.969030
C131	C	1.542552	-0.657027	0.114022
C132	C	2.042552	-0.157027	0.614022
N133	N	1.609459	-0.623828	0.042489
N134	N	2.109459	-0.123828	0.542489
C135	C	1.541069	-0.798330	0.114133
C136	C	2.041069	-0.298330	0.614133
N137	N	1.607297	-0.806974	0.042258
N138	N	2.107297	-0.306974	0.542258
H139	H	1.375601	-0.685461	0.194577
H140	H	1.875601	-0.185461	0.694577
C141	C	1.560048	-0.180703	0.685986
C142	C	2.060048	0.319297	1.185986
N143	N	1.622157	-0.131121	0.632810
N144	N	2.122157	0.368879	1.132810
H145	H	1.648942	-0.667535	0.270359
H146	H	2.148942	-0.167535	0.770359
C147	C	1.671322	-0.797223	0.240122
C148	C	2.171322	-0.297223	0.740122
N149	N	1.741132	-0.805351	0.171278
N150	N	2.241132	-0.305351	0.671278
