data_functionalizedCrystal
_audit_creation_method	'MofGen! by Chris Wilmer'
_symmetry_space_group_name_H-M	'P1'
_symmetry_Int_Tables_number	1
_symmetry_cell_setting	triclinic
loop_
_symmetry_equiv_pos_as_xyz
  x,y,z
_cell_length_a	16.994747
_cell_length_b	12.759401
_cell_length_c	12.759393
_cell_angle_alpha	90.018496
_cell_angle_beta	89.988451
_cell_angle_gamma	89.988782
loop_
_atom_site_label
_atom_site_type_symbol
_atom_site_fract_x
_atom_site_fract_y
_atom_site_fract_z
Zn1	Zn	0.313978	1.606282	0.594127
Zn2	Zn	0.445905	1.606188	0.418509
Zn3	Zn	0.314019	1.430584	0.418467
Zn4	Zn	0.445844	1.430584	0.594150
O5	O	0.379937	1.518409	0.506313
O6	O	0.331487	1.753290	0.570839
O7	O	0.428453	1.582854	0.271482
O8	O	0.203633	1.453930	0.441741
O9	O	0.428413	1.753221	0.441813
O10	O	0.203602	1.583015	0.570798
O11	O	0.331557	1.453839	0.271451
O12	O	0.331498	1.283563	0.441764
O13	O	0.428309	1.453930	0.741168
O14	O	0.428349	1.283563	0.570838
O15	O	0.331428	1.583015	0.741152
O16	O	0.556278	1.582854	0.441835
O17	O	0.556234	1.453838	0.570878
C18	C	0.379922	1.245442	0.506299
C19	C	0.379935	1.128665	0.506318
C20	C	0.430446	1.073831	0.573416
C21	C	0.430456	0.964107	0.573427
C22	C	0.329442	0.964061	0.439234
C23	C	0.329428	1.073784	0.439229
C24	C	0.488769	1.073856	0.650888
C25	C	0.488779	0.964132	0.650899
C26	C	0.584877	1.518349	0.506361
C27	C	0.674199	1.518356	0.506358
C28	C	0.174197	1.518476	0.506260
C29	C	0.084875	1.518508	0.506238
Zn30	Zn	0.945106	1.430614	0.418437
Zn31	Zn	0.945043	1.606329	0.594081
Zn32	Zn	0.813237	1.430620	0.594133
Zn33	Zn	0.813160	1.606207	0.418475
O34	O	0.879136	1.518442	0.506282
O35	O	1.055479	1.453972	0.441700
O36	O	0.927564	1.583074	0.741109
O37	O	0.830788	1.283598	0.570832
O38	O	1.055433	1.583069	0.570744
O39	O	0.927672	1.283594	0.441750
O40	O	0.830727	1.453981	0.741147
O41	O	0.702845	1.453863	0.570869
O42	O	0.830657	1.582861	0.271449
O43	O	0.702789	1.582866	0.441813
O44	O	0.927597	1.453853	0.271421
O45	O	0.927490	1.753334	0.570781
O46	O	0.830597	1.753244	0.441763
C47	C	0.379857	1.518483	0.780347
C48	C	0.379823	1.518514	0.897124
C49	C	0.379952	1.792443	0.506328
C50	C	0.379958	1.909219	0.506335
C51	C	0.379959	1.518397	0.233346
C52	C	0.379771	1.518569	0.116570
C53	C	0.329372	1.585738	0.951979
C54	C	0.329344	1.585763	1.061703
C55	C	0.430224	1.451338	1.061707
C56	C	0.430248	1.451308	0.951985
C57	C	0.271132	1.663351	0.951977
C58	C	0.271103	1.663376	1.061701
C59	C	0.879030	1.791410	0.506273
C60	C	0.879008	1.908186	0.506300
C61	C	0.879126	1.518343	0.232248
C62	C	0.879121	1.518300	0.115471
C63	C	0.879245	1.244409	0.506293
C64	C	0.879291	1.127632	0.506297
C65	C	0.879192	1.518467	0.779249
C66	C	0.879347	1.518216	0.896025
C67	C	0.929486	1.963060	0.573425
C68	C	0.929472	2.072784	0.573430
C69	C	0.828497	2.072751	0.439185
C70	C	0.828515	1.963029	0.439175
C71	C	0.987781	1.963080	0.650933
C72	C	0.987767	2.072804	0.650939
C73	C	0.929587	1.451115	0.060593
C74	C	0.929571	1.451068	-0.049131
C75	C	0.828620	1.585400	-0.049089
C76	C	0.828633	1.585441	0.060633
C77	C	0.987873	1.373563	0.060568
C78	C	0.987857	1.373516	-0.049156
H79	H	0.546768	1.107875	0.621630
Cl80	Cl	0.493662	1.366778	0.883028
H81	H	0.466973	0.930132	0.728241
H82	H	0.966006	1.296193	-0.083171
H83	H	0.293031	1.740624	0.917951
Cl84	Cl	1.082154	1.407188	-0.095188
H85	H	0.971448	2.102602	0.732334
H86	H	0.471276	1.396618	1.106389
Cl87	Cl	0.265911	1.142715	0.354893
H88	H	0.210045	1.641577	0.922192
H89	H	0.787420	1.918355	0.384503
H90	H	0.787514	1.640063	-0.093752
H91	H	1.048864	1.933301	0.629056
Cl92	Cl	0.962675	1.247942	0.106567
Cl93	Cl	0.265950	0.895060	0.354899
Cl94	Cl	1.077453	1.418623	0.113076
H95	H	0.472477	1.103663	0.732287
H96	H	0.213061	1.634257	1.095722
Cl97	Cl	0.296353	1.789006	1.107696
Cl98	Cl	0.583064	0.918129	0.617047
H99	H	0.787388	2.117417	0.384533
H100	H	0.965952	1.929065	0.728254
H101	H	1.045778	2.106829	0.621717
H102	H	0.787533	1.640142	0.105310
