data_functionalizedCrystal
_audit_creation_method	'MofGen! by Chris Wilmer'
_symmetry_space_group_name_H-M	'P1'
_symmetry_Int_Tables_number	1
_symmetry_cell_setting	triclinic
loop_
_symmetry_equiv_pos_as_xyz
  x,y,z
_cell_length_a	23.532407
_cell_length_b	23.532407
_cell_length_c	9.482900
_cell_angle_alpha	99.270833
_cell_angle_beta	80.775065
_cell_angle_gamma	82.848678
loop_
_atom_site_label
_atom_site_type_symbol
_atom_site_fract_x
_atom_site_fract_y
_atom_site_fract_z
O1	O	0.764174	0.060180	-0.120724
O2	O	1.097507	0.393513	0.212609
O3	O	1.430841	0.726847	0.545942
O4	O	0.598314	0.070180	-0.120769
O5	O	0.931647	0.403513	0.212564
O6	O	1.264980	0.736847	0.545898
O7	O	0.686243	-0.017750	-0.120719
O8	O	1.019577	0.315584	0.212615
O9	O	1.352910	0.648917	0.545948
O10	O	0.676244	0.148110	-0.120775
O11	O	1.009578	0.481443	0.212559
O12	O	1.342911	0.814776	0.545892
O13	O	0.668382	0.000182	0.121064
O14	O	1.001716	0.333515	0.454397
O15	O	1.335049	0.666849	0.787730
O16	O	0.580453	0.088112	0.121013
O17	O	0.913786	0.421445	0.454347
O18	O	1.247120	0.754778	0.787680
O19	O	0.746313	0.078112	0.121058
O20	O	1.079646	0.411445	0.454391
O21	O	1.412980	0.744778	0.787725
Cu22	Cu	0.661752	0.084749	0.143112
Cu23	Cu	0.995085	0.418082	0.476446
Cu24	Cu	1.328419	0.751416	0.809779
Cu25	Cu	0.682875	0.063543	-0.142823
Cu26	Cu	1.016208	0.396876	0.190510
Cu27	Cu	1.349541	0.730209	0.523843
O28	O	0.658383	0.166041	0.121008
O29	O	0.991717	0.499375	0.454341
O30	O	1.325050	0.832708	0.787674
C31	C	0.568168	0.078891	0.000117
C32	C	0.901501	0.412224	0.333450
C33	C	1.234834	0.745557	0.666783
C34	C	0.504952	0.078124	0.000101
C35	C	0.838285	0.411457	0.333434
C36	C	1.171618	0.744790	0.666768
C37	C	0.105845	0.125361	0.000151
C38	C	0.439178	0.458694	0.333484
C39	C	0.772512	0.792027	0.666817
C40	C	0.046444	0.124650	0.000160
C41	C	0.379777	0.457983	0.333493
C42	C	0.713111	0.791317	0.666827
O43	O	0.009697	0.168439	0.000198
O44	O	0.343030	0.501772	0.333531
O45	O	0.676363	0.835105	0.666865
N46	N	0.023817	0.072375	0.000175
N47	N	0.357150	0.405708	0.333508
N48	N	0.690484	0.739041	0.666842
C49	C	0.060593	0.020808	0.000196
C50	C	0.393926	0.354141	0.333529
C51	C	0.727260	0.687475	0.666863
O52	O	0.035892	-0.023721	0.000211
O53	O	0.369225	0.309612	0.333545
O54	O	0.702559	0.642945	0.666878
C55	C	0.119992	0.021520	0.000197
C56	C	0.453325	0.354854	0.333531
C57	C	0.786659	0.688187	0.666864
C58	C	0.142617	0.073798	0.000167
C59	C	0.475950	0.407131	0.333501
C60	C	0.809283	0.740464	0.666834
C61	C	0.128470	0.177634	0.000122
C62	C	0.461804	0.510967	0.333456
C63	C	0.795137	0.844301	0.666789
C64	C	0.187867	0.178344	0.000111
C65	C	0.521201	0.511678	0.333444
C66	C	0.854534	0.845011	0.666777
C67	C	0.224639	0.126781	0.000127
C68	C	0.557972	0.460115	0.333460
C69	C	0.891306	0.793448	0.666794
C70	C	0.202014	0.074508	0.000155
C71	C	0.535347	0.407841	0.333489
C72	C	0.868680	0.741175	0.666822
C73	C	0.156766	-0.030045	0.000229
C74	C	0.490099	0.303288	0.333562
C75	C	0.823433	0.636622	0.666895
C76	C	0.216168	-0.029328	0.000231
C77	C	0.549502	0.304005	0.333564
C78	C	0.882835	0.637338	0.666898
C79	C	0.238793	0.022949	0.000201
C80	C	0.572127	0.356282	0.333534
C81	C	0.905460	0.689616	0.666868
C82	C	0.298183	0.023655	0.000160
C83	C	0.631516	0.356989	0.333493
C84	C	0.964849	0.690322	0.666827
N85	N	0.320810	0.075931	0.000145
N86	N	0.654143	0.409264	0.333478
N87	N	0.987476	0.742597	0.666812
C88	C	0.284038	0.127494	0.000128
C89	C	0.617371	0.460827	0.333462
C90	C	0.950705	0.794160	0.666795
C91	C	-0.064150	0.019317	0.000196
C92	C	0.269184	0.352650	0.333529
C93	C	0.602517	0.685983	0.666863
C94	C	-0.123547	0.018603	0.000184
C95	C	0.209787	0.351936	0.333518
C96	C	0.543120	0.685270	0.666851
C97	C	-0.137692	0.122445	0.000151
C98	C	0.195642	0.455779	0.333484
C99	C	0.528975	0.789112	0.666818
C100	C	-0.078293	0.123158	0.000152
C101	C	0.255041	0.456491	0.333485
C102	C	0.588374	0.789824	0.666819
C103	C	-0.041522	0.071592	0.000181
C104	C	0.291811	0.404925	0.333514
C105	C	0.625144	0.738259	0.666847
C106	C	0.408777	0.128981	0.000102
C107	C	0.742110	0.462315	0.333436
C108	C	1.075443	0.795648	0.666769
C109	C	0.468180	0.129687	0.000084
C110	C	0.801513	0.463020	0.333418
C111	C	1.134847	0.796353	0.666751
C112	C	0.482319	0.025845	0.000125
C113	C	0.815653	0.359179	0.333459
C114	C	1.148986	0.692512	0.666792
C115	C	0.422922	0.025139	0.000136
C116	C	0.756255	0.358472	0.333469
C117	C	1.089588	0.691806	0.666802
C118	C	0.386151	0.076712	0.000129
C119	C	0.719484	0.410045	0.333462
C120	C	1.052818	0.743379	0.666796
O121	O	0.334964	-0.020110	0.000128
O122	O	0.668297	0.313223	0.333461
O123	O	1.001631	0.646557	0.666795
O124	O	0.308746	0.172017	0.000132
O125	O	0.642079	0.505350	0.333466
O126	O	0.975412	0.838684	0.666799
C127	C	0.677058	-0.030000	0.000176
C128	C	1.010391	0.303334	0.333509
C129	C	1.343725	0.636667	0.666843
C130	C	0.676291	-0.093216	0.000187
C131	C	1.009625	0.240118	0.333520
C132	C	1.342958	0.573451	0.666854
C133	C	0.723530	-0.492324	0.000120
C134	C	1.056863	-0.158991	0.333453
C135	C	1.390196	0.174343	0.666787
C136	C	0.722819	-0.551725	0.000109
C137	C	1.056152	-0.218392	0.333442
C138	C	1.389486	0.114942	0.666776
O139	O	0.766608	-0.588473	0.000067
O140	O	1.099941	-0.255139	0.333400
O141	O	1.433275	0.078194	0.666734
N142	N	0.670544	-0.574352	0.000096
N143	N	1.003877	-0.241019	0.333429
N144	N	1.337210	0.092315	0.666763
C145	C	0.618977	-0.537576	0.000079
C146	C	0.952310	-0.204242	0.333413
C147	C	1.285643	0.129091	0.666746
O148	O	0.574447	-0.562276	0.000066
O149	O	0.907781	-0.228943	0.333399
O150	O	1.241114	0.104390	0.666732
C151	C	0.619689	-0.478177	0.000080
C152	C	0.953022	-0.144843	0.333413
C153	C	1.286355	0.188490	0.666747
C154	C	0.671966	-0.455552	0.000108
C155	C	1.005300	-0.122219	0.333441
C156	C	1.338633	0.211115	0.666775
C157	C	0.775803	-0.469699	0.000146
C158	C	1.109137	-0.136365	0.333480
C159	C	1.442470	0.196968	0.666813
C160	C	0.776513	-0.410301	0.000160
C161	C	1.109847	-0.076968	0.333494
C162	C	1.443180	0.256365	0.666827
C163	C	0.724950	-0.373529	0.000148
C164	C	1.058283	-0.040196	0.333481
C165	C	1.391617	0.293137	0.666815
C166	C	0.672676	-0.396155	0.000122
C167	C	1.006010	-0.062821	0.333455
C168	C	1.339343	0.270512	0.666789
C169	C	0.568123	-0.441402	0.000053
C170	C	0.901456	-0.108069	0.333386
C171	C	1.234790	0.225265	0.666720
C172	C	0.568840	-0.382000	0.000053
C173	C	0.902173	-0.048666	0.333386
C174	C	1.235506	0.284667	0.666719
C175	C	0.621117	-0.359375	0.000081
C176	C	0.954451	-0.026042	0.333414
C177	C	1.287784	0.307292	0.666747
C178	C	0.621823	-0.299985	0.000124
C179	C	0.955157	0.033348	0.333457
C180	C	1.288490	0.366681	0.666790
N181	N	0.674099	-0.277358	0.000137
N182	N	1.007432	0.055975	0.333470
N183	N	1.340765	0.389308	0.666803
C184	C	0.725662	-0.314130	0.000149
C185	C	1.058995	0.019203	0.333482
C186	C	1.392329	0.352536	0.666816
C187	C	0.617486	-0.662319	0.000075
C188	C	0.950819	-0.328985	0.333408
C189	C	1.284152	0.004348	0.666742
C190	C	0.616772	-0.721716	0.000085
C191	C	0.950106	-0.388382	0.333418
C192	C	1.283439	-0.055049	0.666751
C193	C	0.720615	-0.735861	0.000112
C194	C	1.053948	-0.402528	0.333445
C195	C	1.387282	-0.069194	0.666778
C196	C	0.721327	-0.676462	0.000112
C197	C	1.054660	-0.343129	0.333446
C198	C	1.387994	-0.009795	0.666779
C199	C	0.669761	-0.639691	0.000088
C200	C	1.003094	-0.306358	0.333421
C201	C	1.336428	0.026975	0.666755
C202	C	0.727149	-0.189391	0.000179
C203	C	1.060483	0.143942	0.333513
C204	C	1.393816	0.477275	0.666846
C205	C	0.727855	-0.129988	0.000199
C206	C	1.061188	0.203346	0.333533
C207	C	1.394521	0.536679	0.666866
C208	C	0.624013	-0.115848	0.000165
C209	C	0.957346	0.217485	0.333498
C210	C	1.290679	0.550818	0.666831
C211	C	0.623307	-0.175246	0.000152
C212	C	0.956640	0.158087	0.333486
C213	C	1.289973	0.491421	0.666819
C214	C	0.674880	-0.212017	0.000155
C215	C	1.008213	0.121316	0.333488
C216	C	1.341547	0.454650	0.666822
O217	O	0.578058	-0.263204	0.000159
O218	O	0.911391	0.070130	0.333493
O219	O	1.244724	0.403463	0.666826
O220	O	0.770186	-0.289423	0.000143
O221	O	1.103519	0.043910	0.333477
O222	O	1.436852	0.377244	0.666810
C223	C	0.776459	0.069401	0.000169
C224	C	1.109793	0.402734	0.333502
C225	C	1.443126	0.736067	0.666836
C226	C	0.839676	0.070167	0.000175
C227	C	1.173009	0.403500	0.333509
C228	C	1.506343	0.736834	0.666842
C229	C	0.667569	0.178291	0.000110
C230	C	1.000902	0.511624	0.333443
C231	C	1.334236	0.844958	0.666776
C232	C	0.668336	0.241506	0.000089
C233	C	1.001670	0.574840	0.333422
C234	C	1.335003	0.908173	0.666756
N235	N	0.646900	0.099664	0.344224
N236	N	0.980233	0.432997	0.677557
N237	N	1.313566	0.766331	1.010891
N238	N	0.697732	0.048623	-0.343935
N239	N	1.031065	0.381956	-0.010602
N240	N	1.364398	0.715290	0.322732
C241	C	0.678490	0.067939	0.416441
C242	C	1.011823	0.401272	0.749775
C243	C	1.345157	0.734606	1.083108
C244	C	0.666137	0.080353	0.583852
C245	C	0.999470	0.413686	0.917185
C246	C	1.332803	0.747020	1.250518
H247	H	0.098536	0.219626	0.000114
H248	H	0.431869	0.552959	0.333448
H249	H	0.765202	0.886292	0.666781
H250	H	0.714679	0.031585	0.354334
H251	H	1.048012	0.364918	0.687667
H252	H	1.381346	0.698252	1.021001
H253	H	0.610707	0.136014	0.406333
H254	H	0.944040	0.469347	0.739666
H255	H	1.277373	0.802680	1.073000
F256	F	0.618826	0.127867	0.665022
F257	F	0.952160	0.461201	0.998355
F258	F	1.285493	0.794534	1.331688
H259	H	-0.034213	-0.022678	0.000206
H260	H	0.299121	0.310655	0.333540
H261	H	0.632454	0.643989	0.666873
F262	F	0.562597	-0.623188	0.000063
F263	F	0.895930	-0.289854	0.333396
F264	F	1.229264	0.043479	0.666729
H265	H	-0.141960	-0.023968	0.000186
H266	H	0.191373	0.309365	0.333519
H267	H	0.524706	0.642699	0.666853
H268	H	-0.167643	0.164431	0.000144
H269	H	0.165691	0.497765	0.333478
H270	H	0.499024	0.831098	0.666811
H271	H	0.526847	-0.352063	0.000031
H272	H	0.860181	-0.018730	0.333364
H273	H	1.193514	0.314603	0.666698
F274	F	0.745134	0.001200	0.574898
F275	F	1.078467	0.334533	0.908232
F276	F	1.411801	0.667866	1.241565
F277	F	0.132702	-0.085688	0.000240
F278	F	0.466035	0.247645	0.333573
F279	F	0.799369	0.580978	0.666907
F280	F	0.492255	0.185329	0.000048
F281	F	0.825589	0.518663	0.333381
F282	F	1.158922	0.851996	0.666714
F283	F	0.830689	-0.508827	0.000158
F284	F	1.164022	-0.175493	0.333492
F285	F	1.497356	0.157840	0.666825
F286	F	0.398842	-0.030500	0.000168
F287	F	0.732175	0.302833	0.333502
F288	F	1.065508	0.636167	0.666835
F289	F	0.211938	0.233986	0.000086
F290	F	0.545271	0.567320	0.333419
F291	F	0.878605	0.900653	0.666752
F292	F	0.369651	0.183871	0.000096
F293	F	0.702984	0.517205	0.333430
F294	F	1.036317	0.850538	0.666763
F295	F	0.255299	-0.084213	0.000265
F296	F	0.588632	0.249120	0.333598
F297	F	0.921966	0.582454	0.666932
H298	H	0.512270	-0.016136	0.000133
H299	H	0.845603	0.317197	0.333467
H300	H	1.178936	0.650530	0.666800
H301	H	-0.059877	0.165727	0.000136
H302	H	0.273457	0.499060	0.333469
H303	H	0.606790	0.832394	0.666803
F304	F	0.782040	-0.228518	0.000181
F305	F	1.115373	0.104815	0.333515
F306	F	1.448706	0.438149	0.666848
F307	F	0.783498	-0.105913	0.000228
F308	F	1.116831	0.227420	0.333562
F309	F	1.450165	0.560754	0.666895
F310	F	0.832157	-0.386233	0.000158
F311	F	1.165490	-0.052899	0.333492
F312	F	1.498824	0.280434	0.666825
F313	F	0.776967	-0.652389	0.000142
F314	F	1.110301	-0.319055	0.333475
F315	F	1.443634	0.014278	0.666808
F316	F	0.775494	-0.775008	0.000117
F317	F	1.108828	-0.441674	0.333450
F318	F	1.442161	-0.108341	0.666784
H319	H	0.574201	-0.740129	0.000087
H320	H	0.907534	-0.406796	0.333420
H321	H	1.240867	-0.073463	0.666754
F322	F	0.512482	-0.465468	0.000017
F323	F	0.845815	-0.132135	0.333351
F324	F	1.179148	0.201199	0.666684
H325	H	0.580735	-0.193665	0.000170
H326	H	0.914068	0.139669	0.333504
H327	H	1.247402	0.473002	0.666837
H328	H	0.582031	-0.085898	0.000160
H329	H	0.915364	0.247436	0.333493
H330	H	1.248698	0.580769	0.666827
