data_functionalizedCrystal
_audit_creation_method	'MofGen! by Chris Wilmer'
_symmetry_space_group_name_H-M	'P1'
_symmetry_Int_Tables_number	1
_symmetry_cell_setting	triclinic
loop_
_symmetry_equiv_pos_as_xyz
  x,y,z
_cell_length_a	19.188933
_cell_length_b	14.971486
_cell_length_c	18.266242
_cell_angle_alpha	90.005330
_cell_angle_beta	89.992475
_cell_angle_gamma	96.620151
loop_
_atom_site_label
_atom_site_type_symbol
_atom_site_fract_x
_atom_site_fract_y
_atom_site_fract_z
O1	O	0.926508	-0.111677	-0.060857
O2	O	1.426508	0.388323	0.439143
O3	O	0.723245	-0.126707	-0.060864
O4	O	1.223245	0.373293	0.439136
O5	O	0.830324	0.011037	-0.060855
O6	O	1.330324	0.511037	0.439145
O7	O	0.819429	-0.249421	-0.060866
O8	O	1.319429	0.250579	0.439134
O9	O	0.830306	0.011041	0.060907
O10	O	1.330306	0.511041	0.560907
O11	O	0.723227	-0.126703	0.060898
O12	O	1.223227	0.373297	0.560898
O13	O	0.926490	-0.111673	0.060905
O14	O	1.426490	0.388327	0.560905
Zn15	Zn	0.824855	-0.119187	0.080234
Zn16	Zn	1.324855	0.380813	0.580234
Zn17	Zn	0.824879	-0.119193	-0.080193
Zn18	Zn	1.324879	0.380807	0.419807
O19	O	0.819410	-0.249417	0.060896
O20	O	1.319410	0.250583	0.560896
C21	C	0.697223	-0.126218	0.000016
C22	C	1.197223	0.373782	0.500016
C23	C	0.619714	-0.124756	0.000014
C24	C	1.119714	0.375244	0.500014
C25	C	0.066435	-0.114324	-0.066350
C26	C	0.566435	0.385676	0.433650
C27	C	0.139264	-0.115692	-0.066353
C28	C	0.639264	0.384308	0.433647
C29	C	0.175673	-0.116378	0.000019
C30	C	0.675673	0.383622	0.500019
C31	C	0.139250	-0.115673	0.066399
C32	C	0.639250	0.384327	0.566399
C33	C	0.066424	-0.114296	0.066400
C34	C	0.566424	0.385704	0.566400
N35	N	0.284857	-0.169437	0.049421
N36	N	0.784857	0.330563	0.549421
N37	N	0.354038	-0.170747	0.049415
N38	N	0.854038	0.329253	0.549415
C39	C	0.395095	-0.120526	0.000020
C40	C	0.895095	0.379474	0.500020
N41	N	0.364356	-0.068957	-0.049381
N42	N	0.864356	0.431043	0.450619
N43	N	0.295167	-0.067650	-0.049377
N44	N	0.795167	0.432350	0.450623
C45	C	0.254641	-0.117871	0.000025
C46	C	0.754641	0.382129	0.500025
C47	C	0.510479	-0.122709	-0.066359
C48	C	1.010479	0.377291	0.433641
C49	C	0.583310	-0.124072	-0.066359
C50	C	1.083310	0.375928	0.433641
C51	C	0.583294	-0.124062	0.066395
C52	C	1.083294	0.375938	0.566395
C53	C	0.510465	-0.122690	0.066393
C54	C	1.010465	0.377310	0.566393
C55	C	0.474062	-0.122018	0.000014
C56	C	0.974062	0.377982	0.500014
C57	C	0.829828	0.044361	0.000026
C58	C	1.329828	0.544361	0.500026
C59	C	0.828368	0.143650	0.000025
C60	C	1.328368	0.643650	0.500025
C61	C	0.952511	-0.112162	0.000023
C62	C	1.452511	0.387838	0.500023
C63	C	1.030020	-0.113624	0.000021
C64	C	1.530020	0.386376	0.500021
C65	C	0.819907	-0.282741	0.000014
C66	C	1.319907	0.217259	0.500014
C67	C	0.821367	-0.382030	0.000010
C68	C	1.321367	0.117970	0.500010
N69	N	0.824844	-0.119183	0.189721
N70	N	1.324844	0.380817	0.689721
C71	C	0.891274	0.201207	0.000028
C72	C	1.391274	0.701207	0.500028
C73	C	0.889898	0.294500	0.000020
C74	C	1.389898	0.794500	0.500020
C75	C	0.825615	0.330233	0.000016
C76	C	1.325615	0.830233	0.500016
C77	C	0.762704	0.272668	0.000011
C78	C	1.262704	0.772668	0.500011
C79	C	0.764081	0.179378	0.000013
C80	C	1.264081	0.679378	0.500013
C81	C	0.759838	0.467116	0.000008
C82	C	1.259838	0.967116	0.500008
C83	C	0.758461	0.560413	0.000007
C84	C	1.258461	1.060413	0.500007
C85	C	0.885655	0.582237	0.000015
C86	C	1.385655	1.082237	0.500015
C87	C	0.887032	0.488947	0.000018
C88	C	1.387032	0.988947	0.500018
C89	C	0.824121	0.431389	0.000014
C90	C	1.324121	0.931389	0.500014
N91	N	0.824896	-0.119189	-0.189680
N92	N	1.324896	0.380811	0.310320
C93	C	0.867227	-0.173304	0.228023
C94	C	1.367227	0.326696	0.728023
C95	C	0.867239	-0.173301	0.304668
C96	C	1.367239	0.326699	0.804668
C97	C	0.824854	-0.119189	0.343008
C98	C	1.324854	0.380811	0.843008
C99	C	0.782468	-0.065058	0.304697
C100	C	1.282468	0.434942	0.804697
C101	C	0.782463	-0.065055	0.228053
C102	C	1.282463	0.434945	0.728053
N103	N	0.763699	-0.116985	0.463358
N104	N	1.263699	0.383015	0.963358
N105	N	0.763706	-0.116992	0.536167
N106	N	1.263706	0.383008	1.036167
C107	C	0.824868	-0.119192	0.573930
C108	C	1.324868	0.380808	1.073930
N109	N	0.886024	-0.121401	0.536135
N110	N	1.386024	0.378599	1.036135
N111	N	0.886016	-0.121398	0.463321
N112	N	1.386016	0.378602	0.963321
C113	C	0.824855	-0.119185	0.426115
C114	C	1.324855	0.380815	0.926115
C115	C	0.867268	-0.173312	0.695339
C116	C	1.367268	0.326688	1.195339
C117	C	0.867281	-0.173303	0.771986
C118	C	1.367281	0.326697	1.271986
C119	C	0.782503	-0.065065	0.772013
C120	C	1.282503	0.434935	1.272013
C121	C	0.782497	-0.065069	0.695368
C122	C	1.282497	0.434931	1.195368
C123	C	0.824878	-0.119197	0.657036
C124	C	1.324878	0.380803	1.157036
H125	H	0.036775	-0.113729	0.120449
H126	H	0.536775	0.386271	0.620449
H127	H	0.712856	0.132515	0.000011
H128	H	1.212856	0.632515	0.500011
H129	H	0.480816	-0.122123	0.120440
H130	H	0.980816	0.377877	0.620440
H131	H	0.747959	-0.020998	0.335918
H132	H	1.247959	0.479002	0.835918
H133	H	0.939377	0.459856	0.000027
H134	H	1.439377	0.959856	0.500027
H135	H	0.747948	-0.020983	0.196868
H136	H	1.247948	0.479017	0.696868
H137	H	0.612938	-0.124617	0.120437
H138	H	1.112938	0.375383	0.620437
H139	H	0.901799	-0.217372	0.803170
H140	H	1.401799	0.282628	1.303170
H141	H	0.747981	-0.021002	0.664182
H142	H	1.247981	0.478998	1.164182
H143	H	0.901777	-0.217386	0.664127
H144	H	1.401777	0.282614	1.164127
H145	H	0.901740	-0.217376	0.196817
H146	H	1.401740	0.282624	0.696817
H147	H	0.943621	0.172121	0.000036
H148	H	1.443621	0.672121	0.500036
H149	H	0.747994	-0.021005	0.803229
H150	H	1.247994	0.478995	1.303229
H151	H	0.941122	0.341360	0.000024
H152	H	1.441122	0.841360	0.500024
H153	H	0.036801	-0.113773	-0.120401
H154	H	0.536801	0.386227	0.379599
H155	H	0.706116	0.589503	0.000015
H156	H	1.206116	1.089503	0.500015
H157	H	0.936880	0.629106	0.000016
H158	H	1.436880	1.129106	0.500016
H159	H	0.901753	-0.217375	0.335859
H160	H	1.401753	0.282625	0.835859
H161	H	0.710363	0.301770	0.000002
H162	H	1.210363	0.801770	0.500002
H163	H	0.708609	0.420254	0.000003
H164	H	1.208609	0.920254	0.500003
H165	H	0.168899	-0.116230	0.120440
H166	H	0.668899	0.383770	0.620440
H167	H	0.168918	-0.116267	-0.120402
H168	H	0.668918	0.383733	0.379598
H169	H	0.480839	-0.122159	-0.120409
H170	H	0.980839	0.377841	0.379591
H171	H	0.612958	-0.124635	-0.120409
H172	H	1.112958	0.375365	0.379591
