data_functionalizedCrystal
_audit_creation_method	'MofGen! by Chris Wilmer'
_symmetry_space_group_name_H-M	'P1'
_symmetry_Int_Tables_number	1
_symmetry_cell_setting	triclinic
loop_
_symmetry_equiv_pos_as_xyz
  x,y,z
_cell_length_a	16.120297
_cell_length_b	17.077404
_cell_length_c	16.120847
_cell_angle_alpha	87.099973
_cell_angle_beta	89.836070
_cell_angle_gamma	87.121653
loop_
_atom_site_label
_atom_site_type_symbol
_atom_site_fract_x
_atom_site_fract_y
_atom_site_fract_z
Zn1	Zn	-0.453433	-1.161586	-0.354915
Zn2	Zn	-0.307345	-1.162210	-0.486925
Zn3	Zn	-0.314392	-1.037289	-0.347888
Zn4	Zn	-0.446357	-1.024035	-0.493931
O5	O	-0.380382	-1.096280	-0.420915
O6	O	-0.434066	-1.271515	-0.372436
O7	O	-0.191914	-1.151448	-0.462609
O8	O	-0.338746	-1.059062	-0.232454
O9	O	-0.326736	-1.271974	-0.469423
O10	O	-0.440899	-1.150383	-0.237617
O11	O	-0.197091	-1.059668	-0.360459
O12	O	-0.331885	-0.925685	-0.367252
O13	O	-0.563661	-1.036473	-0.481363
O14	O	-0.428839	-0.915947	-0.474549
O15	O	-0.568860	-1.137531	-0.379229
O16	O	-0.319875	-1.138596	-0.604220
O17	O	-0.422006	-1.037079	-0.609367
C18	C	-0.380359	-0.892334	-0.420899
C19	C	-0.380369	-0.805083	-0.420913
C20	C	-0.369426	-1.086487	-0.636967
C21	C	-0.364767	-1.082368	-0.729397
C22	C	-0.597276	-1.085454	-0.431861
C23	C	-0.689704	-1.080840	-0.436526
C24	C	-0.858932	-1.072389	-0.445024
C25	C	-0.902696	-1.120336	-0.396556
C26	C	-0.996860	-1.115634	-0.401285
C27	C	-0.764759	-1.077091	-0.440297
C28	C	-0.164334	-1.107112	-0.409951
C29	C	-0.071918	-1.111888	-0.405052
C30	C	-0.380404	-1.301022	-0.420932
C31	C	-0.380414	-1.388271	-0.420939
C32	C	-0.430763	-0.759044	-0.476858
C33	C	-0.430776	-0.677062	-0.476861
C34	C	-0.380390	-0.641122	-0.420921
C35	C	-0.329993	-0.687168	-0.364970
C36	C	-0.329985	-0.769147	-0.364964
C37	C	-0.330013	-0.516296	-0.364987
C38	C	-0.330019	-0.434311	-0.364994
C39	C	-0.430804	-0.424211	-0.476884
C40	C	-0.430796	-0.506191	-0.476878
C41	C	-0.380398	-0.552230	-0.420927
C42	C	-0.391398	-1.106131	-0.204020
C43	C	-0.396092	-1.110329	-0.111592
C44	C	-0.404661	-1.118008	0.057635
C45	C	-0.356201	-1.074692	0.101381
C46	C	-0.360969	-1.078964	0.195545
C47	C	-0.399894	-1.113737	-0.036537
H48	H	-0.869444	-1.164915	-0.351510
Br49	Br	-0.914351	-0.998092	-0.520101
H50	H	-0.471791	-0.788300	-0.522413
H51	H	-0.288981	-0.553779	-0.319419
H52	H	-0.289001	-0.405051	-0.319433
Br53	Br	-0.281078	-1.007539	0.045939
H54	H	-0.449726	-1.158299	0.090898
H55	H	-0.471812	-0.639580	-0.522418
H56	H	-0.471820	-0.535451	-0.522433
H57	H	-0.288972	-0.657899	-0.319419
Br58	Br	-0.499213	-0.361730	-0.552807
H59	H	-0.288953	-0.806632	-0.319403
