data_functionalizedCrystal
_audit_creation_method	'MofGen! by Chris Wilmer'
_symmetry_space_group_name_H-M	'P1'
_symmetry_Int_Tables_number	1
_symmetry_cell_setting	triclinic
loop_
_symmetry_equiv_pos_as_xyz
  x,y,z
_cell_length_a	17.699077
_cell_length_b	10.654545
_cell_length_c	16.176319
_cell_angle_alpha	89.995575
_cell_angle_beta	89.993140
_cell_angle_gamma	83.883002
loop_
_atom_site_label
_atom_site_type_symbol
_atom_site_fract_x
_atom_site_fract_y
_atom_site_fract_z
O1	O	1.005091	0.158773	-0.068731
O2	O	0.784844	0.179442	-0.068735
O3	O	0.900031	-0.013720	-0.068732
O4	O	0.889904	0.351936	-0.068734
O5	O	0.900015	-0.013733	0.068761
O6	O	0.784828	0.179430	0.068758
O7	O	1.005075	0.158761	0.068762
Cu8	Cu	0.894950	0.169094	0.081314
Cu9	Cu	0.894969	0.169109	-0.081287
O10	O	0.889888	0.351924	0.068759
C11	C	0.756634	0.178697	0.000011
C12	C	0.672602	0.176479	0.000010
C13	C	0.633119	0.175427	0.074958
C14	C	0.554163	0.173323	0.074959
C15	C	0.514691	0.172280	0.000011
C16	C	0.554179	0.173328	-0.074944
C17	C	0.633134	0.175423	-0.074944
C18	C	0.235762	0.164877	-0.074945
C19	C	0.156801	0.162785	-0.074939
C20	C	0.156791	0.162777	0.074958
C21	C	0.235746	0.164872	0.074958
C22	C	0.275228	0.165913	0.000004
C23	C	0.360841	0.168192	0.000004
C24	C	0.429078	0.170009	0.000010
C25	C	0.899279	-0.060511	0.000013
C26	C	0.897054	-0.199916	0.000008
C27	C	0.897081	-0.199911	-0.149892
C28	C	0.896051	-0.265400	-0.224841
C29	C	0.893961	-0.396382	-0.224842
C30	C	0.892897	-0.461878	-0.149886
C31	C	0.893927	-0.396388	-0.074936
C32	C	0.896019	-0.265404	-0.074943
C33	C	0.893894	-0.396392	0.074961
C34	C	0.895990	-0.265411	0.074964
C35	C	0.892831	-0.461887	0.149918
C36	C	0.893866	-0.396399	0.224869
C37	C	0.895957	-0.265409	0.224867
C38	C	0.897020	-0.199922	0.149913
C39	C	1.033285	0.159506	0.000014
C40	C	1.117318	0.161724	0.000010
C41	C	0.890640	0.398715	0.000013
C42	C	0.892865	0.538119	0.000012
N43	N	0.894942	0.169083	0.195680
N44	N	0.894983	0.169110	-0.195653
C45	C	0.945963	0.083586	0.238945
C46	C	0.945967	0.083585	0.325492
C47	C	0.894953	0.169088	0.368772
C48	C	0.843927	0.254589	0.325501
C49	C	0.843920	0.254584	0.238955
C50	C	0.843953	0.254613	0.674529
C51	C	0.843965	0.254614	0.761081
C52	C	0.946000	0.083614	0.761066
C53	C	0.945993	0.083608	0.674520
C54	C	0.894964	0.169105	0.631256
C55	C	0.894960	0.169103	0.537412
C56	C	0.894961	0.169096	0.462615
H57	H	0.522035	0.172469	-0.135968
H58	H	0.522021	0.172445	0.135990
C59	C	0.892675	-0.467272	0.306328
C60	C	0.894011	-0.381888	0.371968
C61	C	0.892906	-0.447132	0.447021
H62	H	0.935901	-0.528090	0.309565
H63	H	0.847781	-0.508617	0.309483
H64	H	0.938901	-0.340563	0.368814
H65	H	0.850789	-0.321067	0.368758
H66	H	0.848012	-0.488477	0.450176
H67	H	0.936133	-0.507948	0.450249
H68	H	0.893806	-0.389208	0.491566
C69	C	0.675840	0.176489	0.156420
C70	C	0.624361	0.175081	0.222056
C71	C	0.663687	0.176036	0.297112
H72	H	0.701254	0.250489	0.159656
H73	H	0.712015	0.104072	0.159579
H74	H	0.588199	0.247491	0.218898
H75	H	0.598945	0.101087	0.218847
H76	H	0.699863	0.103619	0.300271
H77	H	0.689100	0.250037	0.300340
H78	H	0.628766	0.175069	0.341655
H79	H	0.896784	-0.212093	0.285900
H80	H	0.802373	0.324203	0.203729
H81	H	0.987507	0.013965	0.203712
H82	H	0.665280	0.176282	-0.135974
C83	C	1.001245	-0.009384	0.372504
C84	C	0.960542	-0.086210	0.422188
C85	C	1.011442	-0.171883	0.465495
H86	H	1.033006	0.035579	0.406323
H87	H	1.031615	-0.060370	0.334355
H88	H	0.930185	-0.035230	0.460333
H89	H	0.928784	-0.131201	0.388389
H90	H	1.041812	-0.222869	0.427346
H91	H	1.043200	-0.126909	0.499310
H92	H	0.983833	-0.224027	0.499205
H93	H	0.267899	0.165721	-0.135977
C94	C	1.001412	-0.009367	0.627680
C95	C	1.046081	-0.084269	0.684095
C96	C	1.097133	-0.169948	0.640978
H97	H	1.033220	0.035590	0.593903
H98	H	0.973927	-0.061656	0.593949
H99	H	1.073564	-0.031987	0.717813
H100	H	1.014294	-0.129254	0.717874
H101	H	1.069649	-0.222237	0.607247
H102	H	1.128936	-0.124980	0.607203
H103	H	1.127443	-0.220786	0.679249
C104	C	0.788451	0.347474	0.372339
C105	C	0.743752	0.422322	0.315921
C106	C	0.692632	0.507892	0.359036
H107	H	0.815860	0.399819	0.406093
H108	H	0.756674	0.302392	0.406092
H109	H	0.775525	0.467400	0.282182
H110	H	0.716327	0.370012	0.282165
H111	H	0.660855	0.462810	0.392790
H112	H	0.720046	0.560228	0.392789
H113	H	0.662293	0.558679	0.320764
H114	H	0.987548	0.013994	0.796300
H115	H	0.267880	0.165728	0.135988
H116	H	0.891124	-0.568539	0.149912
C117	C	0.114036	0.161436	0.156401
C118	C	0.141208	0.053964	0.201630
C119	C	0.101850	0.052699	0.276661
H120	H	0.061353	0.159968	0.145789
H121	H	0.121600	0.234945	0.187238
H122	H	0.133637	-0.019527	0.170799
H123	H	0.193886	0.055408	0.212264
H124	H	0.109414	0.126208	0.307499
H125	H	0.049169	0.051235	0.266041
H126	H	0.120285	-0.020213	0.307362
H127	H	0.898792	-0.093260	-0.149898
C128	C	0.897108	-0.194095	-0.306154
C129	C	0.833329	-0.104532	-0.310544
C130	C	0.834288	-0.038812	-0.385429
H131	H	0.896163	-0.251697	-0.350865
H132	H	0.941966	-0.152645	-0.309254
H133	H	0.788483	-0.145980	-0.307452
H134	H	0.834260	-0.046904	-0.265851
H135	H	0.879145	0.002638	-0.388530
H136	H	0.833345	-0.096423	-0.430134
H137	H	0.791019	0.021972	-0.388415
H138	H	0.802421	0.324244	0.796318
C139	C	0.892709	-0.467317	-0.306269
C140	C	0.828230	-0.421106	-0.351491
C141	C	0.827048	-0.486414	-0.426507
H142	H	0.891267	-0.554711	-0.295637
H143	H	0.937087	-0.455551	-0.337122
H144	H	0.783863	-0.432883	-0.320646
H145	H	0.829657	-0.333720	-0.362146
H146	H	0.871426	-0.474648	-0.457360
H147	H	0.825609	-0.573805	-0.415866
H148	H	0.783304	-0.455061	-0.457203
H149	H	0.802405	0.324229	0.639310
C150	C	0.114026	0.161843	-0.156378
C151	C	0.125299	0.270331	-0.201615
C152	C	0.085914	0.269500	-0.276639
H153	H	0.061332	0.160516	-0.145757
H154	H	0.132369	0.089018	-0.187215
H155	H	0.106953	0.343137	-0.170784
H156	H	0.177985	0.271681	-0.212258
H157	H	0.104257	0.196675	-0.307476
H158	H	0.033223	0.268169	-0.266010
H159	H	0.093563	0.343101	-0.307345
H160	H	0.891186	-0.568528	-0.149893
H161	H	0.898726	-0.093270	0.149904
