data_functionalizedCrystal
_audit_creation_method	'MofGen! by Chris Wilmer'
_symmetry_space_group_name_H-M	'P1'
_symmetry_Int_Tables_number	1
_symmetry_cell_setting	triclinic
loop_
_symmetry_equiv_pos_as_xyz
  x,y,z
_cell_length_a	15.944499
_cell_length_b	14.421503
_cell_length_c	10.540514
_cell_angle_alpha	90.008406
_cell_angle_beta	83.996385
_cell_angle_gamma	89.988979
loop_
_atom_site_label
_atom_site_type_symbol
_atom_site_fract_x
_atom_site_fract_y
_atom_site_fract_z
O1	O	1.115522	-0.077161	0.163382
O2	O	0.871086	-0.077150	0.183635
O3	O	0.998891	-0.077157	-0.011278
O4	O	0.987716	-0.077154	0.358294
O5	O	0.998868	0.077067	-0.011245
O6	O	0.871062	0.077074	0.183667
O7	O	1.115498	0.077063	0.163414
Cu8	Cu	0.993278	0.091150	0.173544
Cu9	Cu	0.993306	-0.091237	0.173505
O10	O	0.987693	0.077070	0.358327
C11	C	0.839774	-0.000037	0.182822
C12	C	0.746511	-0.000033	0.180336
C13	C	0.455644	-0.000046	0.293575
C14	C	0.516337	-0.076088	0.234694
C15	C	0.410821	-0.000054	0.171305
C16	C	0.516300	0.075964	0.234694
C17	C	0.575757	-0.000042	0.175748
C18	C	0.470287	-0.076159	0.112390
C19	C	0.470243	0.075961	0.112406
C20	C	0.530918	-0.000100	0.053437
C21	C	0.315806	-0.000062	0.168748
C22	C	0.670770	-0.000041	0.178296
N23	N	0.993265	0.219431	0.173570
C24	C	0.934153	0.469088	0.263663
C25	C	1.010199	0.530888	0.288288
C26	C	0.993282	0.408593	0.173545
C27	C	0.917253	0.530887	0.148954
C28	C	0.993292	0.591314	0.173523
C29	C	1.069367	0.469031	0.198226
C30	C	0.976371	0.469025	0.058843
C31	C	1.052472	0.530797	0.083418
C32	C	0.993275	0.303332	0.173560
C33	C	0.993308	0.696573	0.173506
C34	C	1.146810	-0.000052	0.164227
C35	C	1.240073	-0.000062	0.166713
C36	C	0.998046	-0.000047	-0.058554
C37	C	0.995552	-0.000054	-0.199469
N38	N	0.993311	0.780482	0.173493
C39	C	1.086957	-0.000056	-0.271444
C40	C	1.084394	0.000301	-0.418022
C41	C	0.945828	0.087853	-0.391095
C42	C	0.949040	0.087921	-0.244600
C43	C	0.947714	-0.087466	-0.244220
C44	C	0.946832	-0.088615	-0.391187
C45	C	0.988538	-0.000042	0.405603
C46	C	0.991032	-0.000041	0.546518
H47	H	0.536670	0.140250	0.286443
O48	O	0.832083	0.566884	0.121410
H49	H	0.817621	0.541049	0.026918
O50	O	0.867988	0.433182	0.364679
H51	H	0.882239	0.457959	0.459792
H52	H	1.123510	0.062833	-0.241621
O53	O	0.987901	-0.175745	-0.202825
H54	H	1.042444	-0.158299	-0.149926
H55	H	1.119776	0.063676	-0.460230
O56	O	0.986881	0.174830	-0.448012
H57	H	0.982097	0.175833	-0.552302
H58	H	1.119948	-0.062691	-0.461195
H59	H	0.962032	0.441831	-0.038117
O60	O	0.990579	-0.174752	-0.446133
H61	H	1.057586	-0.173792	-0.426316
H62	H	1.024514	0.558060	0.385279
H63	H	1.102535	0.557722	0.007194
H64	H	0.878784	-0.094185	-0.414437
H65	H	0.880289	-0.088304	-0.196042
O66	O	1.154563	0.433206	0.225925
H67	H	1.153879	0.356245	0.225768
H68	H	0.563496	-0.000141	-0.048127
H69	H	0.422912	-0.000118	0.395047
H70	H	0.449811	0.140250	0.060747
O71	O	0.992758	0.175269	-0.207786
H72	H	1.011414	0.217062	-0.294578
O73	O	0.860106	0.092898	-0.179757
H74	H	0.814997	0.095254	-0.253076
O75	O	0.543382	-0.161242	0.303170
H76	H	0.512961	-0.161085	0.402821
H77	H	1.124041	-0.063086	-0.243452
O78	O	0.855001	0.091884	-0.419408
H79	H	0.841082	0.031138	-0.478390
H80	H	0.450013	-0.140519	0.060709
