data_functionalizedCrystal
_audit_creation_method	'MofGen! by Chris Wilmer'
_symmetry_space_group_name_H-M	'P1'
_symmetry_Int_Tables_number	1
_symmetry_cell_setting	triclinic
loop_
_symmetry_equiv_pos_as_xyz
  x,y,z
_cell_length_a	12.759395
_cell_length_b	12.759394
_cell_length_c	11.169409
_cell_angle_alpha	89.967439
_cell_angle_beta	89.979216
_cell_angle_gamma	90.016178
loop_
_atom_site_label
_atom_site_type_symbol
_atom_site_fract_x
_atom_site_fract_y
_atom_site_fract_z
Zn1	Zn	1.606272	-0.418138	-0.678572
Zn2	Zn	1.606162	-0.593864	-0.477888
Zn3	Zn	1.430569	-0.418204	-0.477903
Zn4	Zn	1.430563	-0.593781	-0.678529
O5	O	1.518391	-0.505997	-0.578223
O6	O	1.753278	-0.441456	-0.651962
O7	O	1.582826	-0.570625	-0.309940
O8	O	1.453925	-0.271175	-0.504546
O9	O	1.753198	-0.570561	-0.504520
O10	O	1.583013	-0.271126	-0.651976
O11	O	1.453819	-0.441569	-0.309951
O12	O	1.283547	-0.441488	-0.504505
O13	O	1.453914	-0.570419	-0.846485
O14	O	1.283542	-0.570483	-0.651904
O15	O	1.583007	-0.441375	-0.846516
O16	O	1.582820	-0.740874	-0.504479
O17	O	1.453807	-0.740813	-0.651890
C18	C	1.245424	-0.505984	-0.578202
C19	C	1.128647	-0.506004	-0.578222
C20	C	1.128681	-0.640544	-0.731461
C21	C	1.073837	-0.707822	-0.808083
C22	C	0.964115	-0.707835	-0.808098
C23	C	0.909235	-0.640560	-0.731484
C24	C	0.964079	-0.573282	-0.654861
C25	C	1.073803	-0.573278	-0.654853
C26	C	0.964046	-0.438738	-0.501631
C27	C	1.073767	-0.438729	-0.501608
C28	C	0.909165	-0.371463	-0.425017
C29	C	0.964010	-0.304189	-0.348386
C30	C	1.073738	-0.304179	-0.348373
C31	C	1.128611	-0.371451	-0.424985
C32	C	1.518329	-0.778964	-0.578204
C33	C	1.518399	-0.895741	-0.578237
C34	C	1.652962	-1.115175	-0.424903
C35	C	1.720157	-1.060308	-0.348203
C36	C	1.720103	-0.950587	-0.348179
C37	C	1.652843	-0.895729	-0.424861
C38	C	1.585648	-0.950596	-0.501561
C39	C	1.585713	-1.060320	-0.501579
C40	C	1.451204	-0.950608	-0.654937
C41	C	1.451262	-1.060329	-0.654968
C42	C	1.383945	-0.895750	-0.731618
C43	C	1.316753	-0.950617	-0.808326
C44	C	1.316812	-1.060345	-0.808348
C45	C	1.384067	-1.115196	-0.731668
C46	C	1.792425	-0.506010	-0.578244
C47	C	1.909202	-0.506016	-0.578253
C48	C	1.518472	-0.505880	-0.891265
C49	C	1.518507	-0.505830	-1.024665
C50	C	1.518482	-0.231963	-0.578267
C51	C	1.518521	-0.115187	-0.578286
C52	C	1.518372	-0.506037	-0.266398
C53	C	1.518541	-0.505791	-0.132999
H54	H	1.217952	-0.371453	-0.424979
O55	O	1.133039	-0.780354	-0.890735
H56	H	1.183003	-0.833754	-0.836921
H57	H	1.262094	-1.105011	-0.870807
O58	O	1.132882	-0.231621	-0.265713
H59	H	1.111842	-0.149188	-0.286458
O60	O	1.383871	-0.777407	-0.731601
H61	H	1.463083	-0.748391	-0.755944
O62	O	1.792595	-0.891407	-0.265473
H63	H	1.781255	-0.805896	-0.278347
H64	H	0.819824	-0.371474	-0.425039
H65	H	1.653023	-1.204516	-0.424926
H66	H	1.652796	-0.806388	-0.424825
H67	H	1.261991	-0.905945	-0.870749
O68	O	1.247024	-0.640535	-0.731433
H69	H	1.275971	-0.698613	-0.797579
O70	O	0.904951	-0.780458	-0.890667
H71	H	0.961540	-0.827262	-0.943909
H72	H	1.384125	-1.204537	-0.731683
H73	H	0.819894	-0.640567	-0.731513
H74	H	0.919318	-0.249414	-0.286019
H75	H	1.774916	-1.104985	-0.285767
