data_functionalizedCrystal
_audit_creation_method	'MofGen! by Chris Wilmer'
_symmetry_space_group_name_H-M	'P1'
_symmetry_Int_Tables_number	1
_symmetry_cell_setting	triclinic
loop_
_symmetry_equiv_pos_as_xyz
  x,y,z
_cell_length_a	15.297476
_cell_length_b	15.299816
_cell_length_c	12.759393
_cell_angle_alpha	99.650868
_cell_angle_beta	80.311732
_cell_angle_gamma	72.651764
loop_
_atom_site_label
_atom_site_type_symbol
_atom_site_fract_x
_atom_site_fract_y
_atom_site_fract_z
Zn1	Zn	1.485933	-0.616443	-1.017407
Zn2	Zn	1.512727	-0.771926	-0.878483
Zn3	Zn	1.330404	-0.589542	-0.805016
Zn4	Zn	1.357263	-0.744925	-1.017387
O5	O	1.421582	-0.680709	-0.929573
O6	O	1.619639	-0.659626	-1.029733
O7	O	1.488515	-0.747775	-0.721719
O8	O	1.328581	-0.463012	-0.802452
O9	O	1.639325	-0.773859	-0.927666
O10	O	1.442848	-0.482776	-0.958495
O11	O	1.354562	-0.613778	-0.667743
O12	O	1.203815	-0.587596	-0.802433
O13	O	1.374358	-0.727839	-1.164408
O14	O	1.223548	-0.701755	-0.958461
O15	O	1.468892	-0.633444	-1.164422
O16	O	1.514559	-0.898443	-0.927647
O17	O	1.400339	-0.878605	-1.029699
C18	C	1.179935	-0.638827	-0.872473
C19	C	1.076561	-0.620932	-0.848076
C20	C	1.017682	-0.552987	-0.755457
C21	C	0.920557	-0.536171	-0.732531
C22	C	0.882300	-0.587295	-0.802228
C23	C	0.941179	-0.655237	-0.894853
C24	C	1.038314	-0.672059	-0.917776
C25	C	0.902932	-0.706368	-0.964547
C26	C	0.961811	-0.774310	-1.057173
C27	C	1.058937	-0.791128	-1.080092
C28	C	1.097193	-0.740005	-1.010396
C29	C	0.805797	-0.689545	-0.941624
C30	C	0.826429	-0.808618	-1.103944
C31	C	0.923554	-0.825433	-1.126869
C32	C	1.463296	-0.922261	-0.986672
C33	C	1.481227	-1.025613	-1.011154
C34	C	1.294037	-1.276125	-0.755096
C35	C	1.277186	-1.179020	-0.732095
C36	C	1.328195	-1.140664	-0.801857
C37	C	1.396058	-1.199422	-0.894625
C38	C	1.412906	-1.296535	-0.917633
C39	C	1.447064	-1.161074	-0.964395
C40	C	1.514927	-1.219832	-1.057163
C41	C	1.531772	-1.316936	-1.080166
C42	C	1.480763	-1.355292	-1.010403
C43	C	1.430215	-1.063960	-0.941387
C44	C	1.549084	-1.084370	-1.103924
C45	C	1.565936	-1.181475	-1.126925
C46	C	1.664172	-0.722755	-0.986897
C47	C	1.767550	-0.740672	-1.011325
C48	C	1.421632	-0.680630	-1.203601
C49	C	1.421654	-0.680596	-1.320375
C50	C	1.379729	-0.438218	-0.872281
C51	C	1.361895	-0.334882	-0.847866
C52	C	1.351936	-0.610786	-1.456855
C53	C	1.351921	-0.610816	-1.347134
C54	C	1.491411	-0.750347	-1.403345
C55	C	1.491430	-0.750312	-1.513064
C56	C	1.282193	-0.541007	-1.483606
C57	C	1.212436	-0.471255	-1.400643
C58	C	1.212421	-0.471284	-1.290922
C59	C	1.282163	-0.541065	-1.264163
C60	C	1.421573	-0.680730	-0.656608
C61	C	1.421687	-0.680533	-0.539815
H62	H	1.106875	-0.846460	-1.155507
C63	C	0.855796	-0.461429	-0.630654
N64	N	0.807017	-0.405125	-0.553917
C65	C	1.606425	-1.381568	-1.182212
N66	N	1.662657	-1.430247	-1.259072
H67	H	1.176280	-0.753691	-1.029058
H68	H	0.971507	-0.880753	-1.202286
C69	C	0.784352	-0.864856	-1.180617
N70	N	0.752652	-0.907212	-1.238361
C71	C	1.135690	-0.394555	-1.199666
N72	N	1.077891	-0.336762	-1.130933
C73	C	1.355568	-0.999338	-0.839343
N74	N	1.299339	-0.950664	-0.762478
H75	H	1.314471	-1.061596	-0.783123
H76	H	1.548191	-0.807159	-1.381549
C77	C	1.568157	-0.827040	-1.604326
N78	N	1.625951	-0.884831	-1.673065
H79	H	1.282150	-0.541079	-1.174818
C80	C	1.640580	-1.246120	-1.228972
N81	N	1.696800	-1.294812	-1.305834
H82	H	0.757867	-0.634224	-0.866210
C83	C	1.059770	-0.496753	-0.678807
N84	N	1.091472	-0.454392	-0.621072
C85	C	1.202519	-1.114391	-0.630071
N86	N	1.146269	-1.065709	-0.553226
H87	H	1.590618	-1.053141	-1.160733
C88	C	1.238001	-1.318336	-0.678311
N89	N	1.195815	-1.350134	-0.620449
C90	C	1.499297	-1.462114	-1.035700
N91	N	1.513253	-1.542573	-1.054751
C92	C	1.282202	-0.540969	-1.604299
N93	N	1.282208	-0.540944	-1.695205
C94	C	1.135728	-0.394497	-1.430081
N95	N	1.077949	-0.336681	-1.452252
C96	C	0.775458	-0.568788	-0.777012
N97	N	0.694979	-0.554841	-0.758019
