data_functionalizedCrystal
_audit_creation_method	'MofGen! by Chris Wilmer'
_symmetry_space_group_name_H-M	'P1'
_symmetry_Int_Tables_number	1
_symmetry_cell_setting	triclinic
loop_
_symmetry_equiv_pos_as_xyz
  x,y,z
_cell_length_a	11.026607
_cell_length_b	11.026607
_cell_length_c	10.065875
_cell_angle_alpha	100.731764
_cell_angle_beta	79.302338
_cell_angle_gamma	108.586017
loop_
_atom_site_label
_atom_site_type_symbol
_atom_site_fract_x
_atom_site_fract_y
_atom_site_fract_z
O1	O	1.741286	0.518966	-0.113490
O2	O	1.374706	0.458202	-0.113493
O3	O	1.527614	0.305294	-0.113487
O4	O	1.588379	0.671873	-0.113496
O5	O	1.498489	0.334601	0.113501
O6	O	1.345582	0.487509	0.113495
O7	O	1.712161	0.548273	0.113497
Zn8	Zn	1.524247	0.522544	0.149535
Zn9	Zn	1.562620	0.483931	-0.149531
O10	O	1.559254	0.701180	0.113491
C11	C	1.312485	0.461645	0.000001
C12	C	1.170471	0.428228	0.000000
C13	C	1.116822	0.520498	-0.000003
C14	C	0.970043	0.485962	-0.000004
C15	C	1.501842	0.272288	0.000005
C16	C	1.468426	0.130273	0.000000
C17	C	1.560695	0.076624	-0.000001
C18	C	1.526160	-0.070155	-0.000006
C19	C	1.774384	0.544829	0.000001
C20	C	1.916399	0.578244	-0.000007
C21	C	1.585026	0.734186	-0.000004
C22	C	1.618444	0.876199	-0.000008
N23	N	1.498068	0.548898	0.353640
N24	N	1.588808	0.457569	-0.353635
C25	C	1.553502	0.493090	0.421421
C26	C	1.533366	0.513385	0.578587
H27	H	0.979125	0.682816	-0.000001
O28	O	1.095822	0.303425	0.000061
C29	C	1.174208	0.224333	0.000025
H30	H	1.266826	0.285212	0.042999
H31	H	1.119985	0.144920	0.065925
H32	H	1.199196	0.178912	-0.108873
H33	H	1.665257	0.139358	0.000008
O34	O	1.743220	-0.049086	0.000178
C35	C	1.789119	-0.060211	0.117755
H36	H	1.729339	-0.154958	0.156946
H37	H	1.894641	-0.058748	0.091317
H38	H	1.780493	0.024074	0.200075
O39	O	1.423771	0.623989	0.423057
C40	C	1.476830	0.750191	0.388263
H41	H	1.539134	0.747332	0.284470
H42	H	1.395543	0.791640	0.383537
H43	H	1.538717	0.813652	0.468643
H44	H	1.363864	0.067539	-0.000009
O45	O	1.663000	0.382346	0.577005
C46	C	1.609818	0.256245	0.612060
H47	H	1.502655	0.238749	0.651362
H48	H	1.622294	0.183228	0.518151
H49	H	1.661498	0.244789	0.695011
H50	H	1.421592	-0.132886	-0.000016
H51	H	1.615864	0.430280	0.363099
H52	H	1.470989	0.576187	0.636906
H53	H	0.907318	0.381388	-0.000036
O54	O	1.191845	0.645172	-0.000060
C55	C	1.321691	0.651902	-0.000018
H56	H	1.336560	0.553673	-0.042993
H57	H	1.387447	0.727310	-0.065914
H58	H	1.346063	0.680166	0.108882
