data_functionalizedCrystal
_audit_creation_method	'MofGen! by Chris Wilmer'
_symmetry_space_group_name_H-M	'P1'
_symmetry_Int_Tables_number	1
_symmetry_cell_setting	triclinic
loop_
_symmetry_equiv_pos_as_xyz
  x,y,z
_cell_length_a	18.215407
_cell_length_b	15.298670
_cell_length_c	18.215399
_cell_angle_alpha	99.702305
_cell_angle_beta	89.985640
_cell_angle_gamma	99.662669
loop_
_atom_site_label
_atom_site_type_symbol
_atom_site_fract_x
_atom_site_fract_y
_atom_site_fract_z
Zn1	Zn	1.175788	0.359196	-0.365394
Zn2	Zn	1.675788	0.859196	0.134606
Zn3	Zn	1.197013	0.510066	-0.221043
Zn4	Zn	1.697013	1.010066	0.278957
Zn5	Zn	1.052731	0.359224	-0.242342
Zn6	Zn	1.552731	0.859224	0.257658
Zn7	Zn	1.073988	0.510002	-0.344082
Zn8	Zn	1.573988	1.010002	0.155918
O9	O	1.124880	0.434622	-0.293215
O10	O	1.624880	0.934622	0.206785
O11	O	1.281590	0.379225	-0.346250
O12	O	1.781590	0.879225	0.153750
O13	O	1.177861	0.490096	-0.120879
O14	O	1.677861	0.990096	0.379121
O15	O	1.051275	0.232980	-0.276498
O16	O	1.551275	0.732980	0.223502
O17	O	1.297184	0.490069	-0.240197
O18	O	1.797184	0.990069	0.259803
O19	O	1.141685	0.232960	-0.366903
O20	O	1.641685	0.732960	0.133097
O21	O	1.071857	0.379273	-0.136527
O22	O	1.571857	0.879273	0.363473
O23	O	0.952564	0.379210	-0.255833
O24	O	1.452564	0.879210	0.244167
O25	O	1.087505	0.489959	-0.449899
O26	O	1.587505	0.989959	0.050101
O27	O	0.968182	0.489986	-0.330581
O28	O	1.468182	0.989986	0.169419
O29	O	1.162297	0.379162	-0.465556
O30	O	1.662297	0.879162	0.034444
O31	O	1.198473	0.636298	-0.219532
O32	O	1.698473	1.136298	0.280468
O33	O	1.108087	0.636251	-0.309928
O34	O	1.608087	1.136251	0.190072
C35	C	0.933670	0.434595	-0.293206
C36	C	1.433670	0.934595	0.206794
C37	C	0.851872	0.434604	-0.293217
C38	C	1.351872	0.934604	0.206783
C39	C	0.655574	0.377007	-0.348497
C40	C	1.155574	0.877007	0.151503
C41	C	0.578716	0.377015	-0.348498
C42	C	1.078716	0.877015	0.151502
C43	C	0.594941	0.492263	-0.237943
C44	C	1.094941	0.992263	0.262057
C45	C	0.671797	0.492250	-0.237940
C46	C	1.171797	0.992250	0.262060
C47	C	0.702111	0.434623	-0.293220
C48	C	1.202111	0.934623	0.206780
C49	C	0.548398	0.434644	-0.293225
C50	C	1.048398	0.934644	0.206775
C51	C	0.465066	0.434653	-0.293226
C52	C	0.965066	0.934653	0.206774
C53	C	0.785449	0.434613	-0.293219
C54	C	1.285449	0.934613	0.206781
C55	C	1.157910	0.669008	-0.260123
C56	C	1.657910	1.169008	0.239877
C57	C	1.172108	0.769279	-0.245990
C58	C	1.672108	1.269279	0.254010
C59	C	1.023759	1.051953	-0.394244
C60	C	1.523759	1.551953	0.105756
C61	C	1.010422	0.957743	-0.407527
C62	C	1.510422	1.457743	0.092473
C63	C	1.050842	0.910622	-0.367144
C64	C	1.550842	1.410622	0.132856
C65	C	1.104602	0.957721	-0.313475
C66	C	1.604602	1.457721	0.186525
C67	C	1.117945	1.051939	-0.300194
C68	C	1.617945	1.551939	0.199806
C69	C	1.145028	0.910609	-0.273095
C70	C	1.645028	1.410609	0.226905
C71	C	1.198788	0.957707	-0.219426
C72	C	1.698788	1.457707	0.280574
C73	C	1.212128	1.051916	-0.206147
C74	C	1.712128	1.551916	0.293853
C75	C	1.171708	1.099037	-0.246530
C76	C	1.671708	1.599037	0.253470
C77	C	1.131685	0.816390	-0.286375
C78	C	1.631685	1.316390	0.213625
C79	C	1.225871	0.816377	-0.192326
C80	C	1.725871	1.316377	0.307674
C81	C	1.239208	0.910586	-0.179042
C82	C	1.739208	1.410586	0.320958
C83	C	1.316837	0.434651	-0.293225
C84	C	1.816837	0.934651	0.206775
C85	C	1.398637	0.434663	-0.293229
C86	C	1.898637	0.934663	0.206771
C87	C	1.124905	0.434550	-0.485179
C88	C	1.624905	0.934550	0.014821
C89	C	1.124915	0.434520	-0.566982
C90	C	1.624915	0.934520	-0.066982
C91	C	1.091717	1.199322	-0.326444
C92	C	1.591717	1.699322	0.173556
C93	C	1.077522	1.099051	-0.340580
C94	C	1.577522	1.599051	0.159420
C95	C	1.069753	0.376775	-0.763330
C96	C	1.569753	0.876775	-0.263330
C97	C	1.069763	0.376757	-0.840192
C98	C	1.569763	0.876757	-0.340192
C99	C	1.180150	0.492156	-0.823886
C100	C	1.680150	0.992156	-0.323886
C101	C	1.180136	0.492178	-0.747026
C102	C	1.680136	0.992178	-0.247026
C103	C	1.124938	0.434483	-0.716751
C104	C	1.624938	0.934483	-0.216751
C105	C	1.124962	0.434442	-0.870472
C106	C	1.624962	0.934442	-0.370472
C107	C	1.124973	0.434423	-0.953809
C108	C	1.624973	0.934423	-0.453809
C109	C	1.124925	0.434503	-0.633409
C110	C	1.624925	0.934503	-0.133409
C111	C	1.124889	0.434629	-0.102008
C112	C	1.624889	0.934629	0.397992
C113	C	1.124985	0.434406	-0.020241
C114	C	1.624985	0.934406	0.479759
H115	H	0.709690	0.539169	-0.192923
H116	H	1.209690	1.039169	0.307077
C117	C	1.240858	0.555648	-0.695787
C118	C	1.740858	1.055648	-0.195787
N119	N	1.286595	0.603447	-0.657195
N120	N	1.786595	1.103447	-0.157195
H121	H	1.024807	0.329796	-0.738683
H122	H	1.524807	0.829796	-0.238683
H123	H	0.570250	0.539181	-0.192937
H124	H	1.070250	1.039181	0.307063
C125	C	1.072552	0.764593	-0.345413
C126	C	1.572552	1.264593	0.154587
N127	N	1.028011	0.725581	-0.389885
N128	N	1.528011	1.225581	0.110115
H129	H	1.225090	0.539130	-0.848546
H130	H	1.725090	1.039130	-0.348546
H131	H	0.540828	0.330096	-0.393509
H132	H	1.040828	0.830096	0.106491
H133	H	0.680253	0.330081	-0.393508
H134	H	1.180253	0.830081	0.106492
H135	H	1.039979	0.833913	-0.377963
H136	H	1.539979	1.333913	0.122037
C137	C	0.979303	1.103792	-0.438658
C138	C	1.479303	1.603792	0.061342
N139	N	0.945815	1.142838	-0.472113
N140	N	1.445815	1.642838	0.027887
H141	H	0.966651	0.919400	-0.451225
H142	H	1.466651	1.419400	0.048775
C143	C	1.186373	1.202674	-0.231917
C144	C	1.686373	1.702674	0.268083
N145	N	1.197415	1.280735	-0.220910
N146	N	1.697415	1.780735	0.279090
H147	H	1.255909	1.090261	-0.162452
H148	H	1.755909	1.590261	0.337548
H149	H	1.024826	0.329766	-0.878114
H150	H	1.524826	0.829766	-0.378114
H151	H	1.282981	0.948947	-0.135345
H152	H	1.782981	1.448947	0.364655
H153	H	1.258786	0.778011	-0.159444
H154	H	1.758786	1.278011	0.340556
