data_functionalizedCrystal
_audit_creation_method	'MofGen! by Chris Wilmer'
_symmetry_space_group_name_H-M	'P1'
_symmetry_Int_Tables_number	1
_symmetry_cell_setting	triclinic
loop_
_symmetry_equiv_pos_as_xyz
  x,y,z
_cell_length_a	29.839134
_cell_length_b	29.839131
_cell_length_c	18.101389
_cell_angle_alpha	89.971836
_cell_angle_beta	90.031063
_cell_angle_gamma	89.966655
loop_
_atom_site_label
_atom_site_type_symbol
_atom_site_fract_x
_atom_site_fract_y
_atom_site_fract_z
Zn1	Zn	0.686752	0.178987	0.418922
Zn2	Zn	1.020085	0.512321	0.752255
Zn3	Zn	1.353419	0.845654	1.085588
Zn4	Zn	0.686676	0.254104	0.295059
Zn5	Zn	1.020010	0.587437	0.628392
Zn6	Zn	1.353343	0.920771	0.961726
Zn7	Zn	0.611626	0.178979	0.295068
Zn8	Zn	0.944959	0.512313	0.628402
Zn9	Zn	1.278293	0.845646	0.961735
Zn10	Zn	0.611584	0.254082	0.418833
Zn11	Zn	0.944917	0.587415	0.752166
Zn12	Zn	1.278250	0.920748	1.085500
O13	O	0.649160	0.216538	0.356970
O14	O	0.982493	0.549871	0.690304
O15	O	1.315826	0.883205	1.023637
O16	O	0.749609	0.188965	0.402524
O17	O	1.082942	0.522298	0.735858
O18	O	1.416276	0.855631	1.069191
O19	O	0.676707	0.244145	0.191427
O20	O	1.010040	0.577478	0.524761
O21	O	1.343374	0.910811	0.858094
O22	O	0.621641	0.116113	0.311539
O23	O	0.954974	0.449447	0.644872
O24	O	1.288308	0.782780	0.978205
O25	O	0.749554	0.244152	0.311523
O26	O	1.082887	0.577486	0.644856
O27	O	1.416220	0.910819	0.978190
O28	O	0.676836	0.116119	0.402533
O29	O	1.010169	0.449453	0.735866
O30	O	1.343502	0.782786	1.069200
O31	O	0.621568	0.188951	0.191434
O32	O	0.954901	0.522284	0.524767
O33	O	1.288234	0.855618	0.858101
O34	O	0.548753	0.188929	0.311453
O35	O	0.882087	0.522262	0.644786
O36	O	1.215420	0.855596	0.978119
O37	O	0.621569	0.244114	0.522478
O38	O	0.954902	0.577447	0.855811
O39	O	1.288236	0.910781	1.189144
O40	O	0.548722	0.244106	0.402382
O41	O	0.882056	0.577440	0.735715
O42	O	1.215389	0.910773	1.069049
O43	O	0.676795	0.188943	0.522543
O44	O	1.010128	0.522276	0.855876
O45	O	1.343461	0.855609	1.189209
O46	O	0.676666	0.316968	0.311437
O47	O	1.009999	0.650302	0.644770
O48	O	1.343333	0.983635	0.978104
O49	O	0.621496	0.316952	0.402373
O50	O	0.954829	0.650285	0.735707
O51	O	1.288162	0.983618	1.069040
C52	C	0.532437	0.216515	0.356909
C53	C	0.865770	0.549848	0.690243
C54	C	1.199104	0.883181	1.023576
C55	C	0.482503	0.216516	0.356901
C56	C	0.815836	0.549849	0.690234
C57	C	1.149169	0.883182	1.023567
C58	C	0.125919	0.187765	0.309720
C59	C	0.459252	0.521098	0.643054
C60	C	0.792586	0.854432	0.976387
C61	C	0.313592	0.187752	0.309675
C62	C	0.646926	0.521086	0.643009
C63	C	0.980259	0.854419	0.976342
O64	O	0.337860	0.163269	0.269492
O65	O	0.671193	0.496603	0.602825
O66	O	1.004527	0.829936	0.936159
N67	N	0.337057	0.216523	0.356938
N68	N	0.670391	0.549856	0.690271
N69	N	1.003724	0.883190	1.023604
C70	C	0.313602	0.245297	0.404218
C71	C	0.646935	0.578630	0.737552
C72	C	0.980268	0.911963	1.070885
O73	O	0.337866	0.269764	0.444423
O74	O	0.671200	0.603098	0.777756
O75	O	1.004533	0.936431	1.111089
C76	C	0.125929	0.245307	0.404267
C77	C	0.459263	0.578640	0.737600
C78	C	0.792596	0.911973	1.070933
C79	C	0.102467	0.216537	0.356996
C80	C	0.435800	0.549871	0.690329
C81	C	0.769133	0.883204	1.023662
C82	C	0.102456	0.158998	0.262454
C83	C	0.435790	0.492331	0.595787
C84	C	0.769123	0.825664	0.929120
C85	C	0.055541	0.159003	0.262462
C86	C	0.388874	0.492336	0.595796
C87	C	0.722207	0.825669	0.929129
C88	C	0.032088	0.187775	0.309738
C89	C	0.365422	0.521109	0.643071
C90	C	0.698755	0.854442	0.976405
C91	C	0.055551	0.216543	0.357004
C92	C	0.388884	0.549876	0.690338
C93	C	0.722218	0.883209	1.023671
C94	C	0.102474	0.274078	0.451550
C95	C	0.435808	0.607411	0.784884
C96	C	0.769141	0.940745	1.118217
C97	C	0.055553	0.274077	0.451560
C98	C	0.388887	0.607410	0.784893
C99	C	0.722220	0.940744	1.118226
C100	C	0.032090	0.245308	0.404289
C101	C	0.365424	0.578641	0.737622
C102	C	0.698757	0.911974	1.070955
C103	C	-0.014817	0.245320	0.404289
C104	C	0.318516	0.578654	0.737622
C105	C	0.651850	0.911987	1.070955
N106	N	-0.038282	0.216550	0.357026
N107	N	0.295051	0.549883	0.690359
N108	N	0.628384	0.883216	1.023693
C109	C	-0.014830	0.187777	0.309751
C110	C	0.318504	0.521110	0.643084
C111	C	0.651837	0.854444	0.976417
C112	C	0.412132	0.245290	0.404189
C113	C	0.745465	0.578623	0.737522
C114	C	1.078799	0.911957	1.070855
C115	C	0.459050	0.245288	0.404176
C116	C	0.792383	0.578621	0.737509
C117	C	1.125717	0.911955	1.070843
C118	C	0.459037	0.187743	0.309634
C119	C	0.792371	0.521076	0.642967
C120	C	1.125704	0.854410	0.976300
C121	C	0.412119	0.187747	0.309643
C122	C	0.745452	0.521081	0.642977
C123	C	1.078785	0.854414	0.976310
C124	C	0.388667	0.216519	0.356926
C125	C	0.722000	0.549853	0.690260
C126	C	1.055334	0.883186	1.023593
C127	C	-0.113355	0.187790	0.309772
C128	C	0.219978	0.521124	0.643106
C129	C	0.553311	0.854457	0.976439
C130	C	-0.160275	0.187799	0.309783
C131	C	0.173058	0.521133	0.643117
C132	C	0.506392	0.854466	0.976450
C133	C	-0.160258	0.245343	0.404328
C134	C	0.173075	0.578676	0.737662
C135	C	0.506408	0.912009	1.070995
C136	C	-0.113343	0.245336	0.404315
C137	C	0.219990	0.578669	0.737648
C138	C	0.553324	0.912002	1.070982
C139	C	-0.089893	0.216556	0.357035
C140	C	0.243441	0.549889	0.690368
C141	C	0.576774	0.883222	1.023701
O142	O	-0.039114	0.269787	0.444457
O143	O	0.294220	0.603120	0.777790
O144	O	0.627553	0.936454	1.111124
O145	O	-0.039103	0.163306	0.269564
O146	O	0.294231	0.496639	0.602898
O147	O	0.627564	0.829973	0.936231
C148	C	0.172835	0.187760	0.309711
C149	C	0.506168	0.521093	0.643045
C150	C	0.839501	0.854426	0.976378
C151	C	0.196297	0.216527	0.356978
C152	C	0.529631	0.549860	0.690311
C153	C	0.862964	0.883194	1.023645
C154	C	0.172845	0.245300	0.404253
C155	C	0.506178	0.578633	0.737587
C156	C	0.839512	0.911966	1.070920
C157	C	0.243215	0.216525	0.356965
C158	C	0.576549	0.549858	0.690298
C159	C	0.909882	0.883192	1.023632
C160	C	0.266668	0.187753	0.309690
C161	C	0.600001	0.521086	0.643023
C162	C	0.933335	0.854419	0.976356
C163	C	0.243203	0.158982	0.262427
C164	C	0.576536	0.492315	0.595760
C165	C	0.909869	0.825649	0.929094
C166	C	0.196287	0.158987	0.262436
C167	C	0.529621	0.492320	0.595769
C168	C	0.862954	0.825654	0.929103
C169	C	0.196310	0.274070	0.451516
C170	C	0.529643	0.607404	0.784849
C171	C	0.862977	0.940737	1.118183
C172	C	0.243226	0.274063	0.451503
C173	C	0.576559	0.607396	0.784836
C174	C	0.909892	0.940730	1.118169
C175	C	0.266678	0.245291	0.404227
C176	C	0.600012	0.578624	0.737560
C177	C	0.933345	0.911957	1.070894
C178	C	0.649080	0.333261	0.356911
C179	C	0.982413	0.666594	0.690244
C180	C	1.315747	0.999927	1.023577
C181	C	0.649087	0.383195	0.356910
C182	C	0.982421	0.716528	0.690243
C183	C	1.315754	1.049862	1.023576
C184	C	0.677849	0.692807	0.404429
C185	C	1.011182	1.026140	0.737763
C186	C	1.344515	1.359473	1.071096
C187	C	0.677880	0.880480	0.404478
C188	C	1.011213	1.213813	0.737811
C189	C	1.344546	1.547146	1.071145
O190	O	0.702289	0.904717	0.444829
O191	O	1.035622	1.238051	0.778163
O192	O	1.368956	1.571384	1.111496
N193	N	0.649171	0.903980	0.357068
N194	N	0.982505	1.237314	0.690401
N195	N	1.315838	1.570647	1.023735
C196	C	0.620451	0.880560	0.309646
C197	C	0.953784	1.213893	0.642979
C198	C	1.287118	1.547226	0.976312
O199	O	0.596030	0.904854	0.269327
O200	O	0.929364	1.238188	0.602660
O201	O	1.262697	1.571521	0.935994
C202	C	0.620418	0.692887	0.309601
C203	C	0.953751	1.026221	0.642935
C204	C	1.287085	1.359554	0.976268
C205	C	0.649131	0.669389	0.357009
C206	C	0.982465	1.002723	0.690343
C207	C	1.315798	1.336056	1.023676
C208	C	0.706559	0.669309	0.451834
C209	C	1.039893	1.002642	0.785167
C210	C	1.373226	1.335975	1.118501
C211	C	0.706553	0.622393	0.451819
C212	C	1.039886	0.955726	0.785152
C213	C	1.373220	1.289060	1.118485
C214	C	0.677836	0.598976	0.404398
C215	C	1.011169	0.932309	0.737732
C216	C	1.344503	1.265642	1.071065
C217	C	0.649125	0.622474	0.356994
C218	C	0.982458	0.955807	0.690327
C219	C	1.315792	1.289141	1.023660
C220	C	0.591696	0.669468	0.262183
C221	C	0.925029	1.002801	0.595517
C222	C	1.258363	1.336134	0.928850
C223	C	0.591689	0.622547	0.262178
C224	C	0.925023	0.955880	0.595511
C225	C	1.258356	1.289213	0.928844
C226	C	0.620403	0.599048	0.309586
C227	C	0.953736	0.932382	0.642919
C228	C	1.287069	1.265715	0.976252
C229	C	0.620402	0.552141	0.309558
C230	C	0.953735	0.885474	0.642891
C231	C	1.287068	1.218808	0.976225
N232	N	0.649110	0.528641	0.356968
N233	N	0.982443	0.861974	0.690302
N234	N	1.315777	1.195307	1.023635
C235	C	0.677827	0.552058	0.404388
C236	C	1.011160	0.885391	0.737722
C237	C	1.344494	1.218725	1.071055
C238	C	0.620471	0.979090	0.309671
C239	C	0.953805	1.312423	0.643005
C240	C	1.287138	1.645757	0.976338
C241	C	0.620480	1.026008	0.309681
C242	C	0.953813	1.359341	0.643015
C243	C	1.287147	1.692675	0.976348
C244	C	0.677908	1.025925	0.404515
C245	C	1.011241	1.359258	0.737848
C246	C	1.344575	1.692592	1.071182
C247	C	0.677901	0.979006	0.404501
C248	C	1.011235	1.312340	0.737834
C249	C	1.344568	1.645673	1.071167
C250	C	0.649180	0.955590	0.357081
C251	C	0.982513	1.288923	0.690415
C252	C	1.315846	1.622256	1.023748
C253	C	0.677812	0.453532	0.404352
C254	C	1.011145	0.786865	0.737685
C255	C	1.344479	1.120199	1.071018
C256	C	0.677804	0.406612	0.404330
C257	C	1.011138	0.739946	0.737663
C258	C	1.344471	1.073279	1.070997
C259	C	0.620375	0.406700	0.309499
C260	C	0.953708	0.740033	0.642833
C261	C	1.287041	1.073366	0.976166
C262	C	0.620384	0.453615	0.309518
C263	C	0.953717	0.786948	0.642852
C264	C	1.287050	1.120282	0.976185
C265	C	0.649104	0.477030	0.356950
C266	C	0.982437	0.810364	0.690284
C267	C	1.315771	1.143697	1.023617
O268	O	0.596002	0.527874	0.269234
O269	O	0.929335	0.861208	0.602567
O270	O	1.262668	1.194541	0.935901
O271	O	0.702237	0.527755	0.444713
O272	O	1.035571	0.861088	0.778046
O273	O	1.368904	1.194422	1.111379
C274	C	0.677855	0.739722	0.404445
C275	C	1.011188	1.073055	0.737778
C276	C	1.344522	1.406389	1.071112
C277	C	0.649144	0.763220	0.357040
C278	C	0.982478	1.096554	0.690374
C279	C	1.315811	1.429887	1.023707
C280	C	0.620427	0.739803	0.309620
C281	C	0.953760	1.073136	0.642953
C282	C	1.287094	1.406469	0.976287
C283	C	0.649153	0.810138	0.357050
C284	C	0.982486	1.143471	0.690384
C285	C	1.315820	1.476805	1.023717
C286	C	0.677870	0.833555	0.404470
C287	C	1.011203	1.166889	0.737804
C288	C	1.344537	1.500222	1.071137
C289	C	0.706578	0.810055	0.451881
C290	C	1.039912	1.143388	0.785214
C291	C	1.373245	1.476722	1.118547
C292	C	0.706572	0.763139	0.451865
C293	C	1.039905	1.096473	0.785198
C294	C	1.373239	1.429806	1.118532
C295	C	0.591719	0.763303	0.262210
C296	C	0.925052	1.096637	0.595543
C297	C	1.258385	1.429970	0.928877
C298	C	0.591728	0.810219	0.262229
C299	C	0.925061	1.143552	0.595562
C300	C	1.258394	1.476885	0.928895
C301	C	0.620445	0.833636	0.309649
C302	C	0.953778	1.166969	0.642982
C303	C	1.287112	1.500303	0.976316
C304	C	0.766338	0.216562	0.357032
C305	C	1.099671	0.549895	0.690366
C306	C	1.433005	0.883229	1.023699
C307	C	0.816272	0.216572	0.357059
C308	C	1.149606	0.549905	0.690392
C309	C	1.482939	0.883239	1.023725
C310	C	0.649186	0.216527	0.550132
C311	C	0.982519	0.549860	0.883466
C312	C	1.315852	0.883193	1.216799
C313	C	0.649197	0.216522	0.632447
C314	C	0.982530	0.549855	0.965780
C315	C	1.315863	0.883189	1.299113
C316	C	0.649228	1.099360	0.357052
C317	C	0.982561	1.432693	0.690386
C318	C	1.315895	1.766026	1.023719
C319	C	0.649197	1.049425	0.357102
C320	C	0.982530	1.382759	0.690435
C321	C	1.315864	1.716092	1.023768
C322	C	0.649160	0.216517	0.164560
C323	C	0.982493	0.549850	0.497893
C324	C	1.315826	0.883184	0.831227
C325	C	0.649236	0.216395	0.082246
C326	C	0.982569	0.549729	0.415580
C327	C	1.315902	0.883062	0.748913
C328	C	0.649223	0.216438	0.931538
C329	C	0.982556	0.549771	1.264871
C330	C	1.315889	0.883104	1.598204
C331	C	0.614357	0.251040	0.900172
C332	C	0.947690	0.584373	1.233505
C333	C	1.281023	0.917706	1.566838
C334	C	0.614451	0.251200	0.814553
C335	C	0.947784	0.584533	1.147887
C336	C	1.281117	0.917867	1.481220
C337	C	0.649209	0.216479	0.783155
C338	C	0.982543	0.549813	1.116488
C339	C	1.315876	0.883146	1.449822
C340	C	0.696540	0.229336	0.814266
C341	C	1.029873	0.562670	1.147600
C342	C	1.363207	0.896003	1.480933
C343	C	0.696346	0.229564	0.899911
C344	C	1.029679	0.562897	1.233245
C345	C	1.363012	0.896230	1.566578
C346	C	0.637170	0.168902	0.899973
C347	C	0.970503	0.502235	1.233306
C348	C	1.303837	0.835569	1.566640
C349	C	0.636117	0.169176	0.814322
C350	C	0.969450	0.502510	1.147655
C351	C	1.302783	0.835843	1.480988
C352	C	0.649205	0.216502	0.699296
C353	C	0.982538	0.549836	1.032629
C354	C	1.315871	0.883169	1.365962
C355	C	0.649231	0.216416	1.015397
C356	C	0.982564	0.549749	1.348731
C357	C	1.315897	0.883083	1.682064
H358	H	0.393042	0.268721	0.442694
H359	H	0.726375	0.602055	0.776027
H360	H	1.059709	0.935388	1.109360
H361	H	0.701195	0.472591	0.442981
H362	H	1.034529	0.805924	0.776314
H363	H	1.367862	1.139258	1.109647
H364	H	0.701188	0.387482	0.442935
H365	H	1.034521	0.720815	0.776268
H366	H	1.367854	1.054148	1.109602
H367	H	0.568333	0.744241	0.223596
H368	H	0.901667	1.077574	0.556929
H369	H	1.235000	1.410907	0.890262
F370	F	0.666892	0.133690	0.786396
F371	F	1.000225	0.467023	1.119729
F372	F	1.333559	0.800356	1.453063
F373	F	0.484016	0.275914	0.454478
F374	F	0.817349	0.609248	0.787812
F375	F	1.150683	0.942581	1.121145
H376	H	0.393018	0.164319	0.271154
H377	H	0.726352	0.497653	0.604487
H378	H	1.059685	0.830986	0.937820
H379	H	0.701282	0.959877	0.443105
H380	H	1.034615	1.293210	0.776438
H381	H	1.367949	1.626544	1.109771
H382	H	0.729933	0.603264	0.490424
H383	H	1.063266	0.936597	0.823758
H384	H	1.396599	1.269930	1.157091
F385	F	0.171356	0.304696	0.501836
F386	F	0.504690	0.638029	0.835169
F387	F	0.838023	0.971362	1.168502
F388	F	0.127435	0.304698	0.501864
F389	F	0.460769	0.638032	0.835198
F390	F	0.794102	0.971365	1.168531
H391	H	0.601286	0.159481	0.793986
H392	H	0.934619	0.492814	1.127319
H393	H	1.267952	0.826148	1.460653
H394	H	0.729944	0.688370	0.490454
H395	H	1.063277	1.021703	0.823787
H396	H	1.396611	1.355037	1.157120
H397	H	0.568347	0.829347	0.223616
H398	H	0.901680	1.162680	0.556950
H399	H	1.235013	1.496014	0.890283
H400	H	0.706936	0.263717	0.792817
H401	H	1.040269	0.597050	1.126150
H402	H	1.373602	0.930383	1.459483
H403	H	0.579353	0.243154	0.793516
H404	H	0.912686	0.576487	1.126849
H405	H	1.246020	0.909821	1.460183
H406	H	-0.179376	0.164371	0.271287
H407	H	0.153957	0.497705	0.604621
H408	H	0.487290	0.831038	0.937954
H409	H	-0.094268	0.164353	0.271276
H410	H	0.239066	0.497686	0.604609
H411	H	0.572399	0.831020	0.937942
F412	F	0.708471	1.050855	0.454983
F413	F	1.041805	1.384189	0.788316
F414	F	1.375138	1.717522	1.121650
F415	F	0.568341	0.240629	0.927065
F416	F	0.901674	0.573962	1.260399
F417	F	1.235008	0.907295	1.593732
F418	F	0.484005	0.157121	0.259319
F419	F	0.817339	0.490455	0.592652
F420	F	1.150672	0.823788	0.925985
F421	F	0.589830	0.478624	0.259053
F422	F	0.923163	0.811958	0.592386
F423	F	1.256496	1.145291	0.925719
F424	F	0.670363	0.135205	0.926490
F425	F	1.003696	0.468538	1.259823
F426	F	1.337030	0.801872	1.593156
H427	H	-0.179362	0.268770	0.442816
H428	H	0.153971	0.602104	0.776149
H429	H	0.487305	0.935437	1.109483
F430	F	0.624632	0.296808	0.928339
F431	F	0.957965	0.630142	1.261672
F432	F	1.291298	0.963475	1.595006
H433	H	0.036461	0.297506	0.490067
H434	H	0.369795	0.630839	0.823400
H435	H	0.703128	0.964172	1.156733
F436	F	0.709702	0.274983	0.926023
F437	F	1.043035	0.608317	1.259356
F438	F	1.376368	0.941650	1.592690
H439	H	-0.094238	0.268765	0.442801
H440	H	0.239095	0.602099	0.776134
H441	H	0.572428	0.935432	1.109468
F442	F	0.731432	0.198033	0.927039
F443	F	1.064765	0.531366	1.260372
F444	F	1.398099	0.864699	1.593705
F445	F	0.171322	0.128366	0.212125
F446	F	0.504655	0.461699	0.545458
F447	F	0.837989	0.795032	0.878791
H448	H	0.597103	1.045136	0.271069
H449	H	0.930437	1.378469	0.604402
H450	H	1.263770	1.711803	0.937736
F451	F	0.624872	0.297250	0.787767
F452	F	0.958205	0.630583	1.121100
F453	F	1.291538	0.963917	1.454434
F454	F	0.268191	0.304688	0.501815
F455	F	0.601525	0.638021	0.835148
F456	F	0.934858	0.971355	1.168481
H457	H	0.597082	0.960028	0.271055
H458	H	0.930415	1.293361	0.604388
H459	H	1.263749	1.626694	0.937722
F460	F	0.561133	0.694466	0.211726
F461	F	0.894467	1.027799	0.545060
F462	F	1.227800	1.361133	0.878393
H463	H	0.603257	0.157189	0.921556
H464	H	0.936590	0.490523	1.254889
H465	H	1.269923	0.823856	1.588222
H466	H	0.036442	0.135576	0.223970
H467	H	0.369775	0.468909	0.557303
H468	H	0.703108	0.802242	0.890636
F469	F	0.731408	0.197431	0.787691
F470	F	1.064741	0.530764	1.121024
F471	F	1.398075	0.864098	1.454358
H472	H	0.596995	0.387626	0.270888
H473	H	0.930328	0.720959	0.604221
H474	H	1.263662	1.054293	0.937555
H475	H	0.262306	0.135556	0.223931
H476	H	0.595639	0.468889	0.557264
H477	H	0.928973	0.802222	0.890598
F478	F	0.127409	0.128370	0.212134
F479	F	0.460743	0.461703	0.545467
F480	F	0.794076	0.795037	0.878801
F481	F	0.561119	0.597628	0.211707
F482	F	0.894452	0.930961	0.545040
F483	F	1.227785	1.264294	0.878373
F484	F	0.737133	0.738137	0.502324
F485	F	1.070466	1.071470	0.835658
F486	F	1.403799	1.404804	1.168991
F487	F	0.737143	0.834986	0.502346
F488	F	1.070476	1.168319	0.835680
F489	F	1.403809	1.501652	1.169013
