data_functionalizedCrystal
_audit_creation_method	'MofGen! by Chris Wilmer'
_symmetry_space_group_name_H-M	'P1'
_symmetry_Int_Tables_number	1
_symmetry_cell_setting	triclinic
loop_
_symmetry_equiv_pos_as_xyz
  x,y,z
_cell_length_a	29.839134
_cell_length_b	29.839131
_cell_length_c	18.050582
_cell_angle_alpha	90.033130
_cell_angle_beta	90.026973
_cell_angle_gamma	90.027971
loop_
_atom_site_label
_atom_site_type_symbol
_atom_site_fract_x
_atom_site_fract_y
_atom_site_fract_z
Zn1	Zn	0.686751	-0.178969	0.420097
Zn2	Zn	0.936751	0.071031	0.670097
Zn3	Zn	1.186751	0.321031	0.920097
Zn4	Zn	1.436751	0.571031	1.170097
Zn5	Zn	0.686688	-0.254091	0.295884
Zn6	Zn	0.936688	-0.004091	0.545884
Zn7	Zn	1.186688	0.245909	0.795884
Zn8	Zn	1.436688	0.495909	1.045884
Zn9	Zn	0.611630	-0.178966	0.295895
Zn10	Zn	0.861630	0.071034	0.545895
Zn11	Zn	1.111630	0.321034	0.795895
Zn12	Zn	1.361630	0.571034	1.045895
Zn13	Zn	0.611589	-0.254063	0.420006
Zn14	Zn	0.861589	-0.004063	0.670006
Zn15	Zn	1.111589	0.245937	0.920006
Zn16	Zn	1.361589	0.495937	1.170006
O17	O	0.649164	-0.216522	0.357970
O18	O	0.899164	0.033478	0.607970
O19	O	1.149164	0.283478	0.857970
O20	O	1.399164	0.533478	1.107970
O21	O	0.749609	-0.188947	0.403653
O22	O	0.999609	0.061053	0.653653
O23	O	1.249609	0.311053	0.903653
O24	O	1.499609	0.561053	1.153653
O25	O	0.676722	-0.244136	0.191961
O26	O	0.926722	0.005864	0.441961
O27	O	1.176722	0.255864	0.691961
O28	O	1.426722	0.505864	0.941961
O29	O	0.621638	-0.116100	0.312413
O30	O	0.871638	0.133900	0.562413
O31	O	1.121638	0.383900	0.812413
O32	O	1.371638	0.633900	1.062413
O33	O	0.749563	-0.244139	0.312394
O34	O	0.999563	0.005861	0.562394
O35	O	1.249563	0.255861	0.812394
O36	O	1.499563	0.505861	1.062394
O37	O	0.676829	-0.116101	0.403664
O38	O	0.926829	0.133899	0.653664
O39	O	1.176829	0.383899	0.903664
O40	O	1.426829	0.633899	1.153664
O41	O	0.621577	-0.188942	0.191969
O42	O	0.871577	0.061058	0.441969
O43	O	1.121577	0.311058	0.691969
O44	O	1.371577	0.561058	0.941969
O45	O	0.548758	-0.188915	0.312325
O46	O	0.798758	0.061085	0.562325
O47	O	1.048758	0.311085	0.812325
O48	O	1.298758	0.561085	1.062325
O49	O	0.621569	-0.244091	0.523943
O50	O	0.871569	0.005909	0.773943
O51	O	1.121569	0.255909	1.023943
O52	O	1.371569	0.505909	1.273943
O53	O	0.548728	-0.244088	0.403509
O54	O	0.798728	0.005912	0.653509
O55	O	1.048728	0.255912	0.903509
O56	O	1.298728	0.505912	1.153509
O57	O	0.676790	-0.188919	0.524009
O58	O	0.926790	0.061081	0.774009
O59	O	1.176790	0.311081	1.024009
O60	O	1.426790	0.561081	1.274009
O61	O	0.676682	-0.316954	0.312306
O62	O	0.926682	-0.066954	0.562306
O63	O	1.176682	0.183046	0.812306
O64	O	1.426682	0.433046	1.062306
O65	O	0.621508	-0.316934	0.403499
O66	O	0.871508	-0.066934	0.653499
O67	O	1.121508	0.183066	0.903499
O68	O	1.371508	0.433066	1.153499
C69	C	0.532442	-0.216499	0.357909
C70	C	0.782442	0.033501	0.607909
C71	C	1.032442	0.283501	0.857909
C72	C	1.282442	0.533501	1.107909
C73	C	0.482507	-0.216500	0.357900
C74	C	0.732507	0.033500	0.607900
C75	C	0.982507	0.283500	0.857900
C76	C	1.232507	0.533500	1.107900
C77	C	0.125923	-0.187751	0.310588
C78	C	0.375923	0.062249	0.560588
C79	C	0.625923	0.312249	0.810588
C80	C	0.875923	0.562249	1.060588
C81	C	0.313596	-0.187738	0.310543
C82	C	0.563596	0.062262	0.560543
C83	C	0.813596	0.312262	0.810543
C84	C	1.063596	0.562262	1.060543
O85	O	0.337864	-0.163257	0.270247
O86	O	0.587864	0.086743	0.520247
O87	O	0.837864	0.336743	0.770247
O88	O	1.087864	0.586743	1.020247
N89	N	0.337062	-0.216507	0.357938
N90	N	0.587062	0.033493	0.607938
N91	N	0.837062	0.283493	0.857938
N92	N	1.087062	0.533493	1.107938
C93	C	0.313607	-0.245279	0.405351
C94	C	0.563607	0.004721	0.655351
C95	C	0.813607	0.254721	0.905351
C96	C	1.063607	0.504721	1.155351
O97	O	0.337873	-0.269745	0.445667
O98	O	0.587873	-0.019745	0.695667
O99	O	0.837873	0.230255	0.945667
O100	O	1.087873	0.480255	1.195667
C101	C	0.125935	-0.245289	0.405399
C102	C	0.375935	0.004711	0.655399
C103	C	0.625935	0.254711	0.905399
C104	C	0.875935	0.504711	1.155399
C105	C	0.102471	-0.216522	0.357996
C106	C	0.352471	0.033478	0.607996
C107	C	0.602471	0.283478	0.857996
C108	C	0.852471	0.533478	1.107996
C109	C	0.102460	-0.158986	0.263189
C110	C	0.352460	0.091014	0.513189
C111	C	0.602460	0.341014	0.763189
C112	C	0.852460	0.591014	1.013189
C113	C	0.055544	-0.158991	0.263198
C114	C	0.305544	0.091009	0.513198
C115	C	0.555544	0.341009	0.763198
C116	C	0.805544	0.591009	1.013198
C117	C	0.032092	-0.187761	0.310606
C118	C	0.282092	0.062239	0.560606
C119	C	0.532092	0.312239	0.810606
C120	C	0.782092	0.562239	1.060606
C121	C	0.055556	-0.216527	0.358004
C122	C	0.305556	0.033473	0.608004
C123	C	0.555556	0.283473	0.858004
C124	C	0.805556	0.533473	1.108004
C125	C	0.102480	-0.274058	0.452815
C126	C	0.352480	-0.024058	0.702815
C127	C	0.602480	0.225942	0.952815
C128	C	0.852480	0.475942	1.202815
C129	C	0.055559	-0.274057	0.452824
C130	C	0.305559	-0.024057	0.702824
C131	C	0.555559	0.225943	0.952824
C132	C	0.805559	0.475943	1.202824
C133	C	0.032096	-0.245290	0.405421
C134	C	0.282096	0.004710	0.655421
C135	C	0.532096	0.254710	0.905421
C136	C	0.782096	0.504710	1.155421
C137	C	-0.014811	-0.245302	0.405421
C138	C	0.235189	0.004698	0.655421
C139	C	0.485189	0.254698	0.905421
C140	C	0.735189	0.504698	1.155421
N141	N	-0.038277	-0.216534	0.358026
N142	N	0.211723	0.033466	0.608026
N143	N	0.461723	0.283466	0.858026
N144	N	0.711723	0.533466	1.108026
C145	C	-0.014825	-0.187763	0.310618
C146	C	0.235175	0.062237	0.560618
C147	C	0.485175	0.312237	0.810618
C148	C	0.735175	0.562237	1.060618
C149	C	0.412138	-0.245272	0.405321
C150	C	0.662138	0.004728	0.655321
C151	C	0.912138	0.254728	0.905321
C152	C	1.162138	0.504728	1.155321
C153	C	0.459056	-0.245270	0.405308
C154	C	0.709056	0.004730	0.655308
C155	C	0.959056	0.254730	0.905308
C156	C	1.209056	0.504730	1.155308
C157	C	0.459042	-0.187729	0.310501
C158	C	0.709042	0.062271	0.560501
C159	C	0.959042	0.312271	0.810501
C160	C	1.209042	0.562271	1.060501
C161	C	0.412123	-0.187734	0.310511
C162	C	0.662123	0.062266	0.560511
C163	C	0.912123	0.312266	0.810511
C164	C	1.162123	0.562266	1.060511
C165	C	0.388672	-0.216503	0.357926
C166	C	0.638672	0.033497	0.607926
C167	C	0.888672	0.283497	0.857926
C168	C	1.138672	0.533497	1.107926
C169	C	-0.113351	-0.187777	0.310640
C170	C	0.136649	0.062223	0.560640
C171	C	0.386649	0.312223	0.810640
C172	C	0.636649	0.562223	1.060640
C173	C	-0.160271	-0.187786	0.310651
C174	C	0.089729	0.062214	0.560651
C175	C	0.339729	0.312214	0.810651
C176	C	0.589729	0.562214	1.060651
C177	C	-0.160253	-0.245325	0.405461
C178	C	0.089747	0.004675	0.655461
C179	C	0.339747	0.254675	0.905461
C180	C	0.589747	0.504675	1.155461
C181	C	-0.113337	-0.245318	0.405447
C182	C	0.136663	0.004682	0.655447
C183	C	0.386663	0.254682	0.905447
C184	C	0.636663	0.504682	1.155447
C185	C	-0.089888	-0.216540	0.358035
C186	C	0.160112	0.033460	0.608035
C187	C	0.410112	0.283460	0.858035
C188	C	0.660112	0.533460	1.108035
O189	O	-0.039108	-0.269767	0.445702
O190	O	0.210892	-0.019767	0.695702
O191	O	0.460892	0.230233	0.945702
O192	O	0.710892	0.480233	1.195702
O193	O	-0.039099	-0.163294	0.270319
O194	O	0.210901	0.086706	0.520319
O195	O	0.460901	0.336706	0.770319
O196	O	0.710901	0.586706	1.020319
C197	C	0.172839	-0.187746	0.310579
C198	C	0.422839	0.062254	0.560579
C199	C	0.672839	0.312254	0.810579
C200	C	0.922839	0.562254	1.060579
C201	C	0.196302	-0.216511	0.357978
C202	C	0.446302	0.033489	0.607978
C203	C	0.696302	0.283489	0.857978
C204	C	0.946302	0.533489	1.107978
C205	C	0.172850	-0.245282	0.405386
C206	C	0.422850	0.004718	0.655386
C207	C	0.672850	0.254718	0.905386
C208	C	0.922850	0.504718	1.155386
C209	C	0.243220	-0.216509	0.357965
C210	C	0.493220	0.033491	0.607965
C211	C	0.743220	0.283491	0.857965
C212	C	0.993220	0.533491	1.107965
C213	C	0.266672	-0.187739	0.310557
C214	C	0.516672	0.062261	0.560557
C215	C	0.766672	0.312261	0.810557
C216	C	1.016672	0.562261	1.060557
C217	C	0.243206	-0.158970	0.263162
C218	C	0.493206	0.091030	0.513162
C219	C	0.743206	0.341030	0.763162
C220	C	0.993206	0.591030	1.013162
C221	C	0.196291	-0.158975	0.263171
C222	C	0.446291	0.091025	0.513171
C223	C	0.696291	0.341025	0.763171
C224	C	0.946291	0.591025	1.013171
C225	C	0.196316	-0.274050	0.452781
C226	C	0.446316	-0.024050	0.702781
C227	C	0.696316	0.225950	0.952781
C228	C	0.946316	0.475950	1.202781
C229	C	0.243232	-0.274043	0.452767
C230	C	0.493232	-0.024043	0.702767
C231	C	0.743232	0.225957	0.952767
C232	C	0.993232	0.475957	1.202767
C233	C	0.266684	-0.245273	0.405359
C234	C	0.516684	0.004727	0.655359
C235	C	0.766684	0.254727	0.905359
C236	C	1.016684	0.504727	1.155359
C237	C	0.649096	-0.333245	0.357908
C238	C	0.899096	-0.083245	0.607908
C239	C	1.149096	0.166755	0.857908
C240	C	1.399096	0.416755	1.107908
C241	C	0.649108	-0.383179	0.357906
C242	C	0.899108	-0.133179	0.607906
C243	C	1.149108	0.116821	0.857906
C244	C	1.399108	0.366821	1.107906
C245	C	0.677896	-0.692789	0.405552
C246	C	0.927896	-0.442789	0.655552
C247	C	1.177896	-0.192789	0.905552
C248	C	1.427896	0.057211	1.155552
C249	C	0.677945	-0.880462	0.405597
C250	C	0.927945	-0.630462	0.655597
C251	C	1.177945	-0.380462	0.905597
C252	C	1.427945	-0.130462	1.155597
O253	O	0.702355	-0.904698	0.446061
O254	O	0.952355	-0.654698	0.696061
O255	O	1.202355	-0.404698	0.946061
O256	O	1.452355	-0.154698	1.196061
N257	N	0.649241	-0.903964	0.358053
N258	N	0.899241	-0.653964	0.608053
N259	N	1.149241	-0.403964	0.858053
N260	N	1.399241	-0.153964	1.108053
C261	C	0.620520	-0.880546	0.310498
C262	C	0.870520	-0.630546	0.560498
C263	C	1.120520	-0.380546	0.810498
C264	C	1.370520	-0.130546	1.060498
O265	O	0.596104	-0.904842	0.270065
O266	O	0.846104	-0.654842	0.520065
O267	O	1.096104	-0.404842	0.770065
O268	O	1.346104	-0.154842	1.020065
C269	C	0.620470	-0.692874	0.310457
C270	C	0.870470	-0.442874	0.560457
C271	C	1.120470	-0.192874	0.810457
C272	C	1.370470	0.057126	1.060457
C273	C	0.649179	-0.669373	0.357999
C274	C	0.899179	-0.419373	0.607999
C275	C	1.149179	-0.169373	0.857999
C276	C	1.399179	0.080627	1.107999
C277	C	0.706603	-0.669289	0.453091
C278	C	0.956603	-0.419289	0.703091
C279	C	1.206603	-0.169289	0.953091
C280	C	1.456603	0.080711	1.203091
C281	C	0.706592	-0.622373	0.453076
C282	C	0.956592	-0.372373	0.703076
C283	C	1.206592	-0.122373	0.953076
C284	C	1.456592	0.127627	1.203076
C285	C	0.677875	-0.598958	0.405523
C286	C	0.927875	-0.348958	0.655523
C287	C	1.177875	-0.098958	0.905523
C288	C	1.427875	0.151042	1.155523
C289	C	0.649168	-0.622458	0.357985
C290	C	0.899168	-0.372458	0.607985
C291	C	1.149168	-0.122458	0.857985
C292	C	1.399168	0.127542	1.107985
C293	C	0.591747	-0.669456	0.262906
C294	C	0.841747	-0.419456	0.512906
C295	C	1.091747	-0.169456	0.762906
C296	C	1.341747	0.080544	1.012906
C297	C	0.591736	-0.622535	0.262902
C298	C	0.841736	-0.372535	0.512902
C299	C	1.091736	-0.122535	0.762902
C300	C	1.341736	0.127465	1.012902
C301	C	0.620446	-0.599035	0.310444
C302	C	0.870446	-0.349035	0.560444
C303	C	1.120446	-0.099035	0.810444
C304	C	1.370446	0.150965	1.060444
C305	C	0.620440	-0.552127	0.310417
C306	C	0.870440	-0.302127	0.560417
C307	C	1.120440	-0.052127	0.810417
C308	C	1.370440	0.197873	1.060417
N309	N	0.649144	-0.528625	0.357961
N310	N	0.899144	-0.278625	0.607961
N311	N	1.149144	-0.028625	0.857961
N312	N	1.399144	0.221375	1.107961
C313	C	0.677861	-0.552040	0.405514
C314	C	0.927861	-0.302040	0.655514
C315	C	1.177861	-0.052040	0.905514
C316	C	1.427861	0.197960	1.155514
C317	C	0.620550	-0.979076	0.310521
C318	C	0.870550	-0.729076	0.560521
C319	C	1.120550	-0.479076	0.810521
C320	C	1.370550	-0.229076	1.060521
C321	C	0.620563	-1.025994	0.310530
C322	C	0.870563	-0.775994	0.560530
C323	C	1.120563	-0.525994	0.810530
C324	C	1.370563	-0.275994	1.060530
C325	C	0.677987	-1.025907	0.405631
C326	C	0.927987	-0.775907	0.655631
C327	C	1.177987	-0.525907	0.905631
C328	C	1.427987	-0.275907	1.155631
C329	C	0.677976	-0.978988	0.405617
C330	C	0.927976	-0.728988	0.655617
C331	C	1.177976	-0.478988	0.905617
C332	C	1.427976	-0.228988	1.155617
C333	C	0.649254	-0.955574	0.358065
C334	C	0.899254	-0.705574	0.608065
C335	C	1.149254	-0.455574	0.858065
C336	C	1.399254	-0.205574	1.108065
C337	C	0.677837	-0.453514	0.405480
C338	C	0.927837	-0.203514	0.655480
C339	C	1.177837	0.046486	0.905480
C340	C	1.427837	0.296486	1.155480
C341	C	0.677825	-0.406595	0.405459
C342	C	0.927825	-0.156595	0.655459
C343	C	1.177825	0.093405	0.905459
C344	C	1.427825	0.343405	1.155459
C345	C	0.620399	-0.406686	0.310362
C346	C	0.870399	-0.156686	0.560362
C347	C	1.120399	0.093314	0.810362
C348	C	1.370399	0.343314	1.060362
C349	C	0.620413	-0.453601	0.310379
C350	C	0.870413	-0.203601	0.560379
C351	C	1.120413	0.046399	0.810379
C352	C	1.370413	0.296399	1.060379
C353	C	0.649133	-0.477014	0.357944
C354	C	0.899133	-0.227014	0.607944
C355	C	1.149133	0.022986	0.857944
C356	C	1.399133	0.272986	1.107944
O357	O	0.596040	-0.527862	0.269980
O358	O	0.846040	-0.277862	0.519980
O359	O	1.096040	-0.027862	0.769980
O360	O	1.346040	0.222138	1.019980
O361	O	0.702267	-0.527735	0.445953
O362	O	0.952267	-0.277735	0.695953
O363	O	1.202267	-0.027735	0.945953
O364	O	1.452267	0.222265	1.195953
C365	C	0.677907	-0.739704	0.405567
C366	C	0.927907	-0.489704	0.655567
C367	C	1.177907	-0.239704	0.905567
C368	C	1.427907	0.010296	1.155567
C369	C	0.649200	-0.763204	0.358028
C370	C	0.899200	-0.513204	0.608028
C371	C	1.149200	-0.263204	0.858028
C372	C	1.399200	-0.013204	1.108028
C373	C	0.620483	-0.739789	0.310475
C374	C	0.870483	-0.489789	0.560475
C375	C	1.120483	-0.239789	0.810475
C376	C	1.370483	0.010211	1.060475
C377	C	0.649213	-0.810122	0.358037
C378	C	0.899213	-0.560122	0.608037
C379	C	1.149213	-0.310122	0.858037
C380	C	1.399213	-0.060122	1.108037
C381	C	0.677931	-0.833537	0.405590
C382	C	0.927931	-0.583537	0.655590
C383	C	1.177931	-0.333537	0.905590
C384	C	1.427931	-0.083537	1.155590
C385	C	0.706635	-0.810035	0.453134
C386	C	0.956635	-0.560035	0.703134
C387	C	1.206635	-0.310035	0.953134
C388	C	1.456635	-0.060035	1.203134
C389	C	0.706624	-0.763119	0.453120
C390	C	0.956624	-0.513119	0.703120
C391	C	1.206624	-0.263119	0.953120
C392	C	1.456624	-0.013119	1.203120
C393	C	0.591779	-0.763292	0.262931
C394	C	0.841779	-0.513292	0.512931
C395	C	1.091779	-0.263292	0.762931
C396	C	1.341779	-0.013292	1.012931
C397	C	0.591792	-0.810207	0.262949
C398	C	0.841792	-0.560207	0.512949
C399	C	1.091792	-0.310207	0.762949
C400	C	1.341792	-0.060207	1.012949
C401	C	0.620510	-0.833622	0.310502
C402	C	0.870510	-0.583622	0.560502
C403	C	1.120510	-0.333622	0.810502
C404	C	1.370510	-0.083622	1.060502
C405	C	0.766343	-0.216546	0.358032
C406	C	1.016343	0.033454	0.608032
C407	C	1.266343	0.283454	0.858032
C408	C	1.516343	0.533454	1.108032
C409	C	0.816277	-0.216556	0.358059
C410	C	1.066277	0.033444	0.608059
C411	C	1.316277	0.283444	0.858059
C412	C	1.566277	0.533444	1.108059
C413	C	0.649182	-0.216502	0.551676
C414	C	0.899182	0.033498	0.801676
C415	C	1.149182	0.283498	1.051676
C416	C	1.399182	0.533498	1.301676
C417	C	0.649190	-0.216494	0.634222
C418	C	0.899190	0.033506	0.884222
C419	C	1.149190	0.283506	1.134222
C420	C	1.399190	0.533506	1.384222
C421	C	0.649245	-0.099344	0.358049
C422	C	0.899245	0.150656	0.608049
C423	C	1.149245	0.400656	0.858049
C424	C	1.399245	0.650656	1.108049
C425	C	0.649280	-0.049409	0.358083
C426	C	0.899280	0.200591	0.608083
C427	C	1.149280	0.450591	0.858083
C428	C	1.399280	0.700591	1.108083
C429	C	0.649173	-0.216510	0.165018
C430	C	0.899173	0.033490	0.415018
C431	C	1.149173	0.283490	0.665018
C432	C	1.399173	0.533490	0.915018
C433	C	0.649252	-0.216392	0.082473
C434	C	0.899252	0.033608	0.332473
C435	C	1.149252	0.283608	0.582473
C436	C	1.399252	0.533608	0.832473
C437	C	0.619183	-0.246455	0.833637
C438	C	0.869183	0.003545	1.083637
C439	C	1.119183	0.253545	1.333637
C440	C	1.369183	0.503545	1.583637
C441	C	0.660169	-0.257442	0.883039
C442	C	0.910169	-0.007442	1.133039
C443	C	1.160169	0.242558	1.383039
C444	C	1.410169	0.492558	1.633039
C445	C	0.649212	-0.216460	0.785352
C446	C	0.899212	0.033540	1.035352
C447	C	1.149212	0.283540	1.285352
C448	C	1.399212	0.533540	1.535352
C449	C	0.608248	-0.205460	0.883032
C450	C	0.858248	0.044540	1.133032
C451	C	1.108248	0.294540	1.383032
C452	C	1.358248	0.544540	1.633032
C453	C	0.649229	-0.216427	0.931338
C454	C	0.899229	0.033573	1.181338
C455	C	1.149229	0.283573	1.431338
C456	C	1.399229	0.533573	1.681338
C457	C	0.690219	-0.227468	0.833667
C458	C	0.940219	0.022532	1.083667
C459	C	1.190219	0.272532	1.333667
C460	C	1.440219	0.522532	1.583667
C461	C	0.638270	-0.175467	0.833656
C462	C	0.888270	0.074533	1.083656
C463	C	1.138270	0.324533	1.333656
C464	C	1.388270	0.574533	1.583656
C465	C	0.679285	-0.186438	0.883036
C466	C	0.929285	0.063562	1.133036
C467	C	1.179285	0.313562	1.383036
C468	C	1.429285	0.563562	1.633036
C469	C	0.649201	-0.216479	0.701254
C470	C	0.899201	0.033521	0.951254
C471	C	1.149201	0.283521	1.201254
C472	C	1.399201	0.533521	1.451254
C473	C	0.649245	-0.216408	1.015434
C474	C	0.899245	0.033592	1.265434
C475	C	1.149245	0.283592	1.515434
C476	C	1.399245	0.533592	1.765434
H477	H	0.393022	-0.164307	0.271913
H478	H	0.643022	0.085693	0.521913
H479	H	0.893022	0.335693	0.771913
H480	H	1.143022	0.585693	1.021913
H481	H	0.724879	-0.236797	0.812074
H482	H	0.974879	0.013203	1.062074
H483	H	1.224879	0.263203	1.312074
H484	H	1.474879	0.513203	1.562074
H485	H	0.478144	-0.164304	0.271899
H486	H	0.728144	0.085696	0.521899
H487	H	0.978144	0.335696	0.771899
H488	H	1.228144	0.585696	1.021899
H489	H	0.568393	-0.744231	0.224208
H490	H	0.818393	-0.494231	0.474208
H491	H	1.068393	-0.244231	0.724208
H492	H	1.318393	0.005769	0.974208
H493	H	0.597160	-0.960015	0.271797
H494	H	0.847160	-0.710015	0.521797
H495	H	1.097160	-0.460015	0.771797
H496	H	1.347160	-0.210015	1.021797
H497	H	0.121576	-0.297484	0.491416
H498	H	0.371576	-0.047484	0.741416
H499	H	0.621576	0.202516	0.991416
H500	H	0.871576	0.452516	1.241416
H501	H	0.628993	-0.140825	0.811948
H502	H	0.878993	0.109175	1.061948
H503	H	1.128993	0.359175	1.311948
H504	H	1.378993	0.609175	1.561948
H505	H	0.573599	-0.196171	0.904717
H506	H	0.823599	0.053829	1.154717
H507	H	1.073599	0.303829	1.404717
H508	H	1.323599	0.553829	1.654717
H509	H	0.701353	-0.959857	0.444330
H510	H	0.951353	-0.709857	0.694330
H511	H	1.201353	-0.459857	0.944330
H512	H	1.451353	-0.209857	1.194330
H513	H	0.568346	-0.603473	0.224180
H514	H	0.818346	-0.353473	0.474180
H515	H	1.068346	-0.103473	0.724180
H516	H	1.318346	0.146527	0.974180
H517	H	-0.179373	-0.164359	0.272047
H518	H	0.070627	0.085641	0.522047
H519	H	0.320627	0.335641	0.772047
H520	H	0.570627	0.585641	1.022047
H521	H	0.730002	-0.743989	0.491833
H522	H	0.980002	-0.493989	0.741833
H523	H	1.230002	-0.243989	0.991833
H524	H	1.480002	0.006011	1.241833
H525	H	0.121549	-0.135555	0.224584
H526	H	0.371549	0.114445	0.474584
H527	H	0.621549	0.364445	0.724584
H528	H	0.871549	0.614445	0.974584
H529	H	0.701221	-0.472571	0.444217
H530	H	0.951221	-0.222571	0.694217
H531	H	1.201221	0.027429	0.944217
H532	H	1.451221	0.277429	1.194217
H533	H	0.704715	-0.161058	0.904589
H534	H	0.954715	0.088942	1.154589
H535	H	1.204715	0.338942	1.404589
H536	H	1.454715	0.588942	1.654589
H537	H	0.701205	-0.387462	0.444173
H538	H	0.951205	-0.137462	0.694173
H539	H	1.201205	0.112538	0.944173
H540	H	1.451205	0.362538	1.194173
H541	H	0.729987	-0.688348	0.491819
H542	H	0.979987	-0.438348	0.741819
H543	H	1.229987	-0.188348	0.991819
H544	H	1.479987	0.061652	1.241819
H545	H	-0.094264	-0.164341	0.272036
H546	H	0.155736	0.085659	0.522036
H547	H	0.405736	0.335659	0.772036
H548	H	0.655736	0.585659	1.022036
H549	H	0.729968	-0.603242	0.491791
H550	H	0.979968	-0.353242	0.741791
H551	H	1.229968	-0.103242	0.991791
H552	H	1.479968	0.146758	1.241791
H553	H	0.478156	-0.268700	0.443901
H554	H	0.728156	-0.018700	0.693901
H555	H	0.978156	0.231300	0.943901
H556	H	1.228156	0.481300	1.193901
H557	H	0.036445	-0.135566	0.224597
H558	H	0.286445	0.114434	0.474597
H559	H	0.536445	0.364434	0.724597
H560	H	0.786445	0.614434	0.974597
H561	H	0.701370	-1.044980	0.444349
H562	H	0.951370	-0.794980	0.694349
H563	H	1.201370	-0.544980	0.944349
H564	H	1.451370	-0.294980	1.194349
H565	H	0.593813	-0.271854	0.811947
H566	H	0.843813	-0.021854	1.061947
H567	H	1.093813	0.228146	1.311947
H568	H	1.343813	0.478146	1.561947
H569	H	0.568369	-0.688582	0.224192
H570	H	0.818369	-0.438582	0.474192
H571	H	1.068369	-0.188582	0.724192
H572	H	1.318369	0.061418	0.974192
H573	H	0.036468	-0.297484	0.491439
H574	H	0.286468	-0.047484	0.741439
H575	H	0.536468	0.202516	0.991439
H576	H	0.786468	0.452516	1.241439
H577	H	-0.094232	-0.268746	0.444041
H578	H	0.155768	-0.018746	0.694041
H579	H	0.405768	0.231254	0.944041
H580	H	0.655768	0.481254	1.194041
H581	H	0.393048	-0.268702	0.443934
H582	H	0.643048	-0.018702	0.693934
H583	H	0.893048	0.231298	0.943934
H584	H	1.143048	0.481298	1.193934
H585	H	0.568415	-0.829337	0.224227
H586	H	0.818415	-0.579337	0.474227
H587	H	1.068415	-0.329337	0.724227
H588	H	1.318415	-0.079337	0.974227
H589	H	-0.179356	-0.268751	0.444056
H590	H	0.070644	-0.018751	0.694056
H591	H	0.320644	0.231249	0.944056
H592	H	0.570644	0.481249	1.194056
H593	H	0.597039	-0.472736	0.271661
H594	H	0.847039	-0.222736	0.521661
H595	H	1.097039	0.027264	0.771661
H596	H	1.347039	0.277264	1.021661
H597	H	0.597190	-1.045124	0.271809
H598	H	0.847190	-0.795124	0.521809
H599	H	1.097190	-0.545124	0.771809
H600	H	1.347190	-0.295124	1.021809
H601	H	0.262309	-0.135546	0.224558
H602	H	0.512309	0.114454	0.474558
H603	H	0.762309	0.364454	0.724558
H604	H	1.012309	0.614454	0.974558
H605	H	0.177191	-0.135550	0.224571
H606	H	0.427191	0.114450	0.474571
H607	H	0.677191	0.364450	0.724571
H608	H	0.927191	0.614450	0.974571
H609	H	0.262332	-0.297473	0.491368
H610	H	0.512332	-0.047473	0.741368
H611	H	0.762332	0.202527	0.991368
H612	H	1.012332	0.452527	1.241368
H613	H	0.730019	-0.829108	0.491851
H614	H	0.980019	-0.579108	0.741851
H615	H	1.230019	-0.329108	0.991851
H616	H	1.480019	-0.079108	1.241851
H617	H	0.177226	-0.297479	0.491387
H618	H	0.427226	-0.047479	0.741387
H619	H	0.677226	0.202521	0.991387
H620	H	0.927226	0.452521	1.241387
H621	H	0.597020	-0.387614	0.271642
H622	H	0.847020	-0.137614	0.521642
H623	H	1.097020	0.112386	0.771642
H624	H	1.347020	0.362386	1.021642
H625	H	0.669434	-0.292094	0.904730
H626	H	0.919434	-0.042094	1.154730
H627	H	1.169434	0.207906	1.404730
H628	H	1.419434	0.457906	1.654730
