data_functionalizedCrystal
_audit_creation_method	'MofGen! by Chris Wilmer'
_symmetry_space_group_name_H-M	'P1'
_symmetry_Int_Tables_number	1
_symmetry_cell_setting	triclinic
loop_
_symmetry_equiv_pos_as_xyz
  x,y,z
_cell_length_a	19.805407
_cell_length_b	19.805405
_cell_length_c	19.805398
_cell_angle_alpha	89.975049
_cell_angle_beta	89.984135
_cell_angle_gamma	90.026726
loop_
_atom_site_label
_atom_site_type_symbol
_atom_site_fract_x
_atom_site_fract_y
_atom_site_fract_z
Zn1	Zn	1.034709	-0.269490	-0.382724
Zn2	Zn	1.534709	0.230510	0.117276
Zn3	Zn	1.034631	-0.382675	-0.269538
Zn4	Zn	1.534631	0.117325	0.230462
Zn5	Zn	0.921531	-0.269505	-0.269549
Zn6	Zn	1.421531	0.230495	0.230451
Zn7	Zn	0.921487	-0.382642	-0.382685
Zn8	Zn	1.421487	0.117358	0.117315
O9	O	0.978090	-0.326078	-0.326124
O10	O	1.478090	0.173922	0.173876
O11	O	1.129416	-0.284511	-0.367722
O12	O	1.629416	0.215489	0.132278
O13	O	1.019614	-0.367683	-0.174823
O14	O	1.519614	0.132317	0.325177
O15	O	0.936596	-0.174787	-0.284583
O16	O	1.436596	0.325213	0.215417
O17	O	1.129358	-0.367668	-0.284564
O18	O	1.629358	0.132332	0.215436
O19	O	1.019748	-0.174775	-0.367732
O20	O	1.519748	0.325225	0.132268
O21	O	0.936520	-0.284538	-0.174831
O22	O	1.436520	0.215462	0.325169
O23	O	0.826809	-0.284506	-0.284544
O24	O	1.326809	0.215494	0.215456
O25	O	0.936520	-0.367612	-0.477406
O26	O	1.436520	0.132388	0.022594
O27	O	0.826776	-0.367627	-0.367665
O28	O	1.326776	0.132373	0.132335
O29	O	1.019704	-0.284480	-0.477436
O30	O	1.519704	0.215520	0.022564
O31	O	1.019571	-0.477387	-0.284526
O32	O	1.519571	0.022613	0.215474
O33	O	0.936444	-0.477363	-0.367654
O34	O	1.436444	0.022637	0.132346
C35	C	0.802234	-0.326065	-0.326102
C36	C	1.302234	0.173935	0.173898
C37	C	0.727002	-0.326076	-0.326109
C38	C	1.227002	0.173924	0.173891
C39	C	0.978013	-0.501934	-0.326099
C40	C	1.478013	-0.001934	0.173901
C41	C	0.978041	-0.577166	-0.326112
C42	C	1.478041	-0.077166	0.173888
C43	C	0.691658	-0.369422	-0.369319
C44	C	1.191658	0.130578	0.130681
C45	C	0.620970	-0.369424	-0.369329
C46	C	1.120970	0.130576	0.130671
C47	C	0.585626	-0.326081	-0.326124
C48	C	1.085626	0.173919	0.173876
C49	C	0.620974	-0.282730	-0.282911
C50	C	1.120974	0.217270	0.217089
C51	C	0.691662	-0.282726	-0.282906
C52	C	1.191662	0.217274	0.217094
C53	C	0.335901	-0.282745	-0.282934
C54	C	0.835901	0.217255	0.217066
C55	C	0.265209	-0.282754	-0.282941
C56	C	0.765209	0.217246	0.217059
C57	C	0.265209	-0.369443	-0.369357
C58	C	0.765209	0.130557	0.130643
C59	C	0.335896	-0.369439	-0.369351
C60	C	0.835896	0.130561	0.130649
C61	C	0.371239	-0.326085	-0.326142
C62	C	0.871239	0.173915	0.173858
C63	C	0.447887	-0.326083	-0.326133
C64	C	0.947887	0.173917	0.173867
C65	C	0.508979	-0.326086	-0.326129
C66	C	1.008979	0.173914	0.173871
C67	C	1.021313	-0.612446	-0.369441
C68	C	1.521313	-0.112446	0.130559
C69	C	1.021337	-0.683135	-0.369454
C70	C	1.521337	-0.183135	0.130546
C71	C	0.978093	-0.718542	-0.326133
C72	C	1.478093	-0.218542	0.173867
C73	C	0.934817	-0.683257	-0.282801
C74	C	1.434817	-0.183257	0.217199
C75	C	0.934790	-0.612570	-0.282792
C76	C	1.434790	-0.112570	0.217208
C77	C	0.934926	-0.968330	-0.282836
C78	C	1.434926	-0.468330	0.217164
C79	C	0.934958	-1.039022	-0.282846
C80	C	1.434958	-0.539022	0.217154
C81	C	1.021473	-1.038895	-0.369497
C82	C	1.521473	-0.538895	0.130503
C83	C	1.021446	-0.968208	-0.369489
C84	C	1.521446	-0.468208	0.130511
C85	C	0.978168	-0.932929	-0.326160
C86	C	1.478168	-0.432929	0.173840
C87	C	0.978141	-0.856281	-0.326147
C88	C	1.478141	-0.356281	0.173853
C89	C	0.978123	-0.795189	-0.326141
C90	C	1.478123	-0.295189	0.173859
C91	C	1.154632	-0.326092	-0.326146
C92	C	1.654632	0.173908	0.173854
C93	C	1.229864	-0.326097	-0.326156
C94	C	1.729864	0.173903	0.173844
C95	C	0.978116	-0.326041	-0.502667
C96	C	1.478116	0.173959	-0.002667
C97	C	0.978128	-0.326025	-0.577899
C98	C	1.478128	0.173975	-0.077899
C99	C	0.978186	-0.149535	-0.326163
C100	C	1.478186	0.350465	0.173837
C101	C	0.978226	-0.074303	-0.326180
C102	C	1.478226	0.425697	0.173820
C103	C	1.021523	-0.282618	-1.039706
C104	C	1.521523	0.217382	-0.539706
C105	C	1.021512	-0.282638	-0.969018
C106	C	1.521512	0.217362	-0.469018
C107	C	0.978197	-0.325931	-0.933661
C108	C	1.478197	0.174069	-0.433661
C109	C	0.934894	-0.369210	-0.968996
C110	C	1.434894	0.130790	-0.468996
C111	C	0.934909	-0.369192	-1.039683
C112	C	1.434909	0.130808	-0.539683
C113	C	0.934835	-0.369283	-0.683922
C114	C	1.434835	0.130717	-0.183922
C115	C	0.934823	-0.369296	-0.613230
C116	C	1.434823	0.130704	-0.113230
C117	C	1.021439	-0.282730	-0.613257
C118	C	1.521439	0.217270	-0.113257
C119	C	1.021454	-0.282712	-0.683944
C120	C	1.521454	0.217288	-0.183944
C121	C	0.978154	-0.325993	-0.719273
C122	C	1.478154	0.174007	-0.219273
C123	C	0.978166	-0.325971	-0.795922
C124	C	1.478166	0.174029	-0.295922
C125	C	0.978180	-0.325950	-0.857013
C126	C	1.478180	0.174050	-0.357013
C127	C	0.978102	-0.326067	-0.150268
C128	C	1.478102	0.173933	0.349732
C129	C	0.978222	-0.325892	-0.075036
C130	C	1.478222	0.174108	0.424964
H131	H	0.720430	-0.404719	-0.404500
H132	H	1.220430	0.095281	0.095500
O133	O	1.063536	-0.240584	-1.074154
O134	O	1.563536	0.259416	-0.574154
C135	C	1.054277	-0.249856	-1.144121
C136	C	1.554277	0.250144	-0.644121
H137	H	1.002032	-0.272017	-1.153769
H138	H	1.502032	0.227983	-0.653769
H139	H	1.094409	-0.285897	-1.164177
H140	H	1.594409	0.214103	-0.664177
C141	C	1.124692	-0.154144	-1.168574
C142	C	1.624692	0.345856	-0.668574
C143	C	1.060522	-0.181357	-1.180424
C144	C	1.560522	0.318643	-0.680424
H145	H	1.128547	-0.111892	-1.190968
H146	H	1.628547	0.388108	-0.690968
H147	H	1.130932	-0.147898	-1.121436
H148	H	1.630932	0.352102	-0.621436
H149	H	1.158128	-0.184185	-1.185288
H150	H	1.658128	0.315815	-0.685288
H151	H	1.027087	-0.151320	-1.163702
H152	H	1.527087	0.348680	-0.663702
H153	H	1.054276	-0.187596	-1.227560
H154	H	1.554276	0.312404	-0.727560
H155	H	0.899629	-0.404462	-0.940202
H156	H	1.399629	0.095538	-0.440202
H157	H	0.364670	-0.404735	-0.404531
H158	H	0.864670	0.095265	0.095469
H159	H	0.236425	-0.404741	-0.404543
H160	H	0.736425	0.095259	0.095457
H161	H	1.056661	-0.939382	-0.404762
H162	H	1.556661	-0.439382	0.095238
H163	H	0.899545	-0.404549	-0.584444
H164	H	1.399545	0.095451	-0.084444
O165	O	0.370122	-0.240612	-0.240898
O166	O	0.870122	0.259388	0.259102
C167	C	0.323766	-0.202348	-0.202779
C168	C	0.823766	0.297652	0.297221
H169	H	0.273369	-0.230077	-0.200387
H170	H	0.773369	0.269923	0.299613
H171	H	0.316272	-0.150979	-0.227663
H172	H	0.816272	0.349021	0.272337
C173	C	0.413230	-0.158425	-0.133697
C174	C	0.913230	0.341575	0.366303
C175	C	0.351333	-0.192486	-0.130754
C176	C	0.851333	0.307514	0.369246
H177	H	0.430236	-0.152339	-0.089269
H178	H	0.930236	0.347661	0.410731
H179	H	0.444462	-0.184202	-0.159380
H180	H	0.944462	0.315798	0.340620
H181	H	0.406976	-0.115622	-0.154436
H182	H	0.906976	0.384378	0.345564
H183	H	0.357590	-0.235291	-0.110023
H184	H	0.857590	0.264709	0.389977
H185	H	0.320104	-0.166716	-0.105066
H186	H	0.820104	0.333284	0.394934
H187	H	0.899577	-0.404524	-0.712678
H188	H	1.399577	0.095476	-0.212678
O189	O	1.063595	-0.240536	-0.934803
O190	O	1.563595	0.259464	-0.434803
C191	C	1.101837	-0.202331	-0.981168
C192	C	1.601837	0.297669	-0.481168
H193	H	1.074123	-0.199974	-1.031553
H194	H	1.574123	0.300026	-0.531553
H195	H	1.153232	-0.227115	-0.988687
H196	H	1.653232	0.272885	-0.488687
C197	C	1.145662	-0.133195	-0.891709
C198	C	1.645662	0.366805	-0.391709
C199	C	1.111620	-0.130296	-0.953592
C200	C	1.611620	0.369704	-0.453592
H201	H	1.151699	-0.088762	-0.874699
H202	H	1.651699	0.411238	-0.374699
H203	H	1.119899	-0.158937	-0.860472
H204	H	1.619899	0.341063	-0.360472
H205	H	1.188487	-0.153852	-0.897984
H206	H	1.688487	0.346148	-0.397984
H207	H	1.068792	-0.109647	-0.947315
H208	H	1.568792	0.390353	-0.447315
H209	H	1.137375	-0.104550	-0.984828
H210	H	1.637375	0.395450	-0.484828
O211	O	0.586559	-0.411565	-0.411205
O212	O	1.086559	0.088435	0.088795
C213	C	0.545651	-0.455237	-0.372589
C214	C	1.045651	0.044763	0.127411
H215	H	0.535056	-0.431291	-0.321341
H216	H	1.035056	0.068709	0.178659
H217	H	0.572867	-0.505386	-0.365057
H218	H	1.072867	-0.005386	0.134943
C219	C	0.491524	-0.496956	-0.472754
C220	C	0.991524	0.003044	0.027246
C221	C	0.478507	-0.467543	-0.409812
C222	C	0.978507	0.032457	0.090188
H223	H	0.450108	-0.504550	-0.495716
H224	H	0.950108	-0.004550	0.004284
H225	H	0.519087	-0.467536	-0.498771
H226	H	1.019087	0.032464	0.001229
H227	H	0.514206	-0.538743	-0.466469
H228	H	1.014206	-0.038743	0.033531
H229	H	0.455833	-0.425753	-0.416099
H230	H	0.955833	0.074247	0.083901
H231	H	0.450939	-0.496957	-0.383797
H232	H	0.950939	0.003043	0.116203
H233	H	1.056710	-1.067628	-0.404780
H234	H	1.556710	-0.567628	0.095220
O235	O	0.892745	-0.717545	-0.240697
O236	O	1.392745	-0.217545	0.259303
C237	C	0.854558	-0.671245	-0.202440
C238	C	1.354558	-0.171245	0.297560
H239	H	0.852176	-0.620844	-0.230156
H240	H	1.352176	-0.120844	0.269844
H241	H	0.879375	-0.663733	-0.151056
H242	H	1.379375	-0.163733	0.348944
C243	C	0.785464	-0.760804	-0.158578
C244	C	1.285464	-0.260804	0.341422
C245	C	0.782533	-0.698902	-0.192623
C246	C	1.282533	-0.198902	0.307377
H247	H	0.741037	-0.777864	-0.152519
H248	H	1.241037	-0.277864	0.347481
H249	H	0.811193	-0.791998	-0.184351
H250	H	1.311193	-0.291998	0.315649
H251	H	0.806148	-0.754536	-0.115763
H252	H	1.306148	-0.254536	0.384237
H253	H	0.761858	-0.705172	-0.235440
H254	H	1.261858	-0.205172	0.264560
H255	H	0.756799	-0.667710	-0.166857
H256	H	1.256799	-0.167710	0.333143
H257	H	1.056698	-0.247490	-0.584484
H258	H	1.556698	0.252510	-0.084484
H259	H	0.899649	-0.404431	-1.068448
H260	H	1.399649	0.095569	-0.568448
O261	O	1.063446	-0.717301	-0.411555
O262	O	1.563446	-0.217301	0.088445
C263	C	1.101604	-0.670892	-0.449793
C264	C	1.601604	-0.170892	0.050207
H265	H	1.103933	-0.620515	-0.422067
H266	H	1.603933	-0.120515	0.077933
H267	H	1.076798	-0.663372	-0.501183
H268	H	1.576798	-0.163372	-0.001183
C269	C	1.170792	-0.760280	-0.493646
C270	C	1.670792	-0.260280	0.006354
C271	C	1.173656	-0.698408	-0.459591
C272	C	1.673656	-0.198408	0.040409
H273	H	1.215236	-0.777253	-0.499694
H274	H	1.715236	-0.277253	0.000306
H275	H	1.145083	-0.791547	-0.467887
H276	H	1.645083	-0.291547	0.032113
H277	H	1.150117	-0.754005	-0.536468
H278	H	1.650117	-0.254005	-0.036468
H279	H	1.194324	-0.704685	-0.416767
H280	H	1.694324	-0.204685	0.083233
H281	H	1.199371	-0.667142	-0.485343
H282	H	1.699371	-0.167142	0.014657
O283	O	0.892881	-1.073313	-0.240743
O284	O	1.392881	-0.573313	0.259257
C285	C	0.854686	-1.027018	-0.202487
C286	C	1.354686	-0.527018	0.297513
H287	H	0.852303	-0.976616	-0.230201
H288	H	1.352303	-0.476616	0.269799
H289	H	0.879497	-1.019508	-0.151101
H290	H	1.379497	-0.519508	0.348899
C291	C	0.785594	-1.116585	-0.158638
C292	C	1.285594	-0.616585	0.341362
C293	C	0.782663	-1.054681	-0.192679
C294	C	1.282663	-0.554681	0.307321
H295	H	0.741167	-1.133649	-0.152585
H296	H	1.241167	-0.633649	0.347415
H297	H	0.811328	-1.147775	-0.184410
H298	H	1.311328	-0.647775	0.315590
H299	H	0.806273	-1.110318	-0.115820
H300	H	1.306273	-0.610318	0.384180
H301	H	0.761992	-1.060950	-0.235500
H302	H	1.261992	-0.560950	0.264500
H303	H	0.756924	-1.023492	-0.166914
H304	H	1.256924	-0.523492	0.333086
H305	H	1.056723	-0.247457	-0.712728
H306	H	1.556723	0.252543	-0.212728
O307	O	0.586716	-0.240660	-0.240849
O308	O	1.086716	0.259340	0.259151
C309	C	0.603946	-0.255369	-0.173360
C310	C	1.103946	0.244631	0.326640
H311	H	0.655260	-0.281381	-0.171906
H312	H	1.155260	0.218619	0.328094
H313	H	0.564141	-0.290141	-0.150504
H314	H	1.064141	0.209859	0.349496
C315	C	0.544197	-0.157380	-0.134266
C316	C	1.044197	0.342620	0.365734
C317	C	0.607223	-0.189324	-0.132479
C318	C	1.107223	0.310676	0.367521
H319	H	0.546215	-0.116641	-0.109047
H320	H	1.046215	0.383359	0.390953
H321	H	0.532586	-0.147471	-0.179734
H322	H	1.032586	0.352529	0.320266
H323	H	0.511032	-0.186364	-0.115221
H324	H	1.011032	0.313636	0.384779
H325	H	0.640384	-0.160344	-0.151532
H326	H	1.140384	0.339656	0.348468
H327	H	0.618840	-0.199226	-0.087013
H328	H	1.118840	0.300774	0.412987
H329	H	0.236434	-0.247455	-0.247758
H330	H	0.736434	0.252545	0.252242
H331	H	0.720437	-0.247425	-0.247723
H332	H	1.220437	0.252575	0.252277
H333	H	1.056530	-0.583622	-0.404715
H334	H	1.556530	-0.083622	0.095285
O335	O	0.892685	-0.578265	-0.240798
O336	O	1.392685	-0.078265	0.259202
C337	C	0.848940	-0.537382	-0.279290
C338	C	1.348940	-0.037382	0.220710
H339	H	0.844734	-0.558660	-0.332597
H340	H	1.344734	-0.058660	0.167403
H341	H	0.869846	-0.483790	-0.281637
H342	H	1.369846	0.016210	0.218363
C343	C	0.783763	-0.510238	-0.180688
C344	C	1.283763	-0.010238	0.319312
C345	C	0.778593	-0.536376	-0.246158
C346	C	1.278593	-0.036376	0.253842
H347	H	0.740370	-0.509614	-0.160249
H348	H	1.240370	-0.009614	0.339751
H349	H	0.813236	-0.537779	-0.154754
H350	H	1.313236	-0.037779	0.345246
H351	H	0.801187	-0.465580	-0.182652
H352	H	1.301187	0.034420	0.317348
H353	H	0.761178	-0.581035	-0.244192
H354	H	1.261178	-0.081035	0.255808
H355	H	0.749115	-0.508841	-0.272091
H356	H	1.249115	-0.008841	0.227909
H357	H	0.899688	-0.939612	-0.247554
H358	H	1.399688	-0.439612	0.252446
