data_functionalizedCrystal
_audit_creation_method	'MofGen! by Chris Wilmer'
_symmetry_space_group_name_H-M	'P1'
_symmetry_Int_Tables_number	1
_symmetry_cell_setting	triclinic
loop_
_symmetry_equiv_pos_as_xyz
  x,y,z
_cell_length_a	13.339070
_cell_length_b	10.654550
_cell_length_c	9.730223
_cell_angle_alpha	89.995747
_cell_angle_beta	90.003602
_cell_angle_gamma	79.942888
loop_
_atom_site_label
_atom_site_type_symbol
_atom_site_fract_x
_atom_site_fract_y
_atom_site_fract_z
O1	O	1.346709	-0.631121	0.114339
O2	O	1.051601	-0.548282	0.114331
O3	O	1.205940	-0.409253	0.114326
O4	O	1.192370	-0.770150	0.114343
O5	O	1.205930	-0.409245	-0.114254
O6	O	1.051591	-0.548274	-0.114249
O7	O	1.346699	-0.631112	-0.114241
Zn8	Zn	1.199143	-0.589692	-0.150537
Zn9	Zn	1.199156	-0.589703	0.150627
O10	O	1.192360	-0.770141	-0.114237
C11	C	1.013808	-0.534285	0.000039
C12	C	0.901214	-0.492575	0.000036
N13	N	1.199142	-0.589686	-0.356074
C14	C	1.204938	-0.362115	0.000037
C15	C	1.201957	-0.221665	0.000039
C16	C	0.538696	-0.816889	0.000073
C17	C	0.644484	-0.856082	0.000081
C18	C	0.708672	-0.765208	0.000069
C19	C	0.667061	-0.635136	0.000051
C20	C	0.561263	-0.595939	0.000054
C21	C	0.731238	-0.544259	0.000050
C22	C	0.689628	-0.414186	0.000032
C23	C	0.583840	-0.374996	0.000035
C24	C	0.519653	-0.465870	0.000046
C25	C	0.837036	-0.583455	0.000047
C26	C	0.859603	-0.362505	0.000028
C27	C	0.753816	-0.323313	0.000021
C28	C	1.384491	-0.645110	0.000053
C29	C	1.497086	-0.686819	0.000065
C30	C	1.193361	-0.817280	0.000055
C31	C	1.196342	-0.957730	0.000062
C32	C	1.292830	-0.172863	0.000042
C33	C	1.290023	-0.040894	0.000059
C34	C	1.105463	-0.006540	0.000063
C35	C	1.108271	-0.138506	0.000057
C36	C	1.267507	-0.528167	-0.428002
C37	C	1.267517	-0.528171	-0.571885
C38	C	1.130794	-0.651221	-0.571899
C39	C	1.130779	-0.651209	-0.428019
N40	N	1.199166	-0.589702	0.356163
H41	H	0.794808	-0.797127	0.000078
O42	O	1.010255	-0.191157	0.000038
H43	H	0.944637	-0.111164	0.000026
O44	O	1.341265	-0.461840	-0.649470
H45	H	1.388804	-0.419073	-0.575264
H46	H	1.323170	-0.478069	-0.369427
O47	O	0.538954	-0.234707	0.000011
H48	H	0.601356	-0.178099	-0.000015
H49	H	0.719921	-0.217405	0.000017
O50	O	1.057031	-0.717547	-0.350421
H51	H	1.100130	-0.793622	-0.284828
O52	O	0.689357	-0.996366	0.000099
H53	H	0.773703	-1.008354	0.000112
O54	O	0.881902	-0.723741	0.000048
H55	H	0.929562	-0.746898	0.093216
O56	O	1.057073	-0.717596	-0.649494
H57	H	1.068576	-0.707285	-0.761629
O58	O	0.469460	-0.914882	0.000085
H59	H	0.484350	-0.975374	0.093260
O60	O	0.405549	-0.423590	0.000032
H61	H	0.367912	-0.508635	0.000041
O62	O	0.928819	-0.264475	0.000003
H63	H	1.009373	-0.313582	-0.000015
H64	H	1.369115	-0.240568	0.000030
H65	H	1.364021	-0.001167	0.000064
H66	H	1.029186	0.061184	0.000075
