data_functionalizedCrystal
_audit_creation_method	'MofGen! by Chris Wilmer'
_symmetry_space_group_name_H-M	'P1'
_symmetry_Int_Tables_number	1
_symmetry_cell_setting	triclinic
loop_
_symmetry_equiv_pos_as_xyz
  x,y,z
_cell_length_a	13.596369
_cell_length_b	14.519709
_cell_length_c	14.519731
_cell_angle_alpha	96.315501
_cell_angle_beta	90.006971
_cell_angle_gamma	90.000291
loop_
_atom_site_label
_atom_site_type_symbol
_atom_site_fract_x
_atom_site_fract_y
_atom_site_fract_z
O1	O	0.081666	-1.223878	0.120892
O2	O	0.331666	-0.973878	0.370892
O3	O	0.581666	-0.723878	0.620892
O4	O	0.831666	-0.473878	0.870892
O5	O	0.081696	-0.955402	0.135128
O6	O	0.331696	-0.705402	0.385128
O7	O	0.581696	-0.455402	0.635128
O8	O	0.831696	-0.205402	0.885128
O9	O	0.081671	-1.096748	-0.006227
O10	O	0.331671	-0.846748	0.243773
O11	O	0.581671	-0.596748	0.493773
O12	O	0.831671	-0.346748	0.743773
O13	O	0.081690	-1.082532	0.262247
O14	O	0.331690	-0.832532	0.512247
O15	O	0.581690	-0.582532	0.762247
O16	O	0.831690	-0.332532	1.012247
O17	O	-0.081912	-1.096734	-0.006235
O18	O	0.168088	-0.846734	0.243765
O19	O	0.418088	-0.596734	0.493765
O20	O	0.668088	-0.346734	0.743765
O21	O	-0.081887	-0.955388	0.135120
O22	O	0.168113	-0.705388	0.385120
O23	O	0.418113	-0.455388	0.635120
O24	O	0.668113	-0.205388	0.885120
O25	O	-0.081917	-1.223864	0.120884
O26	O	0.168083	-0.973864	0.370884
O27	O	0.418083	-0.723864	0.620884
O28	O	0.668083	-0.473864	0.870884
Zn29	Zn	-0.107874	-1.089623	0.128001
Zn30	Zn	0.142126	-0.839623	0.378001
Zn31	Zn	0.392126	-0.589623	0.628001
Zn32	Zn	0.642126	-0.339623	0.878001
Zn33	Zn	0.107653	-1.089642	0.128011
Zn34	Zn	0.357653	-0.839642	0.378011
Zn35	Zn	0.607653	-0.589642	0.628011
Zn36	Zn	0.857653	-0.339642	0.878011
O37	O	-0.081892	-1.082518	0.262239
O38	O	0.168108	-0.832518	0.512239
O39	O	0.418108	-0.582518	0.762239
O40	O	0.668108	-0.332518	1.012239
C41	C	-0.000092	-0.921035	0.134461
C42	C	0.249908	-0.671035	0.384461
C43	C	0.499908	-0.421035	0.634461
C44	C	0.749908	-0.171035	0.884461
C45	C	-0.000080	-0.818654	0.132473
C46	C	0.249920	-0.568654	0.382473
C47	C	0.499920	-0.318654	0.632473
C48	C	0.749920	-0.068654	0.882473
N49	N	-0.254966	-1.089617	0.127994
N50	N	-0.004966	-0.839617	0.377994
N51	N	0.245034	-0.589617	0.627994
N52	N	0.495034	-0.339617	0.877994
C53	C	-0.000121	-1.096075	-0.040591
C54	C	0.249879	-0.846075	0.209409
C55	C	0.499879	-0.596075	0.459409
C56	C	0.749879	-0.346075	0.709409
C57	C	-0.000121	-1.094079	-0.142971
C58	C	0.249879	-0.844079	0.107029
C59	C	0.499879	-0.594079	0.357029
C60	C	0.749879	-0.344079	0.607029
C61	C	-0.656257	-1.089641	0.128012
C62	C	-0.406257	-0.839641	0.378012
C63	C	-0.156257	-0.589641	0.628012
C64	C	0.093743	-0.339641	0.878012
C65	C	-0.544606	-1.089632	0.128010
C66	C	-0.294606	-0.839632	0.378010
C67	C	-0.044606	-0.589632	0.628010
C68	C	0.205394	-0.339632	0.878010
C69	C	-0.455615	-1.089630	0.128004
C70	C	-0.205615	-0.839630	0.378004
C71	C	0.044385	-0.589630	0.628004
C72	C	0.294385	-0.339630	0.878004
C73	C	-0.343957	-1.089619	0.128000
C74	C	-0.093957	-0.839619	0.378000
C75	C	0.156043	-0.589619	0.628000
C76	C	0.406043	-0.339619	0.878000
N77	N	0.254745	-1.089655	0.128011
N78	N	0.504745	-0.839655	0.378011
N79	N	0.754745	-0.589655	0.628011
N80	N	1.004745	-0.339655	0.878011
C81	C	-0.000128	-1.258230	0.121551
C82	C	0.249872	-1.008230	0.371551
C83	C	0.499872	-0.758230	0.621551
C84	C	0.749872	-0.508230	0.871551
C85	C	-0.000132	-1.360612	0.123539
C86	C	0.249868	-1.110612	0.373539
C87	C	0.499868	-0.860612	0.623539
C88	C	0.749868	-0.610612	0.873539
C89	C	-0.000126	-0.443757	0.125153
C90	C	0.249874	-0.193757	0.375153
C91	C	0.499874	0.056243	0.625153
C92	C	0.749874	0.306243	0.875153
C93	C	-0.000113	-0.548065	0.127186
C94	C	0.249887	-0.298065	0.377186
C95	C	0.499887	-0.048065	0.627186
C96	C	0.749887	0.201935	0.877186
C97	C	-0.000102	-0.631202	0.128813
C98	C	0.249898	-0.381202	0.378813
C99	C	0.499898	-0.131202	0.628813
C100	C	0.749898	0.118798	0.878813
C101	C	-0.000091	-0.735517	0.130846
C102	C	0.249909	-0.485517	0.380846
C103	C	0.499909	-0.235517	0.630846
C104	C	0.749909	0.014483	0.880846
C105	C	-0.000119	-1.092457	-0.226115
C106	C	0.249881	-0.842457	0.023885
C107	C	0.499881	-0.592457	0.273885
C108	C	0.749881	-0.342457	0.523885
C109	C	-0.000111	-1.090430	-0.330424
C110	C	0.249889	-0.840430	-0.080424
C111	C	0.499889	-0.590430	0.169576
C112	C	0.749889	-0.340430	0.419576
C113	C	-0.000104	-1.088822	-0.413563
C114	C	0.249896	-0.838822	-0.163563
C115	C	0.499896	-0.588822	0.086437
C116	C	0.749896	-0.338822	0.336437
C117	C	-0.000098	-1.086795	-0.517878
C118	C	0.249902	-0.836795	-0.267878
C119	C	0.499902	-0.586795	-0.017878
C120	C	0.749902	-0.336795	0.232122
C121	C	-0.000099	-1.083191	0.296603
C122	C	0.249901	-0.833191	0.546603
C123	C	0.499901	-0.583191	0.796603
C124	C	0.749901	-0.333191	1.046603
C125	C	-0.000092	-1.085187	0.398983
C126	C	0.249908	-0.835187	0.648983
C127	C	0.499908	-0.585187	0.898983
C128	C	0.749908	-0.335187	1.148983
