data_functionalizedCrystal
_audit_creation_method	'MofGen! by Chris Wilmer'
_symmetry_space_group_name_H-M	'P1'
_symmetry_Int_Tables_number	1
_symmetry_cell_setting	triclinic
loop_
_symmetry_equiv_pos_as_xyz
  x,y,z
_cell_length_a	22.010155
_cell_length_b	14.853567
_cell_length_c	14.853567
_cell_angle_alpha	96.365070
_cell_angle_beta	89.985277
_cell_angle_gamma	90.001114
loop_
_atom_site_label
_atom_site_type_symbol
_atom_site_fract_x
_atom_site_fract_y
_atom_site_fract_z
O1	O	0.050478	-1.196364	0.117684
O2	O	0.550478	-0.696364	0.617684
O3	O	0.050488	-0.933904	0.131705
O4	O	0.550488	-0.433904	0.631705
O5	O	0.050484	-1.072144	-0.006535
O6	O	0.550484	-0.572144	0.493465
O7	O	0.050481	-1.058123	0.255924
O8	O	0.550481	-0.558123	0.755924
O9	O	-0.050566	-1.072135	-0.006499
O10	O	0.449434	-0.572135	0.493501
O11	O	-0.050563	-0.933894	0.131742
O12	O	0.449437	-0.433894	0.631742
O13	O	-0.050572	-1.196354	0.117720
O14	O	0.449428	-0.696354	0.617720
Cu15	Cu	-0.059794	-1.065123	0.124734
Cu16	Cu	0.440206	-0.565123	0.624734
Cu17	Cu	0.059710	-1.065135	0.124691
Cu18	Cu	0.559710	-0.565135	0.624691
O19	O	-0.050569	-1.058114	0.255961
O20	O	0.449431	-0.558114	0.755961
C21	C	-0.000036	-0.900311	0.131088
C22	C	0.499964	-0.400311	0.631088
C23	C	-0.000032	-0.800227	0.129184
C24	C	0.499968	-0.300227	0.629184
C25	C	-0.000039	-1.071504	-0.040106
C26	C	0.499961	-0.571504	0.459894
C27	C	-0.000034	-1.069601	-0.140189
C28	C	0.499966	-0.569601	0.359811
N29	N	-0.143847	-1.065122	0.124764
N30	N	0.356153	-0.565122	0.624764
C31	C	-0.436457	-1.003888	0.185905
C32	C	0.063543	-0.503888	0.685905
C33	C	-0.372850	-1.003886	0.185913
C34	C	0.127150	-0.503886	0.685913
O35	O	-0.339957	-0.951796	0.237934
O36	O	0.160043	-0.451796	0.737934
N37	N	-0.341031	-1.065115	0.124730
N38	N	0.158969	-0.565115	0.624730
C39	C	-0.372823	-1.126344	0.063528
C40	C	0.127177	-0.626344	0.563528
O41	O	-0.339918	-1.178424	0.011487
O42	O	0.160082	-0.678424	0.511487
C43	C	-0.436429	-1.126341	0.063516
C44	C	0.063571	-0.626341	0.563516
C45	C	-0.468245	-1.065114	0.124710
C46	C	0.031755	-0.565114	0.624710
C47	C	-0.468273	-0.942665	0.247093
C48	C	0.031727	-0.442665	0.747093
C49	C	-0.531876	-0.942669	0.247086
C50	C	-0.031876	-0.442669	0.747086
C51	C	-0.563664	-1.003895	0.185891
C52	C	-0.063664	-0.503895	0.685891
C53	C	-0.531848	-1.065118	0.124703
C54	C	-0.031848	-0.565118	0.624703
C55	C	-0.468220	-1.187566	0.002311
C56	C	0.031780	-0.687566	0.502311
C57	C	-0.531831	-1.187557	0.002304
C58	C	-0.031831	-0.687557	0.502304
C59	C	-0.563647	-1.126330	0.063498
C60	C	-0.063647	-0.626330	0.563498
C61	C	-0.627239	-1.126348	0.063500
C62	C	-0.127239	-0.626348	0.563500
N63	N	-0.659058	-1.065119	0.124684
N64	N	-0.159058	-0.565119	0.624684
C65	C	-0.627270	-1.003892	0.185879
C66	C	-0.127270	-0.503892	0.685879
C67	C	-0.239245	-1.126344	0.063556
C68	C	0.260755	-0.626344	0.563556
C69	C	-0.175640	-1.126352	0.063572
C70	C	0.324360	-0.626352	0.563572
C71	C	-0.175671	-1.003892	0.185956
C72	C	0.324329	-0.503892	0.685956
C73	C	-0.239277	-1.003889	0.185944
C74	C	0.260723	-0.503889	0.685944
C75	C	-0.271064	-1.065115	0.124740
C76	C	0.228936	-0.565115	0.624740
C77	C	-0.760841	-1.003905	0.185860
C78	C	-0.260841	-0.503905	0.685860
C79	C	-0.824450	-1.003917	0.185849
C80	C	-0.324450	-0.503917	0.685849
C81	C	-0.824414	-1.126373	0.063463
C82	C	-0.324414	-0.626373	0.563463
C83	C	-0.760810	-1.126365	0.063475
C84	C	-0.260810	-0.626365	0.563475
C85	C	-0.729026	-1.065124	0.124677
C86	C	-0.229026	-0.565124	0.624677
O87	O	-0.660172	-1.178409	0.011503
O88	O	-0.160172	-0.678409	0.511503
O89	O	-0.660183	-0.951814	0.237903
O90	O	-0.160183	-0.451814	0.737903
N91	N	0.143762	-1.065143	0.124654
N92	N	0.643762	-0.565143	0.624654
C93	C	-0.000047	-1.229947	0.118337
C94	C	0.499953	-0.729947	0.618337
C95	C	-0.000047	-1.330031	0.120241
C96	C	0.499953	-0.830031	0.620241
C97	C	-0.000045	-0.387693	0.039019
C98	C	0.499955	0.112307	0.539019
C99	C	-0.000046	-0.366412	0.203251
C100	C	0.499954	0.133588	0.703251
C101	C	-0.000044	-0.460446	0.205042
C102	C	0.499956	0.039554	0.705042
C103	C	-0.000041	-0.518108	0.123819
C104	C	0.499959	-0.018108	0.623819
C105	C	-0.000041	-0.481736	0.040806
C106	C	0.499959	0.018264	0.540806
C107	C	-0.000039	-0.496825	0.288053
C108	C	0.499961	0.003175	0.788053
C109	C	-0.000036	-0.590864	0.289846
C110	C	0.499964	-0.090864	0.789846
C111	C	-0.000038	-0.648528	0.208623
C112	C	0.499962	-0.148528	0.708623
C113	C	-0.000038	-0.612150	0.125607
C114	C	0.499962	-0.112150	0.625607
C115	C	-0.000035	-0.669812	0.044384
C116	C	0.499965	-0.169812	0.544384
C117	C	-0.000040	-0.633437	-0.038633
C118	C	0.499960	-0.133437	0.461367
C119	C	-0.000043	-0.539399	-0.040417
C120	C	0.499957	-0.039399	0.459583
C121	C	-0.000035	-0.742565	0.210407
C122	C	0.499965	-0.242565	0.710407
C123	C	-0.000031	-0.763855	0.046172
C124	C	0.499969	-0.263855	0.546172
C125	C	-0.000042	-0.979435	-0.552723
C126	C	0.499958	-0.479435	-0.052723
C127	C	-0.000048	-1.143668	-0.574004
C128	C	0.499952	-0.643668	-0.074004
C129	C	-0.000044	-1.145458	-0.479970
C130	C	0.499956	-0.645458	0.020030
C131	C	-0.000040	-1.064235	-0.422309
C132	C	0.499960	-0.564235	0.077691
C133	C	-0.000040	-0.981223	-0.458680
C134	C	0.499960	-0.481223	0.041320
C135	C	-0.000051	-1.228469	-0.443591
C136	C	0.499949	-0.728469	0.056409
C137	C	-0.000048	-1.230262	-0.349552
C138	C	0.499952	-0.730262	0.150448
C139	C	-0.000040	-1.149039	-0.291889
C140	C	0.499960	-0.649039	0.208111
C141	C	-0.000039	-1.066023	-0.328266
C142	C	0.499961	-0.566023	0.171734
C143	C	-0.000035	-0.984800	-0.270604
C144	C	0.499965	-0.484800	0.229396
C145	C	-0.000030	-0.901783	-0.306979
C146	C	0.499970	-0.401783	0.193021
C147	C	-0.000032	-0.899999	-0.401017
C148	C	0.499968	-0.399999	0.098983
C149	C	-0.000037	-1.150823	-0.197851
C150	C	0.499963	-0.650823	0.302149
C151	C	-0.000033	-0.986588	-0.176561
C152	C	0.499967	-0.486588	0.323439
C153	C	-0.000044	-1.058754	0.289531
C154	C	0.499956	-0.558754	0.789531
C155	C	-0.000046	-1.060657	0.389615
C156	C	0.499954	-0.560657	0.889615
H157	H	-0.850352	-0.954058	0.235684
H158	H	-0.350352	-0.454058	0.735684
O159	O	-0.141332	-1.192388	-0.002436
O160	O	0.358668	-0.692388	0.497564
H161	H	-0.091760	-1.182109	0.007842
H162	H	0.408240	-0.682109	0.507842
H163	H	-0.265123	-1.176209	0.013719
H164	H	0.234877	-0.676209	0.513719
O165	O	-0.858703	-1.192410	-0.002540
O166	O	-0.358703	-0.692410	0.497460
H167	H	-0.887667	-1.154402	-0.046430
H168	H	-0.387667	-0.654402	0.453570
H169	H	-0.000035	-0.911844	-0.582344
H170	H	0.499965	-0.411844	-0.082344
H171	H	-0.000043	-0.319459	0.269379
H172	H	0.499957	0.180541	0.769379
O173	O	-0.000031	-0.814183	-0.244778
O174	O	0.499969	-0.314183	0.255222
H175	H	-0.000033	-0.756155	-0.285864
H176	H	0.499967	-0.256155	0.214136
O177	O	-0.000028	-0.781800	0.299935
O178	O	0.499972	-0.281800	0.799935
H179	H	-0.041212	-0.824140	0.304693
H180	H	0.458788	-0.324140	0.804693
O181	O	-0.000042	-0.500163	-0.129949
O182	O	0.499958	-0.000163	0.370051
H183	H	-0.041231	-0.523307	-0.168965
H184	H	0.458769	-0.023307	0.331035
O185	O	-0.433914	-1.253595	-0.063700
O186	O	0.066086	-0.753595	0.436300
H187	H	-0.466714	-1.296151	-0.106258
H188	H	0.033286	-0.796151	0.393742
H189	H	-0.734906	-1.176230	0.013655
H190	H	-0.234906	-0.676230	0.513655
H191	H	-0.557709	-1.237414	-0.047539
H192	H	-0.057709	-0.737414	0.452461
O193	O	-0.000064	-1.316070	-0.505778
O194	O	0.499936	-0.816070	-0.005778
H195	H	-0.000059	-1.300878	-0.577279
H196	H	0.499941	-0.800878	-0.077279
H197	H	-0.000027	-0.920445	-0.129618
H198	H	0.499973	-0.420445	0.370382
H199	H	-0.000052	-1.297860	-0.319944
H200	H	0.499948	-0.797860	0.180056
H201	H	-0.000032	-0.810798	-0.019971
H202	H	0.499968	-0.310798	0.480029
H203	H	-0.000046	-1.218414	-0.168238
H204	H	0.499954	-0.718414	0.331762
O205	O	-0.141373	-0.937847	0.251949
O206	O	0.358627	-0.437847	0.751949
H207	H	-0.153586	-0.949413	0.322256
H208	H	0.346414	-0.449413	0.822256
O209	O	-0.000041	-0.695631	-0.126238
O210	O	0.499959	-0.195631	0.373762
H211	H	-0.000041	-0.767130	-0.111041
H212	H	0.499959	-0.267130	0.388959
H213	H	-0.000028	-0.832411	-0.430643
H214	H	0.499972	-0.332411	0.069357
O215	O	-0.000050	-0.348470	-0.050520
O216	O	0.499950	0.151530	0.449480
H217	H	-0.000052	-0.273392	-0.038124
H218	H	0.499948	0.226608	0.461876
H219	H	-0.000034	-0.449870	0.354180
H220	H	0.499966	0.050130	0.854180
O221	O	-0.000046	-0.630098	0.379379
O222	O	0.499954	-0.130098	0.879379
H223	H	-0.000055	-0.574202	0.435557
H224	H	0.499945	-0.074202	0.935557
O225	O	-0.000058	-1.231270	-0.636189
O226	O	0.499942	-0.731270	-0.136189
H227	H	-0.000059	-1.216081	-0.707690
H228	H	0.499941	-0.716081	-0.207690
H229	H	-0.734969	-0.954036	0.235695
H230	H	-0.234969	-0.454036	0.735695
H231	H	-0.557776	-0.892810	0.296912
H232	H	-0.057776	-0.392810	0.796912
H233	H	-0.442397	-0.892803	0.296925
H234	H	0.057603	-0.392803	0.796925
H235	H	-0.265178	-0.954033	0.235773
H236	H	0.234822	-0.454033	0.735773
