data_functionalizedCrystal
_audit_creation_method	'MofGen! by Chris Wilmer'
_symmetry_space_group_name_H-M	'P1'
_symmetry_Int_Tables_number	1
_symmetry_cell_setting	triclinic
loop_
_symmetry_equiv_pos_as_xyz
  x,y,z
_cell_length_a	15.944493
_cell_length_b	15.944493
_cell_length_c	15.021413
_cell_angle_alpha	90.009890
_cell_angle_beta	89.993251
_cell_angle_gamma	83.475044
loop_
_atom_site_label
_atom_site_type_symbol
_atom_site_fract_x
_atom_site_fract_y
_atom_site_fract_z
O1	O	1.114537	0.108092	-0.074008
O2	O	0.869978	0.121499	-0.074011
O3	O	0.998961	-0.007484	-0.074017
O4	O	0.985553	0.237075	-0.074003
O5	O	0.998940	-0.007466	0.074047
O6	O	0.869957	0.121518	0.074053
O7	O	1.114516	0.108110	0.074056
Zn8	Zn	0.992233	0.114817	0.097563
Zn9	Zn	0.992260	0.114793	-0.097518
O10	O	0.985533	0.237094	0.074062
C11	C	0.838673	0.120961	0.000020
C12	C	0.745424	0.119318	0.000018
C13	C	0.509649	0.195240	0.000022
C14	C	0.459089	0.154307	0.073027
C15	C	0.574704	0.116273	0.000020
C16	C	0.459114	0.154270	-0.072953
C17	C	0.409795	0.113339	0.000018
C18	C	0.525372	0.075362	0.073085
C19	C	0.525400	0.075337	-0.072960
C20	C	0.474873	0.034346	0.000062
C21	C	0.669704	0.117966	0.000022
C22	C	0.314798	0.111640	0.000022
C23	C	0.998403	-0.038769	0.000011
C24	C	0.996760	-0.132018	-0.000000
C25	C	1.072682	-0.367793	0.000017
C26	C	1.031750	-0.418362	-0.072986
C27	C	0.993716	-0.302738	0.000011
C28	C	1.031712	-0.418320	0.072994
C29	C	0.990781	-0.467647	0.000025
C30	C	0.952805	-0.352078	-0.073053
C31	C	0.952778	-0.352033	0.072992
C32	C	0.911788	-0.402569	-0.000029
C33	C	0.995408	-0.207739	0.000002
C34	C	0.989082	-0.562644	0.000028
C35	C	1.145821	0.108649	0.000022
C36	C	1.239069	0.110292	0.000018
C37	C	0.986091	0.268379	0.000031
C38	C	0.987734	0.361627	0.000037
N39	N	0.992221	0.114833	0.230700
N40	N	0.992279	0.114770	-0.230656
C41	C	0.932570	0.174447	0.470386
C42	C	1.008469	0.190739	0.529723
C43	C	0.992243	0.114812	0.412307
C44	C	0.916364	0.098539	0.529712
C45	C	0.992256	0.114794	0.587731
C46	C	1.068180	0.131141	0.470337
C47	C	0.976025	0.038909	0.470321
C48	C	1.051979	0.055168	0.529631
C49	C	0.992233	0.114825	0.311250
C50	C	0.992274	0.114780	0.688786
H51	H	0.525258	0.263261	0.000095
C52	C	0.907755	-0.312878	0.156371
C53	C	0.814388	-0.323917	0.173309
C54	C	0.769373	-0.284760	0.256695
C55	C	0.817725	-0.234563	0.323144
C56	C	0.911097	-0.223521	0.306208
C57	C	0.956112	-0.262679	0.222821
H58	H	0.778590	-0.361078	0.124118
H59	H	0.700252	-0.292934	0.269232
H60	H	0.784402	-0.205576	0.384872
H61	H	0.946895	-0.186361	0.355399
H62	H	1.025232	-0.254505	0.210284
C63	C	1.076808	-0.457489	-0.156365
C64	C	1.170600	-0.447744	-0.172406
C65	C	1.215663	-0.486867	-0.255782
C66	C	1.166933	-0.535735	-0.323118
C67	C	1.073135	-0.545482	-0.307079
C68	C	1.028072	-0.506359	-0.223703
H69	H	1.206678	-0.411568	-0.122558
H70	H	1.285099	-0.479652	-0.267654
H71	H	1.200291	-0.564696	-0.384838
H72	H	1.037058	-0.581659	-0.356927
H73	H	0.958637	-0.513575	-0.211830
C74	C	1.120229	-0.012974	0.564563
C75	C	1.191738	0.012164	0.624357
C76	C	1.259991	-0.055974	0.659290
C77	C	1.256734	-0.149250	0.634430
C78	C	1.185222	-0.174393	0.574632
C79	C	1.116970	-0.106255	0.539699
H80	H	1.194152	0.081216	0.642763
H81	H	1.312929	-0.037362	0.703557
H82	H	1.307259	-0.199690	0.660290
H83	H	1.182809	-0.243445	0.556226
H84	H	1.064032	-0.124867	0.495433
C85	C	1.164568	-0.346690	-0.000076
C86	C	1.183015	-0.253963	0.000694
C87	C	1.274898	-0.232857	0.000597
C88	C	1.348334	-0.304479	-0.000271
C89	C	1.329890	-0.397212	-0.001041
C90	C	1.238007	-0.418318	-0.000943
H91	H	1.128651	-0.200939	0.001337
H92	H	1.288551	-0.164209	0.001167
H93	H	1.416352	-0.288855	-0.000343
H94	H	1.384254	-0.450236	-0.001683
H95	H	1.224354	-0.486965	-0.001513
H96	H	0.554198	0.042041	0.134866
C97	C	0.907799	-0.313157	-0.156529
C98	C	0.956356	-0.263748	-0.223520
C99	C	0.911354	-0.224826	-0.306996
C100	C	0.817795	-0.235313	-0.323481
C101	C	0.769232	-0.284724	-0.256489
C102	C	0.814234	-0.323646	-0.173013
H103	H	1.025619	-0.255983	-0.211318
H104	H	0.947304	-0.188248	-0.356588
H105	H	0.784482	-0.206500	-0.385275
H106	H	0.699969	-0.292489	-0.268691
H107	H	0.778284	-0.360224	-0.123421
C108	C	0.829671	0.079947	0.564945
C109	C	0.749835	0.139520	0.541564
C110	C	0.663140	0.120936	0.576793
C111	C	0.656280	0.042779	0.635404
C112	C	0.736118	-0.016800	0.658787
C113	C	0.822814	0.001784	0.623558
H114	H	0.754911	0.197382	0.498175
H115	H	0.604039	0.165041	0.559483
H116	H	0.592103	0.029022	0.661482
H117	H	0.731043	-0.074662	0.702177
H118	H	0.881915	-0.042321	0.640869
C119	C	0.564550	0.030330	-0.156351
C120	C	0.660673	0.023022	-0.171171
C121	C	0.699827	-0.021968	-0.254572
C122	C	0.642859	-0.059650	-0.323154
C123	C	0.546731	-0.052344	-0.308337
C124	C	0.507577	-0.007353	-0.224935
H125	H	0.702849	0.050918	-0.120401
H126	H	0.770988	-0.027377	-0.265541
H127	H	0.671844	-0.092955	-0.384893
H128	H	0.504555	-0.080239	-0.359107
H129	H	0.436416	-0.001944	-0.213966
H130	H	0.843715	-0.418021	-0.000070
H131	H	0.962272	-0.025252	0.444210
C132	C	1.154897	0.149833	0.435263
C133	C	1.207499	0.084892	0.375957
C134	C	1.294212	0.103587	0.340882
C135	C	1.328324	0.187224	0.365113
C136	C	1.275721	0.252172	0.424422
C137	C	1.189007	0.233476	0.459497
H138	H	1.182248	0.022973	0.358017
H139	H	1.333152	0.055508	0.296977
H140	H	1.392514	0.201064	0.339148
H141	H	1.300972	0.314090	0.442362
H142	H	1.150068	0.281555	0.503402
C143	C	0.420028	0.199325	-0.156327
C144	C	0.429790	0.293114	-0.172339
C145	C	0.390707	0.338176	-0.255708
C146	C	0.341861	0.289448	-0.323066
C147	C	0.332097	0.195653	-0.307056
C148	C	0.371180	0.150592	-0.223687
H149	H	0.465951	0.329191	-0.122475
H150	H	0.397936	0.407609	-0.267559
H151	H	0.312930	0.322805	-0.384781
H152	H	0.295936	0.159577	-0.356920
H153	H	0.363951	0.081159	-0.211835
H154	H	1.065068	-0.447250	0.134709
C155	C	0.864468	0.242625	0.435232
C156	C	0.868638	0.336078	0.458708
C157	C	0.800541	0.404258	0.423552
C158	C	0.728275	0.378984	0.364920
C159	C	0.724103	0.285527	0.341441
C160	C	0.792200	0.217347	0.376597
H161	H	0.922136	0.354791	0.502113
H162	H	0.803630	0.473441	0.440933
H163	H	0.677866	0.429455	0.338895
H164	H	0.670605	0.266814	0.298035
H165	H	0.789111	0.148164	0.359216
H166	H	1.022199	0.254920	0.555814
H167	H	0.459422	-0.033727	0.000100
H168	H	0.430136	0.187664	0.134750
