data_functionalizedCrystal
_audit_creation_method	'MofGen! by Chris Wilmer'
_symmetry_space_group_name_H-M	'P1'
_symmetry_Int_Tables_number	1
_symmetry_cell_setting	triclinic
loop_
_symmetry_equiv_pos_as_xyz
  x,y,z
_cell_length_a	15.072220
_cell_length_b	10.654550
_cell_length_c	10.654550
_cell_angle_alpha	84.484931
_cell_angle_beta	89.999101
_cell_angle_gamma	89.990712
loop_
_atom_site_label
_atom_site_type_symbol
_atom_site_fract_x
_atom_site_fract_y
_atom_site_fract_z
O1	O	0.073716	-1.667857	-0.176391
O2	O	0.073732	-1.302378	-0.193197
O3	O	0.073718	-1.493520	-0.002055
O4	O	0.073730	-1.476714	-0.367533
O5	O	-0.073847	-1.493473	-0.002065
O6	O	-0.073833	-1.302331	-0.193207
O7	O	-0.073849	-1.667809	-0.176401
Zn8	Zn	-0.097270	-1.485062	-0.184806
Zn9	Zn	0.097153	-1.485125	-0.184792
O10	O	-0.073835	-1.476667	-0.367543
C11	C	-0.000048	-1.255556	-0.191968
C12	C	-0.000042	-1.116113	-0.188276
C13	C	-0.000064	-1.492263	0.044738
C14	C	-0.000062	-1.488571	0.184181
N15	N	-0.229959	-1.485029	-0.184814
C16	C	-0.589160	-1.485122	-0.184787
C17	C	-0.551546	-1.382496	-0.286715
C18	C	-0.448720	-1.382737	-0.287092
C19	C	-0.410956	-1.485075	-0.184801
C20	C	-0.448252	-1.616368	-0.214564
C21	C	-0.551110	-1.615794	-0.215290
C22	C	-0.551264	-1.457621	-0.052802
C23	C	-0.448400	-1.454622	-0.053655
C24	C	-0.310243	-1.485056	-0.184806
C25	C	-0.689874	-1.485150	-0.184785
N26	N	0.229842	-1.485168	-0.184774
C27	C	-0.000067	-1.714631	-0.177630
C28	C	-0.000067	-1.854074	-0.181322
C29	C	-0.000041	-1.036628	-0.300818
C30	C	-0.000057	-0.905607	-0.297341
C31	C	-0.000071	-0.933570	-0.068772
C32	C	-0.000061	-1.064588	-0.072250
C33	C	-0.000051	-1.477925	-0.414336
C34	C	-0.000047	-1.481616	-0.553779
C35	C	-0.000067	-1.601112	0.263667
C36	C	-0.000056	-1.597636	0.394688
C37	C	-0.000039	-1.369066	0.366725
C38	C	-0.000044	-1.372544	0.235706
H39	H	-0.423506	-1.285181	-0.269191
O40	O	0.000043	-1.713738	0.213465
C41	C	0.076477	-1.722624	0.138536
H42	H	0.101958	-1.623928	0.106767
H43	H	0.059284	-1.773434	0.052323
H44	H	0.129993	-1.777696	0.195927
O45	O	-0.000103	-1.707077	0.471720
C46	C	-0.000096	-1.810223	0.398141
H47	H	-0.028036	-1.779184	0.300651
H48	H	-0.042942	-1.889130	0.445777
H49	H	0.070695	-1.845761	0.388497
H50	H	-0.000057	-0.840894	-0.388984
O51	O	-0.580966	-1.265639	-0.265847
C52	C	-0.546109	-1.175911	-0.358746
H53	H	-0.483125	-1.214790	-0.399875
H54	H	-0.529886	-1.085383	-0.314518
H55	H	-0.597128	-1.155002	-0.436960
O56	O	-0.418919	-1.709700	-0.128518
C57	C	-0.325449	-1.713973	-0.131339
H58	H	-0.300805	-1.670003	-0.226760
H59	H	-0.302423	-1.816225	-0.116066
H60	H	-0.297538	-1.659151	-0.053472
H61	H	-0.000026	-1.274601	0.408693
H62	H	-0.575991	-1.694607	-0.144039
O63	O	0.000039	-0.883661	0.044006
C64	C	0.076475	-0.924168	0.112672
H65	H	0.101959	-1.015325	0.077655
H66	H	0.059284	-0.941436	0.217101
H67	H	0.129988	-0.848500	0.098788
H68	H	-0.422697	-1.524426	0.025837
H69	H	-0.000038	-1.280893	0.170985
O70	O	-0.419195	-1.403762	-0.403850
C71	C	-0.325652	-1.404092	-0.404647
H72	H	-0.299981	-1.348885	-0.325639
H73	H	-0.300759	-1.358274	-0.499206
H74	H	-0.300573	-1.505382	-0.389740
H75	H	-0.000032	-1.078574	-0.395294
H76	H	-0.422481	-1.640972	-0.309764
O77	O	-0.582407	-1.403515	-0.402796
C78	C	-0.637897	-1.510533	-0.392291
H79	H	-0.620700	-1.572874	-0.302597
H80	H	-0.627737	-1.565874	-0.477570
H81	H	-0.710123	-1.479391	-0.388214
O82	O	-0.579765	-1.644711	-0.330067
C83	C	-0.631832	-1.755061	-0.315067
H84	H	-0.613773	-1.811931	-0.222473
H85	H	-0.618782	-1.814182	-0.396821
H86	H	-0.705043	-1.728304	-0.313779
O87	O	-0.582285	-1.345734	-0.019230
C88	C	-0.638810	-1.290588	-0.114564
H89	H	-0.622249	-1.329625	-0.207712
H90	H	-0.629158	-1.183975	-0.124680
H91	H	-0.710729	-1.313571	-0.088390
O92	O	-0.419219	-1.339393	-0.026905
C93	C	-0.365220	-1.286457	-0.126327
H94	H	-0.337268	-1.364862	-0.180395
H95	H	-0.308289	-1.232283	-0.086223
H96	H	-0.406435	-1.219421	-0.192758
H97	H	-0.000065	-1.129309	0.019401
O98	O	-0.580394	-1.546949	0.037563
C99	C	-0.634722	-1.633951	-0.018134
H100	H	-0.662819	-1.587798	-0.110651
H101	H	-0.691543	-1.664419	0.048566
H102	H	-0.593737	-1.719985	-0.037356
