data_functionalizedCrystal
_audit_creation_method	'MofGen! by Chris Wilmer'
_symmetry_space_group_name_H-M	'P1'
_symmetry_Int_Tables_number	1
_symmetry_cell_setting	triclinic
loop_
_symmetry_equiv_pos_as_xyz
  x,y,z
_cell_length_a	15.995350
_cell_length_b	15.995280
_cell_length_c	14.472311
_cell_angle_alpha	90.005962
_cell_angle_beta	89.997596
_cell_angle_gamma	83.477985
loop_
_atom_site_label
_atom_site_type_symbol
_atom_site_fract_x
_atom_site_fract_y
_atom_site_fract_z
O1	O	-1.110961	-0.107920	0.076758
O2	O	-0.610961	0.392080	0.576758
O3	O	-0.867183	-0.121248	0.076776
O4	O	-0.367183	0.378752	0.576776
O5	O	-0.995767	0.007308	0.076766
O6	O	-0.495767	0.507308	0.576766
O7	O	-0.982377	-0.236475	0.076768
O8	O	-0.482377	0.263525	0.576768
O9	O	-0.995749	0.007291	-0.076916
O10	O	-0.495749	0.507291	0.423084
O11	O	-0.867165	-0.121265	-0.076906
O12	O	-0.367165	0.378735	0.423094
O13	O	-1.110944	-0.107937	-0.076924
O14	O	-0.610944	0.392063	0.423076
Cu15	Cu	-0.989053	-0.114602	-0.090948
Cu16	Cu	-0.489053	0.385398	0.409052
Cu17	Cu	-0.989074	-0.114582	0.090799
Cu18	Cu	-0.489074	0.385418	0.590799
O19	O	-0.982360	-0.236492	-0.076914
O20	O	-0.482360	0.263508	0.423086
C21	C	-0.835979	-0.120705	-0.000062
C22	C	-0.335979	0.379295	0.499938
C23	C	-0.743029	-0.119053	-0.000055
C24	C	-0.243029	0.380947	0.499945
C25	C	-0.995215	0.038495	-0.000073
C26	C	-0.495215	0.538495	0.499927
C27	C	-0.993587	0.131449	-0.000068
C28	C	-0.493587	0.631449	0.499932
N29	N	-0.989045	-0.114616	-0.218778
N30	N	-0.489045	0.385384	0.281222
C31	C	-1.142147	-0.108479	-0.000084
C32	C	-0.642147	0.391521	0.499916
C33	C	-1.235097	-0.110131	-0.000085
C34	C	-0.735097	0.389869	0.499915
C35	C	-0.405283	-0.113121	-0.000075
C36	C	0.094717	0.386879	0.499925
C37	C	-0.452741	-0.021566	-0.000418
C38	C	0.047259	0.478434	0.499582
C39	C	-0.549430	-0.023218	-0.000065
C40	C	-0.049430	0.476782	0.499935
C41	C	-0.572843	-0.116063	-0.000066
C42	C	-0.072843	0.383937	0.499934
C43	C	-0.531755	-0.161212	0.087691
C44	C	-0.031755	0.338788	0.587691
C45	C	-0.435119	-0.158912	0.087758
C46	C	0.064881	0.341088	0.587758
C47	C	-0.434760	-0.160823	-0.087007
C48	C	0.065240	0.339177	0.412993
C49	C	-0.531706	-0.160801	-0.088160
C50	C	-0.031706	0.339199	0.411840
C51	C	-0.667540	-0.117731	-0.000057
C52	C	-0.167540	0.382269	0.499943
C53	C	-0.310586	-0.111456	-0.000077
C54	C	0.189414	0.388544	0.499923
C55	C	-0.987600	0.469189	-0.000081
C56	C	-0.487600	0.969189	0.499919
C57	C	-1.080403	0.445877	-0.000431
C58	C	-0.580403	0.945877	0.499569
C59	C	-1.082163	0.349201	-0.000080
C60	C	-0.582163	0.849201	0.499920
C61	C	-0.990571	0.301632	-0.000075
C62	C	-0.490571	0.801632	0.499925
C63	C	-0.944184	0.330743	0.087685
C64	C	-0.444184	0.830743	0.587685
C65	C	-0.943071	0.427534	0.087754
C66	C	-0.443071	0.927534	0.587754
C67	C	-0.941156	0.427372	-0.087011
C68	C	-0.441156	0.927372	0.412989
C69	C	-0.944591	0.330879	-0.088166
C70	C	-0.444591	0.830879	0.411834
C71	C	-0.992245	0.206936	-0.000068
C72	C	-0.492245	0.706936	0.499932
C73	C	-0.985924	0.563885	-0.000081
C74	C	-0.485924	1.063885	0.499919
C75	C	-0.982923	0.732322	-0.000077
C76	C	-0.482923	1.232322	0.499923
C77	C	-0.984584	0.639373	-0.000088
C78	C	-0.484584	1.139373	0.499912
C79	C	-0.989060	-0.114597	-0.407279
C80	C	-0.489060	0.385403	0.092721
C81	C	-0.920246	-0.183360	-0.446503
C82	C	-0.420246	0.316640	0.053497
C83	C	-0.920010	-0.183172	-0.553591
C84	C	-0.420010	0.316828	-0.053591
C85	C	-0.989074	-0.114580	-0.592870
C86	C	-0.489074	0.385420	-0.092870
C87	C	-0.970371	-0.027107	-0.553978
C88	C	-0.470371	0.472893	-0.053978
C89	C	-0.969869	-0.027520	-0.446857
C90	C	-0.469869	0.472480	0.053143
C91	C	-1.076788	-0.132520	-0.446744
C92	C	-0.576788	0.367480	0.053256
C93	C	-1.076207	-0.134495	-0.553873
C94	C	-0.576207	0.365505	-0.053873
C95	C	-0.989084	-0.114565	-0.697758
C96	C	-0.489084	0.385435	-0.197758
C97	C	-0.989048	-0.114606	-0.302390
C98	C	-0.489048	0.385394	0.197610
N99	N	-0.989088	-0.114562	0.218630
N100	N	-0.489088	0.385438	0.718630
H101	H	-0.577861	0.012272	-0.062973
H102	H	-0.077861	0.512272	0.437027
H103	H	-0.931139	-0.248593	-0.420755
H104	H	-0.431139	0.251407	0.079245
H105	H	-1.018103	0.025204	-0.420907
H106	H	-0.518103	0.525204	0.079093
H107	H	-0.560144	-0.129840	0.153001
H108	H	-0.060144	0.370160	0.653001
H109	H	-1.118721	0.330803	0.062936
H110	H	-0.618721	0.830803	0.562936
H111	H	-1.019181	0.025313	-0.579417
H112	H	-0.519181	0.525313	-0.079417
H113	H	-1.116169	0.473867	-0.063368
H114	H	-0.616169	0.973867	0.436632
H115	H	-0.872846	0.441363	-0.087599
H116	H	-0.372846	0.941363	0.412401
H117	H	-0.907145	-0.010980	-0.580825
H118	H	-0.407145	0.489020	-0.080825
H119	H	-0.905901	-0.011778	-0.421884
H120	H	-0.405901	0.488222	0.078116
H121	H	-0.854907	-0.171680	-0.579231
H122	H	-0.354907	0.328320	-0.079231
H123	H	-1.094845	-0.194966	-0.419737
H124	H	-0.594845	0.305034	0.080263
H125	H	-0.547053	-0.228507	-0.093461
H126	H	-0.047053	0.271493	0.406539
H127	H	-0.545863	-0.229423	0.090954
H128	H	-0.045863	0.270577	0.590954
H129	H	-1.090400	-0.198853	-0.579278
H130	H	-0.590400	0.301147	-0.079278
H131	H	-1.129793	-0.087681	-0.580609
H132	H	-0.629793	0.412319	-0.080609
H133	H	-0.414225	-0.130899	-0.153525
H134	H	0.085775	0.369101	0.346475
H135	H	-0.559023	-0.127843	-0.153083
H136	H	-0.059023	0.372157	0.346917
H137	H	-0.416827	-0.125973	0.153359
H138	H	0.083173	0.374027	0.653359
H139	H	-1.127994	-0.082380	-0.421370
H140	H	-0.627994	0.417620	0.078630
H141	H	-1.118493	0.330168	-0.062988
H142	H	-0.618493	0.830168	0.437012
H143	H	-0.434221	0.015024	-0.063352
H144	H	0.065779	0.515024	0.436648
H145	H	-0.876784	0.298876	0.090952
H146	H	-0.376784	0.798876	0.590952
H147	H	-0.433163	0.014869	0.062168
H148	H	0.066837	0.514869	0.562168
H149	H	-0.402854	-0.226129	0.091741
H150	H	0.097146	0.273871	0.591741
H151	H	-0.402982	-0.228326	-0.087601
H152	H	0.097018	0.271674	0.412399
H153	H	-0.577304	0.012525	0.062951
H154	H	-0.077304	0.512525	0.562951
H155	H	-1.115984	0.474901	0.062148
H156	H	-0.615984	0.974901	0.562148
H157	H	-0.875027	0.442085	0.091733
H158	H	-0.375027	0.942085	0.591733
H159	H	-0.975213	0.454358	0.153353
H160	H	-0.475213	0.954358	0.653353
H161	H	-0.976410	0.310690	0.152993
H162	H	-0.476410	0.810690	0.652993
H163	H	-0.978368	0.312306	-0.153090
H164	H	-0.478368	0.812306	0.346910
H165	H	-0.970376	0.455454	-0.153533
H166	H	-0.470376	0.955454	0.346467
H167	H	-0.877737	0.297909	-0.093463
H168	H	-0.377737	0.797909	0.406537
H169	H	-0.931094	-0.248184	-0.579888
H170	H	-0.431094	0.251816	-0.079888
H171	H	-0.855503	-0.172036	-0.419598
H172	H	-0.355503	0.327964	0.080402
