data_functionalizedCrystal
_audit_creation_method	'MofGen! by Chris Wilmer'
_symmetry_space_group_name_H-M	'P1'
_symmetry_Int_Tables_number	1
_symmetry_cell_setting	triclinic
loop_
_symmetry_equiv_pos_as_xyz
  x,y,z
_cell_length_a	10.654546
_cell_length_b	9.130313
_cell_length_c	10.654550
_cell_angle_alpha	90.001310
_cell_angle_beta	95.515807
_cell_angle_gamma	90.003981
loop_
_atom_site_label
_atom_site_type_symbol
_atom_site_fract_x
_atom_site_fract_y
_atom_site_fract_z
O1	O	1.667842	0.121827	-0.176369
O2	O	1.302363	0.121823	-0.193180
O3	O	1.493506	0.121820	-0.002035
O4	O	1.476699	0.121831	-0.367514
O5	O	1.493492	-0.121779	-0.002047
O6	O	1.302350	-0.121776	-0.193191
O7	O	1.667829	-0.121771	-0.176381
Cu8	Cu	1.485088	-0.144016	-0.184787
Cu9	Cu	1.485104	0.144068	-0.184773
O10	O	1.476686	-0.121768	-0.367525
C11	C	1.255558	0.000023	-0.191952
C12	C	1.116115	0.000021	-0.188262
C13	C	1.050627	0.132814	-0.186510
C14	C	0.919607	0.132825	-0.183032
C15	C	0.919573	-0.132759	-0.183055
C16	C	1.050590	-0.132770	-0.186541
C17	C	1.116152	0.265605	-0.188230
C18	C	1.050664	0.398408	-0.186477
C19	C	0.919643	0.398419	-0.182999
C20	C	0.854110	0.265628	-0.181276
N21	N	1.485086	-0.346639	-0.184796
C22	C	1.561916	-0.423301	-0.261670
C23	C	1.561934	-0.576638	-0.261646
C24	C	1.408283	-0.576636	-0.107872
C25	C	1.408272	-0.423302	-0.107890
C26	C	1.638730	-0.346638	-0.338575
C27	C	1.715565	-0.423301	-0.415457
C28	C	1.715583	-0.576638	-0.415433
C29	C	1.638767	-0.653312	-0.338529
C30	C	1.714633	0.000032	-0.177608
C31	C	1.854077	0.000043	-0.181298
C32	C	1.492265	0.000022	0.044757
C33	C	1.488573	0.000027	0.184200
N34	N	1.485115	0.346690	-0.184755
C35	C	1.477927	0.000033	-0.414317
C36	C	1.481619	0.000037	-0.553761
C37	C	1.601115	0.000024	0.263687
C38	C	1.597638	0.000034	0.394708
C39	C	1.369068	0.000045	0.366742
C40	C	1.372546	0.000045	0.235724
C41	C	1.717142	0.000007	0.212164
C42	C	1.829693	0.000002	0.291652
C43	C	1.826216	0.000012	0.422673
C44	C	1.710188	0.000027	0.474206
H45	H	0.747423	0.265648	-0.178458
H46	H	1.638721	-0.221784	-0.338606
H47	H	0.866325	0.506554	-0.181584
H48	H	1.638800	-0.778169	-0.338504
H49	H	1.104028	0.506521	-0.187891
H50	H	1.345740	-0.639076	-0.045262
H51	H	1.274604	0.000054	0.408711
O52	O	1.942288	-0.000070	0.241392
C53	C	1.921228	-0.000042	0.108706
H54	H	1.823483	-0.046161	0.078795
H55	H	1.927640	0.116822	0.072186
C56	C	2.141650	-0.038934	0.090243
C57	C	2.021603	-0.095590	0.053505
H58	H	2.203569	-0.097866	0.056190
H59	H	2.155840	-0.038947	0.179635
H60	H	2.146976	0.058452	0.059807
H61	H	2.016274	-0.192966	0.083955
H62	H	2.007414	-0.095595	-0.035884
H63	H	1.917860	0.000023	0.487390
H64	H	1.222836	0.265610	-0.191059
H65	H	1.778113	-0.360863	-0.478062
H66	H	1.778154	-0.639052	-0.478025
H67	H	0.866206	-0.240872	-0.181650
H68	H	1.345709	-0.360882	-0.045294
H69	H	1.103911	-0.240901	-0.187975
H70	H	1.719985	-0.000006	0.105482
H71	H	1.707367	0.000051	0.580893
H72	H	1.280905	0.000045	0.171003
