data_functionalizedCrystal
_audit_creation_method	'MofGen! by Chris Wilmer'
_symmetry_space_group_name_H-M	'P1'
_symmetry_Int_Tables_number	1
_symmetry_cell_setting	triclinic
loop_
_symmetry_equiv_pos_as_xyz
  x,y,z
_cell_length_a	6.817900
_cell_length_b	11.102288
_cell_length_c	16.305550
_cell_angle_alpha	93.871970
_cell_angle_beta	103.455250
_cell_angle_gamma	108.605689
loop_
_atom_site_label
_atom_site_type_symbol
_atom_site_fract_x
_atom_site_fract_y
_atom_site_fract_z
V1	V	-4.052585	-0.176912	-0.263031
O2	O	-4.012740	0.007398	-0.258024
O3	O	-4.029765	-0.349725	-0.261233
O4	O	-4.003658	-0.174675	-0.377749
O5	O	-4.039028	-0.168864	-0.140702
V6	V	-4.532967	-0.154809	-0.248400
O7	O	-4.320734	-0.225396	-0.295127
O8	O	-4.715015	-0.106325	-0.216304
O9	O	-4.332580	0.018004	-0.250199
O10	O	-4.690209	-0.339118	-0.253407
O11	O	-4.663921	-0.162856	-0.370729
O12	O	-4.358687	-0.157046	-0.133683
C13	C	-3.881006	-0.391838	-0.257083
C14	C	-3.943632	-0.533118	-0.256377
C15	C	-4.156118	-0.605982	-0.260254
C16	C	-4.214953	-0.738730	-0.259597
C17	C	-3.848792	-0.725738	-0.251183
C18	C	-3.789964	-0.592993	-0.251846
C19	C	-3.847703	-0.168542	-0.405710
C20	C	-3.889152	-0.167857	-0.499492
C21	C	-4.039844	-0.165201	-0.840237
C22	C	-3.802622	-0.157315	-0.799308
C23	C	-3.759612	-0.158554	-0.701814
C24	C	-3.965082	-0.166518	-0.671189
C25	C	-4.150803	-0.292033	-0.721816
C26	C	-4.192561	-0.291323	-0.819365
C27	C	-4.077235	-0.048574	-0.794394
C28	C	-4.029158	-0.047581	-0.696551
C29	C	-3.922844	-0.167267	-0.575651
C30	C	-4.082092	-0.164460	-0.935776
C31	C	-4.144682	0.060110	-0.254346
C32	C	-4.061295	0.201389	-0.255057
C33	C	-4.177985	-0.163182	-0.105717
C34	C	-4.115773	-0.163861	-0.011935
H35	H	-3.619679	-0.068308	-0.666790
N36	N	-4.223871	-0.045496	-0.668218
H37	H	-4.349284	-0.126496	-0.696158
H38	H	-4.261032	0.031949	-0.685349
H39	H	-3.616928	-0.533665	-0.248691
N40	N	-4.444131	-0.817281	-0.263746
H41	H	-4.447514	-0.860074	-0.211112
H42	H	-4.505800	-0.885146	-0.316224
N43	N	-3.644126	-0.037218	-0.815686
H44	H	-3.724549	0.013245	-0.849798
H45	H	-3.550938	-0.061936	-0.848737
N46	N	-4.321867	-0.541411	-0.265155
H47	H	-4.334760	-0.499181	-0.318157
H48	H	-4.276382	-0.474130	-0.213042
N49	N	-3.759399	-0.268305	-0.841039
H50	H	-3.892814	-0.323671	-0.886341
H51	H	-3.718693	-0.321461	-0.796557
N52	N	-3.683046	-0.790313	-0.246273
H53	H	-3.752548	-0.885461	-0.246432
H54	H	-3.563691	-0.751702	-0.192005
N55	N	-4.306064	-0.054735	-0.829910
H56	H	-4.385190	-0.132649	-0.875470
H57	H	-4.306231	0.025617	-0.855462
N58	N	-4.355722	-0.305769	-0.696767
H59	H	-4.331056	-0.310205	-0.633692
H60	H	-4.472802	-0.387083	-0.730144
N61	N	-3.688276	-0.270807	-0.680239
H62	H	-3.804689	-0.353677	-0.711664
H63	H	-3.659939	-0.271976	-0.616735
H64	H	-4.169561	-0.379613	-0.849747
N65	N	-3.937422	0.077402	-0.812102
H66	H	-3.963966	0.150925	-0.782088
H67	H	-3.973397	0.079177	-0.875594
N68	N	-4.424985	-0.305895	-0.856451
H69	H	-4.499889	-0.312756	-0.809418
H70	H	-4.497577	-0.386182	-0.900390
N71	N	-4.094818	-0.409023	-0.699549
H72	H	-3.949318	-0.380996	-0.656707
H73	H	-4.091055	-0.459129	-0.752864
N74	N	-3.850501	0.075402	-0.651034
H75	H	-3.728561	0.054177	-0.614134
H76	H	-3.906437	0.125886	-0.614096
