data_functionalizedCrystal
_audit_creation_method	'MofGen! by Chris Wilmer'
_symmetry_space_group_name_H-M	'P1'
_symmetry_Int_Tables_number	1
_symmetry_cell_setting	triclinic
loop_
_symmetry_equiv_pos_as_xyz
  x,y,z
_cell_length_a	12.759401
_cell_length_b	13.897447
_cell_length_c	13.897449
_cell_angle_alpha	90.007994
_cell_angle_beta	90.001962
_cell_angle_gamma	90.019956
loop_
_atom_site_label
_atom_site_type_symbol
_atom_site_fract_x
_atom_site_fract_y
_atom_site_fract_z
Zn1	Zn	1.606047	-0.384176	0.545340
Zn2	Zn	1.605978	-0.545438	0.384045
Zn3	Zn	1.430400	-0.384160	0.384064
Zn4	Zn	1.430323	-0.545432	0.545303
O5	O	1.518187	-0.464802	0.464688
O6	O	1.753059	-0.405577	0.523952
O7	O	1.582691	-0.524039	0.249066
O8	O	1.453762	-0.249180	0.405481
O9	O	1.753008	-0.524056	0.405449
O10	O	1.582809	-0.249192	0.523970
O11	O	1.453694	-0.405549	0.249080
O12	O	1.283369	-0.405544	0.405445
O13	O	1.453630	-0.524046	0.680290
O14	O	1.283312	-0.524030	0.523907
O15	O	1.582734	-0.405572	0.680317
O16	O	1.582616	-0.680419	0.405413
O17	O	1.453563	-0.680415	0.523888
C18	C	1.245220	-0.464785	0.464674
C19	C	1.128443	-0.464801	0.464691
C20	C	1.073608	-0.403221	0.526491
C21	C	0.963884	-0.403231	0.526497
C22	C	0.963840	-0.526409	0.402902
C23	C	1.073562	-0.526394	0.402892
C24	C	1.518102	-0.715416	0.464666
C25	C	1.518161	-0.822630	0.464688
C26	C	1.518212	-0.909700	0.464710
C27	C	1.518286	-1.018932	0.464735
C28	C	1.792220	-0.464819	0.464702
C29	C	1.908997	-0.464826	0.464708
C30	C	1.518181	-0.464810	0.716281
C31	C	1.518179	-0.464814	0.823495
C32	C	1.518302	-0.213209	0.464732
C33	C	1.518350	-0.105995	0.464750
C34	C	1.518176	-0.464817	0.910565
C35	C	1.518175	-0.464813	1.019797
C36	C	1.518183	-0.464813	1.214074
C37	C	1.518180	-0.464804	1.106860
H38	H	1.118209	-0.576540	0.352562
H39	H	1.118290	-0.353065	0.576809
H40	H	0.919243	-0.353085	0.576819
H41	H	0.919142	-0.576557	0.352588
