data_functionalizedCrystal
_audit_creation_method	'MofGen! by Chris Wilmer'
_symmetry_space_group_name_H-M	'P1'
_symmetry_Int_Tables_number	1
_symmetry_cell_setting	triclinic
loop_
_symmetry_equiv_pos_as_xyz
  x,y,z
_cell_length_a	21.295419
_cell_length_b	12.645331
_cell_length_c	12.645323
_cell_angle_alpha	90.022676
_cell_angle_beta	89.983477
_cell_angle_gamma	89.998963
loop_
_atom_site_label
_atom_site_type_symbol
_atom_site_fract_x
_atom_site_fract_y
_atom_site_fract_z
Zn1	Zn	-0.250621	-1.620846	-0.599508
Zn2	Zn	-0.355896	-1.620776	-0.422274
Zn3	Zn	-0.250643	-1.443561	-0.422252
Zn4	Zn	-0.355855	-1.443591	-0.599489
O5	O	-0.303254	-1.532194	-0.510881
O6	O	-0.264594	-1.769184	-0.576014
O7	O	-0.341960	-1.597227	-0.273924
O8	O	-0.162550	-1.467095	-0.445764
O9	O	-0.341939	-1.769133	-0.445801
O10	O	-0.162535	-1.597346	-0.575993
O11	O	-0.264631	-1.467027	-0.273908
O12	O	-0.264591	-1.295218	-0.445746
O13	O	-0.341869	-1.467146	-0.747839
O14	O	-0.341890	-1.295240	-0.575961
O15	O	-0.264555	-1.597375	-0.747853
O16	O	-0.443980	-1.597256	-0.445783
O17	O	-0.443949	-1.467078	-0.575982
C18	C	-0.303239	-1.256764	-0.510850
C19	C	-0.303247	-1.138934	-0.510862
C20	C	-0.139063	-1.532225	-0.510878
C21	C	-0.069095	-1.532238	-0.510878
C22	C	-0.466805	-1.532192	-0.510906
C23	C	-0.536773	-1.532288	-0.510952
C24	C	-0.036236	-1.464436	-0.443076
C25	C	0.029507	-1.464434	-0.443088
C26	C	0.062387	-1.532254	-0.510892
C27	C	0.029520	-1.600061	-0.578707
C28	C	-0.036221	-1.600053	-0.578699
N29	N	0.165605	-1.625064	-0.519042
N30	N	0.228057	-1.625069	-0.519043
C31	C	0.260462	-1.532281	-0.510919
N32	N	0.228057	-1.439486	-0.502773
N33	N	0.165599	-1.439483	-0.502767
C34	C	0.133673	-1.532270	-0.510907
C35	C	0.364607	-1.464471	-0.443127
C36	C	0.430351	-1.464468	-0.443147
C37	C	0.430363	-1.600105	-0.578760
C38	C	0.364620	-1.600098	-0.578745
C39	C	0.331746	-1.532283	-0.510923
C40	C	-0.303205	-1.532272	-0.787386
C41	C	-0.303184	-1.532305	-0.905216
C42	C	-0.303269	-1.808699	-0.510912
C43	C	-0.303276	-1.926529	-0.510925
C44	C	-0.254395	-0.971321	-0.429395
C45	C	-0.254521	-1.093880	-0.429037
C46	C	-0.369560	-1.094444	-0.480364
C47	C	-0.369293	-0.971846	-0.479808
C48	C	-0.286418	-0.971777	-0.623142
C49	C	-0.284937	-1.094382	-0.622518
C50	C	-0.351594	-1.450125	-1.072772
C51	C	-0.351833	-1.450341	-0.950212
C52	C	-0.321189	-1.644013	-0.949741
C53	C	-0.321492	-1.643562	-1.072339
C54	C	-0.236500	-1.503833	-1.072398
C55	C	-0.236899	-1.501341	-0.949791
C56	C	-0.303257	-1.532177	-0.235451
C57	C	-0.303100	-1.532349	-0.117621
H58	H	-0.062998	-1.409214	-0.387851
C59	C	-0.420080	-1.133879	-0.558057
C60	C	-0.475847	-1.199774	-0.517218
C61	C	-0.526366	-1.239212	-0.594912
C62	C	-0.521119	-1.212755	-0.713445
C63	C	-0.465350	-1.146857	-0.754290
C64	C	-0.414831	-1.107418	-0.676596
H65	H	-0.479734	-1.219362	-0.429467
H66	H	-0.567650	-1.287995	-0.564676
H67	H	-0.558516	-1.241950	-0.770959
H68	H	-0.461463	-1.127269	-0.842041
H69	H	-0.373547	-1.058636	-0.706833
H70	H	0.337840	-1.409247	-0.387908
C71	C	0.466523	-1.674703	-0.653352
C72	C	0.430374	-1.749289	-0.727934
C73	C	0.466537	-1.823884	-0.802534
C74	C	0.538850	-1.823893	-0.802552
C75	C	0.575003	-1.749304	-0.727966
C76	C	0.538840	-1.674709	-0.653366
H77	H	0.376840	-1.749285	-0.727924
H78	H	0.439774	-1.879099	-0.857747
H79	H	0.565621	-1.879112	-0.857775
H80	H	0.628537	-1.749308	-0.727976
H81	H	0.565603	-1.619494	-0.598153
C82	C	-0.336511	-1.337884	-1.112566
C83	C	-0.321624	-1.249229	-1.032903
C84	C	-0.306535	-1.136985	-1.072703
C85	C	-0.306334	-1.113397	-1.192166
C86	C	-0.321221	-1.202055	-1.271836
C87	C	-0.336309	-1.314298	-1.232036
H88	H	-0.321773	-1.266688	-0.944463
H89	H	-0.295515	-1.071355	-1.013725
H90	H	-0.295164	-1.030308	-1.221628
H91	H	-0.321072	-1.184595	-1.360276
H92	H	-0.347330	-1.379928	-1.291014
H93	H	0.337866	-1.655316	-0.633951
H94	H	-0.062975	-1.655266	-0.633916
C95	C	-0.275859	-1.729142	-1.112431
C96	C	-0.266829	-1.746189	-1.232059
C97	C	-0.221200	-1.831772	-1.272146
C98	C	-0.184601	-1.900309	-1.192604
C99	C	-0.193629	-1.883264	-1.072969
C100	C	-0.239258	-1.797681	-1.032882
H101	H	-0.293923	-1.695452	-1.290947
H102	H	-0.214517	-1.844390	-1.360709
H103	H	-0.150823	-1.963663	-1.222279
H104	H	-0.166535	-1.934001	-1.014080
H105	H	-0.245941	-1.785063	-0.944319
C106	C	-0.222235	-0.930012	-0.660624
C107	C	-0.184307	-0.854272	-0.589804
C108	C	-0.120122	-0.812504	-0.627272
C109	C	-0.093863	-0.846477	-0.735560
C110	C	-0.131791	-0.922221	-0.806386
C111	C	-0.195977	-0.963989	-0.768918
H112	H	-0.203745	-0.829119	-0.509637
H113	H	-0.092045	-0.756433	-0.574842
H114	H	-0.046349	-0.815558	-0.763296
H115	H	-0.112353	-0.947374	-0.886553
H116	H	-0.224053	-1.020060	-0.821348
H117	H	-0.406946	-0.942218	-0.536602
H118	H	0.056294	-1.655280	-0.633915
C119	C	-0.387259	-1.676209	-1.111032
C120	C	-0.395221	-1.775107	-1.180849
C121	C	-0.460988	-1.807756	-1.219544
C122	C	-0.518792	-1.741507	-1.188422
C123	C	-0.510832	-1.642603	-1.118601
C124	C	-0.445065	-1.609954	-1.079906
H125	H	-0.352429	-1.824154	-1.203891
H126	H	-0.466880	-1.880971	-1.271230
H127	H	-0.567476	-1.765675	-1.217066
H128	H	-0.553624	-1.593556	-1.095559
H129	H	-0.439173	-1.536739	-1.028220
H130	H	-0.265663	-1.123163	-0.345879
H131	H	0.457106	-1.409250	-0.387938
H132	H	-0.205074	-0.941834	-0.448304
C133	C	-0.389206	-1.135853	-0.370725
C134	C	-0.402463	-1.057478	-0.280194
C135	C	-0.422105	-1.098883	-0.170553
C136	C	-0.428491	-1.218664	-0.151443
C137	C	-0.415234	-1.297047	-0.241976
C138	C	-0.395592	-1.255641	-0.351617
H139	H	-0.397736	-0.968802	-0.294338
H140	H	-0.431918	-1.040859	-0.103534
H141	H	-0.443031	-1.249315	-0.070280
H142	H	-0.419961	-1.385722	-0.227832
H143	H	-0.385779	-1.313665	-0.418636
H144	H	-0.340566	-1.367506	-0.920107
C145	C	-0.219011	-1.133662	-0.653586
C146	C	-0.206012	-1.253082	-0.663117
C147	C	-0.140086	-1.292369	-0.694177
C148	C	-0.087158	-1.212235	-0.715706
C149	C	-0.100156	-1.092808	-0.706175
C150	C	-0.166082	-1.053522	-0.675115
H151	H	-0.245194	-1.312408	-0.647180
H152	H	-0.130465	-1.380777	-0.701233
H153	H	-0.038355	-1.241318	-0.738699
H154	H	-0.060974	-1.033482	-0.722112
H155	H	-0.175703	-0.965113	-0.668060
H156	H	-0.317942	-1.125055	-0.686511
C157	C	-0.214327	-1.395700	-1.114129
C158	C	-0.199991	-1.305339	-1.036113
C159	C	-0.177825	-1.197201	-1.077845
C160	C	-0.169996	-1.179425	-1.197592
C161	C	-0.184332	-1.269789	-1.275615
C162	C	-0.206498	-1.377926	-1.233884
H163	H	-0.205786	-1.318495	-0.947462
H164	H	-0.167213	-1.130308	-1.020086
H165	H	-0.153588	-1.099376	-1.228484
H166	H	-0.178537	-1.256633	-1.364266
H167	H	-0.217110	-1.444820	-1.291642
C168	C	-0.218547	-1.390291	-0.910468
C169	C	-0.155225	-1.341549	-0.943380
C170	C	-0.136874	-1.230500	-0.904046
C171	C	-0.181845	-1.168194	-0.831800
C172	C	-0.245171	-1.216936	-0.798885
C173	C	-0.263522	-1.327985	-0.838219
H174	H	-0.121931	-1.387672	-0.996863
H175	H	-0.089995	-1.194418	-0.928412
H176	H	-0.168260	-1.085989	-0.802683
H177	H	-0.278464	-1.170813	-0.745401
H178	H	-0.310400	-1.364066	-0.813852
C179	C	-0.418478	-1.476012	-0.910508
C180	C	-0.453928	-1.396111	-0.840588
C181	C	-0.520553	-1.421876	-0.800833
C182	C	-0.551727	-1.527542	-0.830997
C183	C	-0.516277	-1.607450	-0.900920
C184	C	-0.449652	-1.581685	-0.940676
H185	H	-0.430851	-1.317884	-0.818255
H186	H	-0.546795	-1.362722	-0.749071
H187	H	-0.601047	-1.546615	-0.801568
H188	H	-0.539354	-1.685677	-0.923253
H189	H	-0.423410	-1.640839	-0.992438
C190	C	-0.417880	-1.475304	-1.114416
C191	C	-0.428124	-1.570118	-1.188898
C192	C	-0.494409	-1.595299	-1.230545
C193	C	-0.550451	-1.525667	-1.197709
C194	C	-0.540209	-1.430847	-1.123223
C195	C	-0.473923	-1.405665	-1.081577
H196	H	-0.386637	-1.621669	-1.213209
H197	H	-0.501991	-1.665492	-1.285684
H198	H	-0.599519	-1.544308	-1.228538
H199	H	-0.581696	-1.379295	-1.098913
H200	H	-0.466342	-1.335473	-1.026437
H201	H	-0.205348	-1.123958	-0.448151
H202	H	-0.286985	-1.706920	-0.920597
C203	C	0.065663	-1.389854	-0.368496
C204	C	0.029503	-1.315263	-0.293895
C205	C	0.065657	-1.240685	-0.219301
C206	C	0.137970	-1.240699	-0.219308
C207	C	0.174133	-1.315294	-0.293911
C208	C	0.137979	-1.389871	-0.368505
H209	H	-0.024031	-1.315250	-0.293888
H210	H	0.038886	-1.185465	-0.164075
H211	H	0.164733	-1.185493	-0.164089
H212	H	0.227667	-1.315307	-0.293919
H213	H	0.164750	-1.445091	-0.423732
H214	H	-0.369365	-1.668594	-0.919064
H215	H	-0.198859	-1.556851	-0.919161
C216	C	-0.187686	-1.584726	-1.111583
C217	C	-0.150561	-1.651689	-1.031394
C218	C	-0.101753	-1.732584	-1.070586
C219	C	-0.090071	-1.746517	-1.189966
C220	C	-0.127197	-1.679552	-1.270162
C221	C	-0.176005	-1.598657	-1.230970
H222	H	-0.159208	-1.641377	-0.943016
H223	H	-0.074270	-1.782156	-1.011219
H224	H	-0.053941	-1.806400	-1.218978
H225	H	-0.118550	-1.689864	-1.358541
H226	H	-0.203488	-1.549085	-1.290337
H227	H	-0.265413	-0.940478	-0.346727
H228	H	-0.383589	-0.943207	-0.397772
H229	H	-0.322021	-0.942814	-0.683889
