data_functionalizedCrystal
_audit_creation_method	'MofGen! by Chris Wilmer'
_symmetry_space_group_name_H-M	'P1'
_symmetry_Int_Tables_number	1
_symmetry_cell_setting	triclinic
loop_
_symmetry_equiv_pos_as_xyz
  x,y,z
_cell_length_a	17.038272
_cell_length_b	14.519709
_cell_length_c	12.996460
_cell_angle_alpha	89.999966
_cell_angle_beta	89.993697
_cell_angle_gamma	92.604149
loop_
_atom_site_label
_atom_site_type_symbol
_atom_site_fract_x
_atom_site_fract_y
_atom_site_fract_z
O1	O	0.102503	-1.231711	-0.085433
O2	O	0.602503	-0.731711	0.414567
O3	O	0.114573	-0.964158	-0.085465
O4	O	0.614573	-0.464158	0.414535
O5	O	-0.005280	-1.096345	-0.085441
O6	O	0.494720	-0.596345	0.414559
O7	O	0.222356	-1.099525	-0.085457
O8	O	0.722356	-0.599525	0.414543
O9	O	-0.005287	-1.096329	0.085693
O10	O	0.494713	-0.596329	0.585693
O11	O	0.114567	-0.964143	0.085669
O12	O	0.614567	-0.464143	0.585669
O13	O	0.102496	-1.231696	0.085701
O14	O	0.602496	-0.731696	0.585701
Cu15	Cu	0.108531	-1.097918	0.101311
Cu16	Cu	0.608531	-0.597918	0.601311
Cu17	Cu	0.108539	-1.097936	-0.101075
Cu18	Cu	0.608539	-0.597936	0.398925
O19	O	0.222349	-1.099510	0.085677
O20	O	0.722349	-0.599510	0.585677
C21	C	0.114008	-0.929748	0.000098
C22	C	0.614008	-0.429748	0.500098
C23	C	0.112322	-0.827237	0.000086
C24	C	0.612322	-0.327237	0.500086
C25	C	-0.034416	-1.093444	0.000125
C26	C	0.465584	-0.593444	0.500125
C27	C	-0.121223	-1.084814	0.000124
C28	C	0.378777	-0.584814	0.500124
C29	C	0.103062	-1.266107	0.000135
C30	C	0.603062	-0.766107	0.500135
C31	C	0.104748	-1.368617	0.000141
C32	C	0.604748	-0.868617	0.500141
C33	C	-0.171209	-1.164047	0.000135
C34	C	0.328791	-0.664047	0.500135
C35	C	-0.252773	-1.155933	0.000124
C36	C	0.247227	-0.655933	0.500124
C37	C	-0.284349	-1.068585	0.000110
C38	C	0.215651	-0.568585	0.500110
C39	C	-0.234357	-0.989347	0.000097
C40	C	0.265643	-0.489347	0.500097
C41	C	-0.152795	-0.997462	0.000100
C42	C	0.347205	-0.497462	0.500100
C43	C	-0.530153	-1.039916	0.000093
C44	C	-0.030153	-0.539916	0.500093
C45	C	-0.611722	-1.031807	0.000092
C46	C	-0.111722	-0.531807	0.500092
C47	C	-0.630132	-1.198394	0.000118
C48	C	-0.130132	-0.698394	0.500118
C49	C	-0.548568	-1.206502	0.000127
C50	C	-0.048568	-0.706502	0.500127
C51	C	-0.498583	-1.127263	0.000108
C52	C	0.001417	-0.627263	0.500108
C53	C	-0.367720	-1.060289	0.000102
C54	C	0.132280	-0.560289	0.500102
C55	C	-0.415213	-1.135560	0.000109
C56	C	0.084787	-0.635560	0.500109
C57	C	0.251486	-1.102410	0.000108
C58	C	0.751486	-0.602410	0.500108
C59	C	0.338292	-1.111040	0.000103
C60	C	0.838292	-0.611040	0.500103
N61	N	0.108525	-1.097912	0.243658
N62	N	0.608525	-0.597912	0.743658
C63	C	0.106116	-0.451867	0.000134
C64	C	0.606116	0.048133	0.500134
C65	C	0.107839	-0.556307	0.000120
C66	C	0.607839	-0.056307	0.500120
C67	C	0.109219	-0.639549	0.000109
C68	C	0.609219	-0.139549	0.500109
C69	C	0.110942	-0.743995	0.000098
C70	C	0.610942	-0.243995	0.500098
N71	N	0.108538	-1.097949	-0.243422
N72	N	0.608538	-0.597949	0.256578
C73	C	0.108539	-1.097935	0.663472
C74	C	0.608539	-0.597935	1.163472
C75	C	0.108538	-1.097926	0.546667
C76	C	0.608538	-0.597926	1.046667
C77	C	0.108533	-1.097924	0.453569
C78	C	0.608533	-0.597924	0.953569
C79	C	0.108530	-1.097914	0.336756
C80	C	0.608530	-0.597914	0.836756
H81	H	-0.293468	-1.220453	0.000135
H82	H	0.206532	-0.720453	0.500135
O83	O	-0.518027	-1.291422	0.000098
O84	O	-0.018027	-0.791422	0.500098
C85	C	-0.579637	-1.359617	0.000136
C86	C	-0.079637	-0.859617	0.500136
H87	H	-0.635074	-1.329424	-0.032278
H88	H	-0.135074	-0.829424	0.467722
H89	H	-0.591153	-1.384348	0.082243
H90	H	-0.091153	-0.884348	0.582243
C91	C	-0.488403	-1.478575	-0.027142
C92	C	0.011597	-0.978575	0.472858
C93	C	-0.556491	-1.441492	-0.066960
C94	C	-0.056491	-0.941492	0.433040
H95	H	-0.474126	-1.529081	-0.068525
H96	H	0.025874	-1.029081	0.431475
H97	H	-0.446895	-1.432631	-0.027163
H98	H	0.053105	-0.932631	0.472837
H99	H	-0.498009	-1.499176	0.041280
H100	H	0.001991	-0.999176	0.541280
H101	H	-0.546882	-1.420881	-0.135376
H102	H	-0.046882	-0.920881	0.364624
H103	H	-0.597998	-1.487434	-0.066952
H104	H	-0.097998	-0.987434	0.433048
O105	O	-0.398359	-0.975422	-0.000087
O106	O	0.101641	-0.475422	0.499913
C107	C	-0.372806	-0.926727	-0.088708
C108	C	0.127194	-0.426727	0.411292
H109	H	-0.355757	-0.977693	-0.150650
H110	H	0.144243	-0.477693	0.349350
H111	H	-0.319731	-0.879491	-0.068669
H112	H	0.180269	-0.379491	0.431331
C113	C	-0.460562	-0.805899	-0.052830
C114	C	0.039438	-0.305899	0.447170
C115	C	-0.439628	-0.868497	-0.128912
C116	C	0.060372	-0.368497	0.371088
H117	H	-0.501779	-0.769976	-0.077628
H118	H	-0.001779	-0.269976	0.422372
H119	H	-0.477776	-0.838703	0.006878
H120	H	0.022224	-0.338703	0.506878
H121	H	-0.416327	-0.766545	-0.036138
H122	H	0.083673	-0.266545	0.463862
H123	H	-0.483860	-0.907857	-0.145593
H124	H	0.016140	-0.407857	0.354407
H125	H	-0.422423	-0.835698	-0.188624
H126	H	0.077577	-0.335698	0.311376
H127	H	-0.670838	-1.262906	0.000131
H128	H	-0.170838	-0.762906	0.500131
H129	H	-0.637427	-0.960675	0.000098
H130	H	-0.137427	-0.460675	0.500098
H131	H	-0.489465	-0.975394	0.000078
H132	H	0.010535	-0.475394	0.500078
H133	H	-0.145506	-1.235175	0.000152
H134	H	0.354494	-0.735175	0.500152
H135	H	-0.260072	-0.918226	0.000079
H136	H	0.239928	-0.418226	0.500079
H137	H	-0.112096	-0.932942	0.000091
H138	H	0.387904	-0.432942	0.500091
O139	O	-0.384450	-1.220357	-0.000015
O140	O	0.115550	-0.720357	0.499985
C141	C	-0.337830	-1.230051	-0.088658
C142	C	0.162170	-0.730051	0.411342
H143	H	-0.317623	-1.158952	-0.118222
H144	H	0.182377	-0.658952	0.381778
H145	H	-0.373798	-1.268043	-0.150713
H146	H	0.126202	-0.768043	0.349287
C147	C	-0.290432	-1.372687	-0.025411
C148	C	0.209568	-0.872687	0.474589
C149	C	-0.265608	-1.285362	-0.061717
C150	C	0.234392	-0.785362	0.438283
H151	H	-0.245884	-1.406809	-0.008796
H152	H	0.254116	-0.906809	0.491204
H153	H	-0.321843	-1.366158	0.034308
H154	H	0.178157	-0.866158	0.534308
H155	H	-0.320406	-1.404335	-0.077130
H156	H	0.179594	-0.904335	0.422870
H157	H	-0.235643	-1.253711	-0.009995
H158	H	0.264357	-0.753711	0.490005
H159	H	-0.234190	-1.291887	-0.121427
H160	H	0.265810	-0.791887	0.378573
