data_functionalizedCrystal
_audit_creation_method	'MofGen! by Chris Wilmer'
_symmetry_space_group_name_H-M	'P1'
_symmetry_Int_Tables_number	1
_symmetry_cell_setting	triclinic
loop_
_symmetry_equiv_pos_as_xyz
  x,y,z
_cell_length_a	21.295417
_cell_length_b	21.295418
_cell_length_c	16.625539
_cell_angle_alpha	90.043900
_cell_angle_beta	89.966627
_cell_angle_gamma	89.951286
loop_
_atom_site_label
_atom_site_type_symbol
_atom_site_fract_x
_atom_site_fract_y
_atom_site_fract_z
Zn1	Zn	-0.250302	-0.962331	-0.456383
Zn2	Zn	-0.355575	-0.962241	-0.321538
Zn3	Zn	-0.250358	-0.857062	-0.321509
Zn4	Zn	-0.355571	-0.857024	-0.456273
O5	O	-0.302951	-0.909664	-0.388926
O6	O	-0.264246	-1.050409	-0.438554
O7	O	-0.341643	-0.948267	-0.208702
O8	O	-0.162261	-0.871080	-0.339434
O9	O	-0.341589	-1.050342	-0.339484
O10	O	-0.162220	-0.948421	-0.438525
O11	O	-0.264340	-0.870992	-0.208680
O12	O	-0.264336	-0.768967	-0.339327
O13	O	-0.341582	-0.871015	-0.569120
O14	O	-0.341635	-0.768939	-0.438338
O15	O	-0.264241	-0.948384	-0.569201
O16	O	-0.443664	-0.948230	-0.339378
O17	O	-0.443661	-0.870928	-0.438367
C18	C	-0.302991	-0.746113	-0.388818
C19	C	-0.303024	-0.676145	-0.388791
C20	C	-0.343328	-0.643280	-0.440266
C21	C	-0.343316	-0.577538	-0.440296
C22	C	-0.303005	-0.544662	-0.388837
C23	C	-0.262692	-0.577535	-0.337358
C24	C	-0.262702	-0.643276	-0.337335
N25	N	-0.298093	-0.441390	-0.318305
N26	N	-0.298088	-0.378939	-0.318329
C27	C	-0.302973	-0.346588	-0.388904
N28	N	-0.307876	-0.379047	-0.459456
N29	N	-0.307884	-0.441504	-0.459431
C30	C	-0.302990	-0.473377	-0.388856
C31	C	-0.343266	-0.242437	-0.440416
C32	C	-0.343249	-0.176694	-0.440448
C33	C	-0.262629	-0.176692	-0.337503
C34	C	-0.262643	-0.242435	-0.337478
C35	C	-0.302965	-0.275303	-0.388934
C36	C	-0.466503	-0.909582	-0.388881
C37	C	-0.536471	-0.909604	-0.388889
C38	C	-0.569319	-0.949891	-0.337398
C39	C	-0.635061	-0.949921	-0.337416
C40	C	-0.667954	-0.909652	-0.388917
C41	C	-0.635098	-0.869362	-0.440418
C42	C	-0.569357	-0.869338	-0.440404
N43	N	-0.771237	-0.854585	-0.395027
N44	N	-0.833688	-0.854609	-0.395036
C45	C	-0.866028	-0.909723	-0.388963
N46	N	-0.833558	-0.964812	-0.382866
N47	N	-0.771101	-0.964787	-0.382853
C48	C	-0.739239	-0.909674	-0.388938
C49	C	-0.970161	-0.950045	-0.337489
C50	C	-1.035905	-0.950076	-0.337513
C51	C	-1.035941	-0.869511	-0.440510
C52	C	-0.970198	-0.869486	-0.440491
C53	C	-0.937313	-0.909752	-0.388976
C54	C	-0.138761	-0.909764	-0.388988
C55	C	-0.068793	-0.909807	-0.389015
C56	C	-0.302905	-0.909705	-0.599235
C57	C	-0.302885	-0.909723	-0.688856
C58	C	-0.302922	-0.073855	-0.389011
C59	C	-0.302937	-0.143823	-0.388989
C60	C	-0.302814	-0.909752	-1.017032
C61	C	-0.302836	-0.909742	-0.925723
C62	C	-0.302850	-0.909738	-0.852947
C63	C	-0.302870	-0.909727	-0.761633
C64	C	-0.302953	-0.909660	-0.179435
C65	C	-0.302795	-0.909764	-0.089814
H66	H	-0.229870	-0.550763	-0.295461
C67	C	-0.896286	-0.958810	-0.229023
C68	C	-0.934007	-0.994308	-0.280873
H69	H	-0.873970	-0.986137	-0.194069
H70	H	-0.867316	-0.934814	-0.259685
H71	H	-0.921993	-0.931411	-0.198143
H72	H	-0.908299	-1.021704	-0.311758
H73	H	-0.962980	-1.018315	-0.250208
C74	C	-0.708920	-1.034611	-0.326334
C75	C	-0.671185	-0.994190	-0.280799
H76	H	-0.731219	-1.061937	-0.291376
H77	H	-0.737905	-1.010632	-0.357015
H78	H	-0.683225	-1.058683	-0.361483
H79	H	-0.696882	-0.970114	-0.245655
H80	H	-0.642197	-1.018171	-0.250104
H81	H	-0.943452	-0.836678	-0.482416
C82	C	-0.655441	-0.762758	-0.479521
C83	C	-0.671249	-0.825097	-0.497030
H84	H	-0.677756	-0.735433	-0.514479
H85	H	-0.666261	-0.753576	-0.425340
H86	H	-0.611585	-0.756987	-0.486885
H87	H	-0.715104	-0.830869	-0.489661
H88	H	-0.660433	-0.834282	-0.551224
C89	C	-1.029262	-1.029695	-0.235690
C90	C	-1.072014	-0.994362	-0.280908
H91	H	-1.051556	-1.057032	-0.200741
H92	H	-1.003571	-1.053750	-0.270851
H93	H	-1.003672	-1.002262	-0.204800
H94	H	-1.097601	-1.021795	-0.311803
H95	H	-1.097716	-0.970305	-0.245743
C96	C	-1.136730	-0.833776	-0.486265
C97	C	-1.072089	-0.825248	-0.497124
H98	H	-1.159046	-0.806448	-0.521217
H99	H	-1.147440	-0.876066	-0.498140
H100	H	-1.147542	-0.824589	-0.432075
H101	H	-1.061276	-0.834440	-0.551313
H102	H	-1.061374	-0.782948	-0.485254
H103	H	-0.376161	-0.670038	-0.482166
H104	H	-0.376136	-0.550774	-0.482216
H105	H	-0.229879	-0.670034	-0.295418
C106	C	-0.495448	-0.958662	-0.228929
C107	C	-0.533174	-0.994157	-0.280778
H108	H	-0.473137	-0.985992	-0.193972
H109	H	-0.466474	-0.934672	-0.259592
H110	H	-0.521152	-0.931258	-0.198051
H111	H	-0.507470	-1.021558	-0.311660
H112	H	-0.562152	-1.018157	-0.250112
C113	C	-0.422945	-0.235838	-0.542185
C114	C	-0.387577	-0.278572	-0.496986
H115	H	-0.450297	-0.258146	-0.577112
H116	H	-0.446987	-0.210145	-0.507010
H117	H	-0.395536	-0.210248	-0.573096
H118	H	-0.414987	-0.304159	-0.466069
H119	H	-0.363534	-0.304275	-0.532165
C120	C	-0.352098	-0.102851	-0.548920
C121	C	-0.387555	-0.140568	-0.497036
H122	H	-0.379453	-0.080552	-0.583859
H123	H	-0.328092	-0.073866	-0.518283
H124	H	-0.324711	-0.128559	-0.579817
H125	H	-0.414939	-0.114860	-0.466136
H126	H	-0.411572	-0.169556	-0.527677
H127	H	-0.229804	-0.149926	-0.295607
H128	H	-0.229825	-0.269193	-0.295558
H129	H	-0.542612	-0.836531	-0.482335
