data_functionalizedCrystal
_audit_creation_method	'MofGen! by Chris Wilmer'
_symmetry_space_group_name_H-M	'P1'
_symmetry_Int_Tables_number	1
_symmetry_cell_setting	triclinic
loop_
_symmetry_equiv_pos_as_xyz
  x,y,z
_cell_length_a	14.908783
_cell_length_b	15.298852
_cell_length_c	14.908308
_cell_angle_alpha	95.878360
_cell_angle_beta	90.211273
_cell_angle_gamma	83.034221
loop_
_atom_site_label
_atom_site_type_symbol
_atom_site_fract_x
_atom_site_fract_y
_atom_site_fract_z
Zn1	Zn	1.401796	-0.309373	0.537603
Zn2	Zn	1.901796	0.190627	1.037603
Zn3	Zn	1.435742	-0.448308	0.364687
Zn4	Zn	1.935742	0.051692	0.864687
Zn5	Zn	1.259934	-0.308415	0.378730
Zn6	Zn	1.759934	0.191585	0.878730
Zn7	Zn	1.279859	-0.465246	0.503559
Zn8	Zn	1.779859	0.034754	1.003559
O9	O	1.344333	-0.382836	0.446145
O10	O	1.844333	0.117164	0.946145
O11	O	1.530906	-0.321115	0.523036
O12	O	2.030906	0.178885	1.023036
O13	O	1.418288	-0.422262	0.241942
O14	O	1.918288	0.077738	0.741942
O15	O	1.256208	-0.184763	0.419929
O16	O	1.756208	0.315237	0.919929
O17	O	1.555845	-0.423190	0.395995
O18	O	2.055845	0.076810	0.895995
O19	O	1.360433	-0.185466	0.536653
O20	O	1.860433	0.314534	1.036653
O21	O	1.289123	-0.319483	0.252260
O22	O	1.789123	0.180517	0.752260
O23	O	1.137971	-0.335907	0.386918
O24	O	1.637971	0.164093	0.886918
O25	O	1.290167	-0.452058	0.632682
O26	O	1.790167	0.047942	1.132682
O27	O	1.152610	-0.451130	0.478629
O28	O	1.652610	0.048870	0.978629
O29	O	1.379753	-0.337538	0.657694
O30	O	1.879753	0.162462	1.157694
O31	O	1.437609	-0.574335	0.362984
O32	O	1.937609	-0.074335	0.862984
O33	O	1.323083	-0.586778	0.465013
O34	O	1.823083	-0.086778	0.965013
C35	C	1.112981	-0.395253	0.430604
C36	C	1.612981	0.104747	0.930604
C37	C	1.014011	-0.400588	0.423973
C38	C	1.514011	0.099412	0.923973
C39	C	0.802083	-0.304487	0.543949
C40	C	1.302083	0.195513	1.043949
C41	C	0.709091	-0.309497	0.537722
C42	C	1.209091	0.190503	1.037722
C43	C	0.735032	-0.415612	0.405289
C44	C	1.235032	0.084388	0.905289
C45	C	0.828024	-0.410602	0.411516
C46	C	1.328024	0.089398	0.911516
C47	C	0.861546	-0.355039	0.480849
C48	C	1.361546	0.144961	0.980849
C49	C	0.954541	-0.350034	0.487079
C50	C	1.454541	0.149966	0.987079
C51	C	0.980479	-0.456144	0.354643
C52	C	1.480479	0.043856	0.854643
C53	C	0.887487	-0.461154	0.348416
C54	C	1.387487	0.038846	0.848416
C55	C	1.386215	-0.612651	0.408801
C56	C	1.886215	-0.112651	0.908801
C57	C	1.404212	-0.710964	0.392861
C58	C	1.904212	-0.210964	0.892861
C59	C	1.216283	-1.014131	0.560198
C60	C	1.716283	-0.514131	1.060198
C61	C	1.199375	-0.921761	0.575181
C62	C	1.699375	-0.421761	1.075181
C63	C	1.250583	-0.869057	0.529602
C64	C	1.750583	-0.369057	1.029602
C65	C	1.318701	-0.908733	0.469038
C66	C	1.818701	-0.408733	0.969038
C67	C	1.335615	-1.001112	0.454058
C68	C	1.835615	-0.501112	0.954058
C69	C	1.369915	-0.856038	0.423463
C70	C	1.869915	-0.356038	0.923463
C71	C	1.438033	-0.895714	0.362898
C72	C	1.938033	-0.395714	0.862898
C73	C	1.454943	-0.988084	0.347921
C74	C	1.954943	-0.488084	0.847921
C75	C	1.403736	-1.040787	0.393500
C76	C	1.903736	-0.540787	0.893500
C77	C	1.353001	-0.763659	0.438442
C78	C	1.853001	-0.263659	0.938442
C79	C	1.472333	-0.750640	0.332302
C80	C	1.972333	-0.250640	0.832302
C81	C	1.489240	-0.843010	0.317319
C82	C	1.989240	-0.343010	0.817319
C83	C	1.576588	-0.370370	0.461747
C84	C	2.076588	0.129630	0.961747
C85	C	1.675561	-0.365058	0.468396
C86	C	2.175561	0.134942	0.968396
C87	C	1.333396	-0.396794	0.678401
C88	C	1.833396	0.103206	1.178401
C89	C	1.328735	-0.402743	0.777375
C90	C	1.828735	0.097257	1.277375
C91	C	1.302311	-0.152123	0.483655
C92	C	1.802311	0.347877	0.983655
C93	C	1.284404	-0.053807	0.499640
C94	C	1.784404	0.446193	0.999640
C95	C	1.355267	-0.368865	0.214806
C96	C	1.855267	0.131135	0.714806
C97	C	1.360054	-0.362658	0.115884
C98	C	1.860054	0.137342	0.615884
C99	C	1.413257	-0.294651	0.989407
C100	C	1.913257	0.205349	1.489407
C101	C	1.408880	-0.300237	1.082403
C102	C	1.908880	0.199763	1.582403
C103	C	1.315600	-0.419495	1.056363
C104	C	1.815600	0.080505	1.556363
C105	C	1.319977	-0.413910	0.963368
C106	C	1.819977	0.086090	1.463368
C107	C	1.368808	-0.351486	0.929894
C108	C	1.868808	0.148514	1.429894
C109	C	1.373190	-0.345905	0.836896
C110	C	1.873190	0.154095	1.336896
C111	C	1.279905	-0.465159	0.810859
C112	C	1.779905	0.034841	1.310859
C113	C	1.275528	-0.470745	0.903854
C114	C	1.775528	0.029255	1.403854
H115	H	1.297539	-0.731364	0.487754
H116	H	1.797539	-0.231364	0.987754
H117	H	1.236812	-0.793846	0.541805
H118	H	1.736812	-0.293846	1.041805
C119	C	1.159964	-1.072104	0.610326
C120	C	1.659964	-0.572104	1.110326
H121	H	1.179791	-1.132800	0.592726
H122	H	1.679791	-0.632800	1.092726
H123	H	1.167349	-1.059832	0.673498
H124	H	1.667349	-0.559832	1.173498
H125	H	1.097997	-1.059455	0.595667
H126	H	1.597997	-0.559455	1.095667
H127	H	0.660678	-0.268330	0.589103
H128	H	1.160678	0.231670	1.089103
C129	C	0.838962	-0.243377	0.620214
C130	C	1.338962	0.256623	1.120214
H131	H	0.790228	-0.213985	0.656902
H132	H	1.290228	0.286015	1.156902
H133	H	0.879604	-0.277648	0.655875
H134	H	1.379604	0.222352	1.155875
H135	H	0.869793	-0.200783	0.594910
H136	H	1.369793	0.299217	1.094910
C137	C	1.261881	-0.488145	1.093198
C138	C	1.761881	0.011855	1.593198
H139	H	1.265643	-0.483329	1.157106
H140	H	1.765643	0.016671	1.657106
H141	H	1.200414	-0.477496	1.076040
H142	H	1.700414	0.022504	1.576040
H143	H	1.286459	-0.545968	1.069181
H144	H	1.786459	-0.045968	1.569181
H145	H	1.143915	-0.889461	0.624493
H146	H	1.643915	-0.389461	1.124493
H147	H	0.707720	-0.460838	0.348834
H148	H	1.207720	0.039162	0.848834
H149	H	0.860179	-0.506389	0.291965
H150	H	1.360179	-0.006389	0.791965
C151	C	1.045890	-0.511754	0.285230
C152	C	1.545890	-0.011754	0.785230
H153	H	1.106075	-0.500812	0.298864
H154	H	1.606075	-0.000812	0.798864
H155	H	1.040879	-0.572802	0.287488
H156	H	1.540879	-0.072802	0.787488
H157	H	1.031078	-0.495943	0.226515
H158	H	1.531078	0.004057	0.726515
C159	C	1.426894	-0.277237	0.800075
C160	C	1.926894	0.222763	1.300075
H161	H	1.452730	-0.244182	0.848842
H162	H	1.952730	0.255818	1.348842
H163	H	1.473566	-0.306801	0.760901
H164	H	1.973566	0.193199	1.260901
H165	H	1.387506	-0.238348	0.767778
H166	H	1.887506	0.261652	1.267778
C167	C	1.221821	-0.539407	0.940682
C168	C	1.721821	-0.039407	1.440682
H169	H	1.225585	-0.534599	1.004590
H170	H	1.725585	-0.034599	1.504590
H171	H	1.160353	-0.528768	0.923526
H172	H	1.660353	-0.028768	1.423526
H173	H	1.246411	-0.597225	0.916657
H174	H	1.746411	-0.097225	1.416657
H175	H	1.417493	-1.116003	0.381298
H176	H	1.917493	-0.616003	0.881298
C177	C	0.991415	-0.288916	0.563339
C178	C	1.491415	0.211084	1.063339
H179	H	0.942678	-0.259520	0.600021
H180	H	1.442678	0.240480	1.100021
H181	H	1.032056	-0.323179	0.599009
H182	H	1.532056	0.176821	1.099009
H183	H	1.022246	-0.246326	0.538030
H184	H	1.522246	0.253674	1.038030
C185	C	1.529874	-1.031725	0.281307
C186	C	2.029874	-0.531725	0.781307
H187	H	1.557945	-0.987110	0.256300
H188	H	2.057945	-0.487110	0.756300
H189	H	1.573629	-1.067680	0.312167
H190	H	2.073629	-0.567680	0.812167
H191	H	1.504269	-1.067298	0.234342
H192	H	2.004269	-0.567298	0.734342
C193	C	1.564170	-0.886655	0.250705
C194	C	2.064170	-0.386655	0.750705
H195	H	1.592244	-0.842043	0.225697
H196	H	2.092244	-0.342043	0.725697
H197	H	1.607922	-0.922613	0.281565
H198	H	2.107922	-0.422613	0.781565
H199	H	1.538561	-0.922227	0.203742
H200	H	2.038561	-0.422227	0.703742
C201	C	1.528650	-0.692676	0.282147
C202	C	2.028650	-0.192676	0.782147
H203	H	1.508811	-0.631979	0.299730
H204	H	2.008811	-0.131979	0.799730
H205	H	1.590617	-0.705318	0.296787
H206	H	2.090617	-0.205318	0.796787
H207	H	1.521244	-0.704957	0.218974
H208	H	2.021244	-0.204957	0.718974
C209	C	1.466966	-0.225989	0.952582
C210	C	1.966966	0.274011	1.452582
H211	H	1.492809	-0.192936	1.001347
H212	H	1.992809	0.307064	1.501347
H213	H	1.513633	-0.255559	0.913406
H214	H	2.013633	0.244441	1.413406
H215	H	1.427580	-0.187097	0.920286
H216	H	1.927580	0.312903	1.420286
H217	H	1.445073	-0.253953	1.130857
H218	H	1.945073	0.246047	1.630857
C219	C	1.231008	-0.527680	0.745392
C220	C	1.731008	-0.027680	1.245392
H221	H	1.240603	-0.515412	0.685212
H222	H	1.740603	-0.015412	1.185212
H223	H	1.254149	-0.587325	0.751850
H224	H	1.754149	-0.087325	1.251850
H225	H	1.168099	-0.518859	0.758717
H226	H	1.668099	-0.018859	1.258717
