data_functionalizedCrystal
_audit_creation_method	'MofGen! by Chris Wilmer'
_symmetry_space_group_name_H-M	'P1'
_symmetry_Int_Tables_number	1
_symmetry_cell_setting	triclinic
loop_
_symmetry_equiv_pos_as_xyz
  x,y,z
_cell_length_a	11.792241
_cell_length_b	16.992695
_cell_length_c	15.455301
_cell_angle_alpha	92.826871
_cell_angle_beta	92.979613
_cell_angle_gamma	87.430819
loop_
_atom_site_label
_atom_site_type_symbol
_atom_site_fract_x
_atom_site_fract_y
_atom_site_fract_z
O1	O	-1.520412	-0.110591	-0.072047
O2	O	-1.020412	0.389409	0.427953
O3	O	-1.190979	-0.121673	-0.072068
O4	O	-0.690979	0.378327	0.427932
O5	O	-1.354374	-0.001983	-0.072051
O6	O	-0.854374	0.498017	0.427949
O7	O	-1.357016	-0.230281	-0.072064
O8	O	-0.857016	0.269719	0.427936
O9	O	-1.344930	0.004187	0.072212
O10	O	-0.844930	0.504187	0.572212
O11	O	-1.181534	-0.115502	0.072195
O12	O	-0.681534	0.384498	0.572195
O13	O	-1.510968	-0.104421	0.072215
O14	O	-1.010968	0.395579	0.572215
Cu15	Cu	-1.345389	-0.109399	0.085377
Cu16	Cu	-0.845389	0.390601	0.585377
Cu17	Cu	-1.356558	-0.116695	-0.085230
Cu18	Cu	-0.856558	0.383305	0.414770
O19	O	-1.347572	-0.224110	0.072198
O20	O	-0.847572	0.275890	0.572198
C21	C	-1.143909	-0.117892	0.000061
C22	C	-0.643909	0.382108	0.500061
C23	C	-1.017725	-0.115809	0.000053
C24	C	-0.517725	0.384191	0.500053
C25	C	-1.346254	0.030329	0.000080
C26	C	-0.846254	0.530329	0.500080
C27	C	-1.336116	0.117416	0.000079
C28	C	-0.836116	0.617416	0.500079
C29	C	-1.558038	-0.108202	0.000084
C30	C	-1.058038	0.391798	0.500084
C31	C	-1.684222	-0.110286	0.000086
C32	C	-1.184222	0.389714	0.500086
C33	C	-0.786698	-0.111977	0.000078
C34	C	-0.286698	0.388023	0.500078
C35	C	-0.915258	-0.114106	0.000065
C36	C	-0.415258	0.385894	0.500065
C37	C	-1.355692	-0.256423	0.000065
C38	C	-0.855692	0.243577	0.500065
C39	C	-1.365830	-0.343510	0.000060
C40	C	-0.865830	0.156490	0.500060
N41	N	-1.337541	-0.104266	0.205373
N42	N	-0.837541	0.395734	0.705373
C43	C	-1.433934	0.167241	0.000086
C44	C	-0.933934	0.667241	0.500086
C45	C	-1.424402	0.249067	0.000077
C46	C	-0.924402	0.749067	0.500077
C47	C	-1.317051	0.281068	0.000068
C48	C	-0.817051	0.781068	0.500068
C49	C	-1.219227	0.231237	0.000058
C50	C	-0.719227	0.731237	0.500058
C51	C	-1.228760	0.149411	0.000061
C52	C	-0.728760	0.649411	0.500061
C53	C	-1.277539	0.524833	0.000053
C54	C	-0.777539	1.024833	0.500053
C55	C	-1.268013	0.606665	0.000053
C56	C	-0.768013	1.106665	0.500053
C57	C	-1.473189	0.624490	0.000071
C58	C	-0.973189	1.124490	0.500071
C59	C	-1.482713	0.542663	0.000079
C60	C	-0.982713	1.042663	0.500079
C61	C	-1.384889	0.492838	0.000065
C62	C	-0.884889	0.992838	0.500065
N63	N	-1.307305	0.364708	0.000062
N64	N	-0.807305	0.864708	0.500062
N65	N	-1.394636	0.409200	0.000065
N66	N	-0.894636	0.909200	0.500065
N67	N	-1.364414	-0.121822	-0.205226
N68	N	-0.864414	0.378178	0.294774
C69	C	-1.407750	-0.150222	0.250765
C70	C	-0.907750	0.349778	0.750765
C71	C	-1.401830	-0.146335	0.341573
C72	C	-0.901830	0.353665	0.841573
C73	C	-1.325695	-0.096496	0.386987
C74	C	-0.825695	0.403504	0.886987
C75	C	-1.255483	-0.050536	0.341589
C76	C	-0.755483	0.449464	0.841589
C77	C	-1.261410	-0.054418	0.250783
C78	C	-0.761410	0.445582	0.750783
C79	C	-1.300129	-0.079744	0.658570
C80	C	-0.800129	0.420256	1.158570
C81	C	-1.294205	-0.075866	0.749382
C82	C	-0.794205	0.424134	1.249382
C83	C	-1.440554	-0.171665	0.749360
C84	C	-0.940554	0.328335	1.249360
C85	C	-1.446469	-0.175547	0.658552
C86	C	-0.946469	0.324453	1.158552
C87	C	-1.376262	-0.129583	0.613161
C88	C	-0.876262	0.370417	1.113161
N89	N	-1.319639	-0.092524	0.479808
N90	N	-0.819639	0.407476	0.979808
N91	N	-1.382324	-0.133551	0.520343
N92	N	-0.882324	0.366449	1.020343
H93	H	-1.504055	0.289632	0.000085
H94	H	-1.004055	0.789632	0.500085
O95	O	-1.516281	-0.221225	0.798325
O96	O	-1.016281	0.278775	1.298325
H97	H	-1.498394	-0.284553	0.780902
H98	H	-0.998394	0.215447	1.280902
H99	H	-1.242961	-0.042316	0.621624
H100	H	-0.742961	0.457684	1.121624
O101	O	-1.212089	-0.022107	0.798371
O102	O	-0.712089	0.477893	1.298371
H103	H	-1.164271	0.009208	0.751554
H104	H	-0.664271	0.509208	1.251554
O105	O	-1.172028	0.471104	0.000042
O106	O	-0.672028	0.971104	0.500042
H107	H	-1.196684	0.408828	0.000034
H108	H	-0.696684	0.908828	0.500034
H109	H	-1.131820	0.257297	0.000045
H110	H	-0.631820	0.757297	0.500045
H111	H	-1.459003	-0.183756	0.378527
H112	H	-0.959003	0.316244	0.878527
O113	O	-1.598499	0.508146	0.000068
O114	O	-1.098499	1.008146	0.500068
H115	H	-1.664920	0.556540	0.000058
H116	H	-1.164920	1.056540	0.500058
O117	O	-1.173375	0.003230	0.390564
O118	O	-0.673375	0.503230	0.890564
H119	H	-1.085311	-0.014150	0.373132
H120	H	-0.585311	0.485850	0.873132
H121	H	-1.204238	-0.016997	0.213826
H122	H	-0.704238	0.483003	0.713826
O123	O	-1.528589	-0.229299	0.609570
O124	O	-1.028589	0.270701	1.109570
H125	H	-1.480669	-0.272974	0.568206
H126	H	-0.980669	0.227026	1.068206
O127	O	-1.549724	0.132731	0.000087
O128	O	-1.049724	0.632731	0.500087
H129	H	-1.593246	0.155235	0.058882
H130	H	-1.093246	0.655235	0.558882
O131	O	-1.578698	0.678227	0.000080
O132	O	-1.078698	1.178227	0.500080
H133	H	-1.554040	0.740501	0.000071
H134	H	-1.054040	1.240501	0.500071
O135	O	-1.152224	0.641184	0.000033
O136	O	-0.652224	1.141184	0.500033
H137	H	-1.085801	0.592792	0.000014
H138	H	-0.585801	1.092792	0.500014
H139	H	-1.469740	-0.190810	0.213795
H140	H	-0.969740	0.309190	0.713795
O141	O	-1.123258	0.095665	0.000063
O142	O	-0.623258	0.595665	0.500063
H143	H	-1.047007	0.131663	0.000066
H144	H	-0.547007	0.631663	0.500066
