data_functionalizedCrystal
_audit_creation_method	'MofGen! by Chris Wilmer'
_symmetry_space_group_name_H-M	'P1'
_symmetry_Int_Tables_number	1
_symmetry_cell_setting	triclinic
loop_
_symmetry_equiv_pos_as_xyz
  x,y,z
_cell_length_a	14.908571
_cell_length_b	18.101389
_cell_length_c	14.908520
_cell_angle_alpha	93.278894
_cell_angle_beta	90.205961
_cell_angle_gamma	86.688960
loop_
_atom_site_label
_atom_site_type_symbol
_atom_site_fract_x
_atom_site_fract_y
_atom_site_fract_z
Zn1	Zn	1.353949	-0.503469	-0.437523
Zn2	Zn	1.853949	-0.003469	0.062477
Zn3	Zn	1.345169	-0.386332	-0.587860
Zn4	Zn	1.845169	0.113668	-0.087860
Zn5	Zn	1.203588	-0.372121	-0.428834
Zn6	Zn	1.703588	0.127879	0.071166
Zn7	Zn	1.194876	-0.502614	-0.579147
Zn8	Zn	1.694876	-0.002614	-0.079147
O9	O	1.274395	-0.441134	-0.508341
O10	O	1.774395	0.058866	-0.008341
O11	O	1.478609	-0.494236	-0.464748
O12	O	1.978609	0.005764	0.035252
O13	O	1.326359	-0.280813	-0.566776
O14	O	1.826359	0.219187	-0.066776
O15	O	1.230853	-0.383956	-0.304164
O16	O	1.730853	0.116044	0.195836
O17	O	1.472158	-0.408176	-0.575201
O18	O	1.972158	0.091824	-0.075201
O19	O	1.341323	-0.480457	-0.310547
O20	O	1.841323	0.019543	0.189453
O21	O	1.222340	-0.270373	-0.449940
O22	O	1.722340	0.229627	0.050060
O23	O	1.076607	-0.383126	-0.441491
O24	O	1.576607	0.116874	0.058509
O25	O	1.216006	-0.606361	-0.560349
O26	O	1.716006	-0.106361	-0.060349
O27	O	1.070207	-0.478998	-0.551924
O28	O	1.570207	0.021002	-0.051924
O29	O	1.332876	-0.606990	-0.456299
O30	O	1.832876	-0.106990	0.043701
O31	O	1.317913	-0.407346	-0.712528
O32	O	1.817913	0.092654	-0.212528
O33	O	1.207493	-0.492778	-0.706126
O34	O	1.707493	0.007222	-0.206126
C35	C	1.040782	-0.429428	-0.494820
C36	C	1.540782	0.070572	0.005180
C37	C	0.940841	-0.424438	-0.489057
C38	C	1.440841	0.075562	0.010943
C39	C	0.746413	-0.514774	-0.593401
C40	C	1.246413	-0.014774	-0.093401
C41	C	0.652508	-0.510089	-0.587989
C42	C	1.152508	-0.010089	-0.087989
C43	C	0.659126	-0.410386	-0.472817
C44	C	1.159126	0.089614	0.027183
C45	C	0.753030	-0.415071	-0.478229
C46	C	1.253030	0.084929	0.021771
C47	C	0.796670	-0.467266	-0.538524
C48	C	1.296670	0.032734	-0.038524
C49	C	0.890576	-0.471948	-0.543940
C50	C	1.390576	0.028052	-0.043940
C51	C	0.897192	-0.372249	-0.428764
C52	C	1.397192	0.127751	0.071236
C53	C	0.803288	-0.367563	-0.423352
C54	C	1.303288	0.132437	0.076648
C55	C	1.274449	-0.634298	-0.508321
C56	C	1.774449	-0.134298	-0.008321
C57	C	1.274471	-0.716613	-0.508313
C58	C	1.774471	-0.216613	-0.008313
C59	C	1.274533	-1.015699	-0.508147
C60	C	1.774533	-0.515699	-0.008147
C61	C	1.200776	-0.983956	-0.573378
C62	C	1.700776	-0.483956	-0.073378
C63	C	1.200946	-0.898362	-0.573710
C64	C	1.700946	-0.398362	-0.073710
C65	C	1.274502	-0.867319	-0.508229
C66	C	1.774502	-0.367319	-0.008229
C67	C	1.367755	-0.904304	-0.539426
C68	C	1.867755	-0.404304	-0.039426
C69	C	1.367341	-0.989949	-0.539859
C70	C	1.867341	-0.489949	-0.039859
C71	C	1.255870	-0.978671	-0.411613
C72	C	1.755870	-0.478671	0.088387
C73	C	1.253731	-0.892939	-0.412041
C74	C	1.753731	-0.392939	0.087959
C75	C	1.274490	-0.783461	-0.508275
C76	C	1.774490	-0.283461	-0.008275
C77	C	1.274552	-1.099557	-0.508105
C78	C	1.774552	-0.599557	-0.008105
C79	C	1.508921	-0.452887	-0.521916
C80	C	2.008921	0.047113	-0.021916
C81	C	1.608861	-0.457895	-0.527700
C82	C	2.108861	0.042105	-0.027700
C83	C	1.260829	-0.451529	-0.741953
C84	C	1.760829	0.048471	-0.241953
C85	C	1.255108	-0.456004	-0.841897
C86	C	1.755108	0.043996	-0.341897
C87	C	1.274398	-0.248722	-0.508299
C88	C	1.774398	0.251278	-0.008299
C89	C	1.274564	-0.166405	-0.508064
C90	C	1.774564	0.333595	-0.008064
C91	C	1.359455	-0.375537	-1.036316
C92	C	1.859455	0.124463	-0.536316
C93	C	1.354082	-0.379740	-1.130224
C94	C	1.854082	0.120260	-0.630224
C95	C	1.238995	-0.468617	-1.123621
C96	C	1.738995	0.031383	-0.623621
C97	C	1.244368	-0.464414	-1.029714
C98	C	1.744368	0.035586	-0.529714
C99	C	1.304599	-0.417871	-0.986065
C100	C	1.804599	0.082129	-0.486065
C101	C	1.309966	-0.413665	-0.892156
C102	C	1.809966	0.086335	-0.392156
C103	C	1.194884	-0.502545	-0.885555
C104	C	1.694884	-0.002545	-0.385555
C105	C	1.189511	-0.506748	-0.979462
C106	C	1.689511	-0.006748	-0.479462
C107	C	1.288039	-0.430717	-0.273819
C108	C	1.788039	0.069283	0.226181
C109	C	1.293853	-0.426277	-0.173879
C110	C	1.793853	0.073723	0.326121
H111	H	1.131623	-0.873102	-0.553554
H112	H	1.631623	-0.373102	-0.053554
Cl113	Cl	1.163294	-0.527132	-1.178510
Cl114	Cl	1.663294	-0.027132	-0.678510
H115	H	0.781945	-0.557270	-0.642500
H116	H	1.281945	-0.057270	-0.142500
Cl117	Cl	1.435158	-0.317017	-0.981439
Cl118	Cl	1.935158	0.182983	-0.481439
H119	H	1.398753	-0.345268	-1.171135
H120	H	1.898753	0.154732	-0.671135
Cl121	Cl	1.113800	-0.565257	-1.034344
Cl122	Cl	1.613800	-0.065257	-0.534344
Cl123	Cl	0.945437	-0.537562	-0.619740
Cl124	Cl	1.445437	-0.037562	-0.119740
Cl125	Cl	1.385681	-0.355153	-0.837283
Cl126	Cl	1.885681	0.144847	-0.337283
Cl127	Cl	1.392752	-1.027176	-0.649061
Cl128	Cl	1.892752	-0.527176	-0.149061
H129	H	0.611592	-0.548776	-0.632674
H130	H	1.111592	-0.048776	-0.132674
Cl131	Cl	1.125906	-0.555758	-0.822375
Cl132	Cl	1.625906	-0.055758	-0.322375
H133	H	0.623578	-0.367895	-0.423723
H134	H	1.123578	0.132105	0.076277
H135	H	0.767743	-0.325069	-0.374260
H136	H	1.267743	0.174931	0.125740
H137	H	0.938122	-0.333563	-0.384081
H138	H	1.438122	0.166437	0.115919
H139	H	1.212520	-1.009398	-0.644380
H140	H	1.712520	-0.509398	-0.144380
Cl141	Cl	1.093400	-1.009200	-0.542492
Cl142	Cl	1.593400	-0.509200	-0.042492
Cl143	Cl	1.454518	-0.873643	-0.468751
Cl144	Cl	1.954518	-0.373643	0.031249
Cl145	Cl	1.219336	-0.872823	-0.684002
Cl146	Cl	1.719336	-0.372823	-0.184002
Cl147	Cl	1.454564	-1.022789	-0.470095
Cl148	Cl	1.954564	-0.522789	0.029905
H149	H	1.189340	-0.995821	-0.384255
H150	H	1.689340	-0.495821	0.115745
Cl151	Cl	1.393785	-0.877549	-0.647521
Cl152	Cl	1.893785	-0.377549	-0.147521
Cl153	Cl	1.147813	-0.854846	-0.375873
Cl154	Cl	1.647813	-0.354846	0.124127
Cl155	Cl	1.331304	-0.859824	-0.332339
Cl156	Cl	1.831304	-0.359824	0.167661
H157	H	1.309659	-0.999182	-0.362945
H158	H	1.809659	-0.499182	0.137055
