data_functionalizedCrystal
_audit_creation_method	'MofGen! by Chris Wilmer'
_symmetry_space_group_name_H-M	'P1'
_symmetry_Int_Tables_number	1
_symmetry_cell_setting	triclinic
loop_
_symmetry_equiv_pos_as_xyz
  x,y,z
_cell_length_a	19.077105
_cell_length_b	19.077078
_cell_length_c	19.076919
_cell_angle_alpha	94.468470
_cell_angle_beta	90.076224
_cell_angle_gamma	90.116776
loop_
_atom_site_label
_atom_site_type_symbol
_atom_site_fract_x
_atom_site_fract_y
_atom_site_fract_z
Zn1	Zn	1.044040	-0.340449	-0.453486
Zn2	Zn	1.544040	0.159551	0.046514
Zn3	Zn	1.043950	-0.453599	-0.340322
Zn4	Zn	1.543950	0.046401	0.159678
Zn5	Zn	0.931652	-0.331022	-0.330917
Zn6	Zn	1.431652	0.168978	0.169083
Zn7	Zn	0.921790	-0.453174	-0.453059
Zn8	Zn	1.421790	0.046826	0.046941
O9	O	0.985358	-0.394561	-0.394446
O10	O	1.485358	0.105439	0.105554
O11	O	1.142187	-0.359582	-0.442589
O12	O	1.642187	0.140418	0.057411
O13	O	1.033143	-0.433571	-0.240599
O14	O	1.533143	0.066429	0.259401
O15	O	0.950725	-0.233798	-0.343419
O16	O	1.450725	0.266202	0.156581
O17	O	1.142121	-0.442712	-0.359449
O18	O	1.642121	0.057288	0.140551
O19	O	1.033296	-0.240724	-0.433470
O20	O	1.533296	0.259276	0.066530
O21	O	0.950638	-0.343514	-0.233689
O22	O	1.450638	0.156486	0.266311
O23	O	0.832184	-0.343103	-0.343005
O24	O	1.332184	0.156897	0.156995
O25	O	0.933917	-0.441989	-0.551591
O26	O	1.433917	0.058011	-0.051591
O27	O	0.824938	-0.432848	-0.432742
O28	O	1.324938	0.067152	0.067258
O29	O	1.023733	-0.359170	-0.551905
O30	O	1.523733	0.140830	-0.051905
O31	O	1.023580	-0.552017	-0.359034
O32	O	1.523580	-0.052017	0.140966
O33	O	0.933830	-0.551705	-0.441861
O34	O	1.433830	-0.051705	0.058139
C35	C	0.803109	-0.386907	-0.386807
C36	C	1.303109	0.113093	0.113193
C37	C	0.725141	-0.383650	-0.383556
C38	C	1.225141	0.116350	0.116444
C39	C	0.977643	-0.577396	-0.401438
C40	C	1.477643	-0.077396	0.098562
C41	C	0.974406	-0.655616	-0.404455
C42	C	1.474406	-0.155616	0.095545
C43	C	0.951186	-1.095906	-0.426123
C44	C	1.451186	-0.595906	0.073877
C45	C	0.954228	-1.022408	-0.423280
C46	C	1.454228	-0.522408	0.076720
C47	C	1.002509	-0.985804	-0.378769
C48	C	1.502509	-0.485804	0.121231
C49	C	1.047757	-1.022701	-0.337103
C50	C	1.547757	-0.522701	0.162897
C51	C	1.044718	-1.096197	-0.339950
C52	C	1.544718	-0.596197	0.160050
C53	C	1.016615	-0.766009	-0.365637
C54	C	1.516615	-0.266009	0.134363
C55	C	1.019649	-0.692508	-0.362791
C56	C	1.519649	-0.192508	0.137209
C57	C	0.926121	-0.692221	-0.448970
C58	C	1.426121	-0.192221	0.051030
C59	C	0.923083	-0.765718	-0.451810
C60	C	1.423083	-0.265718	0.048190
C61	C	0.968333	-0.802609	-0.410147
C62	C	1.468333	-0.302609	0.089853
N63	N	1.005618	-0.910678	-0.375860
N64	N	1.505618	-0.410678	0.124140
N65	N	0.965227	-0.877734	-0.413060
N66	N	1.465227	-0.377734	0.086940
C67	C	0.684758	-0.428910	-0.428682
C68	C	1.184758	0.071090	0.071318
C69	C	0.611499	-0.425841	-0.425630
C70	C	1.111499	0.074159	0.074370
C71	C	0.578625	-0.377514	-0.377449
C72	C	1.078625	0.122486	0.122551
C73	C	0.619014	-0.332249	-0.332322
C74	C	1.119014	0.167751	0.167678
C75	C	0.692271	-0.335315	-0.335377
C76	C	1.192271	0.164685	0.164623
C77	C	0.359931	-0.363322	-0.363312
C78	C	0.859931	0.136678	0.136688
C79	C	0.286668	-0.360260	-0.360258
C80	C	0.786668	0.139740	0.139742
C81	C	0.279158	-0.453852	-0.453568
C82	C	0.779158	0.046148	0.046432
C83	C	0.352417	-0.456917	-0.456617
C84	C	0.852417	0.043083	0.043383
C85	C	0.392800	-0.411649	-0.411492
C86	C	0.892800	0.088351	0.088508
N87	N	0.503742	-0.374377	-0.374327
N88	N	1.003742	0.125623	0.125673
N89	N	0.467681	-0.414783	-0.414617
N90	N	0.967681	0.085217	0.085383
C91	C	1.168318	-0.402246	-0.402116
C92	C	1.668318	0.097754	0.097884
C93	C	1.246284	-0.405521	-0.405384
C94	C	1.746284	0.094479	0.094616
C95	C	0.977735	-0.401584	-0.577996
C96	C	1.477735	0.098416	-0.077996
C97	C	0.974486	-0.404576	-0.656214
C98	C	1.474486	0.095424	-0.156214
C99	C	0.993121	-0.211014	-0.387443
C100	C	1.493121	0.288986	0.112557
C101	C	0.996429	-0.132797	-0.384459
C102	C	1.496429	0.367203	0.115541
C103	C	1.019721	-0.362865	-0.693125
C104	C	1.519721	0.137135	-0.193125
C105	C	1.016660	-0.365674	-0.766619
C106	C	1.516660	0.134326	-0.266619
C107	C	0.968368	-0.410198	-0.803200
C108	C	1.468368	0.089802	-0.303200
C109	C	0.923129	-0.451911	-0.766283
C110	C	1.423129	0.048089	-0.266283
C111	C	0.926187	-0.449098	-0.692791
C112	C	1.426187	0.050902	-0.192791
C113	C	0.954205	-0.423231	-1.022981
C114	C	1.454205	0.076769	-0.522981
C115	C	0.951152	-0.426043	-1.096479
C116	C	1.451152	0.073957	-0.596479
C117	C	1.044683	-0.339804	-1.096810
C118	C	1.544683	0.160196	-0.596810
C119	C	1.047739	-0.336998	-1.023316
C120	C	1.547739	0.163002	-0.523316
C121	C	1.002498	-0.378708	-0.986405
C122	C	1.502498	0.121292	-0.486405
N123	N	0.965240	-0.413072	-0.878322
N124	N	1.465240	0.086928	-0.378322
N125	N	1.005623	-0.375830	-0.911284
N126	N	1.505623	0.124170	-0.411284
C127	C	0.992994	-0.387517	-0.211610
C128	C	1.492994	0.112483	0.288390
C129	C	0.996386	-0.384331	-0.133391
C130	C	1.496386	0.115669	0.366609
H131	H	0.911871	-1.125704	-0.462370
H132	H	1.411871	-0.625704	0.037630
H133	H	1.081515	-0.305845	-1.126870
H134	H	1.581515	0.194155	-0.626870
H135	H	0.592242	-0.292897	-0.293094
H136	H	1.092242	0.207103	0.206906
H137	H	1.087072	-0.992893	-0.300864
H138	H	1.587072	-0.492893	0.199136
H139	H	1.058968	-0.662708	-0.326542
H140	H	1.558968	-0.162708	0.173458
H141	H	1.059047	-0.326611	-0.663346
H142	H	1.559047	0.173389	-0.163346
H143	H	0.917376	-0.457205	-0.992938
H144	H	1.417376	0.042795	-0.492938
H145	H	0.911825	-0.462301	-1.126261
H146	H	1.411825	0.037699	-0.626261
H147	H	1.081561	-1.126233	-0.306024
H148	H	1.581561	-0.626233	0.193976
H149	H	1.053459	-0.796037	-0.331709
H150	H	1.553459	-0.296037	0.168291
H151	H	0.711518	-0.468265	-0.467914
H152	H	1.211518	0.031735	0.032086
H153	H	0.259904	-0.320899	-0.321027
H154	H	0.759904	0.179101	0.178973
H155	H	0.725151	-0.298456	-0.298634
H156	H	1.225151	0.201544	0.201366
H157	H	0.379178	-0.496271	-0.495849
H158	H	0.879178	0.003729	0.004151
H159	H	1.087065	-0.300744	-0.993537
H160	H	1.587065	0.199256	-0.493537
H161	H	1.053496	-0.331710	-0.796669
H162	H	1.553496	0.168290	-0.296669
H163	H	0.392802	-0.326467	-0.326563
H164	H	0.892802	0.173533	0.173437
H165	H	0.917388	-0.992372	-0.457207
H166	H	1.417388	-0.492372	0.042793
H167	H	0.883759	-0.795516	-0.488047
H168	H	1.383759	-0.295516	0.011953
H169	H	0.889281	-0.662178	-0.482891
H170	H	1.389281	-0.162178	0.017109
H171	H	0.883806	-0.488161	-0.796073
H172	H	1.383806	0.011839	-0.296073
H173	H	0.889345	-0.483056	-0.662738
H174	H	1.389345	0.016944	-0.162738
H175	H	0.578622	-0.462697	-0.462376
H176	H	1.078622	0.037303	0.037624
H177	H	0.246271	-0.490705	-0.490308
H178	H	0.746271	0.009295	0.009692
