data_functionalizedCrystal
_audit_creation_method	'MofGen! by Chris Wilmer'
_symmetry_space_group_name_H-M	'P1'
_symmetry_Int_Tables_number	1
_symmetry_cell_setting	triclinic
loop_
_symmetry_equiv_pos_as_xyz
  x,y,z
_cell_length_a	16.974829
_cell_length_b	16.974813
_cell_length_c	15.455313
_cell_angle_alpha	89.012317
_cell_angle_beta	83.671566
_cell_angle_gamma	83.162295
loop_
_atom_site_label
_atom_site_type_symbol
_atom_site_fract_x
_atom_site_fract_y
_atom_site_fract_z
O1	O	1.056388	0.093471	-0.152843
O2	O	1.556388	0.593471	0.347157
O3	O	0.825434	0.107033	-0.137585
O4	O	1.325434	0.607033	0.362415
O5	O	0.946962	-0.014492	-0.137580
O6	O	1.446962	0.485508	0.362420
O7	O	0.934860	0.214996	-0.152848
O8	O	1.434860	0.714996	0.347152
O9	O	0.940012	-0.007571	0.006684
O10	O	1.440012	0.492429	0.506684
O11	O	0.818484	0.113954	0.006679
O12	O	1.318484	0.613954	0.506679
O13	O	1.049438	0.100392	-0.008579
O14	O	1.549438	0.600392	0.491421
Cu15	Cu	0.933327	0.107805	0.012222
Cu16	Cu	1.433327	0.607805	0.512222
Cu17	Cu	0.941545	0.099620	-0.158386
Cu18	Cu	1.441545	0.599620	0.341614
O19	O	0.927911	0.221917	-0.008584
O20	O	1.427911	0.721917	0.491416
C21	C	0.792400	0.110105	-0.063351
C22	C	1.292400	0.610105	0.436649
C23	C	0.704324	0.108939	-0.057087
C24	C	1.204324	0.608939	0.442913
C25	C	0.942897	-0.040389	-0.063347
C26	C	1.442897	0.459611	0.436653
C27	C	0.941132	-0.127863	-0.057085
C28	C	1.441132	0.372137	0.442915
C29	C	0.208137	0.102806	-0.013389
C30	C	0.708137	0.602806	0.486611
C31	C	0.290894	0.103902	-0.019276
C32	C	0.790894	0.603902	0.480724
C33	C	0.336062	0.100671	-0.100859
C34	C	0.836062	0.600671	0.399141
C35	C	0.298468	0.096352	-0.176560
C36	C	0.798468	0.596352	0.323440
C37	C	0.215711	0.095262	-0.170673
C38	C	0.715711	0.595262	0.329327
C39	C	0.583973	0.103531	-0.126901
C40	C	1.083973	0.603531	0.373099
C41	C	0.666735	0.104619	-0.132782
C42	C	1.166735	0.604619	0.367218
C43	C	0.659156	0.112169	0.024502
C44	C	1.159156	0.612169	0.524502
C45	C	0.576399	0.111074	0.030383
C46	C	1.076399	0.611074	0.530383
C47	C	0.538811	0.106760	-0.045318
C48	C	1.038811	0.606760	0.454682
N49	N	0.420654	0.101788	-0.106879
N50	N	0.920654	0.601788	0.393121
N51	N	0.454220	0.105648	-0.039299
N52	N	0.954220	0.605648	0.460701
C53	C	0.944092	-0.172727	-0.132781
C54	C	1.444092	0.327273	0.367219
C55	C	0.942428	-0.254918	-0.126895
C56	C	1.442428	0.245082	0.373105
C57	C	0.937809	-0.292245	-0.045312
C58	C	1.437809	0.207755	0.454688
C59	C	0.934846	-0.247374	0.030390
C60	C	1.434846	0.252626	0.530390
C61	C	0.936504	-0.165184	0.024503
C62	C	1.436504	0.334816	0.524503
C63	C	0.932436	-0.537652	-0.019272
C64	C	1.432436	-0.037652	0.480728
C65	C	0.930780	-0.619848	-0.013390
C66	C	1.430780	-0.119848	0.486610
C67	C	0.938361	-0.627386	-0.170676
C68	C	1.438361	-0.127386	0.329324
C69	C	0.940024	-0.545195	-0.176556
C70	C	1.440024	-0.045195	0.323444
C71	C	0.937057	-0.500331	-0.100854
C72	C	1.437057	-0.000331	0.399146
N73	N	0.936110	-0.376257	-0.039293
N74	N	1.436110	0.123743	0.460707
N75	N	0.938750	-0.416319	-0.106873
N76	N	1.438750	0.083681	0.393127
C77	C	1.082472	0.097319	-0.082815
C78	C	1.582472	0.597319	0.417185
C79	C	1.170549	0.098485	-0.089084
C80	C	1.670549	0.598485	0.410916
C81	C	0.931975	0.247813	-0.082819
C82	C	1.431975	0.747813	0.417181
C83	C	0.933741	0.335288	-0.089086
C84	C	1.433741	0.835288	0.410914
N85	N	0.927552	0.113561	0.132219
N86	N	1.427552	0.613561	0.632219
N87	N	0.947326	0.093858	-0.278383
N88	N	1.447326	0.593858	0.221617
C89	C	0.979199	0.061952	0.177612
C90	C	1.479199	0.561952	0.677612
C91	C	0.974839	0.066312	0.268420
C92	C	1.474839	0.566312	0.768420
C93	C	0.918835	0.122286	0.313832
C94	C	1.418835	0.622286	0.813832
C95	C	0.867183	0.173898	0.268432
C96	C	1.367183	0.673898	0.768432
C97	C	0.871539	0.169533	0.177627
C98	C	1.371539	0.669533	0.677627
C99	C	0.900030	0.141104	0.585412
C100	C	1.400030	0.641104	1.085412
C101	C	0.895679	0.145467	0.676223
C102	C	1.395679	0.645467	1.176223
C103	C	1.003335	0.037880	0.676205
C104	C	1.503335	0.537880	1.176205
C105	C	1.007690	0.033523	0.585397
C106	C	1.507690	0.533523	1.085397
C107	C	0.956035	0.085132	0.540006
C108	C	1.456035	0.585132	1.040006
N109	N	0.914379	0.126746	0.406652
N110	N	1.414379	0.626746	0.906652
N111	N	0.960488	0.080668	0.447188
N112	N	1.460488	0.580668	0.947188
H113	H	0.171367	0.105440	0.053044
H114	H	0.671367	0.605440	0.553044
H115	H	1.045390	-0.004138	0.713171
H116	H	1.545390	0.495862	1.213171
H117	H	1.024807	0.016375	0.140644
H118	H	1.524807	0.516375	0.640644
H119	H	0.821579	0.219470	0.305413
H120	H	1.321579	0.719470	0.805413
C121	C	0.370806	0.177242	0.061209
C122	C	0.870806	0.677242	0.561209
C123	C	0.332215	0.108644	0.063929
C124	C	0.832215	0.608644	0.563929
H125	H	0.396312	0.180170	0.112581
H126	H	0.896312	0.680170	0.612581
H127	H	0.409544	0.175473	0.011784
H128	H	0.909544	0.675473	0.511784
H129	H	0.332730	0.222606	0.057431
H130	H	0.832730	0.722606	0.557431
H131	H	0.370293	0.063280	0.067700
H132	H	0.870293	0.563280	0.567700
H133	H	0.293474	0.110407	0.113368
H134	H	0.793474	0.610407	0.613368
H135	H	0.944842	-0.291444	-0.188535
H136	H	1.444842	0.208556	0.311465
H137	H	0.943787	-0.514810	-0.242990
H138	H	1.443787	-0.014810	0.257010
C139	C	0.789677	0.251359	0.667129
C140	C	1.289677	0.751359	1.167129
C141	C	0.834104	0.206987	0.726144
C142	C	1.334104	0.706987	1.226144
H143	H	0.751661	0.289331	0.697950
H144	H	1.251661	0.789331	1.197950
H145	H	0.824453	0.277887	0.627399
H146	H	1.324453	0.777887	1.127399
H147	H	0.762776	0.216949	0.636023
H148	H	1.262776	0.716949	1.136023
H149	H	0.861010	0.241396	0.757245
H150	H	1.361010	0.741396	1.257245
H151	H	0.799322	0.180457	0.765889
H152	H	1.299322	0.680457	1.265889
C153	C	0.951409	-0.188441	-0.287657
C154	C	1.451409	0.311559	0.212343
C155	C	0.949167	-0.131702	-0.222461
C156	C	1.449167	0.368298	0.277539
H157	H	0.954535	-0.163113	-0.343022
H158	H	1.454535	0.336887	0.156978
H159	H	0.996824	-0.226551	-0.284899
H160	H	1.496824	0.273449	0.215101
H161	H	0.904380	-0.214130	-0.279272
H162	H	1.404380	0.285870	0.220728
H163	H	0.996200	-0.106017	-0.230843
H164	H	1.496200	0.393983	0.269157
H165	H	0.903748	-0.093578	-0.225221
H166	H	1.403748	0.406422	0.274779
H167	H	0.829482	0.211558	0.140668
H168	H	1.329482	0.711558	0.640668
H169	H	0.185108	0.091746	-0.232312
H170	H	0.685108	0.591746	0.267688
H171	H	0.940775	-0.663923	-0.232308
H172	H	1.440775	-0.163923	0.267692
H173	H	0.539631	0.113688	0.096817
H174	H	1.039631	0.613688	0.596817
C175	C	0.772947	0.033724	-0.226517
C176	C	1.272947	0.533724	0.273483
C177	C	0.716380	0.101071	-0.222469
C178	C	1.216380	0.601071	0.277531
H179	H	0.803590	0.031532	-0.281886
H180	H	1.303590	0.531532	0.218114
H181	H	0.807176	0.036454	-0.182285
H182	H	1.307176	0.536454	0.317715
H183	H	0.746435	-0.012489	-0.218141
H184	H	1.246435	0.487511	0.281859
H185	H	0.742893	0.147284	-0.230838
H186	H	1.242893	0.647284	0.269162
H187	H	0.682146	0.098347	-0.266714
H188	H	1.182146	0.598347	0.233286
H189	H	1.016894	0.024287	0.305379
H190	H	1.516894	0.524287	0.805379
C191	C	0.923437	-0.604144	0.141497
C192	C	1.423437	-0.104144	0.641497
C193	C	0.925696	-0.660878	0.076293
C194	C	1.425696	-0.160878	0.576293
H195	H	0.920294	-0.629475	0.196860
H196	H	1.420294	-0.129475	0.696860
H197	H	0.970459	-0.578455	0.133131
H198	H	1.470459	-0.078455	0.633131
H199	H	0.878016	-0.566031	0.138729
H200	H	1.378016	-0.066031	0.638729
H201	H	0.971120	-0.698988	0.079057
H202	H	1.471120	-0.198988	0.579057
H203	H	0.878669	-0.686580	0.084662
H204	H	1.378669	-0.186580	0.584662
H205	H	0.857972	0.183128	0.548461
H206	H	1.357972	0.683128	1.048461
H207	H	0.689769	0.115684	0.086133
H208	H	1.189769	0.615684	0.586133
H209	H	0.553380	0.100015	-0.188542
H210	H	1.053380	0.600015	0.311458
H211	H	0.335249	0.093726	-0.242987
H212	H	0.835249	0.593726	0.257013
C213	C	1.002103	-0.077532	0.104999
C214	C	1.502103	0.422468	0.604999
C215	C	0.933248	-0.115868	0.107712
C216	C	1.433248	0.384132	0.607712
H217	H	1.000084	-0.047085	0.156370
H218	H	1.500084	0.452915	0.656370
H219	H	1.047828	-0.115961	0.101225
H220	H	1.547828	0.384039	0.601225
H221	H	1.005083	-0.043540	0.055567
H222	H	1.505083	0.456460	0.555567
H223	H	0.930271	-0.149865	0.157140
H224	H	1.430271	0.350135	0.657140
H225	H	0.887511	-0.077434	0.111495
H226	H	1.387511	0.422566	0.611495
H227	H	0.930036	-0.501136	0.042369
H228	H	1.430036	-0.001136	0.542369
H229	H	0.931080	-0.277771	0.096817
H230	H	1.431080	0.222229	0.596817
H231	H	1.053293	-0.012055	0.548425
H232	H	1.553293	0.487945	1.048425
