data_functionalizedCrystal
_audit_creation_method	'MofGen! by Chris Wilmer'
_symmetry_space_group_name_H-M	'P1'
_symmetry_Int_Tables_number	1
_symmetry_cell_setting	triclinic
loop_
_symmetry_equiv_pos_as_xyz
  x,y,z
_cell_length_a	27.731996
_cell_length_b	15.455341
_cell_length_c	16.956995
_cell_angle_alpha	93.160271
_cell_angle_beta	79.337929
_cell_angle_gamma	93.005407
loop_
_atom_site_label
_atom_site_type_symbol
_atom_site_fract_x
_atom_site_fract_y
_atom_site_fract_z
O1	O	0.018278	-0.072193	1.054682
O2	O	0.035256	-0.072185	0.822311
O3	O	-0.043888	-0.072171	0.945736
O4	O	0.097421	-0.072208	0.931257
O5	O	-0.040361	0.072089	0.951924
O6	O	0.038783	0.072075	0.828499
O7	O	0.021805	0.072067	1.060870
Cu8	Cu	0.030616	0.085243	0.945249
Cu9	Cu	0.026445	-0.085361	0.937931
O10	O	0.100948	0.072052	0.937445
C11	C	0.037889	-0.000054	0.795686
C12	C	0.040473	-0.000050	0.707133
C13	C	-0.060121	-0.000038	0.948532
C14	C	-0.113745	-0.000029	0.947637
N15	N	0.033549	0.205237	0.950402
C16	C	-0.448186	-0.078707	0.938626
C17	C	-0.649724	-0.078722	0.935224
O18	O	-0.677413	-0.145600	0.931881
N19	N	-0.673003	-0.000087	0.938175
C20	C	-0.645894	0.078558	0.941971
O21	O	-0.670318	0.145442	0.944394
C22	C	-0.444357	0.078572	0.945367
C23	C	-0.421081	-0.000068	0.942425
C24	C	-0.424909	-0.157341	0.935683
C25	C	-0.374528	-0.157337	0.936538
C26	C	-0.347424	-0.078698	0.940336
C27	C	-0.370700	-0.000064	0.943279
C28	C	-0.417248	0.157216	0.949157
C29	C	-0.366860	0.157213	0.950004
C30	C	-0.343584	0.078572	0.947062
C31	C	-0.293214	0.078579	0.947933
N32	N	-0.269934	-0.000056	0.944982
C33	C	-0.297039	-0.078695	0.941184
C34	C	-0.751705	0.078545	0.940189
C35	C	-0.802089	0.078542	0.939341
C36	C	-0.805915	-0.078739	0.932593
C37	C	-0.755530	-0.078735	0.933447
C38	C	-0.728425	-0.000090	0.937238
C39	C	-0.191235	-0.078679	0.942980
C40	C	-0.140850	-0.078667	0.943839
C41	C	-0.137028	0.078612	0.950583
C42	C	-0.187410	0.078601	0.949728
C43	C	-0.214512	-0.000051	0.945924
O44	O	-0.265494	0.145422	0.951265
O45	O	-0.272604	-0.145569	0.938743
C46	C	-0.498567	-0.078712	0.937771
C47	C	-0.521843	-0.000078	0.940715
C48	C	-0.494738	0.078561	0.944513
C49	C	-0.572227	-0.000081	0.939867
C50	C	-0.599332	-0.078720	0.936069
C51	C	-0.576052	-0.157355	0.933118
C52	C	-0.525671	-0.157350	0.933973
C53	C	-0.518017	0.157197	0.947463
C54	C	-0.568399	0.157186	0.946609
C55	C	-0.595504	0.078547	0.942811
C56	C	0.117182	-0.000083	0.934648
C57	C	0.170806	-0.000097	0.935543
N58	N	0.023507	-0.205355	0.932785
C59	C	0.049812	0.749235	0.978848
C60	C	0.047590	0.658428	0.974956
C61	C	0.019060	0.613034	0.925004
C62	C	-0.007246	0.658450	0.878935
C63	C	-0.005021	0.749255	0.882824
C64	C	0.009468	0.341458	0.908222
C65	C	0.007244	0.250647	0.904339
C66	C	0.062081	0.250631	1.000359
C67	C	0.064301	0.341438	1.004246
C68	C	0.037998	0.386846	0.958175
N69	N	0.016787	0.520215	0.921026
N70	N	0.040274	0.479664	0.962149
C71	C	0.059807	-0.000087	0.207587
C72	C	0.057375	-0.000086	0.290792
C73	C	0.011723	-0.000067	0.342458
C74	C	-0.031500	-0.000059	0.310914
C75	C	-0.029068	-0.000066	0.227709
C76	C	-0.000317	-0.000049	0.592384
C77	C	-0.002746	-0.000039	0.675594
C78	C	0.086129	-0.000067	0.655466
C79	C	0.088558	-0.000070	0.572261
C80	C	0.045335	-0.000066	0.540724
N81	N	0.009236	-0.000063	0.427508
N82	N	0.047822	-0.000076	0.455675
C83	C	0.019172	-0.000066	1.087495
C84	C	0.016587	-0.000076	1.176047
H85	H	-0.121902	-0.142709	0.941444
H86	H	-0.446973	-0.221382	0.932587
H87	H	-0.827993	-0.142770	0.929501
F88	F	-0.018527	0.389774	0.859188
F89	F	0.132127	-0.000076	0.689037
H90	H	-0.035512	-0.000043	0.566717
H91	H	0.125732	-0.000087	0.530199
F92	F	-0.075068	-0.000055	0.194144
F93	F	-0.037607	0.610135	0.825768
H94	H	-0.026440	0.786227	0.845312
H95	H	-0.213296	-0.142726	0.939878
F96	F	0.108397	-0.000100	0.152607
F97	F	-0.338016	0.240919	0.954040
F98	F	0.090075	0.202298	1.049386
H99	H	-0.039924	-0.000028	0.717659
F100	F	-0.023136	0.202336	0.851191
F101	F	-0.489176	0.240899	0.951500
F102	F	0.103375	-0.000102	0.324354
F103	F	0.075602	0.610104	1.023961
F104	F	-0.080087	-0.000042	0.365902
H105	H	-0.355582	-0.221374	0.934139
F106	F	-0.212184	0.162299	0.952875
F107	F	-0.826857	0.162241	0.942488
F108	F	-0.730763	-0.162434	0.930313
F109	F	-0.722863	0.162255	0.944221
H110	H	0.087533	0.378392	1.044924
F111	F	-0.442008	0.240918	0.952286
H112	H	-0.114951	0.142638	0.953679
H113	H	-0.506725	-0.221388	0.931577
F114	F	-0.604909	-0.241048	0.929080
H115	H	-0.587346	0.221229	0.949012
F116	F	0.080176	0.797539	1.032019
