data_functionalizedCrystal
_audit_creation_method	'MofGen! by Chris Wilmer'
_symmetry_space_group_name_H-M	'P1'
_symmetry_Int_Tables_number	1
_symmetry_cell_setting	triclinic
loop_
_symmetry_equiv_pos_as_xyz
  x,y,z
_cell_length_a	15.297475
_cell_length_b	12.645330
_cell_length_c	15.296720
_cell_angle_alpha	80.350659
_cell_angle_beta	88.382886
_cell_angle_gamma	80.321044
loop_
_atom_site_label
_atom_site_type_symbol
_atom_site_fract_x
_atom_site_fract_y
_atom_site_fract_z
Zn1	Zn	1.253448	-0.825067	0.726648
Zn2	Zn	1.278720	-0.977718	0.580172
Zn3	Zn	1.132323	-0.765511	0.554885
Zn4	Zn	1.106946	-0.967297	0.701300
O5	O	1.192859	-0.883898	0.640751
O6	O	1.379380	-0.874601	0.728408
O7	O	1.280497	-0.929005	0.454242
O8	O	1.148435	-0.625078	0.577695
O9	O	1.397947	-0.986754	0.620794
O10	O	1.237425	-0.668833	0.703888
O11	O	1.172939	-0.773098	0.435663
O12	O	1.006377	-0.762993	0.553116
O13	O	1.105183	-0.968993	0.827238
O14	O	0.987732	-0.911244	0.660687
O15	O	1.212818	-0.864497	0.845861
O16	O	1.255889	-1.124669	0.596215
O17	O	1.129687	-1.117013	0.685207
C18	C	0.965271	-0.829526	0.601408
C19	C	0.867904	-0.806295	0.584597
C20	C	0.554772	-1.049945	0.760902
C21	C	0.646253	-1.071780	0.776693
C22	C	0.701670	-1.005410	0.728671
C23	C	0.665597	-0.917203	0.664853
C24	C	0.574108	-0.895371	0.649055
C25	C	0.721006	-0.850836	0.616824
C26	C	0.684933	-0.762629	0.553007
C27	C	0.593452	-0.740801	0.537212
C28	C	0.538035	-0.807170	0.585234
C29	C	0.812496	-0.872668	0.632623
C30	C	0.831831	-0.718094	0.520776
C31	C	0.740350	-0.696259	0.504984
C32	C	1.192797	-1.159311	0.640728
C33	C	1.192846	-1.277157	0.640761
C34	C	1.113695	-1.440051	0.697003
C35	C	1.113388	-1.317372	0.696725
C36	C	1.183843	-1.300270	0.544135
C37	C	1.183360	-1.422840	0.544476
C38	C	1.281541	-1.470384	0.680468
C39	C	1.280623	-1.347981	0.682388
C40	C	1.421336	-0.938483	0.680249
C41	C	1.518699	-0.961744	0.697081
C42	C	1.153351	-0.922226	0.869221
C43	C	1.136514	-0.938559	0.966581
C44	C	1.192942	-0.607419	0.640798
C45	C	1.192977	-0.489600	0.640818
C46	C	1.232264	-0.845655	0.413179
C47	C	1.249270	-0.829064	0.315849
C48	C	1.313223	-0.766986	1.279808
C49	C	1.329047	-0.751644	1.188334
C50	C	1.280915	-0.798371	1.132891
C51	C	1.216957	-0.860444	1.168931
C52	C	1.201136	-0.875795	1.260415
C53	C	1.168828	-0.907179	1.113499
C54	C	1.104870	-0.969252	1.149538
C55	C	1.089052	-0.984600	1.241013
C56	C	1.137183	-0.937873	1.296456
C57	C	1.184649	-0.891828	1.022015
C58	C	1.072562	-1.000637	1.002622
C59	C	1.056738	-1.015979	1.094096
H60	H	1.117169	-1.302455	0.767873
C61	C	1.096538	-1.435205	0.501615
N62	N	1.031139	-1.444513	0.469335
C63	C	1.098056	-1.232674	0.500946
N64	N	1.033438	-1.181764	0.468421
H65	H	1.236723	-0.841287	0.992680
C66	C	0.700658	-0.599236	0.434783
N67	N	0.670760	-0.526159	0.381907
H68	H	0.463542	-0.789395	0.572381
C69	C	1.399391	-0.683355	1.148696
N70	N	1.452375	-0.631911	1.118839
C71	C	1.290214	-1.330061	0.778549
N72	N	1.297442	-1.316544	0.850972
C73	C	1.361074	-1.514563	0.625452
N74	N	1.420971	-1.547844	0.584011
C75	C	0.685927	-1.168807	0.846889
N76	N	0.715810	-1.241893	0.899764
H77	H	1.036980	-1.035154	1.270355
C78	C	1.298317	-0.781481	1.032267
N79	N	1.311422	-0.768750	0.956472
H80	H	1.117294	-1.484703	0.768350
C81	C	0.493809	-1.122944	0.813715
N82	N	0.447890	-1.177931	0.853498
C83	C	1.025089	-1.456247	0.660174
N84	N	0.958352	-1.468442	0.632429
H85	H	0.876953	-0.664052	0.481671
H86	H	1.352410	-0.728955	1.324958
H87	H	0.776158	-1.023193	0.741533
C88	C	1.024225	-1.252163	0.659594
N89	N	0.957055	-1.203050	0.631646
C90	C	0.553775	-0.643771	0.467009
N91	N	0.523891	-0.570686	0.414133
C92	C	1.259148	-1.466213	0.484822
N93	N	1.316225	-1.498876	0.439885
H94	H	0.841857	-0.944487	0.684584
C95	C	1.119793	-0.954764	1.397086
N96	N	1.106701	-0.967492	1.472883
H97	H	1.240465	-1.273756	0.500427
H98	H	1.292878	-1.517792	0.750574
C99	C	0.986384	-1.084256	1.133752
N100	N	0.933392	-1.135680	1.163622
H101	H	1.341522	-1.322277	0.645717
C102	C	1.019612	-1.052038	0.941638
N103	N	0.979733	-1.090750	0.895700
