data_functionalizedCrystal
_audit_creation_method	'MofGen! by Chris Wilmer'
_symmetry_space_group_name_H-M	'P1'
_symmetry_Int_Tables_number	1
_symmetry_cell_setting	triclinic
loop_
_symmetry_equiv_pos_as_xyz
  x,y,z
_cell_length_a	10.654545
_cell_length_b	14.044220
_cell_length_c	9.130313
_cell_angle_alpha	90.003971
_cell_angle_beta	90.003278
_cell_angle_gamma	88.835978
loop_
_atom_site_label
_atom_site_type_symbol
_atom_site_fract_x
_atom_site_fract_y
_atom_site_fract_z
O1	O	1.681230	0.133209	0.121789
O2	O	2.181230	0.633209	0.621789
O3	O	1.317026	0.145907	0.121796
O4	O	1.817026	0.645907	0.621796
O5	O	1.493661	0.001537	0.121778
O6	O	1.993661	0.501537	0.621778
O7	O	1.504595	0.277578	0.121807
O8	O	2.004595	0.777578	0.621807
O9	O	1.493647	0.001537	-0.121821
O10	O	1.993647	0.501537	0.378179
O11	O	1.317012	0.145907	-0.121803
O12	O	1.817012	0.645907	0.378197
O13	O	1.681215	0.133209	-0.121810
O14	O	2.181215	0.633209	0.378190
Cu15	Cu	1.499112	0.139558	-0.144049
Cu16	Cu	1.999112	0.639558	0.355951
Cu17	Cu	1.499129	0.139558	0.144035
Cu18	Cu	1.999129	0.639558	0.644035
O19	O	1.504580	0.277578	-0.121792
O20	O	2.004580	0.777578	0.378208
C21	C	1.270128	0.144975	-0.000003
C22	C	1.770128	0.644975	0.499997
C23	C	1.130404	0.142189	-0.000001
C24	C	1.630404	0.642189	0.499999
C25	C	1.064760	0.140877	-0.132788
C26	C	1.564760	0.640877	0.367212
C27	C	0.933476	0.138243	-0.132788
C28	C	1.433476	0.638243	0.367212
C29	C	0.933491	0.138236	0.132797
C30	C	1.433491	0.638236	0.632797
C31	C	1.064773	0.140864	0.132796
C32	C	1.564773	0.640864	0.632796
C33	C	1.488868	-0.033808	-0.000022
C34	C	1.988868	0.466192	0.499978
C35	C	1.474593	-0.139128	-0.000023
C36	C	1.974593	0.360872	0.499977
C37	C	1.448494	-0.331961	-0.000002
C38	C	1.948494	0.168039	0.499998
C39	C	1.549742	-0.388929	0.000001
C40	C	2.049742	0.111071	0.500001
C41	C	1.535220	-0.496228	0.000013
C42	C	2.035220	0.003772	0.500013
C43	C	1.463014	-0.224652	-0.000014
C44	C	1.963014	0.275348	0.499986
C45	C	1.728114	0.134140	-0.000008
C46	C	2.228114	0.634140	0.499992
C47	C	1.867838	0.136927	-0.000000
C48	C	2.367838	0.636927	0.500000
C49	C	1.509373	0.312924	0.000011
C50	C	2.009373	0.812924	0.500011
C51	C	1.523649	0.418244	0.000022
C52	C	2.023649	0.918244	0.500022
N53	N	1.499109	0.139557	-0.346671
N54	N	1.999109	0.639557	0.153329
C55	C	1.581776	0.197624	-0.423313
C56	C	2.081776	0.697624	0.076687
C57	C	1.581795	0.197619	-0.576650
C58	C	2.081795	0.697619	-0.076650
C59	C	1.416471	0.081477	-0.576690
C60	C	1.916471	0.581477	-0.076690
C61	C	1.416459	0.081478	-0.423356
C62	C	1.916459	0.581478	0.076644
N63	N	1.499141	0.139551	0.346658
N64	N	1.999141	0.639551	0.846658
H65	H	1.118192	0.141956	-0.240919
H66	H	1.618192	0.641956	0.259081
Br67	Br	0.844391	0.136461	-0.313007
Br68	Br	1.344391	0.636461	0.186993
H69	H	1.118223	0.141929	0.240933
H70	H	1.618223	0.641929	0.740933
H71	H	1.649112	0.244902	-0.639045
H72	H	2.149112	0.744902	-0.139045
Br73	Br	0.844415	0.136409	0.313012
Br74	Br	1.344415	0.636409	0.813012
H75	H	1.647329	-0.357118	0.000097
H76	H	2.147329	0.142882	0.500097
H77	H	1.350914	-0.363770	0.000004
H78	H	1.850914	0.136230	0.500004
Br79	Br	1.304301	0.002666	-0.680771
Br80	Br	1.804301	0.502666	-0.180771
Br81	Br	1.304260	0.002667	-0.319332
Br82	Br	1.804260	0.502667	0.180668
H83	H	1.649075	0.244916	-0.360881
H84	H	2.149075	0.744916	0.139119
