data_functionalizedCrystal
_audit_creation_method	'MofGen! by Chris Wilmer'
_symmetry_space_group_name_H-M	'P1'
_symmetry_Int_Tables_number	1
_symmetry_cell_setting	triclinic
loop_
_symmetry_equiv_pos_as_xyz
  x,y,z
_cell_length_a	10.654545
_cell_length_b	11.792254
_cell_length_c	9.130313
_cell_angle_alpha	89.995304
_cell_angle_beta	89.996934
_cell_angle_gamma	84.340838
loop_
_atom_site_label
_atom_site_type_symbol
_atom_site_fract_x
_atom_site_fract_y
_atom_site_fract_z
O1	O	1.667400	0.159395	-0.121786
O2	O	1.301878	0.174588	-0.121792
O3	O	1.493501	0.001842	-0.121778
O4	O	1.475777	0.332141	-0.121799
O5	O	1.493488	0.001837	0.121821
O6	O	1.301865	0.174583	0.121807
O7	O	1.667387	0.159389	0.121813
Cu8	Cu	1.484625	0.166986	0.144053
Cu9	Cu	1.484640	0.166992	-0.144031
O10	O	1.475764	0.332136	0.121800
C11	C	1.255077	0.173471	0.000007
C12	C	1.115643	0.170137	0.000005
C13	C	1.050135	0.168564	0.132792
C14	C	0.919125	0.165412	0.132792
C15	C	0.919140	0.165410	-0.132793
C16	C	1.050149	0.168554	-0.132792
C17	C	1.492378	-0.040454	0.000021
C18	C	1.489036	-0.166474	0.000019
C19	C	1.486321	-0.268817	0.000014
C20	C	1.482926	-0.397212	0.000001
C21	C	1.714188	0.160506	0.000011
C22	C	1.853623	0.163841	0.000004
C23	C	1.476887	0.374431	-0.000002
C24	C	1.480229	0.500452	-0.000011
N25	N	1.484623	0.166981	0.346675
N26	N	1.484652	0.166988	-0.346654
C27	C	1.569502	0.090521	0.423333
C28	C	1.569514	0.090522	0.576670
C29	C	1.399764	0.243451	0.576678
C30	C	1.399747	0.243444	0.423344
H31	H	1.638612	0.028259	0.360914
H32	H	1.330661	0.305707	0.639116
H33	H	0.865794	0.164132	0.240920
H34	H	1.330622	0.305707	0.360925
N35	N	1.120801	0.170252	-0.276027
H36	H	1.165456	0.241790	-0.281954
H37	H	1.184793	0.101271	-0.281852
N38	N	1.120770	0.170268	0.276020
H39	H	1.107673	0.099484	0.334078
H40	H	1.213676	0.172545	0.255759
N41	N	0.848488	0.163705	-0.276010
H42	H	0.784430	0.232638	-0.281937
H43	H	0.909951	0.165133	-0.360051
N44	N	1.661080	0.008071	0.659353
H45	H	1.714848	-0.040360	0.587512
H46	H	1.716887	0.052015	0.722942
