data_functionalizedCrystal
_audit_creation_method	'MofGen! by Chris Wilmer'
_symmetry_space_group_name_H-M	'P1'
_symmetry_Int_Tables_number	1
_symmetry_cell_setting	triclinic
loop_
_symmetry_equiv_pos_as_xyz
  x,y,z
_cell_length_a	18.215407
_cell_length_b	19.077068
_cell_length_c	18.215399
_cell_angle_alpha	87.731836
_cell_angle_beta	90.016899
_cell_angle_gamma	92.324397
loop_
_atom_site_label
_atom_site_type_symbol
_atom_site_fract_x
_atom_site_fract_y
_atom_site_fract_z
Zn1	Zn	1.113286	-0.280256	0.427814
Zn2	Zn	1.613286	0.219744	0.927814
Zn3	Zn	1.108244	-0.397957	0.309685
Zn4	Zn	1.608244	0.102043	0.809685
Zn5	Zn	0.990217	-0.280273	0.304768
Zn6	Zn	1.490217	0.219727	0.804768
Zn7	Zn	0.985236	-0.397912	0.432714
Zn8	Zn	1.485236	0.102088	0.932714
O9	O	1.049246	-0.339100	0.368745
O10	O	1.549246	0.160900	0.868745
O11	O	1.215601	-0.295881	0.412151
O12	O	1.715601	0.204119	0.912151
O13	O	1.092562	-0.382372	0.206049
O14	O	1.592562	0.117628	0.706049
O15	O	1.010737	-0.181780	0.316982
O16	O	1.510737	0.318220	0.816982
O17	O	1.211896	-0.382356	0.325362
O18	O	1.711896	0.117644	0.825362
O19	O	1.101155	-0.181767	0.407383
O20	O	1.601155	0.318233	0.907383
O21	O	1.005849	-0.295910	0.202437
O22	O	1.505849	0.204090	0.702437
O23	O	0.886573	-0.295866	0.321734
O24	O	1.386573	0.204134	0.821734
O25	O	1.002247	-0.382279	0.535047
O26	O	1.502247	0.117721	1.035047
O27	O	0.882913	-0.382295	0.415735
O28	O	1.382913	0.117705	0.915735
O29	O	1.096325	-0.295837	0.531447
O30	O	1.596325	0.204163	1.031447
O31	O	1.087732	-0.496442	0.330113
O32	O	1.587732	0.003558	0.830113
O33	O	0.997358	-0.496409	0.420502
O34	O	1.497358	0.003591	0.920502
C35	C	0.858040	-0.339078	0.368733
C36	C	1.358040	0.160922	0.868733
C37	C	0.776241	-0.339086	0.368746
C38	C	1.276241	0.160914	0.868746
C39	C	0.509293	-0.384177	0.417630
C40	C	1.009293	0.115823	0.917630
C41	C	0.586152	-0.384171	0.417626
C42	C	1.086152	0.115829	0.917626
C43	C	0.589939	-0.294038	0.319874
C44	C	1.089939	0.205962	0.819874
C45	C	0.513081	-0.294048	0.319875
C46	C	1.013081	0.205952	0.819875
C47	C	0.472760	-0.339116	0.368757
C48	C	0.972760	0.160884	0.868757
C49	C	0.626477	-0.339100	0.368752
C50	C	1.126477	0.160900	0.868752
C51	C	0.709811	-0.339094	0.368748
C52	C	1.209811	0.160906	0.868748
C53	C	0.389421	-0.339124	0.368761
C54	C	0.889421	0.160876	0.868761
C55	C	1.041478	-0.521963	0.376389
C56	C	1.541478	-0.021963	0.876389
C57	C	1.038222	-0.600193	0.379684
C58	C	1.538222	-0.100193	0.879684
C59	C	1.083781	-0.636940	0.334210
C60	C	1.583781	-0.136940	0.834210
C61	C	1.080723	-0.710445	0.337313
C62	C	1.580723	-0.210445	0.837313
C63	C	1.032101	-0.747202	0.385887
C64	C	1.532101	-0.247202	0.885887
C65	C	0.986540	-0.710451	0.431366
C66	C	1.486540	-0.210451	0.931366
C67	C	0.989602	-0.636947	0.428266
C68	C	1.489602	-0.136947	0.928266
C69	C	1.017897	-0.967036	0.400204
C70	C	1.517897	-0.467036	0.900204
C71	C	1.014837	-1.040545	0.403299
C72	C	1.514837	-0.540545	0.903299
C73	C	1.109021	-1.040535	0.309246
C74	C	1.609021	-0.540535	0.809246
C75	C	1.112076	-0.967029	0.306148
C76	C	1.612076	-0.467029	0.806148
C77	C	1.066517	-0.930284	0.351629
C78	C	1.566517	-0.430284	0.851629
N79	N	1.028973	-0.822337	0.389058
N80	N	1.528973	-0.322337	0.889058
N81	N	1.069650	-0.855151	0.348461
N82	N	1.569650	-0.355151	0.848461
C83	C	1.241198	-0.339122	0.368758
C84	C	1.741198	0.160878	0.868758
C85	C	1.322996	-0.339131	0.368763
C86	C	1.822996	0.160869	0.868763
C87	C	1.049293	-0.339051	0.560696
C88	C	1.549293	0.160949	1.060696
C89	C	1.049313	-0.339030	0.642494
C90	C	1.549313	0.160970	1.142494
C91	C	1.057064	-0.155522	0.361088
C92	C	1.557064	0.344478	0.861088
C93	C	1.060396	-0.077292	0.357825
C94	C	1.560396	0.422708	0.857825
C95	C	1.049244	-0.339097	0.177539
C96	C	1.549244	0.160903	0.677539
C97	C	1.049374	-0.338920	0.095733
C98	C	1.549374	0.161080	0.595733
C99	C	1.098317	-0.293978	0.828813
C100	C	1.598317	0.206022	1.328813
C101	C	1.098327	-0.293958	0.905671
C102	C	1.598327	0.206042	1.405671
C103	C	1.000364	-0.383974	0.909409
C104	C	1.500364	0.116026	1.409409
C105	C	1.000352	-0.383990	0.832552
C106	C	1.500352	0.116010	1.332552
C107	C	1.049332	-0.338993	0.792256
C108	C	1.549332	0.161007	1.292256
C109	C	1.049355	-0.338956	0.945971
C110	C	1.549355	0.161044	1.445971
C111	C	1.049365	-0.338935	1.029304
C112	C	1.549365	0.161065	1.529304
C113	C	1.049322	-0.339014	0.708918
C114	C	1.549322	0.160986	1.208918
H115	H	1.123371	-0.607017	0.294653
H116	H	1.623371	-0.107017	0.794653
H117	H	1.138214	-0.257301	0.935432
H118	H	1.638214	0.242699	1.435432
H119	H	0.615894	-0.420865	0.457423
H120	H	1.115894	0.079135	0.957423
C121	C	1.159136	-1.080956	0.259227
C122	C	1.659136	-0.580956	0.759227
H123	H	1.150355	-1.129996	0.268032
H124	H	1.650355	-0.629996	0.768032
H125	H	1.148898	-1.068950	0.209264
H126	H	1.648898	-0.568950	0.709264
H127	H	1.209082	-1.068864	0.269538
H128	H	1.709082	-0.568864	0.769538
C129	C	0.946467	-0.433508	0.792333
C130	C	1.446467	0.066492	1.292333
H131	H	0.953470	-0.427066	0.740789
H132	H	1.453470	0.072934	1.240789
H133	H	0.955223	-0.480796	0.806898
H134	H	1.455223	0.019204	1.306898
H135	H	0.897458	-0.423194	0.804492
H136	H	1.397458	0.076806	1.304492
H137	H	0.960488	-0.420610	0.942227
H138	H	1.460488	0.079390	1.442227
H139	H	1.117822	-0.740361	0.300283
H140	H	1.617822	-0.240361	0.800283
H141	H	0.476467	-0.420875	0.457433
H142	H	0.976467	0.079125	0.957433
H143	H	0.622777	-0.257344	0.280077
H144	H	1.122777	0.242656	0.780077
C145	C	1.165564	-0.926601	0.252721
C146	C	1.665564	-0.426601	0.752721
H147	H	1.192266	-0.959014	0.226087
H148	H	1.692266	-0.459014	0.726087
H149	H	1.138626	-0.897968	0.219424
H150	H	1.638626	-0.397968	0.719424
H151	H	1.198812	-0.897887	0.279697
H152	H	1.698812	-0.397887	0.779697
H153	H	0.980800	-0.937124	0.437235
H154	H	1.480800	-0.437124	0.937235
H155	H	0.483335	-0.257353	0.280073
H156	H	0.983335	0.242647	0.780073
H157	H	0.975252	-1.070471	0.442866
H158	H	1.475252	-0.570471	0.942866
C159	C	0.933056	-0.750882	0.484794
C160	C	1.433056	-0.250882	0.984794
H161	H	0.937750	-0.799921	0.480122
H162	H	1.437750	-0.299921	0.980122
H163	H	0.944298	-0.738797	0.533741
H164	H	1.444298	-0.238797	1.033741
H165	H	0.884113	-0.738877	0.473467
H166	H	1.384113	-0.238877	0.973467
C167	C	0.939488	-0.596525	0.478288
C168	C	1.439488	-0.096525	0.978288
H169	H	0.910088	-0.628943	0.507658
H170	H	1.410088	-0.128943	1.007658
H171	H	0.968821	-0.567811	0.509165
H172	H	1.468821	-0.067811	1.009165
H173	H	0.908628	-0.567893	0.448900
H174	H	1.408628	-0.067893	0.948900
C175	C	1.152185	-0.244475	0.784490
C176	C	1.652185	0.255525	1.284490
H177	H	1.181354	-0.217658	0.817272
H178	H	1.681354	0.282342	1.317272
H179	H	1.183102	-0.271402	0.755632
H180	H	1.683102	0.228598	1.255632
H181	H	1.125324	-0.213812	0.753229
H182	H	1.625324	0.286188	1.253229
