data_functionalizedCrystal
_audit_creation_method	'MofGen! by Chris Wilmer'
_symmetry_space_group_name_H-M	'P1'
_symmetry_Int_Tables_number	1
_symmetry_cell_setting	triclinic
loop_
_symmetry_equiv_pos_as_xyz
  x,y,z
_cell_length_a	20.875641
_cell_length_b	14.560438
_cell_length_c	14.560438
_cell_angle_alpha	60.001579
_cell_angle_beta	89.999987
_cell_angle_gamma	57.589171
loop_
_atom_site_label
_atom_site_type_symbol
_atom_site_fract_x
_atom_site_fract_y
_atom_site_fract_z
Zr1	Zr	0.641476	0.937869	-0.086820
O2	O	0.535152	1.140641	-0.239047
O3	O	0.674071	0.742843	-0.040157
O4	O	0.674069	0.934443	-0.231756
O5	O	0.535155	0.949041	0.103691
O6	O	0.783649	0.922929	-0.226001
O7	O	0.535153	0.949041	-0.047448
O8	O	0.783653	0.580191	0.116734
O9	O	0.535152	1.291779	-0.239044
O10	O	0.769750	0.811597	-0.015958
O11	O	0.687973	0.820191	0.092541
O12	O	0.687971	1.045775	-0.133042
O13	O	0.606193	1.054369	-0.024543
Zr14	Zr	0.816247	0.919505	0.163407
Zr15	Zr	0.816245	0.919504	-0.077643
Zr16	Zr	0.641479	0.937869	0.154230
Zr17	Zr	0.641477	1.178916	-0.086816
Zr18	Zr	0.816247	0.678457	0.163403
O19	O	0.783653	1.114530	0.116744
O20	O	0.783649	1.114529	-0.225998
O21	O	0.535155	1.140642	0.103695
O22	O	0.922572	0.716732	0.315634
O23	O	0.922568	0.716731	-0.027108
O24	O	0.674074	0.742844	0.302585
O25	O	0.922569	0.908332	-0.027104
O26	O	0.783655	0.922930	0.308343
O27	O	0.674075	0.934445	0.302589
O28	O	0.922570	0.908332	0.124035
O29	O	0.674069	1.277182	-0.231749
O30	O	0.783655	0.580191	0.308336
O31	O	0.922572	0.565594	0.315631
O32	O	0.922570	0.565594	0.124029
O33	O	0.535154	1.291780	-0.047442
O34	O	0.674071	1.277182	-0.040147
O35	O	0.769753	0.811598	0.209629
O36	O	0.851530	0.803004	0.101130
O37	O	0.769751	1.037183	-0.015954
O38	O	0.687973	1.045776	0.092545
C39	C	0.728861	0.627173	0.038288
C40	C	0.728861	0.524842	0.038286
C41	C	0.510254	0.951658	0.026814
C42	C	0.436060	0.959454	0.022918
C43	C	0.771547	0.472280	-0.018350
C44	C	0.771550	0.376121	-0.018339
C45	C	0.686176	0.385097	0.094944
C46	C	0.686178	0.481248	0.094940
C47	C	0.443889	0.840881	0.082198
C48	C	0.374174	0.848215	0.078535
C49	C	0.296629	0.974122	0.015584
C50	C	0.288801	1.092704	-0.043698
C51	C	0.358516	1.085369	-0.040028
C52	C	0.083551	1.009166	-0.001942
C53	C	0.013834	1.016492	-0.005611
C54	C	0.099212	0.772002	0.116624
C55	C	0.168924	0.764679	0.120284
C56	C	0.161090	0.883260	0.061007
N57	N	0.225368	0.981621	0.011835
N58	N	0.232351	0.875760	0.064763
C59	C	0.947470	0.905716	0.049773
C60	C	1.021664	0.897919	0.053670
C61	C	0.728859	0.928686	-0.263223
C62	C	0.728857	0.928686	-0.365555
C63	C	0.728862	1.230200	0.038299
C64	C	0.728862	1.332531	0.038301
C65	C	0.668494	0.935032	-0.512963
C66	C	0.668491	0.935026	-0.416809
C67	C	0.789236	0.922337	-0.410454
C68	C	0.789242	0.922333	-0.506602
C69	C	0.728865	0.928687	0.339810
C70	C	0.728866	0.928688	0.442142
C71	C	0.947470	0.604202	0.049768
C72	C	1.021663	0.494075	0.053662
C73	C	0.728865	0.627174	0.339805
C74	C	0.728866	0.524843	0.442135
C75	C	0.947473	0.604202	0.351284
C76	C	1.021668	0.494075	0.457510
C77	C	0.510251	1.253171	-0.274697
C78	C	0.436056	1.363298	-0.380923
C79	C	0.510254	1.253172	0.026820
C80	C	0.436060	1.363299	0.022925
C81	C	0.728859	1.230200	-0.263217
C82	C	0.728858	1.332531	-0.365547
C83	C	1.013817	0.446843	-0.005638
C84	C	1.083523	0.343381	-0.002002
C85	C	1.161075	0.287145	0.060941
C86	C	1.168919	0.334387	0.120243
C87	C	1.099214	0.437854	0.116600
C88	C	1.099205	0.437872	0.450760
C89	C	1.168925	0.334409	0.550562
C90	C	1.161107	0.287144	0.657113
C91	C	1.083562	0.343358	0.663861
C92	C	1.013843	0.446826	0.564060
C93	C	0.358519	1.419513	-0.374173
C94	C	0.288798	1.523006	-0.473975
C95	C	0.296617	1.570276	-0.580526
C96	C	0.374162	1.514056	-0.587273
C97	C	0.443881	1.410571	-0.487473
C98	C	0.443907	1.410540	0.082215
C99	C	0.374201	1.514029	0.078553
C100	C	0.296649	1.570268	0.015606
C101	C	0.288804	1.523022	-0.043691
C102	C	0.358510	1.419542	-0.040035
C103	C	0.771554	0.472280	0.551328
C104	C	0.771545	0.376140	0.647474
C105	C	0.686160	0.385129	0.525218
C106	C	0.686164	0.481275	0.429075
H107	H	0.806303	0.507770	-0.064479
Cl108	Cl	0.383977	1.573491	-0.721233
Cl109	Cl	0.825233	0.527052	0.567749
Cl110	Cl	0.191316	1.250989	-0.122829
Cl111	Cl	0.541392	1.339867	0.161351
H112	H	1.232060	0.288650	0.545048
H113	H	1.217827	0.202896	0.063900
H114	H	0.239897	1.654528	0.012638
H115	H	1.217883	0.202893	0.738369
H116	H	0.105581	0.675460	0.164885
H117	H	0.651398	0.524076	0.340158
H118	H	0.077162	1.105724	-0.050230
Cl119	Cl	0.632518	0.547321	0.166154
Cl120	Cl	0.916332	0.517524	-0.084782
H121	H	0.838408	0.917163	-0.543155
H122	H	0.838392	0.917167	-0.368713
H123	H	0.950712	0.492574	0.569572
H124	H	0.352110	1.381082	-0.088313
H125	H	0.380556	0.751660	0.126809
Cl126	Cl	1.073643	0.284008	-0.076554
H127	H	0.225653	1.568828	-0.094942
H128	H	1.232071	0.288585	0.171490
H129	H	0.352136	1.181924	-0.088286
H130	H	0.651395	0.349642	0.514599
Cl131	Cl	0.825211	0.310051	-0.089546
H132	H	0.651424	0.349593	0.141068
H133	H	1.105614	0.476296	0.164896
Cl134	Cl	1.109055	0.497277	0.316823
Cl135	Cl	1.073747	0.283922	0.797820
Cl136	Cl	0.825210	0.310069	0.784745
Cl137	Cl	0.191324	1.593656	-0.465466
Cl138	Cl	0.541370	0.682589	0.161334
H139	H	0.232061	0.662151	0.171523
Cl140	Cl	0.208961	1.700371	-0.705981
Cl141	Cl	-0.083654	1.174788	-0.084767
Cl142	Cl	0.348669	1.360110	-0.240236
H143	H	0.507013	1.364802	-0.492982
Cl144	Cl	0.592596	0.943012	-0.577392
Cl145	Cl	0.592592	0.942997	-0.360371
H146	H	0.380604	1.552479	0.126845
