data_functionalizedCrystal
_audit_creation_method	'MofGen! by Chris Wilmer'
_symmetry_space_group_name_H-M	'P1'
_symmetry_Int_Tables_number	1
_symmetry_cell_setting	triclinic
loop_
_symmetry_equiv_pos_as_xyz
  x,y,z
_cell_length_a	16.959455
_cell_length_b	25.639240
_cell_length_c	16.959447
_cell_angle_alpha	90.040258
_cell_angle_beta	90.014322
_cell_angle_gamma	90.029705
loop_
_atom_site_label
_atom_site_type_symbol
_atom_site_fract_x
_atom_site_fract_y
_atom_site_fract_z
Zn1	Zn	1.208314	-0.208183	0.446854
Zn2	Zn	1.708314	0.291817	0.946854
Zn3	Zn	1.208207	-0.295624	0.314653
Zn4	Zn	1.708207	0.204376	0.814653
Zn5	Zn	1.076143	-0.208199	0.314692
Zn6	Zn	1.576143	0.291801	0.814692
Zn7	Zn	1.076078	-0.295585	0.446791
Zn8	Zn	1.576078	0.204415	0.946791
O9	O	1.142185	-0.251898	0.380747
O10	O	1.642185	0.248102	0.880747
O11	O	1.318911	-0.219792	0.429327
O12	O	1.818911	0.280208	0.929327
O13	O	1.190671	-0.284050	0.204047
O14	O	1.690671	0.215950	0.704047
O15	O	1.093747	-0.135032	0.332266
O16	O	1.593747	0.364968	0.832266
O17	O	1.318832	-0.284034	0.332199
O18	O	1.818832	0.215966	0.832199
O19	O	1.190853	-0.135020	0.429365
O20	O	1.690853	0.364980	0.929365
O21	O	1.093644	-0.219820	0.204075
O22	O	1.593644	0.280180	0.704075
O23	O	0.965523	-0.219782	0.332205
O24	O	1.465523	0.280218	0.832205
O25	O	1.093637	-0.283967	0.557410
O26	O	1.593637	0.216033	1.057410
O27	O	0.965476	-0.283983	0.429258
O28	O	1.465476	0.216017	0.929258
O29	O	1.190790	-0.219754	0.557457
O30	O	1.690790	0.280246	1.057457
O31	O	1.190608	-0.368784	0.332138
O32	O	1.690608	0.131216	0.832138
O33	O	1.093533	-0.368755	0.429220
O34	O	1.593533	0.131245	0.929220
C35	C	0.936819	-0.251880	0.380729
C36	C	1.436819	0.248120	0.880729
C37	C	0.848963	-0.251886	0.380740
C38	C	1.348963	0.248114	0.880740
C39	C	1.142074	-0.387740	0.380685
C40	C	1.642074	0.112260	0.880685
C41	C	1.142098	-0.445854	0.380685
C42	C	1.642098	0.054146	0.880685
C43	C	0.477487	-0.218441	0.330317
C44	C	0.977487	0.281559	0.830317
C45	C	0.477487	-0.285398	0.431222
C46	C	0.977487	0.214602	0.931222
C47	C	0.560033	-0.285390	0.431218
C48	C	1.060033	0.214610	0.931218
C49	C	0.601310	-0.251908	0.380761
C50	C	1.101310	0.248092	0.880761
C51	C	0.560041	-0.218433	0.330309
C52	C	1.060041	0.281567	0.830309
C53	C	0.601308	-0.318868	0.481663
C54	C	1.101308	0.181132	0.981663
C55	C	0.683859	-0.318863	0.481659
C56	C	1.183859	0.181137	0.981659
C57	C	0.725137	-0.285377	0.431206
C58	C	1.225137	0.214623	0.931206
C59	C	0.683863	-0.251901	0.380753
C60	C	1.183863	0.248099	0.880753
C61	C	0.725140	-0.218418	0.330297
C62	C	1.225140	0.281582	0.830297
C63	C	0.683868	-0.184939	0.279847
C64	C	1.183868	0.315061	0.779847
C65	C	0.601319	-0.184948	0.279856
C66	C	1.101319	0.315052	0.779856
C67	C	0.807686	-0.285368	0.431197
C68	C	1.307686	0.214632	0.931197
C69	C	0.807694	-0.218411	0.330288
C70	C	1.307694	0.281589	0.830288
C71	C	1.192774	-0.806173	0.431398
C72	C	1.692774	-0.306173	0.931398
C73	C	1.192797	-0.860777	0.431414
C74	C	1.692797	-0.360777	0.931414
O75	O	1.235750	-0.888976	0.474468
O76	O	1.735750	-0.388976	0.974468
N77	N	1.142295	-0.888137	0.380824
N78	N	1.642295	-0.388137	0.880824
C79	C	1.091761	-0.860889	0.330220
C80	C	1.591761	-0.360889	0.830220
O81	O	1.048807	-0.889175	0.287190
O82	O	1.548807	-0.389175	0.787190
C83	C	1.091734	-0.806286	0.330208
C84	C	1.591734	-0.306286	0.830208
C85	C	1.142245	-0.778929	0.380796
C86	C	1.642245	-0.278929	0.880796
C87	C	1.243280	-0.778816	0.481983
C88	C	1.743280	-0.278816	0.981983
C89	C	1.243257	-0.724215	0.481965
C90	C	1.743257	-0.224215	0.981965
C91	C	1.192729	-0.696972	0.431364
C92	C	1.692729	-0.196972	0.931364
C93	C	1.142223	-0.724329	0.380779
C94	C	1.642223	-0.224329	0.880779
C95	C	1.041197	-0.779040	0.279609
C96	C	1.541197	-0.279040	0.779609
C97	C	1.041174	-0.724433	0.279602
C98	C	1.541174	-0.224433	0.779602
C99	C	1.091685	-0.697076	0.330190
C100	C	1.591685	-0.197076	0.830190
C101	C	1.091672	-0.642485	0.330160
C102	C	1.591672	-0.142485	0.830160
N103	N	1.142173	-0.615125	0.380750
N104	N	1.642173	-0.115125	0.880750
C105	C	1.192702	-0.642368	0.431352
C106	C	1.692702	-0.142368	0.931352
C107	C	1.091820	-0.975560	0.330249
C108	C	1.591820	-0.475560	0.830249
C109	C	1.091850	-1.030162	0.330255
C110	C	1.591850	-0.530162	0.830255
C111	C	1.192885	-1.030046	0.431451
C112	C	1.692885	-0.530046	0.931451
C113	C	1.192858	-0.975443	0.431440
C114	C	1.692858	-0.475443	0.931440
C115	C	1.142322	-0.948200	0.380839
C116	C	1.642322	-0.448200	0.880839
C117	C	1.192651	-0.527703	0.431311
C118	C	1.692651	-0.027703	0.931311
C119	C	1.192627	-0.473098	0.431287
C120	C	1.692627	0.026902	0.931287
C121	C	1.091589	-0.473219	0.330095
C122	C	1.591589	0.026781	0.830095
C123	C	1.091616	-0.527819	0.330116
C124	C	1.591616	-0.027819	0.830116
C125	C	1.142150	-0.555060	0.380730
C126	C	1.642150	-0.055060	0.880730
O127	O	1.048738	-0.614251	0.287130
O128	O	1.548738	-0.114251	0.787130
O129	O	1.235641	-0.614076	0.474381
O130	O	1.735641	-0.114076	0.974381
C131	C	1.348354	-0.251915	0.380766
C132	C	1.848354	0.248085	0.880766
C133	C	1.436210	-0.251923	0.380774
C134	C	1.936210	0.248077	0.880774
C135	C	1.142218	-0.251854	0.586916
C136	C	1.642218	0.248146	1.086916
C137	C	1.142232	-0.251836	0.674772
C138	C	1.642232	0.248164	1.174772
C139	C	1.142319	-0.115525	0.380827
C140	C	1.642319	0.384475	0.880827
C141	C	1.142376	-0.057411	0.380861
C142	C	1.642376	0.442589	0.880861
C143	C	1.142198	-0.251903	0.175381
C144	C	1.642198	0.248097	0.675381
C145	C	1.142337	-0.251774	0.087525
C146	C	1.642337	0.248226	0.587525
C147	C	1.091744	-0.285214	1.046227
C148	C	1.591744	0.214786	1.546227
C149	C	1.192910	-0.218348	1.046270
C150	C	1.692910	0.281652	1.546270
C151	C	1.192889	-0.218359	0.963724
C152	C	1.692889	0.281641	1.463724
C153	C	1.142295	-0.251799	0.922425
C154	C	1.642295	0.248201	1.422425
C155	C	1.091723	-0.285227	0.963673
C156	C	1.591723	0.214773	1.463673
C157	C	1.243467	-0.184935	0.922470
C158	C	1.743467	0.315065	1.422470
C159	C	1.243448	-0.184945	0.839919
C160	C	1.743448	0.315055	1.339919
C161	C	1.192850	-0.218382	0.798619
C162	C	1.692850	0.281618	1.298619
C163	C	1.142274	-0.251812	0.839872
C164	C	1.642274	0.248188	1.339872
C165	C	1.091681	-0.285251	0.798573
C166	C	1.591681	0.214749	1.298573
C167	C	1.041101	-0.318679	0.839825
C168	C	1.541101	0.181321	1.339825
C169	C	1.041124	-0.318665	0.922373
C170	C	1.541124	0.181335	1.422373
C171	C	1.192826	-0.218396	0.716071
C172	C	1.692826	0.281604	1.216071
C173	C	1.091660	-0.285265	0.716020
C174	C	1.591660	0.214735	1.216020
H175	H	0.841296	-0.191142	0.289205
H176	H	1.341296	0.308858	0.789205
H177	H	1.234106	-0.191126	1.079900
H178	H	1.734106	0.308874	1.579900
H179	H	1.050493	-0.550095	0.288916
H180	H	1.550493	-0.050095	0.788916
H181	H	1.000066	-0.801305	0.238414
H182	H	1.500066	-0.301305	0.738414
H183	H	0.999911	-0.345907	0.806189
H184	H	1.499911	0.154093	1.306189
H185	H	1.050669	-0.953382	0.289037
H186	H	1.550669	-0.453382	0.789037
H187	H	0.717456	-0.346123	0.522739
H188	H	1.217456	0.153877	1.022739
H189	H	0.841286	-0.312628	0.472270
H190	H	1.341286	0.187372	0.972270
H191	H	1.000019	-0.702255	0.238397
H192	H	1.500019	-0.202255	0.738397
H193	H	0.717486	-0.157680	0.238762
H194	H	1.217486	0.342320	0.738762
H195	H	1.050452	-0.451029	0.288893
H196	H	1.550452	0.048971	0.788893
H197	H	1.234010	-0.191182	0.682488
H198	H	1.734010	0.308818	1.182488
H199	H	1.284426	-0.800991	0.523194
H200	H	1.784426	-0.300991	1.023194
H201	H	0.567694	-0.346132	0.522736
H202	H	1.067694	0.153868	1.022736
H203	H	1.284662	-0.157713	0.956101
H204	H	1.784662	0.342287	1.456101
H205	H	1.233795	-0.549876	0.472532
H206	H	1.733795	-0.049876	0.972532
H207	H	0.567708	-0.157691	0.238782
H208	H	1.067708	0.342309	0.738782
H209	H	1.233761	-0.450825	0.472482
H210	H	1.733761	0.049175	0.972482
H211	H	0.443880	-0.191181	0.289245
H212	H	0.943880	0.308819	0.789245
H213	H	0.443874	-0.312661	0.472297
H214	H	0.943874	0.187339	0.972297
H215	H	1.284385	-0.701944	0.523161
H216	H	1.784385	-0.201944	1.023161
H217	H	1.233988	-0.953172	0.472633
H218	H	1.733988	-0.453172	0.972633
H219	H	1.234027	-1.052238	0.472656
H220	H	1.734027	-0.552238	0.972656
H221	H	1.050728	-1.052432	0.289053
H222	H	1.550728	-0.552432	0.789053
H223	H	0.999947	-0.345881	0.955967
H224	H	1.499947	0.154119	1.455967
H225	H	1.050452	-0.312491	0.682401
H226	H	1.550452	0.187509	1.182401
H227	H	1.050560	-0.312428	1.079817
H228	H	1.550560	0.187572	1.579817
H229	H	1.284633	-0.157726	0.806339
H230	H	1.784633	0.342274	1.306339
