data_functionalizedCrystal
_audit_creation_method	'MofGen! by Chris Wilmer'
_symmetry_space_group_name_H-M	'P1'
_symmetry_Int_Tables_number	1
_symmetry_cell_setting	triclinic
loop_
_symmetry_equiv_pos_as_xyz
  x,y,z
_cell_length_a	25.639239
_cell_length_b	12.759401
_cell_length_c	12.759393
_cell_angle_alpha	89.979105
_cell_angle_beta	90.037052
_cell_angle_gamma	89.962692
loop_
_atom_site_label
_atom_site_type_symbol
_atom_site_fract_x
_atom_site_fract_y
_atom_site_fract_z
Zn1	Zn	-0.208139	-1.606080	0.594008
Zn2	Zn	-0.295586	-1.605901	0.418312
Zn3	Zn	-0.208164	-1.430382	0.418341
Zn4	Zn	-0.295543	-1.430297	0.593946
O5	O	-0.251858	-1.518165	0.506152
O6	O	-0.219747	-1.753078	0.570716
O7	O	-0.284018	-1.582579	0.271294
O8	O	-0.134996	-1.453799	0.441681
O9	O	-0.283993	-1.752946	0.441632
O10	O	-0.134977	-1.582884	0.570744
O11	O	-0.219789	-1.453626	0.271316
O12	O	-0.219748	-1.283350	0.441621
O13	O	-0.283921	-1.453655	0.740975
O14	O	-0.283945	-1.283288	0.570637
O15	O	-0.219705	-1.582802	0.741021
O16	O	-0.368745	-1.582496	0.441572
O17	O	-0.368714	-1.453481	0.570609
C18	C	-0.251845	-1.245198	0.506126
C19	C	-0.251852	-1.128421	0.506140
C20	C	-0.387701	-1.517989	0.506104
C21	C	-0.445815	-1.518009	0.506118
C22	C	-0.285263	-0.963767	0.438850
C23	C	-0.285254	-1.073491	0.438835
C24	C	-0.218454	-1.073621	0.573457
C25	C	-0.218461	-0.963899	0.573466
C26	C	-0.318671	-0.908843	0.371548
C27	C	-0.352068	-0.963636	0.304230
C28	C	-0.352059	-1.073360	0.304214
C29	C	-0.318652	-1.128291	0.371518
C30	C	-0.806181	-1.585519	0.439076
C31	C	-0.860786	-1.585560	0.439090
O32	O	-0.889026	-1.642775	0.382036
N33	N	-0.888097	-1.518350	0.506221
C34	C	-0.860801	-1.451103	0.573350
O35	O	-0.889046	-1.393940	0.630452
C36	C	-0.806198	-1.451068	0.573341
C37	C	-0.778890	-1.518275	0.506198
C38	C	-0.778873	-1.652721	0.371940
C39	C	-0.724272	-1.652678	0.371924
C40	C	-0.696980	-1.585434	0.439046
C41	C	-0.724289	-1.518232	0.506182
C42	C	-0.778903	-1.383827	0.640474
C43	C	-0.724296	-1.383799	0.640459
C44	C	-0.696988	-1.451005	0.573316
C45	C	-0.642397	-1.450946	0.573289
N46	N	-0.615085	-1.518155	0.506158
C47	C	-0.642377	-1.585399	0.439036
C48	C	-0.975472	-1.451182	0.573366
C49	C	-1.030074	-1.451210	0.573371
C50	C	-1.030055	-1.585669	0.439113
C51	C	-0.975452	-1.585634	0.439103
C52	C	-0.948161	-1.518391	0.506235
C53	C	-0.527712	-1.585305	0.439009
C54	C	-0.473107	-1.585253	0.438997
C55	C	-0.473131	-1.450799	0.573259
C56	C	-0.527731	-1.450846	0.573268
C57	C	-0.555021	-1.518108	0.506139
O58	O	-0.614122	-1.393762	0.630317
O59	O	-0.614126	-1.642562	0.381954
C60	C	-0.115485	-1.518371	0.506223
C61	C	-0.057371	-1.518459	0.506253
C62	C	-0.251805	-1.518239	0.780185
C63	C	-0.251783	-1.518270	0.896962
C64	C	-0.251870	-0.792198	0.506172
C65	C	-0.251869	-0.908975	0.506164
C66	C	-0.251873	-1.518152	0.233184
C67	C	-0.251748	-1.518325	0.116408
C68	C	-0.218343	-1.585526	0.951850
C69	C	-0.218324	-1.585551	1.061574
C70	C	-0.285190	-1.451061	1.061513
C71	C	-0.285206	-1.451032	0.951791
C72	C	-0.184920	-1.652765	0.897021
C73	C	-0.151478	-1.720027	0.951909
C74	C	-0.151459	-1.720052	1.061633
C75	C	-0.184882	-1.652815	1.116469
H76	H	-0.379265	-0.918903	0.249429
O77	O	-0.317642	-1.385858	1.114940
C78	C	-0.310449	-1.400291	1.223554
H79	H	-0.293326	-1.481400	1.238556
H80	H	-0.282600	-1.338023	1.254708
C81	C	-0.384373	-1.290986	1.261421
C82	C	-0.363347	-1.390609	1.279848
H83	H	-0.417002	-1.285009	1.296148
H84	H	-0.389219	-1.281258	1.188247
H85	H	-0.361161	-1.239107	1.287384
H86	H	-0.386556	-1.442485	1.253874
H87	H	-0.358506	-1.400345	1.353020
O88	O	-0.186083	-1.127027	0.638949
C89	C	-0.215888	-1.190511	0.706673
H90	H	-0.257072	-1.157400	0.713013
H91	H	-0.217666	-1.273650	0.674174
C92	C	-0.139827	-1.232944	0.808199
C93	C	-0.190409	-1.192271	0.815993
H94	H	-0.124109	-1.234034	0.875632
H95	H	-0.119746	-1.190177	0.762571
H96	H	-0.141316	-1.302223	0.781113
H97	H	-0.188918	-1.122989	0.843066
H98	H	-0.210489	-1.235027	0.861629
H99	H	-0.191266	-0.919286	0.628275
H100	H	-0.124262	-1.774763	0.907254
O101	O	-0.805454	-1.717933	0.306740
C102	C	-0.837104	-1.658231	0.238806
H103	H	-0.845301	-1.578569	0.275736
H104	H	-0.816116	-1.646774	0.160900
C105	C	-0.878886	-1.813944	0.174590
C106	C	-0.888957	-1.716105	0.219953
H107	H	-0.910871	-1.849644	0.162956
H108	H	-0.857561	-1.854168	0.220356
H109	H	-0.861395	-1.804383	0.109674
H110	H	-0.906442	-1.725667	0.284874
H111	H	-0.910286	-1.675884	0.174198
O112	O	-0.118956	-1.785482	1.114790
C113	C	-0.089452	-1.844797	1.042863
H114	H	-0.110881	-1.848380	0.964637
H115	H	-0.049742	-1.806386	1.031214
C116	C	-0.055599	-1.952238	1.181782
C117	C	-0.081921	-1.956646	1.085705
H118	H	-0.050951	-2.021230	1.208209
H119	H	-0.075475	-1.912274	1.230241
H120	H	-0.022510	-1.920225	1.172061
H121	H	-0.115012	-1.988647	1.095429
H122	H	-0.062051	-1.996618	1.037248
H123	H	-0.318643	-1.217636	0.371492
H124	H	-0.184858	-1.652828	1.205814
O125	O	-0.446638	-1.650492	0.373627
C126	C	-0.460025	-1.627581	0.268897
H127	H	-0.499692	-1.587221	0.266698
H128	H	-0.429335	-1.573565	0.233449
C129	C	-0.413806	-1.779612	0.208055
C130	C	-0.462527	-1.730049	0.205352
H131	H	-0.415347	-1.842817	0.168855
H132	H	-0.404784	-1.795046	0.278612
H133	H	-0.388236	-1.734588	0.178516
H134	H	-0.488095	-1.775067	0.234902
H135	H	-0.471553	-1.714625	0.134798
H136	H	-0.549925	-1.640078	0.384349
O137	O	-0.805447	-1.318439	0.705555
C138	C	-0.837102	-1.250638	0.645712
H139	H	-0.820688	-1.244165	0.562951
H140	H	-0.878471	-1.283147	0.642140
C141	C	-0.858127	-1.149352	0.798613
C142	C	-0.837965	-1.141395	0.696967
H143	H	-0.858662	-1.081967	0.830231
H144	H	-0.836803	-1.195033	0.838932
H145	H	-0.892600	-1.176447	0.795622
H146	H	-0.803491	-1.114313	0.699960
H147	H	-0.859284	-1.095707	0.656650
H148	H	-0.702041	-1.707407	0.317254
H149	H	-0.379249	-1.117969	0.249393
O150	O	-1.056653	-1.651035	0.374084
C151	C	-1.110701	-1.636669	0.388520
H152	H	-1.118128	-1.602119	0.469533
H153	H	-1.126280	-1.580862	0.326099
C154	C	-1.129545	-1.785468	0.279672
C155	C	-1.138666	-1.743041	0.379177
H156	H	-1.146796	-1.851082	0.273904
H157	H	-1.093131	-1.795145	0.269942
H158	H	-1.142527	-1.738953	0.227666
H159	H	-1.125678	-1.789550	0.431180
H160	H	-1.175078	-1.733375	0.388916
O161	O	-0.317716	-1.385858	0.898340
C162	C	-0.351500	-1.445622	0.834875
H163	H	-0.333064	-1.525267	0.818480
H164	H	-0.390244	-1.457114	0.877126
C165	C	-0.383617	-1.289975	0.750761
C166	C	-0.360971	-1.387793	0.730616
H167	H	-0.389462	-1.254302	0.686451
H168	H	-0.360858	-1.249710	0.793521
H169	H	-0.415901	-1.299565	0.785972
H170	H	-0.328685	-1.378201	0.695418
H171	H	-0.383725	-1.428055	0.687848
H172	H	-0.318683	-0.819501	0.371555
H173	H	-0.953220	-1.640360	0.384430
O174	O	-0.697868	-1.318380	0.705710
C175	C	-0.733684	-1.259100	0.764989
H176	H	-0.772624	-1.255510	0.721957
H177	H	-0.739444	-1.297545	0.844812
C178	C	-0.664600	-1.151668	0.832896
C179	C	-0.712426	-1.147252	0.780039
H180	H	-0.651487	-1.082676	0.842185
H181	H	-0.640469	-1.191608	0.792962
H182	H	-0.669407	-1.183710	0.899410
H183	H	-0.707618	-1.115222	0.713522
H184	H	-0.736556	-1.107303	0.819962
O185	O	-0.554181	-1.385527	0.638584
C186	C	-0.518381	-1.326145	0.697801
H187	H	-0.479432	-1.369141	0.701455
H188	H	-0.512634	-1.246365	0.659257
C189	C	-0.587486	-1.258159	0.805128
C190	C	-0.539651	-1.310973	0.809624
H191	H	-0.600607	-1.248795	0.874105
H192	H	-0.611606	-1.298162	0.765231
H193	H	-0.582691	-1.191682	0.773004
H194	H	-0.544448	-1.377453	0.841736
H195	H	-0.515532	-1.270980	0.849530
H196	H	-1.052304	-1.396474	0.628036
H197	H	-0.953254	-1.396416	0.628030
H198	H	-0.450901	-1.396046	0.627905
H199	H	-0.184933	-1.652754	0.807678
