data_functionalizedCrystal
_audit_creation_method	'MofGen! by Chris Wilmer'
_symmetry_space_group_name_H-M	'P1'
_symmetry_Int_Tables_number	1
_symmetry_cell_setting	triclinic
loop_
_symmetry_equiv_pos_as_xyz
  x,y,z
_cell_length_a	12.759401
_cell_length_b	19.805405
_cell_length_c	12.759393
_cell_angle_alpha	89.962167
_cell_angle_beta	89.982620
_cell_angle_gamma	90.026572
loop_
_atom_site_label
_atom_site_type_symbol
_atom_site_fract_x
_atom_site_fract_y
_atom_site_fract_z
Zn1	Zn	1.606158	-0.269419	-0.593937
Zn2	Zn	1.606020	-0.382624	-0.418239
Zn3	Zn	1.430464	-0.269455	-0.418276
Zn4	Zn	1.430413	-0.382572	-0.593880
O5	O	1.518264	-0.326017	-0.506083
O6	O	1.753161	-0.284443	-0.570638
O7	O	1.582696	-0.367649	-0.271222
O8	O	1.453849	-0.174734	-0.441618
O9	O	1.753059	-0.367614	-0.441553
O10	O	1.582931	-0.174707	-0.570675
O11	O	1.453715	-0.284504	-0.271250
O12	O	1.283436	-0.284453	-0.441563
O13	O	1.453763	-0.367525	-0.740909
O14	O	1.283399	-0.367560	-0.570578
O15	O	1.582882	-0.284392	-0.740951
O16	O	1.582646	-0.477334	-0.441498
O17	O	1.453629	-0.477295	-0.570541
C18	C	1.245296	-0.326005	-0.506069
C19	C	1.128520	-0.326016	-0.506088
C20	C	1.073666	-0.369359	-0.573155
C21	C	0.963942	-0.369367	-0.573166
C22	C	0.963935	-0.282688	-0.439034
C23	C	1.073657	-0.282677	-0.439029
C24	C	1.073669	-0.419404	-0.650592
C25	C	0.963945	-0.419413	-0.650603
C26	C	1.518146	-0.501874	-0.506032
C27	C	1.518191	-0.577105	-0.506046
C28	C	1.585436	-0.612447	-0.438923
C29	C	1.585481	-0.683136	-0.438946
C30	C	1.518274	-0.718481	-0.506088
C31	C	1.451027	-0.683134	-0.573217
C32	C	1.450988	-0.612447	-0.573199
C33	C	1.451181	-0.968208	-0.573295
C34	C	1.451223	-1.038900	-0.573306
C35	C	1.585674	-1.038896	-0.439043
C36	C	1.585636	-0.968209	-0.439024
C37	C	1.518392	-0.932868	-0.506157
C38	C	1.518346	-0.856220	-0.506133
C39	C	1.518314	-0.795128	-0.506108
C40	C	1.792297	-0.326030	-0.506098
C41	C	1.909074	-0.326036	-0.506104
C42	C	1.518332	-0.325949	-0.780117
C43	C	1.518361	-0.325919	-0.896893
C44	C	1.518411	-0.149475	-0.506157
C45	C	1.518474	-0.074243	-0.506189
C46	C	1.451229	-0.282618	-0.951776
C47	C	1.451261	-0.282597	-1.061500
C48	C	1.585565	-0.369182	-1.061449
C49	C	1.585528	-0.369205	-0.951727
C50	C	1.373693	-0.232626	-0.951806
C51	C	1.373725	-0.232606	-1.061530
C52	C	1.518256	-0.326037	-0.233116
C53	C	1.518431	-0.325876	-0.116340
H54	H	1.103480	-0.405425	-0.732001
H55	H	1.640237	-0.711908	-0.384288
H56	H	1.640357	-0.939433	-0.384348
H57	H	0.934133	-0.471821	-0.628662
Cl58	Cl	1.670216	-1.083328	-0.354651
Cl59	Cl	1.126169	-0.496266	-0.605467
H60	H	1.640177	-0.404476	-0.907046
H61	H	1.396232	-0.583673	-0.627858
Cl62	Cl	1.366544	-0.727569	-0.657630
H63	H	1.396497	-1.067676	-0.627989
Cl64	Cl	1.366645	-0.923789	-0.657689
H65	H	1.402873	-0.182841	-0.917798
H66	H	1.292299	-0.246664	-0.922026
H67	H	1.640251	-0.404424	-1.106108
Cl68	Cl	0.911452	-0.390525	-0.770028
H69	H	1.118315	-0.247379	-0.384423
Cl70	Cl	1.254387	-0.261588	-1.114068
Cl71	Cl	1.407283	-0.151637	-1.107556
Cl72	Cl	0.894958	-0.228208	-0.354738
H73	H	1.640158	-0.583674	-0.384245
