data_functionalizedCrystal
_audit_creation_method	'MofGen! by Chris Wilmer'
_symmetry_space_group_name_H-M	'P1'
_symmetry_Int_Tables_number	1
_symmetry_cell_setting	triclinic
loop_
_symmetry_equiv_pos_as_xyz
  x,y,z
_cell_length_a	19.288864
_cell_length_b	19.288865
_cell_length_c	18.366186
_cell_angle_alpha	89.988521
_cell_angle_beta	89.977106
_cell_angle_gamma	83.136245
loop_
_atom_site_label
_atom_site_type_symbol
_atom_site_fract_x
_atom_site_fract_y
_atom_site_fract_z
O1	O	0.921353	0.086649	-0.060791
O2	O	1.421353	0.586649	0.439209
O3	O	0.719092	0.098337	-0.060743
O4	O	1.219092	0.598337	0.439257
O5	O	0.826067	-0.008637	-0.060754
O6	O	1.326067	0.491363	0.439246
O7	O	0.814378	0.193623	-0.060780
O8	O	1.314378	0.693623	0.439220
O9	O	0.826049	-0.008643	0.060345
O10	O	1.326049	0.491357	0.560345
O11	O	0.719074	0.098332	0.060357
O12	O	1.219074	0.598332	0.560357
O13	O	0.921335	0.086643	0.060308
O14	O	1.421335	0.586643	0.560308
Zn15	Zn	0.820201	0.092487	0.079559
Zn16	Zn	1.320201	0.592487	0.579559
Zn17	Zn	0.820225	0.092494	-0.079994
Zn18	Zn	1.320225	0.592494	0.420006
O19	O	0.814360	0.193618	0.060319
O20	O	1.314360	0.693618	0.560319
C21	C	0.693207	0.097959	-0.000187
C22	C	1.193207	0.597959	0.499813
C23	C	0.616103	0.096830	-0.000167
C24	C	1.116103	0.596830	0.499833
C25	C	0.825682	-0.034516	-0.000202
C26	C	1.325682	0.465484	0.499798
C27	C	0.824553	-0.111620	-0.000195
C28	C	1.324553	0.388380	0.499805
C29	C	0.571407	0.159598	-0.000187
C30	C	1.071407	0.659598	0.499813
C31	C	0.498960	0.158537	-0.000195
C32	C	0.998960	0.658537	0.499805
C33	C	0.471212	0.094705	-0.000198
C34	C	0.971212	0.594705	0.499802
C35	C	0.515918	0.031929	-0.000174
C36	C	1.015918	0.531929	0.499826
C37	C	0.588364	0.032991	-0.000159
C38	C	1.088364	0.532991	0.499841
C39	C	0.362956	0.044527	-0.042642
C40	C	0.862956	0.544527	0.457358
C41	C	0.290512	0.043468	-0.042662
C42	C	0.790512	0.543468	0.457338
C43	C	0.247767	0.091425	-0.000241
C44	C	0.747767	0.591425	0.499759
C45	C	0.277473	0.140454	0.042189
C46	C	0.777473	0.640454	0.542189
C47	C	0.349918	0.141517	0.042205
C48	C	0.849918	0.641517	0.542205
C49	C	0.392658	0.093546	-0.000214
C50	C	0.892658	0.593546	0.499786
C51	C	0.124514	0.153047	-0.000269
C52	C	0.624514	0.653047	0.499731
C53	C	0.052066	0.151984	-0.000272
C54	C	0.552066	0.651984	0.499728
C55	C	0.069026	0.025374	-0.000259
C56	C	0.569026	0.525374	0.499741
C57	C	0.141473	0.026439	-0.000248
C58	C	0.641473	0.526439	0.499752
C59	C	0.169212	0.090278	-0.000256
C60	C	0.669212	0.590278	0.499744
C61	C	0.887321	-0.156316	-0.000207
C62	C	1.387321	0.343684	0.499793
C63	C	0.886260	-0.228763	-0.000218
C64	C	1.386260	0.271237	0.499782
C65	C	0.822428	-0.256511	-0.000203
C66	C	1.322428	0.243489	0.499797
C67	C	0.759652	-0.211805	-0.000196
C68	C	1.259652	0.288195	0.499804
C69	C	0.760714	-0.139359	-0.000192
C70	C	1.260714	0.360641	0.499808
C71	C	0.772242	-0.364800	0.042227
C72	C	1.272242	0.135200	0.542227
C73	C	0.771182	-0.437245	0.042228
C74	C	1.271182	0.062755	0.542228
C75	C	0.819148	-0.479956	-0.000219
C76	C	1.319148	0.020044	0.499781
C77	C	0.868186	-0.450216	-0.042657
C78	C	1.368186	0.049784	0.457343
C79	C	0.869248	-0.377771	-0.042653
C80	C	1.369248	0.122229	0.457347
C81	C	0.821269	-0.335065	-0.000208
C82	C	1.321269	0.164935	0.499792
C83	C	0.880770	-0.603209	-0.000244
C84	C	1.380770	-0.103209	0.499756
C85	C	0.879707	-0.675657	-0.000259
C86	C	1.379707	-0.175657	0.499741
C87	C	0.753097	-0.658697	-0.000230
C88	C	1.253097	-0.158697	0.499770
C89	C	0.754162	-0.586250	-0.000221
C90	C	1.254162	-0.086250	0.499779
C91	C	0.818001	-0.558511	-0.000225
C92	C	1.318001	-0.058511	0.499775
C93	C	0.947220	0.087022	-0.000250
C94	C	1.447220	0.587022	0.499750
C95	C	1.024324	0.088151	-0.000274
C96	C	1.524324	0.588151	0.499726
C97	C	0.814745	0.219497	-0.000234
C98	C	1.314745	0.719497	0.499766
C99	C	0.815874	0.296601	-0.000246
C100	C	1.315874	0.796601	0.499754
N101	N	0.820190	0.092482	0.188451
N102	N	1.320190	0.592482	0.688451
N103	N	0.820242	0.092493	-0.188885
N104	N	1.320242	0.592493	0.311115
C105	C	0.867574	0.045137	0.226546
C106	C	1.367574	0.545137	0.726546
C107	C	0.867578	0.045134	0.302774
C108	C	1.367578	0.545134	0.802774
C109	C	0.820206	0.092488	0.340903
C110	C	1.320206	0.592488	0.840903
C111	C	0.772813	0.139836	0.302799
C112	C	1.272813	0.639836	0.802799
C113	C	0.772805	0.139834	0.226572
C114	C	1.272805	0.639834	0.726572
C115	C	0.810907	0.155775	0.461657
C116	C	1.310907	0.655775	0.961657
C117	C	0.810920	0.155779	0.537882
C118	C	1.310920	0.655779	1.037882
C119	C	0.820225	0.092496	0.576011
C120	C	1.320225	0.592496	1.076011
C121	C	0.829533	0.029207	0.537905
C122	C	1.329533	0.529207	1.037905
C123	C	0.829525	0.029204	0.461679
C124	C	1.329525	0.529204	0.961679
C125	C	0.820208	0.092496	0.423558
C126	C	1.320208	0.592496	0.923558
C127	C	0.867617	0.045144	0.696761
C128	C	1.367617	0.545144	1.196761
C129	C	0.867616	0.045140	0.772990
C130	C	1.367616	0.545140	1.272990
C131	C	0.772854	0.139849	0.773014
C132	C	1.272854	0.639849	1.273014
C133	C	0.772851	0.139847	0.696786
C134	C	1.272851	0.639847	1.196786
C135	C	0.820236	0.092495	0.658664
C136	C	1.320236	0.592495	1.158664
H137	H	0.593987	0.211580	-0.000195
H138	H	1.093987	0.711580	0.499805
H139	H	0.147101	0.205028	-0.000265
H140	H	0.647101	0.705028	0.499735
C141	C	0.955312	-0.277938	-0.000226
C142	C	1.455312	0.222062	0.499774
N143	N	1.007323	-0.314975	-0.000230
N144	N	1.507323	0.185025	0.499770
H145	H	0.397755	0.005473	-0.077191
H146	H	0.897755	0.505473	0.422809
H147	H	0.624756	-0.018124	-0.000144
H148	H	1.124756	0.481876	0.499856
C149	C	0.682880	-0.689215	-0.000216
C150	C	1.182880	-0.189215	0.499784
N151	N	0.629991	-0.712204	-0.000207
N152	N	1.129991	-0.212204	0.499793
C153	C	0.919692	-0.006959	0.184616
C154	C	1.419692	0.493041	0.684616
N155	N	0.958946	-0.046199	0.153034
N156	N	1.458946	0.453801	0.653034
C157	C	0.800670	0.225396	0.419723
C158	C	1.300670	0.725396	0.919723
N159	N	0.792960	0.277833	0.388139
N160	N	1.292960	0.777833	0.888139
C161	C	0.919713	-0.006945	0.344687
C162	C	1.419713	0.493055	0.844687
N163	N	0.958984	-0.046168	0.376254
N164	N	1.458984	0.453832	0.876254
C165	C	0.449785	0.227589	-0.000225
C166	C	0.949785	0.727589	0.499775
N167	N	0.412748	0.279600	-0.000251
N168	N	0.912748	0.779600	0.499749
C169	C	0.038508	-0.044843	-0.000261
C170	C	0.538508	0.455157	0.499739
N171	N	0.015519	-0.097732	-0.000261
N172	N	0.515519	0.402268	0.499739
C173	C	0.717240	-0.469951	0.088910
C174	C	1.217240	0.030049	0.588910
N175	N	0.676608	-0.494584	0.124071
N176	N	1.176608	0.005416	0.624071
C177	C	0.919734	-0.006950	0.654825
C178	C	1.419734	0.493050	1.154825
N179	N	0.958988	-0.046189	0.623240
N180	N	1.458988	0.453811	1.123240
H181	H	0.703049	-0.549857	-0.000208
H182	H	1.203049	-0.049857	0.499792
C183	C	0.190641	-0.042612	-0.000235
C184	C	0.690641	0.457388	0.499765
N185	N	0.227675	-0.094624	-0.000224
N186	N	0.727675	0.405376	0.499776
C187	C	0.719474	-0.317824	0.088928
C188	C	1.219474	0.182176	0.588928
N189	N	0.679732	-0.282442	0.124104
N190	N	1.179732	0.217558	0.624104
C191	C	0.257843	-0.010469	-0.089332
C192	C	0.757843	0.489531	0.410668
N193	N	0.233238	-0.051098	-0.124481
N194	N	0.733238	0.448902	0.375519
H195	H	0.909175	-0.353560	-0.077208
H196	H	1.409175	0.146440	0.422792
C197	C	0.839754	-0.040413	0.419766
C198	C	1.339754	0.459587	0.919766
N199	N	0.847455	-0.092850	0.388197
N200	N	1.347455	0.407150	0.888197
C201	C	0.800675	0.225398	0.579790
C202	C	1.300675	0.725398	1.079790
N203	N	0.792954	0.277837	0.611354
N204	N	1.292954	0.777837	1.111354
C205	C	0.839768	-0.040410	0.579842
C206	C	1.339768	0.459590	1.079842
N207	N	0.847477	-0.092844	0.611431
N208	N	1.347477	0.407156	1.111431
H209	H	0.734240	0.178392	0.333848
H210	H	1.234240	0.678392	0.833848
C211	C	0.485395	-0.038287	-0.000178
C212	C	0.985395	0.461713	0.499822
N213	N	0.462404	-0.091176	-0.000179
N214	N	0.962404	0.408824	0.499821
C215	C	0.689436	-0.242328	-0.000174
C216	C	1.189436	0.257672	0.499826
N217	N	0.636547	-0.265319	-0.000158
N218	N	1.136547	0.234681	0.499842
C219	C	0.720707	0.191949	0.184666
C220	C	1.220707	0.691949	0.684666
N221	N	0.681477	0.231215	0.153101
N222	N	1.181477	0.731215	0.653101
H223	H	0.374102	0.181436	0.076756
H224	H	0.874102	0.681436	0.576756
H225	H	0.709599	-0.102967	-0.000182
H226	H	1.209599	0.397033	0.499818
C227	C	0.720774	0.191981	0.654880
C228	C	1.220774	0.691981	1.154880
N229	N	0.681563	0.231266	0.623316
N230	N	1.181563	0.731266	1.123316
H231	H	0.906200	0.006582	0.804008
H232	H	1.406200	0.506582	1.304008
H233	H	0.242671	0.179506	0.076733
H234	H	0.742671	0.679506	0.576733
H235	H	0.939303	-0.133736	-0.000212
H236	H	1.439303	0.366264	0.499788
H237	H	0.734279	0.178402	0.804058
H238	H	1.234279	0.678402	1.304058
C239	C	0.920951	-0.497194	-0.089355
C240	C	1.420951	0.002806	0.410645
N241	N	0.960692	-0.532581	-0.124526
N242	N	1.460692	-0.032581	0.375474
C243	C	0.950993	-0.572693	-0.000259
C244	C	1.450993	-0.072693	0.499741
N245	N	1.003886	-0.549711	-0.000272
N246	N	1.503886	-0.049711	0.499728
H247	H	0.015674	0.203099	-0.000284
H248	H	0.515674	0.703099	0.499716
H249	H	0.930822	-0.712049	-0.000273
H250	H	1.430822	-0.212049	0.499727
