data_functionalizedCrystal
_audit_creation_method	'MofGen! by Chris Wilmer'
_symmetry_space_group_name_H-M	'P1'
_symmetry_Int_Tables_number	1
_symmetry_cell_setting	triclinic
loop_
_symmetry_equiv_pos_as_xyz
  x,y,z
_cell_length_a	14.908520
_cell_length_b	19.077236
_cell_length_c	19.077174
_cell_angle_alpha	85.294282
_cell_angle_beta	95.695642
_cell_angle_gamma	95.740008
loop_
_atom_site_label
_atom_site_type_symbol
_atom_site_fract_x
_atom_site_fract_y
_atom_site_fract_z
Zn1	Zn	-0.327185	1.079585	-0.456126
Zn2	Zn	-0.472878	1.068468	-0.344540
Zn3	Zn	-0.327199	0.956966	-0.333510
Zn4	Zn	-0.484517	0.954855	-0.458148
O5	O	-0.402945	1.014969	-0.398081
O6	O	-0.341635	1.176974	-0.445094
O7	O	-0.448689	1.049908	-0.244216
O8	O	-0.200387	0.978768	-0.344313
O9	O	-0.448675	1.168807	-0.363112
O10	O	-0.200376	1.068856	-0.434398
O11	O	-0.341659	0.967988	-0.236112
O12	O	-0.352944	0.857822	-0.346273
O13	O	-0.468511	0.975170	-0.556740
O14	O	-0.468525	0.856271	-0.437844
O15	O	-0.352921	1.066809	-0.555255
O16	O	-0.601233	1.047861	-0.365072
O17	O	-0.609784	0.964390	-0.448540
C18	C	-0.412000	0.831412	-0.391081
C19	C	-0.415896	0.752886	-0.388105
C20	C	-0.362092	0.720246	-0.429463
C21	C	-0.365748	0.646462	-0.426660
C22	C	-0.423214	0.605319	-0.382502
C23	C	-0.477020	0.637964	-0.341139
C24	C	-0.473358	0.711747	-0.343939
C25	C	-0.440127	0.384196	-0.369539
C26	C	-0.443786	0.310408	-0.366744
C27	C	-0.332513	0.318911	-0.452264
C28	C	-0.328860	0.392695	-0.455064
C29	C	-0.382663	0.425333	-0.413698
N30	N	-0.426955	0.529899	-0.379637
N31	N	-0.378916	0.500751	-0.416559
C32	C	-0.638389	1.004710	-0.408238
C33	C	-0.739111	1.000386	-0.412610
C34	C	-0.919412	1.079276	-0.333987
C35	C	-1.014049	1.075217	-0.338092
C36	C	-1.023023	0.988211	-0.424929
C37	C	-0.928386	0.992271	-0.420824
C38	C	-0.876584	1.037804	-0.375350
C39	C	-0.781945	1.041860	-0.371242
C40	C	-0.790921	0.954859	-0.458082
C41	C	-0.885558	0.950799	-0.462188
C42	C	-0.166582	1.025287	-0.387900
C43	C	-0.065857	1.029685	-0.383561
C44	C	-0.412013	1.021994	-0.582348
C45	C	-0.415877	1.024988	-0.660871
C46	C	-0.393856	1.199242	-0.405108
C47	C	-0.389982	1.277768	-0.408102
C48	C	-0.361969	0.983745	-0.693542
C49	C	-0.365607	0.986555	-0.767324
C50	C	-0.423150	1.030612	-0.808433
C51	C	-0.477064	1.071856	-0.775757
C52	C	-0.473430	1.069042	-0.701977
C53	C	-0.439999	1.043598	-1.029545
C54	C	-0.443627	1.046411	-1.103330
C55	C	-0.332171	0.961108	-1.094891
C56	C	-0.328538	0.958301	-1.021110
C57	C	-0.382456	0.999543	-0.988440
N58	N	-0.426868	1.033487	-0.883849
N59	N	-0.378741	0.996663	-0.913025
C60	C	-0.393845	1.008014	-0.214529
C61	C	-0.389719	1.005168	-0.136000
H62	H	-0.739768	1.078933	-0.334213
O63	O	-0.306176	0.940842	-0.653643
C64	C	-0.266975	0.821729	-0.624627
C65	C	-0.330234	0.870238	-0.669842
H66	H	-0.286391	0.764638	-0.637718
H67	H	-0.273641	0.826740	-0.566272
H68	H	-0.194010	0.837913	-0.636454
H69	H	-0.403225	0.854086	-0.658076
H70	H	-0.323489	0.865221	-0.728184
H71	H	-0.756040	0.921087	-0.491761
O72	O	-0.306216	0.760284	-0.472263
C73	C	-0.180192	0.849241	-0.479804
C74	C	-0.243425	0.803957	-0.431255
H75	H	-0.129398	0.884551	-0.446667
H76	H	-0.221917	0.883434	-0.519790
H77	H	-0.142408	0.813220	-0.508897
H78	H	-0.281223	0.839925	-0.402115
H79	H	-0.201652	0.769758	-0.391313
O80	O	-0.313453	0.614868	-0.466905
C81	C	-0.202659	0.631089	-0.551993
C82	C	-0.261856	0.666958	-0.506465
H83	H	-0.160914	0.673187	-0.583978
H84	H	-0.247823	0.596166	-0.589412
H85	H	-0.155368	0.597351	-0.516250
H86	H	-0.309155	0.700732	-0.542153
H87	H	-0.216638	0.701838	-0.469040
O88	O	-0.935747	0.906556	-0.506417
C89	C	-0.934658	0.820653	-0.592080
C90	C	-0.877714	0.870742	-0.542032
H91	H	-0.887763	0.791672	-0.620877
H92	H	-0.979106	0.852536	-0.632251
H93	H	-0.979273	0.780630	-0.560121
H94	H	-0.833047	0.910775	-0.573933
H95	H	-0.833326	0.838812	-0.501860
H96	H	-1.065217	0.951145	-0.461956
O97	O	-0.868991	1.123544	-0.289908
C98	C	-0.756901	1.223191	-0.279479
C99	C	-0.813929	1.173098	-0.329477
H100	H	-0.712383	1.263277	-0.311453
H101	H	-0.712368	1.191314	-0.239369
H102	H	-0.803788	1.252098	-0.250601
H103	H	-0.767109	1.144179	-0.358404
H104	H	-0.858470	1.205013	-0.369544
O105	O	-0.499608	1.089224	-1.143160
C106	C	-0.609738	1.173565	-1.143748
C107	C	-0.546403	1.125100	-1.098557
H108	H	-0.647574	1.202595	-1.107705
H109	H	-0.660474	1.140407	-1.179081
H110	H	-0.567997	1.213612	-1.177921
H111	H	-0.588069	1.085044	-1.064341
H112	H	-0.495664	1.158303	-1.063269
O113	O	-0.492467	1.083559	-0.997788
C114	C	-0.610217	1.084559	-0.920097
C115	C	-0.550868	1.039215	-0.956031
H116	H	-0.657435	1.048727	-0.886316
H117	H	-0.652026	1.116515	-0.962128
H118	H	-0.565074	1.122017	-0.885203
H119	H	-0.595943	1.001717	-0.990921
H120	H	-0.509052	1.007308	-0.913963
O121	O	-1.055508	1.115527	-0.297838
C122	C	-1.036616	1.202284	-0.211306
C123	C	-0.989548	1.156658	-0.256843
H124	H	-0.983308	1.235561	-0.178161
H125	H	-1.080728	1.166602	-0.174978
H126	H	-1.080666	1.238506	-0.247111
H127	H	-0.945451	1.120431	-0.221092
H128	H	-0.945490	1.192382	-0.293176
O129	O	-0.279895	0.921067	-1.126740
C130	C	-0.236059	0.887621	-1.236662
C131	C	-0.295324	0.932998	-1.200685
H132	H	-0.248499	0.897262	-1.296451
H133	H	-0.254076	0.829393	-1.220719
H134	H	-0.161670	0.902652	-1.219440
H135	H	-0.369731	0.918028	-1.217888
H136	H	-0.277230	0.991214	-1.216627
O137	O	-0.313380	0.946403	-0.799088
C138	C	-0.310009	0.854734	-0.878236
C139	C	-0.369261	0.900158	-0.842303
H140	H	-0.355164	0.817345	-0.913195
H141	H	-0.268283	0.822715	-0.836205
H142	H	-0.262702	0.890558	-0.911950
H143	H	-0.416621	0.864387	-0.808592
H144	H	-0.410925	0.932184	-0.884370
O145	O	-0.532831	1.114734	-0.815718
C146	C	-0.544426	1.212736	-0.903210
C147	C	-0.481167	1.164235	-0.857985
H148	H	-0.502684	1.252760	-0.937405
H149	H	-0.582318	1.241783	-0.867217
H150	H	-0.595126	1.179531	-0.938525
H151	H	-0.430415	1.197388	-0.822665
H152	H	-0.443341	1.135185	-0.894018
H153	H	-0.282069	0.426189	-0.491024
O154	O	-0.525829	1.109173	-0.670351
C155	C	-0.636810	1.194040	-0.686504
C156	C	-0.577494	1.148645	-0.722409
H157	H	-0.678611	1.225952	-0.728576
H158	H	-0.591731	1.231527	-0.651599
H159	H	-0.684051	1.158201	-0.652747
H160	H	-0.530245	1.184428	-0.756202
H161	H	-0.622627	1.111151	-0.757272
H162	H	-0.288709	0.292328	-0.485941
O163	O	-0.272619	0.915444	-0.981284
C164	C	-0.162404	0.831171	-0.980702
C165	C	-0.225714	0.879659	-1.025889
H166	H	-0.124451	0.802238	-1.016746
H167	H	-0.204083	0.791050	-0.946555
H168	H	-0.111760	0.864374	-0.945343
H169	H	-0.276370	0.846514	-1.061289
H170	H	-0.183977	0.919783	-1.059989
H171	H	-0.490586	0.276911	-0.330785
H172	H	-0.523805	0.604459	-0.305181
O173	O	-0.492480	0.415781	-0.329338
C174	C	-0.603193	0.399554	-0.244185
C175	C	-0.543964	0.363690	-0.289692
H176	H	-0.644818	0.357455	-0.212109
H177	H	-0.650581	0.433254	-0.279880
H178	H	-0.557970	0.434515	-0.206839
H179	H	-0.589117	0.328695	-0.327043
H180	H	-0.496569	0.330033	-0.253954
H181	H	-0.517171	0.738321	-0.310260
