data_functionalizedCrystal
_audit_creation_method	'MofGen! by Chris Wilmer'
_symmetry_space_group_name_H-M	'P1'
_symmetry_Int_Tables_number	1
_symmetry_cell_setting	triclinic
loop_
_symmetry_equiv_pos_as_xyz
  x,y,z
_cell_length_a	23.532361
_cell_length_b	23.532357
_cell_length_c	22.610064
_cell_angle_alpha	89.998517
_cell_angle_beta	89.996103
_cell_angle_gamma	82.828980
loop_
_atom_site_label
_atom_site_type_symbol
_atom_site_fract_x
_atom_site_fract_y
_atom_site_fract_z
O1	O	0.755268	0.069002	-0.049132
O2	O	0.589399	0.079034	-0.049147
O3	O	0.677350	-0.008916	-0.049127
O4	O	0.667317	0.156953	-0.049153
O5	O	0.677335	-0.008904	0.049242
O6	O	0.589384	0.079047	0.049222
O7	O	0.755253	0.069015	0.049237
Zn8	Zn	0.672316	0.074033	0.064848
Zn9	Zn	0.672336	0.074016	-0.064758
O10	O	0.667302	0.156965	0.049217
C11	C	0.568175	0.078789	0.000035
C12	C	0.504957	0.078034	0.000030
C13	C	0.231722	0.074723	-0.053587
C14	C	0.291122	0.075438	-0.053588
O15	O	0.321855	0.075782	-0.099190
N16	N	0.320819	0.075806	0.000033
C17	C	0.291114	0.075454	0.053659
O18	O	0.321828	0.075832	0.099268
C19	C	0.231716	0.074734	0.053660
C20	C	0.202021	0.074372	0.000035
C21	C	0.202027	0.074360	-0.107207
C22	C	0.142632	0.073646	-0.107205
C23	C	0.112931	0.073295	-0.053583
C24	C	0.142626	0.073658	0.000037
C25	C	0.202013	0.074378	0.107286
C26	C	0.142611	0.073658	0.107282
C27	C	0.112916	0.073296	0.053657
C28	C	0.053529	0.072594	0.053661
N29	N	0.023832	0.072225	0.000040
C30	C	0.053533	0.072576	-0.053582
C31	C	0.415854	0.076963	0.053653
C32	C	0.475250	0.077686	0.053653
C33	C	0.475254	0.077669	-0.053595
C34	C	0.415856	0.076950	-0.053594
C35	C	0.386157	0.076594	0.000032
C36	C	-0.071202	0.071078	-0.053575
C37	C	-0.130604	0.070366	-0.053568
C38	C	-0.130602	0.070380	0.053679
C39	C	-0.071206	0.071094	0.053673
C40	C	-0.041508	0.071441	0.000041
O41	O	0.022759	0.072247	0.099239
O42	O	0.022812	0.072190	-0.099184
C43	C	0.677092	-0.030127	0.000059
C44	C	0.676337	-0.093345	0.000065
C45	C	0.671609	-0.485363	-0.053589
C46	C	0.670892	-0.544762	-0.053592
O47	O	0.670509	-0.575484	-0.099195
N48	N	0.670527	-0.574466	0.000028
C49	C	0.670875	-0.544767	0.053655
O50	O	0.670499	-0.575487	0.099263
C51	C	0.671588	-0.485368	0.053658
C52	C	0.671958	-0.455668	0.000034
C53	C	0.671978	-0.455662	-0.107208
C54	C	0.672696	-0.396267	-0.107205
C55	C	0.673045	-0.366572	-0.053581
C56	C	0.672676	-0.396273	0.000038
C57	C	0.671931	-0.455670	0.107285
C58	C	0.672644	-0.396267	0.107283
C59	C	0.673014	-0.366566	0.053659
C60	C	0.673743	-0.307183	0.053665
N61	N	0.674108	-0.277479	0.000044
C62	C	0.673759	-0.307174	-0.053579
C63	C	0.669376	-0.669508	0.053645
C64	C	0.668667	-0.728907	0.053643
C65	C	0.668683	-0.728897	-0.053605
C66	C	0.669396	-0.669498	-0.053602
C67	C	0.669740	-0.639804	0.000025
C68	C	0.675268	-0.182440	-0.053567
C69	C	0.675988	-0.123040	-0.053558
C70	C	0.675969	-0.123054	0.053689
C71	C	0.675252	-0.182449	0.053681
C72	C	0.674899	-0.212140	0.000048
O73	O	0.674125	-0.276423	0.099244
O74	O	0.674127	-0.276445	-0.099179
C75	C	0.776477	0.069260	0.000053
C76	C	0.839695	0.070015	0.000054
C77	C	0.667560	0.178176	0.000029
C78	C	0.668315	0.241394	0.000020
N79	N	0.672306	0.074044	0.153300
N80	N	0.672351	0.074000	-0.153211
C81	C	0.711283	0.035078	0.561950
C82	C	0.711286	0.035073	0.623870
O83	O	0.744401	0.001951	0.655897
N84	N	0.672336	0.074004	0.654837
C85	C	0.633377	0.112938	0.623881
O86	O	0.600247	0.146051	0.655906
C87	C	0.633372	0.112939	0.561962
C88	C	0.672328	0.074009	0.530998
C89	C	0.750235	-0.003849	0.530987
C90	C	0.750233	-0.003844	0.469071
C91	C	0.711278	0.035088	0.438119
C92	C	0.672325	0.074014	0.469083
C93	C	0.594410	0.151869	0.531007
C94	C	0.594408	0.151866	0.469084
C95	C	0.633364	0.112937	0.438120
C96	C	0.633368	0.112951	0.376215
N97	N	0.672318	0.074020	0.345248
C98	C	0.711273	0.035089	0.376200
C99	C	0.633390	0.112932	0.753915
C100	C	0.633397	0.112934	0.815832
C101	C	0.711306	0.035069	0.815817
C102	C	0.711301	0.035070	0.753898
C103	C	0.672340	0.074001	0.722948
C104	C	0.711265	0.035102	0.246173
C105	C	0.711261	0.035112	0.184252
C106	C	0.633351	0.112975	0.184272
C107	C	0.633357	0.112968	0.246188
C108	C	0.672316	0.074026	0.277137
O109	O	0.600268	0.146055	0.344150
O110	O	0.744392	0.001976	0.344167
H111	H	0.118460	0.073349	-0.150872
H112	H	-0.154779	0.070073	-0.097238
O113	O	0.591390	0.154928	0.849230
H114	H	0.615209	0.182481	0.877433
H115	H	0.562680	0.183569	0.443887
O116	O	0.591374	0.154933	0.720532
H117	H	0.564298	0.182004	0.752472
O118	O	0.591343	0.154955	0.279591
H119	H	0.564253	0.182025	0.247662
H120	H	0.668375	-0.753085	0.097309
H121	H	-0.047029	0.071401	0.097339
H122	H	0.668397	-0.753085	-0.097268
O123	O	0.507295	0.078036	-0.111434
H124	H	0.553587	0.078589	-0.102421
O125	O	0.591322	0.154952	0.150884
H126	H	0.597860	0.148402	0.102627
O127	O	0.669764	-0.637487	0.111491
H128	H	0.630804	-0.643590	0.137205
O129	O	0.753324	-0.006920	0.849211
H130	H	0.780416	-0.033989	0.817281
O131	O	-0.039175	0.071458	-0.111418
H132	H	-0.069811	0.071092	-0.148699
O133	O	0.669784	-0.637466	-0.111439
H134	H	0.708471	-0.654173	-0.137152
H135	H	0.672916	-0.372092	0.150953
H136	H	0.226204	0.074644	-0.150875
H137	H	0.391682	0.076655	-0.097260
H138	H	0.671692	-0.479833	-0.150877
H139	H	0.499422	0.077990	0.097319
H140	H	0.562689	0.183569	0.556209
H141	H	0.674956	-0.206633	0.097346
H142	H	0.676256	-0.098866	0.097347
H143	H	0.226181	0.074671	0.150953
O144	O	0.383820	0.076592	0.111496
H145	H	0.414453	0.076975	0.148777
H146	H	0.742986	0.003411	0.159043
H147	H	0.671631	-0.479842	0.150951
H148	H	0.676291	-0.098861	-0.097227
H149	H	0.781953	-0.035545	0.443864
O150	O	0.792262	-0.045835	0.564366
H151	H	0.819347	-0.072894	0.532423
O152	O	0.110576	0.073280	0.165122
H153	H	0.141207	0.073658	0.202406
H154	H	0.674977	-0.206607	-0.097240
O155	O	-0.162692	0.070378	0.111512
H156	H	-0.209001	0.069952	0.102499
H157	H	0.672995	-0.372090	-0.150871
H158	H	0.742989	0.003392	0.271365
O159	O	0.753310	-0.006931	0.720511
H160	H	0.729491	-0.034485	0.692310
