data_functionalizedCrystal
_audit_creation_method	'MofGen! by Chris Wilmer'
_symmetry_space_group_name_H-M	'P1'
_symmetry_Int_Tables_number	1
_symmetry_cell_setting	triclinic
loop_
_symmetry_equiv_pos_as_xyz
  x,y,z
_cell_length_a	12.827893
_cell_length_b	12.827892
_cell_length_c	19.076919
_cell_angle_alpha	87.724465
_cell_angle_beta	87.716862
_cell_angle_gamma	90.015363
loop_
_atom_site_label
_atom_site_type_symbol
_atom_site_fract_x
_atom_site_fract_y
_atom_site_fract_z
Zn1	Zn	1.573891	-0.439793	0.397931
Zn2	Zn	2.073891	0.060207	0.897931
Zn3	Zn	1.580818	-0.607529	0.280244
Zn4	Zn	2.080818	-0.107529	0.780244
Zn5	Zn	1.406164	-0.432803	0.280254
Zn6	Zn	1.906164	0.067197	0.780254
Zn7	Zn	1.399120	-0.614492	0.397904
Zn8	Zn	1.899120	-0.114492	0.897904
O9	O	1.489998	-0.523654	0.339083
O10	O	1.989998	-0.023654	0.839083
O11	O	1.721046	-0.462056	0.382326
O12	O	2.221046	0.037944	0.882326
O13	O	1.563497	-0.578512	0.181756
O14	O	2.063497	-0.078512	0.681756
O15	O	1.428463	-0.287495	0.295879
O16	O	1.928463	0.212505	0.795879
O17	O	1.726135	-0.585290	0.295863
O18	O	2.226135	-0.085290	0.795863
O19	O	1.551692	-0.292631	0.382335
O20	O	2.051692	0.207369	0.882335
O21	O	1.435180	-0.450142	0.181763
O22	O	1.935180	0.049858	0.681763
O23	O	1.258994	-0.456893	0.295853
O24	O	1.758994	0.043107	0.795853
O25	O	1.416456	-0.597157	0.496397
O26	O	1.916456	-0.097157	0.996397
O27	O	1.253818	-0.590378	0.382291
O28	O	1.753818	-0.090378	0.882291
O29	O	1.544860	-0.468807	0.496417
O30	O	2.044860	0.031193	0.996417
O31	O	1.556665	-0.754688	0.295837
O32	O	2.056665	-0.254688	0.795837
O33	O	1.423173	-0.759803	0.382281
O34	O	1.923173	-0.259803	0.882281
C35	C	1.218489	-0.523633	0.339070
C36	C	1.718489	-0.023633	0.839070
C37	C	1.102335	-0.523651	0.339082
C38	C	1.602335	-0.023651	0.839082
C39	C	1.053072	-0.584530	0.296240
C40	C	1.553072	-0.084530	0.796240
C41	C	0.933021	-0.584549	0.296250
C42	C	1.433021	-0.084549	0.796250
C43	C	1.489934	-0.795163	0.339071
C44	C	1.989934	-0.295163	0.839071
C45	C	1.490000	-0.911318	0.339089
C46	C	1.990000	-0.411318	0.839089
C47	C	1.556129	-0.960539	0.296361
C48	C	2.056129	-0.460539	0.796361
C49	C	1.556200	-1.080591	0.296379
C50	C	2.056200	-0.580591	0.796379
C51	C	1.762568	-0.523676	0.339096
C52	C	2.262568	-0.023676	0.839096
C53	C	1.878720	-0.523685	0.339102
C54	C	2.378720	-0.023685	0.839102
C55	C	1.479100	-0.534538	0.522658
C56	C	1.979100	-0.034538	1.022658
C57	C	1.474456	-0.539176	0.600887
C58	C	1.974456	-0.039176	1.100887
C59	C	1.490091	-0.251086	0.339111
C60	C	1.990091	0.248914	0.839111
C61	C	1.490130	-0.134933	0.339123
C62	C	1.990130	0.365067	0.839123
C63	C	1.500914	-0.512737	0.156222
C64	C	2.000914	-0.012737	0.656222
C65	C	1.505761	-0.507805	0.077994
C66	C	2.005761	-0.007805	0.577994
C67	C	1.539123	-0.474533	0.637650
C68	C	2.039123	0.025467	1.137650
C69	C	1.534747	-0.478887	0.711154
C70	C	2.034747	0.021113	1.211154
C71	C	1.465707	-0.547890	0.747894
C72	C	1.965707	-0.047890	1.247894
C73	C	1.401032	-0.612536	0.711126
C74	C	1.901032	-0.112536	1.211126
C75	C	1.405404	-0.608176	0.637623
C76	C	1.905404	-0.108176	1.137623
C77	C	1.445458	-0.568090	0.967723
C78	C	1.945458	-0.068090	1.467723
C79	C	1.441093	-0.572448	1.041231
C80	C	1.941093	-0.072448	1.541231
C81	C	1.574807	-0.438797	1.041254
C82	C	2.074807	0.061203	1.541254
C83	C	1.579177	-0.434448	0.967750
C84	C	2.079177	0.065552	1.467750
C85	C	1.514499	-0.499090	0.930988
C86	C	2.014499	0.000910	1.430988
N87	N	1.461234	-0.552345	0.823027
N88	N	1.961234	-0.052345	1.323027
N89	N	1.518967	-0.494629	0.855856
N90	N	2.018967	0.005371	1.355856
H91	H	1.055634	-0.471547	0.375770
H92	H	1.555634	0.028453	0.875770
H93	H	1.099774	-0.636640	0.259556
H94	H	1.599774	-0.136640	0.759556
H95	H	1.612697	-0.913805	0.259769
H96	H	2.112697	-0.413805	0.759769
H97	H	1.612812	-1.122930	0.259796
H98	H	2.112812	-0.622930	0.759796
H99	H	1.433507	-1.092602	0.375703
H100	H	1.933507	-0.592602	0.875703
O101	O	1.422661	-0.967181	0.382783
O102	O	1.922661	-0.467181	0.882783
C103	C	1.403039	-1.096080	0.477771
C104	C	1.903039	-0.596080	0.977771
C105	C	1.479418	-1.032904	0.428319
C106	C	1.979418	-0.532904	0.928319
H107	H	1.448897	-1.149216	0.514609
H108	H	1.948897	-0.649216	1.014609
H109	H	1.350449	-1.145401	0.445442
H110	H	1.850449	-0.645401	0.945442
H111	H	1.353216	-1.040327	0.509907
H112	H	1.853216	-0.540327	1.009907
H113	H	1.529309	-1.088581	0.396173
H114	H	2.029309	-0.588581	0.896173
H115	H	1.531936	-0.983569	0.460689
H116	H	2.031936	-0.483569	0.960689
H117	H	0.890647	-0.636668	0.259571
H118	H	1.390647	-0.136668	0.759571
H119	H	1.595346	-0.418347	0.607742
H120	H	2.095346	0.081653	1.107742
O121	O	0.929300	-0.461654	0.382939
O122	O	1.429300	0.038346	0.882939
C123	C	1.047102	-0.453534	0.477862
C124	C	1.547102	0.046466	0.977862
C125	C	0.989855	-0.523906	0.428272
C126	C	1.489855	-0.023906	0.928272
H127	H	1.096092	-0.503834	0.514517
H128	H	1.596092	-0.003834	1.014517
H129	H	0.987584	-0.407734	0.510180
H130	H	1.487584	0.092266	1.010180
H131	H	1.100070	-0.396919	0.445562
H132	H	1.600070	0.103081	0.945562
H133	H	0.936889	-0.580581	0.460518
H134	H	1.436889	-0.080581	0.960518
H135	H	1.049430	-0.569632	0.395952
H136	H	1.549430	-0.069632	0.895952
H137	H	1.587409	-0.426251	0.741084
H138	H	2.087409	0.073749	1.241084
H139	H	1.392807	-0.620742	0.937800
H140	H	1.892807	-0.120742	1.437800
O141	O	1.334056	-0.679536	0.746921
O142	O	1.834056	-0.179536	1.246921
C143	C	1.268016	-0.745443	0.860143
C144	C	1.768016	-0.245443	1.360143
C145	C	1.343930	-0.669531	0.819695
C146	C	1.843930	-0.169531	1.319695
H147	H	1.275957	-0.737364	0.918988
H148	H	1.775957	-0.237364	1.418988
H149	H	1.287193	-0.828877	0.845735
H150	H	1.787193	-0.328877	1.345735
H151	H	1.184633	-0.726233	0.845643
H152	H	1.684633	-0.226233	1.345643
H153	H	1.427339	-0.688645	0.834173
H154	H	1.927339	-0.188645	1.334173
H155	H	1.324663	-0.586119	0.834106
H156	H	1.824663	-0.086119	1.334106
H157	H	1.352734	-0.660804	0.607691
H158	H	1.852734	-0.160804	1.107691
H159	H	1.635400	-0.378261	0.937842
H160	H	2.135400	0.121739	1.437842
O161	O	1.637520	-0.376042	1.077074
O162	O	2.137520	0.123958	1.577074
C163	C	1.690089	-0.323559	1.190320
C164	C	2.190089	0.176441	1.690320
C165	C	1.618992	-0.394678	1.149843
C166	C	2.118992	0.105322	1.649843
H167	H	1.675150	-0.338618	1.249160
H168	H	2.175150	0.161382	1.749160
H169	H	1.672617	-0.238419	1.175926
H170	H	2.172617	0.261581	1.675926
H171	H	1.775197	-0.341043	1.175831
H172	H	2.275197	0.158957	1.675831
H173	H	1.533861	-0.377287	1.164309
H174	H	2.033861	0.122713	1.664309
H175	H	1.636553	-0.479797	1.164240
H176	H	2.136553	0.020203	1.664240
H177	H	1.384869	-0.628641	1.071142
H178	H	1.884869	-0.128641	1.571142
