data_functionalizedCrystal
_audit_creation_method	'MofGen! by Chris Wilmer'
_symmetry_space_group_name_H-M	'P1'
_symmetry_Int_Tables_number	1
_symmetry_cell_setting	triclinic
loop_
_symmetry_equiv_pos_as_xyz
  x,y,z
_cell_length_a	23.532407
_cell_length_b	23.532407
_cell_length_c	10.868271
_cell_angle_alpha	89.990218
_cell_angle_beta	89.998361
_cell_angle_gamma	82.848712
loop_
_atom_site_label
_atom_site_type_symbol
_atom_site_fract_x
_atom_site_fract_y
_atom_site_fract_z
O1	O	0.755259	0.069136	-0.102257
O2	O	1.088593	0.402469	0.231076
O3	O	1.421926	0.735802	0.564410
O4	O	0.589396	0.079139	-0.102278
O5	O	0.922729	0.412472	0.231055
O6	O	1.256063	0.745805	0.564388
O7	O	0.677329	-0.008795	-0.102244
O8	O	1.010663	0.324539	0.231089
O9	O	1.343996	0.657872	0.564422
O10	O	0.667326	0.157069	-0.102291
O11	O	1.000659	0.490402	0.231043
O12	O	1.333993	0.823735	0.564376
O13	O	0.677322	-0.008798	0.102400
O14	O	1.010655	0.324535	0.435734
O15	O	1.343989	0.657869	0.769067
O16	O	0.589389	0.079135	0.102366
O17	O	0.922722	0.412469	0.435700
O18	O	1.256055	0.745802	0.769033
O19	O	0.755252	0.069132	0.102388
O20	O	1.088585	0.402466	0.435721
O21	O	1.421919	0.735799	0.769054
Zn22	Zn	0.672319	0.074133	0.134869
Zn23	Zn	1.005653	0.407467	0.468202
Zn24	Zn	1.338986	0.740800	0.801535
Zn25	Zn	0.672329	0.074138	-0.134759
Zn26	Zn	1.005662	0.407471	0.198574
Zn27	Zn	1.338995	0.740804	0.531907
O28	O	0.667319	0.157065	0.102354
O29	O	1.000652	0.490399	0.435687
O30	O	1.333985	0.823732	0.769021
C31	C	0.568176	0.078882	0.000042
C32	C	0.901510	0.412216	0.333375
C33	C	1.234843	0.745549	0.666708
C34	C	0.504959	0.078116	0.000035
C35	C	0.838293	0.411450	0.333368
C36	C	1.171626	0.744783	0.666701
C37	C	0.238792	0.022921	0.000084
C38	C	0.572125	0.356254	0.333417
C39	C	0.905458	0.689588	0.666750
C40	C	0.298192	0.023632	0.000083
C41	C	0.631525	0.356966	0.333416
C42	C	0.964859	0.690299	0.666750
O43	O	0.334937	-0.020153	0.000138
O44	O	0.668270	0.313180	0.333471
O45	O	1.001603	0.646513	0.666805
N46	N	0.320818	0.075909	0.000060
N47	N	0.654152	0.409242	0.333393
N48	N	0.987485	0.742575	0.666727
C49	C	0.284041	0.127477	0.000050
C50	C	0.617374	0.460810	0.333383
C51	C	0.950707	0.794144	0.666717
O52	O	0.308740	0.172007	0.000032
O53	O	0.642074	0.505341	0.333365
O54	O	0.975407	0.838674	0.666698
C55	C	0.224642	0.126765	0.000059
C56	C	0.557975	0.460098	0.333393
C57	C	0.891308	0.793432	0.666726
C58	C	0.202019	0.074485	0.000070
C59	C	0.535352	0.407819	0.333403
C60	C	0.868686	0.741152	0.666737
C61	C	0.216169	-0.029354	0.000095
C62	C	0.549502	0.303979	0.333429
C63	C	0.882835	0.637312	0.666762
C64	C	0.156772	-0.030066	0.000094
C65	C	0.490106	0.303268	0.333427
C66	C	0.823439	0.636601	0.666760
C67	C	0.119999	0.021499	0.000080
C68	C	0.453333	0.354832	0.333413
C69	C	0.786666	0.688165	0.666747
C70	C	0.142623	0.073774	0.000068
C71	C	0.475956	0.407107	0.333401
C72	C	0.809289	0.740441	0.666735
C73	C	0.187865	0.178333	0.000058
C74	C	0.521199	0.511666	0.333392
C75	C	0.854532	0.844999	0.666725
C76	C	0.128463	0.177616	0.000069
C77	C	0.461796	0.510949	0.333402
C78	C	0.795129	0.844283	0.666735
C79	C	0.105840	0.125336	0.000079
C80	C	0.439173	0.458670	0.333412
C81	C	0.772507	0.792003	0.666746
C82	C	0.046454	0.124627	0.000053
C83	C	0.379787	0.457960	0.333386
C84	C	0.713120	0.791294	0.666719
N85	N	0.023828	0.072351	0.000076
N86	N	0.357161	0.405684	0.333409
N87	N	0.690494	0.739017	0.666742
C88	C	0.060600	0.020787	0.000089
C89	C	0.393934	0.354120	0.333423
C90	C	0.727267	0.687453	0.666756
C91	C	0.408783	0.128968	0.000033
C92	C	0.742117	0.462302	0.333366
C93	C	1.075450	0.795635	0.666699
C94	C	0.468181	0.129681	0.000015
C95	C	0.801514	0.463014	0.333348
C96	C	1.134848	0.796348	0.666681
C97	C	0.482328	0.025836	0.000050
C98	C	0.815662	0.359170	0.333383
C99	C	1.148995	0.692503	0.666716
C100	C	0.422929	0.025124	0.000059
C101	C	0.756263	0.358457	0.333392
C102	C	1.089596	0.691791	0.666726
C103	C	0.386157	0.076692	0.000056
C104	C	0.719490	0.410025	0.333389
C105	C	1.052824	0.743359	0.666722
C106	C	-0.064136	0.019297	0.000085
C107	C	0.269197	0.352630	0.333418
C108	C	0.602530	0.685964	0.666751
C109	C	-0.123538	0.018590	0.000078
C110	C	0.209795	0.351924	0.333411
C111	C	0.543128	0.685257	0.666744
C112	C	-0.137680	0.122435	0.000049
C113	C	0.195653	0.455768	0.333382
C114	C	0.528986	0.789101	0.666716
C115	C	-0.078284	0.123142	0.000049
C116	C	0.255050	0.456475	0.333383
C117	C	0.588383	0.789808	0.666716
C118	C	-0.041512	0.071568	0.000071
C119	C	0.291821	0.404901	0.333405
C120	C	0.625154	0.738235	0.666738
O121	O	0.009675	0.168390	0.000003
O122	O	0.343008	0.501723	0.333336
O123	O	0.676341	0.835057	0.666670
O124	O	0.035892	-0.023737	0.000124
O125	O	0.369226	0.309597	0.333457
O126	O	0.702559	0.642930	0.666791
C127	C	0.677071	-0.030012	0.000081
C128	C	1.010404	0.303321	0.333414
C129	C	1.343738	0.636654	0.666748
C130	C	0.676305	-0.093229	0.000090
C131	C	1.009638	0.240104	0.333424
C132	C	1.342972	0.573437	0.666757
C133	C	0.723538	-0.492332	0.000029
C134	C	1.056872	-0.158999	0.333362
C135	C	1.390205	0.174334	0.666696
C136	C	0.722827	-0.551733	0.000020
C137	C	1.056160	-0.218399	0.333353
C138	C	1.389494	0.114934	0.666686
O139	O	0.766613	-0.588477	-0.000020
O140	O	1.099946	-0.255144	0.333313
O141	O	1.433280	0.078190	0.666646
N142	N	0.670551	-0.574359	0.000014
N143	N	1.003884	-0.241025	0.333347
N144	N	1.337217	0.092308	0.666680
C145	C	0.618982	-0.537581	0.000005
C146	C	0.952316	-0.204248	0.333338
C147	C	1.285649	0.129085	0.666672
O148	O	0.574452	-0.562281	-0.000002
O149	O	0.907785	-0.228948	0.333331
O150	O	1.241119	0.104386	0.666665
C151	C	0.619695	-0.478182	0.000005
C152	C	0.953028	-0.144849	0.333339
C153	C	1.286361	0.188485	0.666672
C154	C	0.671974	-0.455559	0.000024
C155	C	1.005308	-0.122226	0.333357
C156	C	1.338641	0.211107	0.666690
C157	C	0.775814	-0.469709	0.000046
C158	C	1.109147	-0.136376	0.333379
C159	C	1.442481	0.196958	0.666713
C160	C	0.776525	-0.410313	0.000058
C161	C	1.109858	-0.076980	0.333391
C162	C	1.443192	0.256354	0.666724
C163	C	0.724961	-0.373540	0.000052
C164	C	1.058294	-0.040207	0.333386
C165	C	1.391628	0.293127	0.666719
C166	C	0.672685	-0.396163	0.000036
C167	C	1.006019	-0.062830	0.333369
C168	C	1.339352	0.270503	0.666702
C169	C	0.568127	-0.441406	-0.000012
C170	C	0.901460	-0.108072	0.333321
C171	C	1.234794	0.225261	0.666654
C172	C	0.568843	-0.382003	-0.000012
C173	C	0.902177	-0.048670	0.333321
C174	C	1.235510	0.284663	0.666654
C175	C	0.621123	-0.359381	0.000006
C176	C	0.954457	-0.026047	0.333339
C177	C	1.287790	0.307286	0.666672
C178	C	0.621832	-0.299994	0.000042
C179	C	0.955166	0.033339	0.333375
C180	C	1.288499	0.366672	0.666709
N181	N	0.674109	-0.277368	0.000048
N182	N	1.007442	0.055965	0.333381
N183	N	1.340775	0.389299	0.666715
C184	C	0.725673	-0.314141	0.000053
C185	C	1.059006	0.019192	0.333386
C186	C	1.392340	0.352526	0.666720
C187	C	0.617491	-0.662324	0.000001
C188	C	0.950824	-0.328990	0.333335
C189	C	1.284158	0.004343	0.666668
C190	C	0.616778	-0.721722	0.000010
C191	C	0.950112	-0.388388	0.333343
C192	C	1.283445	-0.055055	0.666676
C193	C	0.720623	-0.735869	0.000022
C194	C	1.053957	-0.402536	0.333355
C195	C	1.387290	-0.069202	0.666689
C196	C	0.721335	-0.676470	0.000023
C197	C	1.054669	-0.343137	0.333356
C198	C	1.388002	-0.009803	0.666689
C199	C	0.669767	-0.639698	0.000007
C200	C	1.003101	-0.306364	0.333341
C201	C	1.336434	0.026969	0.666674
C202	C	0.727163	-0.189404	0.000079
C203	C	1.060496	0.143929	0.333412
C204	C	1.393829	0.477262	0.666745
C205	C	0.727869	-0.130002	0.000096
C206	C	1.061203	0.203331	0.333429
C207	C	1.394536	0.536664	0.666762
C208	C	0.624025	-0.115860	0.000077
C209	C	0.957358	0.217473	0.333410
C210	C	1.290691	0.550807	0.666743
C211	C	0.623318	-0.175257	0.000066
C212	C	0.956651	0.158076	0.333400
C213	C	1.289984	0.491410	0.666733
C214	C	0.674891	-0.212028	0.000063
C215	C	1.008225	0.121305	0.333397
C216	C	1.341558	0.454639	0.666730
O217	O	0.578069	-0.263215	0.000077
O218	O	0.911403	0.070118	0.333410
O219	O	1.244736	0.403452	0.666743
O220	O	0.770196	-0.289433	0.000044
O221	O	1.103529	0.043900	0.333377
O222	O	1.436863	0.377234	0.666710
C223	C	0.776472	0.069389	0.000065
C224	C	1.109805	0.402722	0.333398
C225	C	1.443138	0.736055	0.666732
C226	C	0.839689	0.070155	0.000064
C227	C	1.173022	0.403488	0.333397
C228	C	1.506355	0.736821	0.666731
C229	C	0.667577	0.178283	0.000026
C230	C	1.000910	0.511617	0.333359
C231	C	1.334244	0.844950	0.666692
C232	C	0.668343	0.241500	0.000008
C233	C	1.001676	0.574834	0.333342
C234	C	1.335010	0.908167	0.666675
N235	N	0.672317	0.074130	0.318883
N236	N	1.005650	0.407463	0.652216
N237	N	1.338984	0.740797	0.985550
N238	N	0.672336	0.074137	-0.318773
N239	N	1.005669	0.407470	0.014560
N240	N	1.339002	0.740803	0.347893
C241	C	0.672326	0.074137	0.569889
C242	C	1.005659	0.407470	0.903222
C243	C	1.338992	0.740803	1.236556
C244	C	0.672319	0.074135	0.430211
C245	C	1.005652	0.407468	0.763545
C246	C	1.338986	0.740801	1.096878
H247	H	0.206274	0.220904	0.000044
H248	H	0.539607	0.554238	0.333378
H249	H	0.872940	0.887571	0.666711
Cl250	Cl	-0.049843	0.188865	0.000020
Cl251	Cl	0.283491	0.522199	0.333354
Cl252	Cl	0.616824	0.855532	0.666687
H253	H	-0.141954	-0.023984	0.000083
H254	H	0.191379	0.309349	0.333416
H255	H	0.524713	0.642683	0.666750
Cl256	Cl	-0.017919	-0.045539	0.000109
Cl257	Cl	0.315415	0.287794	0.333442
Cl258	Cl	0.648748	0.621127	0.666775
H259	H	0.574207	-0.740135	0.000016
H260	H	0.907540	-0.406802	0.333349
H261	H	1.240874	-0.073469	0.666683
H262	H	0.526850	-0.352065	-0.000027
H263	H	0.860183	-0.018732	0.333307
H264	H	1.193516	0.314601	0.666640
H265	H	0.138359	-0.072637	0.000107
H266	H	0.471692	0.260696	0.333441
H267	H	0.805026	0.594030	0.666774
H268	H	0.819097	-0.391900	0.000067
H269	H	1.152430	-0.058566	0.333401
H270	H	1.485763	0.274767	0.666734
H271	H	0.246104	-0.071347	0.000110
H272	H	0.579437	0.261987	0.333444
H273	H	0.912771	0.595320	0.666777
Cl274	Cl	0.840647	-0.515928	0.000055
Cl275	Cl	1.173980	-0.182595	0.333388
Cl276	Cl	1.507314	0.150738	0.666721
Cl277	Cl	0.552656	-0.616101	-0.000004
Cl278	Cl	0.885989	-0.282767	0.333329
Cl279	Cl	1.219323	0.050566	0.666663
Cl280	Cl	0.793597	-0.101567	0.000116
Cl281	Cl	1.126931	0.231767	0.333449
Cl282	Cl	1.460264	0.565100	0.666783
H283	H	0.378846	0.170964	0.000021
H284	H	0.712179	0.504297	0.333354
H285	H	1.045512	0.837630	0.666688
H286	H	0.769159	-0.219337	0.000071
H287	H	1.102492	0.113996	0.333405
H288	H	1.435825	0.447330	0.666738
Cl289	Cl	0.557594	-0.203698	0.000066
Cl290	Cl	0.890928	0.129636	0.333400
Cl291	Cl	1.224261	0.462969	0.666733
H292	H	0.763906	-0.658055	0.000036
H293	H	1.097239	-0.324722	0.333370
H294	H	1.430573	0.008612	0.666703
H295	H	0.762610	-0.765821	0.000021
H296	H	1.095943	-0.432487	0.333355
H297	H	1.429276	-0.099154	0.666688
Cl298	Cl	0.502400	-0.469830	-0.000043
Cl299	Cl	0.835733	-0.136497	0.333290
Cl300	Cl	1.169066	0.196836	0.666623
Cl301	Cl	0.394496	-0.040601	0.000079
Cl302	Cl	0.727829	0.292732	0.333412
Cl303	Cl	1.061163	0.626066	0.666745
H304	H	0.098525	0.219610	0.000071
H305	H	0.431858	0.552943	0.333405
H306	H	0.765191	0.886277	0.666738
H307	H	0.512280	-0.016150	0.000061
H308	H	0.845613	0.317183	0.333394
H309	H	1.178947	0.650516	0.666728
Cl310	Cl	0.559205	-0.069621	0.000067
Cl311	Cl	0.892538	0.263713	0.333401
Cl312	Cl	1.225871	0.597046	0.666734
Cl313	Cl	0.496613	0.195407	-0.000024
Cl314	Cl	0.829947	0.528740	0.333309
Cl315	Cl	1.163280	0.862073	0.666643
Cl316	Cl	-0.183920	0.187255	0.000026
Cl317	Cl	0.149414	0.520588	0.333360
Cl318	Cl	0.482747	0.853921	0.666693
