data_functionalizedCrystal
_audit_creation_method	'MofGen! by Chris Wilmer'
_symmetry_space_group_name_H-M	'P1'
_symmetry_Int_Tables_number	1
_symmetry_cell_setting	triclinic
loop_
_symmetry_equiv_pos_as_xyz
  x,y,z
_cell_length_a	12.594516
_cell_length_b	18.215407
_cell_length_c	18.215399
_cell_angle_alpha	89.985640
_cell_angle_beta	89.975485
_cell_angle_gamma	90.013496
loop_
_atom_site_label
_atom_site_type_symbol
_atom_site_fract_x
_atom_site_fract_y
_atom_site_fract_z
Zn1	Zn	-0.423800	1.125095	-0.416097
Zn2	Zn	0.076200	1.625095	0.083903
Zn3	Zn	-0.601805	1.125029	-0.293044
Zn4	Zn	-0.101805	1.625029	0.206956
Zn5	Zn	-0.423833	1.002034	-0.293050
Zn6	Zn	0.076167	1.502034	0.206950
Zn7	Zn	-0.601729	1.002013	-0.416074
Zn8	Zn	-0.101729	1.502013	0.083926
O9	O	-0.512792	1.063543	-0.354566
O10	O	-0.012792	1.563543	0.145434
O11	O	-0.447431	1.228071	-0.399781
O12	O	0.052569	1.728071	0.100219
O13	O	-0.578243	1.108695	-0.190060
O14	O	-0.078243	1.608695	0.309940
O15	O	-0.274883	1.018395	-0.309385
O16	O	0.225117	1.518395	0.190615
O17	O	-0.578211	1.228022	-0.309374
O18	O	-0.078211	1.728022	0.190626
O19	O	-0.274859	1.108808	-0.399787
O20	O	0.225141	1.608808	0.100213
O21	O	-0.447487	1.018331	-0.190065
O22	O	0.052513	1.518331	0.309935
O23	O	-0.447414	0.899047	-0.309362
O24	O	0.052586	1.399047	0.190638
O25	O	-0.578081	1.018358	-0.519061
O26	O	-0.078081	1.518358	-0.019061
O27	O	-0.578113	0.899031	-0.399747
O28	O	-0.078113	1.399031	0.100253
O29	O	-0.447357	1.108787	-0.519079
O30	O	0.052643	1.608787	-0.019079
O31	O	-0.750741	1.108674	-0.309351
O32	O	-0.250741	1.608674	0.190649
O33	O	-0.750685	1.018294	-0.399741
O34	O	-0.250685	1.518294	0.100259
C35	C	-0.512759	0.872337	-0.354553
C36	C	-0.012759	1.372337	0.145447
C37	C	-0.512771	0.790538	-0.354565
C38	C	-0.012771	1.290538	0.145435
C39	C	-0.444814	0.602368	-0.401715
C40	C	0.055186	1.102368	0.098285
C41	C	-0.444823	0.525509	-0.401717
C42	C	0.055177	1.025509	0.098283
C43	C	-0.580800	0.525470	-0.307431
C44	C	-0.080800	1.025470	0.192569
C45	C	-0.580784	0.602327	-0.307425
C46	C	-0.080784	1.102327	0.192575
C47	C	-0.512793	0.640774	-0.354571
C48	C	-0.012793	1.140774	0.145429
C49	C	-0.512818	0.487058	-0.354579
C50	C	-0.012818	0.987058	0.145421
C51	C	-0.512828	0.403724	-0.354582
C52	C	-0.012828	0.903724	0.145418
C53	C	-0.512781	0.724113	-0.354568
C54	C	-0.012781	1.224113	0.145432
C55	C	-0.789333	1.063495	-0.354559
C56	C	-0.289333	1.563495	0.145441
C57	C	-0.907638	1.063541	-0.354581
C58	C	-0.407638	1.563541	0.145419
C59	C	-0.976900	1.014379	-0.403709
C60	C	-0.476900	1.514379	0.096291
C61	C	-1.047761	0.996453	-0.336557
C62	C	-0.547761	1.496453	0.163443
C63	C	-1.047576	1.081534	-0.421744
C64	C	-0.547576	1.581534	0.078256
C65	C	-0.976942	1.045580	-0.287393
C66	C	-0.476942	1.545580	0.212607
C67	C	-0.976750	1.130692	-0.372625
C68	C	-0.476750	1.630692	0.127375
C69	C	-1.047580	1.112792	-0.305427
C70	C	-0.547580	1.612792	0.194573
C71	C	-0.235171	1.063611	-0.354590
C72	C	0.264829	1.563611	0.145410
C73	C	-0.116866	1.063640	-0.354599
C74	C	0.383134	1.563640	0.145401
C75	C	-0.512707	1.063578	-0.546519
C76	C	-0.012707	1.563578	-0.046519
C77	C	-0.512671	1.063592	-0.628318
C78	C	-0.012671	1.563592	-0.128318
C79	C	-0.512826	1.255496	-0.354580
C80	C	-0.012826	1.755496	0.145420
C81	C	-0.512840	1.337295	-0.354585
C82	C	-0.012840	1.837295	0.145415
C83	C	-0.444541	1.016580	-0.816515
C84	C	0.055459	1.516580	-0.316515
C85	C	-0.444519	1.016593	-0.893374
C86	C	0.055481	1.516593	-0.393374
C87	C	-0.580674	1.110693	-0.893359
C88	C	-0.080674	1.610693	-0.393359
C89	C	-0.580700	1.110676	-0.816501
C90	C	-0.080700	1.610676	-0.316501
C91	C	-0.512627	1.063620	-0.778082
C92	C	-0.012627	1.563620	-0.278082
C93	C	-0.512580	1.063650	-0.931798
C94	C	-0.012580	1.563650	-0.431798
C95	C	-0.512557	1.063664	-1.015132
C96	C	-0.012557	1.563664	-0.515132
C97	C	-0.512651	1.063605	-0.694743
C98	C	-0.012651	1.563605	-0.194743
C99	C	-0.512800	1.063551	-0.163360
C100	C	-0.012800	1.563551	0.336640
C101	C	-0.512536	1.063678	-0.081561
C102	C	-0.012536	1.563678	0.418439
H103	H	-0.389466	0.494242	-0.440105
H104	H	0.110534	0.994242	0.059895
H105	H	-0.636096	1.149004	-0.924649
H106	H	-0.136096	1.649004	-0.424649
H107	H	-0.636157	0.494157	-0.269047
H108	H	-0.136157	0.994157	0.230953
C109	C	-0.723907	1.120848	-0.730052
C110	C	-0.223907	1.620848	-0.230052
C111	C	-0.655549	1.162387	-0.774250
C112	C	-0.155549	1.662387	-0.274250
H113	H	-0.770119	1.152770	-0.703972
H114	H	-0.270119	1.652770	-0.203972
H115	H	-0.683374	1.092827	-0.696176
H116	H	-0.183374	1.592827	-0.196176
H117	H	-0.764602	1.088785	-0.760038
H118	H	-0.264602	1.588785	-0.260038
H119	H	-0.614849	1.194446	-0.744263
H120	H	-0.114849	1.694446	-0.244263
H121	H	-0.696087	1.190421	-0.808130
H122	H	-0.196087	1.690421	-0.308130
C123	C	-1.200632	1.102507	-0.497437
C124	C	-0.700632	1.602507	0.002563
C125	C	-1.089464	1.102028	-0.498409
C126	C	-0.589464	1.602028	0.001591
H127	H	-1.226486	1.115150	-0.544770
H128	H	-0.726486	1.615150	-0.044770
H129	H	-1.224823	1.137517	-0.462608
H130	H	-0.724823	1.637517	0.037392
H131	H	-1.225977	1.055172	-0.484287
H132	H	-0.725977	1.555172	0.015713
H133	H	-1.064118	1.149364	-0.511554
H134	H	-0.564118	1.649364	-0.011554
H135	H	-1.065262	1.067016	-0.533250
H136	H	-0.565262	1.567016	-0.033250
C137	C	-0.393174	0.626071	-0.526389
C138	C	0.106826	1.126071	-0.026389
C139	C	-0.370073	0.644630	-0.453532
C140	C	0.129927	1.144630	0.046468
H141	H	-0.347024	0.652157	-0.558377
H142	H	0.152976	1.152157	-0.058377
H143	H	-0.464695	0.638669	-0.537073
H144	H	0.035305	1.138669	-0.037073
H145	H	-0.383452	0.574799	-0.533128
H146	H	0.116548	1.074799	-0.033128
H147	H	-0.379803	0.695901	-0.446792
H148	H	0.120197	1.195901	0.053208
H149	H	-0.298534	0.632036	-0.442844
H150	H	0.201466	1.132036	0.057156
C151	C	-0.715207	0.594574	-0.214230
C152	C	-0.215207	1.094574	0.285770
C153	C	-0.655516	0.644549	-0.255603
C154	C	-0.155516	1.144549	0.244397
H155	H	-0.761343	0.620642	-0.182241
H156	H	-0.261343	1.120642	0.317759
H157	H	-0.668793	0.564592	-0.186134
H158	H	-0.168793	1.064592	0.313866
H159	H	-0.755983	0.564603	-0.246257
H160	H	-0.255983	1.064603	0.253743
H161	H	-0.614735	0.674516	-0.223576
H162	H	-0.114735	1.174516	0.276424
H163	H	-0.701937	0.674543	-0.283701
H164	H	-0.201937	1.174543	0.216299
H165	H	-0.945864	0.972730	-0.445195
H166	H	-0.445864	1.472730	0.054805
C167	C	-1.054206	0.868401	-0.367462
C168	C	-0.554206	1.368401	0.132538
C169	C	-1.089875	0.919852	-0.315956
C170	C	-0.589875	1.419852	0.184044
H171	H	-1.080209	0.821112	-0.354749
H172	H	-0.580209	1.321112	0.145251
H173	H	-0.978799	0.867701	-0.367741
H174	H	-0.478799	1.367701	0.132259
H175	H	-1.079437	0.881493	-0.414827
H176	H	-0.579437	1.381493	0.085173
H177	H	-1.064637	0.906763	-0.268591
H178	H	-0.564637	1.406763	0.231409
H179	H	-1.165298	0.920550	-0.315669
H180	H	-0.665298	1.420550	0.184331
H181	H	-0.946043	1.030336	-0.230585
H182	H	-0.446043	1.530336	0.269415
H183	H	-1.078418	1.154409	-0.263841
H184	H	-0.578418	1.654409	0.236159
C185	C	-0.970190	1.225954	-0.463633
C186	C	-0.470190	1.725954	0.036367
C187	C	-0.934601	1.207272	-0.393251
C188	C	-0.434601	1.707272	0.106749
H189	H	-0.944160	1.273230	-0.476372
H190	H	-0.444160	1.773230	0.023628
H191	H	-1.045597	1.226440	-0.464229
H192	H	-0.545597	1.726440	0.035771
H193	H	-0.944932	1.190868	-0.498031
H194	H	-0.444932	1.690868	0.001969
H195	H	-0.959866	1.242356	-0.358852
H196	H	-0.459866	1.742356	0.141148
H197	H	-0.859179	1.206792	-0.392650
H198	H	-0.359179	1.706792	0.107350
C199	C	-0.384041	0.974821	-1.011196
C200	C	0.115959	1.474821	-0.511196
C201	C	-0.369684	0.964879	-0.935622
C202	C	0.130316	1.464879	-0.435622
H203	H	-0.337846	0.942888	-1.037276
H204	H	0.162154	1.442888	-0.537276
H205	H	-0.368457	1.024266	-1.023797
H206	H	0.131543	1.524266	-0.523797
H207	H	-0.455556	0.964040	-1.023769
H208	H	0.044444	1.464040	-0.523769
H209	H	-0.298170	0.975666	-0.923047
H210	H	0.201830	1.475666	-0.423047
H211	H	-0.385260	0.915423	-0.923016
H212	H	0.114740	1.415423	-0.423016
C213	C	-0.309970	0.923558	-0.824254
C214	C	0.190030	1.423558	-0.324254
C215	C	-0.369730	0.964848	-0.774284
C216	C	0.130270	1.464848	-0.274284
H217	H	-0.263792	0.891616	-0.798181
H218	H	0.236208	1.391616	-0.298181
H219	H	-0.269247	0.955636	-0.854234
H220	H	0.230753	1.455636	-0.354234
H221	H	-0.356346	0.895411	-0.854227
H222	H	0.143654	1.395411	-0.354227
H223	H	-0.323353	0.993000	-0.744314
H224	H	0.176647	1.493000	-0.244314
H225	H	-0.410456	0.932766	-0.744291
H226	H	0.089544	1.432766	-0.244291
