data_functionalizedCrystal
_audit_creation_method	'MofGen! by Chris Wilmer'
_symmetry_space_group_name_H-M	'P1'
_symmetry_Int_Tables_number	1
_symmetry_cell_setting	triclinic
loop_
_symmetry_equiv_pos_as_xyz
  x,y,z
_cell_length_a	16.109302
_cell_length_b	12.837942
_cell_length_c	14.586319
_cell_angle_alpha	89.996741
_cell_angle_beta	89.994552
_cell_angle_gamma	89.145360
loop_
_atom_site_label
_atom_site_type_symbol
_atom_site_fract_x
_atom_site_fract_y
_atom_site_fract_z
O1	O	1.113716	0.133244	-0.076281
O2	O	0.872971	0.149825	-0.076274
O3	O	0.988005	-0.009367	-0.076272
O4	O	0.998681	0.292435	-0.076284
O5	O	0.987996	-0.009369	0.076209
O6	O	0.872962	0.149822	0.076207
O7	O	1.113707	0.133242	0.076199
Cu8	Cu	0.993333	0.141532	0.090126
Cu9	Cu	0.993344	0.141535	-0.090201
O10	O	0.998672	0.292433	0.076197
C11	C	0.841938	0.149152	-0.000033
C12	C	0.749483	0.147138	-0.000030
C13	C	0.536767	0.142479	0.083078
C14	C	0.449896	0.140576	0.083075
C15	C	0.449917	0.140584	-0.083168
C16	C	0.536786	0.142480	-0.083164
C17	C	0.580209	0.143433	-0.000038
C18	C	0.406468	0.139633	-0.000045
C19	C	0.312278	0.137569	-0.000049
C20	C	0.674405	0.145495	-0.000034
C21	C	0.984394	-0.047987	-0.000032
C22	C	0.973637	-0.163061	-0.000033
C23	C	1.102954	-0.404062	-0.000056
C24	C	1.092851	-0.512185	-0.000057
C25	C	0.943328	-0.487430	-0.000044
C26	C	0.953431	-0.379308	-0.000042
C27	C	1.033247	-0.337628	-0.000047
C28	C	1.043349	-0.229504	-0.000039
C29	C	0.893827	-0.204751	-0.000032
C30	C	0.883724	-0.312873	-0.000033
C31	C	1.144739	0.133914	-0.000044
C32	C	1.237195	0.135929	-0.000053
C33	C	1.002284	0.331054	-0.000045
C34	C	1.013040	0.446127	-0.000050
N35	N	0.993332	0.141529	0.216957
N36	N	0.993352	0.141529	-0.217032
C37	C	1.044290	0.071063	0.451965
C38	C	1.044292	0.071060	0.547946
C39	C	0.942388	0.211999	0.547954
C40	C	0.942382	0.211995	0.451974
C41	C	0.993338	0.141529	0.403982
C42	C	0.993346	0.141529	0.595943
C43	C	0.993348	0.141527	0.700010
C44	C	0.993335	0.141529	0.299908
H45	H	1.108339	-0.195570	-0.000040
O46	O	0.806154	-0.353242	0.000094
C47	C	0.763150	-0.319322	0.079083
H48	H	0.791745	-0.244342	0.105413
H49	H	0.695104	-0.304294	0.061331
H50	H	0.767827	-0.381898	0.134377
O51	O	0.826044	-0.140322	-0.000146
C52	C	0.778104	-0.159184	-0.079124
H53	H	0.792029	-0.241202	-0.105461
H54	H	0.709367	-0.151568	-0.061353
H55	H	0.794151	-0.100037	-0.134419
O56	O	1.093684	0.002445	0.405406
C57	C	1.072032	-0.100157	0.428919
H58	H	1.005425	-0.100654	0.455302
H59	H	1.077472	-0.152209	0.365822
H60	H	1.115689	-0.130574	0.484646
O61	O	0.579044	0.143257	0.163764
C62	C	0.631587	0.054618	0.168748
H63	H	0.645381	0.024998	0.096580
H64	H	0.692150	0.076125	0.203932
H65	H	0.599719	-0.008945	0.209762
O66	O	1.160501	-0.576825	0.000058
C67	C	1.159142	-0.640098	0.079039
H68	H	1.092720	-0.645553	0.105375
H69	H	1.183679	-0.721366	0.061273
H70	H	1.199930	-0.604541	0.134334
O71	O	0.407666	0.139464	0.163792
C72	C	0.359716	0.048652	0.168757
H73	H	0.387516	-0.013481	0.121587
H74	H	0.359503	0.018508	0.242272
H75	H	0.293357	0.067495	0.146428
O76	O	0.407604	0.139710	-0.163830
C77	C	0.321615	0.137809	-0.146013
H78	H	0.308897	0.170343	-0.074579
H79	H	0.287313	0.187390	-0.199099
H80	H	0.299101	0.054160	-0.149955
H81	H	0.572158	0.143253	-0.150851
H82	H	0.900902	0.269372	0.587038
H83	H	1.167943	-0.370127	-0.000051
H84	H	0.878346	-0.521385	-0.000049
O85	O	0.892862	0.280551	0.405500
C86	C	0.847878	0.342736	0.468437
H87	H	0.882060	0.343927	0.536850
H88	H	0.841750	0.425513	0.440696
H89	H	0.783452	0.309055	0.478659
O90	O	1.093666	0.002509	0.594597
C91	C	1.044083	-0.061445	0.650143
H92	H	0.978377	-0.063221	0.621230
H93	H	1.071479	-0.143825	0.651230
H94	H	1.042298	-0.029006	0.722883
