data_functionalizedCrystal
_audit_creation_method	'MofGen! by Chris Wilmer'
_symmetry_space_group_name_H-M	'P1'
_symmetry_Int_Tables_number	1
_symmetry_cell_setting	triclinic
loop_
_symmetry_equiv_pos_as_xyz
  x,y,z
_cell_length_a	11.792241
_cell_length_b	10.723024
_cell_length_c	9.198806
_cell_angle_alpha	89.997988
_cell_angle_beta	90.000255
_cell_angle_gamma	84.330643
loop_
_atom_site_label
_atom_site_type_symbol
_atom_site_fract_x
_atom_site_fract_y
_atom_site_fract_z
O1	O	1.507283	0.171036	-0.120747
O2	O	1.176980	0.188663	-0.120781
O3	O	1.349750	-0.001747	-0.120758
O4	O	1.334512	0.361446	-0.120770
O5	O	1.349736	-0.001747	0.121027
O6	O	1.176966	0.188663	0.121004
O7	O	1.507269	0.171035	0.121038
Cu8	Cu	1.342116	0.179849	0.143098
Cu9	Cu	1.342133	0.179850	-0.142841
O10	O	1.334499	0.361445	0.121015
C11	C	1.348634	-0.048244	0.000133
C12	C	1.345317	-0.186789	0.000127
C13	C	1.134680	0.187556	0.000108
C14	C	1.008659	0.184242	0.000095
C15	C	1.441990	-0.262028	0.000135
C16	C	1.438563	-0.405222	0.000130
C17	C	0.777933	0.178147	0.000137
C18	C	0.906326	0.181533	0.000114
C19	C	1.549569	0.172143	0.000146
C20	C	1.675590	0.175457	0.000150
C21	C	1.335614	0.407942	0.000121
C22	C	1.338932	0.546488	0.000117
N23	N	1.342113	0.179848	0.344212
N24	N	1.342145	0.179841	-0.343955
C25	C	1.414654	0.099549	0.416419
C26	C	1.414672	0.099544	0.583831
H27	H	1.527292	-0.220431	0.000153
O28	O	1.537270	-0.482392	-0.000122
C29	C	1.541553	-0.558552	-0.125328
H30	H	1.483931	-0.511200	-0.212854
H31	H	1.511328	-0.653349	-0.097021
C32	C	1.735668	-0.635811	-0.074597
C33	C	1.664904	-0.577648	-0.182104
H34	H	1.811757	-0.647596	-0.109617
H35	H	1.732783	-0.584505	0.009759
H36	H	1.710467	-0.714802	-0.051018
H37	H	1.690097	-0.498652	-0.205668
H38	H	1.667797	-0.628942	-0.266466
H39	H	1.256168	-0.388868	0.000120
O40	O	1.268160	0.262038	0.582053
C41	C	1.287844	0.385641	0.619166
H42	H	1.378719	0.386677	0.661089
H43	H	1.225237	0.422079	0.707412
C44	C	1.159544	0.468766	0.432380
C45	C	1.271162	0.470040	0.483858
H46	H	1.149250	0.520830	0.348919
H47	H	1.146279	0.385493	0.407379
H48	H	1.107385	0.499128	0.505931
H49	H	1.323319	0.439664	0.410315
H50	H	1.284436	0.553310	0.508844
H51	H	1.280016	0.248588	0.406332
O52	O	1.243616	-0.236548	-0.000081
C53	C	1.235716	-0.310985	-0.125328
H54	H	1.324954	-0.342666	-0.167068
H55	H	1.185892	-0.253878	-0.213015
C56	C	1.064246	-0.387730	-0.036038
C57	C	1.173849	-0.426650	-0.087297
H58	H	1.026079	-0.459075	-0.012583
H59	H	1.069564	-0.337577	0.048341
H60	H	1.022740	-0.340140	-0.109120
H61	H	1.215357	-0.474225	-0.014210
H62	H	1.168536	-0.476814	-0.171663
H63	H	1.476782	0.030801	0.645925
O64	O	1.488601	0.017529	0.342131
C65	C	1.426974	-0.059652	0.254082
H66	H	1.338605	-0.010376	0.231474
H67	H	1.418417	-0.151973	0.312603
C68	C	1.599127	-0.146333	0.137160
C69	C	1.490593	-0.085807	0.109381
H70	H	1.638370	-0.162472	0.047904
H71	H	1.640647	-0.094339	0.196483
H72	H	1.591980	-0.223260	0.185930
H73	H	1.497741	-0.008874	0.060629
H74	H	1.449075	-0.137789	0.050046
