data_functionalizedCrystal
_audit_creation_method	'MofGen! by Chris Wilmer'
_symmetry_space_group_name_H-M	'P1'
_symmetry_Int_Tables_number	1
_symmetry_cell_setting	triclinic
loop_
_symmetry_equiv_pos_as_xyz
  x,y,z
_cell_length_a	27.732048
_cell_length_b	12.837943
_cell_length_c	11.295483
_cell_angle_alpha	94.538773
_cell_angle_beta	94.055952
_cell_angle_gamma	91.264202
loop_
_atom_site_label
_atom_site_type_symbol
_atom_site_fract_x
_atom_site_fract_y
_atom_site_fract_z
O1	O	0.122633	-1.380472	-0.099030
O2	O	0.116430	-1.078766	-0.099036
O3	O	0.049600	-1.238988	-0.099010
O4	O	0.189464	-1.220251	-0.099056
O5	O	0.055460	-1.224916	0.099039
O6	O	0.122290	-1.064694	0.099013
O7	O	0.128493	-1.366400	0.099019
Cu8	Cu	0.125927	-1.214262	0.117099
Cu9	Cu	0.118997	-1.230904	-0.117116
O10	O	0.195323	-1.206178	0.098993
C11	C	0.117265	-1.033143	-0.000012
C12	C	0.111016	-0.918166	-0.000013
C13	C	0.034504	-1.231558	0.000018
C14	C	-0.019210	-1.230373	0.000027
C15	C	0.127658	-1.412023	-0.000008
C16	C	0.133908	-1.527001	-0.000015
C17	C	-0.353705	-1.317601	-0.000032
C18	C	-0.555583	-1.313207	-0.000049
O19	O	-0.582888	-1.392971	-0.000099
N20	N	-0.579414	-1.218201	-0.000050
C21	C	-0.552772	-1.124288	-0.000054
O22	O	-0.577674	-1.043380	-0.000067
C23	C	-0.350895	-1.128684	-0.000046
C24	C	-0.327067	-1.223695	-0.000033
C25	C	-0.329876	-1.412605	-0.000021
C26	C	-0.279410	-1.413702	-0.000010
C27	C	-0.252772	-1.319795	-0.000011
C28	C	-0.276600	-1.224792	-0.000022
C29	C	-0.324255	-1.034772	-0.000058
C30	C	-0.273783	-1.035879	-0.000059
C31	C	-0.249954	-1.130890	-0.000047
C32	C	-0.199496	-1.131982	-0.000012
N33	N	-0.175665	-1.226988	-0.000012
C34	C	-0.202303	-1.320895	-0.000011
C35	C	-0.658760	-1.121987	-0.000056
C36	C	-0.709229	-1.120887	-0.000056
C37	C	-0.712036	-1.309807	-0.000053
C38	C	-0.661566	-1.310905	-0.000045
C39	C	-0.634929	-1.216993	-0.000055
C40	C	-0.096319	-1.323191	0.000012
C41	C	-0.045848	-1.324279	0.000028
C42	C	-0.043045	-1.135361	0.000019
C43	C	-0.093512	-1.134271	0.000010
C44	C	-0.120148	-1.228195	0.000002
O45	O	-0.172160	-1.052262	0.000025
O46	O	-0.177392	-1.401793	-0.000024
C47	C	-0.404172	-1.316504	-0.000043
C48	C	-0.428000	-1.221501	-0.000054
C49	C	-0.401362	-1.127594	-0.000055
C50	C	-0.478469	-1.220401	-0.000054
C51	C	-0.505107	-1.314308	-0.000053
C52	C	-0.481276	-1.409314	-0.000053
C53	C	-0.430810	-1.410411	-0.000042
C54	C	-0.425193	-1.032588	-0.000056
C55	C	-0.475660	-1.031499	-0.000065
C56	C	-0.502298	-1.125405	-0.000064
C57	C	0.210420	-1.213608	-0.000037
C58	C	0.264133	-1.214794	-0.000055
N59	N	0.130801	-1.202564	0.281834
C60	C	0.186144	-0.676005	-0.000020
C61	C	0.180275	-0.567973	-0.000021
C62	C	0.093407	-0.594068	-0.000005
C63	C	0.099277	-0.702100	-0.000005
C64	C	0.145647	-0.743064	-0.000014
C65	C	0.151516	-0.851099	-0.000023
C66	C	0.064649	-0.877191	0.000002
C67	C	0.058780	-0.769159	0.000001
N68	N	0.114119	-1.242610	-0.281851
C69	C	0.079005	-1.326818	0.531143
C70	C	0.082692	-1.317985	0.655805
C71	C	0.141860	-1.176062	0.655823
C72	C	0.138173	-1.184894	0.531160
C73	C	0.106745	-1.260276	0.468825
C74	C	0.103060	-1.269113	0.344160
C75	C	0.162225	-1.127185	0.344180
C76	C	0.165912	-1.118353	0.468842
H77	H	-0.118000	-1.399673	0.000002
H78	H	0.053419	-1.388203	0.480389
N79	N	0.023279	-0.945689	0.000033
N80	N	-0.003989	-0.936431	0.083522
H81	H	-0.033207	-0.984808	0.083542
H82	H	-0.351560	-1.489079	-0.000025
H83	H	-0.642169	-1.388271	-0.000035
H84	H	0.191499	-1.056976	0.519610
N85	N	0.233504	-0.717873	-0.000024
N86	N	0.238738	-0.814331	-0.000021
H87	H	0.272186	-0.843901	-0.000023
H88	H	0.213252	-0.513376	-0.000022
H89	H	0.184814	-1.073006	0.293426
H90	H	-0.112913	-1.056903	0.000032
H91	H	-0.502974	-1.485775	-0.000047
N92	N	-0.021516	-1.421344	0.000050
N93	N	-0.045309	-1.505180	0.000051
H94	H	-0.028127	-1.573731	0.000066
H95	H	-0.260013	-1.491070	-0.000005
H96	H	-0.728625	-1.043518	-0.000045
N97	N	-0.739243	-1.405742	-0.000047
N98	N	-0.732086	-1.463192	0.083427
H99	H	-0.751302	-1.530944	0.083425
H100	H	0.021027	-0.735790	0.000023
N101	N	0.070927	-1.346058	0.280501
N102	N	0.046141	-1.405421	0.336164
H103	H	0.023433	-1.459741	0.291209
H104	H	0.060103	-1.372168	0.706541
N105	N	0.173961	-1.099066	0.719500
N106	N	0.218261	-1.100743	0.705578
H107	H	0.240933	-1.046360	0.750548
H108	H	-0.637077	-1.045507	-0.000064
N109	N	0.046047	-0.552207	0.000033
N110	N	0.035554	-0.488908	0.083525
H111	H	0.002105	-0.459341	0.083554
H112	H	-0.252098	-0.959403	-0.000070
N113	N	-0.348579	-0.937710	-0.000074
N114	N	-0.324780	-0.853882	-0.000088
H115	H	-0.341958	-0.785325	-0.000103
H116	H	-0.021347	-1.058904	0.000023
H117	H	-0.495056	-0.954123	-0.000065
N118	N	-0.406481	-1.507472	-0.000025
N119	N	-0.430279	-1.591302	-0.000022
H120	H	-0.413100	-1.659858	-0.000011
H121	H	-0.403509	-0.956117	-0.000059
H122	H	0.189273	-0.884449	-0.000028
