data_functionalizedCrystal
_audit_creation_method	'MofGen! by Chris Wilmer'
_symmetry_space_group_name_H-M	'P1'
_symmetry_Int_Tables_number	1
_symmetry_cell_setting	triclinic
loop_
_symmetry_equiv_pos_as_xyz
  x,y,z
_cell_length_a	19.188930
_cell_length_b	19.188924
_cell_length_c	16.053802
_cell_angle_alpha	87.445328
_cell_angle_beta	92.586369
_cell_angle_gamma	83.143372
loop_
_atom_site_label
_atom_site_type_symbol
_atom_site_fract_x
_atom_site_fract_y
_atom_site_fract_z
O1	O	-0.929109	-0.084208	-0.069702
O2	O	-0.725795	-0.095944	-0.069645
O3	O	-0.833321	0.011580	-0.069666
O4	O	-0.821583	-0.191732	-0.069682
O5	O	-0.827403	0.005686	0.069194
O6	O	-0.719876	-0.101838	0.069215
O7	O	-0.923190	-0.090102	0.069158
Zn8	Zn	-0.820594	-0.096906	0.091233
Zn9	Zn	-0.828392	-0.089140	-0.091721
O10	O	-0.815664	-0.197626	0.069178
C11	C	-0.696824	-0.098512	-0.000208
C12	C	-0.619319	-0.097372	-0.000186
C13	C	-0.829983	0.034644	-0.000235
C14	C	-0.828844	0.112148	-0.000232
C15	C	-0.952161	-0.087534	-0.000281
C16	C	-1.029667	-0.088674	-0.000309
C17	C	-0.574394	-0.160462	-0.000204
C18	C	-0.501571	-0.159390	-0.000213
C19	C	-0.473676	-0.095224	-0.000221
C20	C	-0.518610	-0.032125	-0.000198
C21	C	-0.591432	-0.033199	-0.000181
N22	N	-0.367713	-0.044169	-0.047511
N23	N	-0.298535	-0.043153	-0.047529
C24	C	-0.254270	-0.091983	-0.000272
N25	N	-0.281795	-0.141878	0.046994
N26	N	-0.350979	-0.142897	0.047009
C27	C	-0.394714	-0.094052	-0.000239
C28	C	-0.130381	-0.153916	-0.000299
C29	C	-0.057556	-0.152841	-0.000303
C30	C	-0.074598	-0.025574	-0.000296
C31	C	-0.147421	-0.026650	-0.000283
C32	C	-0.175308	-0.090823	-0.000289
C33	C	-0.819003	-0.220690	-0.000255
C34	C	-0.820142	-0.298194	-0.000263
C35	C	-0.831538	0.151760	-0.075925
C36	C	-0.830459	0.224583	-0.075931
C37	C	-0.826698	0.257793	-0.000240
C38	C	-0.823999	0.218172	0.075463
C39	C	-0.825072	0.145349	0.075467
N40	N	-0.862345	0.375066	0.056084
N41	N	-0.861328	0.444244	0.056075
C42	C	-0.823464	0.477203	-0.000247
N43	N	-0.786666	0.438371	-0.056573
N44	N	-0.787687	0.369186	-0.056567
C45	C	-0.825534	0.336756	-0.000236
C46	C	-0.824988	0.595777	-0.075951
C47	C	-0.823903	0.668601	-0.075954
C48	C	-0.817451	0.662189	0.075441
C49	C	-0.818528	0.589366	0.075442
C50	C	-0.822300	0.556165	-0.000257
N51	N	-0.815277	-0.102205	0.216095
N52	N	-0.833714	-0.083835	-0.216582
C53	C	-0.861046	-0.056470	0.259780
C54	C	-0.857334	-0.060184	0.347187
C55	C	-0.807855	-0.109637	0.390908
C56	C	-0.762081	-0.155374	0.347216
C57	C	-0.765790	-0.151657	0.259811
C58	C	-0.791650	-0.125855	0.652321
C59	C	-0.787945	-0.129571	0.739733
C60	C	-0.883197	-0.034379	0.739698
C61	C	-0.886905	-0.030669	0.652290
C62	C	-0.841129	-0.076404	0.608606
N63	N	-0.804060	-0.113435	0.480252
N64	N	-0.844921	-0.072601	0.519263
H65	H	-0.597095	-0.212716	-0.000210
H66	H	-0.464986	-0.210768	-0.000226
N67	N	-0.914402	-0.003117	0.212630
H68	H	-0.909806	-0.007698	0.150629
H69	H	-0.963262	-0.011698	0.227873
H70	H	-0.721790	-0.195637	0.382819
H71	H	-0.834607	0.124732	-0.137565
H72	H	-0.826094	0.700852	-0.137595
N73	N	-0.044520	0.043635	-0.000307
H74	H	-0.084034	0.083441	-0.000296
H75	H	-0.012466	0.044667	0.051164
H76	H	-0.628010	0.018178	-0.000166
N77	N	-0.488529	0.037084	-0.000196
H78	H	-0.435579	0.028191	-0.000211
H79	H	-0.507191	0.066872	-0.051665
H80	H	-0.153087	-0.206169	-0.000291
H81	H	-0.894602	-0.022942	0.382756
H82	H	-0.754378	-0.163096	0.616760
N83	N	-0.716422	-0.200981	0.212688
H84	H	-0.684514	-0.232874	0.253647
H85	H	-0.744590	-0.230240	0.176398
H86	H	-0.828055	0.568743	-0.137590
H87	H	-0.814384	0.689227	0.137070
H88	H	-0.927195	0.009600	0.616694
N89	N	-0.009095	-0.220894	-0.000256
H90	H	-0.037813	-0.261708	-0.000238
H91	H	0.019306	-0.221068	-0.051718
N92	N	-0.195881	0.041397	-0.000264
H93	H	-0.167162	0.082211	-0.000269
H94	H	-0.228681	0.045911	-0.051732
H95	H	-0.832649	0.256841	-0.137571
H96	H	-0.920466	0.002857	0.775273
H97	H	-0.820935	0.245216	0.137091
N98	N	-0.822171	0.102617	0.157107
H99	H	-0.777302	0.108091	0.190213
H100	H	-0.863878	0.119706	0.190121
N101	N	-0.815629	0.546637	0.157083
H102	H	-0.813085	0.578724	0.205033
H103	H	-0.859209	0.522079	0.160367
N104	N	-0.734582	-0.182918	0.786892
H105	H	-0.706147	-0.211329	0.745956
H106	H	-0.702264	-0.157811	0.823188
