data_functionalizedCrystal
_audit_creation_method	'MofGen! by Chris Wilmer'
_symmetry_space_group_name_H-M	'P1'
_symmetry_Int_Tables_number	1
_symmetry_cell_setting	triclinic
loop_
_symmetry_equiv_pos_as_xyz
  x,y,z
_cell_length_a	10.685194
_cell_length_b	12.759401
_cell_length_c	12.759393
_cell_angle_alpha	89.980973
_cell_angle_beta	94.402093
_cell_angle_gamma	85.624903
loop_
_atom_site_label
_atom_site_type_symbol
_atom_site_fract_x
_atom_site_fract_y
_atom_site_fract_z
Zn1	Zn	-0.502424	-1.574237	0.561920
Zn2	Zn	-0.713488	-1.560682	0.372761
Zn3	Zn	-0.502477	-1.398536	0.386253
Zn4	Zn	-0.713388	-1.385084	0.548407
O5	O	-0.607944	-1.479635	0.467335
O6	O	-0.530442	-1.719458	0.536836
O7	O	-0.685561	-1.539131	0.227526
O8	O	-0.325872	-1.433145	0.420857
O9	O	-0.685510	-1.709500	0.397862
O10	O	-0.325833	-1.562232	0.549919
O11	O	-0.530532	-1.420002	0.237438
O12	O	-0.530435	-1.249732	0.407754
O13	O	-0.685339	-1.410218	0.697224
O14	O	-0.685390	-1.239849	0.526888
O15	O	-0.530345	-1.549188	0.707152
O16	O	-0.890073	-1.526087	0.384759
O17	O	-0.889999	-1.397075	0.513805
C18	C	-0.935826	-1.458679	0.446375
C19	C	-1.076095	-1.449810	0.437443
C20	C	-0.607908	-1.206670	0.467319
C21	C	-0.607923	-1.089892	0.467335
C22	C	-0.688735	-1.029903	0.529248
C23	C	-0.688746	-0.920179	0.529257
C24	C	-0.527129	-0.930441	0.405432
C25	C	-0.527113	-1.040164	0.405429
C26	C	-0.769545	-1.079631	0.591154
C27	C	-0.850364	-1.019642	0.653071
C28	C	-0.850375	-0.909917	0.653080
C29	C	-0.769567	-0.860182	0.591172
C30	C	-0.278782	-1.500701	0.488400
C31	C	-0.138513	-1.509678	0.497377
C32	C	-0.607825	-1.479715	0.741376
C33	C	-0.607774	-1.479749	0.858156
C34	C	-0.607970	-0.753666	0.467349
C35	C	-0.607950	-0.870444	0.467347
C36	C	-0.607972	-1.479622	0.194366
C37	C	-0.607668	-1.479814	0.077609
C38	C	-0.688406	-1.541823	1.017592
C39	C	-0.688463	-1.541788	0.907864
C40	C	-0.527032	-1.417732	0.918182
C41	C	-0.526983	-1.417763	1.027907
C42	C	-0.769091	-1.603874	1.067294
C43	C	-0.849835	-1.665889	1.007276
C44	C	-0.849892	-1.665854	0.897548
C45	C	-0.769205	-1.603804	0.847838
H46	H	-1.084642	-1.567721	0.555528
N47	N	-0.936969	-1.732741	0.832812
H48	H	-0.924760	-1.723304	0.755759
H49	H	-1.027089	-1.710633	0.846224
N50	N	-1.147452	-1.372923	0.360407
H51	H	-1.085873	-1.334235	0.321681
H52	H	-1.202148	-1.320855	0.399684
H53	H	-0.769548	-1.168974	0.591152
N54	N	-0.937513	-1.073278	0.719845
H55	H	-0.925249	-1.151890	0.710444
H56	H	-1.027618	-1.048337	0.697606
N57	N	-0.769275	-1.603753	0.729488
H58	H	-0.832671	-1.652447	0.699007
H59	H	-0.682678	-1.628566	0.708678
N60	N	-0.937536	-0.845212	0.719859
H61	H	-0.988725	-0.893367	0.759070
H62	H	-0.995876	-0.795950	0.673277
N63	N	-0.769563	-0.741837	0.591191
H64	H	-0.833015	-0.711378	0.639811
H65	H	-0.792619	-0.713986	0.517580
N66	N	-0.440000	-0.876802	0.338643
H67	H	-0.452282	-0.798189	0.348032
H68	H	-0.459552	-0.894716	0.262338
H69	H	-0.915533	-1.716403	1.047756
N70	N	-0.439951	-1.104876	0.338657
H71	H	-0.388768	-1.056726	0.299434
H72	H	-0.491244	-1.147112	0.286687
N73	N	-0.440008	-1.350813	0.864572
H74	H	-0.452289	-1.360205	0.785954
H75	H	-0.349873	-1.372939	0.889520
N76	N	-0.439915	-1.350863	1.092638
H77	H	-0.491197	-1.298908	1.134861
H78	H	-0.388835	-1.311624	1.044425
H79	H	-0.769051	-1.603912	1.156639
