data_functionalizedCrystal
_audit_creation_method	'MofGen! by Chris Wilmer'
_symmetry_space_group_name_H-M	'P1'
_symmetry_Int_Tables_number	1
_symmetry_cell_setting	triclinic
loop_
_symmetry_equiv_pos_as_xyz
  x,y,z
_cell_length_a	16.974867
_cell_length_b	16.992695
_cell_length_c	9.130307
_cell_angle_alpha	90.002860
_cell_angle_beta	86.350372
_cell_angle_gamma	92.977729
loop_
_atom_site_label
_atom_site_type_symbol
_atom_site_fract_x
_atom_site_fract_y
_atom_site_fract_z
O1	O	-1.055448	0.099892	0.003180
O2	O	-0.826048	0.112628	-0.023980
O3	O	-0.939828	-0.007881	-0.010521
O4	O	-0.941667	0.220402	-0.010278
O5	O	-0.939824	-0.007882	0.233077
O6	O	-0.826044	0.112627	0.219619
O7	O	-1.055444	0.099891	0.246779
Cu8	Cu	-0.940743	0.106259	0.255441
Cu9	Cu	-0.940748	0.106261	-0.032642
O10	O	-0.941663	0.220401	0.233320
C11	C	-0.796557	0.112145	0.094328
C12	C	-0.708689	0.110696	0.083923
C13	C	-0.214091	0.102513	0.011004
C14	C	-0.296651	0.103875	0.020799
C15	C	-0.337921	0.104561	0.158484
C16	C	-0.296627	0.103877	0.286381
C17	C	-0.214068	0.102510	0.276584
C18	C	-0.584836	0.108645	0.202024
C19	C	-0.667400	0.110014	0.211811
C20	C	-0.667420	0.110011	-0.053772
C21	C	-0.584859	0.108648	-0.063557
C22	C	-0.543571	0.107960	0.064340
N23	N	-0.422312	0.105955	0.168500
N24	N	-0.459183	0.106561	0.054323
C25	C	-0.937460	-0.037092	0.110991
C26	C	-0.930400	-0.124128	0.110136
C27	C	-0.084934	0.100377	0.128475
C28	C	-0.172801	0.101832	0.138891
C29	C	-0.944031	0.249611	0.111805
C30	C	-0.951091	0.336648	0.112650
N31	N	-0.940746	0.106258	0.458064
C32	C	-0.882976	0.386964	0.104585
C33	C	-0.889614	0.468743	0.105352
C34	C	-0.964367	0.500205	0.114196
C35	C	-1.032487	0.449882	0.122257
C36	C	-1.025849	0.368104	0.121479
C37	C	-0.991882	0.743772	0.117420
C38	C	-0.998515	0.825556	0.118202
C39	C	-0.855641	0.844412	0.101294
C40	C	-0.849009	0.762631	0.100525
C41	C	-0.917129	0.712316	0.108579
N42	N	-0.971154	0.583796	0.114985
N43	N	-0.910342	0.628726	0.107779
N44	N	-0.940752	0.106256	-0.235265
C45	C	-1.041544	-0.000423	0.469977
C46	C	-1.091948	-0.053761	0.552601
C47	C	-1.091956	-0.053762	0.705935
C48	C	-1.041552	-0.000420	0.776649
C49	C	-0.991148	0.052918	0.694025
C50	C	-0.991147	0.052915	0.540688
C51	C	-0.890347	0.159594	0.682112
C52	C	-0.890342	0.159599	0.528778
C53	C	-0.839944	0.212936	0.752825
C54	C	-0.789542	0.266279	0.670201
C55	C	-0.789537	0.266278	0.516858
C56	C	-0.839938	0.212938	0.446154
H57	H	-0.551262	0.108089	-0.175675
C58	C	-1.020952	-0.074295	0.993846
C59	C	-1.041557	-0.000427	0.945196
H60	H	-1.020959	-0.074298	1.097901
H61	H	-0.969747	-0.084992	0.953105
H62	H	-1.058185	-0.113689	0.963545
H63	H	-1.004321	0.038967	0.975488
H64	H	-1.092770	0.010279	0.985953
C65	C	-0.751662	0.402033	0.465186
C66	C	-0.734132	0.324911	0.426040
H67	H	-0.717459	0.438230	0.409115
H68	H	-0.744449	0.409658	0.566614
H69	H	-0.804965	0.410517	0.446352
H70	H	-0.680830	0.316425	0.444884
H71	H	-0.741338	0.317283	0.324589
H72	H	-1.047350	0.702814	0.123987
C73	C	-1.106103	0.566867	0.130974
C74	C	-1.114659	0.484462	0.131983
H75	H	-1.156835	0.588212	0.136992
H76	H	-1.077847	0.584136	0.042685
H77	H	-1.077836	0.584138	0.212581
H78	H	-1.142921	0.467190	0.050370
H79	H	-1.142927	0.467186	0.220283
C80	C	-1.136773	-0.101067	0.322844
C81	C	-1.147397	-0.112349	0.474876
H82	H	-1.171021	-0.137223	0.274869
H83	H	-1.083492	-0.109607	0.291379
H84	H	-1.148615	-0.048722	0.299178
H85	H	-1.135550	-0.164693	0.498544
H86	H	-1.200691	-0.103816	0.506353
H87	H	-0.834147	0.509708	0.098780
H88	H	-0.748503	0.309702	0.727786
C89	C	-0.775396	0.645646	0.091811
C90	C	-0.766838	0.728051	0.090788
H91	H	-0.724666	0.624299	0.085809
H92	H	-0.803659	0.628372	0.010218
H93	H	-0.803657	0.628382	0.180115
H94	H	-0.738582	0.745316	0.002479
H95	H	-0.738563	0.745332	0.172389
H96	H	-0.822104	0.361355	0.097400
C97	C	-1.191593	-0.159217	0.702326
C98	C	-1.147356	-0.112395	0.796764
H99	H	-1.225795	-0.195412	0.758404
H100	H	-1.156903	-0.187404	0.638418
H101	H	-1.222091	-0.126588	0.646127
H102	H	-1.116853	-0.145023	0.852956
H103	H	-1.182050	-0.084206	0.860697
C104	C	-0.764466	0.197144	0.963552
C105	C	-0.839950	0.212933	0.921372
H106	H	-0.764473	0.197140	1.067607
H107	H	-0.727242	0.236542	0.924472
H108	H	-0.750497	0.147033	0.927201
H109	H	-0.853917	0.263047	0.957714
H110	H	-0.877186	0.173533	0.960469
C111	C	-1.145583	0.326848	0.010432
C112	C	-1.100723	0.312794	0.130347
H113	H	-1.191810	0.292705	0.015910
H114	H	-1.115143	0.317313	-0.078101
H115	H	-1.160229	0.380056	0.012180
H116	H	-1.086072	0.259587	0.128593
H117	H	-1.131169	0.322322	0.218903
H118	H	-1.041549	-0.000421	0.345126
C119	C	-0.802375	0.978143	0.094964
C120	C	-0.780767	0.899720	0.092421
H121	H	-0.756148	1.012287	0.089472
H122	H	-0.832804	0.987674	0.183511
H123	H	-0.832818	0.987657	0.013615
H124	H	-0.750329	0.890204	0.173776
H125	H	-0.750325	0.890185	0.003864
C126	C	-0.860540	0.286800	0.228938
C127	C	-0.839936	0.212935	0.277607
H128	H	-0.860544	0.286792	0.124884
H129	H	-0.823308	0.326191	0.259213
H130	H	-0.911749	0.297503	0.269693
H131	H	-0.788724	0.202235	0.236860
H132	H	-0.877169	0.173532	0.247316
H133	H	-0.180494	0.101960	-0.101114
C134	C	-0.659144	0.109876	-0.317269
C135	C	-0.712803	0.110765	-0.194352
H136	H	-0.687163	0.110346	-0.404059
H137	H	-0.630091	0.063645	-0.315195
H138	H	-0.623795	0.155044	-0.315922
H139	H	-0.748150	0.065593	-0.195693
H140	H	-0.741870	0.157000	-0.196427
C141	C	-0.288377	0.103739	-0.242697
C142	C	-0.342036	0.104624	-0.119780
H143	H	-0.316398	0.104204	-0.329487
H144	H	-0.259319	0.057512	-0.240622
H145	H	-0.253033	0.148911	-0.241354
H146	H	-0.377378	0.059449	-0.121118
H147	H	-0.371108	0.150855	-0.121856
H148	H	-0.701000	0.110578	0.323936
H149	H	-0.551230	0.108073	0.306167
H150	H	-0.330235	0.104431	0.398487
H151	H	-0.180450	0.101963	0.380724
H152	H	-1.059392	0.851168	0.125404
