data_functionalizedCrystal
_audit_creation_method	'MofGen! by Chris Wilmer'
_symmetry_space_group_name_H-M	'P1'
_symmetry_Int_Tables_number	1
_symmetry_cell_setting	triclinic
loop_
_symmetry_equiv_pos_as_xyz
  x,y,z
_cell_length_a	12.645331
_cell_length_b	12.645330
_cell_length_c	19.805399
_cell_angle_alpha	90.021721
_cell_angle_beta	90.018819
_cell_angle_gamma	90.016671
loop_
_atom_site_label
_atom_site_type_symbol
_atom_site_fract_x
_atom_site_fract_y
_atom_site_fract_z
Zn1	Zn	1.620691	-0.422093	0.382734
Zn2	Zn	2.120691	0.077907	0.882734
Zn3	Zn	1.620584	-0.599371	0.269557
Zn4	Zn	2.120584	-0.099371	0.769557
Zn5	Zn	1.443417	-0.422119	0.269560
Zn6	Zn	1.943417	0.077881	0.769560
Zn7	Zn	1.443387	-0.599312	0.382705
Zn8	Zn	1.943387	-0.099312	0.882705
O9	O	1.532020	-0.510724	0.326139
O10	O	2.032020	-0.010724	0.826139
O11	O	1.769024	-0.445623	0.367731
O12	O	2.269024	0.054377	0.867731
O13	O	1.597051	-0.575894	0.174841
O14	O	2.097051	-0.075894	0.674841
O15	O	1.466990	-0.273768	0.284585
O16	O	1.966990	0.226232	0.784585
O17	O	1.768946	-0.575869	0.284581
O18	O	2.268946	-0.075869	0.784581
O19	O	1.597232	-0.273749	0.367734
O20	O	2.097232	0.226251	0.867734
O21	O	1.466887	-0.445668	0.174843
O22	O	1.966887	0.054332	0.674843
O23	O	1.295066	-0.445610	0.284558
O24	O	1.795066	0.054390	0.784558
O25	O	1.466939	-0.575767	0.477426
O26	O	1.966939	-0.075767	0.977426
O27	O	1.295044	-0.575793	0.367685
O28	O	1.795044	-0.075793	0.867685
O29	O	1.597203	-0.445565	0.477446
O30	O	2.097203	0.054435	0.977446
O31	O	1.597022	-0.747710	0.284553
O32	O	2.097022	-0.247710	0.784553
O33	O	1.466836	-0.747667	0.367683
O34	O	1.966836	-0.247667	0.867683
C35	C	1.256590	-0.510698	0.326119
C36	C	1.756590	-0.010698	0.826119
C37	C	1.138760	-0.510713	0.326127
C38	C	1.638760	-0.010713	0.826127
C39	C	1.531943	-0.786153	0.326129
C40	C	2.031943	-0.286153	0.826129
C41	C	1.532007	-0.903983	0.326148
C42	C	2.032007	-0.403983	0.826148
C43	C	0.971175	-0.428439	0.274120
C44	C	1.471175	0.071561	0.774120
C45	C	1.093734	-0.428651	0.273891
C46	C	1.593734	0.071349	0.773891
C47	C	1.094242	-0.622385	0.306644
C48	C	1.594242	-0.122385	0.806644
C49	C	0.971644	-0.621936	0.306289
C50	C	1.471644	-0.121936	0.806289
C51	C	0.971603	-0.482378	0.397818
C52	C	1.471603	0.017622	0.897818
C53	C	1.094209	-0.479883	0.397420
C54	C	1.594209	0.020117	0.897420
C55	C	1.450444	-1.071564	0.378606
C56	C	1.950444	-0.571564	0.878606
C57	C	1.450027	-0.949005	0.378437
C58	C	1.950027	-0.449005	0.878437
C59	C	1.501769	-0.948571	0.254816
C60	C	2.001769	-0.448571	0.754816
C61	C	1.501271	-1.071169	0.255134
C62	C	2.001271	-0.571169	0.755134
C63	C	1.644306	-1.071076	0.344444
C64	C	2.144306	-0.571076	0.844444
C65	C	1.643617	-0.948469	0.346003
C66	C	2.143617	-0.448469	0.846003
C67	C	1.808525	-0.510750	0.326159
C68	C	2.308525	-0.010750	0.826159
C69	C	1.926355	-0.510761	0.326167
C70	C	2.426355	-0.010761	0.826167
C71	C	1.532079	-0.510657	0.502682
C72	C	2.032079	-0.010657	1.002682
C73	C	1.532105	-0.510628	0.577914
C74	C	2.032105	-0.010628	1.077914
C75	C	1.532127	-0.234218	0.326163
C76	C	2.032127	0.265782	0.826163
C77	C	1.532172	-0.116388	0.326174
C78	C	2.032172	0.383612	0.826174
C79	C	1.532022	-0.510714	0.150283
C80	C	2.032022	-0.010714	0.650283
C81	C	1.532202	-0.510443	0.075051
C82	C	2.032202	-0.010443	0.575051
C83	C	1.599935	-0.442829	0.613270
C84	C	2.099935	0.057171	1.113270
C85	C	1.599946	-0.442798	0.683958
C86	C	2.099946	0.057202	1.183958
C87	C	1.532131	-0.510573	0.719289
C88	C	2.032131	-0.010573	1.219289
C89	C	1.464294	-0.578375	0.683928
C90	C	1.964294	-0.078375	1.183928
C91	C	1.464278	-0.578400	0.613241
C92	C	1.964278	-0.078400	1.113241
C93	C	1.464353	-0.578277	0.969002
C94	C	1.964353	-0.078277	1.469002
C95	C	1.464376	-0.578249	1.039694
C96	C	1.964376	-0.078249	1.539694
C97	C	1.600021	-0.442675	1.039719
C98	C	2.100021	0.057325	1.539719
C99	C	1.600006	-0.442699	0.969032
C100	C	2.100006	0.057301	1.469032
C101	C	1.532165	-0.510497	0.933677
C102	C	2.032165	-0.010497	1.433677
C103	C	1.532152	-0.510528	0.857028
C104	C	2.032152	-0.010528	1.357028
C105	C	1.532148	-0.510548	0.795936
C106	C	2.032148	-0.010548	1.295936
H107	H	1.123834	-0.345842	0.286103
H108	H	1.623834	0.154158	0.786103
H109	H	1.409149	-0.633442	1.068458
H110	H	1.909149	-0.133442	1.568458
Br111	Br	1.596168	-1.120603	0.187797
Br112	Br	2.096168	-0.620603	0.687797
H113	H	0.941995	-0.685348	0.342545
H114	H	1.441995	-0.185348	0.842545
Br115	Br	1.145292	-0.572534	0.465515
Br116	Br	1.645292	-0.072534	0.965515
Br117	Br	1.142733	-0.342924	0.421917
Br118	Br	1.642733	0.157076	0.921917
Br119	Br	1.145340	-0.663199	0.220277
Br120	Br	1.645340	-0.163199	0.720277
H121	H	1.559408	-0.919410	0.214682
H122	H	2.059408	-0.419410	0.714682
H123	H	1.420653	-0.917957	0.239059
H124	H	1.920653	-0.417957	0.739059
H125	H	0.942620	-0.542338	0.436598
H126	H	1.442620	-0.042338	0.936598
Br127	Br	1.692092	-0.350659	1.087704
Br128	Br	2.192092	0.149341	1.587704
Br129	Br	1.312756	-1.123090	0.358708
Br130	Br	1.812756	-0.623090	0.858708
Br131	Br	1.690284	-1.122492	0.429666
Br132	Br	2.190284	-0.622492	0.929666
Br133	Br	1.681630	-0.899896	0.433502
Br134	Br	2.181630	-0.399896	0.933502
Br135	Br	1.692049	-0.350722	0.921086
Br136	Br	2.192049	0.149278	1.421086
H137	H	1.409129	-0.633497	0.940224
H138	H	1.909129	-0.133497	1.440224
H139	H	0.940705	-0.402369	0.415537
H140	H	1.440705	0.097631	0.915537
Br141	Br	1.372251	-0.670351	0.731877
Br142	Br	1.872251	-0.170351	1.231877
H143	H	1.469188	-1.100981	0.431672
H144	H	1.969188	-0.600981	0.931672
H145	H	1.707715	-0.917817	0.310595
H146	H	2.207715	-0.417817	0.810595
Br147	Br	0.923902	-0.662052	0.218986
Br148	Br	1.423902	-0.162052	0.718986
H149	H	1.409033	-0.633599	0.584455
H150	H	1.909033	-0.133599	1.084455
Br151	Br	1.142832	-0.727352	0.367850
Br152	Br	1.642832	-0.227352	0.867850
H153	H	1.468945	-0.918855	0.431330
H154	H	1.968945	-0.418855	0.931330
H155	H	0.941709	-0.345380	0.286201
H156	H	1.441709	0.154620	0.786201
H157	H	0.940332	-0.446989	0.221336
H158	H	1.440332	0.053011	0.721336
Br159	Br	1.142552	-0.459908	0.185392
Br160	Br	1.642552	0.040092	0.685392
H161	H	1.419300	-1.099858	0.239657
H162	H	1.919300	-0.599858	0.739657
Br163	Br	1.311467	-0.900264	0.358269
Br164	Br	1.811467	-0.400264	0.858269
H165	H	1.705195	-1.100062	0.306255
H166	H	2.205195	-0.600062	0.806255
H167	H	1.655161	-0.387642	0.584508
H168	H	2.155161	0.112358	1.084508
H169	H	1.655182	-0.387592	0.712742
H170	H	2.155182	0.112408	1.212742
