data_functionalizedCrystal
_audit_creation_method	'MofGen! by Chris Wilmer'
_symmetry_space_group_name_H-M	'P1'
_symmetry_Int_Tables_number	1
_symmetry_cell_setting	triclinic
loop_
_symmetry_equiv_pos_as_xyz
  x,y,z
_cell_length_a	23.532407
_cell_length_b	10.654550
_cell_length_c	22.610064
_cell_angle_alpha	90.001334
_cell_angle_beta	89.994072
_cell_angle_gamma	96.333196
loop_
_atom_site_label
_atom_site_type_symbol
_atom_site_fract_x
_atom_site_fract_y
_atom_site_fract_z
O1	O	0.079972	-1.665305	0.049147
O2	O	0.087593	-1.299585	0.049159
O3	O	0.000923	-1.493474	0.049142
O4	O	0.166642	-1.471417	0.049164
O5	O	0.000945	-1.493460	-0.049227
O6	O	0.087615	-1.299572	-0.049210
O7	O	0.079995	-1.665292	-0.049222
Zn8	Zn	0.083809	-1.482430	-0.064834
Zn9	Zn	0.083779	-1.482448	0.064771
O10	O	0.166665	-1.471404	-0.049205
C11	C	-0.020286	-1.492905	-0.000044
C12	C	-0.083514	-1.491217	-0.000049
C13	C	0.087044	-1.252799	-0.000025
C14	C	0.085370	-1.113408	-0.000021
C15	C	0.080543	-1.712079	-0.000037
C16	C	0.082217	-1.851469	-0.000037
C17	C	-0.481938	-1.595364	-0.000020
C18	C	-0.541349	-1.593795	-0.000015
O19	O	-0.577464	-1.690341	0.000004
N20	N	-0.564726	-1.478529	-0.000012
C21	C	-0.528689	-1.364824	-0.000007
O22	O	-0.554029	-1.266636	-0.000004
C23	C	-0.469280	-1.366394	-0.000008
C24	C	-0.445906	-1.481668	-0.000017
C25	C	-0.458564	-1.710629	-0.000028
C26	C	-0.399158	-1.712197	-0.000034
C27	C	-0.363126	-1.598500	-0.000031
C28	C	-0.386500	-1.483236	-0.000022
C29	C	-0.433244	-1.252690	0.000001
C30	C	-0.373831	-1.254270	0.000001
C31	C	-0.350458	-1.369544	-0.000008
C32	C	-0.291061	-1.371107	-0.000025
N33	N	-0.267684	-1.486374	-0.000028
C34	C	-0.303716	-1.600070	-0.000031
C35	C	-0.653453	-1.361535	-0.000006
C36	C	-0.712861	-1.359964	-0.000009
C37	C	-0.725517	-1.588936	-0.000016
C38	C	-0.666107	-1.590506	-0.000017
C39	C	-0.630076	-1.476802	-0.000009
C40	C	-0.178958	-1.603355	-0.000044
C41	C	-0.119546	-1.604913	-0.000052
C42	C	-0.106896	-1.375942	-0.000042
C43	C	-0.166303	-1.374383	-0.000037
C44	C	-0.202333	-1.488100	-0.000036
O45	O	-0.254911	-1.274613	-0.000042
O46	O	-0.278369	-1.698241	-0.000027
C47	C	0.187873	-1.471972	-0.000018
C48	C	0.251101	-1.473661	-0.000009
N49	N	0.083828	-1.482427	-0.153287
C50	C	0.136400	-1.032306	-0.000015
C51	C	0.134824	-0.901335	-0.000026
C52	C	0.031183	-0.932582	-0.000044
C53	C	0.032760	-1.063550	-0.000038
C54	C	0.122159	-1.396546	-0.438127
C55	C	0.122164	-1.396542	-0.376208
O56	O	0.154779	-1.323484	-0.344183
N57	N	0.083805	-1.482418	-0.345239
C58	C	0.045435	-1.568295	-0.376194
O59	O	0.012808	-1.641338	-0.344167
C60	C	0.045427	-1.568291	-0.438113
C61	C	0.083792	-1.482418	-0.469078
C62	C	0.160520	-1.310678	-0.469093
C63	C	0.160515	-1.310684	-0.531008
C64	C	0.122149	-1.396556	-0.561959
C65	C	0.083787	-1.482424	-0.530994
C66	C	0.007054	-1.654161	-0.469066
C67	C	0.007049	-1.654150	-0.530989
C68	C	0.045415	-1.568276	-0.561954
C69	C	0.045416	-1.568301	-0.623860
N70	N	0.083775	-1.482425	-0.654828
C71	C	0.122141	-1.396553	-0.623878
C72	C	0.045454	-1.568294	-0.246160
C73	C	0.045464	-1.568305	-0.184243
C74	C	0.122192	-1.396550	-0.184261
C75	C	0.122184	-1.396547	-0.246179
C76	C	0.083812	-1.482418	-0.277129
C77	C	0.122128	-1.396571	-0.753905
C78	C	0.122121	-1.396588	-0.815826
C79	C	0.045391	-1.568337	-0.815803
C80	C	0.045399	-1.568326	-0.753887
C81	C	0.083770	-1.482432	-0.722940
O82	O	0.012816	-1.641318	-0.655924
O83	O	0.154757	-1.323511	-0.655912
N84	N	0.083755	-1.482460	0.153224
H85	H	-0.100519	-1.698787	-0.000061
F86	F	-0.641237	-1.713195	-0.000026
H87	H	0.191763	-1.240745	-0.443898
H88	H	-0.011650	-0.891971	-0.000062
F89	F	-0.021556	-1.149871	-0.000048
H90	H	0.014229	-1.638244	-0.159035
H91	H	-0.754865	-1.681514	-0.000016
H92	H	0.153424	-1.326621	-0.271388
H93	H	0.153372	-1.326628	-0.728714
F94	F	0.162957	-1.305189	-0.848778
H95	H	0.191754	-1.240755	-0.556217
H96	H	-0.487896	-1.803219	-0.000028
H97	H	0.153432	-1.326626	-0.159050
H98	H	-0.024200	-1.724075	-0.556185
H99	H	0.014208	-1.638231	-0.271356
H100	H	0.014165	-1.638264	-0.728675
F101	F	-0.217296	-1.724386	-0.000042
F102	F	-0.033780	-1.745557	-0.436122
F103	F	0.004561	-1.659728	-0.848752
H104	H	0.179239	-1.072896	-0.000006
H105	H	-0.380133	-1.806065	-0.000039
H106	H	-0.731886	-1.266096	-0.000012
F107	F	0.189137	-0.815025	-0.000021
H108	H	-0.624119	-1.268937	-0.000004
H109	H	-0.452264	-1.158822	0.000012
H110	H	-0.344497	-1.161675	0.000009
H111	H	-0.185334	-1.280517	-0.000046
F112	F	-0.068538	-1.254944	-0.000039
