data_functionalizedCrystal
_audit_creation_method	'MofGen! by Chris Wilmer'
_symmetry_space_group_name_H-M	'P1'
_symmetry_Int_Tables_number	1
_symmetry_cell_setting	triclinic
loop_
_symmetry_equiv_pos_as_xyz
  x,y,z
_cell_length_a	14.853567
_cell_length_b	10.868271
_cell_length_c	14.853559
_cell_angle_alpha	89.999224
_cell_angle_beta	83.633192
_cell_angle_gamma	90.001375
loop_
_atom_site_label
_atom_site_type_symbol
_atom_site_fract_x
_atom_site_fract_y
_atom_site_fract_z
O1	O	1.196361	0.102231	0.117700
O2	O	0.933902	0.102252	0.131722
O3	O	1.072146	0.102240	-0.006519
O4	O	1.058117	0.102243	0.255941
O5	O	1.072134	-0.102405	-0.006515
O6	O	0.933889	-0.102393	0.131726
O7	O	1.196349	-0.102413	0.117705
Zn8	Zn	1.065117	-0.134895	0.124716
Zn9	Zn	1.065133	0.134733	0.124710
O10	O	1.058104	-0.102401	0.255946
C11	C	0.900307	-0.000068	0.131089
C12	C	0.800223	-0.000060	0.129185
N13	N	1.065112	-0.318909	0.124720
C14	C	0.387692	-0.000089	0.039019
C15	C	0.366406	-0.000085	0.203252
C16	C	0.460440	-0.000081	0.205042
C17	C	0.518104	-0.000079	0.123819
C18	C	0.481735	-0.000081	0.040806
C19	C	0.496816	-0.000067	0.288054
C20	C	0.590855	-0.000062	0.289847
C21	C	0.648521	-0.000068	0.208623
C22	C	0.612147	-0.000072	0.125607
C23	C	0.669811	-0.000070	0.044384
C24	C	0.633438	-0.000082	-0.038633
C25	C	0.539401	-0.000088	-0.040417
C26	C	0.742559	-0.000062	0.210408
C27	C	0.763854	-0.000062	0.046172
C28	C	1.065119	-0.430247	0.124720
C29	C	1.065131	-0.569924	0.124712
C30	C	1.229944	-0.000091	0.118338
C31	C	1.330028	-0.000091	0.120242
C32	C	1.071506	-0.000080	-0.040106
C33	C	1.069605	-0.000073	-0.140190
N34	N	1.065145	0.318747	0.124700
C35	C	1.061548	0.111479	-0.563368
C36	C	1.061534	-0.111632	-0.563357
C37	C	1.063328	-0.111633	-0.469324
C38	C	1.064230	-0.000077	-0.422308
C39	C	1.063339	0.111482	-0.469325
C40	C	1.064210	-0.223189	-0.422299
C41	C	1.066002	-0.223195	-0.328259
C42	C	1.066911	-0.111637	-0.281242
C43	C	1.066021	-0.000074	-0.328266
C44	C	1.066923	0.111483	-0.281250
C45	C	1.066039	0.223046	-0.328272
C46	C	1.064247	0.223040	-0.422308
C47	C	1.068703	-0.111630	-0.187206
C48	C	1.068714	0.111485	-0.187207
C49	C	1.058745	-0.000079	0.289532
C50	C	1.060646	-0.000078	0.389616
H51	H	0.680401	-0.000072	-0.104765
C52	C	0.404701	-0.000083	-0.116077
C53	C	0.499417	-0.000087	-0.131664
H54	H	0.380017	-0.000072	-0.172409
H55	H	0.384922	-0.071443	-0.082636
H56	H	0.384929	0.071285	-0.082627
H57	H	0.519190	-0.071461	-0.165108
H58	H	0.519204	0.071281	-0.165119
C59	C	0.983534	-0.301795	-0.582275
C60	C	1.060542	-0.234246	-0.615041
H61	H	0.982922	-0.377490	-0.614192
H62	H	0.984738	-0.317767	-0.519551
H63	H	0.930716	-0.255943	-0.590876
H64	H	1.113360	-0.280095	-0.606434
H65	H	1.059346	-0.218277	-0.677780
C66	C	0.986210	-0.413349	-0.441243
C67	C	1.063221	-0.345796	-0.473992
H68	H	0.985601	-0.489037	-0.473168
H69	H	0.987404	-0.429333	-0.378520
H70	H	0.933394	-0.367493	-0.449847
H71	H	1.116037	-0.391649	-0.465382
H72	H	1.062035	-0.329815	-0.536730
H73	H	0.319450	-0.000077	0.269380
C74	C	0.343213	-0.000102	0.358227
C75	C	0.433432	-0.000077	0.377329
H76	H	0.304081	-0.000119	0.413345
H77	H	0.332175	0.071256	0.324200
H78	H	0.332195	-0.071473	0.324191
H79	H	0.444452	0.071299	0.411359
H80	H	0.444475	-0.071442	0.411371
C81	C	0.989157	0.413222	-0.289283
C82	C	1.067024	0.345672	-0.276588
H83	H	0.989763	0.488920	-0.257369
H84	H	0.987978	0.429188	-0.352010
H85	H	0.936922	0.367374	-0.267062
H86	H	1.119260	0.391516	-0.298815
H87	H	1.068212	0.329709	-0.213847
C88	C	0.560358	-0.000071	0.452009
C89	C	0.630832	-0.000065	0.381097
H90	H	0.585041	-0.000085	0.508342
H91	H	0.524128	0.071291	0.447898
H92	H	0.524119	-0.071438	0.447887
H93	H	0.667067	0.071307	0.385216
H94	H	0.667077	-0.071434	0.385210
H95	H	1.063527	0.313869	-0.460602
H96	H	0.772169	-0.000054	0.277999
H97	H	1.060832	0.202312	-0.601658
H98	H	1.066725	-0.314037	-0.289982
C99	C	1.071402	0.210563	-0.043051
C100	C	1.069665	0.234114	-0.135524
H101	H	1.071982	0.286270	-0.011146
H102	H	1.019175	0.164706	-0.020853
H103	H	1.124239	0.164756	-0.034442
H104	H	1.016824	0.279913	-0.144133
H105	H	1.121897	0.279990	-0.157730
C106	C	0.775448	-0.000062	-0.116350
C107	C	0.827235	-0.000054	-0.043113
H108	H	0.814579	-0.000048	-0.171469
H109	H	0.738336	-0.071429	-0.113630
H110	H	0.738318	0.071300	-0.113625
H111	H	0.864361	-0.071421	-0.045834
H112	H	0.864364	0.071321	-0.045835
C113	C	0.991775	-0.301764	-0.148199
C114	C	1.069659	-0.234244	-0.135512
H115	H	0.992366	-0.377466	-0.116287
H116	H	0.939557	-0.255905	-0.125982
H117	H	0.990590	-0.317731	-0.210934
H118	H	1.070840	-0.218269	-0.072776
H119	H	1.121890	-0.280113	-0.157725
H120	H	0.358073	-0.000103	-0.028572
