data_functionalizedCrystal
_audit_creation_method	'MofGen! by Chris Wilmer'
_symmetry_space_group_name_H-M	'P1'
_symmetry_Int_Tables_number	1
_symmetry_cell_setting	triclinic
loop_
_symmetry_equiv_pos_as_xyz
  x,y,z
_cell_length_a	15.944545
_cell_length_b	15.944493
_cell_length_c	14.048226
_cell_angle_alpha	89.999441
_cell_angle_beta	89.996324
_cell_angle_gamma	83.485608
loop_
_atom_site_label
_atom_site_type_symbol
_atom_site_fract_x
_atom_site_fract_y
_atom_site_fract_z
O1	O	1.114507	0.108312	-0.079086
O2	O	0.869954	0.121674	-0.079100
O3	O	0.998934	-0.007286	-0.079101
O4	O	0.985527	0.237271	-0.079086
O5	O	0.998919	-0.007293	0.079220
O6	O	0.869938	0.121666	0.079221
O7	O	1.114492	0.108304	0.079235
Zn8	Zn	0.992213	0.114984	0.104365
Zn9	Zn	0.992233	0.114994	-0.104230
O10	O	0.985511	0.237263	0.079236
C11	C	0.838652	0.121116	0.000058
C12	C	0.745406	0.119456	0.000052
C13	C	0.474791	0.034560	0.000057
C14	C	0.525357	0.075486	0.078123
C15	C	0.409764	0.113535	0.000068
C16	C	0.525353	0.075515	-0.077970
C17	C	0.574677	0.116440	0.000059
C18	C	0.459101	0.154440	0.078198
C19	C	0.459093	0.154457	-0.077964
C20	C	0.509626	0.195442	0.000120
C21	C	0.314762	0.111859	0.000075
C22	C	0.669676	0.118122	0.000060
C23	C	0.998378	-0.038584	0.000056
C24	C	0.996735	-0.131833	0.000043
C25	C	1.072656	-0.367594	0.000066
C26	C	1.031723	-0.418158	-0.077997
C27	C	0.993691	-0.302554	0.000055
C28	C	1.031689	-0.418141	0.078096
C29	C	0.990757	-0.467463	0.000070
C30	C	0.952779	-0.351889	-0.078072
C31	C	0.952757	-0.351869	0.078091
C32	C	0.911766	-0.402400	0.000009
C33	C	0.995384	-0.207554	0.000045
C34	C	0.989058	-0.562460	0.000073
C35	C	1.145793	0.108862	0.000074
C36	C	1.239039	0.110522	0.000074
C37	C	0.986067	0.268562	0.000077
C38	C	0.987710	0.361811	0.000083
N39	N	0.992205	0.114977	0.246726
N40	N	0.992247	0.114995	-0.246591
C41	C	1.049335	0.057897	0.296543
C42	C	1.049341	0.057896	0.396201
C43	C	0.992219	0.114980	0.446039
C44	C	0.935083	0.172063	0.396214
C45	C	0.935074	0.172058	0.296558
C46	C	0.935107	0.172069	0.603929
C47	C	0.935117	0.172074	0.703591
C48	C	1.049374	0.057907	0.703571
C49	C	1.049365	0.057903	0.603915
C50	C	0.992229	0.114986	0.554097
H51	H	0.459152	-0.033454	0.000129
O52	O	1.110974	-0.003652	0.449937
H53	H	1.150705	-0.043334	0.398539
H54	H	0.525104	0.263508	0.000170
O55	O	0.821593	-0.422869	-0.000026
H56	H	0.789023	-0.396077	-0.064881
O57	O	0.873456	0.233616	0.242810
H58	H	0.884144	0.299111	0.261913
O59	O	0.908615	-0.313495	0.165504
H60	H	0.941531	-0.340158	0.230213
O61	O	1.075866	-0.456448	0.165524
H62	H	1.030738	-0.488828	0.208438
H63	H	1.095881	0.011425	0.563337
H64	H	1.095895	0.011427	0.744139
H65	H	0.888570	0.218539	0.436798
H66	H	1.140674	-0.351967	-0.000009
H67	H	0.554288	0.042130	0.144117
H68	H	1.095853	0.011416	0.255972
O69	O	0.873502	0.233627	0.757359
H70	H	0.808029	0.222862	0.738258
O71	O	0.420936	0.198567	0.165730
H72	H	0.351527	0.196958	0.165069
O73	O	0.873485	0.233629	0.550180
H74	H	0.884177	0.299122	0.569285
O75	O	0.420733	0.198593	-0.165383
H76	H	0.471448	0.221281	-0.209318
O77	O	0.563690	0.031344	-0.165391
H78	H	0.513102	0.007582	-0.208598
O79	O	1.075900	-0.456517	-0.165404
H80	H	1.142637	-0.442890	-0.165240
H81	H	0.919457	-0.323065	-0.144138
