data_functionalizedCrystal
_audit_creation_method	'MofGen! by Chris Wilmer'
_symmetry_space_group_name_H-M	'P1'
_symmetry_Int_Tables_number	1
_symmetry_cell_setting	triclinic
loop_
_symmetry_equiv_pos_as_xyz
  x,y,z
_cell_length_a	14.519709
_cell_length_b	15.021413
_cell_length_c	14.519709
_cell_angle_alpha	89.996924
_cell_angle_beta	83.680145
_cell_angle_gamma	90.001715
loop_
_atom_site_label
_atom_site_type_symbol
_atom_site_fract_x
_atom_site_fract_y
_atom_site_fract_z
O1	O	1.223873	0.073918	0.120879
O2	O	1.723873	0.573918	0.620879
O3	O	0.955396	0.073946	0.135115
O4	O	1.455396	0.573946	0.635115
O5	O	1.096752	0.073923	-0.006241
O6	O	1.596752	0.573923	0.493759
O7	O	1.082516	0.073941	0.262236
O8	O	1.582516	0.573941	0.762236
O9	O	1.096730	-0.074141	-0.006221
O10	O	1.596730	0.425859	0.493779
O11	O	0.955373	-0.074119	0.135136
O12	O	1.455373	0.425881	0.635136
O13	O	1.223850	-0.074146	0.120899
O14	O	1.723850	0.425854	0.620899
Zn15	Zn	1.089608	-0.097641	0.128021
Zn16	Zn	1.589608	0.402359	0.628021
Zn17	Zn	1.089638	0.097440	0.127994
Zn18	Zn	1.589638	0.597440	0.627994
O19	O	1.082493	-0.074124	0.262256
O20	O	1.582493	0.425876	0.762256
C21	C	0.921025	-0.000083	0.134462
C22	C	1.421025	0.499917	0.634462
C23	C	0.818643	-0.000073	0.132474
C24	C	1.318643	0.499927	0.632474
N25	N	1.089595	-0.230778	0.128038
N26	N	1.589595	0.269222	0.628038
C27	C	0.443748	-0.000114	0.125154
C28	C	0.943748	0.499886	0.625154
C29	C	0.548056	-0.000102	0.127187
C30	C	1.048056	0.499898	0.627187
C31	C	0.631192	-0.000093	0.128814
C32	C	1.131192	0.499907	0.628814
C33	C	0.735507	-0.000083	0.130847
C34	C	1.235507	0.499917	0.630847
C35	C	1.024221	-0.470451	0.193371
C36	C	1.524221	0.029549	0.693371
C37	C	1.107584	-0.529793	0.211408
C38	C	1.607584	-0.029793	0.711408
C39	C	1.089618	-0.412385	0.128015
C40	C	1.589618	0.087615	0.628015
C41	C	1.006278	-0.529785	0.109999
C42	C	1.506278	-0.029785	0.609999
C43	C	1.089633	-0.587809	0.127995
C44	C	1.589633	-0.087809	0.627995
C45	C	1.173023	-0.470421	0.146094
C46	C	1.673023	0.029579	0.646094
C47	C	1.071663	-0.470408	0.044649
C48	C	1.571663	0.029592	0.544649
C49	C	1.155085	-0.529723	0.062650
C50	C	1.655085	-0.029723	0.562650
C51	C	1.089608	-0.311328	0.128029
C52	C	1.589608	0.188672	0.628029
C53	C	1.089653	-0.688865	0.127980
C54	C	1.589653	-0.188865	0.627980
C55	C	1.258221	-0.000116	0.121553
C56	C	1.758221	0.499884	0.621553
C57	C	1.360602	-0.000120	0.123541
C58	C	1.860602	0.499880	0.623541
C59	C	1.096078	-0.000109	-0.040591
C60	C	1.596078	0.499891	0.459409
C61	C	1.094090	-0.000109	-0.142972
C62	C	1.594090	0.499891	0.357028
N63	N	1.089659	0.230578	0.127969
N64	N	1.589659	0.730578	0.627969
C65	C	1.086770	-0.000086	-0.517868
C66	C	1.586770	0.499914	-0.017868
C67	C	1.088803	-0.000092	-0.413560
C68	C	1.588803	0.499908	0.086440
C69	C	1.090430	-0.000098	-0.330423
C70	C	1.590430	0.499902	0.169577
C71	C	1.092463	-0.000104	-0.226109
C72	C	1.592463	0.499896	0.273891
C73	C	1.083168	-0.000090	0.296606
C74	C	1.583168	0.499910	0.796606
C75	C	1.085156	-0.000083	0.398987
C76	C	1.585156	0.499917	0.898987
H77	H	0.968973	-0.444427	0.248685
H78	H	1.468973	0.055573	0.748685
C79	C	1.127671	-0.564533	0.305474
C80	C	1.627671	-0.064533	0.805474
C81	C	1.058982	-0.534528	0.373645
C82	C	1.558982	-0.034528	0.873645
C83	C	1.077442	-0.566519	0.460309
C84	C	1.577442	-0.066519	0.960309
H85	H	1.186393	-0.543355	0.318843
H86	H	1.686393	-0.043355	0.818843
H87	H	1.128050	-0.627775	0.304653
H88	H	1.628050	-0.127775	0.804653
H89	H	1.058612	-0.471300	0.374467
H90	H	1.558612	0.028700	0.874467
H91	H	1.000253	-0.555704	0.360306
H92	H	1.500253	-0.055704	0.860306
H93	H	1.077821	-0.629760	0.459488
H94	H	1.577821	-0.129760	0.959488
H95	H	1.136166	-0.545338	0.473668
H96	H	1.636166	-0.045338	0.973668
H97	H	1.030835	-0.546172	0.506572
H98	H	1.530835	-0.046172	1.006572
C99	C	1.229052	-0.564167	-0.010946
C100	C	1.729052	-0.064167	0.489054
C101	C	1.316109	-0.533942	0.008345
C102	C	1.816109	-0.033942	0.508345
C103	C	1.384271	-0.565666	-0.059420
C104	C	1.884271	-0.065666	0.440580
H105	H	1.216920	-0.542954	-0.070051
H106	H	1.716920	-0.042954	0.429949
H107	H	1.228376	-0.627411	-0.010883
H108	H	1.728376	-0.127411	0.489117
H109	H	1.316783	-0.470711	0.008272
H110	H	1.816783	0.029289	0.508272
H111	H	1.328270	-0.555152	0.067437
H112	H	1.828270	-0.055152	0.567437
H113	H	1.383595	-0.628910	-0.059357
H114	H	1.883595	-0.128910	0.440643
H115	H	1.372131	-0.544451	-0.118520
H116	H	1.872131	-0.044451	0.381480
H117	H	1.443348	-0.545170	-0.046336
H118	H	1.943348	-0.045170	0.453664
C119	C	1.051231	-0.435465	-0.049223
C120	C	1.551231	0.064535	0.450777
C121	C	0.971157	-0.382888	-0.038053
C122	C	1.471157	0.117112	0.461947
C123	C	0.952302	-0.350672	-0.124504
C124	C	1.452302	0.149328	0.375496
H125	H	1.041988	-0.484107	-0.088984
H126	H	1.541988	0.015893	0.411016
H127	H	1.102001	-0.400616	-0.075678
H128	H	1.602001	0.099384	0.424322
H129	H	0.920398	-0.417736	-0.011612
H130	H	1.420398	0.082264	0.488388
H131	H	0.980379	-0.334232	0.001691
H132	H	1.480379	0.165768	0.501691
H133	H	1.003072	-0.315823	-0.150959
H134	H	1.503072	0.184177	0.349041
H135	H	0.943063	-0.399320	-0.164258
H136	H	1.443063	0.100680	0.335742
H137	H	0.897975	-0.314989	-0.116936
H138	H	1.397975	0.185011	0.383064
H139	H	1.243524	-0.444454	0.161407
H140	H	1.743524	0.055546	0.661407
H141	H	0.935793	-0.555864	0.094770
H142	H	1.435793	-0.055864	0.594770
