data_functionalizedCrystal
_audit_creation_method	'MofGen! by Chris Wilmer'
_symmetry_space_group_name_H-M	'P1'
_symmetry_Int_Tables_number	1
_symmetry_cell_setting	triclinic
loop_
_symmetry_equiv_pos_as_xyz
  x,y,z
_cell_length_a	21.395362
_cell_length_b	17.637651
_cell_length_c	21.395355
_cell_angle_alpha	101.232233
_cell_angle_beta	90.043940
_cell_angle_gamma	101.230465
loop_
_atom_site_label
_atom_site_type_symbol
_atom_site_fract_x
_atom_site_fract_y
_atom_site_fract_z
Zn1	Zn	0.907526	-0.314524	0.304123
Zn2	Zn	0.886274	-0.446721	0.178135
Zn3	Zn	0.802736	-0.314561	0.199318
Zn4	Zn	0.781553	-0.446737	0.282837
O5	O	0.844522	-0.380636	0.241103
O6	O	0.992389	-0.332038	0.287453
O7	O	0.875163	-0.429198	0.093266
O8	O	0.834396	-0.203915	0.230994
O9	O	0.976774	-0.429162	0.194891
O10	O	0.911385	-0.203888	0.307993
O11	O	0.813788	-0.332101	0.108829
O12	O	0.712244	-0.332116	0.210354
O13	O	0.798293	-0.429190	0.373340
O14	O	0.696681	-0.429226	0.271715
O15	O	0.890845	-0.332054	0.388978
O16	O	0.854623	-0.557364	0.174251
O17	O	0.777685	-0.557376	0.251175
C18	C	0.681728	-0.380677	0.241024
C19	C	0.612080	-0.380714	0.241002
C20	C	0.571269	-0.431346	0.272882
C21	C	0.505837	-0.431327	0.272913
C22	C	0.481217	-0.380684	0.241051
C23	C	0.522038	-0.330042	0.209170
C24	C	0.587469	-0.330057	0.209145
C25	C	0.378512	-0.374314	0.185668
C26	C	0.313080	-0.374305	0.185691
C27	C	0.279405	-0.380632	0.241129
C28	C	0.311166	-0.386986	0.296543
C29	C	0.376598	-0.387001	0.296518
C30	C	0.410268	-0.380661	0.241075
C31	C	0.167644	-0.431246	0.273045
C32	C	0.102211	-0.431221	0.273078
C33	C	0.118413	-0.329940	0.209329
C34	C	0.183845	-0.329961	0.209303
C35	C	0.208456	-0.380618	0.241159
C36	C	0.811566	-0.586058	0.208119
C37	C	0.797524	-0.673938	0.194028
C38	C	0.951601	-0.962602	0.348342
C39	C	0.938387	-1.045179	0.335091
C40	C	0.858271	-1.045314	0.254834
C41	C	0.871481	-0.962736	0.268076
C42	C	0.918146	-0.921386	0.314831
C43	C	0.838026	-0.921520	0.234565
C44	C	0.851232	-0.838948	0.247808
C45	C	0.897893	-0.797592	0.294562
C46	C	0.931352	-0.838814	0.328074
C47	C	0.791358	-0.962871	0.187813
C48	C	0.757902	-0.921655	0.154302
C49	C	0.771112	-0.839082	0.167542
C50	C	0.817773	-0.797726	0.214296
C51	C	0.737653	-0.797860	0.134030
C52	C	0.750859	-0.715288	0.147274
C53	C	0.830979	-0.715154	0.227539
C54	C	1.007952	-0.380594	0.241183
C55	C	1.077596	-0.380577	0.241217
C56	C	0.844577	-0.380620	0.404529
C57	C	0.844600	-0.380613	0.474172
C58	C	0.877624	-0.174411	0.274231
C59	C	0.891730	-0.086530	0.288348
C60	C	0.844513	-0.380594	0.078322
C61	C	0.844647	-0.380379	0.008716
C62	C	0.892791	-0.330032	0.515029
C63	C	0.892795	-0.329998	0.580470
C64	C	0.844613	-0.380559	0.605049
C65	C	0.796414	-0.431143	0.564183
C66	C	0.796408	-0.431170	0.498744
C67	C	0.828245	-0.451751	0.697290
C68	C	0.828256	-0.451726	0.762727
C69	C	0.844631	-0.380475	0.806883
C70	C	0.861008	-0.309248	0.785594
C71	C	0.861002	-0.309275	0.720155
C72	C	0.844615	-0.380535	0.676005
C73	C	0.892829	-0.329853	0.918699
C74	C	0.892830	-0.329818	0.984142
C75	C	0.796451	-0.430971	0.967852
C76	C	0.796448	-0.430999	0.902413
C77	C	0.844641	-0.380441	0.877840
H78	H	0.068983	-0.472450	0.299043
Cl79	Cl	0.799604	-1.097304	0.196063
Cl80	Cl	0.774850	-1.066676	0.171071
H81	H	0.874344	-0.251229	0.821545
H82	H	0.814745	-0.509757	0.661345
Cl83	Cl	0.881585	-0.219737	0.693393
Cl84	Cl	0.699235	-0.973645	0.095531
H85	H	0.932067	-0.288682	0.898692
Cl86	Cl	0.454522	-0.494983	0.312993
H87	H	0.757162	-0.472359	0.465478
H88	H	0.932072	-0.288624	1.017408
Cl89	Cl	0.980455	-1.096991	0.377221
H90	H	0.699654	-0.831539	0.095967
Cl91	Cl	0.420839	-0.366362	0.115967
H92	H	0.620699	-0.288824	0.183185
Cl93	Cl	0.735841	-0.494703	0.595081
Cl94	Cl	1.010275	-0.910613	0.407113
H95	H	0.757209	-0.472192	0.869145
Cl96	Cl	0.491088	-0.266373	0.169119
Cl97	Cl	0.708803	-0.663470	0.105143
Cl98	Cl	0.735874	-0.494527	0.998746
H99	H	0.814924	-0.509723	0.780055
Cl100	Cl	0.602206	-0.495025	0.312933
H101	H	0.283749	-0.392137	0.341686
H102	H	0.402455	-0.392173	0.341639
Cl103	Cl	0.953372	-0.266469	0.484142
H104	H	0.187684	-0.472490	0.298989
Cl105	Cl	0.914299	-0.693787	0.311409
H106	H	0.098368	-0.288702	0.183390
Cl107	Cl	0.235153	-0.266308	0.169220
Cl108	Cl	0.990026	-0.786825	0.386845
Cl109	Cl	0.953372	-0.266389	0.631845
H110	H	0.868984	-0.681486	0.265607
Cl111	Cl	0.273159	-0.366316	0.116029
