data_functionalizedCrystal
_audit_creation_method	'MofGen! by Chris Wilmer'
_symmetry_space_group_name_H-M	'P1'
_symmetry_Int_Tables_number	1
_symmetry_cell_setting	triclinic
loop_
_symmetry_equiv_pos_as_xyz
  x,y,z
_cell_length_a	27.732048
_cell_length_b	27.732048
_cell_length_c	13.101039
_cell_angle_alpha	93.329410
_cell_angle_beta	86.675896
_cell_angle_gamma	82.642655
loop_
_atom_site_label
_atom_site_type_symbol
_atom_site_fract_x
_atom_site_fract_y
_atom_site_fract_z
O1	O	0.643602	0.054833	-0.085092
O2	O	0.502810	0.063577	-0.085125
O3	O	0.577578	-0.011191	-0.085088
O4	O	0.568834	0.129601	-0.085129
O5	O	0.572214	-0.005818	0.085339
O6	O	0.497445	0.068951	0.085302
O7	O	0.638238	0.060206	0.085335
Zn8	Zn	0.566990	0.065432	0.112378
Zn9	Zn	0.574058	0.058352	-0.112168
O10	O	0.563470	0.134975	0.085298
C11	C	0.482121	0.066080	0.000085
C12	C	0.428466	0.065527	0.000073
C13	C	0.089650	0.106232	0.000106
C14	C	-0.112010	0.104181	0.000115
O15	O	-0.143266	0.141403	0.000149
N16	N	-0.131134	0.059847	0.000127
C17	C	-0.099840	0.016021	0.000142
O18	O	-0.120733	-0.021735	0.000162
C19	C	0.101819	0.018073	0.000140
C20	C	0.120941	0.062410	0.000118
C21	C	0.108772	0.150566	0.000085
C22	C	0.159184	0.151078	0.000077
C23	C	0.190475	0.107256	0.000090
C24	C	0.171353	0.062922	0.000110
C25	C	0.133112	-0.025751	0.000162
C26	C	0.183529	-0.025235	0.000164
C27	C	0.202651	0.019103	0.000143
C28	C	0.253055	0.019612	0.000114
N29	N	0.272179	0.063947	0.000103
C30	C	0.240889	0.107769	0.000091
C31	C	-0.205714	0.014947	0.000141
C32	C	-0.256128	0.014434	0.000140
C33	C	-0.268295	0.102595	0.000115
C34	C	-0.217879	0.103107	0.000109
C35	C	-0.186590	0.059282	0.000130
C36	C	0.346759	0.108841	0.000073
C37	C	0.397176	0.109349	0.000061
C38	C	0.409338	0.021189	0.000091
C39	C	0.358925	0.020681	0.000098
C40	C	0.327636	0.064511	0.000092
O41	O	0.284340	-0.017589	0.000092
O42	O	0.261792	0.145521	0.000093
C43	C	0.039238	0.105720	0.000114
C44	C	0.020116	0.061386	0.000134
C45	C	0.051406	0.017564	0.000146
C46	C	-0.030298	0.060873	0.000133
C47	C	-0.061588	0.104695	0.000121
C48	C	-0.042464	0.149030	0.000109
C49	C	0.007948	0.149542	0.000101
C50	C	0.032282	-0.026770	0.000157
C51	C	-0.018130	-0.027279	0.000164
C52	C	-0.049421	0.016543	0.000152
C53	C	0.574712	-0.026511	0.000128
C54	C	0.574159	-0.080166	0.000137
C55	C	0.614864	-0.418982	0.000093
C56	C	0.612814	-0.620642	0.000079
O57	O	0.650036	-0.651899	0.000042
N58	N	0.568479	-0.639766	0.000069
C59	C	0.524654	-0.608472	0.000057
O60	O	0.486898	-0.629366	0.000038
C61	C	0.526705	-0.406813	0.000064
C62	C	0.571043	-0.387692	0.000084
C63	C	0.659198	-0.399860	0.000112
C64	C	0.659710	-0.349448	0.000121
C65	C	0.615888	-0.318158	0.000112
C66	C	0.571554	-0.337279	0.000093
C67	C	0.482881	-0.375520	0.000045
C68	C	0.483397	-0.325103	0.000044
C69	C	0.527735	-0.305981	0.000064
C70	C	0.528245	-0.255577	0.000093
N71	N	0.572579	-0.236453	0.000103
C72	C	0.616401	-0.267743	0.000112
C73	C	0.523580	-0.714346	0.000055
C74	C	0.523067	-0.764760	0.000055
C75	C	0.611227	-0.776927	0.000075
C76	C	0.611740	-0.726512	0.000082
C77	C	0.567915	-0.695222	0.000064
C78	C	0.617473	-0.161873	0.000132
C79	C	0.617981	-0.111456	0.000146
C80	C	0.529821	-0.099294	0.000121
C81	C	0.529313	-0.149707	0.000113
C82	C	0.573143	-0.180996	0.000115
O83	O	0.491043	-0.224292	0.000118
O84	O	0.654153	-0.246841	0.000108
C85	C	0.614352	-0.469394	0.000084
C86	C	0.570019	-0.488516	0.000066
C87	C	0.526197	-0.457226	0.000056
C88	C	0.569506	-0.538931	0.000065
C89	C	0.613327	-0.570221	0.000075
C90	C	0.657662	-0.551097	0.000084
C91	C	0.658174	-0.500685	0.000093
C92	C	0.481862	-0.476350	0.000047
C93	C	0.481353	-0.526763	0.000039
C94	C	0.525175	-0.558053	0.000048
C95	C	0.658927	0.057703	0.000123
C96	C	0.712582	0.058256	0.000128
C97	C	0.566336	0.150295	0.000079
C98	C	0.566889	0.203949	0.000064
N99	N	0.562170	0.070263	0.265624
N100	N	0.578882	0.053517	-0.265414
C101	C	0.555611	0.076841	0.474663
C102	C	0.585439	0.046941	0.525553
C103	C	0.581790	0.050601	0.641870
C104	C	0.559260	0.073181	0.358336
H105	H	0.412742	0.145455	0.000043
H106	H	0.695815	-0.333885	0.000133
C107	C	0.660514	-0.705484	0.000095
N108	N	0.697253	-0.689648	0.000101
C109	C	0.706950	-0.479659	0.000108
N110	N	0.743690	-0.463825	0.000117
H111	H	0.321288	0.144532	0.000072
H112	H	0.446176	-0.450878	0.000037
H113	H	0.613715	0.018595	0.481765
C114	C	0.517413	0.115133	0.533816
N115	N	0.488642	0.143974	0.578382
H116	H	0.174748	0.187182	0.000059
H117	H	-0.293780	0.138276	0.000106
H118	H	-0.033693	-0.063387	0.000174
C119	C	0.480540	-0.170740	0.000098
N120	N	0.443803	-0.186580	0.000075
C121	C	0.074360	0.198778	0.000076
N122	N	0.048443	0.235094	0.000062
H123	H	0.434824	-0.014489	0.000097
C124	C	0.705867	-0.585526	0.000092
N125	N	0.742172	-0.611461	0.000092
C126	C	0.217946	-0.073447	0.000183
N127	N	0.243867	-0.109760	0.000193
C128	C	0.474292	-0.785787	0.000046
N129	N	0.437553	-0.801623	0.000033
H130	H	-0.271691	-0.021670	0.000141
C131	C	-0.196851	0.151881	0.000097
N132	N	-0.181016	0.188620	0.000092
H133	H	-0.180241	-0.020742	0.000158
H134	H	0.117553	-0.061856	0.000181
C135	C	0.066696	-0.074981	0.000166
N136	N	0.092614	-0.111297	0.000166
H137	H	0.343357	-0.015423	0.000100
H138	H	0.487890	-0.688874	0.000041
H139	H	0.023511	0.185646	0.000085
C140	C	-0.076894	0.197234	0.000100
N141	N	-0.102828	0.233540	0.000100
C142	C	0.665688	-0.196284	0.000144
N143	N	0.702004	-0.222202	0.000162
H144	H	0.654088	-0.095890	0.000164
H145	H	0.694886	-0.425333	0.000116
C146	C	0.435185	-0.290686	0.000028
N147	N	0.398872	-0.264765	0.000020
H148	H	0.646909	-0.802413	0.000083
C149	C	0.434105	-0.396542	0.000016
N150	N	0.397365	-0.412374	-0.000009
H151	H	0.494143	-0.073808	0.000117
H152	H	0.445245	-0.542326	0.000032
