data_functionalizedCrystal
_audit_creation_method	'MofGen! by Chris Wilmer'
_symmetry_space_group_name_H-M	'P1'
_symmetry_Int_Tables_number	1
_symmetry_cell_setting	triclinic
loop_
_symmetry_equiv_pos_as_xyz
  x,y,z
_cell_length_a	19.188924
_cell_length_b	11.792241
_cell_length_c	10.868271
_cell_angle_alpha	90.000107
_cell_angle_beta	89.992800
_cell_angle_gamma	96.332310
loop_
_atom_site_label
_atom_site_type_symbol
_atom_site_fract_x
_atom_site_fract_y
_atom_site_fract_z
O1	O	0.095695	-1.505472	-0.102209
O2	O	0.595695	-1.005472	0.397791
O3	O	0.105558	-1.174983	-0.102238
O4	O	0.605558	-0.674983	0.397762
O5	O	-0.000975	-1.349769	-0.102208
O6	O	0.499025	-0.849769	0.397792
O7	O	0.202229	-1.330686	-0.102239
O8	O	0.702229	-0.830686	0.397761
O9	O	-0.000980	-1.349755	0.102436
O10	O	0.499020	-0.849755	0.602436
O11	O	0.105554	-1.174969	0.102406
O12	O	0.605554	-0.674969	0.602406
O13	O	0.095691	-1.505458	0.102436
O14	O	0.595691	-1.005458	0.602436
Zn15	Zn	0.100622	-1.340211	0.134913
Zn16	Zn	0.600622	-0.840211	0.634913
Zn17	Zn	0.100627	-1.340230	-0.134715
Zn18	Zn	0.600627	-0.840230	0.365285
O19	O	0.202224	-1.330672	0.102406
O20	O	0.702224	-0.830672	0.602406
C21	C	0.104936	-1.132694	0.000081
C22	C	0.604936	-0.632694	0.500081
C23	C	0.103082	-1.006708	0.000070
C24	C	0.603082	-0.506708	0.500070
N25	N	0.100618	-1.340207	0.318927
N26	N	0.600618	-0.840207	0.818927
C27	C	-0.026992	-1.349145	0.000115
C28	C	0.473008	-0.849145	0.500115
C29	C	-0.104507	-1.347294	0.000118
C30	C	0.395493	-0.847294	0.500118
C31	C	-0.140909	-1.346438	-0.111434
C32	C	0.359091	-0.846438	0.388566
C33	C	-0.213741	-1.344682	-0.111443
C34	C	0.286259	-0.844682	0.388557
C35	C	-0.250172	-1.343806	0.000106
C36	C	0.249828	-0.843806	0.500106
C37	C	-0.213761	-1.344656	0.111673
C38	C	0.286239	-0.844656	0.611673
C39	C	-0.140929	-1.346400	0.111679
C40	C	0.359071	-0.846400	0.611679
N41	N	-0.369486	-1.405648	0.083134
N42	N	0.130514	-0.905648	0.583134
N43	N	-0.438674	-1.403994	0.083121
N44	N	0.061326	-0.903994	0.583121
C45	C	-0.469610	-1.338549	0.000093
C46	C	0.030390	-0.838549	0.500093
N47	N	-0.428747	-1.274835	-0.082939
N48	N	0.071253	-0.774835	0.417061
N49	N	-0.359553	-1.276495	-0.082929
N50	N	0.140447	-0.776495	0.417071
C51	C	-0.329146	-1.341914	0.000111
C52	C	0.170854	-0.841914	0.500111
C53	C	-0.584985	-1.335788	-0.111477
C54	C	-0.084985	-0.835788	0.388523
C55	C	-0.657819	-1.334025	-0.111482
C56	C	-0.157819	-0.834025	0.388518
C57	C	-0.657838	-1.334010	0.111637
C58	C	-0.157838	-0.834010	0.611637
C59	C	-0.585005	-1.335761	0.111639
C60	C	-0.085005	-0.835761	0.611639
C61	C	-0.548583	-1.336655	0.000078
C62	C	-0.048583	-0.836655	0.500078
C63	C	0.228241	-1.331296	0.000080
C64	C	0.728241	-0.831296	0.500080
C65	C	0.305756	-1.333147	0.000068
C66	C	0.805756	-0.833147	0.500068
C67	C	0.096313	-1.547747	0.000114
C68	C	0.596313	-1.047747	0.500114
C69	C	0.098167	-1.673733	0.000117
C70	C	0.598167	-1.173733	0.500117
C71	C	0.099672	-0.776047	0.000106
C72	C	0.599672	-0.276047	0.500106
C73	C	0.101567	-0.904404	0.000086
C74	C	0.601567	-0.404404	0.500086
N75	N	0.100626	-1.340243	-0.318729
N76	N	0.600626	-0.840243	0.181271
C77	C	0.100626	-1.340224	0.569933
C78	C	0.600626	-0.840224	1.069933
C79	C	0.100623	-1.340211	0.430255
C80	C	0.600623	-0.840211	0.930255
H81	H	-0.111259	-1.347163	-0.202275
H82	H	0.388741	-0.847163	0.297725
Cl83	Cl	-0.259513	-1.343606	-0.251691
Cl84	Cl	0.240487	-0.843606	0.248309
Cl85	Cl	-0.539240	-1.336837	0.251885
Cl86	Cl	-0.039240	-0.836837	0.751885
H87	H	-0.111291	-1.347092	0.202521
H88	H	0.388709	-0.847092	0.702521
H89	H	-0.243427	-1.343939	0.202496
H90	H	0.256573	-0.843939	0.702496
Cl91	Cl	-0.539194	-1.336902	-0.251721
Cl92	Cl	-0.039194	-0.836902	0.248279
H93	H	-0.687455	-1.333322	-0.202325
H94	H	-0.187455	-0.833322	0.297675
H95	H	-0.687498	-1.333288	0.202463
H96	H	-0.187498	-0.833288	0.702463
