data_functionalizedCrystal
_audit_creation_method	'MofGen! by Chris Wilmer'
_symmetry_space_group_name_H-M	'P1'
_symmetry_Int_Tables_number	1
_symmetry_cell_setting	triclinic
loop_
_symmetry_equiv_pos_as_xyz
  x,y,z
_cell_length_a	16.109318
_cell_length_b	14.586319
_cell_length_c	16.109301
_cell_angle_alpha	90.003802
_cell_angle_beta	96.534927
_cell_angle_gamma	90.000075
loop_
_atom_site_label
_atom_site_type_symbol
_atom_site_fract_x
_atom_site_fract_y
_atom_site_fract_z
O1	O	1.103122	-0.076164	-0.106935
O2	O	0.861062	-0.076183	-0.120219
O3	O	0.988741	-0.076167	0.007454
O4	O	0.975442	-0.076180	-0.234607
O5	O	0.988733	0.076314	0.007456
O6	O	0.861053	0.076298	-0.120217
O7	O	1.103113	0.076317	-0.106933
Cu8	Cu	0.982082	0.090230	-0.113575
Cu9	Cu	0.982093	-0.090096	-0.113577
O10	O	0.975434	0.076301	-0.234606
C11	C	0.830083	0.000055	-0.119677
C12	C	0.737788	0.000048	-0.118057
C13	C	0.438719	-0.083052	-0.112823
C14	C	0.525441	-0.083058	-0.114340
C15	C	0.525450	0.083185	-0.114327
C16	C	0.438731	0.083190	-0.112803
C17	C	0.395367	0.000068	-0.112056
C18	C	0.568808	0.000058	-0.115096
C19	C	0.662835	0.000052	-0.116742
C20	C	0.301335	0.000073	-0.110409
C21	C	0.988198	0.000073	0.038430
C22	C	0.986583	0.000072	0.130725
C23	C	1.134092	0.000077	-0.107474
C24	C	1.226387	0.000078	-0.109095
N25	N	0.982081	0.217062	-0.113573
N26	N	0.982101	-0.216928	-0.113572
C27	C	1.038636	0.452075	-0.057058
C28	C	1.038638	0.548057	-0.057056
C29	C	0.925539	0.548052	-0.170090
C30	C	0.925534	0.452072	-0.170087
C31	C	0.982087	0.404087	-0.113572
C32	C	0.982095	0.596047	-0.113573
C33	C	0.982097	0.700115	-0.113571
C34	C	0.982084	0.300013	-0.113573
C35	C	0.975977	0.000059	-0.265581
C36	C	0.977592	0.000054	-0.357877
C37	C	1.057066	0.000061	0.439719
C38	C	1.058591	0.000067	0.352999
C39	C	0.907103	0.000067	0.333135
C40	C	0.905579	0.000069	0.419854
C41	C	0.980563	0.000061	0.473144
C42	C	0.983612	0.000065	0.299705
C43	C	0.985266	0.000071	0.205678
C44	C	0.978909	0.000057	0.567176
H45	H	0.403416	-0.150735	-0.112213
C46	C	0.813737	0.538406	-0.281809
C47	C	0.863378	0.600800	-0.232210
H48	H	0.775358	0.570971	-0.320156
H49	H	0.848330	0.500969	-0.311729
H50	H	0.783846	0.500974	-0.247178
H51	H	0.893274	0.638229	-0.266840
H52	H	0.828781	0.638254	-0.202288
C53	C	1.088861	0.695186	-0.006863
C54	C	1.100799	0.600807	0.005065
H55	H	1.127235	0.727749	0.031495
H56	H	1.097876	0.710907	-0.062348
H57	H	1.033378	0.710908	0.002188
H58	H	1.156281	0.585083	-0.003992
H59	H	1.091791	0.585080	0.060563
C60	C	1.056652	0.344200	0.056122
C61	C	1.100771	0.399350	0.005107
H62	H	1.095007	0.311656	0.094510
H63	H	1.022041	0.381666	0.085995
H64	H	1.022998	0.301865	0.022457
H65	H	1.134420	0.441691	0.038771
H66	H	1.135396	0.361881	-0.024769
C67	C	0.516714	-0.247379	-0.114213
C68	C	0.573092	-0.174427	-0.115189
H69	H	0.546133	-0.303788	-0.114742
H70	H	0.489244	-0.243923	-0.065169
H71	H	0.476536	-0.243907	-0.162077
H72	H	0.613266	-0.177895	-0.067322
H73	H	0.600576	-0.177885	-0.164239
H74	H	0.879480	0.412997	-0.216108
C75	C	0.447442	0.247520	-0.112952
C76	C	0.391071	0.174563	-0.111963
H77	H	0.418017	0.303926	-0.112436
H78	H	0.487617	0.244063	-0.065096
H79	H	0.474914	0.244057	-0.162004
H80	H	0.363604	0.178023	-0.062908
H81	H	0.350882	0.178022	-0.159824
H82	H	0.560767	0.150859	-0.114937
C83	C	0.815980	0.078454	0.505856
C84	C	0.821480	0.000067	0.456600
H85	H	0.764061	0.078456	0.528537
H86	H	0.860413	0.078449	0.549998
H87	H	0.819722	0.131620	0.472431
H88	H	0.817744	-0.053099	0.490026
H89	H	0.777034	0.000064	0.412451
H90	H	1.118122	0.000055	0.483106
C91	C	1.208174	0.000052	0.381349
C92	C	1.142686	0.000061	0.316258
H93	H	1.260092	0.000043	0.358666
H94	H	1.204432	0.053222	0.414762
H95	H	1.204418	-0.053126	0.414756
H96	H	1.146438	0.053242	0.282855
H97	H	1.146430	-0.053115	0.282832
H98	H	0.846055	0.000071	0.289736
