data_functionalizedCrystal
_audit_creation_method	'MofGen! by Chris Wilmer'
_symmetry_space_group_name_H-M	'P1'
_symmetry_Int_Tables_number	1
_symmetry_cell_setting	triclinic
loop_
_symmetry_equiv_pos_as_xyz
  x,y,z
_cell_length_a	42.784860
_cell_length_b	42.784822
_cell_length_c	42.784893
_cell_angle_alpha	59.997561
_cell_angle_beta	90.002749
_cell_angle_gamma	120.000052
loop_
_atom_site_label
_atom_site_type_symbol
_atom_site_fract_x
_atom_site_fract_y
_atom_site_fract_z
O1	O	-0.214411	0.275696	-0.009303
O2	O	-0.168960	0.211693	0.009250
O3	O	-0.168960	0.275694	-0.054752
O4	O	-0.214412	0.211695	0.054700
O5	O	-0.220945	0.223709	-0.054752
O6	O	-0.220945	0.159709	0.009251
O7	O	-0.266396	0.223712	-0.009302
Cu8	Cu	-0.248417	0.186964	-0.000026
Cu9	Cu	-0.186939	0.248441	-0.000026
O10	O	-0.266396	0.159711	0.054700
C11	C	-0.356210	0.440761	-0.028198
C12	C	-0.393825	0.422043	-0.028463
C13	C	-0.356212	0.384160	-0.028195
C14	C	-0.393827	0.365528	-0.028460
C15	C	-0.412809	0.384162	-0.028198
C16	C	-0.337314	0.422041	-0.028460
C17	C	-0.264530	0.567003	-0.017954
C18	C	-0.246589	0.602758	-0.015058
C19	C	-0.265929	0.620695	-0.013606
C20	C	-0.246481	0.659458	-0.010458
C21	C	-0.303208	0.602876	-0.015053
C22	C	-0.321144	0.567127	-0.017954
C23	C	-0.301803	0.549191	-0.019404
C24	C	-0.549294	0.339358	-0.017956
C25	C	-0.587945	0.318647	-0.015060
C26	C	-0.607337	0.279917	-0.013603
C27	C	-0.649246	0.257454	-0.010457
C28	C	-0.588072	0.261901	-0.015047
C29	C	-0.549421	0.282615	-0.017950
C30	C	-0.530034	0.321345	-0.019402
C31	C	-0.264536	0.339346	-0.017940
C32	C	-0.246598	0.318630	-0.015035
C33	C	-0.265938	0.279899	-0.013580
C34	C	-0.246492	0.257434	-0.010429
C35	C	-0.303216	0.261886	-0.015025
C36	C	-0.321152	0.282602	-0.017928
C37	C	-0.301807	0.321336	-0.019389
C38	C	-0.321256	0.510424	-0.022546
C39	C	-0.336761	0.479524	-0.025053
C40	C	-0.336763	0.361698	-0.025045
C41	C	-0.321260	0.343795	-0.022536
C42	C	-0.454718	0.361703	-0.025052
C43	C	-0.488123	0.343801	-0.022546
O44	O	-0.772519	0.159724	0.009230
O45	O	-0.663066	0.223728	-0.009325
O46	O	-0.727060	0.159730	0.054678
O47	O	-0.708526	0.223722	-0.054773
O48	O	-0.727058	0.211716	0.054675
O49	O	-0.663065	0.275715	-0.009329
O50	O	-0.772518	0.211710	0.009227
Cu51	Cu	-0.717791	0.248459	-0.000051
Cu52	Cu	-0.717793	0.186979	-0.000047
O53	O	-0.708524	0.275708	-0.054777
C54	C	-0.079140	0.384392	-0.361609
C55	C	-0.041525	0.422272	-0.380505
C56	C	-0.079140	0.384392	-0.305010
C57	C	-0.041525	0.422272	-0.323993
C58	C	-0.022542	0.440990	-0.361608
C59	C	-0.098037	0.365759	-0.323993
C60	C	-0.170818	0.282466	-0.396171
C61	C	-0.188758	0.261629	-0.413985
C62	C	-0.169419	0.279514	-0.451260
C63	C	-0.188866	0.256918	-0.470575
C64	C	-0.132139	0.318240	-0.470720
C65	C	-0.114204	0.339078	-0.452907
C66	C	-0.133545	0.321189	-0.415631
C67	C	0.113944	0.567229	-0.453284
C68	C	0.152595	0.602984	-0.471224
C69	C	0.171986	0.620919	-0.451885
C70	C	0.213895	0.659681	-0.471330
C71	C	0.152721	0.603099	-0.414606
C72	C	0.114069	0.567352	-0.396669
C73	C	0.094683	0.549417	-0.416013
C74	C	-0.170818	0.282466	-0.168524
C75	C	-0.188756	0.261626	-0.129871
C76	C	-0.169417	0.279511	-0.110481
C77	C	-0.188864	0.256916	-0.068570
C78	C	-0.132139	0.318234	-0.129745
C79	C	-0.114202	0.339071	-0.168396
C80	C	-0.133547	0.321186	-0.187784
C81	C	-0.114093	0.343785	-0.396317
C82	C	-0.098589	0.361796	-0.380922
C83	C	-0.098589	0.361796	-0.263101
C84	C	-0.114093	0.343785	-0.229695
C85	C	0.019367	0.479752	-0.381056
C86	C	0.052773	0.510651	-0.396560
C87	C	-0.022778	0.051021	0.028112
C88	C	-0.041761	0.013142	0.028375
C89	C	-0.079378	0.051019	0.028115
C90	C	-0.098274	0.013139	0.028378
C91	C	-0.079377	-0.005578	0.028112
C92	C	-0.041762	0.069652	0.028378
C93	C	0.113708	0.152949	0.017863
C94	C	0.152360	0.173787	0.014965
C95	C	0.171751	0.155903	0.013509
C96	C	0.213662	0.178499	0.010359
C97	C	0.152486	0.117177	0.014954
C98	C	0.113835	0.096339	0.017857
C99	C	0.094447	0.114226	0.019312
C100	C	-0.113936	-0.131814	0.017859
C101	C	-0.131751	-0.167567	0.014961
C102	C	-0.169024	-0.185503	0.013506
C103	C	-0.188341	-0.224265	0.010358
C104	C	-0.188486	-0.167685	0.014954
C105	C	-0.170675	-0.131938	0.017859
C106	C	-0.133396	-0.114002	0.019309
C107	C	-0.113943	0.152940	0.017875
C108	C	-0.131756	0.173779	0.014975
C109	C	-0.169032	0.155893	0.013522
C110	C	-0.188348	0.178487	0.010375
C111	C	-0.188490	0.117171	0.014965
C112	C	-0.170675	0.096335	0.017863
C113	C	-0.133401	0.114221	0.019322
C114	C	0.052537	0.091630	0.022456
C115	C	0.019131	0.073618	0.024964
C116	C	-0.098692	0.073613	0.024970
C117	C	-0.114088	0.091623	0.022465
C118	C	-0.098690	-0.044339	0.024964
C119	C	-0.114085	-0.075237	0.022455
O120	O	-0.220936	0.763044	0.009229
O121	O	-0.266387	0.672146	-0.009326
O122	O	-0.266384	0.672138	0.054678
O123	O	-0.220939	0.763053	-0.054774
O124	O	-0.214398	0.672142	0.054672
O125	O	-0.214400	0.672150	-0.009331
O126	O	-0.168950	0.763048	0.009224
Cu127	Cu	-0.186929	0.717600	-0.000054
Cu128	Cu	-0.248408	0.717595	-0.000048
O129	O	-0.168953	0.763057	-0.054779
O130	O	0.337165	0.763274	-0.496873
O131	O	0.227714	0.672370	-0.451425
O132	O	0.291712	0.672367	-0.451419
O133	O	0.273167	0.763276	-0.496878
O134	O	0.291714	0.672369	-0.503404
O135	O	0.227716	0.672371	-0.503409
O136	O	0.337167	0.763275	-0.548857
Cu137	Cu	0.282441	0.717823	-0.530880
Cu138	Cu	0.282440	0.717822	-0.469402
O139	O	0.273168	0.763277	-0.548863
O140	O	-0.214416	0.211691	-0.548620
O141	O	-0.168961	0.275693	-0.503170
O142	O	-0.168963	0.211690	-0.503165
O143	O	-0.214414	0.275693	-0.548624
O144	O	-0.220946	0.159707	-0.451181
O145	O	-0.220944	0.223709	-0.451186
O146	O	-0.266399	0.159708	-0.496636
Cu147	Cu	-0.248418	0.186962	-0.469164
Cu148	Cu	-0.186942	0.248438	-0.530641
O149	O	-0.266397	0.223710	-0.496640
C150	C	-0.412572	-0.005343	0.361556
C151	C	-0.393589	0.013375	0.380453
C152	C	-0.355973	0.051256	0.304958
C153	C	-0.337077	0.069888	0.323942
C154	C	-0.355974	0.051255	0.361557
C155	C	-0.393589	0.013376	0.323940
C156	C	-0.549057	-0.131582	0.396114
C157	C	-0.587709	-0.167336	0.413927
C158	C	-0.607098	-0.185271	0.451202
C159	C	-0.649009	-0.224034	0.470516
C160	C	-0.587833	-0.167452	0.470663
C161	C	-0.549183	-0.131705	0.452851
C162	C	-0.529795	-0.113769	0.415575
C163	C	-0.321414	0.096062	0.453236
C164	C	-0.303599	0.116774	0.471177
C165	C	-0.266326	0.155503	0.451839
C166	C	-0.247010	0.177966	0.471285
C167	C	-0.246866	0.173518	0.414560
C168	C	-0.264676	0.152803	0.396622
C169	C	-0.301955	0.114074	0.415965
C170	C	-0.321411	0.096065	0.168471
C171	C	-0.303598	0.116780	0.129818
C172	C	-0.266323	0.155509	0.110429
C173	C	-0.247008	0.177973	0.068518
C174	C	-0.246865	0.173524	0.129694
C175	C	-0.264679	0.152808	0.168345
C176	C	-0.301953	0.114076	0.187732
C177	C	-0.487886	-0.075004	0.396262
C178	C	-0.454481	-0.044105	0.380868
C179	C	-0.336660	0.073716	0.263049
C180	C	-0.321265	0.091618	0.229643
C181	C	-0.336661	0.073715	0.381006
C182	C	-0.321266	0.091617	0.396511
C183	C	-0.745866	0.051078	0.361520
C184	C	-0.746126	0.013200	0.380417
C185	C	-0.745879	0.051069	0.304926
C186	C	-0.746138	0.013191	0.323909
C187	C	-0.745865	-0.005522	0.361523
C188	C	-0.746139	0.069705	0.323906
C189	C	-0.735614	0.153012	0.396070
C190	C	-0.732713	0.173854	0.413882
C191	C	-0.731249	0.155974	0.451155
C192	C	-0.728097	0.178574	0.470466
C193	C	-0.732690	0.117250	0.470616
C194	C	-0.735596	0.096409	0.452806
C195	C	-0.737058	0.114292	0.415532
C196	C	-0.735594	-0.131747	0.453199
C197	C	-0.732691	-0.167499	0.471140
C198	C	-0.731239	-0.185437	0.451804
C199	C	-0.728087	-0.224197	0.471249
C200	C	-0.732694	-0.167624	0.414526
C201	C	-0.735603	-0.131879	0.396589
C202	C	-0.737050	-0.113940	0.415930
C203	C	-0.735664	0.152975	0.168443
C204	C	-0.732771	0.173810	0.129791
C205	C	-0.731320	0.155921	0.110404
C206	C	-0.728181	0.178511	0.068494
C207	C	-0.732759	0.117201	0.129668
C208	C	-0.735651	0.096369	0.168319
C209	C	-0.737107	0.114258	0.187704
C210	C	-0.740205	0.091692	0.396222
C211	C	-0.742716	0.073678	0.380830
C212	C	-0.742742	0.073658	0.263018
C213	C	-0.740242	0.091665	0.229613
C214	C	-0.742713	-0.044281	0.380972
C215	C	-0.740201	-0.075178	0.396476
C216	C	-0.689717	0.440717	-0.361622
C217	C	-0.689458	0.421994	-0.380516
C218	C	-0.689705	0.384125	-0.305024
C219	C	-0.689447	0.365488	-0.324004
C220	C	-0.689720	0.384115	-0.361617
C221	C	-0.689443	0.422005	-0.324008
C222	C	-0.699965	0.566959	-0.396188
C223	C	-0.702865	0.602713	-0.414003
C224	C	-0.704328	0.620642	-0.451276
C225	C	-0.707479	0.659404	-0.470592
C226	C	-0.702888	0.602818	-0.470734
C227	C	-0.699983	0.567071	-0.452920
C228	C	-0.698522	0.549142	-0.415646
C229	C	-0.699994	0.339286	-0.453282
C230	C	-0.702898	0.318569	-0.471219
C231	C	-0.704351	0.279840	-0.451879
C232	C	-0.707504	0.257372	-0.471321
C233	C	-0.702896	0.261832	-0.414601
C234	C	-0.699986	0.282552	-0.396668
C235	C	-0.698538	0.321280	-0.416013
C236	C	-0.699919	0.339339	-0.168545
C237	C	-0.702812	0.318629	-0.129893
C238	C	-0.704264	0.279900	-0.110502
C239	C	-0.707403	0.257443	-0.068593
C240	C	-0.702826	0.261881	-0.129763
C241	C	-0.699934	0.282591	-0.168413
C242	C	-0.698477	0.321323	-0.187803
C243	C	-0.695376	0.510377	-0.396332
C244	C	-0.692866	0.479479	-0.380936
C245	C	-0.692842	0.361671	-0.263117
C246	C	-0.695342	0.343774	-0.229712
C247	C	-0.692874	0.361649	-0.381062
C248	C	-0.695386	0.343743	-0.396563
C249	C	-0.356186	0.384135	0.361527
C250	C	-0.393801	0.365499	0.380426
C251	C	-0.356190	0.440736	0.304932
C252	C	-0.393805	0.422015	0.323917
C253	C	-0.412786	0.384132	0.361532
C254	C	-0.337291	0.422018	0.323912
C255	C	-0.264501	0.339331	0.396079
C256	C	-0.246559	0.318620	0.413891
C257	C	-0.265897	0.279887	0.451165
C258	C	-0.246448	0.257424	0.470477
C259	C	-0.303177	0.261869	0.470627
C260	C	-0.321114	0.282584	0.452817
C261	C	-0.301774	0.321317	0.415541
C262	C	-0.549269	0.282194	0.453215
C263	C	-0.587921	0.261354	0.471156
C264	C	-0.607314	0.279236	0.451821
C265	C	-0.649223	0.256641	0.471268
C266	C	-0.588051	0.317966	0.414541
C267	C	-0.549399	0.338809	0.396603
C268	C	-0.530011	0.320917	0.415944
C269	C	-0.264518	0.566990	0.168444
C270	C	-0.246582	0.602744	0.129791
C271	C	-0.265924	0.620680	0.110404
C272	C	-0.246479	0.659446	0.068493
C273	C	-0.303202	0.602857	0.129670
C274	C	-0.321136	0.567102	0.168321
C275	C	-0.301789	0.549174	0.187707
C276	C	-0.321229	0.343773	0.396231
C277	C	-0.336735	0.361675	0.380838
C278	C	-0.336743	0.479502	0.263023
C279	C	-0.321241	0.510404	0.229617
C280	C	-0.454695	0.361533	0.380982
C281	C	-0.488100	0.343519	0.396488
O282	O	-0.708402	0.223813	0.548503
O283	O	-0.726959	0.159804	0.503059
O284	O	-0.662956	0.223814	0.503045
O285	O	-0.772405	0.159803	0.548516
O286	O	-0.662969	0.275791	0.451063
O287	O	-0.726972	0.211781	0.451077
O288	O	-0.708415	0.275790	0.496521
Cu289	Cu	-0.717694	0.248531	0.469052
Cu290	Cu	-0.717679	0.187062	0.530527
O291	O	-0.772418	0.211780	0.496534
C292	C	-0.022798	1.051063	-0.361634
C293	C	-0.041783	1.069695	-0.380528
C294	C	-0.079393	0.994458	-0.305034
C295	C	-0.098293	1.013176	-0.324014
C296	C	-0.079398	1.051059	-0.361629
C297	C	-0.041778	1.013180	-0.324019
C298	C	0.113690	1.095881	-0.396203
C299	C	0.152342	1.116596	-0.414020
C300	C	0.171729	1.155328	-0.451294
C301	C	0.213639	1.177795	-0.470612
C302	C	0.152461	1.173343	-0.470752
C303	C	0.113811	1.152624	-0.452937
C304	C	0.094426	1.113892	-0.415661
C305	C	-0.113969	1.152986	-0.453298
C306	C	-0.131785	1.173823	-0.471235
C307	C	-0.169059	1.155937	-0.451894
C308	C	-0.188378	1.178529	-0.471337
C309	C	-0.188517	1.117208	-0.414615
C310	C	-0.170703	1.096368	-0.396681
C311	C	-0.133425	1.114264	-0.416027
C312	C	-0.113945	0.868208	-0.168550
C313	C	-0.131756	0.832454	-0.129897
C314	C	-0.169030	0.814515	-0.110505
C315	C	-0.188343	0.775749	-0.068595
C316	C	-0.188491	0.832334	-0.129767
C317	C	-0.170679	0.868089	-0.168418
C318	C	-0.133406	0.886021	-0.187808
C319	C	0.052517	1.091432	-0.396346
C320	C	0.019111	1.073527	-0.380949
C321	C	-0.098704	0.955692	-0.263125
C322	C	-0.114097	0.924790	-0.229719
C323	C	-0.098714	1.073655	-0.381075
C324	C	-0.114111	1.091665	-0.396576
H325	H	-0.533738	0.267945	-0.019126
H326	H	-0.115939	1.205357	-0.501586
H327	H	-0.731501	0.102695	0.500964
H328	H	-0.026521	0.100131	0.028806
O329	O	-0.528626	0.380575	0.356396
H330	H	-0.504164	0.407793	0.356382
H331	H	-0.409046	0.437682	0.308677
O332	O	-0.688872	0.442758	-0.303821
H333	H	-0.688739	0.472295	-0.323350
H334	H	-0.603840	0.332529	0.398799
O335	O	-0.191684	0.263177	-0.189435
H336	H	-0.172952	0.284177	-0.219550
H337	H	-0.083849	0.370600	-0.184078
O338	O	-0.191675	0.887308	-0.189175
H339	H	-0.175403	0.922613	-0.199909
O340	O	0.173630	0.622439	-0.393743
H341	H	0.203744	0.650288	-0.412475
O342	O	-0.698378	0.263160	-0.189189
H343	H	-0.699869	0.232754	-0.169215
H344	H	-0.216514	0.205049	0.398816
O345	O	-0.073768	1.172281	-0.474166
H346	H	-0.054073	1.206223	-0.481675
O347	O	-0.704468	0.622156	-0.510932
H348	H	-0.678034	0.634351	-0.530633
H349	H	-0.248782	0.370883	-0.019125
O350	O	-0.528356	0.262902	0.474073
H351	H	-0.528882	0.261701	0.500602
O352	O	-0.704464	0.220060	-0.393739
H353	H	-0.679910	0.225630	-0.410073
H354	H	-0.409038	0.335016	0.411333
H355	H	-0.218838	-0.182293	0.013774
H356	H	-0.533511	0.370894	-0.019141
H357	H	0.168276	0.102618	0.013770
O358	O	-0.191661	-0.112719	0.019420
H359	H	-0.220572	-0.131193	0.017918
O360	O	-0.243689	0.172241	0.356413
H361	H	-0.217151	0.173460	0.355788
O362	O	-0.139214	-0.007617	0.028945
H363	H	-0.149225	0.011773	0.029084
H364	H	-0.026534	0.997517	-0.308781
H365	H	-0.026286	0.437937	-0.411412
O366	O	-0.138976	0.325386	-0.303804
H367	H	-0.148986	0.315513	-0.323332
H368	H	-0.409067	0.335045	-0.028882
O369	O	-0.324066	0.622221	-0.013488
H370	H	-0.350597	0.596360	0.011837
H371	H	-0.351496	0.552623	-0.019133
O372	O	-0.191691	1.054597	-0.356478
H373	H	-0.173041	1.043111	-0.347259
O374	O	-0.737151	0.054646	0.473794
H375	H	-0.735643	0.045715	0.502702
H376	H	-0.746547	-0.002461	0.411323
O377	O	-0.206391	0.338064	-0.013479
H378	H	-0.206373	0.313620	0.013726
O379	O	-0.021577	-0.007613	0.028939
H380	H	-0.013213	-0.017588	0.055023
H381	H	-0.218845	0.817724	-0.113976
H382	H	-0.219107	0.230092	-0.114187
H383	H	-0.746560	0.100190	0.308663
H384	H	-0.736773	-0.117145	0.468950
O385	O	-0.528407	-0.112490	0.473842
H386	H	-0.498273	-0.084620	0.455193
H387	H	-0.698809	0.552563	-0.468765
O388	O	-0.110771	0.215542	0.013420
H389	H	-0.081862	0.224475	0.014924
H390	H	-0.603602	0.229821	0.501508
H391	H	-0.306171	0.100369	0.308700
O392	O	-0.021339	0.443021	-0.303803
H393	H	0.004637	0.443186	-0.302292
H394	H	-0.083592	0.167507	0.019062
H395	H	-0.736825	0.064841	0.184002
O396	O	-0.191681	0.263177	-0.355969
H397	H	-0.220617	0.232754	-0.345433
O398	O	-0.608725	0.338070	-0.013494
H399	H	-0.588752	0.368477	-0.014987
O400	O	-0.243691	0.172231	0.189126
H401	H	-0.214778	0.202638	0.169153
O402	O	0.092794	0.172234	0.019442
H403	H	0.112680	0.202656	0.017957
H404	H	-0.736805	0.167576	0.365721
H405	H	-0.731538	0.205382	0.398033
H406	H	-0.731518	-0.182235	0.398784
O407	O	-0.073744	0.887551	-0.189466
H408	H	-0.054761	0.922869	-0.200225
H409	H	-0.703986	0.333302	-0.114213
O410	O	0.173124	1.097173	-0.393034
H411	H	0.153152	1.066763	-0.364121
H412	H	-0.731506	-0.181999	0.501490
H413	H	-0.603861	0.230367	-0.013863
H414	H	-0.115906	0.817949	-0.114217
O415	O	-0.243656	0.547687	-0.019559
H416	H	-0.214715	0.566096	-0.018084
H417	H	0.168278	0.617488	-0.501576
O418	O	-0.361318	0.263153	0.473810
H419	H	-0.380358	0.254868	0.457538
O420	O	-0.414016	0.442792	-0.029029
H421	H	-0.394489	0.472328	-0.029161
O422	O	-0.737172	-0.112665	0.356386
H423	H	-0.735672	-0.131141	0.345951
O424	O	-0.361359	0.263174	-0.019486
H425	H	-0.371793	0.232765	-0.017988
H426	H	-0.216238	0.617261	-0.013877
H427	H	-0.216513	0.205060	0.113905
O428	O	-0.698425	0.381059	-0.474146
H429	H	-0.699920	0.390104	-0.503080
H430	H	-0.318965	0.230348	-0.013839
O431	O	-0.698387	0.547626	-0.355987
H432	H	-0.696131	0.519769	-0.346866
O433	O	-0.228962	0.219860	-0.392997
H434	H	-0.239395	0.210921	-0.364084
O435	O	-0.731199	0.097899	0.108763
H436	H	-0.728951	0.118885	0.078652
H437	H	-0.698801	0.267887	-0.366318
H438	H	-0.689022	0.335005	-0.308760
O439	O	-0.111279	0.337530	-0.510920
H440	H	-0.130012	0.316533	-0.520038
O441	O	-0.191664	0.054567	0.019426
H442	H	-0.220653	0.045498	0.018141
H443	H	-0.218843	0.102607	0.013781
H444	H	-0.698730	0.370878	-0.184331
O445	O	0.173141	0.215558	0.013397
H446	H	0.153167	0.224497	0.014890
H447	H	0.097910	1.064343	-0.365853
O448	O	0.093065	0.054595	0.019384
H449	H	0.113044	0.045668	0.017869
O450	O	-0.073998	0.380841	-0.473892
H451	H	-0.063560	0.389776	-0.502802
O452	O	-0.324059	0.622210	0.108761
H453	H	-0.326753	0.619489	0.084285
H454	H	-0.408830	-0.002292	0.308701
O455	O	0.093030	0.547895	-0.474150
H456	H	0.112916	0.566296	-0.503086
H457	H	-0.026541	1.100183	-0.411432
O458	O	-0.361616	0.054289	0.474097
H459	H	-0.372153	0.045240	0.503033
H460	H	-0.746565	-0.002475	0.308669
H461	H	-0.731594	0.205340	0.114106
H462	H	0.098386	0.552847	-0.366318
O463	O	-0.073734	-0.112473	0.019431
H464	H	-0.063197	-0.130872	0.017942
H465	H	0.168248	1.204878	-0.501101
H466	H	-0.115902	-0.182071	0.013781
O467	O	-0.704475	0.337985	-0.511419
H468	H	-0.702984	0.368391	-0.521853
O469	O	-0.737226	0.172272	0.189351
H470	H	-0.735731	0.202701	0.169461
O471	O	-0.413774	-0.007372	0.421391
H472	H	-0.443177	-0.036906	0.431399
O473	O	-0.296352	0.442778	0.303721
H474	H	-0.286340	0.423387	0.323247
H475	H	-0.689036	0.437660	-0.411422
O476	O	-0.324583	0.097352	0.109040
H477	H	-0.353492	0.066937	0.129016
O478	O	-0.361615	0.054294	0.189382
H479	H	-0.372156	0.045252	0.169492
H480	H	-0.704044	0.617217	-0.398156
H481	H	-0.533275	-0.116983	0.365762
H482	H	0.098126	1.167293	-0.468783
H483	H	-0.116390	0.332795	-0.113954
H484	H	-0.704010	0.230344	-0.113972
H485	H	-0.319447	0.102104	0.501529
O486	O	-0.608490	-0.186547	0.392936
H487	H	-0.588516	-0.168065	0.364022
O488	O	-0.206376	0.621968	0.109011
H489	H	-0.195937	0.603496	0.128986
O490	O	-0.608744	-0.186793	0.510863
H491	H	-0.638858	-0.214643	0.519979
H492	H	-0.248763	0.552393	0.184226
H493	H	-0.351489	0.552594	0.184005
H494	H	-0.248751	0.370868	0.365728
O495	O	-0.206357	0.338045	0.392899
H496	H	-0.195926	0.368453	0.363986
H497	H	-0.318917	0.230335	0.500977
O498	O	-0.139231	0.992426	-0.303830
H499	H	-0.157569	0.957982	-0.295473
O500	O	-0.296376	0.442787	-0.029022
H501	H	-0.286366	0.472326	-0.029159
O502	O	-0.228719	1.097911	-0.393751
H503	H	-0.237837	1.118909	-0.412481
