data_functionalizedCrystal
_audit_creation_method	'MofGen! by Chris Wilmer'
_symmetry_space_group_name_H-M	'P1'
_symmetry_Int_Tables_number	1
_symmetry_cell_setting	triclinic
loop_
_symmetry_equiv_pos_as_xyz
  x,y,z
_cell_length_a	15.297475
_cell_length_b	16.625546
_cell_length_c	15.297908
_cell_angle_alpha	80.349111
_cell_angle_beta	107.359593
_cell_angle_gamma	80.324704
loop_
_atom_site_label
_atom_site_type_symbol
_atom_site_fract_x
_atom_site_fract_y
_atom_site_fract_z
Zn1	Zn	1.512672	-0.674634	0.771375
Zn2	Zn	2.012672	-0.174634	1.271375
Zn3	Zn	1.485662	-0.781238	0.615850
Zn4	Zn	1.985662	-0.281238	1.115850
Zn5	Zn	1.330260	-0.618201	0.589025
Zn6	Zn	1.830260	-0.118201	1.089025
Zn7	Zn	1.357112	-0.781166	0.744449
Zn8	Zn	1.857112	-0.281166	1.244449
O9	O	1.421426	-0.713810	0.680175
O10	O	1.921426	-0.213810	1.180175
O11	O	1.639228	-0.712423	0.773239
O12	O	2.139228	-0.212423	1.273239
O13	O	1.442506	-0.736023	0.482158
O14	O	1.942506	-0.236023	0.982158
O15	O	1.354524	-0.512871	0.613257
O16	O	1.854524	-0.012871	1.113257
O17	O	1.619383	-0.790744	0.658975
O18	O	2.119383	-0.290744	1.158975
O19	O	1.488541	-0.554332	0.747229
O20	O	1.988541	-0.054332	1.247229
O21	O	1.328333	-0.616241	0.462450
O22	O	1.828333	-0.116241	0.962450
O23	O	1.203683	-0.616171	0.587148
O24	O	1.703683	-0.116171	1.087148
O25	O	1.400289	-0.790622	0.878155
O26	O	1.900289	-0.290622	1.378155
O27	O	1.223411	-0.735901	0.701337
O28	O	1.723411	-0.235901	1.201337
O29	O	1.514578	-0.712353	0.897937
O30	O	2.014578	-0.212353	1.397937
O31	O	1.468543	-0.894044	0.632867
O32	O	1.968543	-0.394044	1.132867
O33	O	1.374097	-0.893991	0.727348
O34	O	1.874097	-0.393991	1.227348
C35	C	1.179803	-0.669905	0.638411
C36	C	1.679803	-0.169905	1.138411
C37	C	1.076440	-0.651146	0.620566
C38	C	1.576440	-0.151146	1.120566
C39	C	0.826199	-0.847890	0.807718
C40	C	1.326199	-0.347890	1.307718
C41	C	0.923313	-0.865520	0.824481
C42	C	1.423313	-0.365520	1.324481
C43	C	0.961600	-0.811928	0.773504
C44	C	1.461600	-0.311928	1.273504
C45	C	0.902762	-0.740703	0.705760
C46	C	1.402762	-0.240703	1.205760
C47	C	0.805637	-0.723074	0.688990
C48	C	1.305637	-0.223074	1.188990
C49	C	0.941038	-0.687112	0.654776
C50	C	1.441038	-0.187112	1.154776
C51	C	0.882200	-0.615887	0.587032
C52	C	1.382200	-0.115887	1.087032
C53	C	0.785085	-0.598261	0.570265
C54	C	1.285085	-0.098261	1.070265
C55	C	0.746798	-0.651853	0.621242
C56	C	1.246798	-0.151853	1.121242
C57	C	1.038163	-0.704741	0.671546
C58	C	1.538163	-0.204741	1.171546
C59	C	1.017601	-0.579925	0.552818
C60	C	1.517601	-0.079925	1.052818
C61	C	0.920487	-0.562295	0.536055
C62	C	1.420487	-0.062295	1.036055
C63	C	1.421332	-0.923277	0.680121
C64	C	1.921332	-0.423277	1.180121
C65	C	1.421381	-1.012910	0.680144
C66	C	1.921381	-0.512910	1.180144
C67	C	1.421560	-1.341132	0.680268
C68	C	1.921560	-0.841132	1.180268
C69	C	1.421508	-1.249811	0.680236
C70	C	1.921508	-0.749811	1.180236
C71	C	1.421470	-1.177024	0.680205
C72	C	1.921470	-0.677024	1.180205
C73	C	1.421419	-1.085697	0.680174
C74	C	1.921419	-0.585697	1.180174
C75	C	1.663993	-0.757886	0.722103
C76	C	2.163993	-0.257886	1.222103
C77	C	1.767360	-0.776669	0.739970
C78	C	2.267360	-0.276669	1.239970
C79	C	1.463442	-0.757774	0.922731
C80	C	1.963442	-0.257774	1.422731
C81	C	1.481346	-0.776510	1.026095
C82	C	1.981346	-0.276510	1.526095
C83	C	1.421550	-0.503532	0.680254
C84	C	1.921550	-0.003532	1.180254
C85	C	1.421603	-0.413924	0.680288
C86	C	1.921603	0.086076	1.180288
C87	C	1.379628	-0.669967	0.438572
C88	C	1.879628	-0.169967	0.938572
C89	C	1.361904	-0.651038	0.335240
C90	C	1.861904	-0.151038	0.835240
C91	C	1.294049	-0.579868	1.276424
C92	C	1.794049	-0.079868	1.776424
C93	C	1.277228	-0.562258	1.179309
C94	C	1.777228	-0.062258	1.679309
C95	C	1.328256	-0.615819	1.141001
C96	C	1.828256	-0.115819	1.641001
C97	C	1.396108	-0.686994	1.199816
C98	C	1.896108	-0.186994	1.699816
C99	C	1.412935	-0.704602	1.296941
C100	C	1.912935	-0.204602	1.796941
C101	C	1.447142	-0.740554	1.161518
C102	C	1.947142	-0.240554	1.661518
C103	C	1.514994	-0.811728	1.220334
C104	C	2.014994	-0.311728	1.720334
C105	C	1.531818	-0.829334	1.317449
C106	C	2.031818	-0.329334	1.817449
C107	C	1.480790	-0.775772	1.355758
C108	C	1.980790	-0.275772	1.855758
C109	C	1.430315	-0.722945	1.064393
C110	C	1.930315	-0.222945	1.564393
C111	C	1.549201	-0.847680	1.084911
C112	C	2.049201	-0.347680	1.584911
C113	C	1.566021	-0.865290	1.182025
C114	C	2.066021	-0.365290	1.682025
H115	H	0.795015	-0.891521	0.849210
H116	H	1.295015	-0.391521	1.349210
H117	H	1.621268	-0.923240	1.229927
H118	H	2.121268	-0.423240	1.729927
F119	F	1.205020	-0.486511	1.116721
F120	F	1.705020	0.013489	1.616721
F121	F	1.358104	-0.647198	1.001808
F122	F	1.858104	-0.147198	1.501808
H123	H	1.314556	-0.601477	1.061925
H124	H	1.814556	-0.101477	1.561925
F125	F	0.722466	-0.522461	0.498158
F126	F	1.222466	-0.022461	0.998158
F127	F	1.603514	-0.904686	1.044146
F128	F	2.103514	-0.404686	1.544146
H129	H	1.086060	-0.762733	0.726705
H130	H	1.586060	-0.262733	1.226705
H131	H	1.040676	-0.826287	0.787158
H132	H	1.540676	-0.326287	1.287158
F133	F	0.857856	-0.486493	0.463958
F134	F	1.357856	0.013507	0.963958
H135	H	0.971212	-0.923514	0.879637
H136	H	1.471212	-0.423514	1.379637
F137	F	0.643438	-0.633089	0.603409
F138	F	1.143438	-0.133089	1.103409
H139	H	1.048773	-0.536287	0.511307
H140	H	1.548773	-0.036287	1.011307
F141	F	1.239757	-0.522868	1.317202
F142	F	1.739757	-0.022868	1.817202
F143	F	1.498678	-0.794519	1.459117
F144	F	1.998678	-0.294519	1.959117
H145	H	1.587074	-0.887284	1.365336
H146	H	2.087074	-0.387284	1.865336
