data_functionalizedCrystal
_audit_creation_method	'MofGen! by Chris Wilmer'
_symmetry_space_group_name_H-M	'P1'
_symmetry_Int_Tables_number	1
_symmetry_cell_setting	triclinic
loop_
_symmetry_equiv_pos_as_xyz
  x,y,z
_cell_length_a	12.759401
_cell_length_b	12.594516
_cell_length_c	12.594509
_cell_angle_alpha	90.024652
_cell_angle_beta	90.018119
_cell_angle_gamma	90.016214
loop_
_atom_site_label
_atom_site_type_symbol
_atom_site_fract_x
_atom_site_fract_y
_atom_site_fract_z
Zn1	Zn	1.606242	-0.423722	0.601776
Zn2	Zn	2.106242	0.076278	1.101776
Zn3	Zn	1.606133	-0.601727	0.423803
Zn4	Zn	2.106133	-0.101727	0.923803
Zn5	Zn	1.430545	-0.423764	0.423815
Zn6	Zn	1.930545	0.076236	0.923815
Zn7	Zn	1.430528	-0.601659	0.601744
Zn8	Zn	1.930528	-0.101659	1.101744
O9	O	1.518362	-0.512718	0.512785
O10	O	2.018362	-0.012718	1.012785
O11	O	1.753248	-0.447346	0.578175
O12	O	2.253248	0.052654	1.078175
O13	O	1.582802	-0.578166	0.274859
O14	O	2.082802	-0.078166	0.774859
O15	O	1.453904	-0.274812	0.447440
O16	O	1.953904	0.225188	0.947440
O17	O	1.753168	-0.578125	0.447420
O18	O	2.253168	-0.078125	0.947420
O19	O	1.582987	-0.274782	0.578187
O20	O	2.082987	0.225218	1.078187
O21	O	1.453798	-0.447417	0.274868
O22	O	1.953798	0.052583	0.774868
O23	O	1.283521	-0.447351	0.447410
O24	O	1.783521	0.052649	0.947410
O25	O	1.453875	-0.578009	0.750694
O26	O	1.953875	-0.078009	1.250694
O27	O	1.283509	-0.578050	0.578134
O28	O	1.783509	-0.078050	1.078134
O29	O	1.582971	-0.447280	0.750717
O30	O	2.082971	0.052720	1.250717
O31	O	1.582786	-0.750664	0.447390
O32	O	2.082786	-0.250664	0.947390
O33	O	1.453770	-0.750614	0.578122
O34	O	1.953770	-0.250614	1.078122
C35	C	1.245394	-0.512698	0.512770
C36	C	1.745394	-0.012698	1.012770
C37	C	1.128618	-0.512716	0.512789
C38	C	1.628618	-0.012716	1.012789
C39	C	1.073777	-0.580880	0.580744
C40	C	1.573777	-0.080880	1.080744
C41	C	0.964053	-0.580893	0.580756
C42	C	1.464053	-0.080893	1.080756
C43	C	0.964020	-0.444576	0.444848
C44	C	1.464020	0.055424	0.944848
C45	C	1.073742	-0.444558	0.444843
C46	C	1.573742	0.055442	0.944843
C47	C	1.128652	-0.649038	0.648691
C48	C	1.628652	-0.149038	1.148691
C49	C	1.073811	-0.717208	0.716651
C50	C	1.573811	-0.217208	1.216651
C51	C	0.964087	-0.717221	0.716663
C52	C	1.464087	-0.217221	1.216663
C53	C	0.909204	-0.649064	0.648714
C54	C	1.409204	-0.149064	1.148714
C55	C	1.518293	-0.789259	0.512774
C56	C	2.018293	-0.289259	1.012774
C57	C	1.518360	-0.907564	0.512805
C58	C	2.018360	-0.407564	1.012805
C59	C	1.448181	-0.976829	0.583861
C60	C	1.948181	-0.476829	1.083861
C61	C	1.422582	-1.047692	0.486739
C62	C	1.922582	-0.547692	0.986739
C63	C	1.544054	-1.047500	0.609944
C64	C	2.044054	-0.547500	1.109944
C65	C	1.492710	-0.976869	0.415632
C66	C	1.992710	-0.476869	0.915632
C67	C	1.614227	-0.976671	0.538902
C68	C	2.114227	-0.476671	1.038902
C69	C	1.588664	-1.047502	0.441714
C70	C	2.088664	-0.547502	0.941714
C71	C	1.792395	-0.512738	0.512800
C72	C	2.292395	-0.012738	1.012800
C73	C	1.909172	-0.512747	0.512806
C74	C	2.409172	-0.012747	1.012806
C75	C	1.518434	-0.512632	0.790406
C76	C	2.018434	-0.012632	1.290406
C77	C	1.518464	-0.512596	0.908711
C78	C	2.018464	-0.012596	1.408711
C79	C	1.518460	-0.235097	0.512818
C80	C	2.018460	0.264903	1.012818
C81	C	1.518501	-0.116792	0.512833
C82	C	2.018501	0.383208	1.012833
C83	C	1.518351	-0.512726	0.236244
C84	C	2.018351	-0.012726	0.736244
C85	C	1.518524	-0.512463	0.117939
C86	C	2.018524	-0.012463	0.617939
C87	C	1.448293	-0.583611	1.048716
C88	C	1.948293	-0.083611	1.548716
C89	C	1.422606	-0.486546	0.977912
C90	C	1.922606	0.013454	1.477912
C91	C	1.544103	-0.609651	0.977943
C92	C	2.044103	-0.109651	1.477943
C93	C	1.492788	-0.415346	1.048693
C94	C	1.992788	0.084654	1.548693
C95	C	1.614330	-0.538516	1.048731
C96	C	2.114330	-0.038516	1.548731
C97	C	1.588679	-0.441385	0.977959
C98	C	2.088679	0.058615	1.477959
H99	H	0.919326	-0.389086	0.389527
H100	H	1.419326	0.110914	0.889527
H101	H	1.341560	-0.464559	0.946804
H102	H	1.841560	0.035441	1.446804
H103	H	0.919439	-0.772721	0.772006
H104	H	1.419439	-0.272721	1.272006
O105	O	1.369618	-0.663159	1.089862
O106	O	1.869618	-0.163159	1.589862
H107	H	1.370860	-0.662949	1.177983
H108	H	1.870860	-0.162949	1.677983
H109	H	1.648046	-0.381205	0.947089
H110	H	2.148046	0.118795	1.447089
H111	H	1.471035	-0.333187	1.079641
H112	H	1.971035	0.166813	1.579641
H113	H	0.819860	-0.649072	0.648738
H114	H	1.319860	-0.149072	1.148738
O115	O	1.572809	-0.718443	0.936775
O116	O	2.072809	-0.218443	1.436775
H117	H	1.514420	-0.777293	0.965126
H118	H	2.014420	-0.277293	1.465126
O119	O	1.246997	-0.649026	0.648671
O120	O	1.746997	-0.149026	1.148671
H121	H	1.275944	-0.707867	0.707335
H122	H	1.775944	-0.207867	1.207335
O123	O	1.132905	-0.371049	0.371542
O124	O	1.632905	0.128951	0.871542
H125	H	1.076315	-0.323672	0.324281
H126	H	1.576315	0.176328	0.824281
H127	H	1.695353	-0.560532	1.079861
H128	H	2.195353	-0.060532	1.579861
O129	O	1.369437	-0.935701	0.663337
O130	O	1.869437	-0.435701	1.163337
H131	H	1.289977	-0.964146	0.641424
H132	H	1.789977	-0.464146	1.141424
O133	O	1.572775	-1.088595	0.718741
O134	O	2.072775	-0.588595	1.218741
H135	H	1.514336	-1.060289	0.777551
H136	H	2.014336	-0.560289	1.277551
H137	H	1.341575	-1.078911	0.464689
H138	H	1.841575	-0.578911	0.964689
H139	H	1.648073	-1.078338	0.381567
H140	H	2.148073	-0.578338	0.881567
H141	H	1.118504	-0.772692	0.771979
H142	H	1.618504	-0.272692	1.271979
H143	H	1.695215	-0.945456	0.560999
H144	H	2.195215	-0.445456	1.060999
O145	O	1.463867	-0.935957	0.306799
O146	O	1.963867	-0.435957	0.806799
H147	H	1.463991	-0.847832	0.307654
H148	H	1.963991	-0.347832	0.807654
