data_functionalizedCrystal
_audit_creation_method	'MofGen! by Chris Wilmer'
_symmetry_space_group_name_H-M	'P1'
_symmetry_Int_Tables_number	1
_symmetry_cell_setting	triclinic
loop_
_symmetry_equiv_pos_as_xyz
  x,y,z
_cell_length_a	10.654551
_cell_length_b	12.376587
_cell_length_c	10.654550
_cell_angle_alpha	77.428785
_cell_angle_beta	84.485087
_cell_angle_gamma	77.435362
loop_
_atom_site_label
_atom_site_type_symbol
_atom_site_fract_x
_atom_site_fract_y
_atom_site_fract_z
O1	O	1.689501	-0.093987	0.198079
O2	O	1.324024	-0.093992	0.214885
O3	O	1.515165	-0.093986	0.023742
O4	O	1.498360	-0.093994	0.389222
O5	O	1.471819	0.094024	-0.019622
O6	O	1.280678	0.094017	0.171521
O7	O	1.646155	0.094023	0.154715
Zn8	Zn	1.456535	0.123871	0.156233
Zn9	Zn	1.513645	-0.123840	0.213367
O10	O	1.455015	0.094016	0.345858
C11	C	1.255553	0.000012	0.191969
C12	C	1.116110	0.000010	0.188277
N13	N	1.417568	0.292927	0.117240
C14	C	0.895951	0.102495	0.159421
C15	C	1.026971	0.102496	0.162902
C16	C	1.074223	-0.102483	0.210186
C17	C	0.943204	-0.102482	0.206714
C18	C	0.806818	0.204988	0.134032
C19	C	0.848696	0.307481	0.112125
C20	C	0.979716	0.307481	0.115606
C21	C	1.068858	0.204988	0.140993
C22	C	1.643078	0.647924	0.342895
C23	C	1.670340	0.529585	0.370199
C24	C	1.607149	0.470415	0.306961
C25	C	1.516692	0.529595	0.216415
C26	C	1.489420	0.647944	0.189116
C27	C	1.453492	0.470436	0.153182
C28	C	1.363034	0.529615	0.062636
C29	C	1.335768	0.647953	0.035341
C30	C	1.398958	0.707124	0.098578
C31	C	1.480763	0.352086	0.180482
C32	C	1.327106	0.352106	0.026703
C33	C	1.299844	0.470445	-0.000601
C34	C	1.714627	0.000016	0.177631
C35	C	1.854071	0.000010	0.181325
N36	N	1.552616	0.707103	0.252357
C37	C	1.492258	0.000018	-0.044738
C38	C	1.488567	0.000014	-0.184180
C39	C	1.601107	0.000019	-0.263667
C40	C	1.597633	0.000011	-0.394686
C41	C	1.369066	-0.000002	-0.366720
C42	C	1.372544	-0.000002	-0.235702
C43	C	1.717130	0.000035	-0.212145
C44	C	1.829679	0.000042	-0.291633
C45	C	1.826205	0.000034	-0.422652
C46	C	1.710181	0.000019	-0.474183
C47	C	1.477922	0.000010	0.414338
C48	C	1.481614	0.000006	0.553782
H49	H	0.700132	0.204999	0.131193
H50	H	1.013807	0.390936	0.097781
H51	H	1.554412	0.303913	0.254207
H52	H	1.707363	0.000001	-0.580866
H53	H	1.175540	0.204997	0.143840
C54	C	1.262249	0.000005	-0.555151
C55	C	1.241536	-0.000003	-0.423365
H56	H	1.183512	0.000014	-0.590119
H57	H	1.323740	-0.065554	-0.567238
H58	H	1.293523	0.065573	-0.597476
H59	H	1.210271	-0.065576	-0.381039
H60	H	1.180023	0.065562	-0.411269
H61	H	1.719971	0.000045	-0.105465
H62	H	1.146812	-0.185928	0.230854
H63	H	1.262102	0.696134	-0.038378
H64	H	0.909106	-0.185934	0.224554
C65	C	1.936496	0.000066	-0.103212
C66	C	1.957209	0.000055	-0.234995
H67	H	2.015229	0.000080	-0.068253
H68	H	1.905236	-0.065494	-0.060876
H69	H	1.874988	0.065633	-0.091138
H70	H	2.018710	-0.065517	-0.247068
H71	H	1.988487	0.065622	-0.277343
H72	H	1.226191	0.518645	-0.074325
C73	C	1.146265	-0.000008	-0.221210
C74	C	1.248839	-0.000006	-0.148320
H75	H	1.069894	-0.000008	-0.167262
H76	H	1.164778	-0.065565	-0.257771
H77	H	1.134546	0.065562	-0.288019
H78	H	1.260564	-0.065581	-0.081517
H79	H	1.230322	0.065558	-0.111739
C80	C	1.729869	0.300886	0.429785
C81	C	1.637124	0.340335	0.336963
H82	H	1.748384	0.220577	0.448298
H83	H	1.697904	0.327652	0.506120
H84	H	1.806227	0.327663	0.397876
H85	H	1.560762	0.313565	0.368876
H86	H	1.669085	0.313558	0.260613
C87	C	1.819487	0.541461	0.519447
C88	C	1.769774	0.464539	0.469712
H89	H	1.880885	0.501301	0.580877
H90	H	1.751502	0.587621	0.559725
H91	H	1.859810	0.587619	0.451465
H92	H	1.729443	0.418387	0.537692
H93	H	1.837772	0.418360	0.429434
H94	H	1.694512	0.696111	0.394379
H95	H	1.917850	0.000027	-0.487366
C96	C	0.626873	0.398498	0.085782
C97	C	0.750717	0.420137	0.084220
H98	H	0.566390	0.468051	0.068546
H99	H	0.606167	0.356398	0.168028
H100	H	0.624070	0.356386	0.021813
H101	H	0.753522	0.462243	0.148195
H102	H	0.771428	0.462255	0.001962
C103	C	1.443561	0.876638	0.143193
C104	C	1.368987	0.837208	0.068569
H105	H	1.425051	0.956948	0.124672
H106	H	1.532250	0.849860	0.123633
H107	H	1.423937	0.849862	0.231887
H108	H	1.388617	0.863978	-0.020125
H109	H	1.280277	0.863998	0.088120
H110	H	1.275646	0.303930	-0.024787
