data_functionalizedCrystal
_audit_creation_method	'MofGen! by Chris Wilmer'
_symmetry_space_group_name_H-M	'P1'
_symmetry_Int_Tables_number	1
_symmetry_cell_setting	triclinic
loop_
_symmetry_equiv_pos_as_xyz
  x,y,z
_cell_length_a	21.395361
_cell_length_b	10.685727
_cell_length_c	21.395355
_cell_angle_alpha	85.610159
_cell_angle_beta	90.021511
_cell_angle_gamma	94.350214
loop_
_atom_site_label
_atom_site_type_symbol
_atom_site_fract_x
_atom_site_fract_y
_atom_site_fract_z
Zn1	Zn	-0.323078	-1.929090	0.427556
Zn2	Zn	-0.427831	-1.928894	0.322766
Zn3	Zn	-0.315031	-1.718057	0.314773
Zn4	Zn	-0.419772	-1.717995	0.419492
O5	O	-0.371428	-1.823509	0.371147
O6	O	-0.343715	-2.105644	0.420375
O7	O	-0.412872	-1.900870	0.234026
O8	O	-0.228424	-1.746159	0.329765
O9	O	-0.420676	-2.105499	0.343386
O10	O	-0.234337	-1.901204	0.412626
O11	O	-0.329999	-1.745969	0.228154
O12	O	-0.322184	-1.541469	0.321945
O13	O	-0.406941	-1.746054	0.508241
O14	O	-0.399137	-1.541424	0.398881
O15	O	-0.335900	-1.901144	0.514166
O16	O	-0.514436	-1.900809	0.335566
O17	O	-0.508515	-1.745863	0.406630
C18	C	-0.358913	-1.495661	0.358671
C19	C	-0.353574	-1.355407	0.353348
C20	C	-0.534209	-1.823342	0.371106
C21	C	-0.603852	-1.823387	0.371113
C22	C	-0.639630	-1.904139	0.334154
C23	C	-0.705068	-1.904197	0.334170
C24	C	-0.734724	-1.823481	0.371138
C25	C	-0.698938	-1.742724	0.408105
C26	C	-0.633502	-1.742676	0.408093
C27	C	-0.834106	-1.709865	0.371731
C28	C	-0.899541	-1.709910	0.371739
C29	C	-0.936550	-1.823628	0.371181
C30	C	-0.908117	-1.937305	0.370602
C31	C	-0.842681	-1.937258	0.370589
C32	C	-0.805678	-1.823524	0.371156
C33	C	-1.043284	-1.904451	0.334237
C34	C	-1.108723	-1.904512	0.334258
C35	C	-1.102591	-1.743027	0.408189
C36	C	-1.037154	-1.742977	0.408172
C37	C	-1.007504	-1.823688	0.371193
C38	C	-0.208012	-1.823711	0.371203
C39	C	-0.138374	-1.823797	0.371227
C40	C	-0.371419	-1.823614	0.534574
C41	C	-0.371416	-1.823658	0.604217
C42	C	-0.383988	-1.152637	0.383666
C43	C	-0.389329	-1.292892	0.388986
C44	C	-0.371394	-1.823477	0.208358
C45	C	-0.371231	-1.823677	0.138725
C46	C	-0.334423	-1.904411	0.640016
C47	C	-0.334396	-1.904409	0.705452
C48	C	-0.371373	-1.823668	0.735086
C49	C	-0.408368	-1.742900	0.699278
C50	C	-0.408389	-1.742895	0.633844
C51	C	-0.427406	-1.813647	0.838368
C52	C	-0.427387	-1.813661	0.903801
C53	C	-0.371307	-1.823676	0.936907
C54	C	-0.315247	-1.833704	0.904572
C55	C	-0.315268	-1.833699	0.839138
C56	C	-0.371354	-1.823664	0.806038
C57	C	-0.334282	-1.904431	1.043659
C58	C	-0.334254	-1.904420	1.109095
C59	C	-0.408232	-1.742918	1.102921
C60	C	-0.408254	-1.742922	1.037485
C61	C	-0.371281	-1.823685	1.007859
H62	H	-0.734204	-1.969960	0.304074
C63	C	-0.245901	-1.314630	0.321492
C64	C	-0.306735	-1.282808	0.306663
H65	H	-0.216985	-1.269795	0.292671
H66	H	-0.243466	-1.402509	0.319056
H67	H	-0.235992	-1.293146	0.362802
H68	H	-0.316646	-1.304301	0.265354
H69	H	-0.309171	-1.194909	0.309092
C70	C	-0.204401	-1.853517	0.898754
C71	C	-0.253598	-1.844714	0.940953
H72	H	-0.166344	-1.860325	0.921218
H73	H	-0.200805	-1.780379	0.870439
H74	H	-0.212685	-1.925832	0.875996
H75	H	-0.245316	-1.772394	0.963708
H76	H	-0.257193	-1.917859	0.969279
H77	H	-0.604371	-1.676917	0.438190
H78	H	-0.938249	-2.029906	0.370147
C79	C	-0.403748	-1.441344	0.478817
C80	C	-0.436174	-1.365488	0.435674
H81	H	-0.432668	-1.486166	0.507637
H82	H	-0.374558	-1.389976	0.500905
H83	H	-0.382035	-1.499350	0.457166
H84	H	-0.457883	-1.307475	0.457325
H85	H	-0.465375	-1.416860	0.413583
C86	C	-0.716713	-1.681174	0.511834
C87	C	-0.731535	-1.654001	0.448742
H88	H	-0.736840	-1.626406	0.536923
H89	H	-0.672626	-1.669583	0.517113
H90	H	-0.730631	-1.765959	0.524255
H91	H	-0.717612	-1.569219	0.436319
H92	H	-0.775631	-1.665582	0.443460
H93	H	-0.819533	-2.029816	0.370119
C94	C	-0.230545	-1.966021	1.025857
C95	C	-0.293637	-1.993187	1.011083
H96	H	-0.205453	-2.020811	1.005743
H97	H	-0.225237	-1.977586	1.069946
H98	H	-0.218153	-1.881245	1.011892
H99	H	-0.306031	-2.077960	1.025053
H100	H	-0.298948	-1.981633	0.966986
H101	H	-0.438512	-1.677132	0.604696
C102	C	-0.652269	-2.063771	0.261082
C103	C	-0.607041	-1.992872	0.293516
H104	H	-0.632148	-2.118558	0.236000
H105	H	-0.675728	-2.008834	0.235006
H106	H	-0.679599	-2.112018	0.290248
H107	H	-0.579714	-1.944617	0.264350
H108	H	-0.583571	-2.047815	0.319595
H109	H	-1.019142	-1.970174	0.304128
C110	C	-0.261297	-2.064045	0.652697
C111	C	-0.293775	-1.993170	0.607451
H112	H	-0.236199	-2.118833	0.632590
H113	H	-0.290429	-2.112280	0.680056
H114	H	-0.235227	-2.009085	0.676124
H115	H	-0.319848	-2.048131	0.584027
H116	H	-0.264639	-1.944932	0.580081
H117	H	-1.137853	-1.970277	0.304163
C118	C	-1.200173	-1.671399	0.441036
C119	C	-1.135182	-1.654304	0.448828
H120	H	-1.220294	-1.616621	0.466125
H121	H	-1.214082	-1.756172	0.453468
H122	H	-1.210221	-1.652976	0.398231
H123	H	-1.125134	-1.672736	0.491633
H124	H	-1.121268	-1.569512	0.436399
C125	C	-1.037668	-1.583352	0.481241
C126	C	-0.997821	-1.654194	0.448790
H127	H	-1.013384	-1.528535	0.506315
H128	H	-1.065245	-1.638322	0.507327
H129	H	-1.061390	-1.535139	0.452084
H130	H	-0.974102	-1.702415	0.477947
H131	H	-0.970233	-1.599216	0.422702
C132	C	-0.912702	-1.525452	0.426317
C133	C	-0.930790	-1.584959	0.372377
H134	H	-0.931996	-1.448314	0.426712
H135	H	-0.868440	-1.509156	0.426387
H136	H	-0.925414	-1.578525	0.462435
H137	H	-0.918074	-1.531890	0.336259
H138	H	-0.975062	-1.601250	0.372301
H139	H	-0.803979	-1.617254	0.372187
H140	H	-0.304127	-1.970176	1.138242
H141	H	-0.304269	-1.970164	0.734605
C142	C	-0.512107	-1.681303	0.717060
C143	C	-0.449016	-1.654149	0.731847
H144	H	-0.537199	-1.626500	0.737164
H145	H	-0.524505	-1.766064	0.731024
H146	H	-0.517404	-1.669739	0.672965
H147	H	-0.443719	-1.665722	0.775943
H148	H	-0.436614	-1.569367	0.717887
C149	C	-0.441059	-1.671240	1.200482
C150	C	-0.448886	-1.654179	1.135488
H151	H	-0.466163	-1.616460	1.220589
H152	H	-0.398262	-1.652808	1.210503
H153	H	-0.453456	-1.756020	1.214435
H154	H	-0.436485	-1.569400	1.121534
H155	H	-0.491693	-1.672602	1.125462
H156	H	-0.438382	-1.677172	1.008337
C157	C	-0.241495	-1.738100	0.761900
C158	C	-0.253650	-1.844702	0.803594
H159	H	-0.203456	-1.744894	0.739954
H160	H	-0.237881	-1.664976	0.784636
H161	H	-0.274903	-1.732147	0.732826
H162	H	-0.220244	-1.850650	0.832670
H163	H	-0.257260	-1.917846	0.780856
H164	H	-0.473035	-1.805503	0.930123
H165	H	-0.473048	-1.805154	0.811406
