data_functionalizedCrystal
_audit_creation_method	'MofGen! by Chris Wilmer'
_symmetry_space_group_name_H-M	'P1'
_symmetry_Int_Tables_number	1
_symmetry_cell_setting	triclinic
loop_
_symmetry_equiv_pos_as_xyz
  x,y,z
_cell_length_a	15.072220
_cell_length_b	15.995350
_cell_length_c	15.995292
_cell_angle_alpha	96.519505
_cell_angle_beta	90.002061
_cell_angle_gamma	90.008851
loop_
_atom_site_label
_atom_site_type_symbol
_atom_site_fract_x
_atom_site_fract_y
_atom_site_fract_z
O1	O	-0.073701	-1.110973	0.107924
O2	O	-0.073718	-0.867195	0.121252
O3	O	-0.073711	-0.995774	-0.007303
O4	O	-0.073709	-0.982395	0.236479
O5	O	0.073855	-0.995742	-0.007296
O6	O	0.073847	-0.867164	0.121259
O7	O	0.073864	-1.110942	0.107931
Zn8	Zn	0.097285	-0.989048	0.114596
Zn9	Zn	-0.097139	-0.989089	0.114587
O10	O	0.073856	-0.982363	0.236486
C11	C	0.000062	-0.835985	0.120704
C12	C	0.000055	-0.743035	0.119053
N13	N	0.229973	-0.989025	0.114602
N14	N	-0.229828	-0.989118	0.114574
C15	C	0.589175	-0.989088	0.114584
C16	C	0.551564	-0.920057	0.183140
C17	C	0.448738	-0.920215	0.183390
C18	C	0.410971	-0.989056	0.114593
C19	C	0.448269	-1.076417	0.133675
C20	C	0.551127	-1.076030	0.134162
C21	C	0.551273	-0.971537	0.026742
C22	C	0.448409	-0.969532	0.027328
C23	C	0.310257	-0.989043	0.114596
C24	C	0.689888	-0.989106	0.114582
C25	C	0.000070	-0.995213	-0.038495
C26	C	0.000063	-0.993581	-0.131448
C27	C	0.000082	-1.142152	0.108479
C28	C	0.000083	-1.235102	0.110130
C29	C	0.000073	-0.405288	0.113120
C30	C	0.000402	-0.452742	0.021566
C31	C	0.000063	-0.549431	0.023218
C32	C	0.000065	-0.572848	0.116063
C33	C	-0.084198	-0.531770	0.161216
C34	C	-0.084263	-0.435135	0.158916
C35	C	0.083546	-0.434759	0.160816
C36	C	0.084654	-0.531705	0.160795
C37	C	0.000057	-0.667546	0.117731
C38	C	0.000075	-0.310591	0.111455
C39	C	0.000071	-0.987580	-0.469186
C40	C	0.000407	-1.080384	-0.445874
C41	C	0.000071	-1.082148	-0.349199
C42	C	0.000067	-0.990557	-0.301631
C43	C	-0.084200	-0.944178	-0.330736
C44	C	-0.084268	-0.943061	-0.427526
C45	C	0.083541	-0.941129	-0.427375
C46	C	0.084652	-0.944568	-0.330883
C47	C	0.000062	-0.992235	-0.206934
C48	C	0.000069	-0.985899	-0.563882
C49	C	0.000074	-0.982924	0.267678
C50	C	0.000075	-0.984556	0.360631
H51	H	0.423522	-0.855278	0.172021
H52	H	0.423803	-1.129011	0.085070
C53	C	0.585016	-0.832047	0.168047
H54	H	0.622225	-0.836610	0.119804
H55	H	0.535817	-0.796962	0.159296
H56	H	0.617666	-0.808278	0.215730
H57	H	0.084117	-0.402984	0.228319
H58	H	0.089745	-0.547054	0.228500
H59	H	0.575594	-1.021878	-0.024276
H60	H	0.575110	-1.091499	0.198225
H61	H	-0.059681	-1.115969	-0.474895
C62	C	-0.081672	-1.131533	-0.324332
H63	H	-0.114809	-1.150588	-0.373343
H64	H	-0.062885	-1.178515	-0.297502
H65	H	-0.117768	-1.095953	-0.286818
C66	C	-0.168921	-0.570120	0.118848
H67	H	-0.219560	-0.544857	0.146624
H68	H	-0.169681	-0.560164	0.061424
H69	H	-0.169794	-0.629004	0.122370
H70	H	0.060476	-1.118472	-0.330170
C71	C	-0.080775	-0.426299	-0.027656
H72	H	-0.114868	-0.386468	0.007348
H73	H	-0.061397	-0.401762	-0.075853
H74	H	-0.116152	-0.474357	-0.044814
H75	H	0.577404	-0.931108	0.247959
H76	H	0.060466	-0.577855	-0.012275
H77	H	0.089738	-0.877715	-0.297913
H78	H	0.060839	-1.116142	-0.473868
H79	H	-0.060446	-0.577310	-0.012521
C80	C	0.584740	-1.147501	0.069274
H81	H	0.535531	-1.176648	0.042738
H82	H	0.619768	-1.124487	0.028128
H83	H	0.619646	-1.185471	0.096933
C84	C	0.169829	-0.407010	0.120389
H85	H	0.155749	-0.377190	0.074037
H86	H	0.202729	-0.371523	0.160794
H87	H	0.204232	-0.455204	0.101374
C88	C	0.415482	-0.935357	0.271447
H89	H	0.464836	-0.941444	0.307204
H90	H	0.380501	-0.888854	0.294197
H91	H	0.380604	-0.985133	0.267268
C92	C	0.413469	-1.097815	0.219232
H93	H	0.376221	-1.053629	0.243433
H94	H	0.380597	-1.148776	0.211341
H95	H	0.462129	-1.104223	0.255715
H96	H	-0.146908	-0.976411	-0.310678
H97	H	0.577259	-0.909218	0.008392
H98	H	0.147416	-0.970342	-0.455461
H99	H	0.424032	-0.905268	0.012846
H100	H	0.422704	-1.016546	-0.026079
H101	H	0.146991	-0.559015	0.127833
C102	C	0.082032	-0.427709	-0.027872
H103	H	0.116643	-0.388088	0.006876
H104	H	0.116727	-0.476288	-0.044705
H105	H	0.063083	-0.403285	-0.076282
H106	H	-0.147256	-0.975207	-0.454346
H107	H	-0.087336	-0.876780	-0.298868
C108	C	-0.169350	-0.410425	0.114420
H109	H	-0.203549	-0.459425	0.097913
H110	H	-0.203038	-0.372450	0.151827
H111	H	-0.153951	-0.384171	0.066053
C112	C	-0.089451	-0.391548	0.249715
H113	H	-0.091516	-0.432924	0.287843
H114	H	-0.038641	-0.357019	0.261276
H115	H	-0.141419	-0.357822	0.256045
H116	H	-0.088088	-0.875016	-0.442077
H117	H	-0.087331	-0.545881	0.229427
H118	H	0.146992	-0.978340	-0.312314
H119	H	0.084106	-0.872818	-0.441366
