data_functionalizedCrystal
_audit_creation_method	'MofGen! by Chris Wilmer'
_symmetry_space_group_name_H-M	'P1'
_symmetry_Int_Tables_number	1
_symmetry_cell_setting	triclinic
loop_
_symmetry_equiv_pos_as_xyz
  x,y,z
_cell_length_a	14.044220
_cell_length_b	16.992694
_cell_length_c	15.455313
_cell_angle_alpha	92.857794
_cell_angle_beta	92.908275
_cell_angle_gamma	88.071450
loop_
_atom_site_label
_atom_site_type_symbol
_atom_site_fract_x
_atom_site_fract_y
_atom_site_fract_z
O1	O	0.198159	-1.057683	-0.072025
O2	O	0.698159	-0.557683	0.427975
O3	O	0.195941	-0.829244	-0.072050
O4	O	0.695941	-0.329244	0.427950
O5	O	0.058806	-0.940034	-0.072029
O6	O	0.558806	-0.440034	0.427971
O7	O	0.335294	-0.946893	-0.072046
O8	O	0.835294	-0.446893	0.427954
O9	O	0.066614	-0.933696	0.072232
O10	O	0.566614	-0.433696	0.572232
O11	O	0.203749	-0.822906	0.072211
O12	O	0.703749	-0.322906	0.572211
O13	O	0.205967	-1.051345	0.072236
O14	O	0.705967	-0.551345	0.572236
Cu15	Cu	0.205571	-0.936547	0.085396
Cu16	Cu	0.705571	-0.436547	0.585396
Cu17	Cu	0.196337	-0.944042	-0.085210
Cu18	Cu	0.696337	-0.444042	0.414790
O19	O	0.343102	-0.940555	0.072215
O20	O	0.843102	-0.440555	0.572215
C21	C	0.027168	-0.933863	0.000101
C22	C	0.527168	-0.433863	0.500101
C23	C	-0.078736	-0.924909	0.000101
C24	C	0.421264	-0.424909	0.500101
C25	C	0.196993	-0.796663	0.000077
C26	C	0.696993	-0.296663	0.500077
C27	C	0.188484	-0.709024	0.000068
C28	C	0.688484	-0.209024	0.500068
C29	C	0.204915	-1.083926	0.000107
C30	C	0.704915	-0.583926	0.500107
C31	C	0.213424	-1.171565	0.000111
C32	C	0.713424	-0.671565	0.500111
C33	C	-0.272638	-0.908540	0.000087
C34	C	0.227362	-0.408540	0.500087
C35	C	-0.325460	-0.972046	0.000092
C36	C	0.174540	-0.472046	0.500092
C37	C	-0.433354	-0.962938	0.000084
C38	C	0.066646	-0.462938	0.500084
C39	C	-0.164734	-0.917647	0.000095
C40	C	0.335266	-0.417647	0.500095
C41	C	0.374740	-0.946726	0.000083
C42	C	0.874740	-0.446726	0.500083
C43	C	0.480644	-0.955680	0.000077
C44	C	0.980644	-0.455680	0.500077
N45	N	0.212065	-0.931281	0.205390
N46	N	0.712065	-0.431281	0.705390
C47	C	0.270581	-0.664526	0.000063
C48	C	0.770581	-0.164526	0.500063
C49	C	0.262581	-0.582179	0.000076
C50	C	0.762581	-0.082179	0.500076
C51	C	0.172483	-0.544332	0.000086
C52	C	0.672483	-0.044332	0.500086
C53	C	0.090381	-0.588836	0.000093
C54	C	0.590381	-0.088836	0.500093
C55	C	0.098382	-0.671181	0.000087
C56	C	0.598382	-0.171181	0.500087
C57	C	0.139322	-0.298414	0.000112
C58	C	0.639322	0.201586	0.500112
C59	C	0.131327	-0.216063	0.000115
C60	C	0.631327	0.283937	0.500115
C61	C	0.303528	-0.209411	0.000100
C62	C	0.803528	0.290589	0.500100
C63	C	0.311521	-0.291759	0.000088
C64	C	0.811521	0.208241	0.500088
C65	C	0.229419	-0.336255	0.000099
C66	C	0.729419	0.163745	0.500099
N67	N	0.164304	-0.460161	0.000096
N68	N	0.664304	0.039839	0.500096
N69	N	0.237599	-0.420425	0.000096
N70	N	0.737599	0.079575	0.500096
N71	N	0.189836	-0.949314	-0.205204
N72	N	0.689836	-0.449314	0.294796
C73	C	0.153829	-0.978368	0.250793
C74	C	0.653829	-0.478368	0.750793
C75	C	0.158750	-0.974393	0.341600
C76	C	0.658750	-0.474393	0.841600
C77	C	0.221911	-0.923335	0.387003
C78	C	0.721911	-0.423335	0.887003
C79	C	0.280149	-0.876243	0.341594
C80	C	0.780149	-0.376243	0.841594
C81	C	0.275223	-0.880214	0.250788
C82	C	0.775223	-0.380214	0.750788
C83	C	0.243148	-0.906193	0.658581
C84	C	0.743148	-0.406193	1.158581
C85	C	0.248072	-0.902227	0.749393
C86	C	0.748072	-0.402227	1.249393
C87	C	0.126671	-1.000377	0.749394
C88	C	0.626671	-0.500377	1.249394
C89	C	0.121754	-1.004347	0.658586
C90	C	0.621754	-0.504347	1.158586
C91	C	0.179989	-0.957251	0.613185
C92	C	0.679989	-0.457251	1.113185
N93	N	0.226945	-0.919273	0.479822
N94	N	0.726945	-0.419273	0.979822
N95	N	0.174950	-0.961310	0.520367
N96	N	0.674950	-0.461310	1.020367
H97	H	-0.289655	-1.033258	0.000040
H98	H	0.210345	-0.533258	0.500040
H99	H	0.299509	-0.860647	0.786355
H100	H	0.799509	-0.360647	1.286355
H101	H	-0.308444	-0.847335	0.000078
H102	H	0.191556	-0.347335	0.500078
H103	H	0.343947	-0.695334	0.000054
H104	H	0.843947	-0.195334	0.500054
H105	H	0.329433	-0.545952	0.000072
H106	H	0.829433	-0.045952	0.500072
H107	H	0.070323	-1.045922	0.621622
H108	H	0.570323	-0.545922	1.121622
H109	H	0.017022	-0.558015	0.000114
H110	H	0.517022	-0.058015	0.500114
H111	H	0.290567	-0.867847	0.621622
H112	H	0.790567	-0.367847	1.121622
H113	H	0.384887	-0.322568	0.000070
H114	H	0.884887	0.177432	0.500070
H115	H	0.102401	-1.019948	0.213833
H116	H	0.602401	-0.519948	0.713833
H117	H	0.031530	-0.707411	0.000090
H118	H	0.531530	-0.207411	0.500090
H119	H	0.370371	-0.173174	0.000092
H120	H	0.870371	0.326826	0.500092
H121	H	0.072468	-0.334634	0.000121
H122	H	0.572468	0.165366	0.500121
H123	H	0.057956	-0.185251	0.000123
H124	H	0.557956	0.314749	0.500123
H125	H	0.111329	-1.012735	0.378567
H126	H	0.611329	-0.512735	0.878567
H127	H	0.079258	-1.038719	0.786368
H128	H	0.579258	-0.538719	1.286368
H129	H	0.331573	-0.834666	0.378565
H130	H	0.831573	-0.334666	0.878565
H131	H	0.322643	-0.841869	0.213822
H132	H	0.822643	-0.341869	0.713822
