data_functionalizedCrystal
_audit_creation_method	'MofGen! by Chris Wilmer'
_symmetry_space_group_name_H-M	'P1'
_symmetry_Int_Tables_number	1
_symmetry_cell_setting	triclinic
loop_
_symmetry_equiv_pos_as_xyz
  x,y,z
_cell_length_a	6.817900
_cell_length_b	27.923497
_cell_length_c	27.924317
_cell_angle_alpha	97.608920
_cell_angle_beta	98.979858
_cell_angle_gamma	98.964248
loop_
_atom_site_label
_atom_site_type_symbol
_atom_site_fract_x
_atom_site_fract_y
_atom_site_fract_z
V1	V	-3.954534	-0.067878	-0.151603
V2	V	-3.454534	0.432122	0.348397
O3	O	-3.966270	0.002491	-0.148388
O4	O	-3.466270	0.502491	0.351612
O5	O	-3.884571	-0.133850	-0.150882
O6	O	-3.384571	0.366150	0.349118
O7	O	-3.884657	-0.067172	-0.217578
O8	O	-3.384657	0.432828	0.282422
O9	O	-3.966183	-0.064648	-0.081231
O10	O	-3.466183	0.435352	0.418769
V11	V	-4.443739	-0.059421	-0.143147
V12	V	-3.943739	0.440579	0.356853
O13	O	-4.203329	-0.086429	-0.170150
O14	O	-3.703329	0.413571	0.329850
O15	O	-4.645141	-0.040870	-0.124599
O16	O	-4.145141	0.459130	0.375401
O17	O	-4.290495	0.006550	-0.143868
O18	O	-3.790495	0.506550	0.356132
O19	O	-4.549400	-0.129790	-0.146362
O20	O	-4.049400	0.370210	0.353638
O21	O	-4.549487	-0.062652	-0.213519
O22	O	-4.049487	0.437348	0.286481
O23	O	-4.290409	-0.060127	-0.077172
O24	O	-3.790409	0.439873	0.422828
C25	C	-3.725021	-0.149922	-0.148572
C26	C	-3.225021	0.350078	0.351428
C27	C	-3.748962	-0.203856	-0.148423
C28	C	-3.248962	0.296144	0.351577
C29	C	-3.725131	-0.064867	-0.233648
C30	C	-3.225131	0.435133	0.266352
C31	C	-3.749140	-0.064727	-0.287585
C32	C	-3.249140	0.435273	0.212415
C33	C	-3.943262	-0.108045	-0.679873
C34	C	-3.443262	0.391955	-0.179873
C35	C	-3.853308	-0.108650	-0.477173
C36	C	-3.353308	0.391350	0.022827
O37	O	-3.861343	-0.146543	-0.457043
O38	O	-3.361343	0.353457	0.042957
N39	N	-3.818842	-0.064259	-0.444676
N40	N	-3.318842	0.435741	0.055324
C41	C	-3.806851	-0.019713	-0.462858
C42	C	-3.306851	0.480287	0.037142
O43	O	-3.775451	0.018031	-0.430566
O44	O	-3.275451	0.518031	0.069434
C45	C	-3.896791	-0.019108	-0.665557
C46	C	-3.396791	0.480892	-0.165557
C47	C	-3.931278	-0.063503	-0.698052
C48	C	-3.431278	0.436497	-0.198052
C49	C	-3.977745	-0.152436	-0.712367
C50	C	-3.477745	0.347564	-0.212367
C51	C	-4.000243	-0.152284	-0.763039
C52	C	-3.500243	0.347716	-0.263039
C53	C	-3.988258	-0.107742	-0.781218
C54	C	-3.488258	0.392258	-0.281218
C55	C	-3.953776	-0.063351	-0.748724
C56	C	-3.453776	0.436649	-0.248724
C57	C	-3.884786	0.025437	-0.683738
C58	C	-3.384786	0.525437	-0.183738
C59	C	-3.907269	0.025584	-0.734416
C60	C	-3.407269	0.525584	-0.234416
C61	C	-3.941756	-0.018810	-0.766911
C62	C	-3.441756	0.481190	-0.266911
C63	C	-3.964289	-0.018657	-0.817575
C64	C	-3.464289	0.481343	-0.317575
N65	N	-3.998755	-0.063049	-0.850071
N66	N	-3.498755	0.436951	-0.350071
C67	C	-4.010740	-0.107591	-0.831892
C68	C	-3.510740	0.392409	-0.331892
C69	C	-3.759637	-0.020033	-0.356438
C70	C	-3.259637	0.479967	0.143562
C71	C	-3.737155	-0.020184	-0.305763
C72	C	-3.237155	0.479816	0.194237
C73	C	-3.783610	-0.109122	-0.320082
C74	C	-3.283610	0.390878	0.179918
C75	C	-3.806106	-0.108970	-0.370758
C76	C	-3.306106	0.391030	0.129242
C77	C	-3.794103	-0.064425	-0.388934
C78	C	-3.294103	0.435575	0.111066
C79	C	-4.057987	-0.107269	-0.938307
C80	C	-3.557987	0.392731	-0.438307
C81	C	-4.080493	-0.107114	-0.988983
C82	C	-3.580493	0.392886	-0.488983
C83	C	-4.034026	-0.018177	-0.974661
C84	C	-3.534026	0.481823	-0.474661
C85	C	-4.011532	-0.018332	-0.923989
C86	C	-3.511532	0.481668	-0.423989
C87	C	-4.023508	-0.062882	-0.905814
C88	C	-3.523508	0.437118	-0.405814
O89	O	-3.956256	0.019216	-0.837738
O90	O	-3.456256	0.519216	-0.337738
O91	O	-4.042097	-0.145329	-0.864191
O92	O	-3.542097	0.354671	-0.364191
C93	C	-3.920765	-0.108197	-0.629201
C94	C	-3.420765	0.391803	-0.129201
C95	C	-3.886282	-0.063806	-0.596707
C96	C	-3.386282	0.436194	-0.096707
C97	C	-3.874297	-0.019263	-0.614886
C98	C	-3.374297	0.480737	-0.114886
C99	C	-3.863800	-0.063957	-0.546033
C100	C	-3.363800	0.436043	-0.046033
C101	C	-3.875785	-0.108499	-0.527854
C102	C	-3.375785	0.391501	-0.027854
C103	C	-3.910251	-0.152890	-0.560351
C104	C	-3.410251	0.347110	-0.060351
C105	C	-3.932749	-0.152739	-0.611023
C106	C	-3.432749	0.347261	-0.111023
C107	C	-3.839831	0.025128	-0.582390
C108	C	-3.339831	0.525128	-0.082390
C109	C	-3.817337	0.024973	-0.531718
C110	C	-3.317337	0.524973	-0.031718
C111	C	-3.829322	-0.019570	-0.513539
C112	C	-3.329322	0.480430	-0.013539
C113	C	-3.874335	-0.531154	-0.102977
C114	C	-3.374335	-0.031154	0.397023
C115	C	-3.964389	-0.733858	-0.102390
C116	C	-3.464389	-0.233858	0.397610
O117	O	-3.956336	-0.753991	-0.064498
O118	O	-3.456336	-0.253991	0.435502
N119	N	-3.998904	-0.766352	-0.146784
N120	N	-3.498904	-0.266352	0.353216
C121	C	-4.010919	-0.748167	-0.191328
C122	C	-3.510919	-0.248167	0.308672
O123	O	-4.042362	-0.780457	-0.229075
O124	O	-3.542362	-0.280457	0.270925
C125	C	-3.920879	-0.545464	-0.191915
C126	C	-3.420879	-0.045464	0.308085
C127	C	-3.886344	-0.512972	-0.147518
C128	C	-3.386344	-0.012972	0.352482
C129	C	-3.839804	-0.498662	-0.058584
C130	C	-3.339804	0.001338	0.441416
C131	C	-3.817282	-0.447989	-0.058731
C132	C	-3.317282	0.052011	0.441269
C133	C	-3.829290	-0.429807	-0.103272
C134	C	-3.329290	0.070193	0.396728
C135	C	-3.863821	-0.462299	-0.147665
C136	C	-3.363821	0.037701	0.352335
C137	C	-3.932908	-0.527280	-0.236459
C138	C	-3.432908	-0.027280	0.263541
C139	C	-3.910400	-0.476601	-0.236602
C140	C	-3.410400	0.023399	0.263398
C141	C	-3.875865	-0.444109	-0.192205
C142	C	-3.375865	0.055891	0.307795
C143	C	-3.853307	-0.393444	-0.192353
C144	C	-3.353307	0.106556	0.307647
N145	N	-3.818792	-0.360950	-0.147959
N146	N	-3.318792	0.139050	0.352041
C147	C	-3.806784	-0.379132	-0.103419
C148	C	-3.306784	0.120868	0.396581
C149	C	-4.058185	-0.854589	-0.191016
C150	C	-3.558185	-0.354589	0.308984
C151	C	-4.080691	-0.905265	-0.190870
C152	C	-3.580691	-0.405265	0.309130
C153	C	-4.034164	-0.890952	-0.101931
C154	C	-3.534164	-0.390952	0.398069
C155	C	-4.011643	-0.840275	-0.102078
C156	C	-3.511643	-0.340275	0.397922
C157	C	-4.023670	-0.822095	-0.146622
C158	C	-3.523670	-0.322095	0.353378
C159	C	-3.759484	-0.272715	-0.103731
C160	C	-3.259484	0.227285	0.396269
C161	C	-3.736954	-0.222038	-0.103882
C162	C	-3.236954	0.277962	0.396118
C163	C	-3.783493	-0.236355	-0.192820
C164	C	-3.283493	0.263645	0.307180
C165	C	-3.806012	-0.287028	-0.192669
C166	C	-3.306012	0.212972	0.307331
C167	C	-3.794011	-0.305206	-0.148121
C168	C	-3.294011	0.194794	0.351879
O169	O	-3.861358	-0.373277	-0.230225
O170	O	-3.361358	0.126723	0.269775
O171	O	-3.775383	-0.346835	-0.065678
O172	O	-3.275383	0.153165	0.434322
C173	C	-3.896858	-0.581827	-0.102830
C174	C	-3.396858	-0.081827	0.397170
C175	C	-3.931389	-0.614318	-0.147224
C176	C	-3.431389	-0.114318	0.352776
C177	C	-3.943398	-0.596136	-0.191764
C178	C	-3.443398	-0.096136	0.308236
C179	C	-3.953896	-0.664994	-0.147077
C180	C	-3.453896	-0.164994	0.352923
C181	C	-3.941887	-0.683176	-0.102536
C182	C	-3.441887	-0.183176	0.397464
C183	C	-3.907373	-0.650682	-0.058142
C184	C	-3.407373	-0.150682	0.441858
C185	C	-3.884850	-0.600009	-0.058289
C186	C	-3.384850	-0.100009	0.441711
C187	C	-3.977912	-0.628630	-0.236158
C188	C	-3.477912	-0.128630	0.263842
C189	C	-4.000431	-0.679303	-0.236007
C190	C	-3.500431	-0.179303	0.263993
C191	C	-3.988423	-0.697485	-0.191467
C192	C	-3.488423	-0.197485	0.308533
C193	C	-4.113387	0.022619	-0.146176
C194	C	-3.613387	0.522619	0.353824
C195	C	-4.068683	0.076554	-0.146329
C196	C	-3.568683	0.576554	0.353671
C197	C	-4.113278	-0.062434	-0.061099
C198	C	-3.613278	0.437566	0.438901
C199	C	-4.068508	-0.062572	-0.007162
C200	C	-3.568508	0.437428	0.492838
H201	H	-4.108578	-0.143267	-1.015439
H202	H	-3.608578	0.356733	-0.515439
F203	F	-4.021275	0.029226	-0.994017
F204	F	-3.521275	0.529226	-0.494017
F205	F	-3.700192	-0.187460	-0.056626
F206	F	-3.200192	0.312540	0.443374
H207	H	-4.028318	-0.188435	-0.789492
H208	H	-3.528318	0.311565	-0.289492
F209	F	-3.923211	-0.457256	-0.284014
F210	F	-3.423211	0.042744	0.215986
H211	H	-3.830059	0.061400	-0.597184
H212	H	-3.330059	0.561400	-0.097184
H213	H	-3.789272	0.061126	-0.505264
H214	H	-3.289272	0.561126	-0.005264
F215	F	-3.827024	-0.518004	-0.011173
F216	F	-3.327024	-0.018004	0.488827
H217	H	-3.709106	0.015966	-0.279311
H218	H	-3.209106	0.515966	0.220689
H219	H	-3.856730	-0.573558	-0.022137
H220	H	-3.356730	-0.073558	0.477863
F221	F	-4.070735	-0.154685	-0.918972
F222	F	-3.570735	0.345315	-0.418972
H223	H	-3.961029	-0.553727	-0.272612
H224	H	-3.461029	-0.053727	0.227388
F225	F	-3.746707	-0.292054	-0.056318
F226	F	-3.246707	0.207946	0.443682
H227	H	-3.789175	-0.421538	-0.022578
H228	H	-3.289175	0.078462	0.477422
H229	H	-3.983521	-0.813823	-0.065926
H230	H	-3.483521	-0.313823	0.434074
H231	H	-3.987502	-0.188709	-0.697573
H232	H	-3.487502	0.311291	-0.197573
H233	H	-3.749853	0.016243	-0.371232
H234	H	-3.249853	0.516243	0.128768
H235	H	-4.024381	-0.905764	-0.065664
H236	H	-3.524381	-0.405764	0.434336
H237	H	-3.960827	-0.188889	-0.637476
H238	H	-3.460827	0.311111	-0.137476
H239	H	-4.108779	-0.931715	-0.227022
H240	H	-3.608779	-0.431715	0.272978
H241	H	-3.834180	-0.145120	-0.397212
H242	H	-3.334180	0.354880	0.102788
F243	F	-3.842839	-0.321610	-0.239922
F244	F	-3.342839	0.178390	0.260078
H245	H	-3.856708	0.061588	-0.657289
H246	H	-3.356708	0.561588	-0.157289
F247	F	-4.070982	-0.835247	-0.238429
F248	F	-3.570982	-0.335247	0.261571
F249	F	-3.796254	-0.216995	-0.240221
F250	F	-3.296254	0.283005	0.259779
F251	F	-3.894587	-0.670041	-0.010739
F252	F	-3.394587	-0.170041	0.489261
F253	F	-3.796360	-0.156527	-0.300727
F254	F	-3.296360	0.343473	0.199273
H255	H	-3.983476	0.017817	-0.897531
H256	H	-3.483476	0.517817	-0.397531
F257	F	-3.894486	0.072998	-0.753758
F258	F	-3.394486	0.572998	-0.253758
F259	F	-3.923012	-0.200296	-0.540995
F260	F	-3.423012	0.299704	-0.040995
H261	H	-4.028536	-0.705755	-0.272164
H262	H	-3.528536	-0.205755	0.227836
F263	F	-3.990696	-0.609287	-0.283567
F264	F	-3.490696	-0.109287	0.216433
