data_functionalizedCrystal
_audit_creation_method	'MofGen! by Chris Wilmer'
_symmetry_space_group_name_H-M	'P1'
_symmetry_Int_Tables_number	1
_symmetry_cell_setting	triclinic
loop_
_symmetry_equiv_pos_as_xyz
  x,y,z
_cell_length_a	16.120490
_cell_length_b	16.120297
_cell_length_c	16.120484
_cell_angle_alpha	84.385569
_cell_angle_beta	89.835900
_cell_angle_gamma	90.129683
loop_
_atom_site_label
_atom_site_type_symbol
_atom_site_fract_x
_atom_site_fract_y
_atom_site_fract_z
Zn1	Zn	1.224990	-0.554787	0.422331
Zn2	Zn	1.724990	-0.054787	0.922331
Zn3	Zn	1.224886	-0.422092	0.555015
Zn4	Zn	1.724886	0.077908	1.055015
Zn5	Zn	1.093729	-0.408032	0.408239
Zn6	Zn	1.593729	0.091968	0.908239
Zn7	Zn	1.078882	-0.554027	0.554239
Zn8	Zn	1.578882	-0.054027	1.054239
O9	O	1.155622	-0.484735	0.484956
O10	O	1.655622	0.015265	0.984956
O11	O	1.341012	-0.543386	0.446153
O12	O	1.841012	-0.043386	0.946153
O13	O	1.213657	-0.303594	0.529972
O14	O	1.713657	0.196406	1.029972
O15	O	1.117398	-0.421933	0.293478
O16	O	1.617398	0.078067	0.793478
O17	O	1.340936	-0.445896	0.543636
O18	O	1.840936	0.054104	1.043636
O19	O	1.213835	-0.529753	0.303831
O20	O	1.713835	-0.029753	0.803831
O21	O	1.117297	-0.293264	0.422137
O22	O	1.617297	0.206736	0.922137
O23	O	0.975724	-0.421197	0.421385
O24	O	1.475724	0.078803	0.921385
O25	O	1.092094	-0.670761	0.542314
O26	O	1.592094	-0.170761	1.042314
O27	O	0.964816	-0.528459	0.528650
O28	O	1.464816	-0.028459	1.028650
O29	O	1.199439	-0.671319	0.445401
O30	O	1.699439	-0.171319	0.945401
O31	O	1.199261	-0.445159	0.671542
O32	O	1.699261	0.054841	1.171542
O33	O	1.091993	-0.542092	0.670972
O34	O	1.591993	-0.042092	1.170972
C35	C	0.940183	-0.473221	0.473405
C36	C	1.440183	0.026779	0.973405
C37	C	0.848015	-0.468316	0.468484
C38	C	1.348015	0.031684	0.968484
C39	C	0.632820	-0.510179	0.510474
C40	C	1.132820	-0.010179	1.010474
C41	C	0.679267	-0.459359	0.459508
C42	C	1.179267	0.040641	0.959508
C43	C	0.773167	-0.464344	0.464504
C44	C	1.273167	0.035656	0.964504
C45	C	0.538912	-0.505195	0.505479
C46	C	1.038912	-0.005195	1.005479
C47	C	1.144122	-0.702127	0.495343
C48	C	1.644122	-0.202127	0.995343
C49	C	1.139222	-0.794767	0.499770
C50	C	1.639222	-0.294767	0.999770
C51	C	1.130245	-0.964378	0.507831
C52	C	1.630245	-0.464378	1.007831
C53	C	1.181175	-1.005939	0.461840
C54	C	1.681175	-0.505939	0.961840
C55	C	1.176180	-1.100317	0.466326
C56	C	1.676180	-0.600317	0.966326
C57	C	1.135239	-0.869992	0.503346
C58	C	1.635239	-0.369992	1.003346
C59	C	1.371902	-0.496294	0.496553
C60	C	1.871902	0.003706	0.996553
C61	C	1.464068	-0.501220	0.501495
C62	C	1.964068	-0.001220	1.001495
C63	C	1.144026	-0.495088	0.701500
C64	C	1.644026	0.004912	1.201500
C65	C	1.139140	-0.499550	0.794144
C66	C	1.639140	0.000450	1.294144
C67	C	1.167128	-0.268187	0.474552
C68	C	1.667128	0.231813	0.974552
C69	C	1.172201	-0.175545	0.469899
C70	C	1.672201	0.324455	0.969899
C71	C	1.167284	-0.474360	0.267568
C72	C	1.667284	0.025640	0.767568
C73	C	1.172254	-0.469939	0.174931
C74	C	1.672254	0.030061	0.674931
C75	C	1.130223	-0.507712	0.963767
C76	C	1.630223	-0.007712	1.463767
C77	C	1.181169	-0.461779	1.005313
C78	C	1.681169	0.038221	1.505313
C79	C	1.176207	-0.466320	1.099697
C80	C	1.676207	0.033680	1.599697
C81	C	1.135183	-0.503171	0.869375
C82	C	1.635183	-0.003171	1.369375
H83	H	1.228527	-0.970641	0.419097
H84	H	1.728527	-0.470641	0.919097
C85	C	0.638109	-0.396350	0.396438
C86	C	1.138109	0.103650	0.896438
C87	C	0.551806	-0.403830	0.403997
C88	C	1.051806	0.096170	0.903997
C89	C	0.513860	-0.345782	0.345936
C90	C	1.013860	0.154218	0.845936
H91	H	0.654485	-0.406605	0.341727
H92	H	1.154485	0.093395	0.841727
H93	H	0.654526	-0.341638	0.406648
H94	H	1.154526	0.158362	0.906648
H95	H	0.535396	-0.458530	0.393781
H96	H	1.035396	0.041470	0.893781
H97	H	0.535406	-0.393568	0.458696
H98	H	1.035406	0.106432	0.958696
H99	H	0.530277	-0.291070	0.356146
H100	H	1.030277	0.208930	0.856146
H101	H	0.530243	-0.356042	0.291228
H102	H	1.030243	0.143958	0.791228
H103	H	0.455300	-0.350844	0.351062
H104	H	0.955300	0.149156	0.851062
C105	C	0.673979	-0.573090	0.573632
C106	C	1.173979	-0.073090	1.073632
C107	C	0.760281	-0.565561	0.566110
C108	C	1.260281	-0.065561	1.066110
C109	C	0.798234	-0.623490	0.624286
C110	C	1.298234	-0.123490	1.124286
H111	H	0.657629	-0.627841	0.563529
H112	H	1.157629	-0.127841	1.063529
H113	H	0.657541	-0.562730	0.628306
H114	H	1.157541	-0.062730	1.128306
H115	H	0.776712	-0.575927	0.511448
H116	H	1.276712	-0.075927	1.011448
H117	H	0.776654	-0.510823	0.576221
H118	H	1.276654	-0.010823	1.076221
H119	H	0.781796	-0.613130	0.678961
H120	H	1.281796	-0.113130	1.178961
H121	H	0.781878	-0.678236	0.614179
H122	H	1.281878	-0.178236	1.114179
H123	H	0.856793	-0.618384	0.619196
H124	H	1.356793	-0.118384	1.119196
C125	C	1.067066	-0.564771	1.010701
C126	C	1.567066	-0.064771	1.510701
C127	C	1.021045	-0.606274	0.953825
C128	C	1.521045	-0.106274	1.453825
C129	C	0.962865	-0.658849	0.997041
C130	C	1.462865	-0.158849	1.497041
H131	H	1.030825	-0.532617	1.041256
H132	H	1.530825	-0.032617	1.541256
H133	H	1.095066	-0.604449	1.048036
H134	H	1.595066	-0.104449	1.548036
H135	H	0.993047	-0.566602	0.916505
H136	H	1.493047	-0.066602	1.416505
H137	H	1.057264	-0.638444	0.923268
H138	H	1.557264	-0.138444	1.423268
H139	H	0.990864	-0.698526	1.034376
H140	H	1.490864	-0.198526	1.534376
H141	H	0.926629	-0.626688	1.027595
H142	H	1.426629	-0.126688	1.527595
H143	H	0.931638	-0.687020	0.958458
H144	H	1.431638	-0.187020	1.458458
H145	H	1.228511	-0.419042	0.969997
H146	H	1.728511	0.080958	1.469997
H147	H	1.082897	-0.999674	0.550570
H148	H	1.582897	-0.499674	1.050570
