data_functionalizedCrystal
_audit_creation_method	'MofGen! by Chris Wilmer'
_symmetry_space_group_name_H-M	'P1'
_symmetry_Int_Tables_number	1
_symmetry_cell_setting	triclinic
loop_
_symmetry_equiv_pos_as_xyz
  x,y,z
_cell_length_a	18.215407
_cell_length_b	11.169416
_cell_length_c	11.169409
_cell_angle_alpha	90.030816
_cell_angle_beta	89.975944
_cell_angle_gamma	89.989212
loop_
_atom_site_label
_atom_site_type_symbol
_atom_site_fract_x
_atom_site_fract_y
_atom_site_fract_z
Zn1	Zn	1.125177	0.477696	-0.678667
Zn2	Zn	1.125108	0.678437	-0.477989
Zn3	Zn	1.002101	0.477768	-0.477989
Zn4	Zn	1.002107	0.678338	-0.678621
O5	O	1.063623	0.578059	-0.578316
O6	O	1.228152	0.504336	-0.652065
O7	O	1.108759	0.651889	-0.310039
O8	O	1.018453	0.309808	-0.504628
O9	O	1.228101	0.651819	-0.504628
O10	O	1.108877	0.309756	-0.652065
O11	O	1.018386	0.504458	-0.310039
O12	O	0.899117	0.504362	-0.504584
O13	O	1.018464	0.651651	-0.846577
O14	O	0.899122	0.651720	-0.651988
O15	O	1.108883	0.504240	-0.846611
O16	O	1.108765	0.846373	-0.504584
O17	O	1.018397	0.846300	-0.651988
C18	C	0.872417	0.578039	-0.578282
C19	C	0.790618	0.578059	-0.578296
C20	C	1.063682	0.577927	-0.891359
C21	C	1.063707	0.577870	-1.024759
C22	C	1.063594	0.889884	-0.578307
C23	C	1.063649	1.023284	-0.578344
C24	C	0.602446	0.654909	-0.654953
C25	C	0.525587	0.654913	-0.654968
C26	C	0.525552	0.501232	-0.501707
C27	C	0.602410	0.501223	-0.501698
C28	C	0.640854	0.578068	-0.578320
C29	C	0.487138	0.578081	-0.578343
C30	C	0.403805	0.578084	-0.578358
C31	C	0.724193	0.578064	-0.578306
C32	C	1.255576	0.578081	-0.578352
C33	C	1.337375	0.578090	-0.578367
C34	C	1.063672	0.265017	-0.578352
C35	C	1.063693	0.131617	-0.578367
C36	C	1.063607	0.578105	-0.266492
C37	C	1.063724	0.577824	-0.133092
H38	H	0.633745	0.717478	-0.717346
Br39	Br	0.654541	0.396920	-0.397701
H40	H	0.494318	0.717482	-0.717372
H41	H	0.494242	0.438669	-0.439322
