data_functionalizedCrystal
_audit_creation_method	'MofGen! by Chris Wilmer'
_symmetry_space_group_name_H-M	'P1'
_symmetry_Int_Tables_number	1
_symmetry_cell_setting	triclinic
loop_
_symmetry_equiv_pos_as_xyz
  x,y,z
_cell_length_a	29.839131
_cell_length_b	29.839134
_cell_length_c	29.839125
_cell_angle_alpha	90.023632
_cell_angle_beta	89.988394
_cell_angle_gamma	89.963719
loop_
_atom_site_label
_atom_site_type_symbol
_atom_site_fract_x
_atom_site_fract_y
_atom_site_fract_z
Zn1	Zn	-0.179005	-0.686727	-0.254125
Zn2	Zn	0.154328	-0.353394	0.079208
Zn3	Zn	0.487662	-0.020060	0.412542
Zn4	Zn	-0.254109	-0.686657	-0.178995
Zn5	Zn	0.079224	-0.353324	0.154338
Zn6	Zn	0.412558	-0.019990	0.487672
Zn7	Zn	-0.178987	-0.611608	-0.178995
Zn8	Zn	0.154346	-0.278274	0.154339
Zn9	Zn	0.487680	0.055059	0.487672
Zn10	Zn	-0.254102	-0.611557	-0.254083
Zn11	Zn	0.079231	-0.278224	0.079250
Zn12	Zn	0.412565	0.055109	0.412583
O13	O	-0.216551	-0.649137	-0.216549
O14	O	0.116783	-0.315804	0.116784
O15	O	0.450116	0.017529	0.450117
O16	O	-0.188978	-0.749585	-0.244176
O17	O	0.144355	-0.416251	0.089157
O18	O	0.477689	-0.082918	0.422490
O19	O	-0.244139	-0.676693	-0.116128
O20	O	0.089194	-0.343360	0.217206
O21	O	0.422527	-0.010026	0.550539
O22	O	-0.116122	-0.621623	-0.188978
O23	O	0.217211	-0.288289	0.144355
O24	O	0.550544	0.045044	0.477689
O25	O	-0.244157	-0.749533	-0.188979
O26	O	0.089177	-0.416200	0.144355
O27	O	0.422510	-0.082867	0.477688
O28	O	-0.116135	-0.676812	-0.244176
O29	O	0.217198	-0.343479	0.089157
O30	O	0.550531	-0.010146	0.422491
O31	O	-0.188948	-0.621555	-0.116127
O32	O	0.144386	-0.288221	0.217206
O33	O	0.477719	0.045112	0.550539
O34	O	-0.188941	-0.548734	-0.188938
O35	O	0.144393	-0.215400	0.144396
O36	O	0.477726	0.117933	0.477729
O37	O	-0.244145	-0.621537	-0.316956
O38	O	0.089189	-0.288204	0.016377
O39	O	0.422522	0.045130	0.349711
O40	O	-0.244127	-0.548697	-0.244105
O41	O	0.089206	-0.215364	0.089228
O42	O	0.422539	0.117970	0.422562
O43	O	-0.188971	-0.676764	-0.316987
O44	O	0.144362	-0.343431	0.016347
O45	O	0.477695	-0.010097	0.349680
O46	O	-0.316975	-0.676645	-0.188938
O47	O	0.016358	-0.343311	0.144395
O48	O	0.349691	-0.009978	0.477728
O49	O	-0.316970	-0.621469	-0.244105
O50	O	0.016363	-0.288136	0.089228
O51	O	0.349697	0.045197	0.422561
C52	C	-0.216532	-0.532415	-0.216517
C53	C	0.116802	-0.199081	0.116816
C54	C	0.450135	0.134252	0.450150
C55	C	-0.216534	-0.482480	-0.216514
C56	C	0.116799	-0.149147	0.116819
C57	C	0.450132	0.184186	0.450153
C58	C	-0.333273	-0.649056	-0.216527
C59	C	0.000060	-0.315723	0.116806
C60	C	0.333393	0.017611	0.450139
C61	C	-0.383208	-0.649062	-0.216533
C62	C	-0.049874	-0.315729	0.116801
C63	C	0.283459	0.017604	0.450134
C64	C	-0.216559	-0.649153	-0.333728
C65	C	0.116774	-0.315819	-0.000395
C66	C	0.450107	0.017514	0.332939
C67	C	-0.216563	-0.649159	-0.383662
C68	C	0.116771	-0.315826	-0.050329
C69	C	0.450104	0.017507	0.283004
C70	C	-0.692841	-0.677919	-0.187866
C71	C	-0.359508	-0.344586	0.145467
C72	C	-0.026175	-0.011253	0.478801
C73	C	-0.880514	-0.677975	-0.187883
C74	C	-0.547181	-0.344641	0.145450
C75	C	-0.213848	-0.011308	0.478783
O76	O	-0.904771	-0.702445	-0.163493
O77	O	-0.571437	-0.369112	0.169841
O78	O	-0.238104	-0.035779	0.503174
N79	N	-0.903993	-0.649230	-0.216583
N80	N	-0.570659	-0.315897	0.116750
N81	N	-0.237326	0.017436	0.450083
C82	C	-0.880550	-0.620472	-0.245283
C83	C	-0.547217	-0.287139	0.088050
C84	C	-0.213884	0.046194	0.421384
O85	O	-0.904826	-0.596028	-0.269698
O86	O	-0.571493	-0.262695	0.063635
O87	O	-0.238160	0.070639	0.396969
C88	C	-0.692878	-0.620419	-0.245268
C89	C	-0.359545	-0.287086	0.088066
C90	C	-0.026211	0.046247	0.421399
C91	C	-0.669402	-0.649162	-0.216563
C92	C	-0.336069	-0.315829	0.116771
C93	C	-0.002735	0.017504	0.450104
C94	C	-0.669365	-0.706660	-0.159164
C95	C	-0.336032	-0.373327	0.174170
C96	C	-0.002698	-0.039993	0.507503
C97	C	-0.622450	-0.706644	-0.159158
C98	C	-0.289116	-0.373311	0.174176
C99	C	0.044217	-0.039978	0.507509
C100	C	-0.599010	-0.677887	-0.187854
C101	C	-0.265677	-0.344554	0.145479
C102	C	0.067656	-0.011221	0.478812
C103	C	-0.622486	-0.649146	-0.216557
C104	C	-0.289153	-0.315813	0.116777
C105	C	0.044180	0.017520	0.450110
C106	C	-0.669436	-0.591664	-0.273969
C107	C	-0.336103	-0.258331	0.059364
C108	C	-0.002770	0.075003	0.392697
C109	C	-0.622515	-0.591654	-0.273964
C110	C	-0.289182	-0.258321	0.059370
C111	C	0.044151	0.075013	0.392703
C112	C	-0.599039	-0.620397	-0.245259
C113	C	-0.265706	-0.287064	0.088075
C114	C	0.067628	0.046270	0.421408
C115	C	-0.552132	-0.620374	-0.245248
C116	C	-0.218798	-0.287040	0.088086
C117	C	0.114535	0.046293	0.421419
N118	N	-0.528653	-0.649118	-0.216548
N119	N	-0.195320	-0.315785	0.116786
N120	N	0.138014	0.017549	0.450119
C121	C	-0.552092	-0.677875	-0.187851
C122	C	-0.218759	-0.344542	0.145482
C123	C	0.114574	-0.011208	0.478816
C124	C	-0.979081	-0.620501	-0.245289
C125	C	-0.645747	-0.287168	0.088045
C126	C	-0.312414	0.046165	0.421378
C127	C	-1.025999	-0.620514	-0.245292
C128	C	-0.692665	-0.287181	0.088041
C129	C	-0.359332	0.046153	0.421375
C130	C	-1.025959	-0.678017	-0.187893
C131	C	-0.692626	-0.344684	0.145441
C132	C	-0.359293	-0.011350	0.478774
C133	C	-0.979041	-0.678002	-0.187887
C134	C	-0.645707	-0.344669	0.145446
C135	C	-0.312374	-0.011335	0.478779
C136	C	-0.955602	-0.649246	-0.216589
C137	C	-0.622269	-0.315912	0.116745
C138	C	-0.288936	0.017421	0.450078
C139	C	-0.453567	-0.677839	-0.187841
C140	C	-0.120233	-0.344506	0.145493
C141	C	0.213100	-0.011172	0.478826
C142	C	-0.406647	-0.677819	-0.187836
C143	C	-0.073314	-0.344486	0.145497
C144	C	0.260020	-0.011153	0.478831
C145	C	-0.406690	-0.620318	-0.245237
C146	C	-0.073357	-0.286985	0.088097
C147	C	0.259976	0.046349	0.421430
C148	C	-0.453606	-0.620336	-0.245240
C149	C	-0.120273	-0.287003	0.088093
C150	C	0.213061	0.046331	0.421427
C151	C	-0.477043	-0.649100	-0.216540
C152	C	-0.143709	-0.315767	0.116793
C153	C	0.189624	0.017567	0.450126
O154	O	-0.527846	-0.595919	-0.269629
O155	O	-0.194513	-0.262586	0.063704
O156	O	0.138820	0.070747	0.397038
O157	O	-0.527808	-0.702322	-0.163447
O158	O	-0.194475	-0.368989	0.169886
O159	O	0.138859	-0.035656	0.503220
C160	C	-0.739757	-0.677935	-0.187872
C161	C	-0.406423	-0.344602	0.145462
C162	C	-0.073090	-0.011268	0.478795
C163	C	-0.763233	-0.649194	-0.216574
C164	C	-0.429899	-0.315861	0.116759
C165	C	-0.096566	0.017473	0.450093
C166	C	-0.739794	-0.620437	-0.245271
C167	C	-0.406460	-0.287104	0.088063
C168	C	-0.073127	0.046229	0.421396
C169	C	-0.810151	-0.649207	-0.216578
C170	C	-0.476817	-0.315873	0.116756
C171	C	-0.143484	0.017460	0.450089
C172	C	-0.833590	-0.677963	-0.187881
C173	C	-0.500257	-0.344630	0.145452
C174	C	-0.166923	-0.011297	0.478786
C175	C	-0.810111	-0.706708	-0.159181
C176	C	-0.476778	-0.373374	0.174152
C177	C	-0.143445	-0.040041	0.507486
C178	C	-0.763196	-0.706692	-0.159175
C179	C	-0.429863	-0.373359	0.174158
C180	C	-0.096529	-0.040025	0.507492
C181	C	-0.763272	-0.591693	-0.273971
C182	C	-0.429939	-0.258360	0.059363
C183	C	-0.096605	0.074974	0.392696
C184	C	-0.810188	-0.591711	-0.273974
C185	C	-0.476854	-0.258377	0.059360
C186	C	-0.143521	0.074956	0.392693
C187	C	-0.833627	-0.620468	-0.245277
C188	C	-0.500294	-0.287134	0.088056
C189	C	-0.166960	0.046199	0.421389
C190	C	-0.099372	-0.649231	-0.216582
C191	C	0.233961	-0.315898	0.116752
C192	C	0.567294	0.017436	0.450085
C193	C	-0.049438	-0.649271	-0.216595
C194	C	0.283895	-0.315937	0.116738
C195	C	0.617229	0.017396	0.450071
C196	C	-0.216570	-0.766316	-0.216582
C197	C	0.116763	-0.432982	0.116751
C198	C	0.450096	-0.099649	0.450084
C199	C	-0.216578	-0.816250	-0.216596
C200	C	0.116755	-0.482917	0.116737
C201	C	0.450088	-0.149583	0.450070
C202	C	-0.245329	-0.172827	-0.245240
C203	C	0.088004	0.160506	0.088093
C204	C	0.421338	0.493840	0.421427
C205	C	-0.245342	0.014846	-0.245260
C206	C	0.087992	0.348179	0.088073
C207	C	0.421325	0.681513	0.421407
O208	O	-0.269802	0.039119	-0.269665
O209	O	0.063531	0.372452	0.063669
O210	O	0.396864	0.705786	0.397002
N211	N	-0.216567	0.038305	-0.216583
N212	N	0.116766	0.371638	0.116750
N213	N	0.450099	0.704972	0.450083
C214	C	-0.187786	0.014843	-0.187902
C215	C	0.145548	0.348176	0.145432
C216	C	0.478881	0.681509	0.478765
O217	O	-0.163308	0.039102	-0.163514
O218	O	0.170025	0.372436	0.169819
O219	O	0.503358	0.705769	0.503152
C220	C	-0.187771	-0.172830	-0.187884
C221	C	0.145562	0.160504	0.145449
C222	C	0.478896	0.493837	0.478782
C223	C	-0.216550	-0.196286	-0.216560
C224	C	0.116783	0.137047	0.116774
C225	C	0.450116	0.470381	0.450107
C226	C	-0.274106	-0.196284	-0.273913
C227	C	0.059228	0.137050	0.059420
C228	C	0.392561	0.470383	0.392753
C229	C	-0.274104	-0.243199	-0.273906
C230	C	0.059230	0.090134	0.059427
C231	C	0.392563	0.423468	0.392760
C232	C	-0.245325	-0.266658	-0.245226
C233	C	0.088008	0.066675	0.088107
C234	C	0.421341	0.400009	0.421441
C235	C	-0.216549	-0.243201	-0.216553
C236	C	0.116785	0.090132	0.116781
C237	C	0.450118	0.423465	0.450114
C238	C	-0.158988	-0.196291	-0.159205
C239	C	0.174346	0.137042	0.174128
C240	C	0.507679	0.470376	0.507461
C241	C	-0.158986	-0.243212	-0.159204
C242	C	0.174348	0.090121	0.174129
C243	C	0.507681	0.423455	0.507462
C244	C	-0.187765	-0.266668	-0.187880
C245	C	0.145568	0.066665	0.145454
C246	C	0.478902	0.399998	0.478787
C247	C	-0.187769	-0.313576	-0.187865
C248	C	0.145565	0.019757	0.145468
C249	C	0.478898	0.353091	0.478801
N250	N	-0.216543	-0.337035	-0.216542
N251	N	0.116790	-0.003701	0.116791
N252	N	0.450124	0.329632	0.450125
C253	C	-0.245321	-0.313576	-0.245222
C254	C	0.088012	0.019757	0.088111
C255	C	0.421345	0.353091	0.421444
C256	C	-0.187796	0.113373	-0.187912
C257	C	0.145537	0.446707	0.145421
C258	C	0.478871	0.780040	0.478754
C259	C	-0.187800	0.160291	-0.187916
C260	C	0.145533	0.493624	0.145417
C261	C	0.478867	0.826958	0.478751
C262	C	-0.245355	0.160291	-0.245275
C263	C	0.087978	0.493625	0.088058
C264	C	0.421311	0.826958	0.421392
C265	C	-0.245353	0.113372	-0.245269
C266	C	0.087980	0.446706	0.088065
C267	C	0.421313	0.780039	0.421398
C268	C	-0.216570	0.089914	-0.216589
C269	C	0.116763	0.423248	0.116744
C270	C	0.450096	0.756581	0.450078
C271	C	-0.245316	-0.412102	-0.245205
C272	C	0.088018	-0.078768	0.088128
C273	C	0.421351	0.254565	0.421462
C274	C	-0.245313	-0.459021	-0.245194
C275	C	0.088021	-0.125688	0.088139
C276	C	0.421354	0.207645	0.421472
C277	C	-0.187756	-0.459017	-0.187837
C278	C	0.145577	-0.125684	0.145496
C279	C	0.478911	0.207649	0.478830
C280	C	-0.187760	-0.412102	-0.187846
C281	C	0.145573	-0.078768	0.145487
C282	C	0.478906	0.254565	0.478821
C283	C	-0.216542	-0.388645	-0.216534
C284	C	0.116792	-0.055312	0.116800
C285	C	0.450125	0.278022	0.450133
O286	O	-0.163317	-0.337878	-0.163477
O287	O	0.170016	-0.004544	0.169856
O288	O	0.503350	0.328789	0.503190
O289	O	-0.269788	-0.337843	-0.269613
O290	O	0.063545	-0.004510	0.063720
O291	O	0.396879	0.328823	0.397054
C292	C	-0.245331	-0.125912	-0.245247
C293	C	0.088003	0.207422	0.088086
C294	C	0.421336	0.540755	0.421420
C295	C	-0.216554	-0.102455	-0.216574
C296	C	0.116779	0.230878	0.116760
C297	C	0.450113	0.564212	0.450093
C298	C	-0.187775	-0.125914	-0.187893
C299	C	0.145558	0.207419	0.145440
C300	C	0.478891	0.540753	0.478773
C301	C	-0.216558	-0.055537	-0.216577
C302	C	0.116775	0.277796	0.116756
C303	C	0.450109	0.611129	0.450089
C304	C	-0.245336	-0.032078	-0.245258
C305	C	0.087997	0.301255	0.088076
C306	C	0.421330	0.634588	0.421409
C307	C	-0.274111	-0.055537	-0.273934
C308	C	0.059223	0.277796	0.059399
C309	C	0.392556	0.611129	0.392732
C310	C	-0.274109	-0.102453	-0.273927
C311	C	0.059224	0.230881	0.059406
C312	C	0.392558	0.564214	0.392739
C313	C	-0.159001	-0.102455	-0.159217
C314	C	0.174332	0.230878	0.174117
C315	C	0.507665	0.564212	0.507450
C316	C	-0.159006	-0.055540	-0.159226
C317	C	0.174328	0.277794	0.174108
C318	C	0.507661	0.611127	0.507441
C319	C	-0.187784	-0.032081	-0.187906
C320	C	0.145549	0.301253	0.145427
C321	C	0.478883	0.634586	0.478761
C322	C	-0.245189	-0.620434	-0.740234
C323	C	0.088145	-0.287101	-0.406900
C324	C	0.421478	0.046233	-0.073567
C325	C	-0.245240	-0.620418	-0.552561
C326	C	0.088093	-0.287085	-0.219227
C327	C	0.421426	0.046249	0.114106
O328	O	-0.269664	-0.595950	-0.528282
O329	O	0.063670	-0.262617	-0.194949
O330	O	0.397003	0.070716	0.138384
N331	N	-0.216521	-0.649169	-0.529108
N332	N	0.116812	-0.315836	-0.195774
N333	N	0.450145	0.017497	0.137559
C334	C	-0.187785	-0.677925	-0.552576
C335	C	0.145548	-0.344591	-0.219242
C336	C	0.478882	-0.011258	0.114091
O337	O	-0.163356	-0.702376	-0.528321
O338	O	0.169978	-0.369043	-0.194988
O339	O	0.503311	-0.035709	0.138346
C340	C	-0.187731	-0.677938	-0.740248
C341	C	0.145602	-0.344605	-0.406915
C342	C	0.478935	-0.011272	-0.073581
C343	C	-0.216455	-0.649188	-0.763699
C344	C	0.116878	-0.315855	-0.430365
C345	C	0.450211	0.017479	-0.097032
C346	C	-0.273910	-0.591686	-0.763684
C347	C	0.059423	-0.258352	-0.430351
C348	C	0.392757	0.074981	-0.097018
C349	C	-0.273899	-0.591692	-0.810600
C350	C	0.059435	-0.258359	-0.477267
C351	C	0.392768	0.074975	-0.143933
C352	C	-0.245166	-0.620446	-0.834065
C353	C	0.088168	-0.287113	-0.500731
C354	C	0.421501	0.046221	-0.167398
C355	C	-0.216444	-0.649194	-0.810614
C356	C	0.116889	-0.315861	-0.477281
C357	C	0.450223	0.017472	-0.143947
C358	C	-0.158993	-0.706691	-0.763715
C359	C	0.174340	-0.373358	-0.430382
C360	C	0.507674	-0.040025	-0.097048
C361	C	-0.158981	-0.706691	-0.810636
C362	C	0.174352	-0.373358	-0.477303
C363	C	0.507685	-0.040025	-0.143970
C364	C	-0.187706	-0.677941	-0.834087
C365	C	0.145628	-0.344608	-0.500753
C366	C	0.478961	-0.011274	-0.167420
C367	C	-0.187699	-0.677954	-0.880994
C368	C	0.145634	-0.344621	-0.547661
C369	C	0.478967	-0.011288	-0.214328
N370	N	-0.216419	-0.649203	-0.904447
N371	N	0.116915	-0.315870	-0.571114
N372	N	0.450248	0.017464	-0.237781
C373	C	-0.245152	-0.620449	-0.880983
C374	C	0.088182	-0.287115	-0.547649
C375	C	0.421515	0.046218	-0.214316
C376	C	-0.187816	-0.677916	-0.454045
C377	C	0.145518	-0.344583	-0.120712
C378	C	0.478851	-0.011250	0.212622
C379	C	-0.187830	-0.677914	-0.407127
C380	C	0.145504	-0.344580	-0.073794
C381	C	0.478837	-0.011247	0.259540
C382	C	-0.245285	-0.620406	-0.407115
C383	C	0.088049	-0.287073	-0.073782
C384	C	0.421382	0.046261	0.259551
C385	C	-0.245273	-0.620411	-0.454034
C386	C	0.088061	-0.287078	-0.120701
C387	C	0.421394	0.046255	0.212633
C388	C	-0.216535	-0.649165	-0.477498
C389	C	0.116798	-0.315831	-0.144165
C390	C	0.450132	0.017502	0.189169
C391	C	-0.245126	-0.620464	-0.979508
C392	C	0.088208	-0.287131	-0.646175
C393	C	0.421541	0.046203	-0.312842
C394	C	-0.245113	-0.620474	-1.026428
C395	C	0.088221	-0.287141	-0.693095
C396	C	0.421554	0.046193	-0.359761
C397	C	-0.187656	-0.677980	-1.026436
C398	C	0.145677	-0.344646	-0.693102
C399	C	0.479010	-0.011313	-0.359769
C400	C	-0.187671	-0.677972	-0.979520
C401	C	0.145663	-0.344638	-0.646187
C402	C	0.478996	-0.011305	-0.312854
C403	C	-0.216407	-0.649210	-0.956058
C404	C	0.116927	-0.315877	-0.622724
C405	C	0.450260	0.017457	-0.289391
O406	O	-0.163285	-0.702406	-0.905301
O407	O	0.170048	-0.369072	-0.571968
O408	O	0.503381	-0.035739	-0.238635
O409	O	-0.269570	-0.595994	-0.905245
O410	O	0.063763	-0.262661	-0.571912
O411	O	0.397096	0.070673	-0.238578
C412	C	-0.245200	-0.620428	-0.693318
C413	C	0.088133	-0.287095	-0.359985
C414	C	0.421467	0.046239	-0.026652
C415	C	-0.216478	-0.649176	-0.669868
C416	C	0.116855	-0.315843	-0.336534
C417	C	0.450188	0.017491	-0.003201
C418	C	-0.187745	-0.677930	-0.693332
C419	C	0.145588	-0.344597	-0.359999
C420	C	0.478921	-0.011264	-0.026666
C421	C	-0.216492	-0.649173	-0.622950
C422	C	0.116841	-0.315840	-0.289616
C423	C	0.450174	0.017493	0.043717
C424	C	-0.245225	-0.620419	-0.599485
C425	C	0.088108	-0.287086	-0.266152
C426	C	0.421441	0.046248	0.067182
C427	C	-0.273945	-0.591668	-0.622938
C428	C	0.059389	-0.258334	-0.289605
C429	C	0.392722	0.074999	0.043729
C430	C	-0.273933	-0.591674	-0.669853
C431	C	0.059400	-0.258340	-0.336520
C432	C	0.392734	0.074993	-0.003187
C433	C	-0.159026	-0.706682	-0.669879
C434	C	0.174307	-0.373348	-0.336546
C435	C	0.507640	-0.040015	-0.003213
C436	C	-0.159041	-0.706674	-0.622964
C437	C	0.174293	-0.373340	-0.289630
C438	C	0.507626	-0.040007	0.043703
C439	C	-0.187774	-0.677919	-0.599499
C440	C	0.145560	-0.344586	-0.266166
C441	C	0.478893	-0.011253	0.067168
C442	C	-0.216510	-0.649148	-0.099827
C443	C	0.116823	-0.315814	0.233506
C444	C	0.450157	0.017519	0.566840
C445	C	-0.216380	-0.649228	-0.049893
C446	C	0.116954	-0.315895	0.283440
C447	C	0.450287	0.017439	0.616774
H448	H	-0.387534	-0.701225	-0.164459
H449	H	-0.054201	-0.367892	0.168874
H450	H	0.279132	-0.034559	0.502207
H451	H	-0.297288	-0.568279	-0.829689
H452	H	0.036046	-0.234946	-0.496356
H453	H	0.369379	0.098387	-0.163023
F454	F	-0.304506	-0.561074	-0.694806
F455	F	0.028827	-0.227741	-0.361472
F456	F	0.362161	0.105593	-0.028139
H457	H	-0.297308	-0.568268	-0.744584
H458	H	0.036026	-0.234935	-0.411251
H459	H	0.369359	0.098399	-0.077918
H460	H	-0.268662	-0.597000	-0.473124
H461	H	0.064671	-0.263667	-0.139791
H462	H	0.398005	0.069667	0.193542
H463	H	-0.268681	-0.596994	-0.388002
H464	H	0.064653	-0.263660	-0.054669
H465	H	0.397986	0.069673	0.278664
F466	F	-0.954060	-0.708594	-0.157336
F467	F	-0.620727	-0.375261	0.175997
F468	F	-0.287393	-0.041927	0.509331
F469	F	-0.275946	-0.483983	-0.275715
F470	F	0.057387	-0.150650	0.057619
F471	F	0.390721	0.182684	0.390952
F472	F	-0.128374	-0.030581	-0.128702
F473	F	0.204959	0.302753	0.204632
F474	F	0.538293	0.636086	0.537965
F475	F	-0.157175	0.185250	-0.157390
F476	F	0.176159	0.518584	0.175943
F477	F	0.509492	0.851917	0.509276
F478	F	-0.738332	-0.561085	-0.304516
F479	F	-0.404999	-0.227751	0.028818
F480	F	-0.071666	0.105582	0.362151
H481	H	-0.829204	-0.730121	-0.135814
H482	H	-0.495870	-0.396788	0.197519
H483	H	-0.162537	-0.063455	0.530853
H484	H	-0.297541	-0.177188	-0.297271
H485	H	0.035793	0.156145	0.036063
H486	H	0.369126	0.489478	0.369396
F487	F	-0.157263	-0.708519	-0.382174
F488	F	0.176070	-0.375186	-0.048841
F489	F	0.509403	-0.041852	0.284492
H490	H	-0.387599	-0.596903	-0.268600
H491	H	-0.054265	-0.263570	0.064733
H492	H	0.279068	0.069764	0.398067
F493	F	-0.275948	-0.387144	-0.275738
F494	F	0.057385	-0.053811	0.057596
F495	F	0.390719	0.279523	0.390929
H496	H	-0.603434	-0.568238	-0.297337
H497	H	-0.270101	-0.234904	0.035996
H498	H	0.063233	0.098429	0.369330
H499	H	-0.297538	-0.262293	-0.297258
H500	H	0.035795	0.071040	0.036076
H501	H	0.369129	0.404373	0.369409
F502	F	-0.738217	-0.737286	-0.128624
F503	F	-0.404883	-0.403952	0.204709
F504	F	-0.071550	-0.070619	0.538042
H505	H	-0.829298	-0.568301	-0.297349
H506	H	-0.495964	-0.234968	0.035985
H507	H	-0.162631	0.098366	0.369318
F508	F	-0.157236	-0.708531	-0.479011
F509	F	0.176097	-0.375197	-0.145678
F510	F	0.509431	-0.041864	0.187655
H511	H	-0.135553	-0.177201	-0.135854
H512	H	0.197780	0.156133	0.197480
H513	H	0.531113	0.489466	0.530813
F514	F	-0.275983	0.088412	-0.275789
F515	F	0.057350	0.421746	0.057544
F516	F	0.390683	0.755079	0.390878
H517	H	-0.268788	0.179399	-0.268628
H518	H	0.064545	0.512733	0.064706
H519	H	0.397879	0.846066	0.398039
H520	H	-0.164357	0.094278	-0.164556
H521	H	0.168976	0.427611	0.168778
H522	H	0.502310	0.760945	0.502111
F523	F	-1.050913	-0.708621	-0.157350
F524	F	-0.717580	-0.375288	0.175983
F525	F	-0.384246	-0.041955	0.509316
F526	F	-0.157079	-0.708581	-1.051417
F527	F	0.176254	-0.375248	-0.718084
F528	F	0.509587	-0.041915	-0.384750
H529	H	-0.135544	-0.262309	-0.135852
H530	H	0.197790	0.071024	0.197481
H531	H	0.531123	0.404358	0.530815
F532	F	-0.128390	-0.737292	-0.835606
F533	F	0.204943	-0.403958	-0.502272
F534	F	0.538277	-0.070625	-0.168939
H535	H	-0.164284	-0.701385	-0.960426
H536	H	0.169049	-0.368052	-0.627092
H537	H	0.502382	-0.034719	-0.293759
H538	H	-0.135650	-0.730090	-0.603874
H539	H	0.197683	-0.396756	-0.270541
H540	H	0.531016	-0.063423	0.062792
F541	F	-0.157137	-0.387137	-0.157320
F542	F	0.176196	-0.053803	0.176013
F543	F	0.509530	0.279530	0.509346
H544	H	-0.164327	-0.478126	-0.164485
H545	H	0.169007	-0.144793	0.168848
H546	H	0.502340	0.188541	0.502182
F547	F	-0.304741	-0.030562	-0.304456
F548	F	0.028592	0.302771	0.028877
F549	F	0.361926	0.636104	0.362211
F550	F	-0.304526	-0.561067	-0.597957
F551	F	0.028808	-0.227733	-0.264623
F552	F	0.362141	0.105600	0.068710
H553	H	-0.135628	-0.730097	-0.688980
H554	H	0.197706	-0.396764	-0.355646
H555	H	0.531039	-0.063430	-0.022313
F556	F	-0.275710	-0.589853	-0.954544
F557	F	0.057624	-0.256520	-0.621211
F558	F	0.390957	0.076814	-0.287878
H559	H	-0.135603	-0.730103	-0.744630
H560	H	0.197730	-0.396770	-0.411296
H561	H	0.531064	-0.063436	-0.077963
H562	H	-0.472721	-0.596933	-0.268615
H563	H	-0.139388	-0.263599	0.064718
H564	H	0.193946	0.069734	0.398051
H565	H	-0.297544	-0.121547	-0.297278
H566	H	0.035789	0.211786	0.036055
H567	H	0.369123	0.545120	0.369389
H568	H	-0.135566	-0.121551	-0.135861
H569	H	0.197768	0.211783	0.197472
H570	H	0.531101	0.545116	0.530805
H571	H	-0.472643	-0.701263	-0.164472
H572	H	-0.139310	-0.367929	0.168862
H573	H	0.194023	-0.034596	0.502195
H574	H	-0.268505	-0.597062	-1.045519
H575	H	0.064828	-0.263728	-0.712186
H576	H	0.398161	0.069605	-0.378853
H577	H	-0.603338	-0.730050	-0.135785
H578	H	-0.270005	-0.396717	0.197548
H579	H	0.063329	-0.063384	0.530882
H580	H	-0.688444	-0.730080	-0.135795
H581	H	-0.355111	-0.396747	0.197538
H582	H	-0.021778	-0.063413	0.530871
F583	F	-1.050979	-0.589917	-0.275839
F584	F	-0.717645	-0.256583	0.057495
F585	F	-0.384312	0.076750	0.390828
H586	H	-0.960000	-0.597083	-0.268661
H587	H	-0.626667	-0.263750	0.064672
H588	H	-0.293334	0.069583	0.398005
F589	F	-0.694411	-0.561075	-0.304526
F590	F	-0.361078	-0.227742	0.028808
F591	F	-0.027745	0.105592	0.362141
