data_functionalizedCrystal
_audit_creation_method	'MofGen! by Chris Wilmer'
_symmetry_space_group_name_H-M	'P1'
_symmetry_Int_Tables_number	1
_symmetry_cell_setting	triclinic
loop_
_symmetry_equiv_pos_as_xyz
  x,y,z
_cell_length_a	14.519709
_cell_length_b	13.101018
_cell_length_c	14.519709
_cell_angle_alpha	93.364108
_cell_angle_beta	83.680145
_cell_angle_gamma	86.637576
loop_
_atom_site_label
_atom_site_type_symbol
_atom_site_fract_x
_atom_site_fract_y
_atom_site_fract_z
O1	O	-1.228930	0.085070	-0.115822
O2	O	-0.960455	0.085105	-0.130057
O3	O	-1.101810	0.085078	0.011299
O4	O	-1.087575	0.085098	-0.257177
O5	O	-1.091656	-0.085351	0.001148
O6	O	-0.950301	-0.085324	-0.140208
O7	O	-1.218776	-0.085358	-0.125973
Zn8	Zn	-1.082926	-0.112400	-0.134702
Zn9	Zn	-1.096304	0.112147	-0.121328
O10	O	-1.077421	-0.085331	-0.267328
C11	C	-0.921018	-0.000105	-0.134468
C12	C	-0.818638	-0.000092	-0.132479
C13	C	-0.443740	-0.000136	-0.125162
C14	C	-0.548048	-0.000123	-0.127194
C15	C	-0.631186	-0.000113	-0.128821
C16	C	-0.735501	-0.000103	-0.130853
N17	N	-1.073803	-0.265647	-0.143829
C18	C	-1.117843	-0.525565	-0.099772
C19	C	-1.061398	-0.474681	-0.156247
C20	C	-1.068302	-0.358364	-0.149336
C21	C	-1.110940	-0.641893	-0.106682
C22	C	-0.258213	-0.000143	-0.121561
C23	C	-0.360594	-0.000142	-0.123549
C24	C	-1.096070	-0.000137	0.040583
C25	C	-1.094081	-0.000137	0.142964
N26	N	-1.105435	0.265394	-0.112193
C27	C	-1.083161	-0.000114	-0.296612
C28	C	-1.085150	-0.000107	-0.398993
C29	C	-1.086764	-0.000110	0.517861
C30	C	-1.088796	-0.000118	0.413553
C31	C	-1.090422	-0.000124	0.330416
C32	C	-1.092455	-0.000130	0.226101
H33	H	-1.007890	-0.518476	-0.209788
C34	C	-1.190131	-0.466415	-0.027452
H35	H	-1.224639	-0.513634	0.007079
H36	H	-1.231034	-0.424559	-0.058246
H37	H	-1.159311	-0.424562	0.013440
