data_functionalizedCrystal
_audit_creation_method	'MofGen! by Chris Wilmer'
_symmetry_space_group_name_H-M	'P1'
_symmetry_Int_Tables_number	1
_symmetry_cell_setting	triclinic
loop_
_symmetry_equiv_pos_as_xyz
  x,y,z
_cell_length_a	10.489741
_cell_length_b	16.109301
_cell_length_c	15.186229
_cell_angle_alpha	90.000638
_cell_angle_beta	89.996534
_cell_angle_gamma	95.999673
loop_
_atom_site_label
_atom_site_type_symbol
_atom_site_fract_x
_atom_site_fract_y
_atom_site_fract_z
O1	O	0.163947	-1.104141	-0.073172
O2	O	0.663947	-0.604141	0.426828
O3	O	0.184350	-0.862205	-0.073186
O4	O	0.684350	-0.362205	0.426814
O5	O	-0.011529	-0.988678	-0.073174
O6	O	0.488471	-0.488678	0.426826
O7	O	0.359826	-0.977668	-0.073185
O8	O	0.859826	-0.477668	0.426815
O9	O	-0.011532	-0.988670	0.073284
O10	O	0.488468	-0.488670	0.573284
O11	O	0.184347	-0.862196	0.073271
O12	O	0.684347	-0.362196	0.573271
O13	O	0.163944	-1.104133	0.073285
O14	O	0.663944	-0.604133	0.573285
Zn15	Zn	0.174145	-0.983163	0.096531
Zn16	Zn	0.674145	-0.483163	0.596531
Zn17	Zn	0.174149	-0.983174	-0.096433
Zn18	Zn	0.674149	-0.483174	0.403567
O19	O	0.359823	-0.977659	0.073272
O20	O	0.859823	-0.477659	0.573272
C21	C	0.183522	-0.831221	0.000041
C22	C	0.683522	-0.331221	0.500041
C23	C	0.181044	-0.738910	0.000035
C24	C	0.681044	-0.238910	0.500035
C25	C	0.164772	-1.135117	0.000056
C26	C	0.664772	-0.635117	0.500056
C27	C	0.167250	-1.227427	0.000056
C28	C	0.667250	-0.727427	0.500056
C29	C	-0.059050	-0.987842	0.000054
C30	C	0.440950	-0.487842	0.500054
C31	C	-0.200644	-0.985354	0.000053
C32	C	0.299356	-0.485354	0.500053
C33	C	-0.267616	-0.904883	0.000042
C34	C	0.232384	-0.404883	0.500042
C35	C	-0.360292	-0.942893	0.072255
C36	C	0.139708	-0.442893	0.572255
C37	C	-0.360264	-0.942920	-0.072141
C38	C	0.139736	-0.442920	0.427859
C39	C	-0.291454	-1.023397	0.072325
C40	C	0.208546	-0.523397	0.572325
C41	C	-0.291417	-1.023413	-0.072135
C42	C	0.208583	-0.523413	0.427865
C43	C	-0.384066	-1.061482	0.000096
C44	C	0.115934	-0.561482	0.500096
C45	C	0.407344	-0.978495	0.000042
C46	C	0.907344	-0.478495	0.500042
C47	C	0.548938	-0.980983	0.000038
C48	C	1.048938	-0.480983	0.500038
N49	N	0.174142	-0.983162	0.228224
N50	N	0.674142	-0.483162	0.728224
C51	C	0.291514	-0.517319	0.000042
C52	C	0.791514	-0.017319	0.500042
C53	C	0.289175	-0.430584	0.000048
C54	C	0.789175	0.069416	0.500048
C55	C	0.056771	-0.449026	0.000051
C56	C	0.556771	0.050974	0.500051
C57	C	0.059111	-0.535759	0.000052
C58	C	0.559111	-0.035759	0.500052
C59	C	0.176486	-0.569903	0.000043
C60	C	0.676486	-0.069903	0.500043
C61	C	0.171808	-0.396435	0.000048
C62	C	0.671808	0.103565	0.500048
C63	C	0.169272	-0.302393	0.000054
C64	C	0.669272	0.197607	0.500054
C65	C	0.179022	-0.663950	0.000038
C66	C	0.679022	-0.163950	0.500038
N67	N	0.174142	-0.983183	-0.228125
N68	N	0.674142	-0.483183	0.271875
C69	C	0.087436	-1.039183	0.453952
C70	C	0.587436	-0.539183	0.953952
C71	C	0.087433	-1.039186	0.546142
C72	C	0.587433	-0.539186	1.046142
C73	C	0.260852	-0.927155	0.546140
C74	C	0.760852	-0.427155	1.046140
C75	C	0.260848	-0.927149	0.453952
C76	C	0.760848	-0.427149	0.953952
C77	C	0.174141	-0.983168	0.407860
C78	C	0.674141	-0.483168	0.907860
C79	C	0.174142	-0.983176	0.592238
C80	C	0.674142	-0.483176	1.092238
C81	C	0.174140	-0.983179	0.692194
C82	C	0.674140	-0.483179	1.192194
C83	C	0.174142	-0.983165	0.307898
C84	C	0.674142	-0.483165	0.807898
H85	H	-0.217005	-0.838720	0.000110
H86	H	0.282995	-0.338720	0.500110
H87	H	0.382843	-0.387773	0.000049
H88	H	0.882843	0.112227	0.500049
O89	O	-0.006084	-1.099612	0.595847
O90	O	0.493916	-0.599612	1.095847
H91	H	-0.068108	-1.064254	0.637848
H92	H	0.431892	-0.564254	1.137848
O93	O	-0.069823	-0.412200	0.000055
O94	O	0.430177	0.087800	0.500055
H95	H	-0.052128	-0.343055	0.000046
H96	H	0.447872	0.156945	0.500046
H97	H	-0.034565	-0.578575	0.000055
H98	H	0.465435	-0.078575	0.500055
O99	O	-0.250925	-1.068483	-0.152997
O100	O	0.249075	-0.568483	0.347003
H101	H	-0.278158	-1.034956	-0.212858
H102	H	0.221842	-0.534956	0.287142
H103	H	0.016832	-1.084796	0.416427
H104	H	0.516832	-0.584796	0.916427
H105	H	0.331455	-0.881530	0.416421
H106	H	0.831455	-0.381530	0.916421
H107	H	0.331449	-0.881546	0.583677
H108	H	0.831449	-0.381546	1.083677
H109	H	-0.390810	-0.908840	0.133302
H110	H	0.109190	-0.408840	0.633302
O111	O	-0.400658	-0.897816	-0.153011
O112	O	0.099342	-0.397816	0.346989
H113	H	-0.314750	-0.876681	-0.192967
H114	H	0.185250	-0.376681	0.307033
O115	O	-0.251287	-1.068452	0.153291
O116	O	0.248713	-0.568452	0.653291
H117	H	-0.145737	-1.069916	0.152680
H118	H	0.354263	-0.569916	0.652680
H119	H	0.387088	-0.545116	0.000042
H120	H	0.887088	-0.045116	0.500042
H121	H	-0.434450	-1.127704	0.000140
H122	H	0.065550	-0.627704	0.500140
