data_functionalizedCrystal
_audit_creation_method	'MofGen! by Chris Wilmer'
_symmetry_space_group_name_H-M	'P1'
_symmetry_Int_Tables_number	1
_symmetry_cell_setting	triclinic
loop_
_symmetry_equiv_pos_as_xyz
  x,y,z
_cell_length_a	15.995350
_cell_length_b	8.965430
_cell_length_c	15.995350
_cell_angle_alpha	89.998450
_cell_angle_beta	83.492375
_cell_angle_gamma	89.993442
loop_
_atom_site_label
_atom_site_type_symbol
_atom_site_fract_x
_atom_site_fract_y
_atom_site_fract_z
O1	O	1.110977	0.123905	0.107923
O2	O	0.867202	0.123935	0.121250
O3	O	0.995753	0.123918	-0.007301
O4	O	0.982426	0.123923	0.236474
O5	O	0.995759	-0.124161	-0.007297
O6	O	0.867208	-0.124144	0.121254
O7	O	1.110983	-0.124173	0.107927
Cu8	Cu	0.989096	-0.146810	0.114591
Cu9	Cu	0.989089	0.146572	0.114586
O10	O	0.982432	-0.124156	0.236478
C11	C	0.836010	-0.000100	0.120701
C12	C	0.743060	-0.000089	0.119049
N13	N	0.989107	-0.353159	0.114593
C14	C	0.405312	-0.000120	0.113117
C15	C	0.452746	-0.000675	0.021565
C16	C	0.549436	-0.000105	0.023217
C17	C	0.572873	-0.000105	0.116060
C18	C	0.531782	0.141555	0.161214
C19	C	0.435146	0.141663	0.158914
C20	C	0.434814	-0.140449	0.160810
C21	C	0.531760	-0.142311	0.160788
C22	C	0.667570	-0.000092	0.117727
C23	C	0.310614	-0.000123	0.111452
C24	C	1.048577	-0.450433	0.055147
C25	C	0.972915	-0.549828	0.038884
C26	C	1.064740	-0.549891	0.130802
C27	C	0.913407	-0.450366	0.098293
C28	C	1.005281	-0.450420	0.190245
C29	C	0.929565	-0.549770	0.174014
C30	C	1.142175	-0.000135	0.108476
C31	C	1.235125	-0.000136	0.110127
C32	C	0.995205	-0.000118	-0.038494
C33	C	0.993553	-0.000110	-0.131444
N34	N	0.989084	0.352921	0.114577
C35	C	0.987621	-0.000114	-0.469192
C36	C	0.896069	0.000454	-0.421758
C37	C	0.897721	-0.000106	-0.325068
C38	C	0.990564	-0.000111	-0.301631
C39	C	1.035724	-0.141779	-0.342707
C40	C	1.033424	-0.141897	-0.439342
C41	C	1.035308	0.140214	-0.439705
C42	C	1.035287	0.142087	-0.342760
C43	C	0.992231	-0.000114	-0.206934
C44	C	0.985956	-0.000121	-0.563890
C45	C	0.982980	-0.000116	0.267671
C46	C	0.984631	-0.000115	0.360621
H47	H	0.577868	-0.101654	-0.012276
O48	O	0.586339	0.134648	-0.024111
H49	H	0.631860	0.097637	-0.077638
O50	O	1.149473	-0.607801	0.148980
H51	H	1.163325	-0.566277	0.211316
O52	O	1.023456	-0.392523	0.274970
H53	H	0.974703	-0.434061	0.324389
O54	O	0.428217	-0.135238	-0.026915
H55	H	0.381950	-0.203160	0.013718
H56	H	0.862223	0.101448	-0.296647
O57	O	0.847593	0.135019	-0.446318
H58	H	0.827953	0.203124	-0.389527
O59	O	0.862860	-0.607198	0.240592
H60	H	0.875803	-0.565606	0.303205
O61	O	0.995690	0.282446	-0.466960
H62	H	1.030455	0.379729	-0.445436
H63	H	0.402898	0.148092	0.226130
H64	H	0.559079	-0.247111	0.127826
H65	H	0.849421	-0.406833	0.084504
H66	H	0.859642	-0.100565	-0.441350
H67	H	0.433150	0.100354	-0.014863
H68	H	1.100640	-0.148329	-0.471590
H69	H	0.861989	-0.101824	-0.297201
H70	H	0.414281	-0.247824	0.130881
H71	H	0.403053	-0.141407	0.228311
H72	H	1.000498	-0.247793	-0.457642
O73	O	0.552112	-0.153669	0.250470
H74	H	0.592019	-0.057699	0.264628
H75	H	1.103933	-0.147051	-0.328581
O76	O	0.550484	0.148561	0.251566
H77	H	0.619591	0.153541	0.253376
H78	H	1.098820	-0.406814	0.004849
H79	H	0.416835	0.247557	0.125982
O80	O	0.991619	0.280925	-0.306602
H81	H	0.938288	0.248807	-0.259531
O82	O	0.994192	-0.281433	-0.305116
H83	H	0.941394	-0.250300	-0.257191
O84	O	1.124973	0.153423	-0.322423
H85	H	1.139137	0.057450	-0.282510
O86	O	0.569347	0.281216	0.119666
H87	H	0.617270	0.250092	0.066866
H88	H	1.102809	0.141163	-0.471466
O89	O	0.954773	-0.607703	-0.045862
H90	H	1.004232	-0.567937	-0.095096
