data_functionalizedCrystal
_audit_creation_method	'MofGen! by Chris Wilmer'
_symmetry_space_group_name_H-M	'P1'
_symmetry_Int_Tables_number	1
_symmetry_cell_setting	triclinic
loop_
_symmetry_equiv_pos_as_xyz
  x,y,z
_cell_length_a	12.811457
_cell_length_b	11.804783
_cell_length_c	12.837942
_cell_angle_alpha	77.962331
_cell_angle_beta	89.411937
_cell_angle_gamma	71.466052
loop_
_atom_site_label
_atom_site_type_symbol
_atom_site_fract_x
_atom_site_fract_y
_atom_site_fract_z
O1	O	1.417984	-0.054105	0.149936
O2	O	1.106871	-0.020506	0.158754
O3	O	1.255531	-0.036568	0.003274
O4	O	1.269325	-0.038043	0.305417
O5	O	1.298049	-0.239198	0.041704
O6	O	1.149389	-0.223137	0.197185
O7	O	1.460503	-0.256735	0.188367
Cu8	Cu	1.308828	-0.258438	0.196285
Cu9	Cu	1.258545	-0.018804	0.150836
O10	O	1.311843	-0.240673	0.343847
C11	C	1.088032	-0.117491	0.176297
C12	C	0.968553	-0.104588	0.171302
N13	N	1.344202	-0.426984	0.228250
C14	C	0.790395	-0.301275	0.203798
C15	C	0.678135	-0.289157	0.199105
C16	C	0.631770	-0.068237	0.157217
C17	C	0.744030	-0.080355	0.161910
C18	C	0.823340	-0.196877	0.185202
C19	C	0.935602	-0.208993	0.189902
C20	C	0.889235	0.011926	0.148007
C21	C	0.776975	0.024043	0.143314
C22	C	1.138194	-0.778768	0.042092
C23	C	1.111412	-0.651225	0.017904
C24	C	1.169607	-0.595158	0.070489
C25	C	1.254589	-0.666648	0.147266
C26	C	1.281379	-0.794204	0.171451
C27	C	1.312792	-0.610594	0.199847
C28	C	1.397774	-0.682084	0.276624
C29	C	1.424560	-0.809628	0.300806
C30	C	1.366364	-0.865694	0.248221
C31	C	1.286002	-0.483038	0.175662
C32	C	1.429188	-0.498474	0.305021
C33	C	1.455969	-0.626018	0.329209
C34	C	1.479341	-0.159747	0.170823
C35	C	1.598819	-0.172642	0.175817
C36	C	1.272129	-0.137379	-0.016247
C37	C	1.258227	-0.135876	-0.131668
N38	N	1.223179	0.149742	0.118863
C39	C	1.425338	-0.153898	-0.368504
C40	C	1.412281	-0.152486	-0.476953
C41	C	1.219056	-0.131631	-0.457017
C42	C	1.232113	-0.133043	-0.348569
C43	C	1.335257	-0.144179	-0.304316
C44	C	1.348315	-0.145599	-0.195864
C45	C	1.155089	-0.124736	-0.175932
C46	C	1.142033	-0.123324	-0.284380
C47	C	1.295244	-0.139859	0.363368
C48	C	1.309144	-0.141355	0.478787
H49	H	0.854971	-0.396152	0.222777
H50	H	0.651317	-0.374169	0.214253
N51	N	0.924757	0.124542	0.127936
H52	H	0.892947	0.175171	0.182128
H53	H	1.007910	0.099097	0.134420
N54	N	1.140719	-0.457594	0.044415
H55	H	1.207151	-0.434720	0.017185
H56	H	1.078025	-0.420903	-0.012170
N57	N	1.395118	-1.003247	0.273863
H58	H	1.384950	-1.032614	0.351820
H59	H	1.345198	-1.027364	0.228607
H60	H	1.476576	-0.452826	0.347839
N61	N	1.019743	-0.574123	-0.064882
H62	H	1.011602	-0.484815	-0.072223
H63	H	1.037930	-0.597868	-0.135707
N64	N	1.547642	-0.703122	0.412003
H65	H	1.529509	-0.679479	0.482876
H66	H	1.555743	-0.792404	0.419251
H67	H	1.081741	-0.116832	-0.123655
H68	H	1.216809	-0.424843	0.113151
H69	H	1.000175	-0.303872	0.208874
H70	H	1.090827	-0.824430	-0.000720
N71	N	1.516256	-0.886712	0.383582
H72	H	1.498141	-0.863073	0.454459
H73	H	1.524383	-0.976002	0.390837
H74	H	1.432301	-0.154671	-0.159835
N75	N	1.509447	-0.162981	-0.546176
H76	H	1.524101	-0.237976	-0.577372
H77	H	1.492511	-0.087690	-0.605803
N78	N	0.546223	0.057431	0.132073
H79	H	0.470109	0.049260	0.131916
H80	H	0.553572	0.103791	0.187911
H81	H	1.058054	-0.114253	-0.320427
H82	H	1.135078	-0.122552	-0.493070
N83	N	0.691433	0.149715	0.118183
H84	H	0.615316	0.141552	0.118028
H85	H	0.698795	0.196062	0.174028
N86	N	1.536582	-0.165927	-0.320762
H87	H	1.591670	-0.171877	-0.377881
H88	H	1.530450	-0.091851	-0.290441
