data_functionalizedCrystal
_audit_creation_method	'MofGen! by Chris Wilmer'
_symmetry_space_group_name_H-M	'P1'
_symmetry_Int_Tables_number	1
_symmetry_cell_setting	triclinic
loop_
_symmetry_equiv_pos_as_xyz
  x,y,z
_cell_length_a	13.032831
_cell_length_b	18.050589
_cell_length_c	13.033352
_cell_angle_alpha	82.828541
_cell_angle_beta	89.095163
_cell_angle_gamma	82.833186
loop_
_atom_site_label
_atom_site_type_symbol
_atom_site_fract_x
_atom_site_fract_y
_atom_site_fract_z
Zn1	Zn	1.498141	-0.501730	0.780808
Zn2	Zn	1.998141	-0.001730	1.280808
Zn3	Zn	1.519902	-0.612332	0.608834
Zn4	Zn	2.019902	-0.112332	1.108834
Zn5	Zn	1.348060	-0.470657	0.587056
Zn6	Zn	1.848060	0.029343	1.087056
Zn7	Zn	1.326110	-0.608356	0.758954
Zn8	Zn	1.826110	-0.108356	1.258954
O9	O	1.423053	-0.548269	0.683913
O10	O	1.923053	-0.048269	1.183913
O11	O	1.644940	-0.531070	0.776256
O12	O	2.144940	-0.031070	1.276256
O13	O	1.515399	-0.582199	0.462033
O14	O	2.015399	-0.082199	0.962033
O15	O	1.368048	-0.370865	0.612789
O16	O	1.868048	0.129135	1.112789
O17	O	1.660927	-0.612329	0.649907
O18	O	2.160927	-0.112329	1.149907
O19	O	1.478312	-0.393694	0.755138
O20	O	1.978312	0.106306	1.255138
O21	O	1.389148	-0.478111	0.446033
O22	O	1.889148	0.021889	0.946033
O23	O	1.201236	-0.474255	0.591598
O24	O	1.701236	0.025745	1.091598
O25	O	1.330638	-0.605551	0.905765
O26	O	1.830638	-0.105551	1.405765
O27	O	1.185110	-0.575421	0.717891
O28	O	1.685110	-0.075421	1.217891
O29	O	1.457029	-0.527214	0.921821
O30	O	1.957029	-0.027214	1.421821
O31	O	1.494116	-0.715719	0.628716
O32	O	1.994116	-0.215719	1.128716
O33	O	1.351738	-0.712798	0.739009
O34	O	1.851738	-0.212798	1.239009
C35	C	1.155858	-0.521035	0.650010
C36	C	1.655858	-0.021035	1.150010
C37	C	1.041548	-0.509405	0.635531
C38	C	1.541548	-0.009405	1.135531
C39	C	0.982645	-0.554339	0.691470
C40	C	1.482645	-0.054339	1.191470
C41	C	0.864500	-0.542319	0.676506
C42	C	1.364500	-0.042319	1.176506
C43	C	1.422931	-0.741207	0.683880
C44	C	1.922931	-0.241207	1.183880
C45	C	1.422969	-0.823759	0.683912
C46	C	1.922969	-0.323759	1.183912
C47	C	1.345615	-1.021653	0.743874
C48	C	1.845615	-0.521653	1.243874
C49	C	1.332495	-1.061129	0.646856
C50	C	1.832495	-0.561129	1.146856
C51	C	1.423068	-0.974901	0.683939
C52	C	1.923068	-0.474901	1.183939
C53	C	1.436237	-1.082512	0.780973
C54	C	1.936237	-0.582512	1.280973
C55	C	1.423161	-1.120897	0.683972
C56	C	1.923161	-0.620897	1.183972
C57	C	1.409906	-1.013281	0.586865
C58	C	1.909906	-0.513281	1.086865
C59	C	1.513683	-1.034669	0.721051
C60	C	2.013683	-0.534669	1.221051
C61	C	1.500607	-1.074122	0.623973
C62	C	2.000607	-0.574122	1.123973
C63	C	1.423012	-0.890796	0.683920
C64	C	1.923012	-0.390796	1.183920
C65	C	1.423219	-1.205000	0.683980
C66	C	1.923219	-0.705000	1.183980
C67	C	1.691292	-0.575609	0.717948
C68	C	2.191292	-0.075609	1.217948
C69	C	1.805599	-0.587260	0.732452
C70	C	2.305599	-0.087260	1.232452
C71	C	1.388958	-0.569405	0.952151
C72	C	1.888958	-0.069405	1.452151
C73	C	1.374428	-0.578412	1.066458
C74	C	1.874428	-0.078412	1.566458
C75	C	1.423201	-0.354582	0.683972
C76	C	1.923201	0.145418	1.183972
C77	C	1.423264	-0.272044	0.683997
C78	C	1.923264	0.227956	1.183997
C79	C	1.430486	-0.543668	1.125364
C80	C	1.930486	-0.043668	1.625364
C81	C	1.415470	-0.552976	1.243506
C82	C	1.915470	-0.052976	1.743506
C83	C	1.457008	-0.527232	1.416717
C84	C	1.957008	-0.027232	1.916717
C85	C	1.471536	-0.518227	1.302410
C86	C	1.971536	-0.018227	1.802410
H87	H	1.019683	-0.601706	0.750442
H88	H	1.519683	-0.101706	1.250442
N89	N	0.818033	-0.482888	0.602537
N90	N	1.318033	0.017112	1.102537
N91	N	0.722125	-0.473205	0.590491
N92	N	1.222125	0.026795	1.090491
H93	H	0.689305	-0.431231	0.538252
H94	H	1.189305	0.068769	1.038252
N95	N	1.450192	-1.120249	0.883895
N96	N	1.950192	-0.620249	1.383895
N97	N	1.526630	-1.168620	0.905076
N98	N	2.026630	-0.668620	1.405076
H99	H	1.536479	-1.195271	0.977765
H100	H	2.036479	-0.695271	1.477765
N101	N	1.300269	-0.624365	1.112919
N102	N	1.800269	-0.124365	1.612919
N103	N	1.288173	-0.631858	1.208824
N104	N	1.788173	-0.131858	1.708824
H105	H	1.235795	-0.664312	1.241638
H106	H	1.735795	-0.164312	1.741638
N107	N	1.545694	-0.472253	1.255989
N108	N	2.045694	0.027747	1.755989
N109	N	1.537422	-0.403970	1.267069
N110	N	2.037422	0.096030	1.767069
H111	H	1.589795	-0.371500	1.234286
H112	H	2.089795	0.128500	1.734286
N113	N	1.341295	-0.598926	1.289949
N114	N	1.841295	-0.098926	1.789949
N115	N	1.268216	-0.570803	1.341602
N116	N	1.768216	-0.070803	1.841602
H117	H	1.215828	-0.603253	1.374404
H118	H	1.715828	-0.103253	1.874404
N119	N	1.263356	-0.992777	0.807328
N120	N	1.763356	-0.492777	1.307328
N121	N	1.250587	-0.924386	0.818073
N122	N	1.750587	-0.424386	1.318073
H123	H	1.192490	-0.903989	0.862881
H124	H	1.692490	-0.403989	1.362881
N125	N	0.995112	-0.449970	0.561556
N126	N	1.495112	0.050030	1.061556
N127	N	1.006181	-0.383208	0.570042
N128	N	1.506181	0.116792	1.070042
H129	H	0.973389	-0.341229	0.517795
H130	H	1.473389	0.158771	1.017795
N131	N	0.852061	-0.646685	0.806433
N132	N	1.352061	-0.146685	1.306433
N133	N	0.947969	-0.656368	0.818485
N134	N	1.447969	-0.156368	1.318485
H135	H	0.980786	-0.698337	0.870732
H136	H	1.480786	-0.198337	1.370732
H137	H	1.255908	-1.073151	0.615493
H138	H	1.755908	-0.573151	1.115493
H139	H	1.398714	-0.983282	0.504784
H140	H	1.898714	-0.483282	1.004784
H141	H	1.590247	-1.022651	0.752457
H142	H	2.090247	-0.522651	1.252457
N143	N	1.582834	-1.102780	0.560317
N144	N	2.082834	-0.602780	1.060317
N145	N	1.585284	-1.078551	0.466293
N146	N	2.085284	-0.578551	0.966293
H147	H	1.643353	-1.098791	0.421332
H148	H	2.143353	-0.598791	0.921332
H149	H	1.489592	-0.507028	1.088330
H150	H	1.989592	-0.007028	1.588330
