data_functionalizedCrystal
_audit_creation_method	'MofGen! by Chris Wilmer'
_symmetry_space_group_name_H-M	'P1'
_symmetry_Int_Tables_number	1
_symmetry_cell_setting	triclinic
loop_
_symmetry_equiv_pos_as_xyz
  x,y,z
_cell_length_a	20.875621
_cell_length_b	20.875650
_cell_length_c	12.970454
_cell_angle_alpha	57.600720
_cell_angle_beta	87.028566
_cell_angle_gamma	60.680048
loop_
_atom_site_label
_atom_site_type_symbol
_atom_site_fract_x
_atom_site_fract_y
_atom_site_fract_z
Zr1	Zr	0.643906	0.701900	-0.230071
O2	O	0.546433	0.835679	-0.394385
O3	O	0.670354	0.568122	-0.173988
O4	O	0.675303	0.701901	-0.397315
O5	O	0.541485	0.701899	-0.001391
O6	O	0.780863	0.701901	-0.406123
O7	O	0.541484	0.701900	-0.171058
O8	O	0.772010	0.462595	-0.006632
O9	O	0.550338	0.941205	-0.400882
O10	O	0.764559	0.623147	-0.163543
O11	O	0.685781	0.623146	-0.030349
O12	O	0.691608	0.780654	-0.293287
O13	O	0.612831	0.780653	-0.160093
Zr14	Zr	0.812262	0.701900	0.026482
Zr15	Zr	0.812261	0.701901	-0.244118
Zr16	Zr	0.643907	0.701899	0.040529
Zr17	Zr	0.650133	0.870203	-0.240432
Zr18	Zr	0.806035	0.533597	0.036843
O19	O	0.785813	0.835678	-0.029600
O20	O	0.785812	0.835680	-0.414359
O21	O	0.546434	0.835677	-0.009627
O22	O	0.909734	0.568122	0.190796
O23	O	0.909733	0.568123	-0.193962
O24	O	0.670355	0.568121	0.210770
O25	O	0.914683	0.701901	-0.202198
O26	O	0.780864	0.701899	0.193726
O27	O	0.675305	0.701899	0.202534
O28	O	0.914683	0.701901	-0.032530
O29	O	0.684157	0.941206	-0.412047
O30	O	0.772010	0.462594	0.208459
O31	O	0.905830	0.462595	0.197293
O32	O	0.905829	0.462596	-0.017798
O33	O	0.550338	0.941205	-0.185791
O34	O	0.684158	0.941205	-0.196956
O35	O	0.764559	0.623146	0.089699
O36	O	0.843337	0.623147	-0.043495
O37	O	0.770386	0.780654	-0.173240
O38	O	0.691609	0.780653	-0.040046
C39	C	0.720295	0.491379	-0.088834
C40	C	0.717651	0.419930	-0.084435
C41	C	0.698618	0.017461	-0.051731
C42	C	0.701062	0.084639	-0.055941
C43	C	0.743401	0.118230	-0.127580
C44	C	0.783305	0.084633	-0.195004
C45	C	0.780864	0.017452	-0.190787
C46	C	0.755114	0.319151	-0.147642
C47	C	0.757550	0.386339	-0.151857
C48	C	0.675308	0.386339	-0.012792
C49	C	0.672867	0.319160	-0.008587
C50	C	0.712774	0.285566	-0.076005
N51	N	0.745899	0.186899	-0.131887
N52	N	0.710280	0.216893	-0.071690
C53	C	0.517497	0.701899	-0.084223
C54	C	0.446026	0.701899	-0.078260
C55	C	0.412448	0.701902	-0.168932
C56	C	0.345296	0.701897	-0.163322
C57	C	0.311719	0.701896	-0.067045
C58	C	0.345303	0.701890	0.023636
C59	C	0.412457	0.701889	0.018031
C60	C	0.110879	0.701894	-0.040253
C61	C	0.043719	0.701899	-0.034657
C62	C	0.043717	0.701903	-0.221615
C63	C	0.110870	0.701907	-0.227216
C64	C	0.144450	0.701897	-0.136531
N65	N	0.243077	0.701893	-0.061311
N66	N	0.213094	0.701893	-0.142260
C67	C	0.938670	0.701901	-0.119365
C68	C	1.010141	0.701901	-0.125329
C69	C	0.728083	0.701901	-0.440274
C70	C	0.728082	0.701902	-0.555150
C71	C	0.735873	0.912421	-0.114755
C72	C	0.738516	0.983870	-0.119153
C73	C	0.728085	0.701899	0.236685
C74	C	0.728085	0.701899	0.351562
C75	C	0.930881	0.491380	-0.106405
C76	C	0.999709	0.419931	-0.107970
C77	C	0.720296	0.491378	0.249645
C78	C	0.717652	0.419928	0.368921
C79	C	0.930882	0.491379	0.232074
C80	C	0.999710	0.419930	0.345386
C81	C	0.525285	0.912422	-0.435663
C82	C	0.456458	0.983871	-0.548975
C83	C	0.525286	0.912421	-0.097184
C84	C	0.456459	0.983869	-0.095619
C85	C	0.735872	0.912422	-0.453234
C86	C	0.738515	0.983872	-0.572509
C87	C	0.990909	0.386378	-0.171380
C88	C	1.055574	0.319254	-0.172875
C89	C	1.129037	0.285679	-0.110953
C90	C	1.137835	0.319239	-0.047541
C91	C	1.073171	0.386366	-0.046054
C92	C	0.757532	0.386375	0.487609
C93	C	0.755046	0.319250	0.599690
C94	C	0.712684	0.285675	0.593081
C95	C	0.672799	0.319235	0.474381
C96	C	0.675281	0.386364	0.362302
C97	C	1.073160	0.386377	0.329072
C98	C	1.137838	0.319252	0.435529
C99	C	1.129064	0.285677	0.558299
C100	C	1.055606	0.319236	0.574611
C101	C	0.990930	0.386364	0.468155
C102	C	0.383008	1.017432	-0.532661
C103	C	0.318330	1.084577	-0.639120
C104	C	0.327105	1.118156	-0.761890
C105	C	0.400563	1.084592	-0.778202
C106	C	0.465238	1.017452	-0.671745
C107	C	0.465258	1.017429	-0.032221
C108	C	0.400594	1.084572	-0.030756
C109	C	0.327131	1.118149	-0.092682
C110	C	0.318333	1.084586	-0.156089
C111	C	0.382997	1.017449	-0.157560
C112	C	0.780885	1.017425	-0.565859
C113	C	0.783383	1.084551	-0.677921
C114	C	0.743507	1.118126	-0.796632
C115	C	0.701136	1.084566	-0.803279
C116	C	0.698643	1.017437	-0.691219
H117	H	0.642819	0.413699	0.042098
O118	O	0.374398	0.984760	-0.218962
C119	C	0.331508	0.945965	-0.164519
H120	H	0.336377	0.925815	-0.062999
H121	H	0.268790	0.997431	-0.223577
C122	C	0.356826	0.886033	-0.287095
C123	C	0.362811	0.861277	-0.162402
H124	H	0.376132	0.833797	-0.285794
H125	H	0.385719	0.912173	-0.323779
H126	H	0.304559	0.928923	-0.336296
H127	H	0.415078	0.818398	-0.113208
H128	H	0.333927	0.835129	-0.125710
O129	O	0.793870	0.286724	0.714880
C130	C	0.831782	0.330764	0.696666
H131	H	0.840938	0.358420	0.597959
H132	H	0.795408	0.389077	0.705126
C133	C	0.898715	0.228777	0.919911
C134	C	0.909967	0.262737	0.798681
H135	H	0.946942	0.186817	0.982841
H136	H	0.873171	0.199108	0.932184
H137	H	0.868401	0.277378	0.926943
H138	H	0.940272	0.214138	0.791645
H139	H	0.935518	0.292397	0.786409
H140	H	0.274435	1.172825	-0.848563
H141	H	0.407698	1.111940	-0.878174
H142	H	0.664137	0.990125	-0.696651
O143	O	0.536530	0.984918	-0.687825
C144	C	0.530396	1.028973	-0.819017
H145	H	0.471485	1.056645	-0.873264
H146	H	0.538062	1.087274	-0.854867
C147	C	0.665275	0.926972	-0.773991
C148	C	0.592921	0.960952	-0.840617
H149	H	0.703845	0.885016	-0.787316
H150	H	0.669408	0.897293	-0.685604
H151	H	0.671652	0.975564	-0.803873
H152	H	0.586541	0.912362	-0.810723
H153	H	0.588787	0.990622	-0.928999
O154	O	1.047224	0.286485	0.693965
C155	C	1.120065	0.220055	0.784411
H156	H	1.163481	0.190717	0.740410
H157	H	1.138361	0.252168	0.814775
C158	C	1.062945	0.179772	0.955676
C159	C	1.116268	0.143734	0.901636
H160	H	1.060603	0.132696	1.027989
H161	H	1.013870	0.224529	0.894742
H162	H	1.078198	0.206533	0.980968
H163	H	1.101009	0.116985	0.876330
H164	H	1.165341	0.098970	0.962569
O165	O	0.819697	0.984888	-0.450657
C166	C	0.857611	1.028921	-0.468844
H167	H	0.866774	1.056583	-0.567547
H168	H	0.821236	1.087228	-0.460373
C169	C	0.924533	0.926918	-0.245592
C170	C	0.935793	0.960885	-0.366817
H171	H	0.972758	0.884952	-0.182655
H172	H	0.898988	0.897253	-0.233338
H173	H	0.894218	0.975514	-0.238552
H174	H	0.966099	0.912291	-0.373862
H175	H	0.961345	0.990541	-0.379071
O176	O	0.631591	0.286739	0.467744
C177	C	0.596936	0.330723	0.338955
H178	H	0.591296	0.398777	0.277854
H179	H	0.633852	0.286689	0.306662
C180	C	0.523761	0.262735	0.399480
C181	C	0.516828	0.346325	0.324436
H182	H	0.474348	0.272356	0.390523
H183	H	0.547111	0.233099	0.486248
H184	H	0.554527	0.226048	0.372560
H185	H	0.486070	0.383005	0.351367
H186	H	0.493471	0.375967	0.237671
H187	H	1.197657	0.291892	0.002873
O188	O	0.919517	0.419142	-0.231639
C189	C	0.881700	0.513208	-0.326764
H190	H	0.908393	0.541678	-0.302864
H191	H	0.887766	0.526018	-0.422824
C192	C	0.763351	0.525229	-0.362548
C193	C	0.796133	0.560198	-0.333189
H194	H	0.710568	0.554215	-0.366517
H195	H	0.788829	0.461854	-0.298465
H196	H	0.768413	0.535906	-0.442597
H197	H	0.791078	0.549510	-0.253135
H198	H	0.770651	0.623571	-0.397260
H199	H	0.258524	1.111893	-0.625813
O200	O	0.662179	0.117353	0.009393
C201	C	0.583357	0.156115	-0.034857
H202	H	0.569556	0.176230	-0.135608
H203	H	0.568331	0.104641	0.030742
C204	C	0.553149	0.216116	0.088038
C205	C	0.536197	0.240827	-0.035711
H206	H	0.524057	0.268368	0.087516
H207	H	0.606253	0.189998	0.117854
H208	H	0.540627	0.173219	0.142690
H209	H	0.548728	0.283714	-0.090357
H210	H	0.483094	0.266954	-0.065537
H211	H	0.817885	1.111868	-0.672484
H212	H	0.745544	1.172787	-0.887870
H213	H	1.080346	0.413677	0.005589
O214	O	0.409015	1.117283	0.030752
C215	C	0.336194	1.183725	0.018809
H216	H	0.292761	1.213112	-0.068567
H217	H	0.317892	1.151609	0.107604
C218	C	0.393388	1.223898	0.111162
C219	C	0.340044	1.259997	0.003838
H220	H	0.395762	1.270945	0.101933
H221	H	0.442449	1.179133	0.119213
H222	H	0.378130	1.197136	0.185147
H223	H	0.355307	1.286748	-0.070142
H224	H	0.290985	1.304769	-0.004226
H225	H	0.664136	-0.009880	0.006598
H226	H	0.638391	0.291814	0.049751
O227	O	0.824370	0.117389	-0.264578
C228	C	0.817982	0.183875	-0.253823
H229	H	0.763525	0.213228	-0.226660
H230	H	0.869917	0.151814	-0.177178
C231	C	0.881298	0.224110	-0.415665
C232	C	0.814409	0.260167	-0.382314
H233	H	0.879098	0.271168	-0.494921
H234	H	0.885604	0.179314	-0.422908
H235	H	0.924570	0.197392	-0.351784
H236	H	0.771140	0.286873	-0.446186
H237	H	0.810096	0.304968	-0.375084
H238	H	1.181733	0.231017	0.644972
O239	O	0.819603	-0.015306	-0.256164
C240	C	0.808357	-0.081791	-0.237104
H241	H	0.792136	-0.111140	-0.144751
H242	H	0.760322	-0.049728	-0.320343
C243	C	0.902795	-0.122032	-0.342023
C244	C	0.882878	-0.158085	-0.228588
H245	H	0.948761	-0.169092	-0.336775
H246	H	0.910370	-0.077238	-0.354869
H247	H	0.862759	-0.095313	-0.411377
H248	H	0.922909	-0.184792	-0.159238
H249	H	0.875312	-0.202885	-0.215730
O250	O	0.011092	0.701771	0.058919
C251	C	0.008440	0.623646	0.132111
H252	H	0.010436	0.597611	0.073235
H253	H	0.059655	0.568940	0.221137
C254	C	-0.068791	0.679353	0.243642
C255	C	-0.066345	0.647381	0.171327
H256	H	-0.114920	0.693991	0.267839
H257	H	-0.067002	0.731986	0.194336
H258	H	-0.026107	0.633759	0.317823
H259	H	-0.109023	0.692978	0.097141
H260	H	-0.068143	0.594756	0.220622
H261	H	0.525070	0.990096	0.018216
O262	O	0.444981	0.701863	-0.262508
C263	C	0.400931	0.701885	-0.341351
H264	H	0.366287	0.673331	-0.286428
H265	H	0.360275	0.774245	-0.429103
C266	C	0.497083	0.677802	-0.450583
C267	C	0.454537	0.642725	-0.383122
H268	H	0.530148	0.641314	-0.476355
H269	H	0.526759	0.677791	-0.397469
H270	H	0.463195	0.738102	-0.523702
H271	H	0.488425	0.582432	-0.309997
H272	H	0.424868	0.642725	-0.436225
H273	H	0.668671	1.111913	-0.899949
O274	O	1.209206	0.286755	0.419714
C275	C	1.251122	0.303160	0.473729
H276	H	1.209723	0.361986	0.478744
H277	H	1.288647	0.239793	0.573855
C278	C	1.352986	0.254960	0.384545
C279	C	1.302139	0.327217	0.390695
H280	H	1.384458	0.269796	0.333330
H281	H	1.324748	0.243904	0.348158
H282	H	1.384250	0.202161	0.467989
H283	H	1.270870	0.380011	0.307254
H284	H	1.330372	0.338282	0.427066
O285	O	0.312726	0.701740	-0.251244
C286	C	0.310048	0.623634	-0.189253
H287	H	0.355573	0.569034	-0.092922
H288	H	0.250974	0.641291	-0.174442
C289	C	0.269510	0.655278	-0.389987
C290	C	0.325429	0.588215	-0.271676
H291	H	0.278994	0.633431	-0.440831
H292	H	0.271311	0.707902	-0.431753
H293	H	0.220287	0.669986	-0.377628
H294	H	0.374649	0.573516	-0.284036
H295	H	0.323636	0.535587	-0.229914
H296	H	0.792029	0.413687	-0.210200
O297	O	0.919527	0.419075	0.483785
C298	C	0.864313	0.485506	0.363511
H299	H	0.891550	0.514887	0.287951
H300	H	0.842125	0.453380	0.339755
C301	C	0.763728	0.525693	0.459090
C302	C	0.797179	0.561785	0.366289
H303	H	0.722314	0.572744	0.460804
H304	H	0.800925	0.480935	0.540122
H305	H	0.745245	0.498922	0.439283
H306	H	0.815670	0.588545	0.386106
H307	H	0.759983	0.606550	0.285260
H308	H	1.080319	0.413704	0.229115
H309	H	0.375848	0.990096	-0.432704
O310	O	0.636566	0.419072	0.246907
C311	C	0.647852	0.485501	0.149385
H312	H	0.664072	0.514886	0.188342
H313	H	0.695901	0.453373	0.113509
C314	C	0.553439	0.525683	-0.009152
C315	C	0.573355	0.561778	0.038693
H316	H	0.507487	0.572732	-0.077435
H317	H	0.545837	0.480925	0.056549
H318	H	0.593486	0.498910	-0.039039
H319	H	0.533312	0.588540	0.068594
H320	H	0.580948	0.606542	-0.027006
O321	O	0.143451	0.702053	-0.320831
C322	C	0.146143	0.780150	-0.393995
H323	H	0.100613	0.834760	-0.384261
H324	H	0.205216	0.762485	-0.358563
C325	C	0.186709	0.748482	-0.546885
C326	C	0.130784	0.815557	-0.534938
H327	H	0.177238	0.770321	-0.633824
H328	H	0.184898	0.695864	-0.497591
H329	H	0.235931	0.733767	-0.517351
H330	H	0.081564	0.830263	-0.564457
H331	H	0.132585	0.868178	-0.584240
H332	H	0.787606	0.291805	-0.202540
H333	H	0.138214	0.701888	0.033585
O334	O	0.011146	0.701744	-0.309531
C335	C	0.008464	0.623639	-0.247530
H336	H	0.053989	0.569043	-0.151198
H337	H	-0.050610	0.641301	-0.232720
C338	C	-0.032075	0.655272	-0.448255
C339	C	0.023843	0.588212	-0.329943
H340	H	-0.022592	0.633420	-0.499092
H341	H	-0.030271	0.707895	-0.490028
H342	H	-0.081299	0.669984	-0.435896
H343	H	0.073065	0.573510	-0.342303
H344	H	0.022048	0.535586	-0.288174
H345	H	0.317964	0.701884	0.102033
H346	H	0.439797	0.701885	0.091867
H347	H	1.048396	0.291938	-0.224512
H348	H	1.181684	0.231019	-0.112172
H349	H	0.792029	0.413704	0.493014
H350	H	0.710669	0.231015	0.684353
H351	H	0.274485	1.172816	-0.091474
H352	H	0.258511	1.111935	-0.206507
