data_functionalizedCrystal
_audit_creation_method	'MofGen! by Chris Wilmer'
_symmetry_space_group_name_H-M	'P1'
_symmetry_Int_Tables_number	1
_symmetry_cell_setting	triclinic
loop_
_symmetry_equiv_pos_as_xyz
  x,y,z
_cell_length_a	9.065215
_cell_length_b	8.597304
_cell_length_c	8.140239
_cell_angle_alpha	97.703054
_cell_angle_beta	90.000939
_cell_angle_gamma	85.172303
loop_
_atom_site_label
_atom_site_type_symbol
_atom_site_fract_x
_atom_site_fract_y
_atom_site_fract_z
O1	O	1.960826	0.230146	0.169162
O2	O	2.294160	0.563479	0.502495
O3	O	2.627493	0.896812	0.835829
O4	O	1.531576	0.249030	0.171842
O5	O	1.864909	0.582363	0.505175
O6	O	2.198243	0.915697	0.838508
O7	O	1.754649	0.011241	0.138178
O8	O	2.087983	0.344575	0.471511
O9	O	2.421316	0.677908	0.804845
O10	O	1.737753	0.467935	0.202826
O11	O	2.071086	0.801268	0.536159
O12	O	2.404420	1.134601	0.869492
O13	O	1.754642	0.011239	-0.135049
O14	O	2.087975	0.344573	0.198284
O15	O	2.421309	0.677906	0.531617
O16	O	1.531569	0.249028	-0.101386
O17	O	1.864902	0.582362	0.231948
O18	O	2.198235	0.915695	0.565281
O19	O	1.960819	0.230144	-0.104065
O20	O	2.294152	0.563477	0.229268
O21	O	2.627486	0.896811	0.562601
Zn22	Zn	1.746193	0.239586	-0.146106
Zn23	Zn	2.079526	0.572919	0.187227
Zn24	Zn	2.412859	0.906253	0.520561
Zn25	Zn	1.746202	0.239588	0.213883
Zn26	Zn	2.079536	0.572921	0.547216
Zn27	Zn	2.412869	0.906255	0.880549
O28	O	1.737746	0.467933	-0.070402
O29	O	2.071079	0.801266	0.262932
O30	O	2.404412	1.134599	0.596265
C31	C	1.476582	0.247215	0.034972
C32	C	1.809916	0.580549	0.368306
C33	C	2.143249	0.913882	0.701639
C34	C	1.312729	0.241792	0.034207
C35	C	1.646062	0.575125	0.367541
C36	C	1.979396	0.908459	0.700874
C37	C	1.752831	-0.047257	-0.006713
C38	C	2.086164	0.286076	0.326621
C39	C	2.419498	0.619410	0.659954
C40	C	1.747407	-0.221561	-0.031376
C41	C	2.080740	0.111773	0.301957
C42	C	2.414074	0.445106	0.635291
C43	C	2.015813	0.231959	0.032808
C44	C	2.349146	0.565292	0.366141
C45	C	2.682479	0.898625	0.699474
C46	C	2.179666	0.237382	0.033583
C47	C	2.512999	0.570715	0.366917
C48	C	2.846333	0.904049	0.700250
C49	C	1.739564	0.526431	0.074493
C50	C	2.072897	0.859764	0.407826
C51	C	2.406230	1.193098	0.741159
C52	C	1.744988	0.700735	0.099167
C53	C	2.078321	1.034068	0.432500
C54	C	2.411655	1.367401	0.765833
N55	N	1.746197	0.239583	-0.391789
N56	N	2.079530	0.572917	-0.058456
N57	N	2.412864	0.906250	0.274878
N58	N	1.746210	0.239578	0.459564
N59	N	2.079543	0.572912	0.792897
N60	N	2.412876	0.906245	1.126230
H61	H	1.747062	-0.232444	0.229808
H62	H	2.080396	0.100889	0.563141
H63	H	2.413729	0.434223	0.896475
H64	H	1.745311	-0.288387	-0.162025
H65	H	2.078644	0.044946	0.171308
H66	H	2.411978	0.378279	0.504641
