data_functionalizedCrystal
_audit_creation_method	'MofGen! by Chris Wilmer'
_symmetry_space_group_name_H-M	'P1'
_symmetry_Int_Tables_number	1
_symmetry_cell_setting	triclinic
loop_
_symmetry_equiv_pos_as_xyz
  x,y,z
_cell_length_a	17.699083
_cell_length_b	16.176319
_cell_length_c	17.699083
_cell_angle_alpha	89.992304
_cell_angle_beta	83.283015
_cell_angle_gamma	89.998611
loop_
_atom_site_label
_atom_site_type_symbol
_atom_site_fract_x
_atom_site_fract_y
_atom_site_fract_z
O1	O	1.004079	-0.068632	0.095713
O2	O	0.783700	-0.068660	0.108166
O3	O	0.900116	-0.068638	-0.008250
O4	O	0.887663	-0.068654	0.212129
O5	O	0.900100	0.068855	-0.008257
O6	O	0.783684	0.068834	0.108158
O7	O	1.004063	0.068861	0.095706
Cu8	Cu	0.893872	0.081401	0.101931
Cu9	Cu	0.893891	-0.081200	0.101940
O10	O	0.887647	0.068839	0.212121
C11	C	0.755495	0.000084	0.107716
C12	C	0.671477	0.000073	0.106377
N13	N	0.893864	0.195767	0.101925
C14	C	0.899662	0.000109	-0.036451
C15	C	0.898323	0.000109	-0.120469
C16	C	0.622856	0.000069	0.174710
C17	C	0.543913	0.000079	0.173448
C18	C	0.513592	0.000089	0.103852
C19	C	0.562219	0.000096	0.035513
C20	C	0.641161	0.000091	0.036776
C21	C	0.243856	0.000117	0.030418
C22	C	0.164908	0.000120	0.029160
C23	C	0.146608	0.000105	0.167090
C24	C	0.225550	0.000100	0.168353
C25	C	0.274170	0.000112	0.100015
C26	C	0.359769	0.000102	0.101384
C27	C	0.427995	0.000093	0.102481
C28	C	1.032268	0.000116	0.096156
C29	C	1.116286	0.000121	0.097494
N30	N	0.893905	-0.195565	0.101941
C31	C	0.945429	0.239040	0.050397
C32	C	0.945432	0.325588	0.050396
C33	C	0.893875	0.368859	0.101927
C34	C	0.842305	0.325579	0.153457
C35	C	0.842299	0.239034	0.153454
C36	C	0.842331	0.674608	0.153472
C37	C	0.842344	0.761159	0.153473
C38	C	0.945465	0.761161	0.050414
C39	C	0.945458	0.674616	0.050410
C40	C	0.893886	0.631344	0.101937
C41	C	0.893882	0.537499	0.101937
C42	C	0.893883	0.462702	0.101932
C43	C	0.966656	0.000119	-0.169090
C44	C	0.965394	0.000111	-0.248033
C45	C	0.895798	0.000100	-0.278354
C46	C	0.827459	0.000088	-0.229727
C47	C	0.828722	0.000089	-0.150785
C48	C	0.822364	0.000080	-0.548090
C49	C	0.821106	0.000081	-0.627038
C50	C	0.959036	0.000102	-0.645338
C51	C	0.960299	0.000104	-0.566396
C52	C	0.891961	0.000087	-0.517776
C53	C	0.893330	0.000094	-0.432177
C54	C	0.894427	0.000099	-0.363951
C55	C	0.888102	0.000091	0.240322
C56	C	0.889440	0.000085	0.324340
H57	H	0.647537	0.000060	0.231384
H58	H	0.764429	0.000074	-0.651721
F59	F	1.000308	0.192996	-0.004447
F60	F	0.755992	0.000077	-0.099039
F61	F	0.257815	0.000085	0.242427
F62	F	1.031768	0.000117	-0.697089
F63	F	0.492170	0.000071	0.246178
H64	H	0.800341	0.639382	0.195428
F65	F	1.000335	0.628566	-0.004433
F66	F	0.529948	0.000112	-0.038557
F67	F	0.749632	0.000061	-0.496354
H68	H	0.800323	0.360816	0.195413
H69	H	0.800309	0.203801	0.195412
F70	F	1.034373	0.000115	-0.534131
H71	H	0.770792	0.000073	-0.254420
F72	F	1.040732	0.000138	-0.136828
F73	F	0.132641	0.000130	-0.044918
F74	F	1.038124	0.000123	-0.299776
H75	H	0.107012	0.000100	0.222734
H76	H	0.680748	0.000095	-0.018868
F77	F	0.295592	0.000129	-0.042314
H78	H	0.987456	0.796403	0.008455
F79	F	1.000312	0.371643	-0.004446
F80	F	0.787466	0.807211	0.208321
