data_functionalizedCrystal
_audit_creation_method	'MofGen! by Chris Wilmer'
_symmetry_space_group_name_H-M	'P1'
_symmetry_Int_Tables_number	1
_symmetry_cell_setting	triclinic
loop_
_symmetry_equiv_pos_as_xyz
  x,y,z
_cell_length_a	13.033293
_cell_length_b	18.101395
_cell_length_c	13.032268
_cell_angle_alpha	82.853748
_cell_angle_beta	90.920818
_cell_angle_gamma	97.200663
loop_
_atom_site_label
_atom_site_type_symbol
_atom_site_fract_x
_atom_site_fract_y
_atom_site_fract_z
Zn1	Zn	1.498387	-0.230407	0.781470
Zn2	Zn	1.831721	0.102926	1.114803
Zn3	Zn	2.165054	0.436259	1.448137
Zn4	Zn	1.520095	-0.336834	0.609491
Zn5	Zn	1.853429	-0.003501	0.942825
Zn6	Zn	2.186762	0.329832	1.276158
Zn7	Zn	1.348249	-0.226497	0.587646
Zn8	Zn	1.681582	0.106837	0.920979
Zn9	Zn	2.014915	0.440170	1.254313
Zn10	Zn	1.326336	-0.367707	0.759530
Zn11	Zn	1.659669	-0.034374	1.092863
Zn12	Zn	1.993003	0.298960	1.426196
O13	O	1.423267	-0.290361	0.684534
O14	O	1.756600	0.042972	1.017868
O15	O	2.089934	0.376305	1.351201
O16	O	1.645189	-0.233242	0.776981
O17	O	1.978523	0.100092	1.110315
O18	O	2.311856	0.433425	1.443648
O19	O	1.515555	-0.307641	0.462686
O20	O	1.848888	0.025693	0.796019
O21	O	2.182222	0.359026	1.129353
O22	O	1.368250	-0.123378	0.613397
O23	O	1.701584	0.209955	0.946730
O24	O	2.034917	0.543288	1.280064
O25	O	1.661138	-0.311433	0.650629
O26	O	1.994472	0.021900	0.983963
O27	O	2.327805	0.355234	1.317296
O28	O	1.478557	-0.126252	0.755799
O29	O	1.811890	0.207082	1.089132
O30	O	2.145223	0.540415	1.422465
O31	O	1.389300	-0.226576	0.446636
O32	O	1.722633	0.106757	0.779969
O33	O	2.055967	0.440091	1.113303
O34	O	1.201420	-0.256512	0.592122
O35	O	1.534753	0.076821	0.925456
O36	O	1.868086	0.410155	1.258789
O37	O	1.330904	-0.364051	0.906348
O38	O	1.664237	-0.030718	1.239681
O39	O	1.997570	0.302616	1.573015
O40	O	1.185321	-0.360259	0.718405
O41	O	1.518654	-0.026925	1.051738
O42	O	1.851987	0.306408	1.385071
O43	O	1.457309	-0.263177	0.922467
O44	O	1.790642	0.070156	1.255801
O45	O	2.123975	0.403489	1.589134
O46	O	1.494307	-0.444567	0.629355
O47	O	1.827641	-0.111233	0.962688
O48	O	2.160974	0.222100	1.296021
O49	O	1.351953	-0.467249	0.739587
O50	O	1.685287	-0.133915	1.072921
O51	O	2.018620	0.199418	1.406254
C52	C	1.156053	-0.311312	0.650513
C53	C	1.489386	0.022022	0.983846
C54	C	1.822719	0.355355	1.317179
C55	C	1.041734	-0.320295	0.635982
C56	C	1.375067	0.013039	0.969316
C57	C	1.708401	0.346372	1.302649
C58	C	0.982863	-0.285692	0.692118
C59	C	1.316197	0.047642	1.025451
C60	C	1.649530	0.380975	1.358784
C61	C	0.864709	-0.294975	0.677101
C62	C	1.198042	0.038358	1.010435
C63	C	1.531376	0.371692	1.343768
C64	C	1.423133	-0.482780	0.684487
C65	C	1.756466	-0.149446	1.017820
C66	C	2.089800	0.183887	1.351153
C67	C	1.423166	-0.565093	0.684513
C68	C	1.756499	-0.231760	1.017846
C69	C	2.089832	0.101574	1.351179
C70	C	1.423384	-0.864172	0.684597
C71	C	1.756718	-0.530839	1.017930
C72	C	2.090051	-0.197505	1.351263
C73	C	1.333978	-0.847154	0.754173
C74	C	1.667311	-0.513821	1.087506
C75	C	2.000645	-0.180487	1.420839
C76	C	1.333633	-0.761540	0.753876
C77	C	1.666966	-0.428207	1.087209
C78	C	2.000300	-0.094874	1.420542
C79	C	1.423276	-0.715795	0.684556
C80	C	1.756609	-0.382462	1.017889
C81	C	2.089942	-0.049129	1.351222
C82	C	1.407704	-0.738262	0.572444
C83	C	1.741038	-0.404929	0.905778
C84	C	2.074371	-0.071596	1.239111
C85	C	1.407133	-0.823996	0.572856
C86	C	1.740466	-0.490662	0.906189
C87	C	2.073799	-0.157329	1.239523
C88	C	1.528656	-0.826793	0.726200
C89	C	1.861990	-0.493460	1.059534
C90	C	2.195323	-0.160126	1.392867
C91	C	1.527715	-0.741433	0.728496
C92	C	1.861048	-0.408100	1.061829
C93	C	2.194381	-0.074766	1.395162
C94	C	1.423217	-0.631939	0.684526
C95	C	1.756550	-0.298605	1.017860
C96	C	2.089884	0.034728	1.351193
C97	C	1.423441	-0.948028	0.684619
C98	C	1.756775	-0.614695	1.017952
C99	C	2.090108	-0.281361	1.351285
C100	C	1.691525	-0.269330	0.718689
C101	C	2.024858	0.064004	1.052023
C102	C	2.358191	0.397337	1.385356
C103	C	1.805840	-0.260367	0.733244
C104	C	2.139173	0.072966	1.066578
C105	C	2.472507	0.406299	1.399911
C106	C	1.389240	-0.317494	0.952765
C107	C	1.722574	0.015839	1.286098
C108	C	2.055907	0.349172	1.619431
C109	C	1.374740	-0.329057	1.067068
C110	C	1.708074	0.004277	1.400402
C111	C	2.041407	0.337610	1.733735
C112	C	1.423426	-0.097192	0.684608
C113	C	1.756760	0.236142	1.017942
C114	C	2.090093	0.569475	1.351275
C115	C	1.423494	-0.014874	0.684640
C116	C	1.756828	0.318459	1.017973
C117	C	2.090161	0.651792	1.351307
C118	C	1.457220	-0.263276	0.417355
C119	C	1.790554	0.070058	0.750688
C120	C	2.123887	0.403391	1.084022
C121	C	1.471919	-0.251489	0.303077
C122	C	1.805253	0.081844	0.636411
C123	C	2.138586	0.415178	0.969744
C124	C	1.430819	-0.284301	1.126004
C125	C	1.764152	0.049032	1.459337
C126	C	2.097485	0.382365	1.792671
C127	C	1.415833	-0.296251	1.244143
C128	C	1.749167	0.037083	1.577477
C129	C	2.082500	0.370416	1.910810
H130	H	1.341780	-0.747182	0.836573
H131	H	1.675113	-0.413849	1.169906
H132	H	2.008446	-0.080516	1.503239
H133	H	1.489919	-0.237136	1.088999
H134	H	1.823253	0.096197	1.422332
H135	H	2.156586	0.429531	1.755666
H136	H	1.315629	-0.376215	1.104072
H137	H	1.648963	-0.042882	1.437406
H138	H	1.982296	0.290451	1.770739
H139	H	1.470174	-0.834156	0.518505
H140	H	1.803507	-0.500823	0.851838
H141	H	2.136841	-0.167490	1.185172
H142	H	1.356718	-0.343413	1.281143
H143	H	1.690052	-0.010079	1.614476
H144	H	2.023385	0.323254	1.947809
F145	F	1.549191	-0.189845	1.254723
F146	F	1.882524	0.143488	1.588057
F147	F	2.215857	0.476822	1.921390
H148	H	1.019936	-0.249191	0.751290
H149	H	1.353269	0.084142	1.084624
H150	H	1.686602	0.417476	1.417957
H151	H	0.827642	-0.331474	0.617919
H152	H	1.160975	0.001860	0.951252
H153	H	1.494308	0.335193	1.284585
H154	H	1.539707	-0.727420	0.811071
H155	H	1.873040	-0.394086	1.144405
H156	H	2.206374	-0.060753	1.477738
H157	H	0.842907	-0.223862	0.792420
H158	H	1.176240	0.109471	1.125753
H159	H	1.509573	0.442804	1.459087
H160	H	1.330589	-0.847895	0.539220
H161	H	1.663922	-0.514562	0.872554
H162	H	1.997256	-0.181228	1.205887
F163	F	0.993285	-0.367997	0.558627
F164	F	1.326618	-0.034663	0.891961
F165	F	1.659951	0.298670	1.225294
H166	H	1.341909	-0.874449	0.837107
H167	H	1.675243	-0.541115	1.170440
H168	H	2.008576	-0.207782	1.503774
H169	H	1.256131	-0.873189	0.725817
H170	H	1.589464	-0.539856	1.059151
H171	H	1.922797	-0.206522	1.392484
H172	H	1.255325	-0.745581	0.725226
H173	H	1.588658	-0.412247	1.058560
H174	H	1.921991	-0.078914	1.391893
H175	H	1.471382	-0.707322	0.518587
H176	H	1.804715	-0.373989	0.851920
H177	H	2.138049	-0.040656	1.185253
H178	H	1.332057	-0.720625	0.538494
H179	H	1.665390	-0.387292	0.871828
H180	H	1.998723	-0.053958	1.205161
H181	H	1.545538	-0.854117	0.807286
H182	H	1.878871	-0.520784	1.140620
H183	H	2.212204	-0.187450	1.473953
H184	H	1.595098	-0.836526	0.675694
H185	H	1.928431	-0.503193	1.009027
H186	H	2.261765	-0.169859	1.342360
F187	F	1.617946	-0.699935	0.668534
F188	F	1.951279	-0.366601	1.001867
F189	F	2.284613	-0.033268	1.335200
