data_functionalizedCrystal
_audit_creation_method	'MofGen! by Chris Wilmer'
_symmetry_space_group_name_H-M	'P1'
_symmetry_Int_Tables_number	1
_symmetry_cell_setting	triclinic
loop_
_symmetry_equiv_pos_as_xyz
  x,y,z
_cell_length_a	21.606444
_cell_length_b	14.809374
_cell_length_c	21.606444
_cell_angle_alpha	90.001385
_cell_angle_beta	59.991153
_cell_angle_gamma	52.851113
loop_
_atom_site_label
_atom_site_type_symbol
_atom_site_fract_x
_atom_site_fract_y
_atom_site_fract_z
Zr1	Zr	0.528017	0.991008	-0.006569
O2	O	0.681932	0.826743	-0.117811
O3	O	0.391290	1.041363	0.027547
O4	O	0.520427	1.041353	-0.101598
O5	O	0.552789	0.826761	0.113189
O6	O	0.494889	1.210643	-0.088826
O7	O	0.552794	0.826752	0.011334
O8	O	0.263886	1.210660	0.142191
O9	O	0.783792	0.826744	-0.117828
O10	O	0.422104	1.189179	0.051611
O11	O	0.441158	1.062846	0.118092
O12	O	0.593201	1.062835	-0.033959
O13	O	0.612255	0.936502	0.032522
Zr14	Zr	0.487279	1.261018	0.176247
Zr15	Zr	0.487288	1.261005	0.013801
Zr16	Zr	0.528008	0.991021	0.155877
Zr17	Zr	0.690472	0.991009	-0.006596
Zr18	Zr	0.324824	1.261017	0.176274
O19	O	0.624006	1.210663	0.142131
O20	O	0.624019	1.210644	-0.088847
O21	O	0.681919	0.826762	0.113167
O22	O	0.333364	1.425283	0.287489
O23	O	0.333377	1.425264	0.056511
O24	O	0.391277	1.041382	0.258525
O25	O	0.462507	1.425265	0.056489
O26	O	0.494869	1.210673	0.271276
O27	O	0.520407	1.041384	0.258504
O28	O	0.462502	1.425274	0.158344
O29	O	0.751417	1.041355	-0.101636
O30	O	0.263879	1.210671	0.271314
O31	O	0.231504	1.425282	0.287506
O32	O	0.231511	1.425272	0.158382
O33	O	0.783784	0.826755	0.011296
O34	O	0.751410	1.041366	0.027487
O35	O	0.422095	1.189191	0.203637
O36	O	0.403041	1.315524	0.137156
O37	O	0.574138	1.189180	0.051586
O38	O	0.593192	1.062848	0.118067
C39	C	0.304442	1.126011	0.084873
C40	C	0.235475	1.126011	0.084884
C41	C	0.273283	1.032739	0.021719
C42	C	0.208493	1.032743	0.021704
C43	C	0.105897	1.126013	0.084857
C44	C	0.068088	1.219293	0.148026
C45	C	0.132877	1.219294	0.148038
C46	C	-0.193198	1.219293	0.147978
C47	C	-0.257986	1.219283	0.147962
C48	C	-0.117582	1.032741	0.021644
C49	C	-0.052794	1.032742	0.021656
C50	C	-0.090608	1.126026	0.084823
C51	C	-0.020355	1.126023	0.084838
C52	C	0.035645	1.126012	0.084845
C53	C	0.558595	0.788288	0.059359
C54	C	0.575885	0.673667	0.050712
C55	C	0.498719	0.685241	0.089305
C56	C	0.516588	0.566775	0.080368
C57	C	0.710854	1.126015	0.084805
C58	C	0.779821	1.126016	0.084794
C59	C	0.507659	1.125996	-0.118357
C60	C	0.507663	1.125990	-0.187320
C61	C	0.456701	1.463738	0.110319
C62	C	0.439410	1.578359	0.118967
C63	C	0.596973	1.060039	-0.264385
C64	C	0.596969	1.060050	-0.329179
C65	C	0.507655	1.126005	-0.316907
C66	C	0.418337	1.191964	-0.239833
C67	C	0.418341	1.191960	-0.175040
C68	C	0.418319	1.191984	-0.501134
C69	C	0.418323	1.191980	-0.565936
C70	C	0.596947	1.060074	-0.655273
C71	C	0.596951	1.060070	-0.590481
C72	C	0.507633	1.126034	-0.513413
C73	C	0.507638	1.126023	-0.443156
C74	C	0.507650	1.126009	-0.387162
C75	C	0.507637	1.126030	0.288035
C76	C	0.507633	1.126036	0.356998
C77	C	0.253495	1.463736	0.110353
C78	C	0.167238	1.578357	0.119012
C79	C	0.304430	1.126028	0.288069
C80	C	0.235460	1.126034	0.357043
C81	C	0.253484	1.463754	0.313549
C82	C	0.167222	1.578380	0.391171
C83	C	0.761812	0.788273	-0.143870
C84	C	0.848073	0.673647	-0.221492
C85	C	0.761801	0.788290	0.059325
C86	C	0.848058	0.673670	0.050666
C87	C	0.710866	1.125998	-0.118391
C88	C	0.779836	1.125993	-0.187365
C89	C	0.136681	1.566233	0.078418
C90	C	0.055644	1.673920	0.086538
C91	C	0.005160	1.793730	0.135257
C92	C	0.035724	1.805852	0.175852
C93	C	0.116764	1.698166	0.167727
C94	C	0.193120	1.191987	0.434095
C95	C	0.128325	1.191987	0.498909
C96	C	0.105866	1.126040	0.486671
C97	C	0.148213	1.060079	0.409612
C98	C	0.213012	1.060072	0.344798
C99	C	0.116766	1.698165	0.392921
C100	C	0.035722	1.805878	0.465850
C101	C	0.005132	1.793804	0.537027
C102	C	0.055597	1.674006	0.535274
C103	C	0.136644	1.566295	0.462346
C104	C	0.898538	0.553861	-0.223243
C105	C	0.979602	0.446148	-0.296171
C106	C	1.010196	0.458222	-0.367349
C107	C	0.959726	0.578020	-0.365596
C108	C	0.878668	0.685731	-0.292668
C109	C	0.878622	0.685794	0.091253
C110	C	0.959677	0.578106	0.083115
C111	C	1.010163	0.458296	0.034394
C112	C	0.979596	0.446174	-0.006198
C113	C	0.898547	0.553860	0.001936
C114	C	0.802273	1.191952	-0.175102
C115	C	0.867066	1.191972	-0.239902
C116	C	0.909425	1.126024	-0.316966
C117	C	0.886982	1.060063	-0.329228
C118	C	0.822185	1.060051	-0.264427
H119	H	0.356822	0.956775	-0.029701
Br120	Br	1.001256	0.594385	-0.462202
H121	H	-0.005392	1.903416	0.215518
Br122	Br	0.070865	1.281515	0.603480
Br123	Br	0.366550	0.847928	0.155426
Br124	Br	-0.032753	1.968444	0.468209
Br125	Br	0.810124	0.848380	0.157378
Br126	Br	0.158265	1.714586	0.296334
H127	H	-0.086799	0.956789	-0.029791
Br128	Br	0.017921	1.126062	0.574642
Br129	Br	-0.104864	1.939998	0.635995
Br130	Br	0.718193	0.970519	-0.281051
H131	H	0.962186	1.126043	-0.369724
H132	H	0.030678	1.664194	0.593237
Br133	Br	0.307235	0.741045	0.185066
Br134	Br	0.857036	0.537440	-0.126656
H135	H	-0.015452	1.295241	0.199443
H136	H	0.669681	1.006357	-0.600481
Br137	Br	0.117721	0.970586	0.393016
H138	H	1.020714	0.348610	-0.045866
H139	H	0.247477	1.006369	0.282062
Br140	Br	0.205109	1.403734	0.459985
Br141	Br	0.648762	0.404087	0.014272
H142	H	0.803926	1.006333	-0.274424
H143	H	1.020683	0.348614	-0.297583
Br144	Br	0.205180	1.403646	0.012292
Br145	Br	0.297111	1.281450	-0.396554
H146	H	0.669694	1.006349	-0.391927
H147	H	0.345615	1.245673	-0.229845
H148	H	1.076200	0.370507	-0.426726
H149	H	0.837580	0.783262	-0.291252
H150	H	0.984550	0.588000	0.116175
H151	H	1.076157	0.370621	0.027778
Br152	Br	0.857075	0.537383	-0.053149
Br153	Br	0.081563	1.345890	0.233761
H154	H	0.655180	0.576055	0.011056
Br155	Br	-0.397229	1.345871	0.233677
H156	H	0.345588	1.245693	-0.555934
H157	H	0.921481	1.006370	-0.391982
Br158	Br	0.744798	1.281463	-0.070523
Br159	Br	0.897514	1.281492	-0.223243
H160	H	0.239286	0.956791	-0.029731
H161	H	0.030770	1.664026	0.053479
Br162	Br	-0.244524	1.345884	0.233708
Br163	Br	0.086445	0.906149	-0.064050
Br164	Br	0.297127	1.281488	-0.070446
Br165	Br	0.718167	0.970550	-0.759871
Br166	Br	-0.104823	1.939865	0.146275
H167	H	0.211398	1.245689	0.444074
Br168	Br	0.158218	1.714643	0.222830
