data_functionalizedCrystal
_audit_creation_method	'MofGen! by Chris Wilmer'
_symmetry_space_group_name_H-M	'P1'
_symmetry_Int_Tables_number	1
_symmetry_cell_setting	triclinic
loop_
_symmetry_equiv_pos_as_xyz
  x,y,z
_cell_length_a	10.967926
_cell_length_b	15.944551
_cell_length_c	10.065875
_cell_angle_alpha	98.788968
_cell_angle_beta	93.120479
_cell_angle_gamma	84.118690
loop_
_atom_site_label
_atom_site_type_symbol
_atom_site_fract_x
_atom_site_fract_y
_atom_site_fract_z
O1	O	1.612902	0.146475	0.265847
O2	O	1.262859	0.148873	0.183516
O3	O	1.447438	0.025699	0.226942
O4	O	1.428323	0.269648	0.222422
O5	O	1.412241	0.049286	0.445650
O6	O	1.227662	0.172459	0.402224
O7	O	1.577706	0.170061	0.484555
Zn8	Zn	1.397096	0.175005	0.478114
Zn9	Zn	1.443469	0.143929	0.189957
O10	O	1.393127	0.293234	0.441130
C11	C	1.200467	0.158709	0.282335
C12	C	1.066996	0.152869	0.250943
C13	C	0.989257	0.162483	0.350244
C14	C	0.851308	0.156447	0.317801
C15	C	1.429045	0.006174	0.336109
C16	C	1.426666	-0.087147	0.335551
C17	C	1.306570	-0.305765	0.307285
C18	C	1.344986	-0.353407	0.428238
C19	C	1.422363	-0.258008	0.334528
C20	C	1.379714	-0.376644	0.212616
C21	C	1.418199	-0.423053	0.333533
C22	C	1.460796	-0.304412	0.455578
C23	C	1.495524	-0.327653	0.239855
C24	C	1.534020	-0.375272	0.360854
C25	C	1.424758	-0.162930	0.335102
C26	C	1.415811	-0.518129	0.332970
C27	C	1.640098	0.160224	0.385734
C28	C	1.773570	0.166063	0.417117
C29	C	1.411519	0.312760	0.331959
C30	C	1.413900	0.406079	0.332509
N31	N	1.365456	0.196213	0.674776
N32	N	1.475118	0.122714	-0.006702
C33	C	1.432453	0.151302	0.758317
C34	C	1.408111	0.167632	0.909758
H35	H	1.031423	0.140167	0.141909
H36	H	1.210438	-0.275454	0.284786
H37	H	1.630210	-0.405413	0.383541
C38	C	1.037299	0.179617	0.497546
H39	H	0.970640	0.184853	0.555640
H40	H	1.076290	0.230943	0.511808
H41	H	1.094594	0.133603	0.516072
H42	H	1.290072	0.246748	0.715367
H43	H	1.345395	-0.408087	0.109919
H44	H	1.281338	-0.365217	0.507886
H45	H	0.815741	0.143744	0.208760
C46	C	1.581447	-0.311661	0.132242
H47	H	1.552506	-0.336551	0.045988
H48	H	1.661922	-0.336525	0.150364
H49	H	1.582895	-0.252033	0.133960
C50	C	0.821599	0.183222	0.564426
H51	H	0.754937	0.188466	0.622518
H52	H	0.860579	0.234553	0.578662
H53	H	0.878900	0.137219	0.582982
C54	C	1.507051	-0.262046	0.594425
H55	H	1.508232	-0.202597	0.593953
H56	H	1.587557	-0.286419	0.613690
H57	H	1.453872	-0.270972	0.661292
C58	C	1.534283	0.083027	0.703493
H59	H	1.537289	0.081012	0.608900
H60	H	1.517401	0.029003	0.722883
H61	H	1.610994	0.096955	0.744863
C62	C	1.306276	0.235910	0.964576
H63	H	1.303281	0.237933	1.059171
H64	H	1.229569	0.221991	0.923204
H65	H	1.323171	0.289937	0.945192
H66	H	1.550498	0.072169	0.952711
