data_functionalizedCrystal
_audit_creation_method	'MofGen! by Chris Wilmer'
_symmetry_space_group_name_H-M	'P1'
_symmetry_Int_Tables_number	1
_symmetry_cell_setting	triclinic
loop_
_symmetry_equiv_pos_as_xyz
  x,y,z
_cell_length_a	29.839131
_cell_length_b	15.297475
_cell_length_c	15.296720
_cell_angle_alpha	88.382886
_cell_angle_beta	99.637563
_cell_angle_gamma	99.656911
loop_
_atom_site_label
_atom_site_type_symbol
_atom_site_fract_x
_atom_site_fract_y
_atom_site_fract_z
Zn1	Zn	-0.349614	-1.253182	-0.726505
Zn2	Zn	-0.414299	-1.278404	-0.580004
Zn3	Zn	-0.324378	-1.132076	-0.554753
Zn4	Zn	-0.409883	-1.106633	-0.701134
O5	O	-0.374544	-1.192574	-0.640599
O6	O	-0.370604	-1.379098	-0.728258
O7	O	-0.393657	-1.280197	-0.454082
O8	O	-0.264871	-1.148233	-0.577587
O9	O	-0.418128	-1.397629	-0.620623
O10	O	-0.283412	-1.237209	-0.703773
O11	O	-0.327593	-1.172690	-0.435530
O12	O	-0.323311	-1.006131	-0.552985
O13	O	-0.410602	-1.104870	-0.827071
O14	O	-0.386132	-0.987438	-0.660530
O15	O	-0.366323	-1.212539	-0.845712
O16	O	-0.476568	-1.255527	-0.596021
O17	O	-0.473324	-1.129327	-0.685015
C18	C	-0.491247	-1.192423	-0.640528
C19	C	-0.541184	-1.192434	-0.640541
C20	C	-0.351504	-0.965003	-0.601265
C21	C	-0.341660	-0.867644	-0.584458
C22	C	-0.390785	-1.153053	-0.869062
C23	C	-0.397706	-1.136212	-0.966419
C24	C	-0.852537	-1.258374	-0.594359
C25	C	-1.040223	-1.258476	-0.594412
O26	O	-1.065927	-1.314421	-0.555092
N27	N	-1.062009	-1.192744	-0.640696
C28	C	-1.036871	-1.126986	-0.686975
O29	O	-1.059708	-1.071084	-0.726352
C30	C	-0.849186	-1.126888	-0.686927
C31	C	-0.827402	-1.192619	-0.640633
C32	C	-0.830753	-1.324100	-0.548069
C33	C	-0.783833	-1.324071	-0.548053
C34	C	-0.758698	-1.258316	-0.594326
C35	C	-0.780482	-1.192590	-0.640616
C36	C	-0.824049	-1.061134	-0.733211
C37	C	-0.777125	-1.061116	-0.733197
C38	C	-0.755341	-1.126847	-0.686902
C39	C	-0.708428	-1.126806	-0.686873
N40	N	-0.686642	-1.192537	-0.640589
C41	C	-0.711777	-1.258292	-0.594315
C42	C	-1.135408	-1.127041	-0.686996
C43	C	-1.182328	-1.127064	-0.687007
C44	C	-1.185678	-1.258556	-0.594445
C45	C	-1.138756	-1.258528	-0.594429
C46	C	-1.113622	-1.192772	-0.640712
C47	C	-0.613243	-1.258226	-0.594283
C48	C	-0.566319	-1.258189	-0.594268
C49	C	-0.562974	-1.126701	-0.686833
C50	C	-0.609893	-1.126734	-0.686845
C51	C	-0.635027	-1.192505	-0.640569
O52	O	-0.682697	-1.070896	-0.726181
O53	O	-0.688934	-1.314197	-0.554961
C54	C	-0.899456	-1.258403	-0.594376
C55	C	-0.921240	-1.192677	-0.640666
C56	C	-0.896105	-1.126922	-0.686939
C57	C	-0.968161	-1.192700	-0.640677
C58	C	-0.993296	-1.258455	-0.594404
C59	C	-0.971511	-1.324187	-0.548119
C60	C	-0.924591	-1.324158	-0.548103
C61	C	-0.917891	-1.061190	-0.733224
C62	C	-0.964810	-1.061224	-0.733236
C63	C	-0.989946	-1.126979	-0.686962
C64	C	-0.257388	-1.192746	-0.640693
C65	C	-0.207464	-1.192819	-0.640733
C66	C	-0.397674	-1.421033	-0.680087
C67	C	-0.407530	-1.518389	-0.696915
C68	C	-0.444905	-0.554433	-0.760721
C69	C	-0.454157	-0.645908	-0.776509
C70	C	-0.426033	-0.701346	-0.728498
C71	C	-0.388656	-0.665301	-0.664695
C72	C	-0.379405	-0.573819	-0.648901
C73	C	-0.360534	-0.720732	-0.616678
C74	C	-0.323157	-0.684687	-0.552875
C75	C	-0.313908	-0.593213	-0.537084
C76	C	-0.342031	-0.537775	-0.585095
C77	C	-0.369785	-0.812214	-0.632472
C78	C	-0.304286	-0.831600	-0.520652
C79	C	-0.295034	-0.740125	-0.504864
C80	C	-0.325003	-1.312975	-1.279676
C81	C	-0.318502	-1.328804	-1.188205
C82	C	-0.338302	-1.280657	-1.132754
C83	C	-0.364605	-1.216679	-1.168783
C84	C	-0.371110	-1.200853	-1.260264
C85	C	-0.384409	-1.168535	-1.113342
C86	C	-0.410712	-1.104557	-1.149371
C87	C	-0.417215	-1.088734	-1.240843
C88	C	-0.397415	-1.136881	-1.296294
C89	C	-0.377904	-1.184361	-1.021861
C90	C	-0.424011	-1.072239	-1.002450
C91	C	-0.430512	-1.056410	-1.093921
C92	C	-0.358339	-1.231992	-0.413033
C93	C	-0.351308	-1.249003	-0.315706
H94	H	-0.548584	-1.311715	-0.556566
Cl95	Cl	-0.450291	-1.008319	-1.286138
Cl96	Cl	-0.248047	-0.694801	-0.424658
H97	H	-0.333007	-1.293549	-1.058275
H98	H	-0.451928	-1.004318	-1.123269
Cl99	Cl	-0.862343	-1.406775	-0.489889
H100	H	-0.400218	-0.841552	-0.684422
Cl101	Cl	-0.330399	-0.422772	-0.565255
Cl102	Cl	-0.344838	-1.264787	-0.976578
H103	H	-0.467801	-0.509289	-0.799799
H104	H	-0.433569	-0.775828	-0.741357
Cl105	Cl	-0.268930	-0.901288	-0.460288
Cl106	Cl	-0.266922	-0.547903	-0.456868
Cl107	Cl	-0.285437	-1.409230	-1.142917
Cl108	Cl	-0.644832	-1.340908	-0.536104
Cl109	Cl	-0.756457	-1.406720	-0.489866
H110	H	-0.542501	-1.073161	-0.724506
H111	H	-0.308888	-1.352175	-1.324832
Cl112	Cl	-1.111375	-1.341165	-0.536230
Cl113	Cl	-0.501143	-0.691215	-0.856713
H114	H	-0.440135	-1.033035	-0.957301
H115	H	-0.402707	-1.123997	-1.370778
H116	H	-1.206151	-1.312096	-0.556767
H117	H	-0.982542	-1.007690	-0.770932
H118	H	-0.991984	-1.377725	-0.510439
H119	H	-1.200060	-1.073532	-0.724695
H120	H	-0.841777	-1.007605	-0.770904
Cl121	Cl	-0.745532	-0.978448	-0.791386
Cl122	Cl	-0.637277	-1.044086	-0.745024
Cl123	Cl	-0.897213	-1.406799	-0.489905
Cl124	Cl	-1.103817	-1.044366	-0.745183
Cl125	Cl	-0.886299	-0.978517	-0.791402
