data_functionalizedCrystal
_audit_creation_method	'MofGen! by Chris Wilmer'
_symmetry_space_group_name_H-M	'P1'
_symmetry_Int_Tables_number	1
_symmetry_cell_setting	triclinic
loop_
_symmetry_equiv_pos_as_xyz
  x,y,z
_cell_length_a	12.645329
_cell_length_b	16.625548
_cell_length_c	16.625539
_cell_angle_alpha	90.020568
_cell_angle_beta	89.974372
_cell_angle_gamma	89.980954
loop_
_atom_site_label
_atom_site_type_symbol
_atom_site_fract_x
_atom_site_fract_y
_atom_site_fract_z
Zn1	Zn	-0.422007	-1.232706	-0.455924
Zn2	Zn	0.077993	-0.732706	0.044076
Zn3	Zn	-0.599293	-1.232619	-0.321098
Zn4	Zn	-0.099293	-0.732619	0.178902
Zn5	Zn	-0.422048	-1.097867	-0.321105
Zn6	Zn	0.077952	-0.597867	0.178895
Zn7	Zn	-0.599232	-1.097848	-0.455888
Zn8	Zn	-0.099232	-0.597848	0.044112
O9	O	-0.510645	-1.165260	-0.388504
O10	O	-0.010645	-0.665260	0.111496
O11	O	-0.445533	-1.345527	-0.438052
O12	O	0.054467	-0.845527	0.061948
O13	O	-0.575824	-1.214716	-0.208266
O14	O	-0.075824	-0.714716	0.291734
O15	O	-0.273695	-1.115798	-0.339007
O16	O	0.226305	-0.615798	0.160993
O17	O	-0.575784	-1.345463	-0.338995
O18	O	-0.075784	-0.845463	0.161005
O19	O	-0.273665	-1.214863	-0.438059
O20	O	0.226335	-0.714863	0.061941
O21	O	-0.445602	-1.115714	-0.208272
O22	O	0.054398	-0.615714	0.291728
O23	O	-0.445543	-0.985033	-0.338972
O24	O	0.054457	-0.485033	0.161028
O25	O	-0.575681	-1.115766	-0.568725
O26	O	-0.075681	-0.615766	-0.068725
O27	O	-0.575720	-0.985019	-0.437996
O28	O	-0.075720	-0.485019	0.062004
O29	O	-0.445474	-1.214845	-0.568752
O30	O	0.054526	-0.714845	-0.068752
O31	O	-0.747632	-1.214698	-0.338960
O32	O	-0.247632	-0.714698	0.161040
O33	O	-0.747588	-1.115682	-0.437989
O34	O	-0.247588	-0.615682	0.062011
C35	C	-0.510630	-0.955769	-0.388481
C36	C	-0.010630	-0.455769	0.111519
C37	C	-0.510649	-0.866148	-0.388491
C38	C	-0.010649	-0.366148	0.111509
C39	C	-0.510566	-1.165313	-0.598813
C40	C	-0.010566	-0.665313	-0.098813
C41	C	-0.510533	-1.165335	-0.688434
C42	C	-0.010533	-0.665335	-0.188434
C43	C	-0.786075	-1.165200	-0.388487
C44	C	-0.286075	-0.665200	0.111513
C45	C	-0.903905	-1.165248	-0.388507
C46	C	-0.403905	-0.665248	0.111493
C47	C	-0.948803	-1.102928	-0.450771
C48	C	-0.448803	-0.602928	0.049229
C49	C	-1.071363	-1.103187	-0.451041
C50	C	-0.571363	-0.603187	0.048959
C51	C	-1.071670	-1.250376	-0.411407
C52	C	-0.571670	-0.750376	0.088593
C53	C	-0.949072	-1.249941	-0.411833
C54	C	-0.449072	-0.749941	0.088167
C55	C	-0.949195	-1.143340	-0.303243
C56	C	-0.449195	-0.643340	0.196757
C57	C	-1.071803	-1.141540	-0.303723
C58	C	-0.571803	-0.641540	0.196277
C59	C	-0.234140	-1.165342	-0.388538
C60	C	0.265860	-0.665342	0.111462
C61	C	-0.116310	-1.165377	-0.388552
C62	C	0.383690	-0.665377	0.111448
C63	C	-0.510661	-1.375569	-0.388527
C64	C	-0.010661	-0.875569	0.111473
C65	C	-0.510668	-1.465190	-0.388537
C66	C	-0.010668	-0.965190	0.111463
C67	C	-0.510656	-0.537973	-0.388525
C68	C	-0.010656	-0.037973	0.111475
C69	C	-0.510651	-0.629281	-0.388513
C70	C	-0.010651	-0.129281	0.111487
C71	C	-0.510653	-0.702058	-0.388507
C72	C	-0.010653	-0.202058	0.111493
C73	C	-0.510647	-0.793372	-0.388496
C74	C	-0.010647	-0.293372	0.111504
C75	C	-0.510414	-1.165372	-1.016610
C76	C	-0.010414	-0.665372	-0.516610
C77	C	-0.510450	-1.165360	-0.925301
C78	C	-0.010450	-0.665360	-0.425301
C79	C	-0.510474	-1.165354	-0.852525
C80	C	-0.010474	-0.665354	-0.352525
C81	C	-0.510509	-1.165341	-0.761210
C82	C	-0.010509	-0.665341	-0.261210
C83	C	-0.510647	-1.165254	-0.179013
C84	C	-0.010647	-0.665254	0.320987
C85	C	-0.510382	-1.165388	-0.089392
C86	C	-0.010382	-0.665388	0.410608
H87	H	-0.919431	-1.039672	-0.436643
H88	H	-0.419431	-0.539672	0.063357
H89	H	-0.919362	-1.297972	-0.368444
H90	H	-0.419362	-0.797972	0.131556
H91	H	-1.102414	-1.183633	-0.254878
H92	H	-0.602414	-0.683633	0.245122
H93	H	-1.100994	-1.078986	-0.286484
H94	H	-0.600994	-0.578986	0.213516
O95	O	-0.914676	-1.272079	-0.486127
O96	O	-0.414676	-0.772079	0.013873
C97	C	-0.803191	-1.271950	-0.487489
C98	C	-0.303191	-0.771950	0.012511
H99	H	-0.771813	-1.279107	-0.423620
H100	H	-0.271813	-0.779107	0.076380
H101	H	-0.773800	-1.323959	-0.526220
H102	H	-0.273800	-0.823959	-0.026220
H103	H	-0.773810	-1.212681	-0.513727
H104	H	-0.273810	-0.712681	-0.013727
O105	O	-1.107507	-1.028009	-0.434130
O106	O	-0.607507	-0.528009	0.065870
C107	C	-1.169179	-0.999841	-0.498899
C108	C	-0.669179	-0.499841	0.001101
H109	H	-1.200489	-1.053207	-0.534765
H110	H	-0.700489	-0.553207	-0.034765
H111	H	-1.238448	-0.963175	-0.474718
H112	H	-0.738448	-0.463175	0.025282
H113	H	-1.118473	-0.960364	-0.539587
H114	H	-0.618473	-0.460364	-0.039587
H115	H	-1.102295	-1.269279	-0.473057
H116	H	-0.602295	-0.769279	0.026943
O117	O	-0.912091	-1.120153	-0.525722
O118	O	-0.412091	-0.620153	-0.025722
C119	C	-0.944521	-1.198212	-0.547857
C120	C	-0.444521	-0.698212	-0.047857
H121	H	-1.017497	-1.215746	-0.511608
H122	H	-0.517497	-0.715746	-0.011608
H123	H	-0.964334	-1.199327	-0.614735
H124	H	-0.464334	-0.699327	-0.114735
H125	H	-0.877958	-1.242680	-0.535130
H126	H	-0.377958	-0.742680	-0.035130
O127	O	-0.914673	-1.197429	-0.247800
O128	O	-0.414673	-0.697429	0.252200
C129	C	-0.955734	-1.177192	-0.171572
C130	C	-0.455734	-0.677192	0.328428
H131	H	-1.030343	-1.139489	-0.179360
H132	H	-0.530343	-0.639489	0.320640
H133	H	-0.975715	-1.234509	-0.137162
H134	H	-0.475715	-0.734509	0.362838
H135	H	-0.894349	-1.141216	-0.136555
H136	H	-0.394349	-0.641216	0.363445
H137	H	-1.100618	-1.117769	-0.514225
H138	H	-0.600618	-0.617769	-0.014225
H139	H	-1.100775	-1.298115	-0.367464
H140	H	-0.600775	-0.798115	0.132536
H141	H	-0.918375	-1.082378	-0.282387
H142	H	-0.418375	-0.582378	0.217613
