data_functionalizedCrystal
_audit_creation_method	'MofGen! by Chris Wilmer'
_symmetry_space_group_name_H-M	'P1'
_symmetry_Int_Tables_number	1
_symmetry_cell_setting	triclinic
loop_
_symmetry_equiv_pos_as_xyz
  x,y,z
_cell_length_a	29.839131
_cell_length_b	12.759395
_cell_length_c	12.759387
_cell_angle_alpha	89.980569
_cell_angle_beta	89.962744
_cell_angle_gamma	90.041266
loop_
_atom_site_label
_atom_site_type_symbol
_atom_site_fract_x
_atom_site_fract_y
_atom_site_fract_z
Zn1	Zn	-0.178832	1.606074	-0.593928
Zn2	Zn	-0.253969	1.605882	-0.418228
Zn3	Zn	-0.178854	1.430372	-0.418268
Zn4	Zn	-0.253935	1.430282	-0.593871
O5	O	-0.216397	1.518152	-0.506074
O6	O	-0.188804	1.753069	-0.570628
O7	O	-0.244029	1.582558	-0.271212
O8	O	-0.115984	1.453797	-0.441610
O9	O	-0.244007	1.752929	-0.441543
O10	O	-0.115967	1.582884	-0.570666
O11	O	-0.188842	1.453611	-0.271241
O12	O	-0.188809	1.283339	-0.441555
O13	O	-0.243949	1.453644	-0.740899
O14	O	-0.243970	1.283273	-0.570569
O15	O	-0.188771	1.582797	-0.740941
O16	O	-0.316832	1.582471	-0.441487
O17	O	-0.316807	1.453458	-0.570531
C18	C	-0.216388	1.245185	-0.506061
C19	C	-0.216395	1.128408	-0.506080
C20	C	-0.333120	1.517963	-0.506022
C21	C	-0.383054	1.517978	-0.506034
C22	C	-0.159005	1.128535	-0.640714
C23	C	-0.130315	1.073738	-0.708039
C24	C	-0.130323	0.964016	-0.708053
C25	C	-0.159023	0.909090	-0.640731
C26	C	-0.187713	0.963887	-0.573405
C27	C	-0.187703	1.073611	-0.573402
C28	C	-0.245100	0.963760	-0.438768
C29	C	-0.245095	1.073481	-0.438758
C30	C	-0.273800	0.908833	-0.371446
C31	C	-0.302493	0.963630	-0.304124
C32	C	-0.302484	1.073359	-0.304115
C33	C	-0.273785	1.128279	-0.371433
C34	C	-0.692698	1.585451	-0.438979
C35	C	-0.880371	1.585581	-0.439020
O36	O	-0.904636	1.642799	-0.381966
N37	N	-0.903839	1.518370	-0.506153
C38	C	-0.880386	1.451127	-0.573286
O39	O	-0.904654	1.393971	-0.630395
C40	C	-0.692714	1.451004	-0.573249
C41	C	-0.669249	1.518211	-0.506104
C42	C	-0.669232	1.652655	-0.371840
C43	C	-0.622317	1.652617	-0.371826
C44	C	-0.598867	1.585377	-0.438952
C45	C	-0.622333	1.518174	-0.506091
C46	C	-0.669262	1.383766	-0.640387
C47	C	-0.622341	1.383743	-0.640374
C48	C	-0.598875	1.450951	-0.573228
C49	C	-0.551968	1.450897	-0.573202
N50	N	-0.528500	1.518108	-0.506069
C51	C	-0.551949	1.585348	-0.438944
C52	C	-0.978917	1.451195	-0.573298
C53	C	-1.025835	1.451225	-0.573306
C54	C	-1.025816	1.585680	-0.439041
C55	C	-0.978898	1.585645	-0.439029
C56	C	-0.955449	1.518406	-0.506165
C57	C	-0.453424	1.585264	-0.438920
C58	C	-0.406504	1.585218	-0.438909
C59	C	-0.406527	1.450767	-0.573177
C60	C	-0.453442	1.450808	-0.573185
C61	C	-0.476889	1.518066	-0.506052
O62	O	-0.527674	1.393717	-0.630234
O63	O	-0.527674	1.642512	-0.381859
C64	C	-0.739614	1.585489	-0.438992
C65	C	-0.763079	1.518286	-0.506131
C66	C	-0.739630	1.451045	-0.573257
C67	C	-0.809997	1.518315	-0.506139
C68	C	-0.833447	1.585555	-0.439014
C69	C	-0.809979	1.652766	-0.371880
C70	C	-0.763063	1.652729	-0.371867
C71	C	-0.763098	1.383834	-0.640390
C72	C	-0.810013	1.383876	-0.640397
C73	C	-0.833463	1.451116	-0.573272
C74	C	-0.099219	1.518372	-0.506149
C75	C	-0.049285	1.518465	-0.506181
C76	C	-0.216353	1.518232	-0.780107
C77	C	-0.216335	1.518266	-0.896884
C78	C	-0.216407	1.792186	-0.506087
C79	C	-0.216411	1.908963	-0.506093
C80	C	-0.158881	1.652762	-0.896947
C81	C	-0.130148	1.720025	-0.951840
C82	C	-0.130132	1.720050	-1.061562
C83	C	-0.158851	1.652804	-1.116393
C84	C	-0.187584	1.585541	-1.061501
C85	C	-0.187598	1.585525	-0.951777
C86	C	-0.245034	1.451041	-1.061437
C87	C	-0.245054	1.451019	-0.951716
C88	C	-0.273754	1.383794	-1.116269
C89	C	-0.302490	1.316535	-1.061377
C90	C	-0.302505	1.316513	-0.951648
C91	C	-0.273787	1.383756	-0.896823
C92	C	-0.216409	1.518134	-0.233106
C93	C	-0.216301	1.518304	-0.116330
H94	H	-0.158994	1.217876	-0.640706
H95	H	-0.325856	0.918900	-0.249312
H96	H	-0.325899	1.261728	-0.906961
Br97	Br	-0.273809	0.759924	-0.371455
H98	H	-0.106765	1.774774	-0.907184
Br99	Br	-0.947056	1.676857	-0.347899
Br100	Br	-0.158822	1.652827	-1.265302
Br101	Br	-0.341419	1.147717	-0.212732
Br102	Br	-0.841854	1.292654	-0.731529
Br103	Br	-0.091383	0.889644	-0.799413
Br104	Br	-0.091366	1.148284	-0.799397
H105	H	-0.744009	1.329081	-0.695053
Br106	Br	-1.057650	1.676931	-0.347939
H107	H	-0.159024	0.819748	-0.640739
Br108	Br	-0.590521	1.292489	-0.731497
H109	H	-0.387400	1.639946	-0.384228
Br110	Br	-0.273731	1.383825	-1.265178
H111	H	-0.106732	1.774815	-1.106255
Br112	Br	-0.273774	1.277188	-0.371432
Br113	Br	-0.485238	1.676542	-0.347811
H114	H	-0.603214	1.707347	-0.317154
H115	H	-0.325868	1.261783	-1.106029
Br116	Br	-0.701048	1.743924	-0.280731
H117	H	-0.829080	1.707513	-0.317222
Br118	Br	-1.057676	1.359995	-0.664420
Br119	Br	-0.273809	1.383739	-0.747914
H120	H	-0.959828	1.396439	-0.627970
Br121	Br	-0.158910	1.652751	-0.748038
H122	H	-0.688360	1.329034	-0.695059
H123	H	-0.387427	1.396017	-0.627827
Br124	Br	-0.485290	1.359572	-0.664285
H125	H	-0.743961	1.707456	-0.317191
