data_functionalizedCrystal
_audit_creation_method	'MofGen! by Chris Wilmer'
_symmetry_space_group_name_H-M	'P1'
_symmetry_Int_Tables_number	1
_symmetry_cell_setting	triclinic
loop_
_symmetry_equiv_pos_as_xyz
  x,y,z
_cell_length_a	12.645331
_cell_length_b	19.805405
_cell_length_c	12.645324
_cell_angle_alpha	90.039239
_cell_angle_beta	90.015042
_cell_angle_gamma	90.025646
loop_
_atom_site_label
_atom_site_type_symbol
_atom_site_fract_x
_atom_site_fract_y
_atom_site_fract_z
Zn1	Zn	1.620660	-0.269426	0.599194
Zn2	Zn	1.620517	-0.382634	0.421911
Zn3	Zn	1.443376	-0.269463	0.421960
Zn4	Zn	1.443329	-0.382577	0.599148
O5	O	1.531970	-0.326025	0.510553
O6	O	1.768988	-0.284452	0.575676
O7	O	1.596978	-0.367661	0.273570
O8	O	1.466973	-0.174742	0.445511
O9	O	1.768883	-0.367626	0.445427
O10	O	1.597222	-0.174715	0.575724
O11	O	1.466834	-0.284515	0.273606
O12	O	1.295023	-0.284459	0.445465
O13	O	1.466892	-0.367528	0.747501
O14	O	1.294988	-0.367564	0.575644
O15	O	1.597176	-0.284397	0.747535
O16	O	1.596932	-0.477343	0.445382
O17	O	1.466754	-0.477301	0.575597
C18	C	1.531851	-0.501881	0.510502
C19	C	1.531897	-0.577113	0.510515
C20	C	1.256541	-0.326010	0.510556
C21	C	1.138711	-0.326020	0.510582
C22	C	1.599747	-0.612457	0.442783
C23	C	1.599792	-0.683145	0.442807
C24	C	1.531981	-0.718489	0.510558
C25	C	1.464128	-0.683140	0.578297
C26	C	1.464089	-0.612453	0.578278
C27	C	1.464284	-0.968214	0.578376
C28	C	1.464326	-1.038906	0.578387
C29	C	1.599987	-1.038906	0.442904
C30	C	1.599948	-0.968218	0.442885
C31	C	1.532100	-0.932876	0.510628
C32	C	1.532053	-0.856228	0.510604
C33	C	1.532021	-0.795136	0.510578
C34	C	0.971160	-0.378587	0.592051
C35	C	1.093720	-0.378418	0.592391
C36	C	1.094249	-0.254728	0.541118
C37	C	0.971651	-0.255049	0.541692
C38	C	0.971462	-0.344169	0.398319
C39	C	1.094068	-0.345728	0.398924
C40	C	1.808476	-0.326041	0.510551
C41	C	1.926306	-0.326048	0.510550
C42	C	1.532045	-0.325952	0.787059
C43	C	1.532077	-0.325921	0.904889
C44	C	1.532119	-0.149483	0.510628
C45	C	1.532182	-0.074251	0.510660
C46	C	1.531957	-0.326049	0.235123
C47	C	1.532131	-0.325890	0.117294
C48	C	1.614057	-0.273612	0.949792
C49	C	1.614409	-0.273748	1.072352
C50	C	1.562016	-0.397284	1.072751
C51	C	1.562580	-0.396999	0.950153
C52	C	1.420016	-0.307454	0.950077
C53	C	1.420648	-0.305862	1.072684
H54	H	1.654962	-0.583685	0.387608
C55	C	1.674521	-0.929341	0.368345
H56	H	1.664769	-0.882180	0.378023
H57	H	1.745752	-0.940874	0.383902
H58	H	1.659029	-0.940977	0.297109
H59	H	1.123138	-0.398189	0.375894
C60	C	1.485403	-0.451459	0.910007
H61	H	1.485221	-0.451652	0.834878
H62	H	1.507148	-0.494436	0.935229
H63	H	1.416222	-0.441880	0.935138
H64	H	1.409108	-1.067681	0.633566
H65	H	1.595737	-0.220819	1.102472
C66	C	1.673186	-0.418168	0.911509
H67	H	1.674495	-0.418205	0.836391
H68	H	1.724395	-0.387202	0.937458
H69	H	1.688889	-0.462187	0.936828
C70	C	0.931562	-0.200367	0.465018
H71	H	0.990206	-0.178051	0.433663
H72	H	0.889799	-0.220789	0.411346
H73	H	0.889964	-0.168512	0.502759
H74	H	1.124694	-0.310238	0.334941
C75	C	0.931252	-0.450238	0.566533
H76	H	0.959203	-0.481185	0.616633
H77	H	0.856207	-0.451017	0.569674
H78	H	0.953726	-0.462720	0.497560
H79	H	0.940371	-0.366749	0.674726
H80	H	1.655237	-1.067690	0.387749
H81	H	1.595605	-0.220523	0.920350
H82	H	1.643020	-0.413174	1.103479
H83	H	1.124977	-0.239079	0.622276
H84	H	0.943079	-0.239679	0.623738
H85	H	1.392709	-0.256291	0.919173
H86	H	1.409038	-0.939443	0.633532
H87	H	0.940528	-0.395269	0.370567
C88	C	1.134335	-0.449835	0.566549
H89	H	1.075906	-0.479215	0.555751
H90	H	1.176203	-0.448361	0.504232
H91	H	1.175936	-0.465999	0.623740
H92	H	1.655042	-0.711919	0.387652
H93	H	0.942455	-0.305900	0.337594
C94	C	1.390184	-0.234887	1.112018
H95	H	1.445166	-0.217529	1.155452
H96	H	1.380017	-0.205861	1.053117
H97	H	1.326581	-0.237489	1.151776
C98	C	1.133622	-0.200404	0.463444
H99	H	1.177636	-0.220768	0.411581
H100	H	1.074761	-0.179742	0.429843
H101	H	1.172783	-0.167192	0.500994
H102	H	1.696621	-0.285706	0.918985
C103	C	1.389535	-0.722016	0.652819
H104	H	1.399266	-0.769177	0.643123
H105	H	1.405000	-0.710387	0.724057
H106	H	1.318307	-0.710474	0.637235
C107	C	1.333777	-0.353538	1.113998
H108	H	1.267332	-0.340253	1.085796
H109	H	1.349037	-0.398491	1.092690
H110	H	1.331359	-0.351275	1.189004
H111	H	1.697460	-0.285982	1.101681
C112	C	1.483855	-0.451365	1.112073
H113	H	1.432181	-0.430836	1.156114
H114	H	1.450060	-0.471944	1.053193
H115	H	1.521107	-0.484677	1.151194
H116	H	1.408840	-0.583677	0.633434
C117	C	1.337507	-0.358913	0.910838
H118	H	1.371129	-0.391495	0.867128
H119	H	1.306051	-0.380830	0.969766
H120	H	1.284450	-0.336158	0.871388
C121	C	1.133379	-0.362206	0.704725
H122	H	1.074561	-0.355692	0.750327
H123	H	1.175085	-0.398659	0.730034
H124	H	1.174943	-0.322252	0.703119
