data_functionalizedCrystal
_audit_creation_method	'MofGen! by Chris Wilmer'
_symmetry_space_group_name_H-M	'P1'
_symmetry_Int_Tables_number	1
_symmetry_cell_setting	triclinic
loop_
_symmetry_equiv_pos_as_xyz
  x,y,z
_cell_length_a	12.759395
_cell_length_b	10.685594
_cell_length_c	10.686551
_cell_angle_alpha	90.301037
_cell_angle_beta	85.605421
_cell_angle_gamma	94.386472
loop_
_atom_site_label
_atom_site_type_symbol
_atom_site_fract_x
_atom_site_fract_y
_atom_site_fract_z
Zn1	Zn	1.625655	-0.444860	-0.747547
Zn2	Zn	1.598759	-0.670771	-0.553869
Zn3	Zn	1.435520	-0.461028	-0.537805
Zn4	Zn	1.437591	-0.654584	-0.763580
O5	O	1.524381	-0.557811	-0.650700
O6	O	1.769109	-0.474835	-0.721868
O7	O	1.564982	-0.656489	-0.376195
O8	O	1.471131	-0.283335	-0.552195
O9	O	1.749348	-0.640811	-0.579573
O10	O	1.610823	-0.271456	-0.706292
O11	O	1.445051	-0.502392	-0.364393
O12	O	1.288773	-0.486696	-0.567742
O13	O	1.474661	-0.613223	-0.936996
O14	O	1.290295	-0.628901	-0.733618
O15	O	1.612831	-0.459139	-0.925217
O16	O	1.566990	-0.844172	-0.595120
O17	O	1.448581	-0.832280	-0.749194
C18	C	1.251413	-0.557797	-0.650678
C19	C	1.134636	-0.557819	-0.650700
C20	C	1.136226	-0.706176	-0.823187
C21	C	1.082160	-0.780365	-0.909435
C22	C	0.972439	-0.780379	-0.909452
C23	C	0.916781	-0.706194	-0.823213
C24	C	0.970847	-0.632005	-0.736965
C25	C	1.080571	-0.632002	-0.736956
C26	C	0.969258	-0.483643	-0.564486
C27	C	1.078979	-0.483634	-0.564462
C28	C	0.913601	-0.409458	-0.478248
C29	C	0.967666	-0.335275	-0.391992
C30	C	1.077394	-0.335265	-0.391978
C31	C	1.133045	-0.409446	-0.478214
C32	C	1.505122	-0.883741	-0.675667
C33	C	1.496981	-1.023173	-0.686390
C34	C	1.798415	-0.557825	-0.650724
C35	C	1.915192	-0.557831	-0.650734
C36	C	1.543746	-0.230605	-0.625663
C37	C	1.551999	-0.091169	-0.614994
C38	C	1.546977	-0.532572	-0.977896
C39	C	1.556606	-0.521817	-1.117327
C40	C	1.501939	-0.582861	-0.324771
C41	C	1.492534	-0.593262	-0.185314
H42	H	0.922342	-0.274873	-0.321790
H43	H	1.430315	-0.662661	-1.136851
C44	C	1.143381	-0.861970	-1.004292
C45	C	1.138756	-0.840971	-1.146153
C46	C	1.199971	-0.922574	-1.241012
C47	C	1.265812	-1.025176	-1.194011
C48	C	1.270440	-1.046179	-1.052143
C49	C	1.209225	-0.964576	-0.957284
H50	H	1.090014	-0.765015	-1.180952
H51	H	1.196545	-0.907026	-1.346032
H52	H	1.311128	-1.085584	-1.264231
H53	H	1.319182	-1.122136	-1.017344
H54	H	1.212651	-0.980125	-0.852264
H55	H	1.121410	-0.274842	-0.321753
C56	C	1.640674	-0.428060	-1.182792
C57	C	1.714895	-0.345298	-1.104144
C58	C	1.798960	-0.251543	-1.169609
C59	C	1.808804	-0.240550	-1.313721
C60	C	1.734581	-0.323315	-1.392378
C61	C	1.650515	-0.417070	-1.326913
H62	H	1.707609	-0.353433	-0.997455
H63	H	1.853905	-0.190275	-1.111381
H64	H	1.871034	-0.171147	-1.362182
H65	H	1.741866	-0.315179	-1.499066
H66	H	1.595570	-0.478337	-1.385140
H67	H	1.225566	-0.706182	-0.823174
H68	H	1.222386	-0.409449	-0.478208
H69	H	1.443651	-1.071633	-0.755727
C70	C	0.912959	-0.861985	-1.004322
C71	C	0.974169	-0.943583	-1.099181
C72	C	0.914689	-1.025190	-1.194050
C73	C	0.793999	-1.025198	-1.194059
C74	C	0.732782	-0.943597	-1.099196
C75	C	0.792262	-0.861991	-1.004327
H76	H	1.063517	-0.943579	-1.099177
H77	H	0.960006	-1.085596	-1.264274
H78	H	0.749968	-1.085608	-1.264287
H79	H	0.643434	-0.943601	-1.099200
H80	H	0.746945	-0.801585	-0.934103
C81	C	1.624049	-1.025720	-0.521332
C82	C	1.743169	-1.042689	-0.533045
C83	C	1.815221	-0.977231	-0.439381
C84	C	1.768153	-0.894804	-0.334006
C85	C	1.649027	-0.877832	-0.322289
C86	C	1.576975	-0.943290	-0.415952
H87	H	1.778017	-1.103709	-0.611054
H88	H	1.903406	-0.989795	-0.448056
H89	H	1.821490	-0.846348	-0.264671
H90	H	1.614179	-0.816812	-0.244280
H91	H	1.488790	-0.930726	-0.407278
H92	H	0.827442	-0.706200	-0.823245
H93	H	0.824261	-0.409469	-0.478273
