data_functionalizedCrystal
_audit_creation_method	'MofGen! by Chris Wilmer'
_symmetry_space_group_name_H-M	'P1'
_symmetry_Int_Tables_number	1
_symmetry_cell_setting	triclinic
loop_
_symmetry_equiv_pos_as_xyz
  x,y,z
_cell_length_a	14.971482
_cell_length_b	10.654551
_cell_length_c	13.448316
_cell_angle_alpha	89.999355
_cell_angle_beta	90.007954
_cell_angle_gamma	84.048985
loop_
_atom_site_label
_atom_site_type_symbol
_atom_site_fract_x
_atom_site_fract_y
_atom_site_fract_z
O1	O	1.187843	0.163628	0.082673
O2	O	0.927549	0.183232	0.082677
O3	O	1.063680	-0.009373	0.082675
O4	O	1.051712	0.356234	0.082674
O5	O	1.063657	-0.009368	-0.082709
O6	O	0.927526	0.183237	-0.082707
O7	O	1.187820	0.163633	-0.082711
Cu8	Cu	1.057671	0.173436	-0.097810
Cu9	Cu	1.057698	0.173430	0.097776
O10	O	1.051689	0.356239	-0.082710
C11	C	0.894208	0.182358	-0.000015
C12	C	0.794897	0.179734	-0.000013
C13	C	0.748233	0.178500	-0.090165
C14	C	0.654921	0.176014	-0.090166
C15	C	0.608274	0.174770	-0.000014
C16	C	0.654944	0.176000	0.090145
C17	C	0.748256	0.178477	0.090145
C18	C	0.460454	0.170840	0.090138
C19	C	0.367137	0.168365	0.090139
C20	C	0.367120	0.168377	-0.090172
C21	C	0.460431	0.170854	-0.090172
C22	C	0.507095	0.172086	-0.000013
C23	C	1.062790	-0.056159	-0.000015
C24	C	1.060160	-0.195574	-0.000008
C25	C	1.058939	-0.261076	0.090141
C26	C	1.056460	-0.392069	0.090137
C27	C	1.056428	-0.392049	-0.090174
C28	C	1.058900	-0.261057	-0.090168
C29	C	1.060199	-0.195593	0.180302
C30	C	1.058979	-0.261095	0.270458
C31	C	1.056500	-0.392089	0.270453
C32	C	1.055242	-0.457581	0.180293
C33	C	1.221161	0.164507	-0.000018
C34	C	1.320473	0.167131	-0.000013
C35	C	1.052580	0.403025	-0.000018
C36	C	1.055209	0.542439	-0.000018
N37	N	1.057658	0.173439	-0.235374
C38	C	1.118006	0.088166	-0.712593
C39	C	1.117999	0.088174	-0.608490
C40	C	1.057698	0.173428	-0.556456
C41	C	0.997408	0.258688	-0.608530
C42	C	0.997420	0.258685	-0.712631
C43	C	0.997384	0.258687	-0.391550
C44	C	0.997371	0.258690	-0.287441
C45	C	1.117963	0.088177	-0.287409
C46	C	1.117975	0.088173	-0.391510
C47	C	1.057683	0.173432	-0.443577
N48	N	1.057718	0.173416	0.235340
H49	H	0.616958	0.174978	0.163548
H50	H	1.059875	-0.207721	-0.163576
H51	H	1.062220	-0.088932	0.180315
O52	O	0.609474	0.174972	-0.177672
C53	C	0.546042	0.282224	-0.183080
H54	H	0.528922	0.318090	-0.104806
H55	H	0.575362	0.359284	-0.227579
C56	C	0.481302	0.202786	-0.330748
C57	C	0.460269	0.246831	-0.234611
H58	H	0.428394	0.180957	-0.362539
H59	H	0.524039	0.130530	-0.327108
H60	H	0.505737	0.267010	-0.367818
H61	H	0.435846	0.182602	-0.197539
H62	H	0.417526	0.319076	-0.238246
H63	H	1.167106	0.018737	-0.754953
O64	O	0.938729	0.341366	-0.763169
C65	C	0.850061	0.320761	-0.737741
H66	H	0.849004	0.220213	-0.709120
H67	H	0.824208	0.390311	-0.677325
C68	C	0.790855	0.463619	-0.865390
C69	C	0.789555	0.340121	-0.830245
H70	H	0.753530	0.475566	-0.922449
H71	H	0.850591	0.477506	-0.882519
H72	H	0.769312	0.521563	-0.815035
H73	H	0.811108	0.282180	-0.880595
H74	H	0.729820	0.326225	-0.813126
O75	O	0.505723	0.171840	-0.177770
C76	C	0.492360	0.062573	-0.232629
H77	H	0.473326	-0.014072	-0.179881
H78	H	0.436054	0.085709	-0.288845
C79	C	0.602915	0.109633	-0.352653
C80	C	0.579544	0.015493	-0.287866
H81	H	0.656692	0.080593	-0.386730
H82	H	0.611916	0.183251	-0.315696
H83	H	0.555986	0.128904	-0.399491
H84	H	0.626468	-0.003766	-0.241022
H85	H	0.570553	-0.058130	-0.324816
O86	O	1.060034	-0.197516	0.358065
C87	C	0.982117	-0.215453	0.412915
H88	H	0.927381	-0.241585	0.360159
H89	H	0.998169	-0.294693	0.469118
C90	C	1.016485	-0.060608	0.532970
C91	C	0.949255	-0.092694	0.468173
H92	H	0.996215	0.015112	0.567060
H93	H	1.068981	-0.048527	0.496019
H94	H	1.029855	-0.126652	0.579797
H95	H	0.935893	-0.026659	0.421340
H96	H	0.896755	-0.104762	0.505118
H97	H	1.053211	-0.564242	0.180296
O98	O	1.055151	-0.455746	0.357999
C99	C	0.976401	-0.517429	0.363389
H100	H	0.923088	-0.468085	0.312237
H101	H	0.992003	-0.619894	0.339164
C102	C	1.006803	-0.573659	0.533928
C103	C	0.941319	-0.513046	0.471107
H104	H	0.985164	-0.570961	0.600374
H105	H	1.059860	-0.532106	0.530296
H106	H	1.019798	-0.659040	0.513728
H107	H	0.928334	-0.427662	0.491300
H108	H	0.888259	-0.554585	0.474745
H109	H	0.786248	0.179484	0.163556
H110	H	0.948291	0.328118	-0.433939
H111	H	0.948313	0.328110	-0.566157
O112	O	0.321781	0.166937	-0.177732
C113	C	0.277259	0.056831	-0.183118
H114	H	0.311998	-0.018377	-0.131952
H115	H	0.204400	0.079514	-0.158908
C116	C	0.237450	0.099882	-0.353668
C117	C	0.280122	0.007506	-0.290831
H118	H	0.239212	0.069458	-0.420110
H119	H	0.267442	0.174065	-0.350039
H120	H	0.176738	0.118776	-0.333481
H121	H	0.340835	-0.011375	-0.311011
H122	H	0.250140	-0.066682	-0.294466
H123	H	0.329159	0.167353	0.163548
H124	H	0.498445	0.171844	0.163556
O125	O	0.793409	0.179647	-0.177829
C126	C	0.732205	0.178054	-0.257398
H127	H	0.669152	0.136561	-0.230965
H128	H	0.713514	0.278463	-0.285121
C129	C	0.853217	0.147687	-0.375037
C130	C	0.775777	0.096715	-0.342574
H131	H	0.880094	0.097519	-0.427580
H132	H	0.894452	0.148765	-0.321431
H133	H	0.837630	0.231360	-0.398133
H134	H	0.791366	0.013050	-0.319468
H135	H	0.734545	0.095621	-0.396179
H136	H	1.055404	-0.445384	-0.163578
H137	H	1.167090	0.018758	-0.566098
H138	H	1.167072	0.018747	-0.433876
H139	H	1.167055	0.018757	-0.245010
H140	H	0.948269	0.328114	-0.245080
