data_functionalizedCrystal
_audit_creation_method	'MofGen! by Chris Wilmer'
_symmetry_space_group_name_H-M	'P1'
_symmetry_Int_Tables_number	1
_symmetry_cell_setting	triclinic
loop_
_symmetry_equiv_pos_as_xyz
  x,y,z
_cell_length_a	27.732048
_cell_length_b	27.732048
_cell_length_c	26.210047
_cell_angle_alpha	90.000479
_cell_angle_beta	90.003465
_cell_angle_gamma	82.642655
loop_
_atom_site_label
_atom_site_type_symbol
_atom_site_fract_x
_atom_site_fract_y
_atom_site_fract_z
O1	O	-0.640931	-0.057510	-0.042369
O2	O	-0.500138	-0.066256	-0.042385
O3	O	-0.574907	0.008514	-0.042367
O4	O	-0.566162	-0.132279	-0.042387
O5	O	-0.574893	0.008502	0.042491
O6	O	-0.500123	-0.066267	0.042473
O7	O	-0.640917	-0.057522	0.042489
Cu8	Cu	-0.570519	-0.061896	0.050229
Cu9	Cu	-0.570536	-0.061882	-0.050125
O10	O	-0.566147	-0.132291	0.042471
C11	C	-0.574716	0.026515	0.000064
C12	C	-0.574164	0.080170	0.000068
C13	C	-0.482124	-0.066078	0.000042
C14	C	-0.428469	-0.065525	0.000036
C15	C	-0.658931	-0.057699	0.000061
C16	C	-0.712586	-0.058252	0.000064
C17	C	-0.089654	-0.106229	0.000053
C18	C	0.112006	-0.104178	0.000057
O19	O	0.143262	-0.141398	0.000074
N20	N	0.131130	-0.059843	0.000063
C21	C	0.099835	-0.016017	0.000071
O22	O	0.120728	0.021740	0.000081
C23	C	-0.101824	-0.018068	0.000069
C24	C	-0.120944	-0.062407	0.000059
C25	C	-0.108775	-0.150563	0.000043
C26	C	-0.159187	-0.151076	0.000039
C27	C	-0.190477	-0.107253	0.000045
C28	C	-0.171356	-0.062919	0.000055
C29	C	-0.133117	0.025757	0.000081
C30	C	-0.183535	0.025240	0.000082
C31	C	-0.202655	-0.019098	0.000071
C32	C	-0.253059	-0.019609	0.000057
N33	N	-0.272183	-0.063944	0.000051
C34	C	-0.240892	-0.107766	0.000045
C35	C	0.205709	-0.014943	0.000070
C36	C	0.256124	-0.014430	0.000070
C37	C	0.268291	-0.102591	0.000057
C38	C	0.217876	-0.103104	0.000054
C39	C	0.186585	-0.059278	0.000065
C40	C	-0.346761	-0.108839	0.000036
C41	C	-0.397178	-0.109347	0.000030
C42	C	-0.409341	-0.021186	0.000045
C43	C	-0.358929	-0.020678	0.000049
C44	C	-0.327639	-0.064508	0.000046
O45	O	-0.284343	0.017592	0.000046
O46	O	-0.261794	-0.145518	0.000047
C47	C	-0.039242	-0.105716	0.000057
C48	C	-0.020120	-0.061382	0.000067
C49	C	-0.051411	-0.017560	0.000073
C50	C	0.030294	-0.060869	0.000066
C51	C	0.061585	-0.104691	0.000060
C52	C	0.042461	-0.149026	0.000054
C53	C	-0.007951	-0.149539	0.000050
C54	C	-0.032287	0.026775	0.000078
C55	C	0.018125	0.027284	0.000082
C56	C	0.049416	-0.016538	0.000076
C57	C	-0.566338	-0.150292	0.000040
C58	C	-0.566891	-0.203947	0.000032
N59	N	-0.570510	-0.061905	0.120813
C60	C	-0.614867	0.418985	0.000046
C61	C	-0.612816	0.620645	0.000039
O62	O	-0.650037	0.651900	0.000021
N63	N	-0.568481	0.639768	0.000034
C64	C	-0.524656	0.608474	0.000028
O65	O	-0.486899	0.629367	0.000019
C66	C	-0.526707	0.406815	0.000032
C67	C	-0.571045	0.387694	0.000042
C68	C	-0.659202	0.399864	0.000056
C69	C	-0.659714	0.349452	0.000060
C70	C	-0.615892	0.318161	0.000056
C71	C	-0.571557	0.337282	0.000046
C72	C	-0.482882	0.375521	0.000022
C73	C	-0.483399	0.325104	0.000022
C74	C	-0.527737	0.305983	0.000032
C75	C	-0.528247	0.255580	0.000046
N76	N	-0.572583	0.236456	0.000051
C77	C	-0.616405	0.267747	0.000056
C78	C	-0.523582	0.714348	0.000027
C79	C	-0.523069	0.764762	0.000027
C80	C	-0.611230	0.776930	0.000037
C81	C	-0.611742	0.726514	0.000041
C82	C	-0.567917	0.695224	0.000032
C83	C	-0.617477	0.161878	0.000066
C84	C	-0.617986	0.111461	0.000073
C85	C	-0.529825	0.099298	0.000060
C86	C	-0.529316	0.149710	0.000056
C87	C	-0.573147	0.180999	0.000057
O88	O	-0.491047	0.224296	0.000059
O89	O	-0.654156	0.246844	0.000054
C90	C	-0.614355	0.469397	0.000042
C91	C	-0.570021	0.488518	0.000033
C92	C	-0.526198	0.457228	0.000028
C93	C	-0.569508	0.538933	0.000033
C94	C	-0.613330	0.570223	0.000037
C95	C	-0.657665	0.551100	0.000042
C96	C	-0.658177	0.500688	0.000046
C97	C	-0.481863	0.476351	0.000023
C98	C	-0.481355	0.526764	0.000019
C99	C	-0.525177	0.558054	0.000024
N100	N	-0.570548	-0.061868	-0.120709
C101	C	-0.603640	-0.028781	0.473336
C102	C	-0.603651	-0.028774	0.686994
O103	O	-0.631801	-0.000614	0.714623
N104	N	-0.570538	-0.061871	0.713707
C105	C	-0.537419	-0.094970	0.687003
O106	O	-0.509251	-0.123117	0.714626
C107	C	-0.537406	-0.094974	0.473345
C108	C	-0.570524	-0.061878	0.446635
C109	C	-0.636755	0.004312	0.446625
C110	C	-0.636754	0.004308	0.393214
C111	C	-0.603638	-0.028789	0.366513
C112	C	-0.570523	-0.061882	0.393223
C113	C	-0.504284	-0.128070	0.446641
C114	C	-0.504283	-0.128067	0.393223
C115	C	-0.537401	-0.094971	0.366513
C116	C	-0.537405	-0.094983	0.313111
N117	N	-0.570518	-0.061886	0.286397
C118	C	-0.603634	-0.028789	0.313098
C119	C	-0.537428	-0.094966	0.799176
C120	C	-0.537432	-0.094965	0.852590
C121	C	-0.603664	-0.028769	0.852578
C122	C	-0.603662	-0.028773	0.799163
C123	C	-0.570541	-0.061869	0.772463
C124	C	-0.603629	-0.028800	0.200931
C125	C	-0.603626	-0.028808	0.147514
C126	C	-0.537393	-0.095002	0.147531
C127	C	-0.537397	-0.094996	0.200943
C128	C	-0.570517	-0.061891	0.227641
O129	O	-0.509267	-0.123125	0.285449
O130	O	-0.631790	-0.000639	0.285466
C131	C	-0.603641	-0.028777	0.526747
C132	C	-0.570527	-0.061871	0.553457
C133	C	-0.537410	-0.094968	0.526756
C134	C	-0.570530	-0.061870	0.606872
C135	C	-0.603646	-0.028773	0.633573
C136	C	-0.636759	0.004323	0.606859
C137	C	-0.636758	0.004320	0.553448
C138	C	-0.504298	-0.128064	0.553470
C139	C	-0.504302	-0.128058	0.606881
C140	C	-0.537418	-0.094961	0.633582
H141	H	-0.412743	-0.145454	0.000021
O142	O	-0.660097	0.192199	0.000092
C143	C	-0.699333	0.164502	0.000088
H144	H	-0.686766	0.126783	0.016153
H145	H	-0.730011	0.183320	0.024730
H146	H	-0.712949	0.161008	-0.040620
O147	O	-0.439260	0.446009	-0.000046
C148	C	-0.412330	0.454618	-0.044004
H149	H	-0.424500	0.492949	-0.058661
H150	H	-0.371987	0.450785	-0.034120
H151	H	-0.418726	0.427082	-0.074774
H152	H	-0.663722	0.031266	0.468360
H153	H	-0.630597	-0.001858	0.125768
O154	O	-0.440857	0.294661	0.000082
C155	C	-0.438497	0.265145	0.044039
H156	H	-0.476841	0.262873	0.058699
H157	H	-0.420201	0.227119	0.034154
H158	H	-0.416541	0.281575	0.074808
O159	O	-0.635898	0.003336	0.878497
C160	C	-0.683690	-0.004175	0.865436
H161	H	-0.683643	-0.042874	0.850749
H162	H	-0.707987	0.001554	0.900563
H163	H	-0.698087	0.022720	0.834433
O164	O	0.072793	-0.191640	0.000026
C165	C	0.045112	-0.230887	0.000033
H166	H	0.007389	-0.218335	-0.016034
H167	H	0.063939	-0.261564	-0.024606
H168	H	0.041624	-0.244500	0.040742
H169	H	-0.083302	-0.186251	0.000039
H170	H	0.033688	0.063392	0.000086
H171	H	-0.477330	-0.155015	0.531734
O172	O	-0.668829	0.036553	0.527487
C173	C	-0.643110	0.066201	0.496657
H174	H	-0.605173	0.046630	0.488616
H175	H	-0.663343	0.074092	0.459111
H176	H	-0.640016	0.101853	0.517311
H177	H	-0.695819	0.333889	0.000066
O178	O	-0.472157	-0.160286	0.367311
C179	C	-0.479646	-0.208083	0.380377
H180	H	-0.518344	-0.208053	0.395055
H181	H	-0.473900	-0.232386	0.345253
H182	H	-0.452749	-0.222461	0.411387
H183	H	-0.493213	0.165279	0.000062
O184	O	-0.701819	0.430187	0.000085
C185	C	-0.741053	0.402488	0.000079
H186	H	-0.728484	0.364768	0.016140
H187	H	-0.771731	0.421302	0.024723
H188	H	-0.754671	0.398998	-0.040629
O189	O	-0.340432	0.022434	0.000075
C190	C	-0.378864	0.061002	0.000062
H191	H	-0.413017	0.047711	0.016121
H192	H	-0.368555	0.091977	0.024703
H193	H	-0.386095	0.074504	-0.040648
H194	H	-0.510456	-0.121918	0.777440
O195	O	-0.439769	0.394007	-0.000012
C196	C	-0.401207	0.355569	-0.000007
H197	H	-0.414507	0.321419	-0.016066
H198	H	-0.370234	0.365871	-0.024652
H199	H	-0.387697	0.348335	0.040701
H200	H	-0.630598	-0.001842	0.222662
H201	H	-0.477317	-0.155019	0.468381
O202	O	-0.654854	0.708023	0.000023
C203	C	-0.693419	0.746458	0.000041
H204	H	-0.680129	0.780610	-0.016023
H205	H	-0.724402	0.736153	-0.024594
H206	H	-0.706912	0.753689	0.040753
O207	O	-0.505198	-0.127070	0.878511
C208	C	-0.457410	-0.119547	0.865451
H209	H	-0.457467	-0.080845	0.850770
H210	H	-0.433108	-0.125275	0.900578
H211	H	-0.443011	-0.146436	0.834445
O212	O	-0.479956	0.783252	0.000001
C213	C	-0.441391	0.744818	0.000009
H214	H	-0.454686	0.710667	-0.016054
H215	H	-0.410417	0.755124	-0.024633
H216	H	-0.427885	0.737584	0.040717
O217	O	-0.505181	-0.127162	0.226813
C218	C	-0.475960	-0.156383	0.191789
H219	H	-0.475570	-0.136573	0.153710
H220	H	-0.437301	-0.164016	0.207221
H221	H	-0.491380	-0.192189	0.186116
H222	H	0.202311	-0.139207	0.000049
O223	O	-0.505290	-0.127169	0.121531
C224	C	-0.530949	-0.156822	0.090640
H225	H	-0.568920	-0.137313	0.082639
H226	H	-0.510717	-0.164601	0.053079
H227	H	-0.533957	-0.192530	0.111221
O228	O	0.298760	-0.145116	0.000075
C229	C	0.347355	-0.135150	0.000063
H230	H	0.349006	-0.097197	0.016130
H231	H	0.370407	-0.163105	0.024699
H232	H	0.361948	-0.137091	-0.040647
H233	H	-0.646911	0.802415	0.000041
O234	O	0.274614	0.028683	0.000097
C235	C	0.236179	0.067248	0.000090
H236	H	0.202029	0.053953	0.016153
H237	H	0.246488	0.098223	0.024732
H238	H	0.228942	0.080752	-0.040618
H239	H	-0.434827	0.014492	0.000048
H240	H	-0.023514	-0.185643	0.000042
H241	H	-0.663725	0.031271	0.628608
O242	O	-0.177676	-0.194189	0.000057
C243	C	-0.139240	-0.232752	0.000041
H244	H	-0.105088	-0.219458	0.016106
H245	H	-0.149542	-0.263733	0.024677
H246	H	-0.132009	-0.246248	-0.040670
O247	O	-0.635782	0.003457	0.773256
C248	C	-0.628277	0.051244	0.786347
H249	H	-0.589574	0.051196	0.801024
H250	H	-0.634022	0.075564	0.751235
H251	H	-0.655164	0.065616	0.817364
O252	O	-0.472082	-0.160229	0.632745
C253	C	-0.442863	-0.189446	0.597718
H254	H	-0.442472	-0.169631	0.559642
H255	H	-0.404204	-0.197082	0.613148
H256	H	-0.458284	-0.225251	0.592039
H257	H	-0.057760	0.062462	0.000085
H258	H	-0.321291	-0.144530	0.000036
O259	O	-0.661028	0.092830	0.000012
C260	C	-0.663976	0.064040	-0.043941
H261	H	-0.625784	0.051201	-0.058596
H262	H	-0.682993	0.031166	-0.034052
H263	H	-0.685534	0.086472	-0.074715
H264	H	-0.445246	0.542327	0.000016
O265	O	-0.487302	0.068828	0.000032
C266	C	-0.497268	0.020233	0.000048
H267	H	-0.535226	0.018582	-0.016008
H268	H	-0.469321	-0.002817	-0.024594
H269	H	-0.495315	0.005638	0.040759
O270	O	0.175269	0.027601	0.000007
C271	C	0.145749	0.029956	-0.043949
H272	H	0.143471	-0.008390	-0.058603
H273	H	0.107726	0.048258	-0.034064
H274	H	0.162180	0.051904	-0.074722
H275	H	-0.117558	0.061861	0.000090
O276	O	-0.481039	0.683906	0.000090
C277	C	-0.478682	0.654388	0.044045
H278	H	-0.517027	0.652113	0.058700
H279	H	-0.460382	0.616363	0.034159
H280	H	-0.456730	0.670818	0.074818
O281	O	-0.701290	0.482198	0.000030
C282	C	-0.739853	0.520634	0.000045
H283	H	-0.726561	0.554784	-0.016022
H284	H	-0.770837	0.510330	-0.024588
H285	H	-0.753345	0.527870	0.040757
H286	H	-0.209009	0.060929	0.000091
H287	H	-0.693347	0.576585	0.000048
O288	O	-0.668873	0.036587	0.367365
C289	C	-0.661300	0.084335	0.380536
H290	H	-0.622575	0.084218	0.395175
H291	H	-0.667059	0.108721	0.345476
H292	H	-0.688140	0.098678	0.411607
