data_functionalizedCrystal
_audit_creation_method	'MofGen! by Chris Wilmer'
_symmetry_space_group_name_H-M	'P1'
_symmetry_Int_Tables_number	1
_symmetry_cell_setting	triclinic
loop_
_symmetry_equiv_pos_as_xyz
  x,y,z
_cell_length_a	15.995343
_cell_length_b	19.188925
_cell_length_c	15.072220
_cell_angle_alpha	89.999199
_cell_angle_beta	89.991823
_cell_angle_gamma	83.315866
loop_
_atom_site_label
_atom_site_type_symbol
_atom_site_fract_x
_atom_site_fract_y
_atom_site_fract_z
O1	O	1.110668	0.089966	-0.073693
O2	O	0.866851	0.101085	-0.073714
O3	O	0.995798	-0.006113	-0.073698
O4	O	0.981721	0.197163	-0.073709
O5	O	0.995766	-0.006107	0.073867
O6	O	0.866819	0.101091	0.073851
O7	O	1.110637	0.089972	0.073872
Zn8	Zn	0.988723	0.095532	0.097291
Zn9	Zn	0.988765	0.095524	-0.097133
O10	O	0.981690	0.197169	0.073856
C11	C	0.835642	0.100629	0.000066
C12	C	0.742696	0.099254	0.000058
C13	C	0.572519	0.096758	0.000070
C14	C	0.549459	0.019377	0.000074
C15	C	0.452786	0.017921	0.000414
C16	C	0.404968	0.094299	0.000081
C17	C	0.433898	0.133210	0.084178
C18	C	0.530688	0.134128	0.084243
C19	C	0.530630	0.135254	-0.083572
C20	C	0.434146	0.132398	-0.084672
C21	C	0.310275	0.092914	0.000090
C22	C	0.667212	0.098145	0.000067
C23	C	0.995327	-0.032122	0.000084
C24	C	0.993961	-0.109630	0.000082
C25	C	1.060475	-0.671233	0.000066
C26	C	1.061766	-0.598406	0.000074
C27	C	0.986104	-0.553663	0.000067
C28	C	0.909145	-0.581751	0.000075
C29	C	0.907857	-0.654576	0.000075
N30	N	0.931339	-0.433122	-0.050165
N31	N	0.932568	-0.363942	-0.050168
C32	C	0.989982	-0.334244	0.000067
N33	N	1.046134	-0.376341	0.050293
N34	N	1.044907	-0.445528	0.050291
C35	C	0.987493	-0.474695	0.000067
C36	C	1.068336	-0.227197	0.000074
C37	C	1.069624	-0.154369	0.000088
C38	C	0.917001	-0.137715	0.000080
C39	C	0.915715	-0.210542	0.000075
C40	C	0.991385	-0.255279	0.000068
C41	C	1.141846	0.090427	0.000091
C42	C	1.234791	0.091803	0.000093
C43	C	0.982161	0.223179	0.000072
C44	C	0.983527	0.300687	0.000068
N45	N	0.988700	0.095537	0.229980
N46	N	0.988794	0.095514	-0.229821
C47	C	0.988763	0.095522	0.589181
C48	C	0.919536	0.152689	0.551566
C49	C	0.919693	0.152897	0.448740
C50	C	0.988731	0.095529	0.410977
C51	C	1.076038	0.111439	0.448275
C52	C	1.075650	0.111845	0.551133
C53	C	0.971464	0.022276	0.551284
C54	C	0.969457	0.022764	0.448420
C55	C	0.988719	0.095532	0.310264
C56	C	0.988781	0.095520	0.689895
H57	H	0.545051	0.190873	0.087836
F58	F	0.828621	-0.534131	0.000071
H59	H	0.544434	0.192211	-0.084386
H60	H	1.124429	-0.575538	0.000072
H61	H	1.129951	-0.263624	0.000069
F62	F	0.833815	-0.240428	0.000071
H63	H	1.132287	-0.131508	0.000091
F64	F	0.836475	-0.090100	0.000082
H65	H	1.122092	-0.707654	0.000065
F66	F	0.834845	0.140544	0.415778
H67	H	0.434448	-0.012390	0.061054
H68	H	1.091695	0.164248	0.422505
F69	F	0.834420	0.140496	0.583906
F70	F	0.410067	0.095348	-0.165995
H71	H	0.433892	-0.012538	-0.059858
F72	F	0.407751	0.098321	0.166298
F73	F	0.825954	-0.684462	0.000077
F74	F	0.586227	-0.019832	-0.078740
F75	F	0.567715	0.103340	-0.166916
F76	F	0.933744	0.223337	0.585321
H77	H	0.400985	0.188127	-0.090014
H78	H	0.401844	0.189422	0.087066
H79	H	0.930712	0.207252	0.424124
H80	H	1.016624	-0.021770	0.422718
F81	F	1.095628	0.181666	0.582479
F82	F	1.144926	0.059437	0.583658
F83	F	1.144967	0.058463	0.416305
F84	F	0.890062	0.002290	0.585223
F85	F	1.037453	-0.033330	0.583078
F86	F	0.587466	-0.019186	0.078786
F87	F	0.565811	0.099324	0.166727
F88	F	0.885513	0.006981	0.416560
