data_functionalizedCrystal
_audit_creation_method	'MofGen! by Chris Wilmer'
_symmetry_space_group_name_H-M	'P1'
_symmetry_Int_Tables_number	1
_symmetry_cell_setting	triclinic
loop_
_symmetry_equiv_pos_as_xyz
  x,y,z
_cell_length_a	17.077404
_cell_length_b	21.295417
_cell_length_c	17.077396
_cell_angle_alpha	90.032144
_cell_angle_beta	90.018362
_cell_angle_gamma	90.027672
loop_
_atom_site_label
_atom_site_type_symbol
_atom_site_fract_x
_atom_site_fract_y
_atom_site_fract_z
Zn1	Zn	1.200017	-0.250643	0.443799
Zn2	Zn	1.199909	-0.355916	0.312524
Zn3	Zn	1.068749	-0.250661	0.312549
Zn4	Zn	1.068702	-0.355875	0.443751
O5	O	1.134344	-0.303274	0.378156
O6	O	1.309850	-0.264618	0.426395
O7	O	1.182485	-0.341979	0.202681
O8	O	1.086228	-0.162569	0.329991
O9	O	1.309770	-0.341962	0.329948
O10	O	1.182670	-0.162556	0.426419
O11	O	1.086122	-0.264648	0.202699
O12	O	0.958896	-0.264608	0.329944
O13	O	1.086146	-0.341891	0.553604
O14	O	0.958861	-0.341908	0.426337
O15	O	1.182624	-0.264578	0.553639
O16	O	1.182439	-0.444000	0.329901
O17	O	1.086041	-0.443970	0.426313
C18	C	0.930396	-0.303256	0.378138
C19	C	0.843147	-0.303264	0.378149
C20	C	0.802199	-0.263062	0.428446
C21	C	0.720218	-0.263066	0.428449
C22	C	0.679187	-0.303275	0.378160
C23	C	0.720141	-0.343478	0.327858
C24	C	0.802120	-0.343471	0.327851
C25	C	0.549271	-0.343493	0.327877
C26	C	0.467286	-0.343501	0.327885
C27	C	0.467369	-0.263088	0.428476
C28	C	0.549348	-0.263081	0.428469
C29	C	0.590296	-0.303285	0.378168
C30	C	1.134244	-0.466826	0.378116
C31	C	1.134273	-0.536794	0.378125
C32	C	1.184462	-0.569596	0.428371
C33	C	1.184490	-0.635339	0.428391
C34	C	1.134337	-0.668276	0.378150
C35	C	1.084138	-0.635466	0.327900
C36	C	1.084107	-0.569724	0.327888
N37	N	1.128408	-0.771539	0.309452
N38	N	1.128443	-0.833991	0.309466
C39	C	1.134429	-0.866351	0.378186
N40	N	1.140394	-0.833900	0.446892
N41	N	1.140363	-0.771443	0.446877
C42	C	1.134365	-0.739562	0.378158
C43	C	1.184650	-0.970439	0.428457
C44	C	1.184672	-1.036183	0.428478
C45	C	1.084325	-1.036308	0.327980
C46	C	1.084299	-0.970566	0.327966
C47	C	1.134465	-0.937635	0.378204
C48	C	1.339089	-0.303292	0.378174
C49	C	1.426338	-0.303300	0.378182
C50	C	1.134392	-0.303228	0.582900
C51	C	1.134412	-0.303208	0.670150
C52	C	1.134466	-0.139084	0.378213
C53	C	1.134518	-0.069116	0.378237
C54	C	1.134342	-0.303275	0.174208
C55	C	1.134474	-0.303117	0.086959
C56	C	1.184650	-0.262947	0.711160
C57	C	1.184659	-0.262927	0.793140
C58	C	1.134434	-0.303170	0.834110
C59	C	1.084191	-0.343432	0.793094
C60	C	1.084178	-0.343449	0.711115
C61	C	1.084223	-0.343394	0.963964
C62	C	1.084237	-0.343377	1.045949
C63	C	1.184703	-0.262871	1.045990
C64	C	1.184691	-0.262889	0.964011
C65	C	1.134448	-0.303152	0.923001
H66	H	0.433881	-0.376243	0.286936
H67	H	1.225496	-0.943626	0.469366
H68	H	1.043236	-0.543016	0.286971
H69	H	0.686882	-0.230332	0.469407
Br70	Br	0.857876	-0.208494	0.496705
H71	H	0.582754	-0.230343	0.469424
Br72	Br	1.252893	-0.208231	1.101644
Br73	Br	0.411798	-0.208526	0.496742
Br74	Br	1.016180	-0.926045	0.259773
Br75	Br	1.016066	-0.397987	1.101550
Br76	Br	0.857693	-0.398031	0.259587
Br77	Br	0.604843	-0.398059	0.259615
Br78	Br	1.016066	-0.680164	0.259723
Br79	Br	1.252878	-0.208314	0.848794
Br80	Br	1.252860	-0.208278	0.908409
H81	H	1.043298	-0.376170	0.930576
H82	H	0.686727	-0.376214	0.286908
H83	H	1.225309	-0.542786	0.469280
H84	H	1.225542	-1.062889	0.469398
Br85	Br	1.252612	-0.679867	0.496583
H86	H	1.043485	-1.063125	0.287078
H87	H	1.225551	-0.230179	0.677809
Br88	Br	1.016023	-0.398044	0.848694
H89	H	1.043262	-0.376227	0.677726
