data_functionalizedCrystal
_audit_creation_method	'MofGen! by Chris Wilmer'
_symmetry_space_group_name_H-M	'P1'
_symmetry_Int_Tables_number	1
_symmetry_cell_setting	triclinic
loop_
_symmetry_equiv_pos_as_xyz
  x,y,z
_cell_length_a	9.065218
_cell_length_b	10.065875
_cell_length_c	9.065218
_cell_angle_alpha	81.078217
_cell_angle_beta	94.984115
_cell_angle_gamma	81.120447
loop_
_atom_site_label
_atom_site_type_symbol
_atom_site_fract_x
_atom_site_fract_y
_atom_site_fract_z
O1	O	1.981707	-0.113526	-0.194950
O2	O	2.481707	0.386474	0.305050
O3	O	1.552421	-0.113520	-0.212697
O4	O	2.052421	0.386480	0.287303
O5	O	1.775937	-0.113521	0.010818
O6	O	2.275937	0.386479	0.510818
O7	O	1.758192	-0.113526	-0.418466
O8	O	2.258192	0.386474	0.081534
O9	O	1.733318	0.113468	-0.031976
O10	O	2.233318	0.613468	0.468024
O11	O	1.509802	0.113469	-0.255492
O12	O	2.009802	0.613469	0.244508
O13	O	1.939088	0.113462	-0.237745
O14	O	2.439088	0.613462	0.262255
Zn15	Zn	1.717678	0.149505	-0.253413
Zn16	Zn	2.217678	0.649505	0.246587
Zn17	Zn	1.773831	-0.149563	-0.197029
Zn18	Zn	2.273831	0.350437	0.302971
O19	O	1.715572	0.113463	-0.461260
O20	O	2.215572	0.613463	0.038740
C21	C	1.476125	-0.000025	-0.232389
C22	C	1.976125	0.499975	0.267611
C23	C	1.312282	-0.000023	-0.227290
C24	C	1.812282	0.499977	0.272710
N25	N	1.679367	0.353610	-0.291893
N26	N	2.179367	0.853610	0.208107
C27	C	1.752922	-0.000029	0.044408
C28	C	2.252922	0.499971	0.544408
C29	C	1.747824	-0.000035	0.208252
C30	C	2.247824	0.499965	0.708252
C31	C	2.015385	-0.000036	-0.218052
C32	C	2.515385	0.499964	0.281948
C33	C	2.179230	-0.000047	-0.223150
C34	C	2.679230	0.499953	0.276850
N35	N	1.812154	-0.353668	-0.158538
N36	N	2.312154	0.146332	0.341462
C37	C	1.760492	0.421389	-0.210408
C38	C	2.260492	0.921389	0.289592
C39	C	1.731017	0.578556	-0.240034
C40	C	2.231017	1.078556	0.259966
C41	C	1.738588	-0.000032	-0.494849
C42	C	2.238588	0.499968	0.005151
C43	C	1.743688	-0.000035	-0.658692
C44	C	2.243688	0.499965	-0.158692
H45	H	1.851762	0.363065	-0.118706
H46	H	2.351762	0.863065	0.381294
Cl47	Cl	1.538433	0.443652	-0.433460
Cl48	Cl	2.038433	0.943652	0.066540
H49	H	1.639731	0.636878	-0.331731
H50	H	2.139731	1.136878	0.168269
H51	H	1.903430	0.588011	-0.066830
H52	H	2.403430	1.088011	0.433170
