data_functionalizedCrystal
_audit_creation_method	'MofGen! by Chris Wilmer'
_symmetry_space_group_name_H-M	'P1'
_symmetry_Int_Tables_number	1
_symmetry_cell_setting	triclinic
loop_
_symmetry_equiv_pos_as_xyz
  x,y,z
_cell_length_a	18.426585
_cell_length_b	20.875641
_cell_length_c	20.875641
_cell_angle_alpha	60.089808
_cell_angle_beta	90.001073
_cell_angle_gamma	62.441129
loop_
_atom_site_label
_atom_site_type_symbol
_atom_site_fract_x
_atom_site_fract_y
_atom_site_fract_z
Zr1	Zr	0.732332	0.694373	-0.105787
O2	O	0.625982	0.820610	-0.209049
O3	O	0.760955	0.563119	-0.070856
O4	O	0.771643	0.687143	-0.204329
O5	O	0.611391	0.704039	0.025983
O6	O	0.891069	0.687147	-0.204332
O7	O	0.615295	0.696586	-0.075577
O8	O	0.871951	0.465291	0.034426
O9	O	0.630508	0.925895	-0.212775
O10	O	0.867097	0.618967	-0.059918
O11	O	0.775057	0.624526	0.015876
O12	O	0.787640	0.770548	-0.141270
O13	O	0.695600	0.776107	-0.065476
Zr14	Zr	0.916577	0.706267	0.056184
Zr15	Zr	0.922803	0.694380	-0.105792
Zr16	Zr	0.726106	0.706260	0.056188
Zr17	Zr	0.739552	0.862291	-0.111730
Zr18	Zr	0.909358	0.538349	0.062126
O19	O	0.887954	0.837521	0.021253
O20	O	0.896807	0.820619	-0.209055
O21	O	0.617129	0.837512	0.021259
O22	O	1.022927	0.580031	0.159445
O23	O	1.031781	0.563129	-0.070863
O24	O	0.752102	0.580021	0.159451
O25	O	1.037519	0.696601	-0.075586
O26	O	0.877267	0.713498	0.154725
O27	O	0.757841	0.713493	0.154728
O28	O	1.033615	0.704054	0.025973
O29	O	0.781907	0.925900	-0.212779
O30	O	0.867002	0.474740	0.163175
O31	O	1.018401	0.474745	0.163171
O32	O	1.023350	0.465297	0.034423
O33	O	0.625559	0.935344	-0.084026
O34	O	0.776958	0.935349	-0.084030
O35	O	0.861270	0.630092	0.091667
O36	O	0.953310	0.624533	0.015872
O37	O	0.873853	0.776114	-0.065480
O38	O	0.781813	0.781673	0.010315
C39	C	0.815425	0.490280	-0.017368
C40	C	0.812360	0.418995	-0.014846
C41	C	0.586205	0.700312	-0.024796
C42	C	0.505345	0.700309	-0.024795
C43	C	0.858962	0.382603	-0.053224
C44	C	0.856084	0.315618	-0.050847
C45	C	0.806599	0.285031	-0.010094
C46	C	0.759996	0.321426	0.028289
C47	C	0.762879	0.388405	0.025916
C48	C	0.792829	0.085020	0.001252
C49	C	0.789948	0.018037	0.003621
C50	C	0.886037	0.012233	-0.075515
C51	C	0.888912	0.079217	-0.077888
C52	C	0.842312	0.115603	-0.039502
N53	N	0.803654	0.216564	-0.007665
N54	N	0.845263	0.184065	-0.041927
C55	C	0.209232	0.700335	-0.024809
C56	C	0.291617	0.700331	-0.024807
C57	C	0.357285	0.700322	-0.024802
C58	C	0.439677	0.700318	-0.024799
C59	C	1.062705	0.700329	-0.024807
C60	C	1.143565	0.700332	-0.024809
C61	C	0.832243	0.685451	-0.227408
C62	C	0.834886	0.680405	-0.296171
C63	C	0.833485	0.910360	-0.032235
C64	C	0.836549	0.981645	-0.034758
C65	C	0.794654	0.757156	-0.370941
C66	C	0.797149	0.752409	-0.435548
C67	C	0.839871	0.670910	-0.425384
C68	C	0.880109	0.594154	-0.350606
C69	C	0.877619	0.598901	-0.286001
C70	C	0.851771	0.648227	-0.614050
C71	C	0.854256	0.643485	-0.678663
C72	C	0.771296	0.801740	-0.763601
C73	C	0.768806	0.806481	-0.698990
C74	C	0.809047	0.729724	-0.624218
N75	N	0.842420	0.666056	-0.491421
N76	N	0.806503	0.734579	-0.558182
C77	C	0.816666	0.715189	0.177804
C78	C	0.814023	0.720236	0.246567
C79	C	1.053675	0.490289	-0.017374
C80	C	1.131470	0.419006	-0.014853
C81	C	0.807636	0.505149	0.185238
C82	C	0.801928	0.438910	0.256523
C83	C	1.045887	0.505158	0.185232
C84	C	1.121039	0.438922	0.256516
C85	C	0.603023	0.895482	-0.234836
C86	C	0.527871	0.961719	-0.306120
C87	C	0.595235	0.910351	-0.032230
C88	C	0.517439	0.981634	-0.034751
C89	C	0.841273	0.895491	-0.234842
C90	C	0.846981	0.961730	-0.306127
C91	C	1.123002	0.382626	-0.053238
C92	C	1.196092	0.315656	-0.050884
C93	C	1.277650	0.285064	-0.010141
C94	C	1.286117	0.321452	0.028244
C95	C	1.213028	0.388424	0.025886
C96	C	0.844250	0.410709	0.329569
C97	C	0.838883	0.348480	0.396555
C98	C	0.791200	0.314449	0.390494
C99	C	0.748874	0.342656	0.317441
C100	C	0.754235	0.404888	0.250457
C101	C	1.204383	0.404915	0.250428
C102	C	1.275004	0.342687	0.317400
C103	C	1.262279	0.314464	0.390460
C104	C	1.178926	0.348478	0.396546
C105	C	1.108307	0.410708	0.329575
C106	C	0.444527	0.995734	-0.300032
C107	C	0.373907	1.057982	-0.367005
C108	C	0.386632	1.086209	-0.440065
C109	C	0.469985	1.052191	-0.446151
C110	C	0.540603	0.989949	-0.379179
C111	C	0.525908	1.018021	0.003627
C112	C	0.452819	1.085008	0.001255
C113	C	0.371262	1.115602	-0.039490
C114	C	0.362794	1.079211	-0.077873
C115	C	0.435883	1.012230	-0.075505
C116	C	0.894672	0.995742	-0.300042
C117	C	0.900052	1.057972	-0.367016
C118	C	0.857735	1.086194	-0.440074
C119	C	0.810043	1.052176	-0.446158
C120	C	0.804669	0.989942	-0.379185
H121	H	0.899253	0.407506	-0.086413
Cl122	Cl	0.269131	1.100731	-0.359335
Cl123	Cl	0.701030	0.440328	0.158632
H124	H	0.434150	0.972755	-0.240549
H125	H	0.734019	0.872846	-0.707275
Cl126	Cl	0.485967	1.087682	-0.538004
H127	H	0.775591	1.075164	-0.505651
H128	H	1.214760	0.427885	0.190945
Cl129	Cl	1.379780	0.299936	0.309730
Cl130	Cl	1.162943	0.312986	0.488400
Cl131	Cl	0.645376	0.947187	-0.386846
Cl132	Cl	0.628430	0.979579	0.054851
Cl133	Cl	0.697799	0.282962	0.079534
Cl134	Cl	0.704294	0.434153	0.074168
H135	H	0.459730	1.114626	0.032514
Cl136	Cl	1.351067	0.236228	0.474647
Cl137	Cl	0.864497	1.164435	-0.524263
Cl138	Cl	1.185428	0.269922	-0.099141
H139	H	1.337157	0.230530	-0.008227
H140	H	1.040447	0.438389	0.334543
H141	H	0.765830	0.962256	-0.384150
Cl142	Cl	0.297844	1.164456	-0.524252
H143	H	0.738535	0.864231	-0.824484
H144	H	0.786841	0.263776	0.445044
H145	H	0.759859	0.823521	-0.379226
Cl146	Cl	0.279386	1.199807	-0.042457
H147	H	0.894031	0.285988	-0.082097
Cl148	Cl	0.260258	1.117679	-0.129089
H149	H	0.428975	0.982606	-0.106755
Cl150	Cl	0.928209	0.502410	-0.192002
H151	H	0.710050	0.314938	0.312519
H152	H	0.889045	0.577115	-0.670378
H153	H	0.929131	0.972774	-0.240560
Cl154	Cl	0.960005	1.100731	-0.359350
H155	H	0.929206	0.104120	-0.111072
H156	H	0.923978	-0.017399	-0.106766
Cl157	Cl	0.746566	0.848901	-0.529544
Cl158	Cl	1.388654	0.282980	0.079465
Cl159	Cl	0.902322	0.551732	-0.520060
Cl160	Cl	1.020481	0.421073	-0.104467
Cl161	Cl	0.727731	-0.020412	0.054854
H162	H	0.883079	0.438411	0.334518
Cl163	Cl	0.933819	0.491698	-0.337828
Cl164	Cl	0.734250	0.130750	0.049513
H165	H	1.219935	0.418038	0.057148
H166	H	0.873355	0.325522	0.456031
