data_functionalizedCrystal
_audit_creation_method	'MofGen! by Chris Wilmer'
_symmetry_space_group_name_H-M	'P1'
_symmetry_Int_Tables_number	1
_symmetry_cell_setting	triclinic
loop_
_symmetry_equiv_pos_as_xyz
  x,y,z
_cell_length_a	13.635800
_cell_length_b	27.923497
_cell_length_c	17.982968
_cell_angle_alpha	83.135867
_cell_angle_beta	102.451960
_cell_angle_gamma	81.035752
loop_
_atom_site_label
_atom_site_type_symbol
_atom_site_fract_x
_atom_site_fract_y
_atom_site_fract_z
V1	V	1.996407	-0.067583	0.238054
O2	O	2.001869	0.002780	0.233006
O3	O	1.961335	-0.133556	0.236922
O4	O	1.969798	-0.066749	0.341651
O5	O	1.993347	-0.064490	0.127552
V6	V	2.239942	-0.059142	0.224777
O7	O	2.123146	-0.086098	0.267178
O8	O	2.338302	-0.040628	0.195652
O9	O	2.163411	0.006830	0.225908
O10	O	2.293178	-0.129505	0.229825
O11	O	2.301701	-0.062236	0.335278
O12	O	2.154948	-0.059977	0.121180
V13	V	2.496407	-0.067583	0.238054
O14	O	2.501869	0.002780	0.233006
O15	O	2.461335	-0.133556	0.236922
O16	O	2.469798	-0.066749	0.341651
O17	O	2.493347	-0.064490	0.127552
V18	V	2.739942	-0.059142	0.224777
O19	O	2.623146	-0.086098	0.267178
O20	O	2.838302	-0.040628	0.195652
O21	O	2.663411	0.006830	0.225908
O22	O	2.793178	-0.129505	0.229825
O23	O	2.801701	-0.062236	0.335278
O24	O	2.654948	-0.059977	0.121180
C25	C	1.881268	-0.149632	0.233295
C26	C	1.893220	-0.203567	0.233061
C27	C	1.950169	-0.530953	0.161700
C28	C	1.995121	-0.733659	0.160777
O29	O	1.986311	-0.753865	0.101278
N30	N	2.017984	-0.766066	0.230487
C31	C	2.029615	-0.747795	0.300432
O32	O	2.050102	-0.780010	0.359704
C33	C	1.984669	-0.545090	0.301354
C34	C	1.961796	-0.512685	0.231640
C35	C	1.927298	-0.498548	0.091991
C36	C	1.916056	-0.447875	0.092222
C37	C	1.927683	-0.429606	0.162162
C38	C	1.950554	-0.462011	0.231871
C39	C	1.996307	-0.526820	0.371299
C40	C	1.985071	-0.476140	0.371524
C41	C	1.962198	-0.443734	0.301809
C42	C	1.950938	-0.393069	0.302042
N43	N	1.928076	-0.360662	0.232333
C44	C	1.916449	-0.378930	0.162393
C45	C	2.053209	-0.854217	0.299943
C46	C	2.064443	-0.904893	0.299713
C47	C	2.029951	-0.890753	0.160057
C48	C	2.018709	-0.840077	0.160288
C49	C	2.030346	-0.821810	0.230233
C50	C	1.892838	-0.272513	0.162883
C51	C	1.881592	-0.221836	0.163121
C52	C	1.916090	-0.235979	0.302775
C53	C	1.927331	-0.286652	0.302539
C54	C	1.915706	-0.304917	0.232586
O55	O	1.959745	-0.372829	0.361510
O56	O	1.895984	-0.346707	0.103131
C57	C	1.961412	-0.581627	0.161469
C58	C	1.984282	-0.614032	0.231178
C59	C	1.995909	-0.595763	0.301118
C60	C	1.995516	-0.664707	0.230947
C61	C	1.983889	-0.682976	0.161007
C62	C	1.961027	-0.650569	0.091298
C63	C	1.949784	-0.599895	0.091529
C64	C	2.018772	-0.628170	0.370827
C65	C	2.030012	-0.678843	0.370590
C66	C	2.018384	-0.697112	0.300650
C67	C	1.892064	-0.064412	0.366885
C68	C	1.910878	-0.064167	0.451580
C69	C	2.075148	0.022904	0.229533
C70	C	2.052816	0.076839	0.229773
C71	C	2.064353	-0.062315	0.095941
C72	C	2.035158	-0.062558	0.011246
C73	C	2.381268	-0.149632	0.233295
C74	C	2.393220	-0.203567	0.233061
C75	C	2.392064	-0.064412	0.366885
C76	C	2.410878	-0.064167	0.451580
C77	C	2.010276	-0.066482	0.495269
C78	C	2.027948	-0.066251	0.574848
C79	C	1.946221	-0.063708	0.610737
C80	C	1.846814	-0.061390	0.567042
C81	C	1.829143	-0.061618	0.487463
C82	C	1.918079	-0.060471	0.887972
C83	C	1.935760	-0.060245	0.967556
C84	C	2.116885	-0.065105	0.975356
C85	C	2.099213	-0.065333	0.895778
C86	C	1.999808	-0.063012	0.852089
C87	C	1.980647	-0.063262	0.765800
C88	C	1.965382	-0.063462	0.697025
C89	C	2.575148	0.022904	0.229533
C90	C	2.552816	0.076839	0.229773
C91	C	2.564353	-0.062315	0.095941
C92	C	2.535158	-0.062558	0.011246
C93	C	2.489396	-0.231377	0.236776
C94	C	2.500643	-0.282056	0.236567
C95	C	2.415710	-0.304924	0.232638
C96	C	2.319527	-0.277111	0.228925
C97	C	2.308283	-0.226433	0.229139
C98	C	2.510282	-0.066478	0.495255
C99	C	2.527972	-0.066240	0.574833
C100	C	2.446258	-0.063696	0.610735
C101	C	2.346845	-0.061383	0.567054
C102	C	2.329155	-0.061617	0.487477
C103	C	2.629133	0.104648	0.226060
C104	C	2.608158	0.155327	0.226272
C105	C	2.510867	0.178195	0.230203
C106	C	2.434544	0.150382	0.233914
C107	C	2.455517	0.099705	0.233696
C108	C	2.434643	-0.065097	-0.024637
C109	C	2.407195	-0.065320	-0.104218
C110	C	2.480266	-0.063007	-0.147914
C111	C	2.580789	-0.060466	-0.112026
C112	C	2.608234	-0.060240	-0.032447
H113	H	1.862963	-0.195452	0.106348
C114	C	2.637335	-0.068788	0.622868
N115	N	2.719706	-0.070707	0.659046
H116	H	2.229962	-0.203794	0.226110
C117	C	2.189120	-0.068128	0.856304
N118	N	2.256839	-0.070231	0.826572
H119	H	2.457908	-0.063197	-0.212709
C120	C	2.256953	-0.058530	0.606546
N121	N	2.189243	-0.056364	0.636289
C122	C	2.219802	-0.059083	0.439445
N123	N	2.137433	-0.057177	0.403271
C124	C	2.354244	-0.067638	0.023413
N125	N	2.293678	-0.069549	0.059598
H126	H	2.325340	-0.067389	-0.133426
C127	C	1.808736	-0.057930	0.839927
N128	N	1.726374	-0.056020	0.803737
H129	H	2.576831	-0.068551	0.466034
C130	C	2.718813	-0.057450	0.007016
N131	N	2.802105	-0.055349	0.036736
H132	H	2.708358	0.086036	0.222859
H133	H	2.558562	-0.212764	0.239970
H134	H	2.460676	-0.063506	0.675533
C135	C	2.371557	0.069118	0.237791
N136	N	2.308313	0.046083	0.240877
C137	C	2.487808	0.233943	0.230433
N138	N	2.470446	0.275933	0.230604
H139	H	1.883371	-0.287378	0.105922
C140	C	2.692141	0.185908	0.222222
N141	N	2.755402	0.208940	0.219182
C142	C	2.055173	-0.714484	0.447287
N143	N	2.074133	-0.741328	0.505054
H144	H	2.640276	-0.058581	-0.147615
H145	H	2.197827	-0.066992	1.010937
C146	C	2.327526	0.175545	0.238237
N147	N	2.246922	0.194499	0.241497
C148	C	2.226105	-0.302272	0.224589
N149	N	2.155739	-0.321225	0.221315
H150	H	1.748200	-0.059720	0.451889
C151	C	2.428095	-0.360671	0.232397
N152	N	2.437428	-0.402660	0.232213
H153	H	1.869201	-0.058173	0.996774
H154	H	1.897438	-0.421494	0.035454
H155	H	1.917831	-0.513416	0.035035
H156	H	2.000084	-0.813695	0.103521
H157	H	2.020481	-0.905636	0.103109
H158	H	2.578967	-0.304694	0.239588
C159	C	2.089591	-0.940533	0.376403
N160	N	2.108540	-0.967376	0.434170
H161	H	2.062684	-0.839350	0.356904
H162	H	2.014932	-0.553196	0.428069
H163	H	1.994560	-0.461271	0.428483
H164	H	1.945939	-0.313038	0.359305
H165	H	1.925551	-0.221096	0.359719
H166	H	1.951555	-0.665451	0.034350
C167	C	1.924628	-0.564255	0.014837
N168	N	1.905683	-0.537414	-0.042932
H169	H	2.076831	-0.068557	0.466055
C170	C	2.031552	-0.608082	0.447770
N171	N	2.041169	-0.592955	0.505729
H172	H	2.108886	-0.068134	0.610415
H173	H	1.780271	-0.059316	0.596268
