data_functionalizedCrystal
_audit_creation_method	'MofGen! by Chris Wilmer'
_symmetry_space_group_name_H-M	'P1'
_symmetry_Int_Tables_number	1
_symmetry_cell_setting	triclinic
loop_
_symmetry_equiv_pos_as_xyz
  x,y,z
_cell_length_a	10.540539
_cell_length_b	10.540539
_cell_length_c	9.616153
_cell_angle_alpha	89.995174
_cell_angle_beta	89.999295
_cell_angle_gamma	95.474509
loop_
_atom_site_label
_atom_site_type_symbol
_atom_site_fract_x
_atom_site_fract_y
_atom_site_fract_z
O1	O	-0.178895	1.685892	-0.115570
O2	O	-0.195751	1.316479	-0.115586
O3	O	-0.002617	1.509614	-0.115579
O4	O	-0.372030	1.492758	-0.115578
O5	O	-0.002621	1.509587	0.115712
O6	O	-0.195755	1.316452	0.115705
O7	O	-0.178899	1.685865	0.115721
Zn8	Zn	-0.187328	1.501155	0.152436
Zn9	Zn	-0.187323	1.501190	-0.152301
O10	O	-0.372034	1.492731	0.115714
C11	C	-0.194489	1.269163	0.000057
C12	C	-0.190707	1.128215	0.000051
C13	C	-0.045790	0.944788	0.000590
C14	C	-0.049624	1.091406	0.000054
C15	C	-0.258600	1.066557	-0.132023
C16	C	-0.253785	0.920013	-0.132119
C17	C	-0.256660	0.919494	0.130903
C18	C	-0.257959	1.066476	0.132634
C19	C	-0.419335	1.494008	0.000068
C20	C	-0.560283	1.497790	0.000069
C21	C	-0.743710	1.642708	-0.000460
C22	C	-0.597092	1.638874	0.000073
C23	C	-0.621951	1.429880	0.132141
C24	C	-0.768496	1.434695	0.132240
C25	C	-0.768993	1.431855	-0.130781
C26	C	-0.622011	1.430556	-0.132516
C27	C	0.044684	1.508336	0.000063
C28	C	0.185632	1.504554	0.000054
C29	C	-0.180161	1.733182	0.000075
C30	C	-0.183943	1.874130	0.000072
N31	N	-0.187331	1.501140	0.360410
N32	N	-0.187310	1.501215	-0.360275
C33	C	-0.290298	1.397510	0.580776
C34	C	-0.290684	1.397739	0.419609
C35	C	-0.217464	1.633864	0.418866
C36	C	-0.218193	1.633299	0.580084
C37	C	-0.053892	1.473368	0.580320
C38	C	-0.054757	1.470321	0.419093
H39	H	-0.211434	1.109157	-0.230315
H40	H	-0.144501	1.712918	0.380516
Cl41	Cl	-0.262719	1.244766	0.640656
Cl42	Cl	-0.019487	1.319575	0.360110
Cl43	Cl	0.064458	1.590104	0.639173
H44	H	-0.203603	0.891814	-0.230846
H45	H	-0.313702	1.658761	0.378477
H46	H	0.025564	1.540848	0.378800
H47	H	-0.816464	1.333230	0.138241
Cl48	Cl	-0.443522	1.425323	0.360036
H49	H	-0.362208	1.088911	-0.136936
H50	H	-0.800544	1.477524	-0.230889
H51	H	-0.554480	1.692316	-0.094597
H52	H	0.003797	1.134009	0.094730
Cl53	Cl	-0.410434	0.845947	-0.141377
H54	H	-0.211004	0.887936	0.231013
Cl55	Cl	-0.181255	1.129542	0.283487
H56	H	-0.816199	1.329944	-0.131662
H57	H	-0.597782	1.327699	-0.140498
H58	H	-0.315531	1.657653	0.617673
Cl59	Cl	0.033077	1.155839	-0.146621
H60	H	-0.581068	1.480181	-0.230222
H61	H	-0.599598	1.326271	0.137049
Cl62	Cl	-0.532627	1.721908	0.146509
Cl63	Cl	-0.556210	1.502687	0.283903
H64	H	0.009944	0.916192	0.095307
Cl65	Cl	0.039911	0.898162	-0.144823
H66	H	-0.774042	1.698252	0.093634
H67	H	-0.358563	0.872267	0.131795
Cl68	Cl	-0.262774	1.245459	0.358587
H69	H	-0.388722	1.415178	0.621276
H70	H	-0.796703	1.484864	0.230970
H71	H	-0.360819	1.090701	0.140609
Cl72	Cl	-0.106759	1.755999	0.640291
Cl73	Cl	-0.009637	1.327075	0.643158
H74	H	-0.772286	1.698443	-0.095188
