data_functionalizedCrystal
_audit_creation_method	'MofGen! by Chris Wilmer'
_symmetry_space_group_name_H-M	'P1'
_symmetry_Int_Tables_number	1
_symmetry_cell_setting	triclinic
loop_
_symmetry_equiv_pos_as_xyz
  x,y,z
_cell_length_a	19.077078
_cell_length_b	13.033385
_cell_length_c	19.077569
_cell_angle_alpha	85.399431
_cell_angle_beta	90.062085
_cell_angle_gamma	95.142817
loop_
_atom_site_label
_atom_site_type_symbol
_atom_site_fract_x
_atom_site_fract_y
_atom_site_fract_z
Zn1	Zn	-0.404906	-1.589774	-0.277951
Zn2	Zn	-0.525893	-1.575763	-0.166302
Zn3	Zn	-0.393654	-1.409594	-0.175256
Zn4	Zn	-0.506432	-1.410082	-0.297379
O5	O	-0.457721	-1.496303	-0.229222
O6	O	-0.433809	-1.732660	-0.251262
O7	O	-0.511786	-1.547653	-0.069656
O8	O	-0.297315	-1.439154	-0.184495
O9	O	-0.522698	-1.722366	-0.169235
O10	O	-0.305582	-1.571532	-0.259944
O11	O	-0.414631	-1.425569	-0.076234
O12	O	-0.395760	-1.264914	-0.203334
O13	O	-0.489529	-1.439987	-0.392636
O14	O	-0.478618	-1.265273	-0.293057
O15	O	-0.414939	-1.572005	-0.378362
O16	O	-0.621143	-1.548126	-0.188074
O17	O	-0.606845	-1.426401	-0.284375
C18	C	-0.433857	-1.227563	-0.251276
C19	C	-0.423664	-1.112595	-0.260728
C20	C	-0.452501	-0.937416	-0.234057
C21	C	-0.463039	-1.056241	-0.224285
C22	C	-0.639362	-1.485825	-0.237374
C23	C	-0.717077	-1.481439	-0.240877
C24	C	-1.153731	-1.449975	-0.266027
C25	C	-1.080710	-1.454096	-0.262728
C26	C	-1.051626	-1.519584	-0.210968
C27	C	-1.095568	-1.580962	-0.162508
C28	C	-1.168587	-1.576846	-0.165810
C29	C	-0.834038	-1.538701	-0.195719
C30	C	-0.761013	-1.542810	-0.192419
C31	C	-0.746160	-1.415945	-0.292641
C32	C	-0.819181	-1.411830	-0.295936
C33	C	-0.863117	-1.473212	-0.247479
N34	N	-0.976987	-1.523795	-0.207593
N35	N	-0.937755	-1.469006	-0.250857
C36	C	-0.275373	-1.506851	-0.221051
C37	C	-0.197667	-1.511346	-0.217570
C38	C	-0.451318	-1.507613	-0.411575
C39	C	-0.448590	-1.512433	-0.489283
C40	C	-0.481675	-0.766093	-0.207075
C41	C	-0.491872	-0.881060	-0.197619
C42	C	-0.486140	-1.445964	-0.533223
C43	C	-0.483577	-1.450501	-0.606238
C44	C	-0.443459	-1.521503	-0.635311
C45	C	-0.405908	-1.587980	-0.591365
C46	C	-0.408475	-1.583447	-0.518352
C47	C	-0.431620	-1.542435	-0.852879
C48	C	-0.429053	-1.546961	-0.925898
C49	C	-0.506724	-1.409483	-0.940765
C50	C	-0.509284	-1.404952	-0.867750
C51	C	-0.471736	-1.471432	-0.823811
N52	N	-0.440836	-1.526140	-0.709943
N53	N	-0.474363	-1.466799	-0.749180
C54	C	-0.464054	-1.485100	-0.047571
C55	C	-0.466604	-1.480492	0.030162
H56	H	-0.382155	-1.072879	-0.299163
O57	O	-0.546855	-0.933666	-0.146711
H58	H	-0.534883	-0.910254	-0.093010
O59	O	-1.185102	-1.379339	-0.321852
H60	H	-1.170696	-1.401218	-0.374645
H61	H	-1.044938	-1.404123	-0.302187
H62	H	-0.737337	-1.596141	-0.150266
H63	H	-0.537293	-1.355359	-0.976548
H64	H	-0.842855	-1.358490	-0.338078
H65	H	-1.071884	-1.634289	-0.120365
H66	H	-0.396378	-1.604776	-0.949567
O67	O	-0.391123	-1.614134	-0.805491
H68	H	-0.362792	-1.664259	-0.837977
O69	O	-0.518026	-1.108842	-0.173374
H70	H	-0.506054	-1.085430	-0.119673
H71	H	-1.204360	-1.626824	-0.126352
O72	O	-0.524078	-1.378812	-0.653633
H73	H	-0.486944	-1.330074	-0.689820
O74	O	-0.698776	-1.349751	-0.344911
H75	H	-0.643114	-1.363619	-0.333925
H76	H	-0.518798	-1.388134	-0.509559
O77	O	-0.552548	-1.328339	-0.836422
H78	H	-0.593408	-1.370470	-0.800945
H79	H	-0.373247	-1.645796	-0.615042
H80	H	-0.377898	-1.637573	-0.482576
O81	O	-0.881421	-1.604892	-0.143451
H82	H	-0.848927	-1.651108	-0.106900
H83	H	-0.410997	-0.897694	-0.272491
