data_functionalizedCrystal
_audit_creation_method	'MofGen! by Chris Wilmer'
_symmetry_space_group_name_H-M	'P1'
_symmetry_Int_Tables_number	1
_symmetry_cell_setting	triclinic
loop_
_symmetry_equiv_pos_as_xyz
  x,y,z
_cell_length_a	10.685661
_cell_length_b	21.295417
_cell_length_c	10.685880
_cell_angle_alpha	94.333805
_cell_angle_beta	81.602365
_cell_angle_gamma	85.650573
loop_
_atom_site_label
_atom_site_type_symbol
_atom_site_fract_x
_atom_site_fract_y
_atom_site_fract_z
Zn1	Zn	1.995476	-0.360084	-0.866048
Zn2	Zn	1.979014	-0.456623	-0.653770
Zn3	Zn	1.766933	-0.342632	-0.637586
Zn4	Zn	1.783133	-0.456566	-0.849726
O5	O	1.881139	-0.403976	-0.751782
O6	O	2.170915	-0.380218	-0.851493
O7	O	1.937212	-0.434222	-0.474003
O8	O	1.797359	-0.256864	-0.667949
O9	O	2.158820	-0.451144	-0.695534
O10	O	1.965268	-0.269686	-0.835799
O11	O	1.781397	-0.350474	-0.462112
O12	O	1.591459	-0.350418	-0.652122
O13	O	1.824970	-0.451047	-1.029511
O14	O	1.603362	-0.434124	-0.807981
O15	O	1.980977	-0.380163	-1.041503
O16	O	1.952920	-0.544698	-0.679707
O17	O	1.809008	-0.544656	-0.823674
C18	C	1.551355	-0.390372	-0.726525
C19	C	1.410274	-0.384568	-0.715749
C20	C	1.880972	-0.567519	-0.751706
C21	C	1.881020	-0.637489	-0.751724
C22	C	1.968409	-0.676976	-0.839178
C23	C	1.968456	-0.742721	-0.839213
C24	C	1.881126	-0.768978	-0.751772
C25	C	1.793722	-0.729482	-0.664311
C26	C	1.793669	-0.663738	-0.664287
N27	N	1.863016	-0.867279	-0.639957
N28	N	1.863074	-0.929733	-0.639984
C29	C	1.881279	-0.967061	-0.751841
N30	N	1.899449	-0.939575	-0.863674
N31	N	1.899397	-0.877115	-0.863646
C32	C	1.881174	-0.840265	-0.751789
C33	C	1.968723	-1.077836	-0.839340
C34	C	1.968762	-1.143583	-0.839376
C35	C	1.794034	-1.130343	-0.664463
C36	C	1.793989	-1.064598	-0.664438
C37	C	1.881341	-1.038349	-0.751875
C38	C	2.212211	-0.417634	-0.777139
C39	C	2.353294	-0.423455	-0.787945
C40	C	1.906617	-0.417545	-1.082850
C41	C	1.917474	-0.423328	-1.223931
C42	C	1.881343	-0.239798	-0.751890
C43	C	1.881430	-0.169835	-0.751935
C44	C	1.855833	-0.390418	-0.422009
C45	C	1.845222	-0.384468	-0.280947
H46	H	1.351120	-0.346832	-0.645695
N47	N	1.757187	-0.337188	-1.206774
N48	N	1.748183	-0.332400	-1.088428
H49	H	1.686006	-0.299008	-1.036034
H50	H	2.039532	-0.655606	-0.910378
H51	H	1.412442	-0.461183	-0.858006
H52	H	2.039847	-1.056464	-0.910540
H53	H	1.987648	-0.461025	-1.283055
H54	H	1.722921	-1.151720	-0.593274
H55	H	2.039608	-0.774877	-0.910443
N56	N	2.058029	-1.183911	-0.928733
N57	N	2.136006	-1.160462	-1.006792
H58	H	2.199053	-1.188944	-1.069905
H59	H	1.722505	-0.631587	-0.593070
N60	N	1.704518	-0.756310	-0.575008
N61	N	1.704576	-0.815010	-0.575040
H62	H	1.641569	-0.833957	-0.511971
H63	H	1.722834	-1.032446	-0.593219
