data_functionalizedCrystal
_audit_creation_method	'MofGen! by Chris Wilmer'
_symmetry_space_group_name_H-M	'P1'
_symmetry_Int_Tables_number	1
_symmetry_cell_setting	triclinic
loop_
_symmetry_equiv_pos_as_xyz
  x,y,z
_cell_length_a	17.699083
_cell_length_b	14.971496
_cell_length_c	13.448316
_cell_angle_alpha	89.992488
_cell_angle_beta	89.999267
_cell_angle_gamma	83.450570
loop_
_atom_site_label
_atom_site_type_symbol
_atom_site_fract_x
_atom_site_fract_y
_atom_site_fract_z
O1	O	1.004360	0.113112	-0.082554
O2	O	0.784018	0.127828	-0.082587
O3	O	0.900091	-0.009750	-0.082561
O4	O	0.888287	0.250690	-0.082581
O5	O	0.900076	-0.009758	0.082823
O6	O	0.784003	0.127820	0.082797
O7	O	1.004345	0.113104	0.082829
Cu8	Cu	0.894173	0.120461	0.097914
Cu9	Cu	0.894190	0.120471	-0.097672
O10	O	0.888272	0.250681	0.082803
C11	C	0.755812	0.127297	0.000101
C12	C	0.671790	0.125715	0.000088
C13	C	0.899554	-0.043077	0.000131
C14	C	0.897968	-0.142368	0.000131
C15	C	0.891150	-0.570044	-0.090047
C16	C	0.892644	-0.476750	-0.090042
C17	C	0.893378	-0.430113	0.000113
C18	C	0.892625	-0.476777	0.090268
C19	C	0.891137	-0.570070	0.090263
C20	C	0.895726	-0.282324	0.090274
C21	C	0.897214	-0.189025	0.090280
C22	C	0.897234	-0.189004	-0.090031
C23	C	0.895745	-0.282297	-0.090037
C24	C	0.894991	-0.328954	0.000120
C25	C	0.623371	0.206470	0.000083
C26	C	0.544424	0.204978	0.000096
C27	C	0.513898	0.122730	0.000107
C28	C	0.562324	0.041969	0.000116
C29	C	0.641269	0.043461	0.000110
C30	C	0.243946	0.035947	0.000141
C31	C	0.164994	0.034461	0.000144
C32	C	0.147100	0.197464	0.000126
C33	C	0.226046	0.198957	0.000121
C34	C	0.274465	0.118196	0.000134
C35	C	0.360068	0.119814	0.000122
C36	C	0.428296	0.121111	0.000112
C37	C	1.032551	0.113635	0.000139
C38	C	1.116573	0.115217	0.000145
C39	C	0.888809	0.284008	0.000109
C40	C	0.890395	0.383300	0.000102
N41	N	0.894166	0.120453	0.235478
N42	N	0.894203	0.120471	-0.235236
C43	C	0.945579	0.059559	0.287530
C44	C	0.945584	0.059558	0.391633
C45	C	0.894179	0.120457	0.443683
C46	C	0.842760	0.181354	0.391623
C47	C	0.842753	0.181350	0.287522
C48	C	0.842781	0.181360	0.608604
C49	C	0.842790	0.181366	0.712712
C50	C	0.945613	0.059568	0.712715
C51	C	0.945605	0.059564	0.608613
C52	C	0.894187	0.120463	0.556561
H53	H	0.890545	-0.608007	-0.163461
H54	H	0.140144	-0.032519	0.000155
C55	C	0.893464	-0.425430	-0.189211
C56	C	0.958930	-0.448550	-0.263586
C57	C	0.959749	-0.397233	-0.362761
C58	C	0.895102	-0.322796	-0.387560
C59	C	0.829631	-0.299673	-0.313183
C60	C	0.828813	-0.350990	-0.214008
H61	H	1.006790	-0.503656	-0.245230
H62	H	1.008215	-0.414351	-0.417820
H63	H	0.895708	-0.284808	-0.460975
H64	H	0.781771	-0.244567	-0.331539
H65	H	0.780346	-0.333872	-0.158949
C66	C	1.002150	-0.007422	0.551354
C67	C	1.000793	-0.109278	0.565678
C68	C	1.057336	-0.176266	0.508416
C69	C	1.115237	-0.141398	0.436831
C70	C	1.116597	-0.039537	0.422504
C71	C	1.060053	0.027451	0.479765
H72	H	0.957929	-0.135094	0.618672
H73	H	1.056330	-0.251670	0.519023
H74	H	1.157094	-0.190987	0.394443
H75	H	1.159461	-0.013722	0.369509
H76	H	1.061060	0.102855	0.469159
H77	H	0.895143	-0.320265	-0.163448
C78	C	0.297200	-0.052888	0.000139
C79	C	0.263620	-0.143356	0.000138
C80	C	0.316879	-0.232195	0.000131
C81	C	0.403717	-0.230567	0.000125
C82	C	0.437301	-0.140095	0.000125
C83	C	0.384043	-0.051255	0.000132
H84	H	0.199333	-0.144565	0.000143
H85	H	0.292017	-0.299168	0.000131
H86	H	0.443142	-0.296331	0.000120
H87	H	0.501588	-0.138886	0.000121
H88	H	0.408905	0.015718	0.000133
H89	H	0.107667	0.263224	0.000120
C90	C	0.694535	-0.045370	0.000114
C91	C	0.691065	-0.112818	0.086001
C92	C	0.744331	-0.201652	0.086010
C93	C	0.801066	-0.223039	0.000133
C94	C	0.804538	-0.155590	-0.085760
C95	C	0.751273	-0.066755	-0.085770
H96	H	0.649064	-0.096988	0.149578
H97	H	0.741760	-0.251582	0.149595
H98	H	0.840496	-0.288799	0.000140
H99	H	0.846539	-0.171420	-0.149337
H100	H	0.753843	-0.016825	-0.149354
H101	H	0.537464	-0.024999	0.000139
C102	C	0.259625	0.289429	0.000115
C103	C	0.311436	0.312880	-0.085766
C104	C	0.345015	0.403353	-0.085764
C105	C	0.326783	0.470377	0.000117
C106	C	0.274969	0.446928	0.086004
C107	C	0.241390	0.356454	0.086003
H108	H	0.324935	0.263264	-0.149346
H109	H	0.383372	0.420711	-0.149344
H110	H	0.351641	0.537351	0.000118
H111	H	0.261471	0.496544	0.149585
H112	H	0.203034	0.339096	0.149583
H113	H	0.897841	-0.151010	-0.163439
H114	H	0.648218	0.273446	0.000072
H115	H	0.890522	-0.608057	0.163671
H116	H	0.987443	0.009972	0.245158
C117	C	1.002170	-0.007424	0.769970
C118	C	1.002176	-0.007426	0.884477
C119	C	1.058733	-0.074411	0.941739
C120	C	1.115284	-0.141395	0.884494
C121	C	1.115280	-0.141396	0.769980
C122	C	1.058723	-0.074411	0.712718
H123	H	0.960312	0.042162	0.926860
H124	H	1.058736	-0.074410	1.026510
H125	H	1.157151	-0.190982	0.926882
H126	H	1.157144	-0.190984	0.727598
H127	H	1.058720	-0.074412	0.627947
H128	H	0.800930	0.230955	0.755085
C129	C	0.786199	0.248337	0.230262
C130	C	0.729680	0.315356	0.287510
C131	C	0.673121	0.382342	0.230252
C132	C	0.673081	0.382309	0.115745
C133	C	0.729602	0.315288	0.058489
C134	C	0.786161	0.248302	0.115748
H135	H	0.729707	0.315383	0.372281
H136	H	0.631281	0.431956	0.272637
H137	H	0.631213	0.431896	0.073358
H138	H	0.729574	0.315261	-0.026282
H139	H	0.828001	0.198688	0.073363
H140	H	0.897787	-0.151052	0.163692
C141	C	0.894890	-0.333656	0.189440
C142	C	0.828188	-0.387499	0.214197
C143	C	0.827345	-0.438834	0.313357
C144	C	0.893204	-0.436326	0.387762
C145	C	0.959911	-0.382482	0.363008
C146	C	0.960754	-0.331147	0.263847
H147	H	0.779431	-0.389357	0.159116
H148	H	0.777964	-0.478694	0.331682
H149	H	0.892581	-0.474328	0.461167
H150	H	1.008669	-0.380624	0.418088
H151	H	1.010135	-0.291287	0.245523
H152	H	0.893228	-0.438799	0.163674
H153	H	0.505003	0.270737	0.000090
H154	H	0.987448	0.009973	0.434014
H155	H	0.800909	0.230948	0.566226
H156	H	0.800901	0.230936	0.434008
