data_functionalizedCrystal
_audit_creation_method	'MofGen! by Chris Wilmer'
_symmetry_space_group_name_H-M	'P1'
_symmetry_Int_Tables_number	1
_symmetry_cell_setting	triclinic
loop_
_symmetry_equiv_pos_as_xyz
  x,y,z
_cell_length_a	20.919309
_cell_length_b	20.919467
_cell_length_c	21.606444
_cell_angle_alpha	61.854563
_cell_angle_beta	90.000567
_cell_angle_gamma	59.192966
loop_
_atom_site_label
_atom_site_type_symbol
_atom_site_fract_x
_atom_site_fract_y
_atom_site_fract_z
Zr1	Zr	0.676869	0.614216	-0.023020
O2	O	0.578146	0.748111	-0.118434
O3	O	0.702136	0.485751	0.001385
O4	O	0.709335	0.611822	-0.120752
O5	O	0.570952	0.622036	0.105557
O6	O	0.818504	0.603756	-0.117070
O7	O	0.570947	0.622040	0.003703
O8	O	0.805627	0.378238	0.101411
O9	O	0.583830	0.847554	-0.112924
O10	O	0.800421	0.530560	0.020394
O11	O	0.718954	0.536576	0.093659
O12	O	0.727429	0.685008	-0.050142
O13	O	0.645962	0.691024	0.023123
Zr14	Zr	0.850989	0.601345	0.145297
Zr15	Zr	0.850981	0.601352	-0.017149
Zr16	Zr	0.676878	0.614209	0.139425
Zr17	Zr	0.685934	0.772815	-0.014232
Zr18	Zr	0.841924	0.442746	0.136509
O19	O	0.825722	0.729810	0.120891
O20	O	0.825710	0.729821	-0.110085
O21	O	0.578158	0.748101	0.112542
O22	O	0.949713	0.467449	0.240711
O23	O	0.949701	0.467460	0.009734
O24	O	0.702148	0.485740	0.232362
O25	O	0.956907	0.593525	0.016719
O26	O	0.818523	0.603739	0.243029
O27	O	0.709354	0.611805	0.239347
O28	O	0.956912	0.593520	0.118574
O29	O	0.722225	0.837329	-0.108257
O30	O	0.805633	0.378232	0.230533
O31	O	0.944029	0.368007	0.235201
O32	O	0.944022	0.368013	0.106078
O33	O	0.583836	0.847548	0.016198
O34	O	0.722232	0.837323	0.020866
O35	O	0.800429	0.530553	0.172419
O36	O	0.881897	0.524537	0.099154
O37	O	0.808905	0.678985	0.028618
O38	O	0.727437	0.685001	0.101883
C39	C	0.752590	0.409397	0.050146
C40	C	0.748741	0.342068	0.046415
C41	C	0.803932	0.251202	0.099763
C42	C	0.800281	0.187961	0.096252
C43	C	0.741441	0.215587	0.039390
C44	C	0.686245	0.306462	-0.013960
C45	C	0.689894	0.369701	-0.010446
C46	C	0.727570	0.027608	0.026025
C47	C	0.723926	-0.035641	0.022514
C48	C	0.837962	-0.154138	0.132727
C49	C	0.841608	-0.090892	0.136234
C50	C	0.786409	-0.000023	0.082886
C51	C	0.737709	0.150945	0.035799
C52	C	0.790139	0.064617	0.086481
C53	C	0.546142	0.623871	0.053793
C54	C	0.472227	0.629332	0.051301
C55	C	0.475600	0.551279	0.086945
C56	C	0.406147	0.556416	0.084601
C57	C	0.333321	0.639606	0.046608
C58	C	0.329949	0.717664	0.010964
C59	C	0.399402	0.712527	0.013312
C60	C	0.121713	0.659150	0.037680
C61	C	0.052258	0.664282	0.035332
C62	C	0.128461	0.503033	0.108971
C63	C	0.197911	0.497903	0.111312
C64	C	0.194534	0.575961	0.075671
C65	C	0.262327	0.644858	0.044210
C66	C	0.265526	0.570708	0.078074
C67	C	0.981716	0.591690	0.068483
C68	C	1.055631	0.586229	0.070976
C69	C	0.763919	0.607790	-0.142056
C70	C	0.763915	0.607793	-0.211019
C71	C	0.775269	0.806164	0.072131
C72	C	0.779117	0.873493	0.075861
C73	C	0.725814	0.688413	-0.280236
C74	C	0.725821	0.688410	-0.345031
C75	C	0.763924	0.607787	-0.340607
C76	C	0.802031	0.527161	-0.271382
C77	C	0.802028	0.527164	-0.206588
C78	C	0.802043	0.527145	-0.532685
C79	C	0.802040	0.527148	-0.597486
C80	C	0.725835	0.688391	-0.671128
C81	C	0.725833	0.688394	-0.606334
C82	C	0.763942	0.607768	-0.537115
C83	C	0.763935	0.607772	-0.466858
C84	C	0.763927	0.607782	-0.410863
C85	C	0.763940	0.607771	0.264333
C86	C	0.763943	0.607768	0.333295
C87	C	0.970377	0.393307	0.057491
C88	C	1.040444	0.320517	0.056253
C89	C	0.752600	0.409388	0.253340
C90	C	0.748756	0.342055	0.318572
C91	C	0.970388	0.393298	0.260685
C92	C	1.040458	0.320504	0.328410
C93	C	0.557471	0.822263	-0.138409
C94	C	0.487401	0.895057	-0.206133
C95	C	0.557481	0.822254	0.064786
C96	C	0.487415	0.895044	0.066024
C97	C	0.775258	0.806173	-0.131064
C98	C	0.779103	0.873505	-0.196295
C99	C	1.030818	0.289477	0.014553
C100	C	1.096647	0.221092	0.013374
C101	C	1.172100	0.183743	0.053901
C102	C	1.181724	0.214789	0.095603
C103	C	1.115896	0.283177	0.096776
C104	C	0.789479	0.307292	0.390324
C105	C	0.785864	0.244035	0.451623
C106	C	0.741529	0.215538	0.441168
C107	C	0.700800	0.250308	0.369408
C108	C	0.704412	0.313569	0.308111
C109	C	1.115896	0.283179	0.321970
C110	C	1.181741	0.214790	0.385599
C111	C	1.172147	0.183723	0.455666
C112	C	1.096701	0.221055	0.462104
C113	C	1.030857	0.289447	0.398476
C114	C	0.411963	0.932390	-0.199693
C115	C	0.346119	1.000798	-0.263321
C116	C	0.355714	1.031868	-0.333388
C117	C	0.431159	0.994532	-0.339826
C118	C	0.497002	0.926129	-0.276199
C119	C	0.497041	0.926090	0.107718
C120	C	0.431213	0.994493	0.108879
C121	C	0.355760	1.031844	0.068350
C122	C	0.346135	1.000795	0.026651
C123	C	0.411963	0.932398	0.025486
C124	C	0.823445	0.901981	-0.185817
C125	C	0.827073	0.965238	-0.247102
C126	C	0.786354	1.000022	-0.318866
C127	C	0.742010	0.971540	-0.329344
C128	C	0.738387	0.908280	-0.268059
H129	H	0.845223	0.113975	0.139693
O130	O	0.684725	0.775366	-0.419687
H131	H	0.637940	0.782539	-0.452491
H132	H	1.243167	0.184401	0.380344
H133	H	1.088795	0.195824	-0.020584
O134	O	0.622781	0.336258	-0.075288
H135	H	0.585012	0.410070	-0.111789
H136	H	0.851847	0.228697	0.146064
O137	O	0.653008	0.219544	0.358134
H138	H	0.657360	0.169700	0.412817
H139	H	0.534895	0.483537	0.117886
O140	O	0.441606	1.027962	0.153864
H141	H	0.411301	1.018014	0.196043
H142	H	1.123744	0.308440	0.130738
O143	O	1.243098	0.109975	0.052639
H144	H	1.223721	0.094665	0.016838
H145	H	0.302093	1.087567	-0.385191
O146	O	1.086366	0.187529	0.537682
H147	H	1.055687	0.243108	0.546098
O148	O	0.401596	0.898895	-0.124129
H149	H	0.427199	0.826925	-0.095580
H150	H	0.825582	0.330486	0.398851
O151	O	0.949493	0.329681	0.405431
H152	H	0.944077	0.359011	0.438264
H153	H	0.671251	0.341866	0.249689
O154	O	0.264751	1.041088	-0.017062
H155	H	0.230391	1.031430	0.021196
H156	H	0.302166	1.087537	0.069305
O157	O	0.441504	1.028041	-0.415400
H158	H	0.383040	1.081869	-0.458556
O159	O	1.263111	0.174492	0.139314
H160	H	1.273227	0.227062	0.119569
O161	O	0.409782	0.472231	0.123034
H162	H	0.472091	0.413522	0.149835
O163	O	0.401577	0.898907	-0.019478
H164	H	0.338048	0.936369	-0.047455
O165	O	0.829809	0.206523	0.529016
H166	H	0.861257	0.236955	0.525981
O167	O	1.126262	0.316677	0.246405
H168	H	1.067808	0.370503	0.203233
O169	O	0.737651	0.147291	0.507283
H170	H	0.773431	0.127899	0.558931
H171	H	1.225767	0.128033	0.507470
H172	H	0.203025	0.712591	0.013277
O173	O	0.264749	1.041046	-0.256371
H174	H	0.269145	1.007930	-0.196959
O175	O	0.843135	0.440195	-0.266598
H176	H	0.799991	0.439649	-0.295865
H177	H	0.558425	0.895733	-0.281451
H178	H	0.270648	0.785399	-0.019966
H179	H	0.863181	0.988421	-0.238557
O180	O	0.867376	0.864460	-0.108418
H181	H	0.898826	0.894887	-0.111440
H182	H	0.396651	0.776086	-0.015704
H183	H	0.558472	0.895684	0.140726
O184	O	0.790253	1.068264	-0.384965
H185	H	0.827922	1.082226	-0.365614
H186	H	0.833054	0.461515	-0.150228
O187	O	0.690555	0.877571	-0.279360
H188	H	0.628228	0.935516	-0.310085
O189	O	0.698090	1.009047	-0.406742
H190	H	0.655070	1.082306	-0.435878
O191	O	0.905070	-0.120690	0.197564
H192	H	0.899910	-0.158874	0.251911
O193	O	0.897490	-0.252143	0.190271
H194	H	0.885066	-0.291479	0.178281
H195	H	0.676012	-0.013137	-0.023794
O196	O	0.949441	0.329762	-0.029169
H197	H	0.953820	0.296689	-0.058369
H198	H	0.644945	0.443690	-0.053881
O199	O	0.668045	0.125607	-0.031527
H200	H	0.608206	0.144238	-0.030041
O201	O	0.853606	0.034824	0.147800
H202	H	0.826204	0.063165	0.180632
H203	H	0.694780	0.754066	-0.283848
O204	O	0.674258	0.180728	-0.025533
H205	H	0.615817	0.223630	-0.022692
O206	O	0.276460	0.408177	0.152287
H207	H	0.267137	0.354763	0.176682
H208	H	-0.007042	0.732028	0.004391
O209	O	0.132104	0.418843	0.147417
H210	H	0.071577	0.436387	0.139408
H211	H	0.324824	0.502975	0.109011
O212	O	0.118069	0.743337	-0.000771
H213	H	0.055760	0.802044	-0.027592
H214	H	0.694801	0.754046	-0.609944
H215	H	0.694807	0.754040	-0.727496
O216	O	0.843167	0.440185	-0.592715
H217	H	0.869681	0.384119	-0.533697
O218	O	0.843134	0.440190	-0.458032
H219	H	0.869619	0.384131	-0.465845
