data_functionalizedCrystal
_audit_creation_method	'MofGen! by Chris Wilmer'
_symmetry_space_group_name_H-M	'P1'
_symmetry_Int_Tables_number	1
_symmetry_cell_setting	triclinic
loop_
_symmetry_equiv_pos_as_xyz
  x,y,z
_cell_length_a	16.625546
_cell_length_b	12.759401
_cell_length_c	16.625539
_cell_angle_alpha	90.015268
_cell_angle_beta	90.028532
_cell_angle_gamma	90.023993
loop_
_atom_site_label
_atom_site_type_symbol
_atom_site_fract_x
_atom_site_fract_y
_atom_site_fract_z
Zn1	Zn	-0.320982	1.606151	0.455859
Zn2	Zn	-0.455821	1.606036	0.321021
Zn3	Zn	-0.321010	1.430467	0.321044
Zn4	Zn	-0.455780	1.430418	0.455816
O5	O	-0.388398	1.518268	0.388435
O6	O	-0.338875	1.753157	0.437982
O7	O	-0.437967	1.582718	0.208192
O8	O	-0.208174	1.453841	0.338955
O9	O	-0.437940	1.753072	0.338917
O10	O	-0.208153	1.582915	0.438003
O11	O	-0.338921	1.453729	0.208208
O12	O	-0.338882	1.283439	0.338913
O13	O	-0.437870	1.453757	0.568654
O14	O	-0.437897	1.283403	0.437929
O15	O	-0.338835	1.582867	0.568686
O16	O	-0.568648	1.582671	0.338875
O17	O	-0.568618	1.453645	0.437907
C18	C	-0.388388	1.245300	0.388419
C19	C	-0.388404	1.128524	0.388431
C20	C	-0.597889	1.518168	0.388401
C21	C	-0.687510	1.518222	0.388414
C22	C	-0.440039	1.073670	0.439908
C23	C	-0.440042	0.963946	0.439924
C24	C	-0.336772	0.963939	0.336980
C25	C	-0.336765	1.073661	0.336968
C26	C	-0.468985	0.814033	0.534979
C27	C	-0.520634	0.759176	0.586449
C28	C	-0.599323	0.794758	0.598682
C29	C	-0.626380	0.885196	0.559433
C30	C	-0.574736	0.940047	0.507958
C31	C	-0.496036	0.904466	0.495740
C32	C	-0.307831	1.223576	0.241912
C33	C	-0.256190	1.278429	0.190432
C34	C	-0.177499	1.242849	0.178191
C35	C	-0.150445	1.152408	0.217425
C36	C	-0.202085	1.097555	0.268905
C37	C	-0.280775	1.133143	0.281147
C38	C	-1.015686	1.518405	0.388498
C39	C	-0.924377	1.518351	0.388477
C40	C	-0.851601	1.518313	0.388455
C41	C	-0.760287	1.518260	0.388435
C42	C	-0.178089	1.518396	0.388487
C43	C	-0.088468	1.518451	0.388509
C44	C	-0.388345	1.518319	0.598744
C45	C	-0.388322	1.518341	0.688365
C46	C	-0.388409	1.792301	0.388452
C47	C	-0.388413	1.909078	0.388459
C48	C	-0.388393	1.518277	0.178944
C49	C	-0.388189	1.518459	0.089324
C50	C	-0.388305	1.518358	0.761148
C51	C	-0.388275	1.518383	0.852456
C52	C	-0.388246	1.518408	0.925233
C53	C	-0.388217	1.518434	1.016547
H54	H	-0.482085	1.118337	0.481814
H55	H	-0.371905	1.252561	0.251882
H56	H	-0.690461	0.914153	0.569391
C57	C	-0.656137	0.734420	0.655299
C58	C	-0.691854	0.789331	0.729633
C59	C	-0.748663	0.728990	0.786254
C60	C	-0.769755	0.613740	0.768541
C61	C	-0.734038	0.558823	0.694204
C62	C	-0.677229	0.619163	0.637583
H63	H	-0.676240	0.874652	0.742748
H64	H	-0.775103	0.769644	0.841283
H65	H	-0.811808	0.569072	0.810455
H66	H	-0.749651	0.473501	0.681089
H67	H	-0.650789	0.578509	0.582554
C68	C	-0.382420	0.774896	0.521530
C69	C	-0.352668	0.675417	0.564693
C70	C	-0.266103	0.636273	0.551243
C71	C	-0.209289	0.696609	0.494631
C72	C	-0.239041	0.796095	0.451465
C73	C	-0.325606	0.835238	0.464914
H74	H	-0.394726	0.630747	0.606604
H75	H	-0.244079	0.562627	0.583198
H76	H	-0.145208	0.667633	0.484674
H77	H	-0.196983	0.840764	0.409553
H78	H	-0.347629	0.908884	0.432960
H79	H	-0.596766	1.013679	0.476002
H80	H	-0.278225	1.352071	0.158485
H81	H	-0.498596	0.685542	0.618405
H82	H	-0.086373	1.123426	0.207445
C83	C	-0.120694	1.303186	0.121558
C84	C	-0.150447	1.402660	0.078390
C85	C	-0.093640	1.462991	0.021761
C86	C	-0.007080	1.423849	0.008301
C87	C	0.022677	1.324369	0.051471
C88	C	-0.034130	1.264038	0.108099
H89	H	-0.214527	1.431640	0.088353
H90	H	-0.115669	1.536633	-0.010196
H91	H	0.034971	1.468510	-0.033619
H92	H	0.086757	1.295389	0.041508
H93	H	-0.012101	1.190396	0.140056
H94	H	-0.294731	0.919256	0.295079
C95	C	-0.172328	0.998071	0.312070
C96	C	-0.143385	0.903201	0.262682
C97	C	-0.113629	0.803718	0.305846
C98	C	-0.112817	0.799106	0.398399
C99	C	-0.141761	0.893980	0.447792
C100	C	-0.171516	0.993462	0.404628
H101	H	-0.143985	0.906612	0.194164
H102	H	-0.092202	0.733487	0.269282
H103	H	-0.090790	0.725463	0.430352
H104	H	-0.141160	0.890568	0.516310
H105	H	-0.192943	1.063694	0.441193
