data_functionalizedCrystal
_audit_creation_method	'MofGen! by Chris Wilmer'
_symmetry_space_group_name_H-M	'P1'
_symmetry_Int_Tables_number	1
_symmetry_cell_setting	triclinic
loop_
_symmetry_equiv_pos_as_xyz
  x,y,z
_cell_length_a	14.044220
_cell_length_b	11.792241
_cell_length_c	10.268362
_cell_angle_alpha	89.998512
_cell_angle_beta	90.000071
_cell_angle_gamma	88.691147
loop_
_atom_site_label
_atom_site_type_symbol
_atom_site_fract_x
_atom_site_fract_y
_atom_site_fract_z
O1	O	-1.259114	-0.273764	0.108163
O2	O	-0.925781	0.059569	0.441496
O3	O	-0.592448	0.392902	0.774830
O4	O	-0.983094	-0.263885	0.108196
O5	O	-0.649761	0.069448	0.441529
O6	O	-0.316428	0.402781	0.774862
O7	O	-1.127803	-0.104283	0.108169
O8	O	-0.794469	0.229050	0.441503
O9	O	-0.461136	0.562384	0.774836
O10	O	-1.114406	-0.433366	0.108189
O11	O	-0.781073	-0.100033	0.441523
O12	O	-0.447739	0.233300	0.774856
O13	O	-1.127789	-0.104288	-0.108431
O14	O	-0.794455	0.229046	0.224902
O15	O	-0.461122	0.562379	0.558235
O16	O	-0.983080	-0.263890	-0.108405
O17	O	-0.649747	0.069444	0.224928
O18	O	-0.316414	0.402777	0.558262
O19	O	-1.259100	-0.273769	-0.108438
O20	O	-0.925767	0.059565	0.224896
O21	O	-0.592434	0.392898	0.558229
Cu22	Cu	-1.121089	-0.268830	-0.128199
Cu23	Cu	-0.787756	0.064504	0.205135
Cu24	Cu	-0.454422	0.397837	0.538468
Cu25	Cu	-1.121106	-0.268824	0.127957
Cu26	Cu	-0.787772	0.064509	0.461290
Cu27	Cu	-0.454439	0.397842	0.794623
O28	O	-1.114392	-0.433371	-0.108411
O29	O	-0.781059	-0.100038	0.224922
O30	O	-0.447725	0.233296	0.558255
C31	C	-1.126954	-0.061915	-0.000130
C32	C	-0.793621	0.271418	0.333203
C33	C	-0.460287	0.604751	0.666536
C34	C	-1.124435	0.064335	-0.000129
C35	C	-0.791102	0.397668	0.333204
C36	C	-0.457769	0.731001	0.666538
C37	C	-0.947751	-0.259563	-0.000100
C38	C	-0.614417	0.073770	0.333233
C39	C	-0.281084	0.407104	0.666566
C40	C	-0.842459	-0.246664	-0.000088
C41	C	-0.509125	0.086669	0.333245
C42	C	-0.175792	0.420003	0.666579
C43	C	-1.294444	-0.278091	-0.000139
C44	C	-0.961111	0.055242	0.333195
C45	C	-0.627777	0.388576	0.666528
C46	C	-1.399736	-0.290990	-0.000143
C47	C	-1.066403	0.042343	0.333191
C48	C	-0.733069	0.375677	0.666524
C49	C	-0.649676	-0.223082	-0.000115
C50	C	-0.316343	0.110251	0.333218
C51	C	0.016991	0.443585	0.666551
C52	C	-0.592513	-0.314567	-0.000115
C53	C	-0.259180	0.018766	0.333218
C54	C	0.074154	0.352100	0.666551
C55	C	-0.485242	-0.301445	-0.000130
C56	C	-0.151909	0.031888	0.333203
C57	C	0.181425	0.365221	0.666536
C58	C	-0.756957	-0.236202	-0.000100
C59	C	-0.423624	0.097132	0.333233
C60	C	-0.090290	0.430465	0.666567
C61	C	-1.115241	-0.475739	-0.000109
C62	C	-0.781907	-0.142405	0.333225
C63	C	-0.448574	0.190928	0.666558
C64	C	-1.117759	-0.601989	-0.000102
C65	C	-0.784426	-0.268655	0.333232
C66	C	-0.451093	0.064678	0.666565
N67	N	-1.121084	-0.268834	-0.308365
N68	N	-0.787751	0.064500	0.024969
N69	N	-0.454418	0.397833	0.358302
C70	C	-1.119804	0.295482	-0.000107
C71	C	-0.786471	0.628815	0.333227
C72	C	-0.453137	0.962148	0.666560
C73	C	-1.122377	0.166855	-0.000119
C74	C	-0.789044	0.500188	0.333215
C75	C	-0.455711	0.833522	0.666548
C76	C	-1.121091	-0.268835	-0.426207
C77	C	-0.787758	0.064499	-0.092874
C78	C	-0.454425	0.397832	0.240460
C79	C	-1.121103	-0.268826	-0.574045
C80	C	-0.787770	0.064508	-0.240711
C81	C	-0.454437	0.397841	0.092622
N82	N	-1.121118	-0.268812	0.308123
N83	N	-0.787784	0.064521	0.641456
N84	N	-0.454451	0.397854	0.974789
H85	H	-0.624137	-0.402744	-0.000104
H86	H	-0.290804	-0.069411	0.333230
H87	H	0.042529	0.263923	0.666563
O88	O	-0.611800	-0.117975	-0.000061
O89	O	-0.278467	0.215358	0.333272
O90	O	0.054866	0.548691	0.666605
C91	C	-0.468783	-0.008908	-0.000147
C92	C	-0.135450	0.324426	0.333186
C93	C	0.197883	0.657759	0.666519
C94	C	-0.511566	-0.128004	-0.000185
C95	C	-0.178232	0.205329	0.333149
C96	C	0.155101	0.538662	0.666482
H97	H	-0.387738	-0.016976	-0.000275
H98	H	-0.054405	0.316358	0.333059
H99	H	0.278928	0.649691	0.666392
H100	H	-0.493407	0.039224	0.090526
H101	H	-0.160074	0.372558	0.423859
H102	H	0.173259	0.705891	0.757192
H103	H	-0.493543	0.039205	-0.090768
H104	H	-0.160209	0.372538	0.242565
H105	H	0.173124	0.705871	0.575898
H106	H	-0.486826	-0.176211	0.090375
H107	H	-0.153493	0.157122	0.423708
H108	H	0.179841	0.490456	0.757042
H109	H	-0.486946	-0.176050	-0.090918
H110	H	-0.153612	0.157283	0.242416
H111	H	0.179721	0.490616	0.575749
