data_functionalizedCrystal
_audit_creation_method	'MofGen! by Chris Wilmer'
_symmetry_space_group_name_H-M	'P1'
_symmetry_Int_Tables_number	1
_symmetry_cell_setting	triclinic
loop_
_symmetry_equiv_pos_as_xyz
  x,y,z
_cell_length_a	29.839131
_cell_length_b	16.120490
_cell_length_c	16.120297
_cell_angle_alpha	90.129683
_cell_angle_beta	92.867727
_cell_angle_gamma	87.133579
loop_
_atom_site_label
_atom_site_type_symbol
_atom_site_fract_x
_atom_site_fract_y
_atom_site_fract_z
Zn1	Zn	-0.227636	1.247317	-0.534499
Zn2	Zn	0.272364	1.747317	-0.034499
Zn3	Zn	-0.299153	1.254226	-0.395429
Zn4	Zn	0.200847	1.754226	0.104571
Zn5	Zn	-0.220041	1.115311	-0.388421
Zn6	Zn	0.279959	1.615311	0.111579
Zn7	Zn	-0.298735	1.108182	-0.527402
Zn8	Zn	0.201265	1.608182	-0.027402
O9	O	-0.261391	1.181259	-0.461438
O10	O	0.238609	1.681259	0.038562
O11	O	-0.240476	1.364598	-0.521954
O12	O	0.259524	1.864598	-0.021954
O13	O	-0.285655	1.241674	-0.278135
O14	O	0.214345	1.741674	0.221865
O15	O	-0.158185	1.132913	-0.407835
O16	O	0.341815	1.632913	0.092165
O17	O	-0.293019	1.369675	-0.419780
O18	O	0.206981	1.869675	0.080220
O19	O	-0.163765	1.229897	-0.515158
O20	O	0.336235	1.729897	-0.015158
O21	O	-0.227531	1.139613	-0.272985
O22	O	0.272469	1.639613	0.227015
O23	O	-0.227126	0.998000	-0.400954
O24	O	0.272874	1.498000	0.099046
O25	O	-0.292307	1.120764	-0.644709
O26	O	0.207693	1.620764	-0.144709
O27	O	-0.284942	0.992763	-0.503063
O28	O	0.215058	1.492763	-0.003063
O29	O	-0.240071	1.222985	-0.649922
O30	O	0.259929	1.722985	-0.149922
O31	O	-0.361961	1.234762	-0.412899
O32	O	0.138039	1.734762	0.087101
O33	O	-0.361654	1.127464	-0.509859
O34	O	0.138346	1.627464	-0.009859
C35	C	-0.255165	0.965209	-0.450479
C36	C	0.244835	1.465209	0.049521
C37	C	-0.252513	0.872781	-0.445810
C38	C	0.247487	1.372781	0.054190
C39	C	-0.275145	0.659806	-0.485656
C40	C	0.224855	1.159806	0.014344
C41	C	-0.247675	0.703559	-0.437285
C42	C	0.252325	1.203559	0.062715
C43	C	-0.250367	0.797723	-0.442030
C44	C	0.249633	1.297723	0.057970
C45	C	-0.272453	0.565634	-0.480913
C46	C	0.227547	1.065634	0.019087
C47	C	-0.378108	1.181111	-0.461389
C48	C	0.121892	1.681111	0.038611
C49	C	-0.428043	1.181122	-0.461400
C50	C	0.071957	1.681122	0.038600
C51	C	-0.737843	1.237222	-0.411033
C52	C	-0.237843	1.737222	0.088967
C53	C	-0.925520	1.237323	-0.411071
C54	C	-0.425520	1.737323	0.088929
O55	O	-0.949914	1.284903	-0.368210
O56	O	-0.449914	1.784903	0.131790
N57	N	-0.948840	1.181428	-0.461509
N58	N	-0.448840	1.681428	0.038491
C59	C	-0.925237	1.125508	-0.511946
C60	C	-0.425237	1.625508	-0.011946
O61	O	-0.949378	1.077974	-0.554854
O62	O	-0.449378	1.577974	-0.054854
C63	C	-0.737561	1.125412	-0.511912
C64	C	-0.237561	1.625412	-0.011912
C65	C	-0.714244	1.181304	-0.461464
C66	C	-0.214244	1.681304	0.038536
C67	C	-0.714526	1.293110	-0.360590
C68	C	-0.214526	1.793110	0.139410
C69	C	-0.667610	1.293082	-0.360578
C70	C	-0.167610	1.793082	0.139422
C71	C	-0.644010	1.237164	-0.411009
C72	C	-0.144010	1.737164	0.088991
C73	C	-0.667328	1.181275	-0.461452
C74	C	-0.167328	1.681275	0.038548
C75	C	-0.713960	1.069496	-0.562353
C76	C	-0.213960	1.569496	-0.062353
C77	C	-0.667038	1.069478	-0.562341
C78	C	-0.167038	1.569478	-0.062341
C79	C	-0.643721	1.125371	-0.511893
C80	C	-0.143721	1.625371	-0.011893
C81	C	-0.596812	1.125329	-0.511871
C82	C	-0.096812	1.625329	-0.011871
N83	N	-0.573492	1.181224	-0.461432
N84	N	-0.073492	1.681224	0.038568
C85	C	-0.597092	1.237141	-0.411001
C86	C	-0.097092	1.737141	0.088999
C87	C	-1.023770	1.125562	-0.511959
C88	C	-0.523770	1.625562	-0.011959
C89	C	-1.070688	1.125584	-0.511966
C90	C	-0.570688	1.625584	-0.011966
C91	C	-1.070968	1.237400	-0.411092
C92	C	-0.570968	1.737400	0.088908
C93	C	-1.024048	1.237373	-0.411081
C94	C	-0.524048	1.737373	0.088919
C95	C	-1.000450	1.181456	-0.461520
C96	C	-0.500450	1.681456	0.038480
C97	C	-0.498563	1.237076	-0.410979
C98	C	0.001437	1.737076	0.089021
C99	C	-0.451643	1.237040	-0.410969
C100	C	0.048357	1.737040	0.089031
C101	C	-0.451367	1.125227	-0.511846
C102	C	0.048633	1.625227	-0.011846
C103	C	-0.498283	1.125260	-0.511853
C104	C	0.001717	1.625260	-0.011853
C105	C	-0.521881	1.181191	-0.461417
C106	C	-0.021881	1.681191	0.038583
O107	O	-0.572389	1.077780	-0.554716
O108	O	-0.072389	1.577780	-0.054716
O109	O	-0.572943	1.284680	-0.368113
O110	O	-0.072943	1.784680	0.131887
C111	C	-0.784760	1.237251	-0.411046
C112	C	-0.284760	1.737251	0.088954
C113	C	-0.808077	1.181362	-0.461489
C114	C	-0.308077	1.681362	0.038511
C115	C	-0.784478	1.125445	-0.511920
C116	C	-0.284478	1.625445	-0.011920
C117	C	-0.854996	1.181385	-0.461496
C118	C	-0.354996	1.681385	0.038504
C119	C	-0.878595	1.237302	-0.411065
C120	C	-0.378595	1.737302	0.088935
C121	C	-0.855276	1.293197	-0.360627
C122	C	-0.355276	1.793197	0.139373
C123	C	-0.808359	1.293168	-0.360615
C124	C	-0.308359	1.793168	0.139385
C125	C	-0.807797	1.069550	-0.562358
C126	C	-0.307797	1.569550	-0.062358
C127	C	-0.854714	1.069583	-0.562365
C128	C	-0.354714	1.569583	-0.062365
C129	C	-0.878313	1.125500	-0.511935
C130	C	-0.378313	1.625500	-0.011935
C131	C	-0.144219	1.181429	-0.461506
C132	C	0.355781	1.681429	0.038494
C133	C	-0.094287	1.181502	-0.461535
C134	C	0.405713	1.681502	0.038465
C135	C	-0.266990	1.170309	-0.678331
C136	C	0.233010	1.670309	-0.178331
C137	C	-0.269375	1.165642	-0.770758
C138	C	0.230625	1.665642	-0.270758
C139	C	-0.267642	1.398152	-0.472440
C140	C	0.232358	1.898152	0.027560
C141	C	-0.270305	1.490579	-0.477129
C142	C	0.229695	1.990579	0.022871
C143	C	-0.273720	1.157092	-0.939983
C144	C	0.226280	1.657092	-0.439983
C145	C	-0.248932	1.205590	-0.983753
C146	C	0.251068	1.705590	-0.483753
C147	C	-0.251349	1.200833	-1.077915
C148	C	0.248651	1.700833	-0.577915
C149	C	-0.271303	1.161848	-0.845812
C150	C	0.228697	1.661848	-0.345812
C151	C	-0.255783	1.192215	-0.245390
C152	C	0.244217	1.692215	0.254610
C153	C	-0.253275	1.197042	-0.152972
C154	C	0.246725	1.697042	0.347028
H155	H	-0.300684	0.693066	-0.530627
H156	H	0.199316	1.193066	-0.030627
N157	N	-0.220030	1.262154	-0.942042
N158	N	0.279970	1.762154	-0.442042
N159	N	-0.218082	1.265987	-0.864500
N160	N	0.281918	1.765987	-0.364500
H161	H	-0.197672	1.305934	-0.835036
H162	H	0.302328	1.805934	-0.335036
H163	H	-0.732937	1.023979	-0.603429
H164	H	-0.232937	1.523979	-0.103429
H165	H	-0.432145	1.079697	-0.552904
H166	H	0.067855	1.579697	-0.052904
H167	H	-0.296757	1.112003	-0.973226
H168	H	0.203243	1.612003	-0.473226
N169	N	-0.215637	0.661854	-0.380845
N170	N	0.284363	1.161854	0.119155
N171	N	-0.189812	0.702938	-0.335358
N172	N	0.310188	1.202938	0.164642
H173	H	-0.167187	0.673482	-0.295495
H174	H	0.332813	1.173482	0.204505
H175	H	-0.432659	1.282554	-0.369885
H176	H	0.067341	1.782554	0.130115
N177	N	-0.522656	1.294211	-0.359455
N178	N	-0.022656	1.794211	0.140545
N179	N	-0.501824	1.344101	-0.314421
N180	N	-0.001824	1.844101	0.185579
H181	H	-0.518838	1.384449	-0.278026
H182	H	-0.018838	1.884449	0.221974
N183	N	-0.643801	1.350170	-0.309031
N184	N	-0.143801	1.850170	0.190969
N185	N	-0.646933	1.348587	-0.232023
N186	N	-0.146933	1.848587	0.267977
H187	H	-0.630122	1.388910	-0.195613
H188	H	-0.130122	1.888910	0.304387
N189	N	-0.738621	1.350244	-0.309071
N190	N	-0.238621	1.850244	0.190929
N191	N	-0.717787	1.400137	-0.264043
N192	N	-0.217787	1.900137	0.235957
H193	H	-0.734801	1.440488	-0.227651
H194	H	-0.234801	1.940488	0.272349
H195	H	-1.005066	1.282886	-0.370002
H196	H	-0.505066	1.782886	0.129998
N197	N	-1.095086	1.294511	-0.359579
N198	N	-0.595086	1.794511	0.140421
N199	N	-1.136977	1.294517	-0.359600
N200	N	-0.636977	1.794517	0.140400
H201	H	-1.154013	1.334851	-0.323224
H202	H	-0.654013	1.834851	0.176776
H203	H	-0.874498	1.338725	-0.319562
H204	H	-0.374498	1.838725	0.180438
N205	N	-1.094496	1.068473	-0.563488
N206	N	-0.594496	1.568473	-0.063488
N207	N	-1.073413	1.018554	-0.608509
N208	N	-0.573413	1.518554	-0.108509
H209	H	-1.090226	0.978218	-0.644902
H210	H	-0.590226	1.478218	-0.144902
H211	H	-1.004559	1.080025	-0.553034
H212	H	-0.504559	1.580025	-0.053034
H213	H	-0.873695	1.024061	-0.603445
H214	H	-0.373695	1.524061	-0.103445
N215	N	-0.642941	1.012358	-0.613876
N216	N	-0.142941	1.512358	-0.113876
N217	N	-0.663770	0.962465	-0.658913
N218	N	-0.163770	1.462465	-0.158913
H219	H	-0.646752	0.922123	-0.695309
H220	H	-0.146752	1.422123	-0.195309
H221	H	-0.517269	1.079750	-0.552935
H222	H	-0.017269	1.579750	-0.052935
H223	H	-0.789378	1.338681	-0.319535
H224	H	-0.289378	1.838681	0.180465
H225	H	-0.788586	1.024016	-0.603426
H226	H	-0.288586	1.524016	-0.103426
