data_functionalizedCrystal
_audit_creation_method	'MofGen! by Chris Wilmer'
_symmetry_space_group_name_H-M	'P1'
_symmetry_Int_Tables_number	1
_symmetry_cell_setting	triclinic
loop_
_symmetry_equiv_pos_as_xyz
  x,y,z
_cell_length_a	13.033291
_cell_length_b	12.759393
_cell_length_c	13.032268
_cell_angle_alpha	82.846864
_cell_angle_beta	89.079236
_cell_angle_gamma	82.814779
loop_
_atom_site_label
_atom_site_type_symbol
_atom_site_fract_x
_atom_site_fract_y
_atom_site_fract_z
Zn1	Zn	1.498475	0.326864	-0.781507
Zn2	Zn	1.998475	0.826864	-0.281507
Zn3	Zn	1.520224	0.477846	-0.609546
Zn4	Zn	2.020224	0.977846	-0.109546
Zn5	Zn	1.348335	0.321316	-0.587683
Zn6	Zn	1.848335	0.821316	-0.087683
Zn7	Zn	1.326476	0.521643	-0.759590
Zn8	Zn	1.826476	1.021643	-0.259590
O9	O	1.423378	0.411917	-0.684582
O10	O	1.923378	0.911917	-0.184582
O11	O	1.645278	0.330884	-0.777019
O12	O	2.145278	0.830884	-0.277019
O13	O	1.515672	0.436430	-0.462736
O14	O	2.015672	0.936430	0.037264
O15	O	1.368298	0.175028	-0.613416
O16	O	1.868298	0.675028	-0.113416
O17	O	1.661257	0.441810	-0.650680
O18	O	2.161257	0.941810	-0.150680
O19	O	1.478605	0.179104	-0.755818
O20	O	1.978605	0.679104	-0.255818
O21	O	1.389387	0.321428	-0.446673
O22	O	1.889387	0.821428	0.053327
O23	O	1.201517	0.363897	-0.592164
O24	O	1.701517	0.863897	-0.092164
O25	O	1.331042	0.516457	-0.906408
O26	O	1.831042	1.016457	-0.406408
O27	O	1.185458	0.511077	-0.718464
O28	O	1.685458	1.011077	-0.218464
O29	O	1.457409	0.373353	-0.922510
O30	O	1.957409	0.873353	-0.422510
O31	O	1.494477	0.630680	-0.629428
O32	O	1.994477	1.130680	-0.129428
O33	O	1.352131	0.662858	-0.739664
O34	O	1.852131	1.162858	-0.239664
C35	C	1.156171	0.441639	-0.650564
C36	C	1.656171	0.941639	-0.150564
C37	C	1.041856	0.454382	-0.636035
C38	C	1.541856	0.954382	-0.136035
C39	C	1.423317	0.684890	-0.684566
C40	C	1.923317	1.184890	-0.184566
C41	C	1.423381	0.801664	-0.684606
C42	C	1.923381	1.301664	-0.184606
C43	C	0.864823	0.418455	-0.677157
C44	C	1.364823	0.918455	-0.177157
C45	C	0.982974	0.405286	-0.692172
C46	C	1.482974	0.905286	-0.192172
C47	C	1.571691	0.768107	-0.569928
C48	C	2.071691	1.268107	-0.069928
C49	C	1.645871	0.806188	-0.512608
C50	C	2.145871	1.306188	-0.012608
C51	C	1.645927	0.915908	-0.512650
C52	C	2.145927	1.415908	-0.012650
C53	C	1.571797	0.987551	-0.570022
C54	C	2.071797	1.487551	-0.070022
C55	C	1.497617	0.949470	-0.627342
C56	C	1.997617	1.449470	-0.127342
C57	C	1.497567	0.839745	-0.627290
C58	C	1.997567	1.339745	-0.127290
C59	C	1.349312	0.983026	-0.742024
C60	C	1.849312	1.483026	-0.242024
C61	C	1.349250	0.873307	-0.741977
C62	C	1.849250	1.373307	-0.241977
C63	C	1.275182	1.054669	-0.799396
C64	C	1.775182	1.554669	-0.299396
C65	C	1.200996	1.016588	-0.856711
C66	C	1.700996	1.516588	-0.356711
C67	C	1.200942	0.906861	-0.856665
C68	C	1.700942	1.406861	-0.356665
C69	C	1.275070	0.835225	-0.799297
C70	C	1.775070	1.335225	-0.299297
C71	C	1.691627	0.382080	-0.718733
C72	C	2.191627	0.882080	-0.218733
C73	C	1.805940	0.369366	-0.733286
C74	C	2.305940	0.869366	-0.233286
C75	C	1.389361	0.450409	-0.952816
C76	C	1.889361	0.950409	-0.452816
C77	C	1.374866	0.466812	-1.067122
C78	C	1.874866	0.966812	-0.567122
C79	C	1.423462	1.137880	-0.684639
C80	C	1.923462	1.637880	-0.184639
C81	C	1.423493	1.021108	-0.684704
C82	C	1.923493	1.521108	-0.184704
C83	C	1.430927	0.403320	-1.126050
C84	C	1.930927	0.903320	-0.626050
C85	C	1.415946	0.420272	-1.244191
C86	C	1.915946	0.920272	-0.744191
C87	C	1.457321	0.373492	-0.417398
C88	C	1.957321	0.873492	0.082602
C89	C	1.472015	0.356771	-0.303118
C90	C	1.972015	0.856771	0.196882
H91	H	0.827766	0.470227	-0.617982
H92	H	1.327766	0.970227	-0.117982
H93	H	1.020028	0.353500	-0.751342
H94	H	1.520028	0.853500	-0.251342
F95	F	1.297628	0.554263	-1.115494
F96	F	1.797628	1.054263	-0.615494
F97	F	1.549263	0.269320	-1.254754
F98	F	2.049263	0.769320	-0.754754
H99	H	1.004804	0.506164	-0.576860
H100	H	1.504804	1.006164	-0.076860
F101	F	0.854372	0.301681	-0.810623
F102	F	1.354372	0.801681	-0.310623
F103	F	1.571835	0.651339	-0.570132
F104	F	2.071835	1.151339	-0.070132
F105	F	1.724766	0.729935	-0.451556
F106	F	2.224766	1.229935	0.048444
H107	H	1.356849	0.487178	-1.281199
H108	H	1.856849	0.987178	-0.781199
H109	H	1.706335	0.946913	-0.465981
H110	H	2.206335	1.446913	0.034019
H111	H	1.275237	1.144008	-0.799431
H112	H	1.775237	1.644008	-0.299431
F113	F	1.571563	1.104312	-0.569680
F114	F	2.071563	1.604312	-0.069680
H115	H	1.275028	0.745883	-0.799247
H116	H	1.775028	1.245883	-0.299247
H117	H	1.490010	0.336409	-1.089037
H118	H	1.990010	0.836409	-0.589037
F119	F	1.122116	1.092839	-0.917770
F120	F	1.622116	1.592839	-0.417770
H121	H	1.140539	0.875863	-0.903347
H122	H	1.640539	1.375863	-0.403347
