data_functionalizedCrystal
_audit_creation_method	'MofGen! by Chris Wilmer'
_symmetry_space_group_name_H-M	'P1'
_symmetry_Int_Tables_number	1
_symmetry_cell_setting	triclinic
loop_
_symmetry_equiv_pos_as_xyz
  x,y,z
_cell_length_a	16.176319
_cell_length_b	17.699083
_cell_length_c	17.699092
_cell_angle_alpha	96.715309
_cell_angle_beta	90.008839
_cell_angle_gamma	89.997523
loop_
_atom_site_label
_atom_site_type_symbol
_atom_site_fract_x
_atom_site_fract_y
_atom_site_fract_z
O1	O	-0.068619	-1.004080	0.095698
O2	O	0.431381	-0.504080	0.595698
O3	O	-0.068648	-0.783702	0.108150
O4	O	0.431352	-0.283702	0.608150
O5	O	-0.068631	-0.900114	-0.008265
O6	O	0.431369	-0.400114	0.491735
O7	O	-0.068636	-0.887668	0.212113
O8	O	0.431364	-0.387668	0.712113
O9	O	0.068862	-0.900102	-0.008242
O10	O	0.568862	-0.400102	0.491758
O11	O	0.068845	-0.783690	0.108173
O12	O	0.568845	-0.283690	0.608173
O13	O	0.068874	-1.004068	0.095720
O14	O	0.568874	-0.504068	0.595720
Cu15	Cu	0.081414	-0.893878	0.101949
Cu16	Cu	0.581414	-0.393878	0.601949
Cu17	Cu	-0.081188	-0.893892	0.101922
Cu18	Cu	0.418812	-0.393892	0.601922
O19	O	0.068857	-0.887656	0.212135
O20	O	0.568857	-0.387656	0.712135
C21	C	0.000095	-0.755499	0.107715
C22	C	0.500095	-0.255499	0.607715
C23	C	0.000084	-0.671480	0.106377
C24	C	0.500084	-0.171480	0.606377
N25	N	0.195779	-0.893873	0.101967
N26	N	0.695779	-0.393873	0.601967
C27	C	0.000082	-0.622862	0.174710
C28	C	0.500082	-0.122862	0.674710
C29	C	0.000092	-0.543918	0.173448
C30	C	0.500092	-0.043918	0.673448
C31	C	0.000098	-0.513595	0.103851
C32	C	0.500098	-0.013595	0.603851
C33	C	0.000103	-0.562220	0.035513
C34	C	0.500103	-0.062220	0.535513
C35	C	0.000098	-0.641162	0.036776
C36	C	0.500098	-0.141162	0.536776
C37	C	0.000121	-0.243857	0.030418
C38	C	0.500121	0.256143	0.530418
C39	C	0.000122	-0.164909	0.029160
C40	C	0.500122	0.335091	0.529160
C41	C	0.000115	-0.146613	0.167089
C42	C	0.500115	0.353387	0.667089
C43	C	0.000110	-0.225555	0.168352
C44	C	0.500110	0.274445	0.668352
C45	C	0.000119	-0.274173	0.100014
C46	C	0.500119	0.225827	0.600014
C47	C	0.000110	-0.359772	0.101384
C48	C	0.500110	0.140228	0.601384
C49	C	0.000102	-0.427998	0.102481
C50	C	0.500102	0.072002	0.602481
C51	C	0.761164	-0.848078	0.056068
C52	C	1.261164	-0.348078	0.556068
C53	C	0.674617	-0.848077	0.056073
C54	C	1.174617	-0.348077	0.556073
C55	C	0.631354	-0.893891	0.101924
C56	C	1.131354	-0.393891	0.601924
C57	C	0.674644	-0.939715	0.147767
C58	C	1.174644	-0.439715	0.647767
C59	C	0.761189	-0.939719	0.147758
C60	C	1.261189	-0.439719	0.647758
C61	C	0.325615	-0.939698	0.147806
C62	C	0.825615	-0.439698	0.647806
C63	C	0.239064	-0.939688	0.147813
C64	C	0.739064	-0.439688	0.647813
C65	C	0.239043	-0.848055	0.056121
C66	C	0.739043	-0.348055	0.556121
C67	C	0.325589	-0.848060	0.056112
C68	C	0.825589	-0.348060	0.556112
C69	C	0.368870	-0.893887	0.101951
C70	C	0.868870	-0.393887	0.601951
C71	C	0.462714	-0.893888	0.101944
C72	C	0.962714	-0.393888	0.601944
C73	C	0.537512	-0.893886	0.101935
C74	C	1.037512	-0.393886	0.601935
N75	N	0.804447	-0.893896	0.101910
N76	N	1.304447	-0.393896	0.601910
C77	C	0.000114	-0.899661	-0.036450
C78	C	0.500114	-0.399661	0.463550
C79	C	0.000110	-0.898319	-0.120468
C80	C	0.500110	-0.398319	0.379532
C81	C	0.000127	-0.032271	0.096155
C82	C	0.500127	0.467729	0.596155
C83	C	0.000126	-0.116289	0.097494
C84	C	0.500126	0.383711	0.597494
C85	C	-0.074838	-0.897698	-0.159948
C86	C	0.425162	-0.397698	0.340052
C87	C	-0.074839	-0.896433	-0.238891
C88	C	0.425161	-0.396433	0.261109
C89	C	0.000109	-0.895795	-0.278353
C90	C	0.500109	-0.395795	0.221647
C91	C	0.075063	-0.896415	-0.238868
C92	C	0.575063	-0.396415	0.261132
C93	C	0.075064	-0.897674	-0.159925
C94	C	0.575064	-0.397674	0.340075
C95	C	0.075064	-0.891334	-0.557233
C96	C	0.575064	-0.391334	-0.057233
C97	C	0.075058	-0.890077	-0.636181
C98	C	0.575058	-0.390077	-0.136181
C99	C	-0.074839	-0.890093	-0.636198
C100	C	0.425161	-0.390093	-0.136198
C101	C	-0.074839	-0.891352	-0.557256
C102	C	0.425161	-0.391352	-0.057256
C103	C	0.000115	-0.891968	-0.517777
C104	C	0.500115	-0.391968	-0.017777
C105	C	0.000115	-0.893338	-0.432178
C106	C	0.500115	-0.393338	0.067822
C107	C	0.000110	-0.894430	-0.363952
C108	C	0.500110	-0.394430	0.136048
C109	C	0.000110	-0.888109	0.240321
C110	C	0.500110	-0.388109	0.740321
C111	C	0.000108	-0.889450	0.324339
C112	C	0.500108	-0.389450	0.824339
H113	H	0.000077	-0.647544	0.231383
H114	H	0.500077	-0.147544	0.731383
H115	H	-0.135870	-0.898221	-0.127824
H116	H	0.364130	-0.398221	0.372176
Br117	Br	0.000087	-0.477937	0.266190
Br118	Br	0.500087	0.022063	0.766190
H119	H	0.000102	-0.250239	0.225025
H120	H	0.500102	0.249761	0.725025
Br121	Br	0.819932	-1.001911	0.209967
Br122	Br	1.319932	-0.501911	0.709967
H123	H	0.000112	-0.107018	0.222733
H124	H	0.500112	0.392982	0.722733
H125	H	-0.135870	-0.895930	-0.271032
H126	H	0.364130	-0.395930	0.228968
Br127	Br	0.384344	-1.001887	0.210021
Br128	Br	0.884344	-0.501887	0.710021
Br129	Br	0.615878	-0.785867	-0.006118
Br130	Br	1.115878	-0.285867	0.493882
Br131	Br	0.176781	-0.895537	-0.292421
Br132	Br	0.676781	-0.395537	0.207579
H133	H	0.000128	-0.140224	-0.027517
H134	H	0.500128	0.359776	0.472483
Br135	Br	0.176780	-0.889212	-0.689737
Br136	Br	0.676780	-0.389212	-0.189737
Br137	Br	0.180350	-1.001867	0.210046
Br138	Br	0.680350	-0.501867	0.710046
Br139	Br	0.384298	-0.785876	-0.006111
Br140	Br	0.884298	-0.285876	0.493889
H141	H	0.639412	-0.977021	0.185096
H142	H	1.139412	-0.477021	0.685096
Br143	Br	0.176787	-0.892154	-0.503661
Br144	Br	0.676787	-0.392154	-0.003661
H145	H	0.136094	-0.898170	-0.127781
H146	H	0.636094	-0.398170	0.372219
H147	H	0.000099	-0.680748	-0.018868
H148	H	0.500099	-0.180748	0.481132
Br149	Br	0.000134	-0.309829	-0.062327
Br150	Br	0.500134	0.190171	0.437673
H151	H	-0.135869	-0.891875	-0.525130
H152	H	0.364131	-0.391875	-0.025130
H153	H	0.796382	-0.810766	0.018735
H154	H	1.296382	-0.310766	0.518735
Br155	Br	-0.176564	-0.889258	-0.689781
Br156	Br	0.323436	-0.389258	-0.189781
Br157	Br	0.000119	-0.521069	-0.058940
Br158	Br	0.500119	-0.021069	0.441060
H159	H	0.203793	-0.810743	0.018794
H160	H	0.703793	-0.310743	0.518794
