data_functionalizedCrystal
_audit_creation_method	'MofGen! by Chris Wilmer'
_symmetry_space_group_name_H-M	'P1'
_symmetry_Int_Tables_number	1
_symmetry_cell_setting	triclinic
loop_
_symmetry_equiv_pos_as_xyz
  x,y,z
_cell_length_a	14.971482
_cell_length_b	12.811415
_cell_length_c	14.048226
_cell_angle_alpha	84.562719
_cell_angle_beta	89.994098
_cell_angle_gamma	83.829015
loop_
_atom_site_label
_atom_site_type_symbol
_atom_site_fract_x
_atom_site_fract_y
_atom_site_fract_z
O1	O	1.187334	0.136766	-0.090953
O2	O	0.926980	0.153150	-0.092372
O3	O	1.063706	-0.007827	-0.078469
O4	O	1.050608	0.297743	-0.104856
O5	O	1.063690	-0.007837	0.079854
O6	O	0.926963	0.153140	0.065951
O7	O	1.187318	0.136756	0.067369
Zn8	Zn	1.057138	0.144947	0.091797
Zn9	Zn	1.057160	0.144959	-0.116799
O10	O	1.050591	0.297733	0.053466
C11	C	0.893645	0.152413	-0.013148
C12	C	0.794341	0.150219	-0.012960
C13	C	0.747685	0.149181	0.073431
C14	C	0.654380	0.147103	0.073612
C15	C	0.607733	0.146071	-0.012601
C16	C	0.654397	0.147106	-0.098999
C17	C	0.747700	0.149177	-0.099178
C18	C	0.459923	0.142793	-0.098620
C19	C	0.366613	0.140725	-0.098442
C20	C	0.366603	0.140720	0.074169
C21	C	0.459906	0.142790	0.073991
C22	C	0.506563	0.143827	-0.012408
C23	C	1.062964	-0.046937	0.004067
C24	C	1.060765	-0.163459	0.014123
C25	C	1.056635	-0.382393	-0.139603
C26	C	1.054569	-0.491875	-0.130159
C27	C	1.054560	-0.491906	0.042454
C28	C	1.056626	-0.382424	0.033010
C29	C	1.057665	-0.327671	-0.058022
C30	C	1.059737	-0.218188	-0.067464
C31	C	1.059722	-0.218220	0.105148
C32	C	1.057656	-0.327703	0.114592
C33	C	1.220653	0.137493	-0.011856
C34	C	1.319956	0.139686	-0.012050
C35	C	1.051334	0.336843	-0.029072
C36	C	1.053533	0.453364	-0.039134
N37	N	1.057129	0.144937	0.234158
N38	N	1.057175	0.144960	-0.259160
C39	C	1.117691	0.073686	0.290130
C40	C	1.117697	0.073686	0.389788
C41	C	1.057145	0.144942	0.433472
C42	C	0.996577	0.216197	0.377493
C43	C	0.996567	0.216191	0.277837
C44	C	0.996603	0.216204	0.585206
C45	C	0.996613	0.216211	0.684868
C46	C	1.117733	0.073699	0.697157
C47	C	1.117723	0.073693	0.597502
C48	C	1.057156	0.144949	0.541529
H49	H	0.328610	0.139875	0.144518
F50	F	0.509548	0.143899	0.165747
H51	H	1.053727	-0.536424	-0.196592
H52	H	1.057488	-0.337813	-0.213725
H53	H	1.167003	0.015665	0.254570
F54	F	0.604727	0.146012	0.165561
H55	H	0.328635	0.139885	-0.168644
F56	F	1.056544	-0.385984	0.211469
F57	F	1.053433	-0.550192	0.139328
H58	H	0.947305	0.274234	0.720430
H59	H	1.060564	-0.173655	0.171578
H60	H	1.167010	0.015667	0.435360
H61	H	1.167033	0.015676	0.561934
F62	F	1.182193	-0.002136	0.756730
H63	H	0.497908	0.143638	-0.168975
H64	H	0.947279	0.274225	0.539636
H65	H	0.616410	0.146258	-0.169194
H66	H	0.947270	0.274212	0.413066
F67	F	0.797356	0.150278	-0.191127
H68	H	0.785657	0.150030	0.143635
H69	H	1.060586	-0.173611	-0.141587
F70	F	0.932106	0.292024	0.218269
