data_functionalizedCrystal
_audit_creation_method	'MofGen! by Chris Wilmer'
_symmetry_space_group_name_H-M	'P1'
_symmetry_Int_Tables_number	1
_symmetry_cell_setting	triclinic
loop_
_symmetry_equiv_pos_as_xyz
  x,y,z
_cell_length_a	14.853558
_cell_length_b	14.853567
_cell_length_c	13.330367
_cell_angle_alpha	89.991237
_cell_angle_beta	90.006390
_cell_angle_gamma	83.633032
loop_
_atom_site_label
_atom_site_type_symbol
_atom_site_fract_x
_atom_site_fract_y
_atom_site_fract_z
O1	O	1.196375	0.117651	0.083403
O2	O	0.933914	0.131681	0.083406
O3	O	1.072155	-0.006564	0.083407
O4	O	1.058134	0.255896	0.083401
O5	O	1.072134	-0.006542	-0.083440
O6	O	0.933893	0.131703	-0.083441
O7	O	1.196353	0.117673	-0.083445
Cu8	Cu	1.065121	0.124690	-0.098677
Cu9	Cu	1.065146	0.124664	0.098639
O10	O	1.058112	0.255918	-0.083446
C11	C	0.900314	0.131058	-0.000017
C12	C	0.800230	0.129158	-0.000015
C13	C	0.753222	0.128254	0.090937
C14	C	0.753197	0.128268	-0.090966
C15	C	0.659163	0.126477	-0.090968
C16	C	0.612155	0.125574	-0.000015
C17	C	0.659180	0.126461	0.090938
C18	C	0.612132	0.125581	-0.181920
C19	C	0.518093	0.123789	-0.181925
C20	C	0.471082	0.122892	-0.090972
C21	C	0.518113	0.123781	-0.000014
C22	C	0.471104	0.122877	0.090938
C23	C	0.518132	0.123772	0.181897
C24	C	0.612168	0.125564	0.181892
C25	C	0.377046	0.121100	-0.090967
C26	C	0.377062	0.121084	0.090939
C27	C	1.071509	-0.040141	-0.000013
C28	C	1.069605	-0.140225	-0.000005
C29	C	0.979439	-0.552756	-0.000022
C30	C	1.143673	-0.574042	-0.000025
C31	C	1.145463	-0.480009	-0.000019
C32	C	1.064240	-0.422344	-0.000016
C33	C	0.981227	-0.458713	-0.000020
C34	C	1.228474	-0.443632	-0.000026
C35	C	1.230268	-0.349593	-0.000021
C36	C	1.149044	-0.291927	-0.000011
C37	C	1.066027	-0.328301	-0.000013
C38	C	0.984805	-0.270637	-0.000011
C39	C	0.901787	-0.307009	-0.000006
C40	C	0.900003	-0.401047	-0.000010
C41	C	1.150828	-0.197890	-0.000007
C42	C	0.986592	-0.176594	-0.000008
C43	C	1.229953	0.118296	-0.000019
C44	C	1.330037	0.120197	-0.000015
C45	C	1.058758	0.289496	-0.000023
C46	C	1.060662	0.389580	-0.000025
N47	N	1.065110	0.124708	-0.237459
C48	C	1.119902	0.179426	-0.710073
C49	C	1.010418	0.069866	-0.710058
C50	C	1.010404	0.069880	-0.605040
C51	C	1.065142	0.124667	-0.552533
C52	C	1.119892	0.179439	-0.605045
C53	C	0.955662	0.015102	-0.552520
C54	C	0.955647	0.015113	-0.447495
C55	C	1.010381	0.069905	-0.394987
C56	C	1.065133	0.124680	-0.447505
C57	C	1.119870	0.179467	-0.394999
C58	C	1.174618	0.234248	-0.447515
C59	C	1.174626	0.234231	-0.552537
C60	C	1.010373	0.069922	-0.289965
C61	C	1.119861	0.179481	-0.289971
N62	N	1.065164	0.124639	0.237420
H63	H	0.338758	0.120380	-0.165024
O64	O	1.310930	-0.314309	0.000160
C65	C	1.451881	-0.303805	0.086574
C66	C	1.360555	-0.343807	0.086502
H67	H	1.492036	-0.327653	0.156363
H68	H	1.439265	-0.226685	0.086646
H69	H	1.491978	-0.327513	0.016716
H70	H	1.320410	-0.320168	0.156348
H71	H	1.373234	-0.420923	0.086378
H72	H	0.650467	0.126291	0.255945
O73	O	0.902321	-0.037987	-0.396538
C74	C	0.750546	-0.073487	-0.364507
C75	C	0.810836	-0.013279	-0.422256
H76	H	0.676569	-0.053545	-0.385294
H77	H	0.759848	-0.064063	-0.280411
H78	H	0.770601	-0.147480	-0.385115
H79	H	0.790819	0.060737	-0.401732
H80	H	0.801526	-0.022780	-0.506338
H81	H	1.209801	-0.620998	-0.000035
H82	H	0.911105	-0.029510	-0.595278
H83	H	1.294601	-0.490589	-0.000037
H84	H	0.650415	0.126308	-0.255968
H85	H	0.479811	0.123060	-0.255989
O86	O	1.173109	0.232718	-0.760925
C87	C	1.281747	0.341343	-0.749841
C88	C	1.221517	0.281051	-0.692126
H89	H	1.320916	0.380422	-0.694242
H90	H	1.237516	0.391113	-0.799005
H91	H	1.331450	0.297075	-0.799014
H92	H	1.171806	0.325247	-0.642898
H93	H	1.265805	0.231276	-0.643025
H94	H	0.835656	-0.260047	-0.000011
H95	H	0.920449	-0.129649	-0.000001
H96	H	1.218419	-0.168279	-0.000018
O97	O	1.173117	0.232727	-0.239125
C98	C	1.281666	0.341441	-0.250224
C99	C	1.221414	0.281169	-0.307930
H100	H	1.320715	0.380637	-0.305828
H101	H	1.331461	0.297238	-0.201061
H102	H	1.237371	0.391119	-0.201049
H103	H	1.265637	0.231482	-0.357159
H104	H	1.171613	0.325428	-0.357029
O105	O	0.472526	0.122737	0.270272
C106	C	0.453919	0.044171	0.425783
C107	C	0.505627	0.045220	0.325728
H108	H	0.480675	-0.018485	0.470657
H109	H	0.378629	0.042674	0.410213
H110	H	0.464215	0.107595	0.470583
H111	H	0.495405	-0.018192	0.280878
H112	H	0.580899	0.046764	0.341369
H113	H	0.338793	0.120354	0.165005
O114	O	0.898721	-0.587933	0.000028
C115	C	0.736011	-0.556881	-0.000023
C116	C	0.827360	-0.516923	-0.000059
H117	H	0.678292	-0.499489	-0.000115
H118	H	0.731016	-0.600349	0.069821
H119	H	0.731104	-0.600398	-0.069830
H120	H	0.832329	-0.473366	0.069700
H121	H	0.832317	-0.473507	-0.069949
H122	H	0.965800	0.025318	-0.247211
H123	H	0.791516	0.128986	0.164993
O124	O	0.798741	0.129260	-0.179377
C125	C	0.817418	0.207887	-0.334832
C126	C	0.765751	0.206864	-0.234749
H127	H	0.790778	0.270633	-0.379620
H128	H	0.807071	0.144538	-0.379746
H129	H	0.892708	0.209272	-0.319188
H130	H	0.690445	0.205510	-0.250302
H131	H	0.776173	0.270208	-0.189866
O132	O	0.819345	-0.436338	0.000167
C133	C	0.678416	-0.446903	0.086572
C134	C	0.769735	-0.406887	0.086512
H135	H	0.638273	-0.423093	0.156364
H136	H	0.691043	-0.524023	0.086629
H137	H	0.638301	-0.423168	0.016717
H138	H	0.809897	-0.430553	0.156355
H139	H	0.757045	-0.329772	0.086403
H140	H	1.219189	0.278851	-0.404751
O141	O	1.227938	0.287381	-0.603442
C142	C	1.379716	0.322808	-0.635607
C143	C	1.319442	0.262574	-0.577872
H144	H	1.453710	0.302761	-0.614972
H145	H	1.359782	0.396818	-0.614977
H146	H	1.370274	0.313397	-0.719682
H147	H	1.328853	0.271906	-0.493784
H148	H	1.339390	0.188587	-0.598586
H149	H	0.965859	0.025256	-0.752815
