data_functionalizedCrystal
_audit_creation_method	'MofGen! by Chris Wilmer'
_symmetry_space_group_name_H-M	'P1'
_symmetry_Int_Tables_number	1
_symmetry_cell_setting	triclinic
loop_
_symmetry_equiv_pos_as_xyz
  x,y,z
_cell_length_a	10.540510
_cell_length_b	10.540539
_cell_length_c	12.376457
_cell_angle_alpha	101.393660
_cell_angle_beta	78.592862
_cell_angle_gamma	84.519401
loop_
_atom_site_label
_atom_site_type_symbol
_atom_site_fract_x
_atom_site_fract_y
_atom_site_fract_z
O1	O	1.710035	0.154606	-0.094007
O2	O	1.340617	0.171501	-0.094007
O3	O	1.533754	-0.021654	-0.094006
O4	O	1.516898	0.347760	-0.094009
O5	O	1.485486	0.026569	0.094006
O6	O	1.292350	0.219724	0.094004
O7	O	1.661767	0.202828	0.094005
Zn8	Zn	1.469395	0.218932	0.123855
Zn9	Zn	1.532989	0.155397	-0.123858
O10	O	1.468631	0.395983	0.094003
C11	C	1.269180	0.194353	-0.000001
C12	C	1.128230	0.190586	-0.000002
C13	C	0.910886	0.324659	-0.000435
C14	C	1.057371	0.328788	-0.000004
C15	C	1.055908	0.147377	0.107360
C16	C	0.909125	0.144359	0.107443
C17	C	0.964208	0.086643	-0.106361
C18	C	1.110912	0.092836	-0.107773
C19	C	1.508356	-0.044846	-0.000002
C20	C	1.504576	-0.185795	-0.000008
C21	C	1.359765	-0.369315	-0.000430
C22	C	1.363490	-0.222588	-0.000007
C23	C	1.544909	-0.219922	0.107356
C24	C	1.540071	-0.366443	0.107446
C25	C	1.597830	-0.421800	-0.106358
C26	C	1.599493	-0.275182	-0.107778
C27	C	1.733205	0.179975	-0.000004
C28	C	1.874157	0.183740	-0.000011
C29	C	1.494029	0.419174	-0.000003
C30	C	1.497811	0.560122	-0.000004
N31	N	1.426003	0.262293	0.292913
N32	N	1.576392	0.112027	-0.292916
C33	C	1.677119	0.011348	0.647900
C34	C	1.707482	-0.019000	0.529561
C35	C	1.637114	0.051320	0.470393
C36	C	1.536379	0.151995	0.529577
C37	C	1.506020	0.182353	0.647928
C38	C	1.466015	0.222325	0.470421
C39	C	1.365280	0.322999	0.529604
C40	C	1.334925	0.353351	0.647944
C41	C	1.405293	0.283031	0.707111
C42	C	1.496375	0.191967	0.352069
C43	C	1.325276	0.362971	0.352097
C44	C	1.294913	0.393319	0.470437
H45	H	0.888699	0.358753	-0.077430
Cl46	Cl	0.813370	0.437632	0.117762
Cl47	Cl	1.168278	0.519879	0.544850
Cl48	Cl	1.311510	-0.187274	-0.118830
H49	H	1.267978	0.420235	0.303924
H50	H	0.942551	0.109354	-0.187736
H51	H	1.380568	0.307736	0.803473
H52	H	1.106475	0.364394	-0.076968
H53	H	0.942240	-0.017305	-0.107086
Cl54	Cl	1.703291	-0.183847	0.113526
H55	H	1.065984	0.404243	0.077086
Cl56	Cl	1.440423	-0.122512	0.230714
H57	H	0.848306	0.213291	0.187697
Cl58	Cl	1.249869	-0.127574	0.119014
H59	H	1.284605	-0.379879	0.076131
Cl60	Cl	1.071868	0.254871	0.230721
Cl61	Cl	1.694787	-0.438592	0.114983
H62	H	1.661841	0.026606	0.374036
H63	H	1.161644	-0.009724	-0.114256
H64	H	1.734409	-0.045891	0.696082
H65	H	1.159921	0.123939	-0.187199
Cl66	Cl	1.304229	-0.443947	-0.119302
H67	H	1.469289	-0.374053	0.187703
Cl68	Cl	1.554921	-0.242801	-0.230424
Cl69	Cl	1.208302	0.479927	0.722348
Cl70	Cl	1.559573	-0.502712	-0.231996
H71	H	1.578394	0.109998	0.303893
Cl72	Cl	1.760877	-0.240368	-0.117796
H73	H	1.699920	-0.469222	-0.107080
Cl74	Cl	1.834113	-0.145553	0.455161
Cl75	Cl	1.127475	-0.008129	0.113526
H76	H	0.884878	0.042244	0.112321
