data_functionalizedCrystal
_audit_creation_method	'MofGen! by Chris Wilmer'
_symmetry_space_group_name_H-M	'P1'
_symmetry_Int_Tables_number	1
_symmetry_cell_setting	triclinic
loop_
_symmetry_equiv_pos_as_xyz
  x,y,z
_cell_length_a	11.792254
_cell_length_b	14.519731
_cell_length_c	10.868271
_cell_angle_alpha	89.993880
_cell_angle_beta	89.995741
_cell_angle_gamma	83.943725
loop_
_atom_site_label
_atom_site_type_symbol
_atom_site_fract_x
_atom_site_fract_y
_atom_site_fract_z
O1	O	1.506211	0.126459	-0.102324
O2	O	2.006211	0.626459	0.397676
O3	O	1.175801	0.139474	-0.102327
O4	O	1.675801	0.639474	0.397673
O5	O	1.349753	-0.001238	-0.102314
O6	O	1.849753	0.498762	0.397686
O7	O	1.332258	0.267171	-0.102337
O8	O	1.832258	0.767171	0.397663
O9	O	1.349739	-0.001244	0.102330
O10	O	1.849739	0.498756	0.602330
O11	O	1.175786	0.139468	0.102317
O12	O	1.675786	0.639468	0.602317
O13	O	1.506196	0.126453	0.102320
O14	O	2.006196	0.626453	0.602320
Zn15	Zn	1.340989	0.132960	0.134811
Zn16	Zn	1.840989	0.632960	0.634811
Zn17	Zn	1.341008	0.132967	-0.134817
Zn18	Zn	1.841008	0.632967	0.365183
O19	O	1.332244	0.267166	0.102308
O20	O	1.832244	0.767166	0.602308
C21	C	1.133507	0.138651	-0.000005
C22	C	1.633507	0.638651	0.499995
C23	C	1.007508	0.136197	-0.000006
C24	C	1.507508	0.636197	0.499994
C25	C	0.905182	0.134203	-0.000011
C26	C	1.405182	0.634203	0.499989
C27	C	0.776809	0.131710	-0.000012
C28	C	1.276809	0.631710	0.499988
C29	C	1.348926	-0.035604	0.000008
C30	C	1.848926	0.464396	0.500008
C31	C	1.346470	-0.137993	0.000009
C32	C	1.846470	0.362007	0.500009
C33	C	1.344474	-0.221145	0.000006
C34	C	1.844474	0.278855	0.500006
C35	C	1.341980	-0.325463	-0.000003
C36	C	1.841980	0.174537	0.499997
C37	C	1.340000	-0.408609	-0.000011
C38	C	1.840000	0.091391	0.499989
C39	C	1.337506	-0.512934	-0.000018
C40	C	1.837506	-0.012934	0.499982
C41	C	1.548490	0.127276	-0.000004
C42	C	2.048490	0.627276	0.499996
C43	C	1.674489	0.129730	-0.000012
C44	C	2.174489	0.629730	0.499988
C45	C	1.333071	0.301531	-0.000018
C46	C	1.833071	0.801531	0.499982
C47	C	1.335527	0.403920	-0.000026
C48	C	1.835527	0.903920	0.499974
N49	N	1.340984	0.132954	0.318825
N50	N	1.840984	0.632954	0.818825
N51	N	1.341021	0.132965	-0.318831
N52	N	1.841021	0.632965	0.181169
C53	C	1.341002	0.132965	0.569831
C54	C	1.841002	0.632965	1.069831
C55	C	1.340989	0.132962	0.430153
C56	C	1.840989	0.632962	0.930153
