data_functionalizedCrystal
_audit_creation_method	'MofGen! by Chris Wilmer'
_symmetry_space_group_name_H-M	'P1'
_symmetry_Int_Tables_number	1
_symmetry_cell_setting	triclinic
loop_
_symmetry_equiv_pos_as_xyz
  x,y,z
_cell_length_a	12.759400
_cell_length_b	12.759401
_cell_length_c	10.685910
_cell_angle_alpha	85.621371
_cell_angle_beta	94.378468
_cell_angle_gamma	89.986380
loop_
_atom_site_label
_atom_site_type_symbol
_atom_site_fract_x
_atom_site_fract_y
_atom_site_fract_z
Zn1	Zn	-0.372931	-1.651669	0.713493
Zn2	Zn	-0.562048	-1.638133	0.502491
Zn3	Zn	-0.386379	-1.462542	0.502505
Zn4	Zn	-0.548569	-1.475956	0.713438
O5	O	-0.467482	-1.557075	0.607981
O6	O	-0.398031	-1.796896	0.685521
O7	O	-0.550014	-1.603562	0.325911
O8	O	-0.237572	-1.487681	0.530522
O9	O	-0.536974	-1.786951	0.530498
O10	O	-0.227692	-1.626632	0.685534
O11	O	-0.420951	-1.474556	0.325921
O12	O	-0.407881	-1.317299	0.530468
O13	O	-0.514002	-1.510544	0.890026
O14	O	-0.527041	-1.327155	0.685440
O15	O	-0.384961	-1.639639	0.890067
O16	O	-0.707283	-1.616569	0.530444
O17	O	-0.697380	-1.497419	0.685426
C18	C	-0.467459	-1.284106	0.607950
C19	C	-0.467472	-1.167330	0.607966
C20	C	-0.539718	-1.107286	0.527134
C21	C	-0.539732	-0.997564	0.527153
C22	C	-0.395246	-1.007938	0.688839
C23	C	-0.395237	-1.117659	0.688826
C24	C	-0.611953	-1.156957	0.446275
C25	C	-0.684204	-1.096913	0.365435
C26	C	-0.684218	-0.987190	0.365454
C27	C	-0.611982	-0.937512	0.446312
C28	C	-0.740451	-1.557011	0.607955
C29	C	-0.857226	-1.557083	0.607986
C30	C	-0.917203	-1.619205	0.527376
C31	C	-1.026925	-1.619272	0.527415
C32	C	-1.016681	-1.495086	0.688677
C33	C	-0.906961	-1.495025	0.688644
C34	C	-0.867468	-1.681262	0.446719
C35	C	-0.927446	-1.743388	0.366101
C36	C	-1.037168	-1.743455	0.366140
C37	C	-1.086911	-1.681396	0.446797
C38	C	-0.193445	-1.557170	0.608036
C39	C	-0.076667	-1.557210	0.608059
C40	C	-0.446478	-1.578098	0.937113
C41	C	-0.437527	-1.587057	1.077369
C42	C	-0.467501	-0.831110	0.608006
C43	C	-0.467495	-0.947886	0.607998
C44	C	-0.488430	-1.536128	1.280131
C45	C	-0.497386	-1.527175	1.139875
H46	H	-0.611947	-1.246298	0.446248
H47	H	-0.379433	-1.645185	1.131161
H48	H	-0.858126	-1.444441	0.754285
Br49	Br	-0.718537	-1.681523	0.447051
Br50	Br	-0.859940	-1.827621	0.256661
Br51	Br	-0.782245	-1.164331	0.255720
Br52	Br	-0.782275	-0.905704	0.255752
H53	H	-0.612006	-0.848168	0.446329
Br54	Br	-0.594226	-1.430307	1.050233
Br55	Br	-0.297217	-0.940517	0.798567
Br56	Br	-0.297192	-1.199155	0.798533
H57	H	-1.085999	-1.794049	0.300507
H58	H	-1.176253	-1.681464	0.446832
H59	H	-1.057191	-1.444559	0.754343
