data_functionalizedCrystal
_audit_creation_method	'MofGen! by Chris Wilmer'
_symmetry_space_group_name_H-M	'P1'
_symmetry_Int_Tables_number	1
_symmetry_cell_setting	triclinic
loop_
_symmetry_equiv_pos_as_xyz
  x,y,z
_cell_length_a	10.654550
_cell_length_b	10.654551
_cell_length_c	7.088929
_cell_angle_alpha	83.718726
_cell_angle_beta	96.260641
_cell_angle_gamma	84.485132
loop_
_atom_site_label
_atom_site_type_symbol
_atom_site_fract_x
_atom_site_fract_y
_atom_site_fract_z
O1	O	1.655050	0.189208	-0.159131
O2	O	1.289574	0.206012	-0.159099
O3	O	1.480715	0.014871	-0.159116
O4	O	1.463910	0.380349	-0.159113
O5	O	1.506258	-0.010731	0.158856
O6	O	1.315118	0.180410	0.158874
O7	O	1.680594	0.163606	0.158842
Cu8	Cu	1.500188	0.169670	0.187892
Cu9	Cu	1.469980	0.199948	-0.188148
O10	O	1.489454	0.354747	0.158860
C11	C	1.255548	0.191976	-0.000108
C12	C	1.116106	0.188284	-0.000097
C13	C	1.036619	0.300827	-0.000123
C14	C	0.905595	0.297353	-0.000157
C15	C	0.933559	0.068783	-0.000144
C16	C	1.064581	0.072257	-0.000097
C17	C	1.088144	0.416854	-0.000123
C18	C	1.008655	0.529407	-0.000152
C19	C	0.877632	0.525933	-0.000185
C20	C	0.826097	0.409906	-0.000189
C21	C	1.492252	-0.044728	-0.000134
C22	C	1.488558	-0.184170	-0.000147
C23	C	1.472903	-0.235726	-0.173470
C24	C	1.469423	-0.366747	-0.173461
C25	C	1.497262	-0.394646	0.173210
C26	C	1.500732	-0.263626	0.173199
C27	C	1.460729	-0.156270	-0.346816
C28	C	1.445074	-0.207826	-0.520154
C29	C	1.441594	-0.338847	-0.520145
C30	C	1.453770	-0.418312	-0.346798
C31	C	1.714619	0.177642	-0.000152
C32	C	1.854061	0.181336	-0.000177
C33	C	1.477916	0.414346	-0.000126
C34	C	1.481608	0.553789	-0.000126
N35	N	1.521444	0.148374	0.452378
N36	N	1.448734	0.221234	-0.452634
H37	H	1.463564	-0.049585	-0.346843
H38	H	1.513453	-0.221645	0.314334
H39	H	0.891586	-0.025678	-0.000179
C40	C	1.038279	0.712136	0.163312
C41	C	1.065301	0.656936	-0.000138
H42	H	1.073257	0.790865	0.163324
H43	H	0.948882	0.726174	0.163275
H44	H	1.074394	0.656810	0.274190
H45	H	1.029178	0.712259	-0.111016
H46	H	1.154716	0.642903	-0.000118
C47	C	1.597963	-0.073392	0.514343
C48	C	1.623184	0.046438	0.562583
H49	H	1.660776	-0.136319	0.582373
H50	H	1.516622	-0.090295	0.547095
H51	H	1.599407	-0.074833	0.380843
H52	H	1.621730	0.047883	0.696081
H53	H	1.704546	0.063346	0.529844
H54	H	1.129302	-0.019386	-0.000080
H55	H	1.373378	0.296739	0.465727
H56	H	1.435149	-0.143115	-0.661286
H57	H	1.450917	-0.524995	-0.346805
H58	H	1.194828	0.419696	-0.000105
C59	C	1.401740	-0.545004	0.374335
C60	C	1.510654	-0.481993	0.363743
H61	H	1.410016	-0.598931	0.491961
H62	H	1.329421	-0.484374	0.367140
H63	H	1.391933	-0.594457	0.271100
H64	H	1.520456	-0.432531	0.466971
H65	H	1.582993	-0.542631	0.370957
C66	C	0.800355	0.732833	-0.163675
C67	C	0.790255	0.649645	-0.000215
H68	H	0.746406	0.809207	-0.163702
H69	H	0.885752	0.751499	-0.163636
H70	H	0.775733	0.694213	-0.274546
H71	H	0.814886	0.688262	0.110656
H72	H	0.704839	0.630981	-0.000237
C73	C	0.617691	0.480301	-0.163700
C74	C	0.682074	0.406080	-0.000227
H75	H	0.528779	0.477931	-0.163732
H76	H	0.636998	0.565495	-0.163673
H77	H	0.643619	0.447796	-0.274561
H78	H	0.656153	0.438591	0.110636
H79	H	0.662757	0.320869	-0.000236
H80	H	1.428834	-0.380818	-0.661284
