data_functionalizedCrystal
_audit_creation_method	'MofGen! by Chris Wilmer'
_symmetry_space_group_name_H-M	'P1'
_symmetry_Int_Tables_number	1
_symmetry_cell_setting	triclinic
loop_
_symmetry_equiv_pos_as_xyz
  x,y,z
_cell_length_a	16.992694
_cell_length_b	10.654541
_cell_length_c	16.053810
_cell_angle_alpha	87.396977
_cell_angle_beta	92.738518
_cell_angle_gamma	87.576076
loop_
_atom_site_label
_atom_site_type_symbol
_atom_site_fract_x
_atom_site_fract_y
_atom_site_fract_z
O1	O	1.045101	0.261460	0.069324
O2	O	0.816801	0.258535	0.069348
O3	O	0.936201	0.077712	0.069330
O4	O	0.925701	0.442283	0.069342
O5	O	0.929656	0.087664	-0.069527
O6	O	0.810256	0.268487	-0.069509
O7	O	1.038556	0.271412	-0.069534
Zn8	Zn	0.923367	0.271530	-0.091568
Zn9	Zn	0.931990	0.258417	0.091383
O10	O	0.919156	0.452235	-0.069516
C11	C	0.784296	0.259751	-0.000077
C12	C	0.697191	0.248531	-0.000068
C13	C	0.647539	0.356781	-0.000065
C14	C	0.565694	0.346233	-0.000077
C15	C	0.533504	0.227433	-0.000086
C16	C	0.583162	0.119174	-0.000091
C17	C	0.665005	0.129724	-0.000085
C18	C	0.289668	0.183707	-0.000110
C19	C	0.207819	0.173165	-0.000113
C20	C	0.190356	0.400226	-0.000101
C21	C	0.272201	0.410765	-0.000090
C22	C	0.321852	0.302506	-0.000099
N23	N	0.449846	0.216647	-0.000095
N24	N	0.405508	0.313293	-0.000096
C25	C	0.932158	0.035823	-0.000098
C26	C	0.929852	-0.103819	-0.000096
C27	C	1.072627	-0.119450	-0.000122
C28	C	1.142928	-0.192868	-0.000137
C29	C	1.140757	-0.324074	-0.000134
C30	C	1.068278	-0.381864	-0.000114
C31	C	0.997977	-0.308446	-0.000100
C32	C	1.000155	-0.177238	-0.000105
C33	C	0.855204	-0.292816	-0.000068
C34	C	0.857373	-0.161610	-0.000076
C35	C	0.782725	-0.350606	-0.000048
C36	C	0.712422	-0.277188	-0.000039
C37	C	0.714596	-0.145974	-0.000043
C38	C	0.787072	-0.088192	-0.000062
C39	C	1.071061	0.270196	-0.000106
C40	C	1.158166	0.281416	-0.000110
C41	C	0.923199	0.494124	-0.000086
C42	C	0.925505	0.633766	-0.000082
N43	N	0.917487	0.280479	-0.216428
C44	C	0.887059	0.326379	-0.740055
C45	C	0.891189	0.320144	-0.652649
C46	C	0.946140	0.236996	-0.608948
C47	C	0.996960	0.160068	-0.652657
C48	C	0.992825	0.166297	-0.740061
C49	C	0.964172	0.209780	-0.347541
C50	C	0.968305	0.203559	-0.260131
C51	C	0.862532	0.363634	-0.260129
C52	C	0.858406	0.369861	-0.347535
C53	C	0.909222	0.292929	-0.391237
N54	N	0.950365	0.230625	-0.519605
N55	N	0.904994	0.299295	-0.480578
N56	N	0.937876	0.249459	0.216242
H57	H	0.673741	0.453522	-0.000058
Br58	Br	0.498311	0.493152	-0.000071
Br59	Br	1.241289	-0.114435	-0.000155
Br60	Br	0.164132	0.011926	-0.000142
H61	H	0.653415	-0.324252	-0.000018
H62	H	1.198003	-0.383852	-0.000139
Br63	Br	0.790027	0.089875	-0.000076
H64	H	0.330084	0.095555	-0.000118
H65	H	0.657348	-0.086204	-0.000027
H66	H	1.066517	-0.488700	-0.000101
H67	H	0.780962	-0.457442	-0.000040
Br68	Br	0.122969	0.547139	-0.000089
H69	H	0.842315	0.394092	-0.775631
H70	H	0.849809	0.382777	-0.617067
H71	H	0.705432	0.041574	-0.000087
H72	H	0.813660	0.437567	-0.383116
Br73	Br	0.793569	0.468035	-0.200818
H74	H	1.041700	0.092361	-0.617070
Br75	Br	1.042892	0.090711	-0.200826
H76	H	0.298405	0.507504	-0.000073
H77	H	1.005551	0.147140	-0.383116
H78	H	0.556946	0.022445	-0.000110
H79	H	1.074401	-0.012615	-0.000136
Br80	Br	1.061790	0.061893	-0.799372
