data_functionalizedCrystal
_audit_creation_method	'MofGen! by Chris Wilmer'
_symmetry_space_group_name_H-M	'P1'
_symmetry_Int_Tables_number	1
_symmetry_cell_setting	triclinic
loop_
_symmetry_equiv_pos_as_xyz
  x,y,z
_cell_length_a	13.897449
_cell_length_b	19.121063
_cell_length_c	13.897433
_cell_angle_alpha	92.365977
_cell_angle_beta	89.951491
_cell_angle_gamma	92.470221
loop_
_atom_site_label
_atom_site_type_symbol
_atom_site_fract_x
_atom_site_fract_y
_atom_site_fract_z
Zn1	Zn	1.458547	-0.279275	-0.561709
Zn2	Zn	1.958547	0.220725	-0.061709
Zn3	Zn	1.451452	-0.396819	-0.407283
Zn4	Zn	1.951452	0.103181	0.092717
Zn5	Zn	1.297151	-0.279392	-0.400434
Zn6	Zn	1.797151	0.220608	0.099566
Zn7	Zn	1.290314	-0.396689	-0.568528
Zn8	Zn	1.790314	0.103311	-0.068528
O9	O	1.374366	-0.338044	-0.484489
O10	O	1.874366	0.161956	0.015511
O11	O	1.592587	-0.294873	-0.541237
O12	O	2.092587	0.205127	-0.041237
O13	O	1.430875	-0.381345	-0.271398
O14	O	1.930875	0.118655	0.228602
O15	O	1.324391	-0.181095	-0.416108
O16	O	1.824391	0.318905	0.083892
O17	O	1.587374	-0.381232	-0.427780
O18	O	2.087374	0.118768	0.072220
O19	O	1.442968	-0.181009	-0.534596
O20	O	1.942968	0.318991	-0.034596
O21	O	1.317511	-0.295073	-0.266367
O22	O	1.817511	0.204927	0.233633
O23	O	1.161263	-0.294947	-0.422720
O24	O	1.661263	0.205053	0.077280
O25	O	1.312739	-0.381010	-0.702599
O26	O	1.812739	0.118990	-0.202599
O27	O	1.156240	-0.381124	-0.546218
O28	O	1.656240	0.118876	-0.046218
O29	O	1.436339	-0.294747	-0.697590
O30	O	1.936339	0.205253	-0.197590
O31	O	1.424246	-0.495083	-0.434392
O32	O	1.924246	0.004917	0.065608
O33	O	1.305859	-0.494987	-0.552858
O34	O	1.805859	0.005013	-0.052858
C35	C	1.123752	-0.338034	-0.484466
C36	C	1.623752	0.161966	0.015534
C37	C	1.016537	-0.338047	-0.484480
C38	C	1.516537	0.161953	0.015520
C39	C	1.363567	-0.520518	-0.495129
C40	C	1.863567	-0.020518	0.004871
C41	C	1.359035	-0.598582	-0.499713
C42	C	1.859035	-0.098582	0.000287
C43	C	0.820242	-0.338050	-0.484506
C44	C	1.320242	0.161950	0.015494
C45	C	0.929475	-0.338046	-0.484489
C46	C	1.429475	0.161954	0.015511
C47	C	1.418592	-0.635283	-0.440239
C48	C	1.918592	-0.135283	0.059761
C49	C	1.414336	-0.708632	-0.444556
C50	C	1.914336	-0.208632	0.055444
C51	C	1.350517	-0.745278	-0.508343
C52	C	1.850517	-0.245278	-0.008343
C53	C	1.290958	-0.708572	-0.567824
C54	C	1.790958	-0.208572	-0.067824
C55	C	1.295220	-0.635225	-0.563511
C56	C	1.795220	-0.135225	-0.063511
C57	C	1.334567	-0.966739	-0.524453
C58	C	1.834567	-0.466739	-0.024453
C59	C	1.330308	-1.040092	-0.528759
C60	C	1.830308	-0.540092	-0.028759
C61	C	1.453687	-1.040146	-0.405492
C62	C	1.953687	-0.540146	0.094508
C63	C	1.457940	-0.966797	-0.401181
C64	C	1.957940	-0.466797	0.098819
C65	C	1.398384	-0.930098	-0.460665
C66	C	1.898384	-0.430098	0.039335
C67	C	1.346163	-0.820253	-0.512755
C68	C	1.846163	-0.320253	-0.012755
C69	C	1.402744	-0.855125	-0.456257
C70	C	1.902744	-0.355125	0.043743
C71	C	1.625958	-0.338054	-0.484512
C72	C	2.125958	0.161946	0.015488
C73	C	1.733172	-0.338058	-0.484522
C74	C	2.233172	0.161942	0.015478
C75	C	1.374568	-0.337851	-0.736071
C76	C	1.874568	0.162149	-0.236071
C77	C	1.374654	-0.337769	-0.843280
C78	C	1.874654	0.162231	-0.343280
C79	C	1.385234	-0.154856	-0.473828
C80	C	1.885234	0.345144	0.026172
C81	C	1.389865	-0.076793	-0.469285
C82	C	1.889865	0.423207	0.030715
C83	C	1.374223	-0.338185	-0.233882
C84	C	1.874223	0.161815	0.266118
C85	C	1.374336	-0.338070	-0.126662
C86	C	1.874336	0.161930	0.373338
C87	C	1.374563	-0.337863	0.069645
C88	C	1.874563	0.162137	0.569645
C89	C	1.374439	-0.337980	-0.039594
C90	C	1.874439	0.162020	0.460406
H91	H	1.470555	-0.605450	-0.388292
H92	H	1.970555	-0.105450	0.111708
C93	C	1.519197	-1.080521	-0.340067
C94	C	2.019197	-0.580521	0.159933
N95	N	1.568543	-1.110932	-0.290788
N96	N	2.068543	-0.610932	0.209212
H97	H	1.278351	-1.069928	-0.580719
H98	H	1.778351	-0.569928	-0.080719
H99	H	1.454709	-0.825285	-0.404325
H100	H	1.954709	-0.325285	0.095675
C101	C	1.269103	-0.926379	-0.589937
C102	C	1.769103	-0.426379	-0.089937
N103	N	1.219811	-0.895978	-0.639282
N104	N	1.719811	-0.395978	-0.139282
H105	H	1.509906	-0.936961	-0.349240
H106	H	2.009906	-0.436961	0.150760
H107	H	1.294200	-0.850099	-0.564689
H108	H	1.794200	-0.350099	-0.064689
H109	H	1.239000	-0.738416	-0.619765
H110	H	1.739000	-0.238416	-0.119765
H111	H	1.246724	-0.605344	-0.611942
H112	H	1.746724	-0.105344	-0.111942
H113	H	1.462832	-0.738510	-0.396125
H114	H	1.962832	-0.238510	0.103875
