data_functionalizedCrystal
_audit_creation_method	'MofGen! by Chris Wilmer'
_symmetry_space_group_name_H-M	'P1'
_symmetry_Int_Tables_number	1
_symmetry_cell_setting	triclinic
loop_
_symmetry_equiv_pos_as_xyz
  x,y,z
_cell_length_a	14.853566
_cell_length_b	17.038272
_cell_length_c	16.098546
_cell_angle_alpha	92.931930
_cell_angle_beta	87.273508
_cell_angle_gamma	87.372985
loop_
_atom_site_label
_atom_site_type_symbol
_atom_site_fract_x
_atom_site_fract_y
_atom_site_fract_z
O1	O	1.207797	0.098582	-0.069201
O2	O	0.946253	0.110743	-0.069215
O3	O	1.075470	-0.009155	-0.069202
O4	O	1.078580	0.218480	-0.069215
O5	O	1.067953	-0.002153	0.069310
O6	O	0.938736	0.117745	0.069297
O7	O	1.200280	0.105583	0.069310
Zn8	Zn	1.068314	0.112776	0.091295
Zn9	Zn	1.078219	0.103551	-0.091200
O10	O	1.071063	0.225481	0.069297
C11	C	0.908865	0.113693	0.000039
C12	C	0.808657	0.112042	0.000034
C13	C	0.389043	0.101244	-0.075454
C14	C	0.380869	0.108877	0.075557
C15	C	0.475020	0.110428	0.075554
C16	C	0.526187	0.107387	0.000046
C17	C	0.483203	0.102796	-0.075459
C18	C	0.518011	0.115026	0.151058
C19	C	0.612167	0.116578	0.151059
C20	C	0.663336	0.113531	0.075550
C21	C	0.620347	0.108939	0.000041
C22	C	0.671513	0.105899	-0.075467
C23	C	0.628526	0.101301	-0.150976
C24	C	0.534372	0.099750	-0.150968
C25	C	0.757490	0.115083	0.075542
C26	C	0.765673	0.107451	-0.075472
C27	C	1.068884	-0.034786	0.000054
C28	C	1.060448	-0.121590	0.000053
C29	C	1.137901	-0.171602	0.000058
C30	C	1.129970	-0.253164	0.000050
C31	C	1.044584	-0.284711	0.000042
C32	C	0.967125	-0.234692	0.000035
C33	C	0.975058	-0.153132	0.000037
C34	C	1.016559	-0.530506	0.000030
C35	C	1.008632	-0.612072	0.000030
C36	C	1.171478	-0.630538	0.000043
C37	C	1.179403	-0.548976	0.000050
C38	C	1.101944	-0.498964	0.000038
C39	C	1.036474	-0.368079	0.000037
C40	C	1.110055	-0.415598	0.000038
C41	C	1.237669	0.102634	0.000054
C42	C	1.337877	0.104284	0.000054
C43	C	1.077649	0.251112	0.000039
C44	C	1.086085	0.337916	0.000035
N45	N	1.061561	0.119071	0.215844
N46	N	1.084978	0.097249	-0.215748
C47	C	1.030118	0.148127	0.740660
C48	C	1.034863	0.143738	0.653471
C49	C	1.094473	0.088475	0.609876
C50	C	1.149335	0.037592	0.653474
C51	C	1.144585	0.041978	0.740661
C52	C	1.111674	0.072574	0.346629
C53	C	1.116422	0.068194	0.259436
C54	C	1.001948	0.174339	0.259438
C55	C	0.997207	0.178723	0.346627
C56	C	1.052066	0.127838	0.390217
C57	C	1.099326	0.083989	0.520756
C58	C	1.047207	0.132320	0.479336
H59	H	0.647159	0.120320	0.212543
H60	H	1.179576	-0.389910	0.000026
H61	H	1.248932	-0.523297	0.000056
C62	C	0.821950	0.104103	-0.158538
N63	N	0.864337	0.101581	-0.221105
H64	H	1.234540	-0.671266	0.000051
H65	H	0.981582	0.193131	0.776149
H66	H	0.792486	0.118834	0.137020
H67	H	1.193040	-0.293881	0.000056
H68	H	0.990191	0.185165	0.617979
C69	C	0.931352	-0.475504	0.000012
N70	N	0.867169	-0.434073	-0.000004
H71	H	0.939097	-0.637753	0.000037
H72	H	0.339203	0.111359	0.137032
C73	C	0.873199	-0.269396	0.000034
N74	N	0.802452	-0.295534	0.000039
C75	C	0.941600	0.230303	0.211482
N76	N	0.896140	0.272454	0.175361
H77	H	0.476343	0.117507	0.212533
C78	C	0.931626	0.239512	0.394575
N79	N	0.882229	0.285299	0.430689
C80	C	0.889853	-0.098118	0.000034
N81	N	0.825674	-0.056682	0.000029
H82	H	0.670198	0.098831	-0.212455
H83	H	0.966953	-0.393774	0.000032
C84	C	1.181997	0.007395	0.211483
N85	N	1.231386	-0.038396	0.175365
H86	H	1.156344	0.031143	0.382113
H87	H	1.197868	-0.007408	0.617975
C88	C	1.204936	-0.013990	0.788612
N89	N	1.250393	-0.056149	0.824727
H90	H	0.499363	0.096006	-0.212444
H91	H	1.147864	0.038994	0.485254
C92	C	0.341757	0.096186	-0.158510
N93	N	0.306140	0.092377	-0.221069
C94	C	1.231833	-0.136909	0.000066
N95	N	1.302585	-0.110781	0.000069
H96	H	0.998669	0.177313	0.514834
