data_functionalizedCrystal
_audit_creation_method	'MofGen! by Chris Wilmer'
_symmetry_space_group_name_H-M	'P1'
_symmetry_Int_Tables_number	1
_symmetry_cell_setting	triclinic
loop_
_symmetry_equiv_pos_as_xyz
  x,y,z
_cell_length_a	17.699077
_cell_length_b	16.776229
_cell_length_c	17.699083
_cell_angle_alpha	89.991718
_cell_angle_beta	96.718205
_cell_angle_gamma	90.000648
loop_
_atom_site_label
_atom_site_type_symbol
_atom_site_fract_x
_atom_site_fract_y
_atom_site_fract_z
O1	O	1.004075	0.066279	-0.095693
O2	O	0.783696	0.066283	-0.108150
O3	O	0.900111	0.066274	0.008268
O4	O	0.887659	0.066288	-0.212111
O5	O	0.900109	-0.066302	0.008278
O6	O	0.783694	-0.066293	-0.108140
O7	O	1.004073	-0.066297	-0.095683
Zn8	Zn	0.893883	-0.087345	-0.101910
Zn9	Zn	0.893885	0.087331	-0.101923
O10	O	0.887657	-0.066288	-0.212101
C11	C	0.755498	-0.000004	-0.107700
C12	C	0.671479	-0.000003	-0.106363
C13	C	0.632011	-0.072271	-0.105727
C14	C	0.553068	-0.072272	-0.104459
C15	C	0.513595	-0.000004	-0.103832
C16	C	0.553069	0.072270	-0.104465
C17	C	0.632011	0.072270	-0.105728
C18	C	0.234706	0.072271	-0.099372
C19	C	0.155758	0.072265	-0.098111
C20	C	0.155763	-0.072271	-0.098103
C21	C	0.234705	-0.072271	-0.099366
C22	C	0.274173	0.000002	-0.099995
C23	C	0.359772	0.000002	-0.101369
C24	C	0.427997	-0.000003	-0.102464
C25	C	0.899664	-0.000014	0.036470
C26	C	0.898326	-0.000015	0.120488
C27	C	1.032271	-0.000008	-0.096133
C28	C	1.116289	-0.000004	-0.097470
N29	N	0.893888	0.206542	-0.101927
N30	N	0.893887	-0.206556	-0.101900
C31	C	0.945532	0.248255	-0.050478
C32	C	0.945535	0.331707	-0.050476
C33	C	0.893889	0.373445	-0.101920
C34	C	0.842242	0.331726	-0.153374
C35	C	0.842244	0.248275	-0.153379
C36	C	0.842237	0.668273	-0.153356
C37	C	0.842238	0.751730	-0.153346
C38	C	0.945528	0.751705	-0.050453
C39	C	0.945529	0.668254	-0.050458
C40	C	0.893886	0.626543	-0.101915
C41	C	0.893884	0.536054	-0.101917
C42	C	0.893887	0.463932	-0.101915
C43	C	0.888104	0.000002	-0.240303
C44	C	0.889443	0.000008	-0.324321
C45	C	0.966659	-0.000017	0.169110
C46	C	0.965397	-0.000010	0.248054
C47	C	0.895800	-0.000006	0.278373
C48	C	0.827461	-0.000001	0.229744
C49	C	0.828724	-0.000003	0.150803
C50	C	0.822366	0.000005	0.548107
C51	C	0.821108	0.000004	0.627055
C52	C	0.959039	-0.000002	0.645358
C53	C	0.960302	-0.000003	0.566417
C54	C	0.891963	0.000006	0.517795
C55	C	0.893333	-0.000000	0.432196
C56	C	0.894430	-0.000006	0.363971
H57	H	0.664145	0.131118	-0.106247
C58	C	0.740133	0.256676	-0.255077
C59	C	0.785469	0.202421	-0.209928
H60	H	0.705080	0.228367	-0.289986
H61	H	0.771524	0.289229	-0.282327
H62	H	0.713038	0.289220	-0.223537
H63	H	0.812568	0.169881	-0.241468
H64	H	0.754074	0.169854	-0.182676
C65	C	1.076219	-0.068160	0.685281
C66	C	1.034160	-0.000003	0.698807
H67	H	1.122591	-0.068163	0.718281
H68	H	1.086927	-0.068158	0.633934
H69	H	1.047664	-0.114384	0.694471
H70	H	1.062712	0.046222	0.689612
H71	H	1.023453	0.000003	0.750167
H72	H	0.987585	0.214278	-0.008584
C73	C	0.739197	0.574437	-0.169732
C74	C	0.785464	0.622432	-0.209911
H75	H	0.704148	0.546132	-0.204650
H76	H	0.712103	0.606983	-0.138204
H77	H	0.769962	0.537635	-0.139104
H78	H	0.754699	0.659238	-0.240536
H79	H	0.812559	0.589883	-0.241452
H80	H	0.123619	-0.131120	-0.097587
H81	H	0.266840	-0.131119	-0.099880
H82	H	0.764431	0.000006	0.651737
H83	H	1.023333	-0.000025	0.144431
H84	H	1.021041	-0.000014	0.287639
C85	C	0.455644	-0.156116	-0.168055
C86	C	0.509677	-0.151707	-0.103753
H87	H	0.428853	-0.205155	-0.167611
H88	H	0.480580	-0.153120	-0.212663
H89	H	0.420848	-0.113067	-0.167492
H90	H	0.544477	-0.194752	-0.104318
H91	H	0.484740	-0.154711	-0.059133
C92	C	0.739195	0.845578	-0.169718
C93	C	0.785469	0.797610	-0.209902
H94	H	0.704149	0.873899	-0.204632
H95	H	0.769951	0.882359	-0.139078
H96	H	0.712093	0.813005	-0.138200
H97	H	0.812576	0.830184	-0.241415
H98	H	0.754710	0.760825	-0.240555
C99	C	0.520135	0.195472	-0.169125
C100	C	0.509681	0.151710	-0.103780
H101	H	0.493353	0.244517	-0.168700
H102	H	0.501342	0.165778	-0.213026
H103	H	0.572801	0.205810	-0.169957
H104	H	0.457015	0.141366	-0.102951
H105	H	0.528471	0.181409	-0.059867
H106	H	0.987588	0.365669	-0.008584
C107	C	0.796369	0.459659	-0.199049
C108	C	0.785469	0.377602	-0.209921
H109	H	0.761313	0.487978	-0.233955
H110	H	0.846829	0.473337	-0.207305
H111	H	0.788342	0.473313	-0.148515
H112	H	0.793501	0.363947	-0.260453
H113	H	0.734997	0.363919	-0.201671
H114	H	1.016974	-0.000010	0.541735
H115	H	0.770794	0.000007	0.254436
H116	H	0.773080	-0.000001	0.111214
C117	C	0.163681	0.215146	-0.098229
C118	C	0.112368	0.151709	-0.097415
H119	H	0.136892	0.264187	-0.097796
H120	H	0.188615	0.212151	-0.142837
H121	H	0.200328	0.212129	-0.054599
H122	H	0.075724	0.154723	-0.141049
H123	H	0.087421	0.154705	-0.052802
C124	C	0.314840	0.156134	-0.165834
C125	C	0.278080	0.151714	-0.100072
H126	H	0.341621	0.205181	-0.166263
H127	H	0.278189	0.153131	-0.209452
H128	H	0.349649	0.113095	-0.166376
H129	H	0.243266	0.194750	-0.099532
H130	H	0.314734	0.154725	-0.056442
C131	C	0.685899	-0.000006	0.537956
C132	C	0.747249	-0.000000	0.494669
H133	H	0.639524	-0.000017	0.504961
H134	H	0.688273	0.046225	0.569116
H135	H	0.688287	-0.046240	0.569138
H136	H	0.744864	0.046237	0.463491
H137	H	0.744874	-0.046236	0.463496
H138	H	0.987582	0.634274	-0.008566
H139	H	0.987582	0.785675	-0.008557
H140	H	0.664143	-0.131121	-0.106244
