data_functionalizedCrystal
_audit_creation_method	'MofGen! by Chris Wilmer'
_symmetry_space_group_name_H-M	'P1'
_symmetry_Int_Tables_number	1
_symmetry_cell_setting	triclinic
loop_
_symmetry_equiv_pos_as_xyz
  x,y,z
_cell_length_a	13.262390
_cell_length_b	13.262508
_cell_length_c	11.892095
_cell_angle_alpha	109.778227
_cell_angle_beta	70.212847
_cell_angle_gamma	88.760843
loop_
_atom_site_label
_atom_site_type_symbol
_atom_site_fract_x
_atom_site_fract_y
_atom_site_fract_z
O1	O	1.428916	0.105785	-0.500803
O2	O	1.116059	0.128488	-0.397636
O3	O	1.283843	-0.039283	-0.500798
O4	O	1.261132	0.273556	-0.397640
O5	O	1.269853	-0.025316	-0.304196
O6	O	1.102070	0.142455	-0.201033
O7	O	1.414926	0.119752	-0.304201
Zn8	Zn	1.256277	0.133321	-0.221402
Zn9	Zn	1.274708	0.114919	-0.480434
O10	O	1.247143	0.287524	-0.201038
C11	C	1.069082	0.135484	-0.287038
C12	C	0.949946	0.135508	-0.250403
C13	C	0.644635	0.105104	-0.575829
C14	C	0.756569	0.105077	-0.610253
C15	C	0.804919	0.112685	-0.520293
C16	C	0.741323	0.120320	-0.395903
C17	C	0.629379	0.120339	-0.361479
C18	C	0.789663	0.127919	-0.305943
C19	C	0.726067	0.135555	-0.181553
C20	C	0.614134	0.135574	-0.147134
C21	C	0.565784	0.127966	-0.237094
C22	C	0.901607	0.127900	-0.340368
C23	C	0.886351	0.143135	-0.126018
C24	C	0.774417	0.143163	-0.091594
C25	C	1.276861	-0.072281	-0.414795
C26	C	1.276888	-0.191410	-0.451434
C27	C	1.246456	-0.496775	-0.126027
C28	C	1.246422	-0.384845	-0.091599
C29	C	1.254039	-0.336481	-0.181555
C30	C	1.261689	-0.400058	-0.305945
C31	C	1.261714	-0.511997	-0.340374
C32	C	1.269297	-0.351703	-0.395902
C33	C	1.276947	-0.415279	-0.520292
C34	C	1.276973	-0.527208	-0.554715
C35	C	1.269356	-0.575572	-0.464759
C36	C	1.269272	-0.239764	-0.361473
C37	C	1.284530	-0.254985	-0.575819
C38	C	1.284564	-0.366915	-0.610248
C39	C	1.461904	0.112756	-0.414801
C40	C	1.581040	0.112732	-0.451444
C41	C	1.254124	0.320521	-0.287044
C42	C	1.254098	0.439650	-0.250412
N43	N	1.243706	0.145880	-0.044622
N44	N	1.287288	0.102352	-0.657219
C45	C	1.374764	0.014903	0.111466
C46	C	1.365984	0.023689	0.235208
C47	C	1.217364	0.172232	0.326606
C48	C	1.226143	0.163446	0.202864
C49	C	1.304847	0.084780	0.095296
C50	C	1.313630	0.076000	-0.028448
C51	C	1.165005	0.224537	0.062952
C52	C	1.156226	0.233323	0.186694
H53	H	0.605259	0.098900	-0.649064
C54	C	1.088092	0.301409	0.045172
H55	H	1.039971	0.349521	0.126960
H56	H	1.047526	0.260152	-0.001201
H57	H	1.129340	0.341998	-0.001197
C58	C	1.130733	0.258692	0.444933
H59	H	1.090324	0.299031	0.417584
H60	H	1.165051	0.306157	0.495174
H61	H	1.083345	0.224203	0.495031
H62	H	1.269389	-0.666715	-0.492787
C63	C	1.400196	-0.010532	-0.146768
H64	H	1.440570	-0.050896	-0.119410
H65	H	1.447615	0.023870	-0.196948
H66	H	1.365798	-0.057972	-0.196930
C67	C	1.069629	0.319821	0.305015
H68	H	1.029233	0.360166	0.277659
H69	H	1.103982	0.367272	0.355219
H70	H	1.022220	0.285374	0.355154
H71	H	1.290792	-0.418695	-0.711528
H72	H	1.283193	-0.578968	-0.655998
H73	H	0.953376	0.121686	-0.441646
C74	C	1.461335	-0.071620	-0.006858
H75	H	1.501717	-0.111981	0.020495
H76	H	1.508746	-0.037209	-0.057032
H77	H	1.426942	-0.119065	-0.057024
H78	H	0.925717	0.149328	-0.052766
C79	C	0.928042	0.112665	-0.558155
H80	H	0.958992	0.107039	-0.645116
H81	H	0.959867	0.052773	-0.548494
H82	H	0.941228	0.178193	-0.504222
C83	C	1.292910	-0.201802	-0.674782
H84	H	1.297454	-0.255693	-0.753788
H85	H	1.355926	-0.167762	-0.687949
H86	H	1.230498	-0.149144	-0.643659
C87	C	1.442891	-0.053173	0.252998
H88	H	1.426387	-0.036682	0.342100
H89	H	1.515765	-0.044210	0.213938
H90	H	1.433950	-0.126055	0.213946
C91	C	0.826515	0.096686	-0.747066
H92	H	0.781689	0.092168	-0.795709
H93	H	0.879813	0.033656	-0.787091
H94	H	0.861183	0.159077	-0.742805
H95	H	0.562359	0.141772	-0.045855
C96	C	0.442654	0.127999	-0.199223
H97	H	0.411701	0.133638	-0.112258
H98	H	0.429453	0.062489	-0.253157
H99	H	0.410842	0.187910	-0.208872
H100	H	1.263033	-0.188009	-0.260190
C101	C	0.704450	0.151593	0.045238
H102	H	0.630861	0.150520	0.052851
H103	H	0.710361	0.217435	0.105746
H104	H	0.728953	0.092018	0.061527
H105	H	1.254009	-0.245342	-0.153515
H106	H	1.240204	-0.333091	0.009676
H107	H	1.240247	-0.536163	-0.052796
