data_functionalizedCrystal
_audit_creation_method	'MofGen! by Chris Wilmer'
_symmetry_space_group_name_H-M	'P1'
_symmetry_Int_Tables_number	1
_symmetry_cell_setting	triclinic
loop_
_symmetry_equiv_pos_as_xyz
  x,y,z
_cell_length_a	18.101395
_cell_length_b	12.759401
_cell_length_c	12.759393
_cell_angle_alpha	89.979989
_cell_angle_beta	90.033445
_cell_angle_gamma	89.972817
loop_
_atom_site_label
_atom_site_type_symbol
_atom_site_fract_x
_atom_site_fract_y
_atom_site_fract_z
Zn1	Zn	-0.294863	-1.606136	0.594010
Zn2	Zn	-0.418725	-1.605980	0.418324
Zn3	Zn	-0.294893	-1.430438	0.418345
Zn4	Zn	-0.418659	-1.430376	0.593961
O5	O	-0.356785	-1.518232	0.506160
O6	O	-0.311309	-1.753136	0.570717
O7	O	-0.402339	-1.582654	0.271306
O8	O	-0.191256	-1.453835	0.441676
O9	O	-0.402310	-1.753021	0.441641
O10	O	-0.191234	-1.582920	0.570737
O11	O	-0.311360	-1.453684	0.271321
O12	O	-0.311296	-1.283408	0.441629
O13	O	-0.402197	-1.453730	0.740989
O14	O	-0.402226	-1.283363	0.570653
O15	O	-0.311245	-1.582860	0.741025
O16	O	-0.522349	-1.582594	0.441594
O17	O	-0.522301	-1.453579	0.570634
C18	C	-0.356758	-1.245265	0.506139
C19	C	-0.356764	-1.128488	0.506154
C20	C	-0.309467	-1.073679	0.573467
C21	C	-0.309478	-0.963955	0.573471
C22	C	-0.404087	-0.963859	0.438847
C23	C	-0.404073	-1.073581	0.438838
C24	C	-0.262159	-1.128586	0.640783
C25	C	-0.214859	-1.073776	0.708101
C26	C	-0.214869	-0.964052	0.708105
C27	C	-0.262179	-0.909138	0.640790
C28	C	-0.549196	-1.518092	0.506129
C29	C	-0.631510	-1.518128	0.506151
C30	C	-0.930601	-1.518358	0.506208
C31	C	-0.899276	-1.437373	0.587597
C32	C	-0.813658	-1.436989	0.587343
C33	C	-0.782218	-1.518244	0.506180
C34	C	-0.813377	-1.488263	0.395455
C35	C	-0.899022	-1.487741	0.395942
C36	C	-0.898948	-1.629501	0.534569
C37	C	-0.813296	-1.628847	0.536997
C38	C	-0.698359	-1.518181	0.506158
C39	C	-1.014460	-1.518418	0.506222
C40	C	-0.163623	-1.518402	0.506214
C41	C	-0.081309	-1.518474	0.506237
C42	C	-0.356711	-1.518306	0.780194
C43	C	-0.356679	-1.518337	0.896970
C44	C	-0.356804	-0.792265	0.506176
C45	C	-0.356789	-0.909042	0.506166
C46	C	-0.356806	-1.518219	0.233193
C47	C	-0.356629	-1.518392	0.116417
C48	C	-0.309315	-1.585584	0.951853
C49	C	-0.309289	-1.585609	1.061577
C50	C	-0.403995	-1.451137	1.061526
C51	C	-0.404017	-1.451108	0.951804
C52	C	-0.261977	-1.652814	0.897019
C53	C	-0.214610	-1.720067	0.951901
C54	C	-0.214583	-1.720092	1.061625
C55	C	-0.261923	-1.652864	1.116467
H56	H	-0.262168	-0.819793	0.640776
O57	O	-0.168555	-1.785401	0.898796
C58	C	-0.074647	-1.918823	0.910428
C59	C	-0.126756	-1.844870	0.970696
H60	H	-0.040849	-1.966939	0.968533
H61	H	-0.035880	-1.870663	0.859095
H62	H	-0.108678	-1.973671	0.859025
H63	H	-0.092784	-1.790008	1.022156
H64	H	-0.165524	-1.893095	1.021963
O65	O	-0.168490	-1.785262	1.114984
C66	C	-0.068500	-1.799521	1.238938
C67	C	-0.120644	-1.725592	1.178562
H68	H	-0.029815	-1.751309	1.290372
H69	H	-0.034618	-1.847541	1.180939
H70	H	-0.102508	-1.854460	1.290256
H71	H	-0.086694	-1.670589	1.127242
H72	H	-0.154529	-1.677646	1.236617
O73	O	-0.923146	-1.701611	0.464004
C74	C	-0.991396	-1.861324	0.436288
C75	C	-0.964020	-1.779761	0.516317
H76	H	-1.024462	-1.924516	0.478548
H77	H	-0.941997	-1.898661	0.395352
H78	H	-1.028043	-1.821126	0.375694
H79	H	-0.927387	-1.819879	0.576973
H80	H	-1.013453	-1.742428	0.557173
O81	O	-0.168972	-1.127278	0.773451
C82	C	-0.126992	-1.296352	0.833064
C83	C	-0.179010	-1.235897	0.759020
H84	H	-0.135078	-1.384181	0.821408
H85	H	-0.140071	-1.274883	0.917772
H86	H	-0.067272	-1.274737	0.814777
H87	H	-0.238747	-1.257480	0.777213
H88	H	-0.165867	-1.257371	0.674335
O89	O	-0.925145	-1.339759	0.565447
C90	C	-1.032147	-1.229077	0.545611
C91	C	-1.002949	-1.339675	0.570697
H92	H	-1.095053	-1.228967	0.549868
H93	H	-1.013907	-1.205418	0.463439
H94	H	-1.009084	-1.170944	0.605033
H95	H	-1.025998	-1.397884	0.511342
H96	H	-1.021181	-1.363246	0.652896
H97	H	-0.442573	-1.396333	0.907118
O98	O	-0.789408	-1.338665	0.564861
C99	C	-0.822927	-1.160389	0.524390
C100	C	-0.850489	-1.271700	0.549825
H101	H	-0.872297	-1.106212	0.512248
H102	H	-0.788158	-1.162385	0.449947
H103	H	-0.787913	-1.130148	0.592229
H104	H	-0.885533	-1.302008	0.482052
H105	H	-0.885219	-1.269639	0.624303
H106	H	-0.262145	-1.217929	0.640787
O107	O	-0.924517	-1.662168	0.629302
C108	C	-0.893549	-1.715673	0.805060
C109	C	-0.864490	-1.678723	0.697818
H110	H	-0.845033	-1.729047	0.860492
H111	H	-0.925486	-1.791990	0.794917
H112	H	-0.931653	-1.653257	0.839186
H113	H	-0.826358	-1.741066	0.663632
H114	H	-0.832596	-1.602380	0.708027
O115	O	-0.261965	-1.653054	1.223053
C116	C	-0.280927	-1.753816	1.380512
C117	C	-0.280919	-1.753734	1.259808
H118	H	-0.296234	-1.835212	1.410265
H119	H	-0.322924	-1.694283	1.410333
H120	H	-0.223569	-1.732020	1.410299
H121	H	-0.338245	-1.775556	1.229932
H122	H	-0.238882	-1.813245	1.230058
O123	O	-0.449913	-1.126874	0.373343
C124	C	-0.459742	-1.250739	0.231506
C125	C	-0.407745	-1.190433	0.305603
H126	H	-0.425670	-1.302157	0.176734
H127	H	-0.493547	-1.192694	0.183326
H128	H	-0.498512	-1.302066	0.279663
H129	H	-0.368929	-1.139104	0.257527
H130	H	-0.373991	-1.248534	0.353786
H131	H	-0.792589	-1.455746	0.669445
H132	H	-0.791891	-1.692377	0.482038
H133	H	-0.442536	-1.396402	1.106187
O134	O	-0.450022	-0.910356	0.373568
C135	C	-0.491946	-0.741278	0.313882
C136	C	-0.439896	-0.801737	0.387878
H137	H	-0.483766	-0.653450	0.325411
H138	H	-0.551690	-0.762757	0.332184
H139	H	-0.478878	-0.762880	0.229207
H140	H	-0.452898	-0.780168	0.472579
H141	H	-0.380168	-0.780253	0.369486
H142	H	-0.261995	-1.652803	0.807676
O143	O	-0.923628	-1.555051	0.321047
C144	C	-0.890749	-1.677497	0.185092
C145	C	-0.862787	-1.601295	0.269860
H146	H	-0.841575	-1.714923	0.143698
H147	H	-0.925673	-1.632822	0.125593
H148	H	-0.925711	-1.741219	0.223287
H149	H	-0.827796	-1.537556	0.231757
H150	H	-0.827904	-1.646043	0.329350
O151	O	-0.923687	-1.459401	0.685939
C152	C	-0.922451	-1.410495	0.868327
C153	C	-0.894733	-1.385442	0.757011
H154	H	-0.899066	-1.350701	0.925816
H155	H	-0.903490	-1.492432	0.891779
H156	H	-0.985371	-1.406860	0.869781
H157	H	-0.831815	-1.389019	0.755472
H158	H	-0.913751	-1.303519	0.733605
H159	H	-0.176350	-0.919429	0.762911
O160	O	-0.922811	-1.390748	0.367313
C161	C	-0.888454	-1.215968	0.314991
C162	C	-0.861418	-1.325761	0.347420
H163	H	-0.838832	-1.163401	0.298877
H164	H	-0.922964	-1.180790	0.380909
H165	H	-0.923592	-1.222457	0.241102
H166	H	-0.826250	-1.319363	0.421284
H167	H	-0.826948	-1.360899	0.281440
O168	O	-0.789082	-1.556272	0.321005
C169	C	-0.721080	-1.578310	0.160210
C170	C	-0.748544	-1.501166	0.244440
H171	H	-0.688286	-1.533790	0.098298
H172	H	-0.770424	-1.618347	0.121751
H173	H	-0.684152	-1.639926	0.198274
H174	H	-0.785458	-1.439489	0.206458
H175	H	-0.699165	-1.461208	0.282893
H176	H	-0.791990	-1.407879	0.370999
H177	H	-0.792928	-1.651455	0.618485
