data_functionalizedCrystal
_audit_creation_method	'MofGen! by Chris Wilmer'
_symmetry_space_group_name_H-M	'P1'
_symmetry_Int_Tables_number	1
_symmetry_cell_setting	triclinic
loop_
_symmetry_equiv_pos_as_xyz
  x,y,z
_cell_length_a	10.540539
_cell_length_b	12.837942
_cell_length_c	11.892095
_cell_angle_alpha	85.697431
_cell_angle_beta	86.065250
_cell_angle_gamma	90.322784
loop_
_atom_site_label
_atom_site_type_symbol
_atom_site_fract_x
_atom_site_fract_y
_atom_site_fract_z
O1	O	1.709265	-0.139651	-0.093908
O2	O	1.341368	-0.153426	-0.093931
O3	O	1.517158	0.004424	-0.093913
O4	O	1.533475	-0.297502	-0.093926
O5	O	1.502499	-0.008717	0.094093
O6	O	1.326708	-0.166567	0.094075
O7	O	1.694606	-0.152792	0.094098
Zn8	Zn	1.508329	-0.161766	0.123936
Zn9	Zn	1.527644	-0.144453	-0.123770
O10	O	1.518815	-0.310643	0.094080
C11	C	1.504317	0.036515	0.000089
C12	C	1.487879	0.151714	0.000086
C13	C	1.286622	-0.158964	0.000069
C14	C	1.145335	-0.155872	0.000061
C15	C	1.749352	-0.147255	0.000095
C16	C	1.890640	-0.150346	0.000096
C17	C	2.087049	-0.268816	0.000487
C18	C	1.940118	-0.265655	0.000082
C19	C	1.954546	-0.087349	-0.107269
C20	C	2.101532	-0.091277	-0.107377
C21	C	2.085173	-0.103876	0.106421
C22	C	1.937963	-0.102915	0.107858
C23	C	1.531657	-0.342733	0.000075
C24	C	1.548095	-0.457932	0.000071
N25	N	1.495157	-0.173582	0.292989
C26	C	1.685498	0.391210	0.000074
C27	C	1.670059	0.499450	0.000072
C28	C	1.441563	0.476437	0.000069
C29	C	1.457002	0.368197	0.000072
C30	C	1.578974	0.325587	0.000076
C31	C	1.594411	0.217344	0.000087
C32	C	1.365917	0.194334	0.000077
C33	C	1.350478	0.302575	0.000074
N34	N	1.540826	-0.132629	-0.292822
C35	C	1.632479	-0.050352	0.529651
C36	C	1.623281	-0.058618	0.647992
C37	C	1.467559	-0.198376	0.648014
C38	C	1.476756	-0.190109	0.529673
C39	C	1.559220	-0.116096	0.470496
C40	C	1.568424	-0.107835	0.352153
C41	C	1.412695	-0.247586	0.352177
C42	C	1.403498	-0.255853	0.470518
H43	H	1.896329	-0.314703	0.077042
H44	H	1.895308	-0.149017	0.187285
N45	N	1.218929	0.348535	0.000066
H46	H	1.225310	0.427063	0.000063
H47	H	1.166313	0.319725	0.069765
N48	N	1.333674	-0.318491	0.288361
H49	H	1.240455	-0.307274	0.308966
H50	H	1.355714	-0.393654	0.308976
H51	H	1.909185	-0.304233	-0.077006
N52	N	2.124000	-0.160874	0.214190
H53	H	2.045678	-0.188617	0.260817
H54	H	2.171368	-0.111186	0.258720
N55	N	1.310022	0.522411	0.000056
H56	H	1.257323	0.493684	0.069748
H57	H	1.268305	0.503398	-0.069686
N58	N	1.378640	-0.278209	0.711855
H59	H	1.333627	-0.318610	0.656425
H60	H	1.313847	-0.241482	0.760966
H61	H	1.693726	0.182654	0.000095
H62	H	1.784811	0.356516	0.000089
N63	N	1.251011	0.123556	0.000085
H64	H	1.279295	0.048519	0.000090
H65	H	1.203852	0.142315	-0.069612
N66	N	2.123642	-0.336295	0.102449
H67	H	2.178359	-0.294311	0.149357
H68	H	2.172714	-0.398571	0.076718
H69	H	1.336354	-0.316111	0.518714
H70	H	1.923199	-0.002391	-0.111252
N71	N	1.784952	0.570231	0.000067
H72	H	1.864558	0.526809	0.000070
H73	H	1.778093	0.610774	0.069763
N74	N	1.657367	-0.028015	0.288320
H75	H	1.702376	0.012380	0.343757
H76	H	1.606994	0.021664	0.239226
N77	N	1.702310	0.012282	0.711793
H78	H	1.683974	-0.004183	0.795742
H79	H	1.680339	0.087448	0.691112
N80	N	1.721430	0.029460	0.465814
H81	H	1.766450	0.069852	0.521247
H82	H	1.671063	0.079143	0.416720
H83	H	2.128191	-0.308828	-0.076079
H84	H	1.904004	-0.019298	0.114348
N85	N	2.135526	0.006379	0.107397
H86	H	2.112734	0.048527	0.036606
H87	H	2.231035	0.004998	0.110361
H88	H	2.140769	-0.008007	-0.112266
N89	N	2.153131	-0.138167	-0.213688
H90	H	2.080369	-0.156097	-0.260038
H91	H	2.201625	-0.203621	-0.192804
H92	H	1.922354	-0.120287	-0.187160
