data_functionalizedCrystal
_audit_creation_method	'MofGen! by Chris Wilmer'
_symmetry_space_group_name_H-M	'P1'
_symmetry_Int_Tables_number	1
_symmetry_cell_setting	triclinic
loop_
_symmetry_equiv_pos_as_xyz
  x,y,z
_cell_length_a	13.032721
_cell_length_b	14.908618
_cell_length_c	13.033109
_cell_angle_alpha	100.039404
_cell_angle_beta	105.143326
_cell_angle_gamma	85.674301
loop_
_atom_site_label
_atom_site_type_symbol
_atom_site_fract_x
_atom_site_fract_y
_atom_site_fract_z
Zn1	Zn	-0.606174	-1.396192	-0.761030
Zn2	Zn	-0.758639	-1.362087	-0.603364
Zn3	Zn	-0.570791	-1.228329	-0.570603
Zn4	Zn	-0.770857	-1.228298	-0.770676
O5	O	-0.676615	-1.303726	-0.676418
O6	O	-0.636094	-1.517911	-0.749789
O7	O	-0.713800	-1.330083	-0.449303
O8	O	-0.427949	-1.264882	-0.578116
O9	O	-0.748109	-1.492854	-0.633953
O10	O	-0.453945	-1.388211	-0.718021
O11	O	-0.575789	-1.231812	-0.425234
O12	O	-0.587635	-1.102082	-0.587469
O13	O	-0.768932	-1.264829	-0.919111
O14	O	-0.734622	-1.102059	-0.734462
O15	O	-0.647941	-1.388181	-0.912024
O16	O	-0.907795	-1.330053	-0.643306
O17	O	-0.916771	-1.231759	-0.766230
C18	C	-0.658616	-1.069337	-0.658458
C19	C	-0.650944	-0.969064	-0.650803
C20	C	-0.789771	-0.780628	-0.789324
C21	C	-0.782567	-0.686413	-0.782135
C22	C	-0.629328	-0.686418	-0.629244
C23	C	-0.636532	-0.780633	-0.636432
C24	C	-0.716758	-0.827734	-0.716474
C25	C	-0.723966	-0.921950	-0.723657
C26	C	-0.570723	-0.921955	-0.570770
C27	C	-0.563518	-0.827740	-0.563582
C28	C	-0.950542	-1.277229	-0.709395
C29	C	-1.067741	-1.265979	-0.723545
C30	C	-1.115526	-1.309650	-0.669085
C31	C	-1.236656	-1.298024	-0.683708
C32	C	-0.401623	-1.330354	-0.643338
C33	C	-0.284438	-1.341702	-0.629241
C34	C	-0.713746	-1.330306	-0.955473
C35	C	-0.729569	-1.341633	-1.074389
C36	C	-0.694676	-0.539031	-0.694440
C37	C	-0.702349	-0.639304	-0.702097
C38	C	-0.668338	-1.298060	-1.115497
C39	C	-0.684690	-1.309765	-1.238403
C40	C	-0.639557	-1.277309	-0.398444
C41	C	-0.623451	-1.266186	-0.279506
H42	H	-0.564007	-0.648053	-0.564084
C43	C	-0.490401	-0.973774	-0.490635
H44	H	-0.506176	-1.036633	-0.506381
H45	H	-0.494972	-0.949987	-0.419392
H46	H	-0.420500	-0.966684	-0.496711
H47	H	-1.235678	-1.387705	-0.571791
C48	C	-0.878015	-0.832445	-0.877356
H49	H	-0.871853	-0.895302	-0.871198
H50	H	-0.871090	-0.825350	-0.946246
H51	H	-0.945553	-0.808657	-0.868918
C52	C	-0.771866	-1.371874	-1.313767
H53	H	-0.771415	-1.371600	-1.386486
H54	H	-0.839279	-1.350090	-1.303021
H55	H	-0.758669	-1.432259	-1.298298
H56	H	-0.558920	-1.220210	-1.223713
H57	H	-0.794098	-1.387602	-1.130186
H58	H	-0.789291	-0.960299	-0.788829
C59	C	-0.475283	-0.775922	-0.475539
H60	H	-0.481453	-0.713063	-0.481685
H61	H	-0.407743	-0.799708	-0.483951
H62	H	-0.482235	-0.783017	-0.406652
H63	H	-1.285419	-1.252029	-0.741167
H64	H	-0.603814	-1.252085	-1.059700
H65	H	-1.066763	-1.355651	-0.611638
C66	C	-0.862864	-0.634602	-0.862289
H67	H	-0.911669	-0.676151	-0.910988
H68	H	-0.825981	-0.606205	-0.901308
H69	H	-0.900490	-0.589494	-0.824026
C70	C	-1.133609	-1.203841	-0.801157
H71	H	-1.206381	-1.204174	-0.800799
H72	H	-1.126148	-1.225559	-0.871899
H73	H	-1.108941	-1.143444	-0.778640
