data_functionalizedCrystal
_audit_creation_method	'MofGen! by Chris Wilmer'
_symmetry_space_group_name_H-M	'P1'
_symmetry_Int_Tables_number	1
_symmetry_cell_setting	triclinic
loop_
_symmetry_equiv_pos_as_xyz
  x,y,z
_cell_length_a	19.805407
_cell_length_b	19.805405
_cell_length_c	19.805399
_cell_angle_alpha	89.973385
_cell_angle_beta	89.980427
_cell_angle_gamma	90.026726
loop_
_atom_site_label
_atom_site_type_symbol
_atom_site_fract_x
_atom_site_fract_y
_atom_site_fract_z
Zn1	Zn	1.034734	-0.269479	-0.382724
Zn2	Zn	1.284734	-0.019479	-0.132724
Zn3	Zn	1.534734	0.230521	0.117276
Zn4	Zn	1.784734	0.480521	0.367276
Zn5	Zn	1.034648	-0.382667	-0.269538
Zn6	Zn	1.284648	-0.132667	-0.019538
Zn7	Zn	1.534648	0.117333	0.230462
Zn8	Zn	1.784648	0.367333	0.480462
Zn9	Zn	0.921549	-0.269498	-0.269549
Zn10	Zn	1.171549	-0.019498	-0.019549
Zn11	Zn	1.421549	0.230502	0.230451
Zn12	Zn	1.671549	0.480502	0.480451
Zn13	Zn	0.921512	-0.382631	-0.382685
Zn14	Zn	1.171512	-0.132631	-0.132685
Zn15	Zn	1.421512	0.117369	0.117315
Zn16	Zn	1.671512	0.367369	0.367315
O17	O	0.978111	-0.326069	-0.326124
O18	O	1.228111	-0.076069	-0.076124
O19	O	1.478111	0.173931	0.173876
O20	O	1.728111	0.423931	0.423876
O21	O	1.129439	-0.284501	-0.367722
O22	O	1.379439	-0.034501	-0.117722
O23	O	1.629439	0.215499	0.132278
O24	O	1.879439	0.465499	0.382278
O25	O	1.019625	-0.367678	-0.174823
O26	O	1.269625	-0.117678	0.075177
O27	O	1.519625	0.132322	0.325177
O28	O	1.769625	0.382322	0.575177
O29	O	0.936615	-0.174778	-0.284583
O30	O	1.186615	0.075222	-0.034583
O31	O	1.436615	0.325222	0.215417
O32	O	1.686615	0.575222	0.465417
O33	O	1.129376	-0.367660	-0.284564
O34	O	1.379376	-0.117660	-0.034564
O35	O	1.629376	0.132340	0.215436
O36	O	1.879376	0.382340	0.465436
O37	O	1.019771	-0.174765	-0.367732
O38	O	1.269771	0.075235	-0.117732
O39	O	1.519771	0.325235	0.132268
O40	O	1.769771	0.575235	0.382268
O41	O	0.936531	-0.284533	-0.174831
O42	O	1.186531	-0.034533	0.075169
O43	O	1.436531	0.215467	0.325169
O44	O	1.686531	0.465467	0.575169
O45	O	0.826827	-0.284498	-0.284544
O46	O	1.076827	-0.034498	-0.034544
O47	O	1.326827	0.215502	0.215456
O48	O	1.576827	0.465502	0.465456
O49	O	0.936551	-0.367598	-0.477406
O50	O	1.186551	-0.117598	-0.227406
O51	O	1.436551	0.132402	0.022594
O52	O	1.686551	0.382402	0.272594
O53	O	0.826800	-0.367617	-0.367665
O54	O	1.076800	-0.117617	-0.117665
O55	O	1.326800	0.132383	0.132335
O56	O	1.576800	0.382383	0.382335
O57	O	1.019735	-0.284466	-0.477436
O58	O	1.269735	-0.034466	-0.227436
O59	O	1.519735	0.215534	0.022564
O60	O	1.769735	0.465534	0.272564
O61	O	1.019589	-0.477379	-0.284526
O62	O	1.269589	-0.227379	-0.034526
O63	O	1.519589	0.022621	0.215474
O64	O	1.769589	0.272621	0.465474
O65	O	0.936468	-0.477353	-0.367654
O66	O	1.186468	-0.227353	-0.117654
O67	O	1.436468	0.022647	0.132346
O68	O	1.686468	0.272647	0.382346
C69	C	0.802255	-0.326056	-0.326102
C70	C	1.052255	-0.076056	-0.076102
C71	C	1.302255	0.173944	0.173898
C72	C	1.552255	0.423944	0.423898
C73	C	0.727023	-0.326067	-0.326109
C74	C	0.977023	-0.076067	-0.076109
C75	C	1.227023	0.173933	0.173891
C76	C	1.477023	0.423933	0.423891
C77	C	0.691682	-0.369412	-0.369319
C78	C	0.941682	-0.119412	-0.119319
C79	C	1.191682	0.130588	0.130681
C80	C	1.441682	0.380588	0.380681
C81	C	0.620994	-0.369413	-0.369329
C82	C	0.870994	-0.119413	-0.119329
C83	C	1.120994	0.130587	0.130671
C84	C	1.370994	0.380587	0.380671
C85	C	0.585647	-0.326072	-0.326124
C86	C	0.835647	-0.076072	-0.076124
C87	C	1.085647	0.173928	0.173876
C88	C	1.335647	0.423928	0.423876
C89	C	0.620993	-0.282722	-0.282911
C90	C	0.870993	-0.032722	-0.032911
C91	C	1.120993	0.217278	0.217089
C92	C	1.370993	0.467278	0.467089
C93	C	0.691680	-0.282718	-0.282906
C94	C	0.941680	-0.032718	-0.032906
C95	C	1.191680	0.217282	0.217094
C96	C	1.441680	0.467282	0.467094
C97	C	0.335920	-0.282737	-0.282934
C98	C	0.585920	-0.032737	-0.032934
C99	C	0.835920	0.217263	0.217066
C100	C	1.085920	0.467263	0.467066
C101	C	0.265227	-0.282746	-0.282941
C102	C	0.515227	-0.032746	-0.032941
C103	C	0.765227	0.217254	0.217059
C104	C	1.015227	0.467254	0.467059
C105	C	0.265233	-0.369432	-0.369357
C106	C	0.515233	-0.119432	-0.119357
C107	C	0.765233	0.130568	0.130643
C108	C	1.015233	0.380568	0.380643
C109	C	0.335920	-0.369428	-0.369351
C110	C	0.585920	-0.119428	-0.119351
C111	C	0.835920	0.130572	0.130649
C112	C	1.085920	0.380572	0.380649
C113	C	0.371260	-0.326076	-0.326142
C114	C	0.621260	-0.076076	-0.076142
C115	C	0.871260	0.173924	0.173858
C116	C	1.121260	0.423924	0.423858
C117	C	0.447908	-0.326074	-0.326133
C118	C	0.697908	-0.076074	-0.076133
C119	C	0.947908	0.173926	0.173867
C120	C	1.197908	0.423926	0.423867
C121	C	0.509000	-0.326076	-0.326129
C122	C	0.759000	-0.076076	-0.076129
C123	C	1.009000	0.173924	0.173871
C124	C	1.259000	0.423924	0.423871
C125	C	0.978034	-0.501925	-0.326099
C126	C	1.228034	-0.251925	-0.076099
C127	C	1.478034	-0.001925	0.173901
C128	C	1.728034	0.248075	0.423901
C129	C	0.978063	-0.577157	-0.326112
C130	C	1.228063	-0.327157	-0.076112
C131	C	1.478063	-0.077157	0.173888
C132	C	1.728063	0.172843	0.423888
C133	C	1.021337	-0.612436	-0.369441
C134	C	1.271337	-0.362436	-0.119441
C135	C	1.521337	-0.112436	0.130559
C136	C	1.771337	0.137564	0.380559
C137	C	1.021361	-0.683124	-0.369454
C138	C	1.271361	-0.433124	-0.119454
C139	C	1.521361	-0.183124	0.130546
C140	C	1.771361	0.066876	0.380546
C141	C	0.978114	-0.718532	-0.326133
C142	C	1.228114	-0.468532	-0.076133
C143	C	1.478114	-0.218532	0.173867
C144	C	1.728114	0.031468	0.423867
C145	C	0.934835	-0.683249	-0.282801
C146	C	1.184835	-0.433249	-0.032801
C147	C	1.434835	-0.183249	0.217199
C148	C	1.684835	0.066751	0.467199
C149	C	0.934808	-0.612561	-0.282792
C150	C	1.184808	-0.362561	-0.032792
C151	C	1.434808	-0.112561	0.217208
C152	C	1.684808	0.137439	0.467208
C153	C	0.934944	-0.968322	-0.282836
C154	C	1.184944	-0.718322	-0.032836
C155	C	1.434944	-0.468322	0.217164
C156	C	1.684944	-0.218322	0.467164
C157	C	0.934976	-1.039014	-0.282846
C158	C	1.184976	-0.789014	-0.032846
C159	C	1.434976	-0.539014	0.217154
C160	C	1.684976	-0.289014	0.467154
C161	C	1.021497	-1.038884	-0.369497
C162	C	1.271497	-0.788884	-0.119497
C163	C	1.521497	-0.538884	0.130503
C164	C	1.771497	-0.288884	0.380503
C165	C	1.021470	-0.968197	-0.369489
C166	C	1.271470	-0.718197	-0.119489
C167	C	1.521470	-0.468197	0.130511
C168	C	1.771470	-0.218197	0.380511
C169	C	0.978189	-0.932920	-0.326160
C170	C	1.228189	-0.682920	-0.076160
C171	C	1.478189	-0.432920	0.173840
C172	C	1.728189	-0.182920	0.423840
C173	C	0.978162	-0.856271	-0.326147
C174	C	1.228162	-0.606271	-0.076147
C175	C	1.478162	-0.356271	0.173853
C176	C	1.728162	-0.106271	0.423853
C177	C	0.978144	-0.795179	-0.326141
C178	C	1.228144	-0.545179	-0.076141
C179	C	1.478144	-0.295179	0.173859
C180	C	1.728144	-0.045179	0.423859
C181	C	1.154653	-0.326082	-0.326146
C182	C	1.404653	-0.076082	-0.076146
C183	C	1.654653	0.173918	0.173854
C184	C	1.904653	0.423918	0.423854
C185	C	1.229885	-0.326088	-0.326156
C186	C	1.479885	-0.076088	-0.076156
C187	C	1.729885	0.173912	0.173844
C188	C	1.979885	0.423912	0.423844
C189	C	0.978149	-0.326026	-0.502667
C190	C	1.228149	-0.076026	-0.252667
C191	C	1.478149	0.173974	-0.002667
C192	C	1.728149	0.423974	0.247333
C193	C	0.978165	-0.326008	-0.577899
C194	C	1.228165	-0.076008	-0.327899
C195	C	1.478165	0.173992	-0.077899
C196	C	1.728165	0.423992	0.172101
C197	C	0.978207	-0.149526	-0.326163
C198	C	1.228207	0.100474	-0.076163
C199	C	1.478207	0.350474	0.173837
C200	C	1.728207	0.600474	0.423837
C201	C	0.978248	-0.074294	-0.326180
C202	C	1.228248	0.175706	-0.076180
C203	C	1.478248	0.425706	0.173820
C204	C	1.728248	0.675706	0.423820
C205	C	1.021480	-0.282719	-0.613259
C206	C	1.271480	-0.032719	-0.363259
C207	C	1.521480	0.217281	-0.113259
C208	C	1.771480	0.467281	0.136741
C209	C	1.021487	-0.282699	-0.683948
C210	C	1.271487	-0.032699	-0.433948
C211	C	1.521487	0.217301	-0.183948
C212	C	1.771487	0.467301	0.066052
C213	C	0.978182	-0.325973	-0.719274
C214	C	1.228182	-0.075973	-0.469274
C215	C	1.478182	0.174027	-0.219274
C216	C	1.728182	0.424027	0.030726
C217	C	0.934862	-0.369264	-0.683909
C218	C	1.184862	-0.119264	-0.433909
C219	C	1.434862	0.130736	-0.183909
C220	C	1.684862	0.380736	0.066091
C221	C	0.934852	-0.369279	-0.613222
C222	C	1.184852	-0.119279	-0.363222
C223	C	1.434852	0.130721	-0.113222
C224	C	1.684852	0.380721	0.136778
C225	C	0.934900	-0.369201	-0.968982
C226	C	1.184900	-0.119201	-0.718982
C227	C	1.434900	0.130799	-0.468982
C228	C	1.684900	0.380799	-0.218982
C229	C	0.934915	-0.369183	-1.039675
C230	C	1.184915	-0.119183	-0.789675
C231	C	1.434915	0.130817	-0.539675
C232	C	1.684915	0.380817	-0.289675
C233	C	1.021535	-0.282620	-1.039708
C234	C	1.271535	-0.032620	-0.789708
C235	C	1.521535	0.217380	-0.539708
C236	C	1.771535	0.467380	-0.289708
C237	C	1.021525	-0.282636	-0.969021
C238	C	1.271525	-0.032636	-0.719021
C239	C	1.521525	0.217364	-0.469021
C240	C	1.771525	0.467364	-0.219021
C241	C	0.978203	-0.325924	-0.933662
C242	C	1.228203	-0.075924	-0.683662
C243	C	1.478203	0.174076	-0.433662
C244	C	1.728203	0.424076	-0.183662
C245	C	0.978195	-0.325944	-0.857013
C246	C	1.228195	-0.075944	-0.607013
C247	C	1.478195	0.174056	-0.357013
C248	C	1.728195	0.424056	-0.107013
C249	C	0.978193	-0.325957	-0.795922
C250	C	1.228193	-0.075957	-0.545922
C251	C	1.478193	0.174043	-0.295922
C252	C	1.728193	0.424043	-0.045922
C253	C	0.978112	-0.326062	-0.150268
C254	C	1.228112	-0.076062	0.099732
C255	C	1.478112	0.173938	0.349732
C256	C	1.728112	0.423938	0.599732
C257	C	0.978227	-0.325890	-0.075036
C258	C	1.228227	-0.075890	0.174964
C259	C	1.478227	0.174110	0.424964
C260	C	1.728227	0.424110	0.674964
H261	H	0.236450	-0.247448	-0.247758
H262	H	0.486450	0.002552	0.002242
H263	H	0.736450	0.252552	0.252242
H264	H	0.986450	0.502552	0.502242
F265	F	1.067612	-0.236648	-0.721578
F266	F	1.317612	0.013352	-0.471578
F267	F	1.567612	0.263352	-0.221578
F268	F	1.817612	0.513352	0.028422
H269	H	0.899574	-0.404523	-0.584432
H270	H	1.149574	-0.154523	-0.334432
H271	H	1.399574	0.095477	-0.084432
H272	H	1.649574	0.345477	0.165568
F273	F	0.888793	-0.415272	-0.931360
F274	F	1.138793	-0.165272	-0.681360
F275	F	1.388793	0.084728	-0.431360
F276	F	1.638793	0.334728	-0.181360
H277	H	1.056746	-0.247482	-0.584501
H278	H	1.306746	0.002518	-0.334501
H279	H	1.556746	0.252518	-0.084501
H280	H	1.806746	0.502518	0.165499
F281	F	0.729294	-0.415545	-0.415302
F282	F	0.979294	-0.165545	-0.165302
F283	F	1.229294	0.084455	0.084698
F284	F	1.479294	0.334455	0.334698
F285	F	0.888749	-0.575015	-0.236675
F286	F	1.138749	-0.325015	0.013325
F287	F	1.388749	-0.075015	0.263325
F288	F	1.638749	0.174985	0.513325
F289	F	1.067618	-0.236581	-0.931427
F290	F	1.317618	0.013419	-0.681427
F291	F	1.567618	0.263419	-0.431427
F292	F	1.817618	0.513419	-0.181427
F293	F	0.583373	-0.236591	-0.236933
F294	F	0.833373	0.013409	0.013067
F295	F	1.083373	0.263409	0.263067
F296	F	1.333373	0.513409	0.513067
H297	H	0.720453	-0.247418	-0.247723
H298	H	0.970453	0.002582	0.002277
H299	H	1.220453	0.252582	0.252277
H300	H	1.470453	0.502582	0.502277
H301	H	1.056737	-1.067616	-0.404780
H302	H	1.306737	-0.817616	-0.154780
H303	H	1.556737	-0.567616	0.095220
H304	H	1.806737	-0.317616	0.345220
H305	H	0.364696	-0.404723	-0.404531
H306	H	0.614696	-0.154723	-0.154531
H307	H	0.864696	0.095277	0.095469
H308	H	1.114696	0.345277	0.345469
F309	F	1.067640	-0.236546	-1.077346
F310	F	1.317640	0.013454	-0.827346
F311	F	1.567640	0.263454	-0.577346
F312	F	1.817640	0.513454	-0.327346
H313	H	0.899648	-0.404423	-1.068436
H314	H	1.149648	-0.154423	-0.818436
H315	H	1.399648	0.095577	-0.568436
H316	H	1.649648	0.345577	-0.318436
F317	F	0.583385	-0.415547	-0.415320
F318	F	0.833385	-0.165547	-0.165320
F319	F	1.083385	0.084453	0.084680
F320	F	1.333385	0.334453	0.334680
H321	H	0.236451	-0.404729	-0.404543
H322	H	0.486451	-0.154729	-0.154543
H323	H	0.736451	0.095271	0.095457
H324	H	0.986451	0.345271	0.345457
F325	F	0.373521	-0.236596	-0.236948
F326	F	0.623521	0.013404	0.013052
F327	F	0.873521	0.263404	0.263052
F328	F	1.123521	0.513404	0.513052
H329	H	1.056556	-0.583611	-0.404715
H330	H	1.306556	-0.333611	-0.154715
H331	H	1.556556	-0.083611	0.095285
H332	H	1.806556	0.166389	0.345285
H333	H	0.899600	-0.404495	-0.712678
H334	H	1.149600	-0.154495	-0.462678
H335	H	1.399600	0.095505	-0.212678
H336	H	1.649600	0.345505	0.037322
H337	H	1.056605	-0.711845	-0.404732
H338	H	1.306605	-0.461845	-0.154732
H339	H	1.556605	-0.211845	0.095268
H340	H	1.806605	0.038155	0.345268
F341	F	0.888944	-1.076697	-0.236736
F342	F	1.138944	-0.826697	0.013264
F343	F	1.388944	-0.576697	0.263264
F344	F	1.638944	-0.326697	0.513264
F345	F	0.888875	-0.930786	-0.236726
F346	F	1.138875	-0.680786	0.013274
F347	F	1.388875	-0.430786	0.263274
F348	F	1.638875	-0.180786	0.513274
F349	F	1.067501	-0.930517	-0.415595
F350	F	1.317501	-0.680517	-0.165595
F351	F	1.567501	-0.430517	0.084405
F352	F	1.817501	-0.180517	0.334405
H353	H	0.899620	-0.712084	-0.247531
H354	H	1.149620	-0.462084	0.002469
H355	H	1.399620	-0.212084	0.252469
H356	H	1.649620	0.037916	0.502469
