data_functionalizedCrystal
_audit_creation_method	'MofGen! by Chris Wilmer'
_symmetry_space_group_name_H-M	'P1'
_symmetry_Int_Tables_number	1
_symmetry_cell_setting	triclinic
loop_
_symmetry_equiv_pos_as_xyz
  x,y,z
_cell_length_a	18.101398
_cell_length_b	18.101395
_cell_length_c	17.077396
_cell_angle_alpha	90.029227
_cell_angle_beta	89.974604
_cell_angle_gamma	89.964856
loop_
_atom_site_label
_atom_site_type_symbol
_atom_site_fract_x
_atom_site_fract_y
_atom_site_fract_z
Zn1	Zn	1.132093	0.294874	-0.443962
Zn2	Zn	1.131974	0.418723	-0.312694
Zn3	Zn	1.008251	0.294895	-0.312697
Zn4	Zn	1.008189	0.418674	-0.443904
O5	O	1.070127	0.356792	-0.378314
O6	O	1.235710	0.311315	-0.426572
O7	O	1.115538	0.402326	-0.202848
O8	O	1.024754	0.191259	-0.330134
O9	O	1.235623	0.402306	-0.330130
O10	O	1.115741	0.191244	-0.426574
O11	O	1.024639	0.311350	-0.202849
O12	O	0.904610	0.311303	-0.330078
O13	O	1.024649	0.402222	-0.553759
O14	O	0.904564	0.402242	-0.426476
O15	O	1.115681	0.311267	-0.553801
O16	O	1.115478	0.522349	-0.330075
O17	O	1.024534	0.522313	-0.426474
C18	C	0.877716	0.356770	-0.378272
C19	C	0.795402	0.356778	-0.378272
C20	C	0.644694	0.356793	-0.378307
C21	C	0.613343	0.299495	-0.317757
C22	C	0.527725	0.299279	-0.317956
C23	C	0.496311	0.356808	-0.378341
C24	C	0.527454	0.335975	-0.461161
C25	C	0.613099	0.335550	-0.460792
C26	C	0.613081	0.435074	-0.356767
C27	C	0.527430	0.434662	-0.354962
C28	C	0.412451	0.356818	-0.378365
C29	C	0.728553	0.356782	-0.378289
C30	C	1.070006	0.549202	-0.378285
C31	C	1.070023	0.631516	-0.378299
C32	C	1.070093	0.782225	-0.378333
C33	C	1.012841	0.813587	-0.438939
C34	C	1.013049	0.899205	-0.439196
C35	C	1.070162	0.930607	-0.378367
C36	C	1.148240	0.899427	-0.400629
C37	C	1.147869	0.813782	-0.401050
C38	C	1.049964	0.813862	-0.295320
C39	C	1.048282	0.899514	-0.295781
C40	C	1.070205	1.014467	-0.378384
C41	C	1.070055	0.698365	-0.378317
C42	C	1.263288	0.356814	-0.378358
C43	C	1.345603	0.356824	-0.378376
C44	C	1.070171	0.356737	-0.583059
C45	C	1.070191	0.356714	-0.670309
C46	C	1.070244	1.163630	-0.378366
C47	C	1.070232	1.081316	-0.378401
C48	C	1.117592	0.309350	-0.711322
C49	C	1.117601	0.309325	-0.793303
C50	C	1.070212	0.356669	-0.834268
C51	C	1.022804	0.404035	-0.793249
C52	C	1.022792	0.404055	-0.711270
C53	C	1.022834	0.403990	-0.964119
C54	C	1.022847	0.403971	-1.046104
C55	C	1.117643	0.309260	-1.046152
C56	C	1.117631	0.309280	-0.964173
C57	C	1.070225	0.356648	-0.923159
C58	C	1.070125	0.356792	-0.174366
C59	C	1.070249	0.356607	-0.087117
H60	H	0.955160	0.920291	-0.425280
H61	H	1.091658	0.793572	-0.250166
H62	H	1.156203	0.270758	-0.826692
N63	N	1.166027	0.260909	-0.922328
N64	N	1.139994	0.213726	-0.876590
H65	H	1.174172	0.179560	-0.847037
H66	H	0.506037	0.479616	-0.395819
N67	N	1.166065	0.260881	-1.088054
N68	N	1.166070	0.260865	-1.161248
H69	H	1.200269	0.226701	-1.190846
H70	H	0.984219	0.442550	-0.930728
H71	H	0.984256	0.442521	-1.079456
N72	N	0.974384	0.452378	-0.835099
N73	N	0.927225	0.426293	-0.880836
H74	H	0.893027	0.460434	-0.910395
H75	H	0.506040	0.279396	-0.479689
H76	H	1.156185	0.270799	-0.677974
H77	H	0.634639	0.454099	-0.297383
N78	N	0.502041	0.226524	-0.335894
N79	N	0.462445	0.192539	-0.287972
H80	H	0.444303	0.141154	-0.300643
H81	H	0.507071	0.450377	-0.294010
H82	H	0.633883	0.312345	-0.256153
N83	N	0.638519	0.488619	-0.412091
N84	N	0.679749	0.469313	-0.467165
H85	H	0.697719	0.507124	-0.506240
N86	N	0.639122	0.385633	-0.519361
N87	N	0.678711	0.362510	-0.574138
H88	H	0.697086	0.397874	-0.615508
H89	H	0.633110	0.278339	-0.478998
H90	H	0.984185	0.442617	-0.677878
H91	H	0.954749	0.793064	-0.425178
H92	H	1.026020	0.792017	-0.500099
H93	H	0.507109	0.376437	-0.507525
N94	N	1.029804	0.924839	-0.516374
N95	N	1.041386	0.879476	-0.570215
H96	H	1.053220	0.897578	-0.624726
H97	H	0.506666	0.312277	-0.256556
H98	H	0.634898	0.241818	-0.331875
N99	N	1.169245	0.788660	-0.477169
N100	N	1.184332	0.834380	-0.529613
H101	H	1.199429	0.816643	-0.583375
H102	H	1.191992	0.793030	-0.358817
H103	H	1.192081	0.919762	-0.357854
H104	H	1.165591	0.920822	-0.460649
N105	N	0.979734	0.786844	-0.269847
N106	N	0.943661	0.743936	-0.312572
H107	H	0.894059	0.724851	-0.294588
N108	N	0.976196	0.925091	-0.274723
N109	N	0.941025	0.966069	-0.320326
H110	H	0.890114	0.984137	-0.305456
N111	N	1.096784	0.926341	-0.236137
N112	N	1.148499	0.968999	-0.253604
H113	H	1.182760	0.987946	-0.211482
