data_functionalizedCrystal
_audit_creation_method	'MofGen! by Chris Wilmer'
_symmetry_space_group_name_H-M	'P1'
_symmetry_Int_Tables_number	1
_symmetry_cell_setting	triclinic
loop_
_symmetry_equiv_pos_as_xyz
  x,y,z
_cell_length_a	25.639239
_cell_length_b	25.639242
_cell_length_c	25.639234
_cell_angle_alpha	90.030783
_cell_angle_beta	89.975095
_cell_angle_gamma	89.966288
loop_
_atom_site_label
_atom_site_type_symbol
_atom_site_fract_x
_atom_site_fract_y
_atom_site_fract_z
Zn1	Zn	-0.208252	-0.799262	-0.295762
Zn2	Zn	0.125081	-0.465929	0.037571
Zn3	Zn	0.458415	-0.132596	0.370904
Zn4	Zn	-0.295680	-0.799175	-0.208327
Zn5	Zn	0.037653	-0.465841	0.125007
Zn6	Zn	0.370987	-0.132508	0.458340
Zn7	Zn	-0.208253	-0.711828	-0.208324
Zn8	Zn	0.125080	-0.378494	0.125009
Zn9	Zn	0.458414	-0.045161	0.458343
Zn10	Zn	-0.295651	-0.711784	-0.295714
Zn11	Zn	0.037683	-0.378450	0.037619
Zn12	Zn	0.371016	-0.045117	0.370952
O13	O	-0.251959	-0.755512	-0.252032
O14	O	0.081374	-0.422179	0.081302
O15	O	0.414708	-0.088845	0.414635
O16	O	-0.219861	-0.872416	-0.284185
O17	O	0.113472	-0.539082	0.049149
O18	O	0.446805	-0.205749	0.382482
O19	O	-0.284096	-0.787570	-0.135161
O20	O	0.049238	-0.454236	0.198172
O21	O	0.382571	-0.120903	0.531506
O22	O	-0.135088	-0.723481	-0.219942
O23	O	0.198246	-0.390148	0.113391
O24	O	0.531579	-0.056814	0.446725
O25	O	-0.284095	-0.872351	-0.219946
O26	O	0.049239	-0.539018	0.113387
O27	O	0.382572	-0.205685	0.446721
O28	O	-0.135087	-0.787719	-0.284182
O29	O	0.198246	-0.454385	0.049151
O30	O	0.531580	-0.121052	0.382484
O31	O	-0.219863	-0.723396	-0.135159
O32	O	0.113470	-0.390063	0.198174
O33	O	0.446804	-0.056729	0.531507
O34	O	-0.219835	-0.638656	-0.219896
O35	O	0.113499	-0.305323	0.113438
O36	O	0.446832	0.028010	0.446771
O37	O	-0.284044	-0.723406	-0.368886
O38	O	0.049289	-0.390073	-0.035553
O39	O	0.382622	-0.056739	0.297781
O40	O	-0.284045	-0.638624	-0.284101
O41	O	0.049288	-0.305291	0.049233
O42	O	0.382621	0.028042	0.382566
O43	O	-0.219833	-0.787676	-0.368921
O44	O	0.113501	-0.454343	-0.035588
O45	O	0.446834	-0.121010	0.297746
O46	O	-0.368841	-0.787527	-0.219900
O47	O	-0.035508	-0.454194	0.113434
O48	O	0.297825	-0.120860	0.446767
O49	O	-0.368820	-0.723321	-0.284103
O50	O	-0.035486	-0.389988	0.049230
O51	O	0.297847	-0.056655	0.382564
C52	C	-0.251937	-0.619669	-0.251993
C53	C	0.081396	-0.286336	0.081340
C54	C	0.414730	0.046997	0.414674
C55	C	-0.251940	-0.561555	-0.251989
C56	C	0.081393	-0.228222	0.081345
C57	C	0.414726	0.105111	0.414678
C58	C	-0.285444	-0.201184	-0.285418
C59	C	0.047889	0.132149	0.047915
C60	C	0.381222	0.465482	0.381249
C61	C	-0.285447	-0.146580	-0.285425
C62	C	0.047886	0.186753	0.047909
C63	C	0.381219	0.520087	0.381242
O64	O	-0.313910	-0.118337	-0.313824
O65	O	0.019423	0.214997	0.019509
O66	O	0.352756	0.548330	0.352842
N67	N	-0.251968	-0.119273	-0.252050
N68	N	0.081366	0.214060	0.081283
N69	N	0.414699	0.547394	0.414617
C70	C	-0.218480	-0.146573	-0.218670
C71	C	0.114854	0.186760	0.114663
C72	C	0.448187	0.520094	0.447997
O73	O	-0.190003	-0.118332	-0.190283
O74	O	0.143331	0.215001	0.143050
O75	O	0.476664	0.548335	0.476384
C76	C	-0.218475	-0.201176	-0.218666
C77	C	0.114859	0.132157	0.114667
C78	C	0.448192	0.465490	0.448001
C79	C	-0.251960	-0.228481	-0.252039
C80	C	0.081373	0.104853	0.081294
C81	C	0.414707	0.438186	0.414627
C82	C	-0.318927	-0.228489	-0.318789
C83	C	0.014407	0.104845	0.014545
C84	C	0.347740	0.438178	0.347878
C85	C	-0.318924	-0.283089	-0.318781
C86	C	0.014409	0.050244	0.014552
C87	C	0.347742	0.383577	0.347886
C88	C	-0.285440	-0.310385	-0.285402
C89	C	0.047893	0.022948	0.047931
C90	C	0.381227	0.356281	0.381264
C91	C	-0.251958	-0.283081	-0.252032
C92	C	0.081375	0.050252	0.081302
C93	C	0.414709	0.383586	0.414635
C94	C	-0.184984	-0.228475	-0.185289
C95	C	0.148349	0.104858	0.148044
C96	C	0.481682	0.438191	0.481378
C97	C	-0.184982	-0.283082	-0.185288
C98	C	0.148351	0.050251	0.148045
C99	C	0.481685	0.383584	0.481378
C100	C	-0.218467	-0.310387	-0.218662
C101	C	0.114866	0.022947	0.114672
C102	C	0.448199	0.356280	0.448005
C103	C	-0.218471	-0.364978	-0.218645
C104	C	0.114862	-0.031644	0.114688
C105	C	0.448195	0.301689	0.448021
N106	N	-0.251951	-0.392285	-0.252020
N107	N	0.081383	-0.058952	0.081313
N108	N	0.414716	0.274382	0.414647
C109	C	-0.285435	-0.364989	-0.285399
C110	C	0.047898	-0.031655	0.047935
C111	C	0.381232	0.301678	0.381268
C112	C	-0.218492	-0.031902	-0.218681
C113	C	0.114841	0.301431	0.114652
C114	C	0.448175	0.634764	0.447985
C115	C	-0.218499	0.022700	-0.218682
C116	C	0.114834	0.356033	0.114651
C117	C	0.448167	0.689367	0.447985
C118	C	-0.285466	0.022689	-0.285438
C119	C	0.047867	0.356022	0.047896
C120	C	0.381201	0.689356	0.381229
C121	C	-0.285461	-0.031914	-0.285434
C122	C	0.047872	0.301419	0.047899
C123	C	0.381205	0.634752	0.381233
C124	C	-0.251971	-0.059209	-0.252056
C125	C	0.081362	0.274124	0.081277
C126	C	0.414695	0.607457	0.414611
C127	C	-0.285428	-0.479654	-0.285380
C128	C	0.047905	-0.146321	0.047954
C129	C	0.381238	0.187013	0.381287
C130	C	-0.285425	-0.534259	-0.285367
C131	C	0.047909	-0.200926	0.047966
C132	C	0.381242	0.132407	0.381299
C133	C	-0.218456	-0.534244	-0.218614
C134	C	0.114877	-0.200910	0.114719
C135	C	0.448211	0.132423	0.448053
C136	C	-0.218461	-0.479643	-0.218624
C137	C	0.114872	-0.146310	0.114709
C138	C	0.448205	0.187024	0.448043
C139	C	-0.251949	-0.452349	-0.252011
C140	C	0.081384	-0.119016	0.081322
C141	C	0.414717	0.214317	0.414656
O142	O	-0.190021	-0.393256	-0.190262
O143	O	0.143312	-0.059923	0.143072
O144	O	0.476645	0.273411	0.476405
O145	O	-0.313902	-0.393236	-0.313786
O146	O	0.019431	-0.059903	0.019548
O147	O	0.352764	0.273430	0.352881
C148	C	-0.387801	-0.755424	-0.252008
C149	C	-0.054468	-0.422091	0.081326
C150	C	0.278865	-0.088757	0.414659
C151	C	-0.445916	-0.755434	-0.252015
C152	C	-0.112582	-0.422101	0.081318
C153	C	0.220751	-0.088768	0.414652
C154	C	-0.806277	-0.789031	-0.218658
C155	C	-0.472944	-0.455698	0.114675
C156	C	-0.139611	-0.122365	0.448009
C157	C	-0.860882	-0.789051	-0.218665
C158	C	-0.527548	-0.455718	0.114668
C159	C	-0.194215	-0.122385	0.448002
O160	O	-0.889117	-0.817526	-0.190277
O161	O	-0.555784	-0.484192	0.143056
O162	O	-0.222451	-0.150859	0.476389
N163	N	-0.888198	-0.755604	-0.252066
N164	N	-0.554865	-0.422271	0.081267
N165	N	-0.221531	-0.088937	0.414600
C166	C	-0.860907	-0.722138	-0.285467
C167	C	-0.527574	-0.388804	0.047867
C168	C	-0.194240	-0.055471	0.381200
O169	O	-0.889156	-0.693690	-0.313878
O170	O	-0.555822	-0.360357	0.019455
O171	O	-0.222489	-0.027023	0.352788
C172	C	-0.806304	-0.722120	-0.285462
C173	C	-0.472971	-0.388787	0.047871
C174	C	-0.139637	-0.055454	0.381205
C175	C	-0.778990	-0.755566	-0.252055
C176	C	-0.445657	-0.422233	0.081279
C177	C	-0.112324	-0.088900	0.414612
C178	C	-0.778964	-0.822475	-0.185254
C179	C	-0.445630	-0.489142	0.148079
C180	C	-0.112297	-0.155808	0.481413
C181	C	-0.724363	-0.822454	-0.185246
C182	C	-0.391030	-0.489121	0.148087
C183	C	-0.057696	-0.155787	0.481420
C184	C	-0.697076	-0.788989	-0.218643
C185	C	-0.363743	-0.455656	0.114690
C186	C	-0.030410	-0.122322	0.448024
C187	C	-0.724390	-0.755545	-0.252047
C188	C	-0.391056	-0.422212	0.081286
C189	C	-0.057723	-0.088879	0.414620
C190	C	-0.779014	-0.688657	-0.318865
C191	C	-0.445681	-0.355324	0.014469
C192	C	-0.112347	-0.021990	0.347802
C193	C	-0.724407	-0.688643	-0.318857
C194	C	-0.391074	-0.355310	0.014476
C195	C	-0.057740	-0.021976	0.347809
C196	C	-0.697094	-0.722089	-0.285450
C197	C	-0.363760	-0.388756	0.047883
C198	C	-0.030427	-0.055422	0.381217
C199	C	-0.642502	-0.722059	-0.285436
C200	C	-0.309169	-0.388726	0.047897
C201	C	0.024164	-0.055393	0.381230
N202	N	-0.615186	-0.755507	-0.252035
N203	N	-0.281853	-0.422174	0.081299
N204	N	0.051481	-0.088840	0.414632
C205	C	-0.642473	-0.788972	-0.218638
C206	C	-0.309140	-0.455638	0.114695
C207	C	0.024194	-0.122305	0.448028
C208	C	-0.975578	-0.722177	-0.285475
C209	C	-0.642244	-0.388844	0.047859
C210	C	-0.308911	-0.055510	0.381192
C211	C	-1.030180	-0.722191	-0.285477
C212	C	-0.696847	-0.388858	0.047856
C213	C	-0.363513	-0.055525	0.381189
C214	C	-1.030151	-0.789106	-0.218676
C215	C	-0.696817	-0.455773	0.114657
C216	C	-0.363484	-0.122439	0.447990
C217	C	-0.975547	-0.789089	-0.218671
C218	C	-0.642214	-0.455755	0.114662
C219	C	-0.308881	-0.122422	0.447995
C220	C	-0.948261	-0.755625	-0.252073
C221	C	-0.614928	-0.422291	0.081260
C222	C	-0.281595	-0.088958	0.414593
C223	C	-0.527808	-0.788925	-0.218625
C224	C	-0.194475	-0.455591	0.114709
C225	C	0.138859	-0.122258	0.448042
C226	C	-0.473202	-0.788899	-0.218618
C227	C	-0.139869	-0.455566	0.114715
C228	C	0.193464	-0.122232	0.448048
C229	C	-0.473237	-0.721987	-0.285421
C230	C	-0.139903	-0.388653	0.047912
C231	C	0.193430	-0.055320	0.381245
C232	C	-0.527837	-0.722010	-0.285426
C233	C	-0.194504	-0.388677	0.047908
C234	C	0.138829	-0.055343	0.381241
C235	C	-0.555121	-0.755483	-0.252026
C236	C	-0.221788	-0.422150	0.081308
C237	C	0.111545	-0.088817	0.414641
O238	O	-0.614232	-0.693601	-0.313811
O239	O	-0.280899	-0.360268	0.019523
O240	O	0.052435	-0.026935	0.352856
O241	O	-0.614218	-0.817419	-0.190236
O242	O	-0.280884	-0.484086	0.143097
O243	O	0.052449	-0.150753	0.476430
C244	C	-0.115586	-0.755614	-0.252067
C245	C	0.217747	-0.422281	0.081266
C246	C	0.551081	-0.088948	0.414599
C247	C	-0.057472	-0.755658	-0.252082
C248	C	0.275862	-0.422325	0.081251
C249	C	0.609195	-0.088992	0.414584
C250	C	-0.251935	-0.755546	-0.388405
C251	C	0.081398	-0.422213	-0.055071
C252	C	0.414732	-0.088879	0.278262
C253	C	-0.251925	-0.755560	-0.446519
C254	C	0.081408	-0.422227	-0.113186
C255	C	0.414742	-0.088894	0.220148
C256	C	-0.251979	0.108115	-0.252065
C257	C	0.081354	0.441448	0.081269
C258	C	0.414688	0.774782	0.414602
C259	C	-0.251982	0.050001	-0.252063
C260	C	0.081351	0.383334	0.081270
C261	C	0.414685	0.716668	0.414604
C262	C	-0.218417	-0.722160	-0.806887
C263	C	0.114917	-0.388827	-0.473553
C264	C	0.448250	-0.055493	-0.140220
C265	C	-0.218407	-0.722163	-0.861491
C266	C	0.114926	-0.388829	-0.528158
C267	C	0.448259	-0.055496	-0.194824
O268	O	-0.189975	-0.693738	-0.889732
O269	O	0.143358	-0.360405	-0.556398
O270	O	0.476692	-0.027071	-0.223065
N271	N	-0.251843	-0.755578	-0.888802
N272	N	0.081490	-0.422245	-0.555468
N273	N	0.414824	-0.088911	-0.222135
C274	C	-0.285294	-0.788989	-0.861505
C275	C	0.048039	-0.455655	-0.528172
C276	C	0.381373	-0.122322	-0.194838
O277	O	-0.313733	-0.817411	-0.889749
O278	O	0.019600	-0.484077	-0.556415
O279	O	0.352934	-0.150744	-0.223082
C280	C	-0.285306	-0.788983	-0.806902
C281	C	0.048028	-0.455649	-0.473568
C282	C	0.381361	-0.122316	-0.140235
C283	C	-0.251864	-0.755569	-0.779594
C284	C	0.081469	-0.422236	-0.446261
C285	C	0.414803	-0.088902	-0.112927
C286	C	-0.184978	-0.688749	-0.779579
C287	C	0.148355	-0.355415	-0.446246
C288	C	0.481688	-0.022082	-0.112912
C289	C	-0.184987	-0.688747	-0.724978
C290	C	0.148346	-0.355413	-0.391645
C291	C	0.481679	-0.022080	-0.058312
C292	C	-0.218435	-0.722156	-0.697686
C293	C	0.114899	-0.388823	-0.364352
C294	C	0.448232	-0.055489	-0.031019
C295	C	-0.251873	-0.755567	-0.724993
C296	C	0.081460	-0.422234	-0.391660
C297	C	0.414794	-0.088900	-0.058327
C298	C	-0.318759	-0.822390	-0.779606
C299	C	0.014575	-0.489057	-0.446273
C300	C	0.347908	-0.155724	-0.112939
C301	C	-0.318768	-0.822381	-0.724999
C302	C	0.014565	-0.489048	-0.391666
C303	C	0.347899	-0.155715	-0.058332
C304	C	-0.285326	-0.788968	-0.697691
C305	C	0.048007	-0.455634	-0.364358
C306	C	0.381340	-0.122301	-0.031025
C307	C	-0.285329	-0.788974	-0.643100
C308	C	0.048004	-0.455641	-0.309767
C309	C	0.381338	-0.122308	0.023567
N310	N	-0.251894	-0.755559	-0.615789
N311	N	0.081440	-0.422226	-0.282456
N312	N	0.414773	-0.088893	0.050877
C313	C	-0.218446	-0.722150	-0.643082
C314	C	0.114887	-0.388817	-0.309749
C315	C	0.448220	-0.055483	0.023584
C316	C	-0.285267	-0.788998	-0.976176
C317	C	0.048066	-0.455664	-0.642842
C318	C	0.381399	-0.122331	-0.309509
C319	C	-0.285253	-0.789006	-1.030778
C320	C	0.048080	-0.455673	-0.697445
C321	C	0.381413	-0.122340	-0.364111
C322	C	-0.218367	-0.722180	-1.030760
C323	C	0.114966	-0.388847	-0.697427
C324	C	0.448299	-0.055513	-0.364094
C325	C	-0.218379	-0.722174	-0.976157
C326	C	0.114954	-0.388841	-0.642824
C327	C	0.448288	-0.055507	-0.309490
C328	C	-0.251832	-0.755583	-0.948865
C329	C	0.081502	-0.422249	-0.615532
C330	C	0.414835	-0.088916	-0.282198
C331	C	-0.218467	-0.722149	-0.528417
C332	C	0.114866	-0.388815	-0.195084
C333	C	0.448199	-0.055482	0.138250
C334	C	-0.218478	-0.722151	-0.473812
C335	C	0.114856	-0.388818	-0.140478
C336	C	0.448189	-0.055485	0.192855
C337	C	-0.285365	-0.788976	-0.473834
C338	C	0.047968	-0.455642	-0.140501
C339	C	0.381301	-0.122309	0.192833
C340	C	-0.285353	-0.788975	-0.528435
C341	C	0.047980	-0.455642	-0.195101
C342	C	0.381313	-0.122309	0.138232
C343	C	-0.251902	-0.755558	-0.555725
C344	C	0.081431	-0.422224	-0.222392
C345	C	0.414764	-0.088891	0.110942
O346	O	-0.313748	-0.817383	-0.614825
O347	O	0.019585	-0.484050	-0.281491
O348	O	0.352918	-0.150716	0.051842
O349	O	-0.190017	-0.693728	-0.614832
O350	O	0.143316	-0.360395	-0.281498
O351	O	0.476650	-0.027061	0.051835
C352	C	-0.251945	-0.755508	-0.116189
C353	C	0.081388	-0.422175	0.217144
C354	C	0.414722	-0.088842	0.550477
C355	C	-0.251808	-0.755595	-0.058076
C356	C	0.081526	-0.422262	0.275258
C357	C	0.414859	-0.088928	0.608591
H358	H	-0.312727	-0.054142	-0.312610
H359	H	0.020606	0.279192	0.020723
H360	H	0.353939	0.612525	0.354057
C361	C	-0.694325	-0.859243	-0.148491
C362	C	-0.360992	-0.525910	0.184842
C363	C	-0.027659	-0.192577	0.518176
N364	N	-0.671704	-0.886954	-0.120804
N365	N	-0.338371	-0.553620	0.212530
N366	N	-0.005038	-0.220287	0.545863
C367	C	-0.181595	-0.685414	-0.946124
C368	C	0.151739	-0.352080	-0.612790
C369	C	0.485072	-0.018747	-0.279457
N370	N	-0.153888	-0.657722	-0.923505
N371	N	0.179445	-0.324389	-0.590172
N372	N	0.512778	0.008944	-0.256838
H373	H	-0.191196	-0.457411	-0.191448
H374	H	0.142137	-0.124077	0.141886
H375	H	0.475471	0.209256	0.475219
H376	H	-0.346191	-0.305316	-0.345958
H377	H	-0.012857	0.028018	-0.012625
H378	H	0.320476	0.361351	0.320709
C379	C	-0.322271	-0.449639	-0.322103
C380	C	0.011063	-0.116306	0.011230
C381	C	0.344396	0.217028	0.344563
N382	N	-0.350023	-0.427032	-0.349760
N383	N	-0.016690	-0.093699	-0.016427
N384	N	0.316643	0.239635	0.316906
C385	C	-0.181654	-0.061922	-0.181954
C386	C	0.151679	0.271411	0.151379
C387	C	0.485012	0.604745	0.484713
N388	N	-0.153909	-0.084530	-0.154291
N389	N	0.179425	0.248803	0.179042
N390	N	0.512758	0.582136	0.512376
C391	C	-0.322157	-0.825722	-0.443802
C392	C	0.011176	-0.492389	-0.110468
C393	C	0.344509	-0.159056	0.222865
N394	N	-0.349872	-0.853397	-0.421180
N395	N	-0.016539	-0.520064	-0.087846
N396	N	0.316794	-0.186730	0.245487
C397	C	-0.148141	-0.313104	-0.148567
C398	C	0.185192	0.020230	0.184766
C399	C	0.518525	0.353563	0.518099
N400	N	-0.120394	-0.335714	-0.120908
N401	N	0.212939	-0.002381	0.212426
N402	N	0.546272	0.330952	0.545759
C403	C	-0.181666	-0.685391	-0.558428
C404	C	0.151667	-0.352058	-0.225095
C405	C	0.485000	-0.018724	0.108238
N406	N	-0.153945	-0.657708	-0.581032
N407	N	0.179388	-0.324375	-0.247699
N408	N	0.512722	0.008959	0.085634
H409	H	-0.312695	-0.556488	-0.312544
H410	H	0.020639	-0.223155	0.020789
H411	H	0.353972	0.110179	0.354122
H412	H	-0.346194	-0.206270	-0.345973
H413	H	-0.012861	0.127063	-0.012639
H414	H	0.320473	0.460397	0.320694
C415	C	-0.181689	-0.685391	-0.443776
C416	C	0.151644	-0.352057	-0.110443
C417	C	0.484977	-0.018724	0.222890
N418	N	-0.153982	-0.657702	-0.421156
N419	N	0.179351	-0.324369	-0.087822
N420	N	0.512684	0.008964	0.245511
H421	H	-1.052378	-0.816357	-0.191485
H422	H	-0.719044	-0.483023	0.141849
H423	H	-0.385711	-0.149690	0.475182
C424	C	-0.322037	-0.825768	-1.060810
C425	C	0.011296	-0.492435	-0.727477
C426	C	0.344629	-0.159101	-0.394144
N427	N	-0.349747	-0.853456	-1.083429
N428	N	-0.016414	-0.520122	-0.750095
N429	N	0.316919	-0.186789	-0.416762
C430	C	-0.808971	-0.859289	-0.148509
C431	C	-0.475637	-0.525956	0.184825
C432	C	-0.142304	-0.192623	0.518158
N433	N	-0.831568	-0.887017	-0.120826
N434	N	-0.498235	-0.553684	0.212507
N435	N	-0.164902	-0.220350	0.545840
C436	C	-0.322296	0.052725	-0.322159
C437	C	0.011037	0.386059	0.011174
C438	C	0.344371	0.719392	0.344508
N439	N	-0.350034	0.075350	-0.349816
N440	N	-0.016701	0.408684	-0.016483
N441	N	0.316633	0.742017	0.316850
H442	H	-0.346006	-0.849590	-0.702781
H443	H	-0.012673	-0.516257	-0.369447
H444	H	0.320660	-0.182924	-0.036114
C445	C	-0.181666	0.052729	-0.181966
C446	C	0.151667	0.386062	0.151368
C447	C	0.485001	0.719395	0.484701
N448	N	-0.153919	0.075344	-0.154313
N449	N	0.179415	0.408678	0.179021
N450	N	0.512748	0.742011	0.512354
H451	H	-0.451011	-0.694738	-0.312611
H452	H	-0.117678	-0.361405	0.020722
H453	H	0.215656	-0.028072	0.354056
C454	C	-0.181619	-0.564280	-0.181905
C455	C	0.151714	-0.230946	0.151428
C456	C	0.485048	0.102387	0.484761
N457	N	-0.153868	-0.586905	-0.154261
N458	N	0.179465	-0.253571	0.179072
N459	N	0.512798	0.079762	0.512406
H460	H	-0.312505	-0.816209	-0.953958
H461	H	0.020828	-0.482876	-0.620625
H462	H	0.354161	-0.149543	-0.287291
C463	C	-0.181578	-0.685425	-1.060793
C464	C	0.151755	-0.352092	-0.727459
C465	C	0.485088	-0.018758	-0.394126
N466	N	-0.153871	-0.657742	-1.083415
N467	N	0.179462	-0.324409	-0.750082
N468	N	0.512795	0.008924	-0.416748
C469	C	-0.945508	-0.825883	-0.181923
C470	C	-0.612174	-0.492550	0.151411
C471	C	-0.278841	-0.159216	0.484744
N472	N	-0.922884	-0.853599	-0.154243
N473	N	-0.589551	-0.520266	0.179091
N474	N	-0.256218	-0.186933	0.512424
H475	H	-0.702193	-0.661393	-0.346059
H476	H	-0.368860	-0.328060	-0.012726
H477	H	-0.035527	0.005274	0.320608
C478	C	-0.148177	-0.651996	-0.809592
C479	C	0.185157	-0.318663	-0.476259
C480	C	0.518490	0.014670	-0.142926
N481	N	-0.120451	-0.624316	-0.832195
N482	N	0.212882	-0.290983	-0.498862
N483	N	0.546215	0.042351	-0.165528
H484	H	-0.157718	-0.206253	-0.158111
H485	H	0.175615	0.127080	0.175222
H486	H	0.508948	0.460413	0.508555
H487	H	-0.801243	-0.661419	-0.346066
H488	H	-0.467910	-0.328086	-0.012733
H489	H	-0.134577	0.005248	0.320601
C490	C	-0.443161	-0.825691	-0.181864
C491	C	-0.109828	-0.492358	0.151470
C492	C	0.223506	-0.159025	0.484803
N493	N	-0.420535	-0.853402	-0.154180
N494	N	-0.087202	-0.520069	0.179153
N495	N	0.246131	-0.186736	0.512486
C496	C	-0.557813	-0.825744	-0.181880
C497	C	-0.224479	-0.492411	0.151454
C498	C	0.108854	-0.159077	0.484787
N499	N	-0.580412	-0.853473	-0.154200
N500	N	-0.247079	-0.520140	0.179133
N501	N	0.086255	-0.186807	0.512466
C502	C	-0.945568	-0.685364	-0.322224
C503	C	-0.612235	-0.352030	0.011109
C504	C	-0.278901	-0.018697	0.344442
N505	N	-0.922967	-0.657638	-0.349907
N506	N	-0.589634	-0.324305	-0.016573
N507	N	-0.256301	0.009028	0.316760
C508	C	-1.060219	-0.685393	-0.322223
C509	C	-0.726885	-0.352060	0.011110
C510	C	-0.393552	-0.018726	0.344444
N511	N	-1.082842	-0.657677	-0.349903
N512	N	-0.749509	-0.324344	-0.016570
N513	N	-0.416175	0.008989	0.316763
H514	H	-0.550077	-0.694777	-0.312630
H515	H	-0.216744	-0.361444	0.020703
H516	H	0.116590	-0.028110	0.354036
H517	H	-0.157758	-0.661536	-0.702749
H518	H	0.175575	-0.328203	-0.369416
H519	H	0.508909	0.005131	-0.036083
C520	C	-0.355551	-0.859145	-0.809632
C521	C	-0.022218	-0.525811	-0.476299
C522	C	0.311115	-0.192478	-0.142966
N523	N	-0.383268	-0.886829	-0.832247
N524	N	-0.049934	-0.553496	-0.498914
N525	N	0.283399	-0.220162	-0.165581
C526	C	-0.322137	-0.825735	-0.558474
C527	C	0.011196	-0.492401	-0.225141
C528	C	0.344529	-0.159068	0.108193
N529	N	-0.349848	-0.853419	-0.581096
N530	N	-0.016514	-0.520085	-0.247763
N531	N	0.316819	-0.186752	0.085570
