data_functionalizedCrystal
_audit_creation_method	'MofGen! by Chris Wilmer'
_symmetry_space_group_name_H-M	'P1'
_symmetry_Int_Tables_number	1
_symmetry_cell_setting	triclinic
loop_
_symmetry_equiv_pos_as_xyz
  x,y,z
_cell_length_a	16.120297
_cell_length_b	14.908571
_cell_length_c	14.908183
_cell_angle_alpha	90.178529
_cell_angle_beta	89.407800
_cell_angle_gamma	90.247904
loop_
_atom_site_label
_atom_site_type_symbol
_atom_site_fract_x
_atom_site_fract_y
_atom_site_fract_z
Zn1	Zn	-0.517103	-1.324081	-0.464117
Zn2	Zn	-0.017103	-0.824081	0.035883
Zn3	Zn	-0.370061	-1.323813	-0.606909
Zn4	Zn	0.129939	-0.823813	-0.106909
Zn5	Zn	-0.371017	-1.182165	-0.447922
Zn6	Zn	0.128983	-0.682165	0.052078
Zn7	Zn	-0.501129	-1.165942	-0.604929
Zn8	Zn	-0.001129	-0.665942	-0.104929
O9	O	-0.439827	-1.249000	-0.530969
O10	O	0.060173	-0.749000	-0.030969
O11	O	-0.503882	-1.449507	-0.490665
O12	O	-0.003882	-0.949507	0.009335
O13	O	-0.254197	-1.311701	-0.579870
O14	O	0.245803	-0.811701	-0.079870
O15	O	-0.397481	-1.207892	-0.324604
O16	O	0.102519	-0.707892	0.175396
O17	O	-0.395851	-1.449310	-0.595573
O18	O	0.104149	-0.949310	-0.095573
O19	O	-0.504810	-1.312157	-0.336502
O20	O	-0.004810	-0.812157	0.163498
O21	O	-0.254900	-1.207633	-0.463063
O22	O	0.245100	-0.707633	0.036937
O23	O	-0.381991	-1.054552	-0.461143
O24	O	0.118009	-0.554552	0.038857
O25	O	-0.619238	-1.180241	-0.592198
O26	O	-0.119238	-0.680241	-0.092198
O27	O	-0.477584	-1.042632	-0.576495
O28	O	0.022416	-0.542632	-0.076495
O29	O	-0.630974	-1.296425	-0.488745
O30	O	-0.130974	-0.796425	0.011255
O31	O	-0.380362	-1.295969	-0.732112
O32	O	0.119638	-0.795969	-0.232112
O33	O	-0.476657	-1.179982	-0.730658
O34	O	0.023343	-0.679982	-0.230658
C35	C	-0.428159	-1.016061	-0.516848
C36	C	0.071841	-0.516061	-0.016848
C37	C	-0.423185	-0.916406	-0.510829
C38	C	0.076815	-0.416406	-0.010829
C39	C	-0.656022	-1.236554	-0.542057
C40	C	-0.156022	-0.736554	-0.042057
C41	C	-0.748151	-1.231250	-0.546782
C42	C	-0.248151	-0.731250	-0.046782
C43	C	-0.426691	-1.236209	-0.763920
C44	C	0.073309	-0.736209	-0.263920
C45	C	-0.421104	-1.230818	-0.863583
C46	C	0.078896	-0.730818	-0.363583
C47	C	-0.916832	-1.221534	-0.555387
C48	C	-0.416832	-0.721534	-0.055387
C49	C	-0.963698	-1.276657	-0.506293
C50	C	-0.463698	-0.776657	-0.006293
C51	C	-1.057558	-1.271252	-0.511081
C52	C	-0.557558	-0.771252	-0.011081
C53	C	-0.822964	-1.226939	-0.550601
C54	C	-0.322964	-0.726939	-0.050601
C55	C	-0.224480	-1.261453	-0.519862
C56	C	0.275520	-0.761453	-0.019862
C57	C	-0.132374	-1.266945	-0.514895
C58	C	0.367626	-0.766945	-0.014895
C59	C	-0.451542	-1.482849	-0.545147
C60	C	0.048458	-0.982849	-0.045147
C61	C	-0.456534	-1.582501	-0.551188
C62	C	0.043466	-1.082501	-0.051188
C63	C	-0.513228	-0.716779	-0.619806
C64	C	-0.013228	-0.216779	-0.119806
C65	C	-0.508557	-0.623145	-0.614153
C66	C	-0.008557	-0.123145	-0.114153
C67	C	-0.409179	-0.635500	-0.493869
C68	C	0.090821	-0.135500	0.006131
C69	C	-0.413850	-0.729135	-0.499521
C70	C	0.086150	-0.229135	0.000479
C71	C	-0.465875	-0.769771	-0.562492
C72	C	0.034125	-0.269771	-0.062492
C73	C	-0.470540	-0.863408	-0.568148
C74	C	0.029460	-0.363408	-0.068148
C75	C	-0.371167	-0.875761	-0.447860
C76	C	0.128833	-0.375761	0.052140
C77	C	-0.366496	-0.782126	-0.442208
C78	C	0.133504	-0.282126	0.057792
C79	C	-0.357307	-1.168983	-0.997935
C80	C	0.142693	-0.668983	-0.497935
C81	C	-0.362555	-1.174046	-0.904292
C82	C	0.137445	-0.674046	-0.404292
C83	C	-0.474410	-1.282529	-0.916524
C84	C	0.025590	-0.782529	-0.416524
C85	C	-0.469162	-1.277466	-1.010167
C86	C	0.030838	-0.777466	-0.510167
C87	C	-0.410607	-1.220693	-1.050869
C88	C	0.089393	-0.720693	-0.550869
C89	C	-0.405356	-1.215635	-1.144514
C90	C	0.094644	-0.715635	-0.644514
C91	C	-0.517214	-1.324113	-1.156744
C92	C	-0.017214	-0.824113	-0.656744
C93	C	-0.522462	-1.329175	-1.063101
C94	C	-0.022462	-0.829175	-0.563101
C95	C	-0.453034	-1.261864	-0.297111
C96	C	0.046966	-0.761864	0.202889
C97	C	-0.458662	-1.267346	-0.197455
C98	C	0.041338	-0.767346	0.302545
H99	H	-0.933330	-1.327909	-0.460665
H100	H	-0.433330	-0.827909	0.039335
N101	N	-0.320082	-0.932916	-0.386043
N102	N	0.179918	-0.432916	0.113957
H103	H	-0.330931	-0.998400	-0.399179
H104	H	0.169069	-0.498400	0.100821
H105	H	-0.335866	-0.919314	-0.321706
H106	H	0.164134	-0.419314	0.178294
N107	N	-0.342201	-1.154409	-1.188419
N108	N	0.157799	-0.654409	-0.688419
H109	H	-0.309233	-1.122418	-1.140672
H110	H	0.190767	-0.622418	-0.640672
H111	H	-0.371649	-1.108847	-1.226510
H112	H	0.128351	-0.608847	-0.726510
N113	N	-0.559627	-0.565993	-0.675978
N114	N	-0.059627	-0.065993	-0.175978
H115	H	-0.521602	-0.526807	-0.713396
H116	H	-0.021602	-0.026807	-0.213396
H117	H	-0.598202	-0.526986	-0.639173
H118	H	-0.098202	-0.026986	-0.139173
H119	H	-0.309625	-1.122761	-1.031076
H120	H	0.190375	-0.622761	-0.531076
N121	N	-0.957064	-1.153657	-0.615823
N122	N	-0.457064	-0.653657	-0.115823
H123	H	-0.939146	-1.164906	-0.679980
H124	H	-0.439146	-0.664906	-0.179980
H125	H	-0.939612	-1.091237	-0.597195
H126	H	-0.439612	-0.591237	-0.097195
N127	N	-0.526645	-0.907241	-0.636067
N128	N	-0.026645	-0.407241	-0.136067
H129	H	-0.555936	-0.859459	-0.671515
H130	H	-0.055936	-0.359459	-0.171515
H131	H	-0.569048	-0.945886	-0.603949
H132	H	-0.069048	-0.445886	-0.103949
N133	N	-0.537567	-1.343742	-0.872604
N134	N	-0.037567	-0.843742	-0.372604
H135	H	-0.508179	-1.389355	-0.834513
H136	H	-0.008179	-0.889355	-0.334513
H137	H	-0.570527	-1.375673	-0.920391
H138	H	-0.070527	-0.875673	-0.420391
N139	N	-0.569326	-0.760616	-0.687729
N140	N	-0.069326	-0.260616	-0.187729
H141	H	-0.598613	-0.712837	-0.723184
H142	H	-0.098613	-0.212837	-0.223184
H143	H	-0.611733	-0.799261	-0.655615
H144	H	-0.111733	-0.299261	-0.155615
N145	N	-0.585615	-1.390399	-1.019190
N146	N	-0.085615	-0.890399	-0.519190
H147	H	-0.556223	-1.436013	-0.981104
H148	H	-0.056223	-0.936013	-0.481104
H149	H	-0.618569	-1.422329	-1.066983
H150	H	-0.118569	-0.922329	-0.566983
N151	N	-0.353040	-0.591663	-0.425985
N152	N	0.146960	-0.091663	0.074015
H153	H	-0.357260	-0.524305	-0.431114
H154	H	0.142740	-0.024305	0.068886
H155	H	-0.293867	-0.610676	-0.437834
H156	H	0.206133	-0.110676	0.062166
H157	H	-0.319153	-1.131938	-0.861196
H158	H	0.180847	-0.631938	-0.361196
H159	H	-0.324142	-0.749027	-0.390936
H160	H	0.175858	-0.249027	0.109064
H161	H	-0.560613	-1.366221	-1.199853
H162	H	-0.060613	-0.866221	-0.699853
