data_functionalizedCrystal
_audit_creation_method	'MofGen! by Chris Wilmer'
_symmetry_space_group_name_H-M	'P1'
_symmetry_Int_Tables_number	1
_symmetry_cell_setting	triclinic
loop_
_symmetry_equiv_pos_as_xyz
  x,y,z
_cell_length_a	29.839134
_cell_length_b	29.839131
_cell_length_c	19.076919
_cell_angle_alpha	92.267459
_cell_angle_beta	92.269203
_cell_angle_gamma	90.034165
loop_
_atom_site_label
_atom_site_type_symbol
_atom_site_fract_x
_atom_site_fract_y
_atom_site_fract_z
Zn1	Zn	0.676527	-0.189159	-0.398157
Zn2	Zn	0.679472	-0.261269	-0.280458
Zn3	Zn	0.604423	-0.186144	-0.280453
Zn4	Zn	0.601359	-0.264251	-0.398087
O5	O	0.640445	-0.225206	-0.339289
O6	O	0.739784	-0.198738	-0.382576
O7	O	0.672031	-0.248793	-0.181970
O8	O	0.614037	-0.123678	-0.296094
O9	O	0.741948	-0.251717	-0.296103
O10	O	0.667012	-0.125893	-0.382571
O11	O	0.616893	-0.193600	-0.181966
O12	O	0.541150	-0.196492	-0.296026
O13	O	0.608815	-0.256800	-0.496585
O14	O	0.538899	-0.253877	-0.382451
O15	O	0.664041	-0.201630	-0.496636
O16	O	0.669061	-0.324531	-0.296035
O17	O	0.611671	-0.326722	-0.382457
C18	C	0.523724	-0.225181	-0.339231
C19	C	0.473790	-0.225182	-0.339223
C20	C	0.118358	-0.195285	-0.294379
C21	C	0.306032	-0.195272	-0.294336
O22	O	0.331281	-0.169813	-0.256143
N23	N	0.328344	-0.225190	-0.339258
C24	C	0.303734	-0.255112	-0.384197
O25	O	0.327017	-0.280556	-0.422409
C26	C	0.116060	-0.255123	-0.384242
C27	C	0.093752	-0.225206	-0.339313
C28	C	0.096049	-0.165370	-0.249454
C29	C	0.049134	-0.165376	-0.249462
C30	C	0.024527	-0.195296	-0.294396
C31	C	0.046836	-0.225211	-0.339321
C32	C	0.091451	-0.285042	-0.429184
C33	C	0.044530	-0.285042	-0.429193
C34	C	0.022221	-0.255125	-0.384263
C35	C	-0.024687	-0.255137	-0.384264
N36	N	-0.046998	-0.225219	-0.339342
C37	C	-0.022391	-0.195298	-0.294408
C38	C	0.402265	-0.255104	-0.384169
C39	C	0.449183	-0.255102	-0.384156
C40	C	0.451479	-0.195261	-0.294297
C41	C	0.404560	-0.195266	-0.294306
C42	C	0.379954	-0.225186	-0.339247
C43	C	-0.120918	-0.195312	-0.294429
C44	C	-0.167838	-0.195322	-0.294439
C45	C	-0.170129	-0.255161	-0.384301
C46	C	-0.123213	-0.255153	-0.384288
C47	C	-0.098609	-0.225225	-0.339350
O48	O	-0.049964	-0.280579	-0.422442
O49	O	-0.045683	-0.169851	-0.256212
C50	C	0.165274	-0.195280	-0.294371
C51	C	0.187583	-0.225195	-0.339296
C52	C	0.162976	-0.255115	-0.384230
C53	C	0.234501	-0.225193	-0.339284
C54	C	0.259108	-0.195272	-0.294350
C55	C	0.236796	-0.165354	-0.249428
C56	C	0.189881	-0.165359	-0.249437
C57	C	0.185288	-0.285034	-0.429151
C58	C	0.232203	-0.285026	-0.429139
C59	C	0.256810	-0.255106	-0.384205
C60	C	0.640365	-0.341928	-0.339254
C61	C	0.640371	-0.391862	-0.339263
C62	C	0.670378	-0.700354	-0.294355
C63	C	0.670433	-0.888028	-0.294382
O64	O	0.695883	-0.911313	-0.256173
N65	N	0.640537	-0.912649	-0.339342
C66	C	0.610627	-0.890349	-0.384301
O67	O	0.585203	-0.915598	-0.422548
C68	C	0.610575	-0.702677	-0.384277
C69	C	0.640470	-0.678058	-0.339309
C70	C	0.700271	-0.675735	-0.249392
C71	C	0.700255	-0.628820	-0.249382
C72	C	0.670347	-0.606523	-0.294337
C73	C	0.640454	-0.631142	-0.339300
C74	C	0.580667	-0.680378	-0.429240
C75	C	0.580658	-0.633456	-0.429231
C76	C	0.610553	-0.608837	-0.384263
C77	C	0.610530	-0.561929	-0.384246
N78	N	0.640426	-0.537308	-0.339286
C79	C	0.670335	-0.559605	-0.294332
C80	C	0.610656	-0.988880	-0.384310
C81	C	0.610668	-1.035798	-0.384315
C82	C	0.670475	-1.033474	-0.294397
C83	C	0.670460	-0.986555	-0.294389
C84	C	0.640552	-0.964259	-0.339350
C85	C	0.670299	-0.461079	-0.294315
C86	C	0.670280	-0.414159	-0.294308
C87	C	0.610475	-0.416488	-0.384229
C88	C	0.610493	-0.463403	-0.384234
C89	C	0.640408	-0.485698	-0.339275
O90	O	0.585097	-0.538615	-0.422440
O91	O	0.695762	-0.534349	-0.256102
C92	C	0.670394	-0.747270	-0.294364
C93	C	0.640501	-0.771889	-0.339328
C94	C	0.610593	-0.749592	-0.384282
C95	C	0.640514	-0.818807	-0.339333
C96	C	0.670422	-0.841104	-0.294379
C97	C	0.700318	-0.816482	-0.249419
C98	C	0.700302	-0.769567	-0.249410
C99	C	0.580696	-0.774213	-0.429242
C100	C	0.580714	-0.821129	-0.429247
C101	C	0.610623	-0.843426	-0.384292
C102	C	0.757622	-0.225231	-0.339348
C103	C	0.807556	-0.225242	-0.339373
C104	C	0.635758	-0.229884	-0.522861
C105	C	0.633760	-0.231878	-0.601089
C106	C	0.640538	-0.108029	-0.339339
C107	C	0.640577	-0.058095	-0.339361
C108	C	0.661573	-0.204092	-0.637868
C109	C	0.659691	-0.205963	-0.711371
C110	C	0.629998	-0.235623	-0.748094
C111	C	0.602182	-0.263411	-0.711309
C112	C	0.604062	-0.261537	-0.637807
C113	C	0.621289	-0.244306	-0.967917
C114	C	0.619412	-0.246179	-1.041424
C115	C	0.676921	-0.188731	-1.041482
C116	C	0.678800	-0.186861	-0.967978
C117	C	0.650983	-0.214647	-0.931200
N118	N	0.628074	-0.237538	-0.823226
N119	N	0.652904	-0.212730	-0.856070
C120	C	0.645140	-0.220513	-0.156431
C121	C	0.647225	-0.218393	-0.078204
H122	H	0.109607	-0.309404	-0.465770
Cl123	Cl	0.708074	-1.061512	-0.237882
H124	H	0.702981	-0.162710	-0.938084
Cl125	Cl	0.126975	-0.127750	-0.192959
Cl126	Cl	0.711887	-0.153801	-1.087721
H127	H	0.581409	-0.284159	-0.607862
H128	H	-0.100890	-0.170940	-0.257839
Cl129	Cl	0.694678	-0.171050	-0.757605
H130	H	0.386399	-0.170903	-0.257723
Cl131	Cl	0.582078	-0.283467	-1.087589
H132	H	0.578003	-0.287559	-0.741214
Cl133	Cl	-0.195880	-0.157709	-0.237952
Cl134	Cl	0.021095	-0.127759	-0.192984
Cl135	Cl	0.586318	-0.279237	-0.921692
Cl136	Cl	0.572901	-0.494353	-0.440751
H137	H	0.556342	-0.756063	-0.465850
H138	H	0.471521	-0.170899	-0.257709
Cl139	Cl	0.573079	-1.066742	-0.440840
Cl140	Cl	0.477223	-0.292720	-0.440632
H141	H	0.382235	-0.279471	-0.420766
Cl142	Cl	0.013599	-0.322657	-0.485695
Cl143	Cl	0.707907	-0.489099	-0.237793
Cl144	Cl	-0.201071	-0.292778	-0.440777
Cl145	Cl	-0.095167	-0.292768	-0.440765
H146	H	0.171721	-0.140997	-0.212851
H147	H	0.165257	-0.309399	-0.465743
H148	H	0.256839	-0.140993	-0.212839
Cl149	Cl	0.543128	-0.852073	-0.485783
H150	H	0.250363	-0.309393	-0.465725
H151	H	0.724600	-0.608778	-0.212768
Cl152	Cl	0.707865	-0.383212	-0.237773
H153	H	0.724629	-0.693884	-0.212784
H154	H	0.685754	-0.179940	-0.607974
H155	H	0.586300	-0.970730	-0.420924
Cl156	Cl	0.708044	-0.955610	-0.237857
H157	H	0.556303	-0.615306	-0.465846
Cl158	Cl	0.543088	-0.711316	-0.485783
Cl159	Cl	0.572880	-0.388449	-0.440744
H160	H	0.724646	-0.749525	-0.212793
H161	H	0.724669	-0.834645	-0.212813
