data_functionalizedCrystal
_audit_creation_method	'MofGen! by Chris Wilmer'
_symmetry_space_group_name_H-M	'P1'
_symmetry_Int_Tables_number	1
_symmetry_cell_setting	triclinic
loop_
_symmetry_equiv_pos_as_xyz
  x,y,z
_cell_length_a	19.288840
_cell_length_b	12.996460
_cell_length_c	14.519731
_cell_angle_alpha	90.011339
_cell_angle_beta	96.592566
_cell_angle_gamma	89.986655
loop_
_atom_site_label
_atom_site_type_symbol
_atom_site_fract_x
_atom_site_fract_y
_atom_site_fract_z
O1	O	0.921781	-0.085751	-0.114934
O2	O	1.421781	0.414249	0.385066
O3	O	0.719575	-0.085717	-0.130477
O4	O	1.219575	0.414283	0.369523
O5	O	0.826031	-0.085714	0.011566
O6	O	1.326031	0.414286	0.511566
O7	O	0.815324	-0.085754	-0.256977
O8	O	1.315324	0.414246	0.243023
O9	O	0.826019	0.085420	0.011573
O10	O	1.326019	0.585420	0.511573
O11	O	0.719563	0.085417	-0.130470
O12	O	1.219563	0.585417	0.369530
O13	O	0.921769	0.085383	-0.114927
O14	O	1.421769	0.585383	0.385073
Cu15	Cu	0.820665	0.101026	-0.122698
Cu16	Cu	1.320665	0.601026	0.377302
Cu17	Cu	0.820679	-0.101360	-0.122706
Cu18	Cu	1.320679	0.398640	0.377294
O19	O	0.815312	0.085380	-0.256970
O20	O	1.315312	0.585380	0.243030
C21	C	0.693690	-0.000145	-0.129977
C22	C	1.193690	0.499855	0.370023
C23	C	0.616580	-0.000131	-0.128487
C24	C	1.116580	0.499869	0.371513
N25	N	0.820660	0.243373	-0.122691
N26	N	1.320660	0.743373	0.377309
C27	C	0.580381	-0.093419	-0.127776
C28	C	1.080381	0.406581	0.372224
C29	C	0.507929	-0.093431	-0.126366
C30	C	1.007929	0.406569	0.373634
C31	C	0.471681	-0.000151	-0.125649
C32	C	0.971681	0.499849	0.374351
C33	C	0.507888	0.093149	-0.126366
C34	C	1.007888	0.593149	0.373634
C35	C	0.580338	0.093159	-0.127785
C36	C	1.080338	0.593159	0.372215
C37	C	0.362142	0.071309	-0.069381
C38	C	0.862142	0.571309	0.430619
C39	C	0.289694	0.071295	-0.067956
C40	C	0.789694	0.571295	0.432044
C41	C	0.248221	-0.000177	-0.121275
C42	C	0.748221	0.499823	0.378725
C43	C	0.279206	-0.071653	-0.176008
C44	C	0.779206	0.428347	0.323992
C45	C	0.351656	-0.071643	-0.177427
C46	C	0.851656	0.428357	0.322573
C47	C	0.393121	-0.000151	-0.124110
C48	C	0.893121	0.499849	0.375890
C49	C	0.133461	-0.093484	-0.119036
C50	C	0.633461	0.406516	0.380964
C51	C	0.061007	-0.093493	-0.117631
C52	C	0.561007	0.406507	0.382369
C53	C	0.060969	0.093090	-0.117622
C54	C	0.560969	0.593090	0.382378
C55	C	0.133420	0.093096	-0.119036
C56	C	0.633420	0.593096	0.380964
C57	C	0.169662	-0.000194	-0.119738
C58	C	0.669662	0.499806	0.380262
C59	C	0.820673	0.663187	-0.122710
C60	C	1.320673	1.163187	0.377290
C61	C	0.820667	0.546382	-0.122708
C62	C	1.320667	1.046382	0.377292
C63	C	0.820667	0.453284	-0.122701
C64	C	1.320667	0.953284	0.377299
C65	C	0.820660	0.336471	-0.122698
C66	C	1.320660	0.836471	0.377302
C67	C	0.947654	-0.000191	-0.115426
C68	C	1.447654	0.499809	0.384574
C69	C	1.024764	-0.000212	-0.116916
C70	C	1.524764	0.499788	0.383084
N71	N	0.820683	0.756293	-0.122709
N72	N	1.320683	1.256293	0.377291
C73	C	0.825524	-0.000144	0.045926
C74	C	1.325524	0.499856	0.545926
C75	C	0.824020	-0.000134	0.148297
C76	C	1.324020	0.499866	0.648297
C77	C	0.822799	-0.000129	0.231433
C78	C	1.322799	0.499871	0.731433
C79	C	0.821272	-0.000128	0.335732
C80	C	1.321272	0.499872	0.835732
C81	C	0.820061	-0.000127	0.418863
C82	C	1.320061	0.499873	0.918863
C83	C	0.818535	-0.000124	0.523168
C84	C	1.318535	0.499876	1.023168
C85	C	0.815820	-0.000171	0.708670
C86	C	1.315820	0.499829	1.208670
C87	C	0.817323	-0.000123	0.606300
C88	C	1.317323	0.499877	1.106300
H89	H	0.478449	-0.169400	-0.125787
H90	H	0.978449	0.330600	0.374213
H91	H	0.376880	-0.129839	-0.221995
H92	H	0.876880	0.370161	0.278005
H93	H	0.264473	0.129491	-0.023384
H94	H	0.764473	0.629491	0.476616
N95	N	0.236842	-0.144666	-0.230466
N96	N	0.736842	0.355334	0.269534
N97	N	0.172156	-0.144665	-0.229197
N98	N	0.672156	0.355335	0.270803
H99	H	0.142233	-0.196231	-0.267654
H100	H	0.642233	0.303769	0.232346
N101	N	0.170411	0.188380	-0.119759
N102	N	0.670411	0.688380	0.380241
N103	N	0.204509	0.209192	-0.185541
N104	N	0.704509	0.709192	0.314459
H105	H	0.230635	0.276491	-0.186054
H106	H	0.730635	0.776491	0.313946
H107	H	0.395905	0.129516	-0.025959
H108	H	0.895905	0.629516	0.474041
N109	N	0.170475	-0.188782	-0.119753
N110	N	0.670475	0.311218	0.380247
N111	N	0.138141	-0.272071	-0.119125
N112	N	0.638141	0.227929	0.380875
H113	H	0.164280	-0.339377	-0.119631
H114	H	0.664280	0.160623	0.380369
H115	H	0.031534	-0.169462	-0.117058
H116	H	0.531534	0.330538	0.382942
N117	N	0.023939	0.188366	-0.116910
N118	N	0.523939	0.688366	0.383090
N119	N	-0.040749	0.188347	-0.115654
N120	N	0.459251	0.688347	0.384346
H121	H	-0.066906	0.255638	-0.115159
H122	H	0.433094	0.755638	0.384841
N123	N	0.470864	0.188434	-0.125652
N124	N	0.970864	0.688434	0.374348
N125	N	0.424105	0.209231	-0.189854
N126	N	0.924105	0.709231	0.310146
H127	H	0.397957	0.276530	-0.189356
H128	H	0.897957	0.776530	0.310644
N129	N	0.617389	-0.188718	-0.128494
N130	N	1.117389	0.311282	0.371506
N131	N	0.585053	-0.272006	-0.127859
N132	N	1.085053	0.227994	0.372141
H133	H	0.611191	-0.339313	-0.128367
H134	H	1.111191	0.160687	0.371633
N135	N	0.617307	0.188464	-0.128519
N136	N	1.117307	0.688464	0.371481
N137	N	0.584938	0.271746	-0.127889
N138	N	1.084938	0.771746	0.372111
H139	H	0.611048	0.339057	-0.128408
H140	H	1.111048	0.839057	0.371592
