data_functionalizedCrystal
_audit_creation_method	'MofGen! by Chris Wilmer'
_symmetry_space_group_name_H-M	'P1'
_symmetry_Int_Tables_number	1
_symmetry_cell_setting	triclinic
loop_
_symmetry_equiv_pos_as_xyz
  x,y,z
_cell_length_a	19.288840
_cell_length_b	13.339070
_cell_length_c	18.366186
_cell_angle_alpha	89.997828
_cell_angle_beta	89.983729
_cell_angle_gamma	99.377655
loop_
_atom_site_label
_atom_site_type_symbol
_atom_site_fract_x
_atom_site_fract_y
_atom_site_fract_z
O1	O	0.945910	0.125963	-0.060672
O2	O	1.445910	0.625963	0.439328
O3	O	0.746967	0.142998	-0.060647
O4	O	1.246967	0.642998	0.439353
O5	O	0.823606	-0.012676	-0.060655
O6	O	1.323606	0.487324	0.439345
O7	O	0.869271	0.281637	-0.060665
O8	O	1.369271	0.781637	0.439335
O9	O	0.823587	-0.012684	0.060445
O10	O	1.323587	0.487316	0.560445
O11	O	0.746947	0.142990	0.060452
O12	O	1.246947	0.642990	0.560452
O13	O	0.945891	0.125955	0.060427
O14	O	1.445891	0.625955	0.560427
Zn15	Zn	0.846416	0.134471	0.079667
Zn16	Zn	1.346416	0.634471	0.579667
Zn17	Zn	0.846442	0.134481	-0.079887
Zn18	Zn	1.346442	0.634481	0.420113
O19	O	0.869251	0.281629	0.060435
O20	O	1.369251	0.781629	0.560435
C21	C	0.720974	0.142450	-0.000094
C22	C	1.220974	0.642450	0.499906
C23	C	0.643552	0.140817	-0.000084
C24	C	1.143552	0.640817	0.499916
C25	C	0.607206	0.140037	-0.066097
C26	C	1.107206	0.640037	0.433903
C27	C	0.534458	0.138492	-0.066106
C28	C	1.034458	0.638492	0.433894
C29	C	0.498056	0.137706	-0.000098
C30	C	0.998056	0.637706	0.499902
C31	C	0.534411	0.138492	0.065924
C32	C	1.034411	0.638492	0.565924
C33	C	0.607159	0.140048	0.065931
C34	C	1.107159	0.640048	0.565931
C35	C	0.376704	0.076039	0.050465
C36	C	0.876704	0.576039	0.550465
C37	C	0.303957	0.074477	0.050455
C38	C	0.803957	0.574477	0.550455
C39	C	0.273679	0.132913	-0.000117
C40	C	0.773679	0.632913	0.499883
C41	C	0.316155	0.192898	-0.050692
C42	C	0.816155	0.692898	0.449308
C43	C	0.388903	0.194453	-0.050685
C44	C	0.888903	0.694453	0.449315
C45	C	0.419174	0.136020	-0.000098
C46	C	0.919174	0.636020	0.499902
C47	C	0.158451	0.130458	-0.066144
C48	C	0.658451	0.630458	0.433856
C49	C	0.085703	0.128919	-0.066150
C50	C	0.585703	0.628919	0.433850
C51	C	0.085656	0.128910	0.065881
C52	C	0.585656	0.628910	0.565881
C53	C	0.158405	0.130459	0.065885
C54	C	0.658405	0.630459	0.565885
C55	C	0.194797	0.131228	-0.000129
C56	C	0.694797	0.631228	0.499871
C57	C	0.815883	-0.050333	-0.000105
C58	C	1.315883	0.449667	0.499895
C59	C	0.792890	-0.162527	-0.000105
C60	C	1.292890	0.337473	0.499895
C61	C	0.971668	-0.528158	-0.000127
C62	C	1.471668	-0.028158	0.499873
C63	C	0.993273	-0.422747	-0.000123
C64	C	1.493273	0.077253	0.499877
C65	C	0.943179	-0.357687	-0.000119
C66	C	1.443179	0.142313	0.499881
C67	C	0.871477	-0.398048	-0.000118
C68	C	1.371477	0.101952	0.499882
C69	C	0.849870	-0.503470	-0.000116
C70	C	1.349870	-0.003470	0.499884
C71	C	0.821381	-0.332999	-0.000108
C72	C	1.321381	0.167001	0.499892
C73	C	0.749679	-0.373360	-0.000107
C74	C	1.249679	0.126640	0.499893
C75	C	0.728075	-0.478772	-0.000106
C76	C	1.228075	0.021228	0.499894
C77	C	0.778169	-0.543832	-0.000111
C78	C	1.278169	-0.043832	0.499889
C79	C	0.842988	-0.227577	-0.000110
C80	C	1.342988	0.272423	0.499890
C81	C	0.721190	-0.202889	-0.000099
C82	C	1.221190	0.297111	0.499901
C83	C	0.699585	-0.308300	-0.000103
C84	C	1.199585	0.191700	0.499897
C85	C	0.971883	0.126503	-0.000127
C86	C	1.471883	0.626503	0.499873
C87	C	1.049306	0.128136	-0.000142
C88	C	1.549306	0.628136	0.499858
C89	C	0.876975	0.319286	-0.000117
C90	C	1.376975	0.819286	0.499883
C91	C	0.899967	0.431480	-0.000121
C92	C	1.399967	0.931480	0.499879
N93	N	0.846403	0.134464	0.188558
N94	N	1.346403	0.634464	0.688558
N95	N	0.846459	0.134481	-0.188778
N96	N	1.346459	0.634481	0.311222
C97	C	0.880361	0.065565	0.226655
C98	C	1.380361	0.565565	0.726655
C99	C	0.880365	0.065561	0.302883
C100	C	1.380365	0.565561	0.802883
C101	C	0.846420	0.134472	0.341011
C102	C	1.346420	0.634472	0.841011
C103	C	0.812455	0.203376	0.302905
C104	C	1.312455	0.703376	0.802905
C105	C	0.812446	0.203372	0.226678
C106	C	1.312446	0.703372	0.726678
C107	C	0.855068	0.226564	0.461769
C108	C	1.355068	0.726564	0.961769
C109	C	0.855082	0.226570	0.537994
C110	C	1.355082	0.726570	1.037994
C111	C	0.846443	0.134485	0.576118
C112	C	1.346443	0.634485	1.076118
C113	C	0.837804	0.042391	0.538009
C114	C	1.337804	0.542391	1.038009
C115	C	0.837795	0.042386	0.461782
C116	C	1.337795	0.542386	0.961782
C117	C	0.846425	0.134484	0.423666
C118	C	1.346425	0.634484	0.923666
C119	C	0.880406	0.065576	0.696870
C120	C	1.380406	0.565576	1.196870
C121	C	0.880404	0.065570	0.773100
C122	C	1.380404	0.565570	1.273100
C123	C	0.812499	0.203394	0.773120
C124	C	1.312499	0.703394	1.273120
C125	C	0.812496	0.203391	0.696892
C126	C	1.312496	0.703391	1.196892
C127	C	0.846453	0.134483	0.658772
C128	C	1.346453	0.634483	1.158772
H129	H	0.504769	0.137855	0.119668
H130	H	1.004769	0.637855	0.619668
F131	F	0.408920	0.013840	0.104296
F132	F	0.908920	0.513840	0.604296
H133	H	0.908018	0.009453	0.333907
H134	H	1.408018	0.509453	0.833907
F135	F	0.776357	0.276727	0.656343
F136	F	1.276357	0.776727	1.156343
H137	H	0.862121	0.301558	0.569017
H138	H	1.362121	0.801558	1.069017
F139	F	1.024973	-0.597404	-0.000120
F140	F	1.524973	-0.097404	0.499880
F141	F	0.864315	0.324582	0.421201
F142	F	1.364315	0.824582	0.921201
H143	H	0.784815	0.259483	0.333952
H144	H	1.284815	0.759483	0.833952
F145	F	0.258759	0.010655	0.104292
F146	F	0.758759	0.510655	0.604292
H147	H	0.056019	0.128276	0.119626
H148	H	0.556019	0.628276	0.619626
H149	H	0.636833	0.140664	-0.119852
H150	H	1.136833	0.640664	0.380148
H151	H	0.908009	0.009454	0.195620
H152	H	1.408009	0.509454	0.695620
F153	F	0.495768	0.137661	-0.136369
F154	F	0.995768	0.637661	0.363631
H155	H	0.423485	0.243297	-0.091863
H156	H	0.923485	0.743297	0.408137
H157	H	0.636752	0.140684	0.119688
H158	H	1.136752	0.640684	0.619688
F159	F	0.283938	0.255098	-0.104517
F160	F	0.783938	0.755098	0.395483
F161	F	0.776302	0.276707	0.186131
F162	F	1.276302	0.776707	0.686131
F163	F	0.919296	-0.184633	-0.000110
F164	F	1.419296	0.315367	0.499890
F165	F	0.916544	-0.007770	0.813647
F166	F	1.416544	0.492230	1.313647
F167	F	0.623276	-0.351269	-0.000104
F168	F	1.123276	0.148731	0.499896
F169	F	0.197088	0.131284	0.136147
F170	F	0.697088	0.631284	0.636147
H171	H	0.960774	-0.271857	-0.000115
H172	H	1.460774	0.228143	0.499885
H173	H	0.760582	-0.629668	-0.000117
H174	H	1.260582	-0.129668	0.499883
H175	H	1.051653	-0.389892	-0.000122
H176	H	1.551653	0.110108	0.499878
H177	H	0.669691	-0.511631	-0.000100
H178	H	1.169691	-0.011631	0.499900
F179	F	0.667872	-0.133652	-0.000090
F180	F	1.167872	0.366348	0.499910
H181	H	0.830759	-0.032600	0.430757
H182	H	1.330759	0.467400	0.930757
F183	F	0.828613	-0.055621	0.578577
F184	F	1.328613	0.444379	1.078577
F185	F	0.916543	-0.007766	0.656299
F186	F	1.416543	0.492234	1.156299
H187	H	0.188085	0.131096	-0.119898
H188	H	0.688085	0.631096	0.380102
H189	H	0.056112	0.128290	-0.119908
H190	H	0.556112	0.628290	0.380092
F191	F	0.776367	0.276729	0.813695
F192	F	1.276367	0.776729	1.313695
