data_functionalizedCrystal
_audit_creation_method	'MofGen! by Chris Wilmer'
_symmetry_space_group_name_H-M	'P1'
_symmetry_Int_Tables_number	1
_symmetry_cell_setting	triclinic
loop_
_symmetry_equiv_pos_as_xyz
  x,y,z
_cell_length_a	15.995355
_cell_length_b	9.565339
_cell_length_c	15.995350
_cell_angle_alpha	90.002462
_cell_angle_beta	83.493290
_cell_angle_gamma	90.000621
loop_
_atom_site_label
_atom_site_type_symbol
_atom_site_fract_x
_atom_site_fract_y
_atom_site_fract_z
O1	O	-1.110983	0.116117	-0.107938
O2	O	-0.867208	0.116149	-0.121262
O3	O	-0.995759	0.116131	0.007287
O4	O	-0.982432	0.116135	-0.236488
O5	O	-0.995749	-0.116389	0.007279
O6	O	-0.867198	-0.116371	-0.121270
O7	O	-1.110973	-0.116403	-0.107946
Zn8	Zn	-0.989084	-0.153304	-0.114610
Zn9	Zn	-0.989097	0.153051	-0.114599
O10	O	-0.982421	-0.116385	-0.236496
C11	C	-0.836008	-0.000107	-0.120715
C12	C	-0.743058	-0.000095	-0.119061
N13	N	-0.989081	-0.362384	-0.114616
C14	C	-0.572873	-0.000114	-0.116060
C15	C	-0.549527	-0.000115	-0.023262
C16	C	-0.452850	-0.000652	-0.021512
C17	C	-0.405314	-0.000132	-0.113104
C18	C	-0.434399	-0.132647	-0.159770
C19	C	-0.531191	-0.132750	-0.160875
C20	C	-0.531113	0.131679	-0.162224
C21	C	-0.434619	0.133412	-0.158794
C22	C	-0.310616	-0.000146	-0.111439
C23	C	-0.667570	-0.000109	-0.117729
C24	C	-0.929612	-0.453579	-0.174046
C25	C	-1.005275	-0.546767	-0.190295
C26	C	-0.913450	-0.546751	-0.098374
C27	C	-1.064781	-0.453521	-0.130902
C28	C	-0.972907	-0.453496	-0.038949
C29	C	-1.048625	-0.546642	-0.055165
C30	C	-0.142174	-0.000145	-0.108483
C31	C	-0.235128	-0.000151	-0.110103
C32	C	-0.995203	-0.000126	0.038478
C33	C	-0.993551	-0.000118	0.131428
N34	N	-0.989107	0.362130	-0.114586
C35	C	-0.982978	-0.000124	-0.267687
C36	C	-0.984629	-0.000123	-0.360637
C37	C	-0.987619	-0.000122	0.469176
C38	C	-0.896067	0.000411	0.421743
C39	C	-0.897719	-0.000113	0.325053
C40	C	-0.990562	-0.000119	0.301615
C41	C	-1.035712	-0.132903	0.342688
C42	C	-1.033412	-0.133014	0.439323
C43	C	-1.035315	0.131405	0.439691
C44	C	-1.035294	0.133159	0.342745
C45	C	-0.992229	-0.000122	0.206918
C46	C	-0.985954	-0.000128	0.563874
H47	H	-0.433835	0.094321	0.015017
H48	H	-0.545765	-0.138415	-0.228926
C49	C	-1.151215	-0.398442	-0.149555
H50	H	-1.150668	-0.299126	-0.149484
H51	H	-1.193488	-0.431048	-0.107581
H52	H	-1.162804	-0.431156	-0.203126
H53	H	-0.577538	0.094898	0.012709
C54	C	-0.567380	-0.267067	-0.117736
H55	H	-0.626735	-0.268317	-0.118032
H56	H	-0.554233	-0.269452	-0.061309
H57	H	-0.543502	-0.346304	-0.147264
C58	C	-0.990765	0.265867	0.305870
H59	H	-0.945106	0.240172	0.265572
H60	H	-0.970201	0.318006	0.349772
H61	H	-1.029519	0.321283	0.279495
C62	C	-0.550045	0.133424	-0.254495
H63	H	-0.524642	0.213289	-0.282065
H64	H	-0.609172	0.136845	-0.256257
H65	H	-0.527985	0.051208	-0.282092
C66	C	-0.993341	-0.266392	0.304354
H67	H	-1.021114	-0.346190	0.329615
H68	H	-0.935919	-0.267580	0.314326
H69	H	-0.996860	-0.267768	0.245469
C70	C	-0.846838	-0.127482	0.448208
H71	H	-0.791593	-0.126350	0.419267
H72	H	-0.874780	-0.210644	0.434550
H73	H	-0.843757	-0.124335	0.507143
H74	H	-0.879367	-0.412717	-0.224350
C75	C	-0.994890	0.267368	0.467438
H76	H	-1.024614	0.345459	0.449020
H77	H	-0.937855	0.271454	0.443376
H78	H	-0.997272	0.269074	0.527044
C79	C	-1.116647	-0.601514	0.012747
H80	H	-1.170324	-0.569418	0.001080
H81	H	-1.105606	-0.568166	0.066350
H82	H	-1.115987	-0.700825	0.012694
H83	H	-0.959186	-0.412495	0.025007
H84	H	-0.849481	-0.587706	-0.084651
H85	H	-0.859479	0.095633	0.440279
H86	H	-0.862228	0.095072	0.296635
C87	C	-0.588668	-0.128302	0.024534
H88	H	-0.619172	-0.181822	-0.011820
H89	H	-0.625674	-0.098040	0.071711
H90	H	-0.545296	-0.184145	0.043182
C91	C	-1.023774	-0.602134	-0.276716
H92	H	-0.981461	-0.570282	-0.318892
H93	H	-1.077101	-0.568848	-0.288657
H94	H	-1.024153	-0.701441	-0.275917
H95	H	-0.434409	-0.096201	0.014839
H96	H	-1.102998	0.141172	0.327382
H97	H	-0.401663	0.141825	-0.225625
H98	H	-0.861981	-0.095451	0.297186
H99	H	-1.000480	-0.232267	0.457622
H100	H	-1.100628	-0.139043	0.471570
H101	H	-0.559388	0.232153	-0.132945
H102	H	-1.102816	0.132292	0.471450
C103	C	-0.407260	-0.266382	-0.116526
H104	H	-0.378213	-0.241745	-0.070040
H105	H	-0.371201	-0.319878	-0.155541
H106	H	-0.455631	-0.320018	-0.097300
C107	C	-1.127853	-0.139596	0.323601
H108	H	-1.139632	-0.061285	0.290330
H109	H	-1.164159	-0.138370	0.374887
H110	H	-1.136608	-0.223260	0.293791
H111	H	-0.402553	-0.137202	-0.227179
H112	H	-0.416066	0.231448	-0.124811
