data_functionalizedCrystal
_audit_creation_method	'MofGen! by Chris Wilmer'
_symmetry_space_group_name_H-M	'P1'
_symmetry_Int_Tables_number	1
_symmetry_cell_setting	triclinic
loop_
_symmetry_equiv_pos_as_xyz
  x,y,z
_cell_length_a	10.540539
_cell_length_b	10.065875
_cell_length_c	11.026607
_cell_angle_alpha	100.714830
_cell_angle_beta	96.555754
_cell_angle_gamma	81.144270
loop_
_atom_site_label
_atom_site_type_symbol
_atom_site_fract_x
_atom_site_fract_y
_atom_site_fract_z
O1	O	-1.737981	0.113423	-0.153689
O2	O	-1.372107	0.113440	-0.169831
O3	O	-1.524720	0.113428	0.015155
O4	O	-1.585368	0.113435	-0.338675
O5	O	-1.495563	-0.113559	-0.020192
O6	O	-1.342949	-0.113547	-0.205179
O7	O	-1.708824	-0.113563	-0.189036
Zn8	Zn	-1.521257	-0.149594	-0.202720
Zn9	Zn	-1.559673	0.149470	-0.156148
O10	O	-1.556211	-0.113551	-0.374023
C11	C	-1.309960	-0.000051	-0.186294
C12	C	-1.168219	-0.000045	-0.182671
C13	C	-1.770971	-0.000069	-0.172573
C14	C	-1.912713	-0.000066	-0.176195
N15	N	-1.495049	-0.353698	-0.234503
C16	C	-0.954321	-0.000578	-0.043949
C17	C	-1.101810	-0.000052	-0.047539
C18	C	-1.137441	0.129571	-0.227518
C19	C	-0.989898	0.129666	-0.222891
C20	C	-0.956855	-0.128460	-0.265837
C21	C	-1.103891	-0.130159	-0.267346
C22	C	-1.498953	-0.000063	0.042790
C23	C	-1.465601	-0.000057	0.177794
C24	C	-1.530394	-0.578643	-0.191660
C25	C	-1.550553	-0.421477	-0.167189
N26	N	-1.585890	0.353574	-0.124355
C27	C	-1.581978	-0.000057	-0.401657
C28	C	-1.615331	-0.000055	-0.536659
C29	C	-1.557694	-0.000059	0.250801
C30	C	-1.523225	-0.000053	0.390335
H31	H	-1.121281	-0.092967	-0.010839
N32	N	-1.633243	-0.344228	-0.066847
H33	H	-1.707765	-0.284923	-0.104606
H34	H	-1.667417	-0.411131	-0.025316
N35	N	-0.955059	0.257989	-0.139223
H36	H	-0.859060	0.259332	-0.135381
H37	H	-1.002299	0.340371	-0.173033
N38	N	-0.885160	-0.123712	0.007594
H39	H	-0.826180	-0.180361	-0.054275
H40	H	-0.832661	-0.092688	0.087523
H41	H	-0.903109	-0.226709	-0.237404
N42	N	-1.412328	-0.430927	-0.334828
H43	H	-1.409648	-0.532253	-0.338089
H44	H	-1.449958	-0.406019	-0.417353
N45	N	-1.695934	-0.000084	0.196774
H46	H	-1.724703	0.084052	0.157823
H47	H	-1.702961	-0.084292	0.131687
N48	N	-1.128042	-0.257185	-0.224206
H49	H	-1.180432	-0.230574	-0.150123
H50	H	-1.176878	-0.314670	-0.293417
H51	H	-1.467952	-0.636962	-0.267394
H52	H	-1.418858	-0.000039	0.431127
H53	H	-0.930895	-0.129334	-0.363578
H54	H	-0.924343	0.091858	0.023605
H55	H	-1.719713	0.000043	0.422567
H56	H	-1.648320	-0.588105	-0.048612
H57	H	-0.963972	0.135551	-0.319160
H58	H	-1.182150	0.134396	-0.326004
H59	H	-1.361241	-0.000043	0.218592
N60	N	-1.158007	0.123227	0.039917
H61	H	-1.086955	0.177446	0.080948
H62	H	-1.223886	0.182198	-0.008029
N63	N	-1.197153	0.257354	-0.147789
H64	H	-1.244167	0.231578	-0.082587
H65	H	-1.127228	0.312890	-0.106263
H66	H	-1.148692	-0.137983	-0.367085
