data_functionalizedCrystal
_audit_creation_method	'MofGen! by Chris Wilmer'
_symmetry_space_group_name_H-M	'P1'
_symmetry_Int_Tables_number	1
_symmetry_cell_setting	triclinic
loop_
_symmetry_equiv_pos_as_xyz
  x,y,z
_cell_length_a	16.992694
_cell_length_b	13.930277
_cell_length_c	16.974755
_cell_angle_alpha	86.338556
_cell_angle_beta	92.979425
_cell_angle_gamma	90.001555
loop_
_atom_site_label
_atom_site_type_symbol
_atom_site_fract_x
_atom_site_fract_y
_atom_site_fract_z
O1	O	1.040203	0.092741	-0.167651
O2	O	1.540203	0.592741	0.332349
O3	O	0.811919	0.092626	-0.165811
O4	O	1.311919	0.592626	0.334189
O5	O	0.932433	0.083762	-0.052028
O6	O	1.432433	0.583762	0.447972
O7	O	0.919689	0.101605	-0.281433
O8	O	1.419689	0.601605	0.218567
O9	O	0.932416	-0.075901	-0.052025
O10	O	1.432416	0.424099	0.447975
O11	O	0.811903	-0.067036	-0.165808
O12	O	1.311903	0.432964	0.334192
O13	O	1.040186	-0.066921	-0.167647
O14	O	1.540186	0.433079	0.332353
Zn15	Zn	0.926042	-0.092328	-0.166727
Zn16	Zn	1.426042	0.407672	0.333273
Zn17	Zn	0.926064	0.118033	-0.166731
Zn18	Zn	1.426064	0.618033	0.333269
O19	O	0.919673	-0.058057	-0.281430
O20	O	1.419673	0.441943	0.218570
C21	C	0.782701	0.012615	-0.163443
C22	C	1.282701	0.512615	0.336557
C23	C	0.695665	0.012077	-0.156384
C24	C	1.195665	0.512077	0.343616
N25	N	0.926032	-0.235895	-0.166723
N26	N	1.426032	0.264105	0.333277
C27	C	0.645347	0.017374	-0.224500
C28	C	1.145347	0.517374	0.275500
C29	C	0.563568	0.016845	-0.217862
C30	C	1.063568	0.516845	0.282138
C31	C	0.532109	0.011024	-0.143107
C32	C	1.032109	0.511024	0.356893
C33	C	0.582434	0.005724	-0.074985
C34	C	1.082434	0.505724	0.425015
C35	C	0.664211	0.006246	-0.081624
C36	C	1.164211	0.506246	0.418376
C37	C	0.288542	0.008858	-0.115592
C38	C	0.788542	0.508858	0.384408
C39	C	0.206759	0.008339	-0.108958
C40	C	0.706759	0.508339	0.391042
C41	C	0.187898	0.019458	-0.251835
C42	C	0.687898	0.519458	0.248165
C43	C	0.269678	0.019986	-0.258468
C44	C	0.769678	0.519986	0.241532
C45	C	0.319996	0.014681	-0.190346
C46	C	0.819996	0.514681	0.309654
N47	N	0.448518	0.010486	-0.136320
N48	N	0.948518	0.510486	0.363680
N49	N	0.403585	0.015212	-0.197134
N50	N	0.903585	0.515212	0.302866
C51	C	0.872698	-0.684240	-0.217093
C52	C	1.372698	-0.184240	0.282907
C53	C	0.979450	-0.692057	-0.116365
C54	C	1.479450	-0.192057	0.383635
C55	C	0.979441	-0.591561	-0.116362
C56	C	1.479441	-0.091561	0.383638
C57	C	0.926060	-0.537400	-0.166726
C58	C	1.426060	-0.037400	0.333274
C59	C	0.872689	-0.583735	-0.217093
C60	C	1.372689	-0.083735	0.282907
C61	C	1.032817	-0.545219	-0.066001
C62	C	1.532817	-0.045219	0.433999
C63	C	1.032810	-0.444717	-0.065997
C64	C	1.532810	0.055283	0.434003
C65	C	0.979425	-0.390555	-0.116357
C66	C	1.479425	0.109445	0.383643
C67	C	0.926051	-0.436895	-0.166726
C68	C	1.426051	0.063105	0.333274
C69	C	0.872670	-0.382734	-0.217090
C70	C	1.372670	0.117266	0.282910
C71	C	0.819292	-0.429073	-0.267456
C72	C	1.319292	0.070927	0.232544
C73	C	0.819304	-0.529572	-0.267454
C74	C	1.319304	-0.029572	0.232546
C75	C	0.979413	-0.290056	-0.116359
C76	C	1.479413	0.209944	0.383641
C77	C	0.872661	-0.282229	-0.217091
C78	C	1.372661	0.217771	0.282909
C79	C	1.069404	0.013092	-0.170015
C80	C	1.569404	0.513092	0.329985
C81	C	1.156440	0.013637	-0.177074
C82	C	1.656440	0.513637	0.322926
C83	C	0.931942	0.001639	-0.022537
C84	C	1.431942	0.501639	0.477463
C85	C	0.930496	-0.005189	0.065332
C86	C	1.430496	0.494811	0.565332
N87	N	0.926079	0.261599	-0.166729
N88	N	1.426079	0.761599	0.333271
C89	C	0.920163	0.024068	-0.310921
C90	C	1.420163	0.524068	0.189079
C91	C	0.921609	0.030902	-0.398790
C92	C	1.421609	0.530902	0.101210
C93	C	0.922283	-0.052926	0.559941
C94	C	1.422283	0.447074	1.059941
C95	C	0.923649	-0.046515	0.477379
C96	C	1.423649	0.453485	0.977379
C97	C	0.924348	0.043725	0.436087
C98	C	1.424348	0.543725	0.936087
C99	C	0.923672	0.127559	0.477362
C100	C	1.423672	0.627559	0.977362
C101	C	0.922300	0.121147	0.559922
C102	C	1.422300	0.621147	1.059922
C103	C	0.928448	0.072233	0.189167
C104	C	1.428448	0.572233	0.689167
C105	C	0.929822	0.078639	0.106601
C106	C	1.429822	0.578639	0.606601
C107	C	0.929798	-0.095435	0.106623
C108	C	1.429798	0.404565	0.606623
C109	C	0.928431	-0.101839	0.189186
C110	C	1.428431	0.398161	0.689186
C111	C	0.927751	-0.018005	0.230453
C112	C	1.427751	0.481995	0.730453
N113	N	0.925747	0.050280	0.351696
N114	N	1.425747	0.550280	0.851696
N115	N	0.926346	-0.024561	0.314842
N116	N	1.426346	0.475439	0.814842
H117	H	0.670954	0.022114	-0.285374
H118	H	1.170954	0.522114	0.214626
H119	H	0.924210	-0.114776	0.443782
H120	H	1.424210	0.385224	0.943782
H121	H	0.927866	-0.175322	0.222800
H122	H	1.427866	0.324678	0.722800
H123	H	0.930390	0.152126	0.072984
H124	H	1.430390	0.652126	0.572984
C125	C	0.125734	0.083376	-0.018603
C126	C	0.625734	0.583376	0.481397
C127	C	0.172175	0.001936	-0.026782
C128	C	0.672175	0.501936	0.473218
H129	H	0.104387	0.079425	0.032128
H130	H	0.604387	0.579425	0.532128
H131	H	0.084070	0.086455	-0.058220
H132	H	0.584070	0.586455	0.441780
H133	H	0.157255	0.139480	-0.024156
H134	H	0.657255	0.639480	0.475844
H135	H	0.140653	-0.054167	-0.021235
H136	H	0.640653	0.445833	0.478765
H137	H	0.213845	-0.001152	0.012847
H138	H	0.713845	0.498848	0.512847
H139	H	0.556813	0.000971	-0.014118
H140	H	1.056813	0.500971	0.485882
H141	H	0.921747	0.189408	0.593522
H142	H	1.421747	0.689408	1.093522
H143	H	1.022915	-0.736157	-0.075364
H144	H	1.522915	-0.236157	0.424636
H145	H	0.146921	0.023776	-0.307296
H146	H	0.646921	0.523776	0.192704
C147	C	0.928682	0.244938	0.180845
C148	C	1.428682	0.744938	0.680845
C149	C	0.927752	0.164383	0.234524
C150	C	1.427752	0.664383	0.734524
H151	H	0.928271	0.301829	0.208852
H152	H	1.428271	0.801829	0.708852
H153	H	0.883507	0.244104	0.145512
H154	H	1.383507	0.744104	0.645512
H155	H	0.974906	0.243520	0.151776
H156	H	1.474906	0.743520	0.651776
H157	H	0.881525	0.165797	0.263590
H158	H	1.381525	0.665797	0.763590
H159	H	0.972931	0.165217	0.269872
H160	H	1.472931	0.665217	0.769872
C161	C	0.931883	-0.162903	-0.019926
C162	C	1.431883	0.337097	0.480074
C163	C	0.930535	-0.187581	0.061260
C164	C	1.430535	0.312419	0.561260
H165	H	0.932331	-0.219795	-0.047930
H166	H	1.432331	0.280205	0.452070
H167	H	0.977812	-0.126356	-0.030308
H168	H	1.477812	0.373644	0.469692
H169	H	0.886413	-0.125834	-0.036600
H170	H	1.386413	0.374166	0.463400
H171	H	0.976009	-0.224645	0.077936
H172	H	1.476009	0.275355	0.577936
H173	H	0.884602	-0.224144	0.071648
H174	H	1.384602	0.275856	0.571648
C175	C	0.765930	-0.168421	-0.227450
C176	C	1.265930	0.331579	0.272550
C177	C	0.813982	-0.222699	-0.272454
C178	C	1.313982	0.277301	0.227546
H179	H	0.729703	-0.131675	-0.261630
H180	H	1.229703	0.368325	0.238370
H181	H	0.797716	-0.126443	-0.197466
H182	H	1.297716	0.373557	0.302534
H183	H	0.737774	-0.210340	-0.192740
H184	H	1.237774	0.289660	0.307260
H185	H	0.842143	-0.180780	-0.307161
H186	H	1.342143	0.319220	0.192839
H187	H	0.782192	-0.264682	-0.302452
H188	H	1.282192	0.235318	0.197548
H189	H	0.329502	0.004537	-0.060122
H190	H	0.829502	0.504537	0.439878
C191	C	0.767166	-0.666403	-0.316651
C192	C	1.267166	-0.166403	0.183349
C193	C	0.814022	-0.735169	-0.272450
C194	C	1.314022	-0.235169	0.227550
H195	H	0.730938	-0.697847	-0.350821
H196	H	1.230938	-0.197847	0.149179
H197	H	0.799763	-0.624832	-0.347177
H198	H	1.299763	-0.124832	0.152823
H199	H	0.739011	-0.629904	-0.281930
H200	H	1.239011	-0.129904	0.218070
H201	H	0.842182	-0.771664	-0.307171
H202	H	1.342182	-0.271664	0.192829
H203	H	0.781421	-0.776757	-0.241921
H204	H	1.281421	-0.276757	0.258079
H205	H	1.076273	-0.406994	-0.024986
H206	H	1.576273	0.093006	0.475014
C207	C	0.925819	0.214680	0.350797
C208	C	1.425819	0.714680	0.850797
C209	C	0.924459	0.226753	0.431977
C210	C	1.424459	0.726753	0.931977
H211	H	0.926316	0.275921	0.322782
H212	H	1.426316	0.775921	0.822782
H213	H	0.880337	0.180246	0.334117
H214	H	1.380337	0.680246	0.834117
H215	H	0.971735	0.179700	0.340435
H216	H	1.471735	0.679700	0.840435
H217	H	0.878539	0.261728	0.442340
H218	H	1.378539	0.761728	0.942340
H219	H	0.969945	0.261202	0.448663
H220	H	1.469945	0.761202	0.948663
H221	H	1.022877	-0.252331	-0.075356
H222	H	1.522877	0.247669	0.424644
C223	C	0.802147	-0.307761	-0.373972
C224	C	1.302147	0.192239	0.126028
C225	C	0.760618	-0.369531	-0.322816
C226	C	1.260618	0.130469	0.177184
H227	H	0.765924	-0.270997	-0.408144
H228	H	1.265924	0.229003	0.091856
H229	H	0.834736	-0.344593	-0.404494
H230	H	1.334736	0.155407	0.095506
H231	H	0.833935	-0.265792	-0.343967
H232	H	1.333935	0.234208	0.156033
H233	H	0.728834	-0.411505	-0.352820
H234	H	1.228834	0.088495	0.147180
H235	H	0.728014	-0.332696	-0.292290
H236	H	1.228014	0.167304	0.207710
H237	H	0.921718	-0.126409	0.593555
H238	H	1.421718	0.373591	1.093555
C239	C	1.080220	-0.702749	-0.021276
C240	C	1.580220	-0.202749	0.478724
C241	C	1.091490	-0.604752	-0.010644
C242	C	1.591490	-0.104752	0.489356
H243	H	1.116441	-0.739504	0.012906
H244	H	1.616441	-0.239504	0.512906
H245	H	1.088672	-0.715064	-0.074582
H246	H	1.588672	-0.215064	0.425418
H247	H	1.027905	-0.720140	-0.009349
H248	H	1.527905	-0.220140	0.490651
H249	H	1.143804	-0.587359	-0.022577
H250	H	1.643804	-0.087359	0.477423
H251	H	1.083045	-0.592431	0.042674
H252	H	1.583045	-0.092431	0.542674
H253	H	0.522601	0.021160	-0.273330
H254	H	1.022601	0.521160	0.226670
H255	H	0.295285	0.024737	-0.319341
H256	H	0.795285	0.524737	0.180659
H257	H	0.705180	0.001933	-0.026156
H258	H	1.205180	0.501933	0.473844
H259	H	0.775845	-0.567308	-0.308461
H260	H	1.275845	-0.067308	0.191539
