data_functionalizedCrystal
_audit_creation_method	'MofGen! by Chris Wilmer'
_symmetry_space_group_name_H-M	'P1'
_symmetry_Int_Tables_number	1
_symmetry_cell_setting	triclinic
loop_
_symmetry_equiv_pos_as_xyz
  x,y,z
_cell_length_a	21.295417
_cell_length_b	12.759401
_cell_length_c	21.295412
_cell_angle_alpha	90.016179
_cell_angle_beta	89.968813
_cell_angle_gamma	89.968672
loop_
_atom_site_label
_atom_site_type_symbol
_atom_site_fract_x
_atom_site_fract_y
_atom_site_fract_z
Zn1	Zn	-0.250608	-1.606085	-0.355907
Zn2	Zn	-0.355877	-1.605947	-0.250632
Zn3	Zn	-0.250627	-1.430404	-0.250652
Zn4	Zn	-0.355845	-1.430328	-0.355865
O5	O	-0.303239	-1.518191	-0.303264
O6	O	-0.264578	-1.753088	-0.341951
O7	O	-0.341937	-1.582635	-0.162546
O8	O	-0.162535	-1.453798	-0.264641
O9	O	-0.341919	-1.752987	-0.264607
O10	O	-0.162521	-1.582870	-0.341971
O11	O	-0.264611	-1.453664	-0.162560
O12	O	-0.264579	-1.283372	-0.264600
O13	O	-0.341863	-1.453668	-0.443960
O14	O	-0.341882	-1.283317	-0.341899
O15	O	-0.264546	-1.582797	-0.443991
O16	O	-0.443962	-1.582562	-0.264565
O17	O	-0.443938	-1.453534	-0.341879
C18	C	-0.303230	-1.245224	-0.303247
C19	C	-0.303241	-1.128447	-0.303255
C20	C	-0.343553	-1.073583	-0.343440
C21	C	-0.343555	-0.963859	-0.343451
C22	C	-0.262930	-0.963872	-0.263086
C23	C	-0.262925	-1.073594	-0.263078
C24	C	-0.366150	-0.813939	-0.417658
C25	C	-0.406472	-0.759072	-0.457837
C26	C	-0.467906	-0.794640	-0.467385
C27	C	-0.489030	-0.885073	-0.436744
C28	C	-0.448712	-0.939935	-0.396560
C29	C	-0.387269	-0.904368	-0.387024
C30	C	-0.240337	-1.223516	-0.188871
C31	C	-0.200020	-1.278380	-0.148683
C32	C	-0.138585	-1.242814	-0.139128
C33	C	-0.117463	-1.152378	-0.169758
C34	C	-0.157779	-1.097514	-0.209946
C35	C	-0.219214	-1.133087	-0.219502
C36	C	-0.466791	-1.518053	-0.303229
C37	C	-0.536759	-1.518090	-0.303235
C38	C	-0.569617	-1.585335	-0.263019
C39	C	-0.635360	-1.585384	-0.263034
C40	C	-0.668242	-1.518170	-0.303257
C41	C	-0.635375	-1.450921	-0.343481
C42	C	-0.569634	-1.450881	-0.343470
N43	N	-0.771508	-1.426262	-0.308050
N44	N	-0.833960	-1.426303	-0.308057
C45	C	-0.866316	-1.518288	-0.303293
N46	N	-0.833862	-1.610232	-0.298510
N47	N	-0.771405	-1.610190	-0.298500
C48	C	-0.739527	-1.518206	-0.303274
C49	C	-0.970460	-1.585591	-0.263090
C50	C	-1.036204	-1.585642	-0.263109
C51	C	-1.036218	-1.451170	-0.343553
C52	C	-0.970476	-1.451129	-0.343538
C53	C	-0.937600	-1.518338	-0.303303
C54	C	-0.139049	-1.518358	-0.303313
C55	C	-0.069081	-1.518429	-0.303334
C56	C	-0.303199	-1.518239	-0.467454
C57	C	-0.303181	-1.518260	-0.537423
C58	C	-0.303248	-0.792224	-0.303277
C59	C	-0.303246	-0.909001	-0.303273
C60	C	-0.262823	-1.585597	-1.036898
C61	C	-0.262838	-1.585589	-0.971155
C62	C	-0.303098	-1.518351	-0.938262
C63	C	-0.343358	-1.451136	-0.971117
C64	C	-0.343346	-1.451153	-1.036858
N65	N	-0.307943	-1.426354	-0.835034
N66	N	-0.307950	-1.426340	-0.772582
C67	C	-0.303138	-1.518296	-0.740187
N68	N	-0.298304	-1.610268	-0.772603
N69	N	-0.298294	-1.610280	-0.835060
C70	C	-0.303116	-1.518325	-0.866977
C71	C	-0.262900	-1.585503	-0.636055
C72	C	-0.262920	-1.585497	-0.570311
C73	C	-0.343436	-1.451035	-0.570274
C74	C	-0.343420	-1.451050	-0.636016
C75	C	-0.303149	-1.518283	-0.668903
C76	C	-0.303234	-1.518203	-0.139713
C77	C	-0.303074	-1.518386	-0.069745
H78	H	-0.500736	-0.749959	-0.500101
H79	H	-0.376139	-1.396392	-0.944331
H80	H	-0.316123	-0.784979	-0.409894
H81	H	-0.542852	-1.640063	-0.230260
H82	H	-0.542880	-1.396122	-0.376219
H83	H	-0.376125	-1.396420	-1.063602
H84	H	-0.230033	-1.640348	-1.063670
H85	H	-0.389267	-0.685442	-0.482786
H86	H	-0.662152	-1.396197	-0.376232
H87	H	-0.230107	-0.919198	-0.230374
H88	H	-0.140575	-1.023881	-0.234891
H89	H	-0.230109	-1.640248	-0.662833
H90	H	-0.230144	-1.640236	-0.543568
H91	H	-0.662118	-1.640146	-0.230285
H92	H	-0.376379	-1.118241	-0.376156
H93	H	-0.376219	-1.396292	-0.543493
H94	H	-0.943692	-1.640320	-0.230331
H95	H	-0.376195	-1.396316	-0.662761
H96	H	-1.062956	-1.640407	-0.230362
H97	H	-0.539059	-0.914018	-0.444516
H98	H	-0.465911	-1.013563	-0.371612
H99	H	-0.943721	-1.396368	-0.376283
H100	H	-0.067442	-1.123407	-0.161969
H101	H	-0.105762	-1.287489	-0.106398
H102	H	-0.290360	-1.252489	-0.196652
H103	H	-0.217224	-1.352018	-0.123742
H104	H	-1.062990	-1.396448	-0.376307
H105	H	-0.230058	-1.640319	-0.944406
