data_functionalizedCrystal
_audit_creation_method	'MofGen! by Chris Wilmer'
_symmetry_space_group_name_H-M	'P1'
_symmetry_Int_Tables_number	1
_symmetry_cell_setting	triclinic
loop_
_symmetry_equiv_pos_as_xyz
  x,y,z
_cell_length_a	14.908571
_cell_length_b	12.759400
_cell_length_c	14.908308
_cell_angle_alpha	93.269141
_cell_angle_beta	90.175053
_cell_angle_gamma	86.710990
loop_
_atom_site_label
_atom_site_type_symbol
_atom_site_fract_x
_atom_site_fract_y
_atom_site_fract_z
Zn1	Zn	1.345342	-0.548282	-0.587598
Zn2	Zn	1.353936	-0.714462	-0.437243
Zn3	Zn	1.203655	-0.528102	-0.428595
Zn4	Zn	1.194964	-0.713214	-0.578895
O5	O	1.274474	-0.626015	-0.508083
O6	O	1.472309	-0.579294	-0.574915
O7	O	1.341235	-0.681818	-0.310271
O8	O	1.222491	-0.383762	-0.449711
O9	O	1.478623	-0.701385	-0.464450
O10	O	1.326587	-0.398588	-0.566529
O11	O	1.230825	-0.544900	-0.303918
O12	O	1.076676	-0.543690	-0.441272
O13	O	1.207677	-0.699258	-0.705874
O14	O	1.070290	-0.679690	-0.551696
O15	O	1.318160	-0.578083	-0.712269
O16	O	1.332807	-0.861313	-0.456011
O17	O	1.216011	-0.860396	-0.560082
C18	C	1.040857	-0.609366	-0.494601
C19	C	0.940914	-0.602270	-0.488855
C20	C	0.746517	-0.730752	-0.592888
C21	C	0.652611	-0.724088	-0.587492
C22	C	0.659193	-0.582274	-0.472673
C23	C	0.753099	-0.588938	-0.478069
C24	C	0.796758	-0.663180	-0.538177
C25	C	0.890666	-0.669848	-0.543568
C26	C	0.897246	-0.528030	-0.428754
C27	C	0.803340	-0.521366	-0.423358
C28	C	1.274422	-0.898977	-0.508061
C29	C	1.274480	-1.015760	-0.508087
C30	C	1.335356	-1.071073	-0.453964
C31	C	1.335410	-1.180802	-0.453995
C32	C	1.213704	-1.179896	-0.562273
C33	C	1.213655	-1.070169	-0.562246
C34	C	1.396181	-1.016664	-0.399805
C35	C	1.457061	-1.071977	-0.345677
C36	C	1.457115	-1.181707	-0.345708
C37	C	1.396289	-1.236123	-0.399867
C38	C	1.509003	-0.642730	-0.521618
C39	C	1.608946	-0.649853	-0.527386
C40	C	1.260990	-0.640783	-0.742609
C41	C	1.255244	-0.647076	-0.842550
C42	C	1.274550	-0.351990	-0.508126
C43	C	1.274582	-0.235216	-0.508144
C44	C	1.359489	-0.532697	-1.037009
C45	C	1.354093	-0.538607	-1.130913
C46	C	1.239052	-0.664798	-1.124262
C47	C	1.244448	-0.658888	-1.030358
C48	C	1.304670	-0.592837	-0.986735
C49	C	1.310070	-0.586934	-0.892830
C50	C	1.195025	-0.713119	-0.886181
C51	C	1.189629	-0.719028	-0.980085
C52	C	1.287957	-0.611233	-0.274473
C53	C	1.293878	-0.604656	-0.174542
H54	H	0.926211	-0.730302	-0.592510
C55	C	1.161050	-1.220118	-0.711968
C56	C	1.146843	-1.239710	-0.621796
H57	H	1.119774	-1.257050	-0.748713
H58	H	1.152303	-1.146861	-0.719694
H59	H	1.220705	-1.243174	-0.728653
H60	H	1.087189	-1.216646	-0.605109
H61	H	1.155582	-1.312982	-0.614065
C62	C	1.171038	-0.866103	-1.084949
C63	C	1.123438	-0.791632	-1.028040
H64	H	1.130174	-0.910930	-1.114548
H65	H	1.202904	-0.831127	-1.128326
H66	H	1.212310	-0.906767	-1.050562
H67	H	1.082170	-0.750962	-1.062427
H68	H	1.091558	-0.826610	-0.984656
C69	C	1.423231	-0.462783	-0.908839
C70	C	1.376259	-0.514327	-0.844877
H71	H	1.464088	-0.417951	-0.879234
H72	H	1.455511	-0.513308	-0.947440
H73	H	1.381946	-0.422118	-0.943212
H74	H	1.417544	-0.554998	-0.810508
H75	H	1.343977	-0.463795	-0.806260
C76	C	1.159548	-0.901559	-0.610279
C77	C	1.146739	-1.009358	-0.621737
H78	H	1.118241	-0.864020	-0.647014
H79	H	1.149899	-0.878888	-0.549101
H80	H	1.219189	-0.888661	-0.626967
H81	H	1.087100	-1.022258	-0.605042
H82	H	1.156381	-1.032037	-0.682928
C83	C	0.518156	-0.509039	-0.413481
C84	C	0.611191	-0.500633	-0.406642
H85	H	0.488523	-0.458629	-0.372721
H86	H	0.499338	-0.496522	-0.473041
H87	H	0.503513	-0.577666	-0.399304
H88	H	0.625835	-0.432008	-0.420825
H89	H	0.630016	-0.513142	-0.347068
C90	C	1.468352	-0.413287	-1.128050
C91	C	1.414357	-0.472504	-1.186175
H92	H	1.505560	-0.372481	-1.162169
H93	H	1.431289	-0.368007	-1.089174
H94	H	1.504837	-0.459216	-1.093400
H95	H	1.377866	-0.426575	-1.220821
H96	H	1.451423	-0.517788	-1.225067
C97	C	1.009770	-0.513099	-0.313889
C98	C	0.952473	-0.453748	-0.368610
H99	H	1.043867	-0.467242	-0.276762
H100	H	0.975102	-0.554033	-0.277330
H101	H	1.049211	-0.558260	-0.350466
H102	H	0.913028	-0.408592	-0.332032
H103	H	0.987145	-0.412795	-0.405172
H104	H	0.767781	-0.460918	-0.374422
C105	C	1.220439	-0.811850	-1.229148
C106	C	1.172851	-0.737381	-1.172228
H107	H	1.179566	-0.856658	-1.258757
H108	H	1.252314	-0.776873	-1.272517
H109	H	1.261701	-0.852536	-1.194767
H110	H	1.131594	-0.696690	-1.206609
H111	H	1.140961	-0.772361	-1.128853
C112	C	1.152212	-0.760098	-0.739282
C113	C	1.134760	-0.779229	-0.830917
H114	H	1.115006	-0.800910	-0.705167
H115	H	1.213501	-0.778808	-0.727383
H116	H	1.139950	-0.687602	-0.723149
H117	H	1.147029	-0.851724	-0.847053
H118	H	1.073458	-0.760526	-0.842822
H119	H	1.396142	-0.927316	-0.399771
H120	H	1.506590	-1.027666	-0.301588
H121	H	1.506693	-1.226741	-0.301642
H122	H	0.782065	-0.791208	-0.641826
H123	H	0.611708	-0.779110	-0.632045
H124	H	1.408528	-0.478921	-1.001491
H125	H	1.396344	-1.325473	-0.399895
