data_functionalizedCrystal
_audit_creation_method	'MofGen! by Chris Wilmer'
_symmetry_space_group_name_H-M	'P1'
_symmetry_Int_Tables_number	1
_symmetry_cell_setting	triclinic
loop_
_symmetry_equiv_pos_as_xyz
  x,y,z
_cell_length_a	16.120530
_cell_length_b	18.050589
_cell_length_c	16.120256
_cell_angle_alpha	87.122597
_cell_angle_beta	89.871735
_cell_angle_gamma	87.123928
loop_
_atom_site_label
_atom_site_type_symbol
_atom_site_fract_x
_atom_site_fract_y
_atom_site_fract_z
Zn1	Zn	1.247404	-0.376262	0.534589
Zn2	Zn	1.254344	-0.494483	0.395538
Zn3	Zn	1.115396	-0.363709	0.388506
Zn4	Zn	1.108300	-0.493803	0.527508
O5	O	1.181361	-0.432065	0.461535
O6	O	1.364690	-0.397483	0.522050
O7	O	1.241786	-0.472167	0.278239
O8	O	1.132972	-0.261454	0.407905
O9	O	1.369789	-0.484340	0.419890
O10	O	1.229958	-0.270677	0.515232
O11	O	1.139701	-0.376088	0.273073
O12	O	0.998089	-0.375428	0.401038
O13	O	1.120879	-0.483180	0.644814
O14	O	0.992875	-0.471007	0.503162
O15	O	1.223078	-0.396823	0.650016
O16	O	1.234905	-0.598314	0.413024
O17	O	1.127608	-0.597814	0.509981
C18	C	0.965310	-0.421782	0.450569
C19	C	0.872881	-0.417402	0.445898
C20	C	0.703652	-0.409388	0.437376
C21	C	0.659907	-0.454798	0.485756
C22	C	0.565742	-0.450339	0.481014
C23	C	0.797826	-0.413846	0.442116
C24	C	1.181261	-0.625011	0.461516
C25	C	1.181293	-0.707560	0.461540
C26	C	1.123000	-0.906767	0.514249
C27	C	1.106577	-0.951987	0.437343
C28	C	1.181374	-0.858694	0.461555
C29	C	1.197838	-0.960558	0.538472
C30	C	1.181451	-1.004684	0.461576
C31	C	1.164914	-0.902823	0.384607
C32	C	1.256206	-0.911394	0.485789
C33	C	1.239815	-0.956591	0.408832
C34	C	1.181328	-0.774593	0.461544
C35	C	1.181498	-1.088783	0.461579
C36	C	1.398256	-0.442388	0.472545
C37	C	1.490683	-0.446787	0.477236
C38	C	1.170413	-0.441326	0.678431
C39	C	1.165747	-0.445273	0.770859
C40	C	1.181483	-0.238366	0.461574
C41	C	1.181535	-0.155823	0.461590
C42	C	1.192314	-0.422788	0.245486
C43	C	1.197141	-0.418639	0.153067
C44	C	1.205689	-0.411464	0.983841
C45	C	1.157201	-0.452447	0.940079
C46	C	1.161958	-0.448454	0.845916
C47	C	1.200934	-0.415455	1.078013
H48	H	1.073570	-0.884892	0.558741
H49	H	1.043330	-0.969982	0.416864
H50	H	0.693175	-0.497023	0.530737
C51	C	0.658713	-0.352352	0.376609
C52	C	0.597181	-0.292873	0.409803
C53	C	0.552229	-0.235840	0.349036
C54	C	0.568809	-0.238286	0.255074
C55	C	0.630345	-0.297767	0.221875
C56	C	0.675297	-0.354800	0.282643
H57	H	0.584905	-0.291060	0.479364
H58	H	0.506677	-0.191807	0.373613
H59	H	0.535533	-0.196067	0.210091
H60	H	0.642621	-0.299580	0.152315
H61	H	0.720849	-0.398833	0.258066
C62	C	1.266598	-0.360021	0.938924
C63	C	1.259292	-0.275765	0.950406
C64	C	1.320202	-0.224326	0.905477
C65	C	1.388418	-0.257143	0.849065
C66	C	1.395726	-0.341404	0.837580
C67	C	1.334816	-0.392843	0.882510
H68	H	1.208792	-0.251467	0.992168
H69	H	1.314791	-0.161950	0.913979
H70	H	1.433507	-0.219065	0.815806
H71	H	1.446226	-0.365702	0.795819
H72	H	1.340227	-0.455218	0.874007
H73	H	1.150945	-0.877689	0.319546
C74	C	1.096287	-0.503892	0.984995
C75	C	1.040110	-0.551365	0.934385
C76	C	0.979194	-0.602805	0.979304
C77	C	0.974456	-0.606772	1.074834
C78	C	1.030635	-0.559298	1.125450
C79	C	1.091551	-0.507858	1.080530
H80	H	1.043615	-0.548429	0.863664
H81	H	0.937607	-0.637948	0.941835
H82	H	0.929363	-0.644851	1.108086
H83	H	1.027130	-0.562233	1.196171
H84	H	1.133138	-0.472714	1.118000
H85	H	1.319438	-0.893402	0.506303
C86	C	1.306544	-0.985967	0.348574
C87	C	1.301903	-0.961929	0.255615
C88	C	1.368624	-0.991311	0.195355
C89	C	1.439986	-1.044731	0.228053
C90	C	1.444630	-1.068771	0.321017
C91	C	1.377909	-1.039389	0.381277
H92	H	1.249074	-0.922383	0.231406
H93	H	1.365186	-0.973515	0.126537
H94	H	1.489376	-1.066481	0.183445
H95	H	1.497458	-1.108318	0.345226
H96	H	1.381347	-1.057185	0.450095
H97	H	1.211732	-0.985778	0.603511
