data_functionalizedCrystal
_audit_creation_method	'MofGen! by Chris Wilmer'
_symmetry_space_group_name_H-M	'P1'
_symmetry_Int_Tables_number	1
_symmetry_cell_setting	triclinic
loop_
_symmetry_equiv_pos_as_xyz
  x,y,z
_cell_length_a	10.685980
_cell_length_b	10.685194
_cell_length_c	19.076919
_cell_angle_alpha	87.724484
_cell_angle_beta	87.728183
_cell_angle_gamma	98.380820
loop_
_atom_site_label
_atom_site_type_symbol
_atom_site_fract_x
_atom_site_fract_y
_atom_site_fract_z
Zn1	Zn	1.865929	-0.392666	-0.461050
Zn2	Zn	1.859448	-0.595078	-0.334425
Zn3	Zn	1.663546	-0.399088	-0.334430
Zn4	Zn	1.638919	-0.619629	-0.441589
O5	O	1.756961	-0.501615	-0.392873
O6	O	2.042059	-0.406554	-0.452395
O7	O	1.841056	-0.561493	-0.236586
O8	O	1.703411	-0.221228	-0.359372
O9	O	2.037297	-0.555266	-0.359365
O10	O	1.852101	-0.216510	-0.452400
O11	O	1.697127	-0.417500	-0.236589
O12	O	1.483290	-0.441305	-0.340502
O13	O	1.661438	-0.597109	-0.542010
O14	O	1.465197	-0.603336	-0.419232
O15	O	1.828221	-0.430360	-0.556308
O16	O	1.817176	-0.775343	-0.340495
O17	O	1.655155	-0.793380	-0.419228
C18	C	1.428352	-0.525683	-0.377756
C19	C	1.287768	-0.536011	-0.371304
C20	C	1.732823	-0.830256	-0.377766
C21	C	1.722611	-0.970844	-0.371331
C22	C	2.086853	-0.477455	-0.408050
C23	C	2.227433	-0.467159	-0.414518
C24	C	1.742806	-0.515756	-0.575237
C25	C	1.736774	-0.521782	-0.652950
C26	C	1.781226	-0.171690	-0.408057
C27	C	1.791566	-0.031095	-0.414528
C28	C	1.820770	-0.437800	-0.696904
C29	C	1.815087	-0.443458	-0.769923
C30	C	1.725413	-0.533106	-0.798986
C31	C	1.641408	-0.617092	-0.755026
C32	C	1.647086	-0.611427	-0.682008
C33	C	1.699115	-0.559353	-1.016565
C34	C	1.693446	-0.565015	-1.089588
C35	C	1.867125	-0.391379	-1.104480
C36	C	1.872800	-0.385726	-1.031461
C37	C	1.788791	-0.469708	-0.987507
N38	N	1.719605	-0.538895	-0.873622
N39	N	1.794594	-0.463913	-0.912872
C40	C	1.771140	-0.487433	-0.211227
C41	C	1.777443	-0.481032	-0.133542
H42	H	1.283330	-0.400303	-0.456450
Cl43	Cl	1.201468	-0.639223	-0.306551
H44	H	1.630726	-0.627754	-0.980786
H45	H	1.945826	-0.312729	-1.007803
Cl46	Cl	1.894782	-0.944685	-0.479233
H47	H	1.655745	-1.026821	-0.329426
H48	H	1.620419	-0.638020	-1.113248
H49	H	1.568389	-0.690081	-0.778694
H50	H	1.893796	-0.364803	-0.673247
H51	H	1.883489	-0.375074	-0.805708
H52	H	1.935520	-0.323004	-1.140274
H53	H	1.578675	-0.679802	-0.646221
