data_functionalizedCrystal
_audit_creation_method	'MofGen! by Chris Wilmer'
_symmetry_space_group_name_H-M	'P1'
_symmetry_Int_Tables_number	1
_symmetry_cell_setting	triclinic
loop_
_symmetry_equiv_pos_as_xyz
  x,y,z
_cell_length_a	23.532407
_cell_length_b	23.532361
_cell_length_c	18.266242
_cell_angle_alpha	90.004761
_cell_angle_beta	90.014850
_cell_angle_gamma	82.839208
loop_
_atom_site_label
_atom_site_type_symbol
_atom_site_fract_x
_atom_site_fract_y
_atom_site_fract_z
O1	O	0.069009	0.755280	0.060821
O2	O	0.402343	1.088614	0.394154
O3	O	0.735676	1.421947	0.727488
O4	O	0.079040	0.589413	0.060840
O5	O	0.412374	0.922747	0.394174
O6	O	0.745707	1.256080	0.727507
O7	O	-0.008908	0.677348	0.060809
O8	O	0.324426	1.010682	0.394143
O9	O	0.657759	1.344015	0.727476
O10	O	0.156957	0.667345	0.060852
O11	O	0.490291	1.000678	0.394185
O12	O	0.823624	1.334012	0.727518
O13	O	-0.008912	0.677334	-0.060953
O14	O	0.324421	1.010667	0.272381
O15	O	0.657755	1.344000	0.605714
O16	O	0.079036	0.589398	-0.060922
O17	O	0.412369	0.922732	0.272412
O18	O	0.745703	1.256065	0.605745
O19	O	0.069005	0.755266	-0.060941
O20	O	0.402338	1.088599	0.272392
O21	O	0.735672	1.421932	0.605726
Zn22	Zn	0.074020	0.672330	-0.080264
Zn23	Zn	0.407353	1.005663	0.253070
Zn24	Zn	0.740686	1.338996	0.586403
Zn25	Zn	0.074026	0.672349	0.080163
Zn26	Zn	0.407359	1.005683	0.413496
Zn27	Zn	0.740692	1.339016	0.746830
O28	O	0.156953	0.667330	-0.060910
O29	O	0.490286	1.000664	0.272423
O30	O	0.823620	1.333997	0.605756
C31	C	0.078787	0.568189	-0.000039
C32	C	0.412120	0.901523	0.333295
C33	C	0.745454	1.234856	0.666628
C34	C	0.078032	0.504971	-0.000032
C35	C	0.411365	0.838304	0.333301
C36	C	0.744698	1.171638	0.666635
C37	C	-0.030126	0.677086	-0.000075
C38	C	0.303207	1.010420	0.333258
C39	C	0.636541	1.343753	0.666591
C40	C	-0.093343	0.676320	-0.000086
C41	C	0.239991	1.009654	0.333247
C42	C	0.573324	1.342987	0.666580
C43	C	0.074731	0.231735	0.066335
C44	C	0.408064	0.565069	0.399668
C45	C	0.741397	0.898402	0.733002
C46	C	0.075446	0.291135	0.066337
C47	C	0.408779	0.624468	0.399670
C48	C	0.742112	0.957802	0.733004
O49	O	0.075798	0.321868	0.122783
O50	O	0.409131	0.655201	0.456117
O51	O	0.742464	0.988534	0.789450
N52	N	0.075804	0.320833	-0.000035
N53	N	0.409138	0.654166	0.333298
N54	N	0.742471	0.987499	0.666631
C55	C	0.075442	0.291128	-0.066414
C56	C	0.408776	0.624461	0.266919
C57	C	0.742109	0.957795	0.600252
O58	O	0.075813	0.321843	-0.122869
O59	O	0.409146	0.655176	0.210464
O60	O	0.742479	0.988509	0.543797
C61	C	0.074723	0.231730	-0.066416
C62	C	0.408057	0.565063	0.266918
C63	C	0.741390	0.898397	0.600251
C64	C	0.074370	0.202035	-0.000039
C65	C	0.407704	0.535368	0.333295
C66	C	0.741037	0.868701	0.666628
C67	C	0.074377	0.202040	0.132707
C68	C	0.407710	0.535373	0.466040
C69	C	0.741044	0.868707	0.799373
C70	C	0.073663	0.142644	0.132704
C71	C	0.406997	0.475977	0.466038
C72	C	0.740330	0.809311	0.799371
C73	C	0.073303	0.112944	0.066331
C74	C	0.406636	0.446277	0.399664
C75	C	0.739970	0.779610	0.732997
C76	C	0.073657	0.142639	-0.000041
C77	C	0.406990	0.475972	0.333292
C78	C	0.740323	0.809306	0.666626
C79	C	0.074357	0.202027	-0.132794
C80	C	0.407690	0.535360	0.200539
C81	C	0.741024	0.868694	0.533873
C82	C	0.073638	0.142625	-0.132789
C83	C	0.406971	0.475958	0.200544
C84	C	0.740304	0.809292	0.533877
C85	C	0.073285	0.112930	-0.066412
C86	C	0.406618	0.446263	0.266921
C87	C	0.739951	0.779596	0.600254
C88	C	0.072582	0.053543	-0.066417
C89	C	0.405916	0.386876	0.266916
C90	C	0.739249	0.720209	0.600250
N91	N	0.072224	0.023845	-0.000044
N92	N	0.405557	0.357178	0.333289
N93	N	0.738890	0.690512	0.666622
C94	C	0.072584	0.053545	0.066329
C95	C	0.405917	0.386879	0.399663
C96	C	0.739251	0.720212	0.732996
C97	C	0.076951	0.415868	-0.066407
C98	C	0.410285	0.749202	0.266927
C99	C	0.743618	1.082535	0.600260
C100	C	0.077674	0.475265	-0.066406
C101	C	0.411008	0.808598	0.266927
C102	C	0.744341	1.141931	0.600260
C103	C	0.077677	0.475268	0.066345
C104	C	0.411010	0.808601	0.399679
C105	C	0.744343	1.141934	0.733012
C106	C	0.076958	0.415870	0.066344
C107	C	0.410291	0.749203	0.399678
C108	C	0.743624	1.082536	0.733011
C109	C	0.076592	0.386171	-0.000034
C110	C	0.409926	0.719504	0.333299
C111	C	0.743259	1.052837	0.666632
C112	C	0.071085	-0.071190	0.066320
C113	C	0.404419	0.262143	0.399653
C114	C	0.737752	0.595477	0.732986
C115	C	0.070374	-0.130591	0.066312
C116	C	0.403707	0.202742	0.399645
C117	C	0.737041	0.536075	0.732978
C118	C	0.070369	-0.130589	-0.066440
C119	C	0.403702	0.202745	0.266893
C120	C	0.737035	0.536078	0.600227
C121	C	0.071083	-0.071193	-0.066432
C122	C	0.404417	0.262140	0.266901
C123	C	0.737750	0.595474	0.600234
C124	C	0.071440	-0.041495	-0.000046
C125	C	0.404773	0.291838	0.333287
C126	C	0.738106	0.625172	0.666620
O127	O	0.072228	0.022772	-0.122834
O128	O	0.405561	0.356106	0.210499
O129	O	0.738894	0.689439	0.543832
O130	O	0.072206	0.022825	0.122775
O131	O	0.405539	0.356158	0.456108
O132	O	0.738873	0.689491	0.789442
C133	C	-0.359501	0.621124	-0.000034
C134	C	-0.026168	0.954457	0.333299
C135	C	0.307166	1.287790	0.666633
C136	C	-0.300101	0.621835	-0.000040
C137	C	0.033232	0.955169	0.333294
C138	C	0.366566	1.288502	0.666627
O139	O	-0.263349	0.578048	-0.000011
O140	O	0.069984	0.911382	0.333322
O141	O	0.403318	1.244715	0.666655
N142	N	-0.277483	0.674113	-0.000054
N143	N	0.055850	1.007446	0.333279
N144	N	0.389183	1.340779	0.666612
C145	C	-0.314270	0.725682	-0.000056
C146	C	0.019064	1.059015	0.333278
C147	C	0.352397	1.392349	0.666611
O148	O	-0.289577	0.770214	-0.000068
O149	O	0.043756	1.103547	0.333265
O150	O	0.377089	1.436880	0.666599
C151	C	-0.373669	0.724970	-0.000045
C152	C	-0.040335	1.058303	0.333289
C153	C	0.292998	1.391637	0.666622
C154	C	-0.396282	0.672689	-0.000038
C155	C	-0.062949	1.006023	0.333296
C156	C	0.270384	1.339356	0.666629
C157	C	-0.382116	0.568847	-0.000026
C158	C	-0.048782	0.902180	0.333307
C159	C	0.284551	1.235514	0.666641
C160	C	-0.441512	0.568136	-0.000022
C161	C	-0.108178	0.901469	0.333312
C162	C	0.225155	1.234803	0.666645
C163	C	-0.478293	0.619701	-0.000025
C164	C	-0.144960	0.953035	0.333308
C165	C	0.188374	1.286368	0.666641
C166	C	-0.455678	0.671978	-0.000033
C167	C	-0.122345	1.005311	0.333300
C168	C	0.210988	1.338645	0.666633
C169	C	-0.410454	0.776539	-0.000041
C170	C	-0.077120	1.109872	0.333292
C171	C	0.256213	1.443206	0.666626
C172	C	-0.469856	0.775822	-0.000029
C173	C	-0.136523	1.109156	0.333304
C174	C	0.196811	1.442489	0.666637
C175	C	-0.492470	0.723541	-0.000022
C176	C	-0.159137	1.056875	0.333311
C177	C	0.174197	1.390208	0.666644
C178	C	-0.551856	0.722832	-0.000033
C179	C	-0.218523	1.056166	0.333301
C180	C	0.114811	1.389499	0.666634
N181	N	-0.574473	0.670555	-0.000018
N182	N	-0.241140	1.003888	0.333315
N183	N	0.092193	1.337221	0.666649
C184	C	-0.537692	0.618989	-0.000014
C185	C	-0.204359	0.952323	0.333319
C186	C	0.128975	1.285656	0.666652
C187	C	-0.189527	0.727174	-0.000077
C188	C	0.143806	1.060507	0.333256
C189	C	0.477139	1.393840	0.666589
C190	C	-0.130129	0.727886	-0.000094
C191	C	0.203204	1.061220	0.333240
C192	C	0.536537	1.394553	0.666573
C193	C	-0.115965	0.624039	-0.000076
C194	C	0.217368	0.957372	0.333257
C195	C	0.550702	1.290706	0.666590
C196	C	-0.175364	0.623327	-0.000065
C197	C	0.157970	0.956660	0.333268
C198	C	0.491303	1.289994	0.666601
C199	C	-0.212145	0.674896	-0.000063
C200	C	0.121189	1.008229	0.333270
C201	C	0.454522	1.341563	0.666604
C202	C	-0.662429	0.617500	-0.000006
C203	C	-0.329095	0.950833	0.333327
C204	C	0.004238	1.284166	0.666661
C205	C	-0.721830	0.616793	-0.000005
C206	C	-0.388497	0.950126	0.333329
C207	C	-0.055164	1.283460	0.666662
C208	C	-0.735990	0.720640	-0.000018
C209	C	-0.402657	1.053973	0.333315
C210	C	-0.069323	1.387306	0.666649
C211	C	-0.676593	0.721347	-0.000023
C212	C	-0.343260	1.054680	0.333310
C213	C	-0.009927	1.388013	0.666643
C214	C	-0.639813	0.669772	-0.000015
C215	C	-0.306480	1.003105	0.333319
C216	C	0.026853	1.336439	0.666652
O217	O	-0.588643	0.766596	-0.000058
O218	O	-0.255309	1.099929	0.333275
O219	O	0.078024	1.433263	0.666609
O220	O	-0.562393	0.574465	0.000007
O221	O	-0.229059	0.907799	0.333341
O222	O	0.104274	1.241132	0.666674
C223	C	0.178171	0.667592	-0.000024
C224	C	0.511505	1.000926	0.333309
C225	C	0.844838	1.334259	0.666643
C226	C	0.241388	0.668358	-0.000008
C227	C	0.574721	1.001692	0.333325
C228	C	0.908055	1.335025	0.666658
C229	C	0.069258	0.776490	-0.000061
C230	C	0.402592	1.109823	0.333273
C231	C	0.735925	1.443156	0.666606
C232	C	0.070014	0.839708	-0.000062
C233	C	0.403347	1.173041	0.333271
C234	C	0.736680	1.506375	0.666604
N235	N	0.074015	0.672321	-0.189751
N236	N	0.407349	1.005654	0.143583
N237	N	0.740682	1.338987	0.476916
C238	C	0.035091	0.711271	-0.228073
C239	C	0.368424	1.044604	0.105260
C240	C	0.701758	1.377938	0.438593
C241	C	0.035088	0.711274	-0.304718
C242	C	0.368422	1.044608	0.028615
C243	C	0.701755	1.377941	0.361949
C244	C	0.074020	0.672333	-0.343038
C245	C	0.407353	1.005667	-0.009704
C246	C	0.740686	1.339000	0.323629
C247	C	0.112947	0.633376	-0.304706
C248	C	0.446281	0.966709	0.028628
C249	C	0.779614	1.300042	0.361961
C250	C	0.112945	0.633369	-0.228062
C251	C	0.446278	0.966703	0.105271
C252	C	0.779612	1.300036	0.438604
N253	N	0.124456	0.664799	-0.463357
N254	N	0.457789	0.998132	-0.130023
N255	N	0.791123	1.331466	0.203310
N256	N	0.124456	0.664808	-0.536165
N257	N	0.457790	0.998142	-0.202831
N258	N	0.791123	1.331475	0.130502
C259	C	0.074028	0.672349	-0.573960
C260	C	0.407361	1.005682	-0.240627
C261	C	0.740695	1.339016	0.092707
N262	N	0.023598	0.679891	-0.536197
N263	N	0.356931	1.013225	-0.202863
N264	N	0.690264	1.346558	0.130470
N265	N	0.023598	0.679885	-0.463382
N266	N	0.356931	1.013218	-0.130049
N267	N	0.690265	1.346551	0.203285
C268	C	0.074026	0.672335	-0.426145
C269	C	0.407360	1.005669	-0.092811
C270	C	0.740693	1.339002	0.240522
C271	C	0.035097	0.711306	-0.695390
C272	C	0.368431	1.044639	-0.362056
C273	C	0.701764	1.377972	-0.028723
C274	C	0.035094	0.711305	-0.772036
C275	C	0.368427	1.044639	-0.438703
C276	C	0.701761	1.377972	-0.105369
C277	C	0.112958	0.633409	-0.772022
C278	C	0.446291	0.966742	-0.438689
C279	C	0.779625	1.300076	-0.105356
C280	C	0.112956	0.633407	-0.695377
C281	C	0.446290	0.966740	-0.362044
C282	C	0.779623	1.300073	-0.028711
C283	C	0.074027	0.672358	-0.657066
C284	C	0.407360	1.005691	-0.323732
C285	C	0.740693	1.339025	0.009601
N286	N	0.074025	0.672363	0.189650
N287	N	0.407359	1.005696	0.522983
N288	N	0.740692	1.339030	0.856317
H289	H	0.071376	-0.047017	0.120377
H290	H	0.404710	0.286316	0.453711
H291	H	0.738043	0.619650	0.787044
O292	O	0.076573	0.383840	0.137933
O293	O	0.409906	0.717173	0.471267
O294	O	0.743239	1.050507	0.804600
H295	H	0.037423	0.362078	0.141093
H296	H	0.370757	0.695412	0.474427
H297	H	0.704090	1.028745	0.807760
H298	H	0.077971	0.499436	-0.120457
H299	H	0.411304	0.832770	0.212876
H300	H	0.744638	1.166103	0.546209
H301	H	0.003390	0.742994	-0.335926
H302	H	0.336723	1.076327	-0.002593
H303	H	0.670057	1.409660	0.330741
H304	H	0.071382	-0.047015	-0.120482
H305	H	0.404715	0.286318	0.212852
H306	H	0.738049	0.619651	0.546185
H307	H	0.144645	0.601668	-0.335909
H308	H	0.477978	0.935001	-0.002576
H309	H	0.811312	1.268335	0.330757
H310	H	-0.765948	0.762623	-0.000024
H311	H	-0.432615	1.095956	0.333309
H312	H	-0.099281	1.429290	0.666642
O313	O	-0.006887	0.753326	-0.813369
O314	O	0.326446	1.086659	-0.480035
O315	O	0.659779	1.419992	-0.146702
H316	H	-0.051250	0.746335	-0.798671
H317	H	0.282083	1.079668	-0.465337
H318	H	0.615416	1.413001	-0.132004
H319	H	0.003397	0.743020	-0.664195
H320	H	0.336730	1.076354	-0.330862
H321	H	0.670063	1.409687	0.002472
H322	H	-0.352173	0.526854	-0.000021
H323	H	-0.018840	0.860187	0.333313
H324	H	0.314494	1.193521	0.666646
O325	O	-0.105745	0.784277	-0.000111
O326	O	0.227588	1.117610	0.333222
O327	O	0.560921	1.450943	0.666555
H328	H	-0.058262	0.776115	-0.000120
H329	H	0.275072	1.109449	0.333213
H330	H	0.608405	1.442782	0.666546
H331	H	0.003391	0.742986	-0.196882
H332	H	0.336724	1.076319	0.136451
H333	H	0.670058	1.409653	0.469785
O334	O	0.154934	0.591361	-0.186721
O335	O	0.488267	0.924695	0.146612
O336	O	0.821600	1.258028	0.479946
H337	H	0.182008	0.564284	-0.226240
H338	H	0.515341	0.897617	0.107093
H339	H	0.848675	1.230951	0.440427
H340	H	-0.086006	0.582052	-0.000074
H341	H	0.247327	0.915385	0.333259
H342	H	0.580660	1.248718	0.666593
H343	H	0.144655	0.601692	-0.664173
H344	H	0.477988	0.935025	-0.330840
H345	H	0.811321	1.268358	0.002494
O346	O	0.076620	0.383758	-0.137953
O347	O	0.409953	0.717091	0.195381
O348	O	0.743286	1.050425	0.528714
H349	H	0.037956	0.400391	-0.169873
H350	H	0.371289	0.733724	0.163460
H351	H	0.704623	1.067058	0.496793
H352	H	0.070088	-0.154767	0.120366
H353	H	0.403422	0.178566	0.453699
H354	H	0.736755	0.511900	0.787033
O355	O	0.154952	0.591407	-0.813340
O356	O	0.488285	0.924740	-0.480006
O357	O	0.821619	1.258074	-0.146673
H358	H	0.148417	0.597957	-0.873074
H359	H	0.481751	0.931290	-0.539741
H360	H	0.815084	1.264623	-0.206407
H361	H	-0.219472	0.769170	-0.000081
H362	H	0.113861	1.102503	0.333253
H363	H	0.447195	1.435837	0.666586
O364	O	0.070357	-0.162678	-0.138026
O365	O	0.403690	0.170655	0.195307
O366	O	0.737024	0.503988	0.528641
H367	H	0.069933	-0.208987	-0.126869
H368	H	0.403266	0.124346	0.206464
H369	H	0.736599	0.457679	0.539798
O370	O	-0.199755	0.566940	-0.000056
O371	O	0.133578	0.900273	0.333278
O372	O	0.466912	1.233607	0.666611
H373	H	-0.184944	0.542187	0.049576
H374	H	0.148389	0.875521	0.382909
H375	H	0.481723	1.208854	0.716243
O376	O	0.073251	0.110623	0.204297
O377	O	0.406584	0.443956	0.537630
O378	O	0.739918	0.777289	0.870963
H379	H	0.073607	0.141264	0.250444
H380	H	0.406940	0.474598	0.583778
H381	H	0.740273	0.807931	0.917111
H382	H	0.074669	0.226216	0.186759
H383	H	0.408002	0.559549	0.520093
H384	H	0.741335	0.892883	0.853426
O385	O	-0.386071	0.832928	-0.000031
O386	O	-0.052737	1.166261	0.333303
O387	O	0.280596	1.499594	0.666636
H388	H	-0.421635	0.868659	-0.000017
H389	H	-0.088302	1.201992	0.333317
H390	H	0.245032	1.535325	0.666650
H391	H	-0.499801	0.817817	-0.000023
H392	H	-0.166468	1.151150	0.333310
H393	H	0.166866	1.484484	0.666643
H394	H	0.077970	0.499461	0.120391
H395	H	0.411303	0.832794	0.453724
H396	H	0.744636	1.166127	0.787057
O397	O	-0.652196	0.777733	-0.000033
O398	O	-0.318863	1.111066	0.333300
O399	O	0.014471	1.444400	0.666633
H400	H	-0.687754	0.813470	-0.000032
H401	H	-0.354421	1.146803	0.333301
H402	H	-0.021088	1.480136	0.666635
H403	H	0.074643	0.226195	-0.186845
H404	H	0.407976	0.559528	0.146488
H405	H	0.741309	0.892862	0.479821
H406	H	0.073345	0.118447	-0.186844
H407	H	0.406679	0.451780	0.146489
H408	H	0.740012	0.785113	0.479823
O409	O	-0.746223	0.560403	0.000005
O410	O	-0.412889	0.893736	0.333338
O411	O	-0.079556	1.227069	0.666672
H412	H	-0.710663	0.524667	0.000015
H413	H	-0.377330	0.858000	0.333348
H414	H	-0.043996	1.191334	0.666681
H415	H	-0.632489	0.575502	0.000001
H416	H	-0.299155	0.908836	0.333335
H417	H	0.034178	1.242169	0.666668
O418	O	-0.465900	0.511747	-0.000008
O419	O	-0.132566	0.845081	0.333326
O420	O	0.200767	1.178414	0.666659
H421	H	-0.430337	0.476015	0.000001
H422	H	-0.097003	0.809349	0.333334
H423	H	0.236330	1.142682	0.666667
