data_functionalizedCrystal
_audit_creation_method	'MofGen! by Chris Wilmer'
_symmetry_space_group_name_H-M	'P1'
_symmetry_Int_Tables_number	1
_symmetry_cell_setting	triclinic
loop_
_symmetry_equiv_pos_as_xyz
  x,y,z
_cell_length_a	18.050589
_cell_length_b	16.120542
_cell_length_c	16.120256
_cell_angle_alpha	89.872789
_cell_angle_beta	92.877403
_cell_angle_gamma	92.880229
loop_
_atom_site_label
_atom_site_type_symbol
_atom_site_fract_x
_atom_site_fract_y
_atom_site_fract_z
Zn1	Zn	-0.376345	-1.247408	-0.534617
Zn2	Zn	-0.494566	-1.254347	-0.395566
Zn3	Zn	-0.363783	-1.115399	-0.388531
Zn4	Zn	-0.493876	-1.108303	-0.527532
O5	O	-0.432142	-1.181364	-0.461561
O6	O	-0.397573	-1.364694	-0.522081
O7	O	-0.472249	-1.241789	-0.278267
O8	O	-0.261528	-1.132976	-0.407930
O9	O	-0.484430	-1.369793	-0.419920
O10	O	-0.270758	-1.229962	-0.515259
O11	O	-0.376163	-1.139705	-0.273098
O12	O	-0.375494	-0.998092	-0.401060
O13	O	-0.483254	-1.120882	-0.644838
O14	O	-0.471073	-0.992878	-0.503184
O15	O	-0.396904	-1.223081	-0.650043
O16	O	-0.598395	-1.234909	-0.413051
O17	O	-0.597888	-1.127611	-0.510006
C18	C	-0.421846	-0.965313	-0.450591
C19	C	-0.417460	-0.872884	-0.445917
C20	C	-0.454871	-0.659919	-0.485759
C21	C	-0.409458	-0.703660	-0.437383
C22	C	-0.413912	-0.797825	-0.442133
C23	C	-0.450419	-0.565745	-0.481011
C24	C	-0.625089	-1.181265	-0.461543
C25	C	-0.707637	-1.181297	-0.461566
C26	C	-0.906841	-1.123004	-0.514274
C27	C	-0.952060	-1.106581	-0.437367
C28	C	-0.858772	-1.181378	-0.461581
C29	C	-0.960637	-1.197841	-0.538498
C30	C	-1.004762	-1.181454	-0.461602
C31	C	-0.902900	-1.164917	-0.384633
C32	C	-0.911477	-1.256210	-0.485816
C33	C	-0.956673	-1.239819	-0.408859
C34	C	-0.774671	-1.181332	-0.461570
C35	C	-1.088860	-1.181501	-0.461605
C36	C	-0.238444	-1.181486	-0.461600
C37	C	-0.155901	-1.181538	-0.461616
C38	C	-0.441403	-1.170416	-0.678457
C39	C	-0.445350	-1.165751	-0.770885
C40	C	-0.442475	-0.398260	-0.472564
C41	C	-0.446867	-0.490690	-0.477223
C42	C	-0.411543	-1.205693	-0.983868
C43	C	-0.452523	-1.157205	-0.940105
C44	C	-0.448530	-1.161961	-0.845942
C45	C	-0.415534	-1.200937	-1.078039
C46	C	-0.422866	-1.192318	-0.245512
C47	C	-0.418718	-1.197144	-0.153093
H48	H	-0.497091	-0.693188	-0.530738
C49	C	-0.897614	-0.978004	-0.548760
C50	C	-0.877298	-1.056279	-0.574333
H51	H	-0.879369	-0.936811	-0.585833
H52	H	-0.950198	-0.977244	-0.548816
H53	H	-0.877041	-0.966866	-0.494291
H54	H	-0.897875	-1.067420	-0.628801
H55	H	-0.824703	-1.057040	-0.574286
H56	H	-0.373464	-1.250774	-0.950617
H57	H	-0.893489	-1.319442	-0.506332
H58	H	-0.978407	-1.289219	-0.364254
H59	H	-0.490601	-1.112116	-0.973357
C60	C	-0.359064	-0.572811	-0.383594
C61	C	-0.352486	-0.658753	-0.376621
H62	H	-0.323904	-0.545087	-0.346070
H63	H	-0.349970	-0.555810	-0.438767
H64	H	-0.407779	-0.559250	-0.370659
H65	H	-0.303773	-0.672314	-0.389561
H66	H	-0.361574	-0.675760	-0.321435
C67	C	-1.053929	-1.022390	-0.409284
C68	C	-0.976329	-1.021199	-0.409699
H69	H	-1.068907	-0.969678	-0.392202
H70	H	-1.074524	-1.034455	-0.463551
H71	H	-1.070980	-1.063837	-0.371804
H72	H	-0.959278	-0.979755	-0.447183
H73	H	-0.955726	-1.009123	-0.355423
C74	C	-0.791444	-1.146146	-0.297595
C75	C	-0.868974	-1.146053	-0.296802
H76	H	-0.770501	-1.134493	-0.243375
H77	H	-0.777251	-1.199100	-0.314877
H78	H	-0.774002	-1.104897	-0.335065
H79	H	-0.886417	-1.187306	-0.259337
H80	H	-0.883174	-1.093092	-0.279510
C81	C	-0.969504	-1.155355	-0.681351
C82	C	-0.994683	-1.216606	-0.626298
H83	H	-0.990518	-1.166939	-0.735556
H84	H	-0.984020	-1.102631	-0.663783
H85	H	-0.916896	-1.154965	-0.682061
H86	H	-1.047291	-1.216992	-0.625584
H87	H	-0.980172	-1.269344	-0.643871
