data_functionalizedCrystal
_audit_creation_method	'MofGen! by Chris Wilmer'
_symmetry_space_group_name_H-M	'P1'
_symmetry_Int_Tables_number	1
_symmetry_cell_setting	triclinic
loop_
_symmetry_equiv_pos_as_xyz
  x,y,z
_cell_length_a	12.759395
_cell_length_b	16.959454
_cell_length_c	12.759387
_cell_angle_alpha	89.968763
_cell_angle_beta	89.981185
_cell_angle_gamma	90.021612
loop_
_atom_site_label
_atom_site_type_symbol
_atom_site_fract_x
_atom_site_fract_y
_atom_site_fract_z
Zn1	Zn	1.606212	-0.314598	-0.594010
Zn2	Zn	1.606091	-0.446801	-0.418333
Zn3	Zn	1.430515	-0.314644	-0.418347
Zn4	Zn	1.430486	-0.446742	-0.593972
O5	O	1.518326	-0.380697	-0.506166
O6	O	1.753217	-0.332141	-0.570716
O7	O	1.582762	-0.429314	-0.271314
O8	O	1.453885	-0.204027	-0.441671
O9	O	1.753128	-0.429270	-0.441647
O10	O	1.582968	-0.203994	-0.570730
O11	O	1.453768	-0.332219	-0.271324
O12	O	1.283490	-0.332162	-0.441634
O13	O	1.453835	-0.429169	-0.740998
O14	O	1.283469	-0.429214	-0.570665
O15	O	1.582940	-0.332084	-0.741026
O16	O	1.582734	-0.557404	-0.441610
O17	O	1.453718	-0.557361	-0.570651
C18	C	1.245359	-0.380687	-0.506148
C19	C	1.128582	-0.380702	-0.506165
C20	C	1.128598	-0.481926	-0.640307
C21	C	1.073745	-0.532544	-0.707381
C22	C	0.964024	-0.532553	-0.707394
C23	C	0.909152	-0.481938	-0.640328
C24	C	0.964005	-0.431320	-0.573254
C25	C	1.073729	-0.431317	-0.573246
C26	C	0.963989	-0.330093	-0.439118
C27	C	1.073711	-0.330086	-0.439098
C28	C	0.909117	-0.279478	-0.372052
C29	C	0.963970	-0.228862	-0.304971
C30	C	1.073698	-0.228855	-0.304960
C31	C	1.128563	-0.279468	-0.372024
C32	C	1.518238	-0.586063	-0.506148
C33	C	1.518297	-0.673919	-0.506175
C34	C	1.451245	-1.045402	-0.573350
C35	C	1.585700	-1.045388	-0.439088
C36	C	1.585663	-0.962842	-0.439078
C37	C	1.518415	-0.921572	-0.506205
C38	C	1.451204	-0.962849	-0.573340
C39	C	1.652866	-0.921559	-0.371936
C40	C	1.652831	-0.839008	-0.371923
C41	C	1.585588	-0.797737	-0.439055
C42	C	1.518374	-0.839019	-0.506195
C43	C	1.451126	-0.797749	-0.573321
C44	C	1.383917	-0.839030	-0.640466
C45	C	1.383960	-0.921578	-0.640473
C46	C	1.585545	-0.715189	-0.439049
C47	C	1.451085	-0.715196	-0.573311
C48	C	1.792359	-0.380707	-0.506184
C49	C	1.909136	-0.380711	-0.506192
C50	C	1.518397	-0.380615	-0.780199
C51	C	1.518428	-0.380580	-0.896976
C52	C	1.518443	-0.174528	-0.506207
C53	C	1.518493	-0.086672	-0.506224
C54	C	1.384114	-0.279468	-0.897006
C55	C	1.316977	-0.228896	-0.951882
C56	C	1.317008	-0.228868	-1.061603
C57	C	1.384182	-0.279418	-1.116452
C58	C	1.451320	-0.329990	-1.061576
C59	C	1.451283	-0.330011	-0.951852
C60	C	1.585626	-0.431105	-1.061546
C61	C	1.585602	-0.431130	-0.951825
C62	C	1.652800	-0.481655	-1.116395
C63	C	1.719945	-0.532224	-1.061519
C64	C	1.719912	-0.532250	-0.951791
C65	C	1.652739	-0.481702	-0.896949
C66	C	1.518316	-0.380721	-0.233198
C67	C	1.518489	-0.380533	-0.116422
H68	H	0.919363	-0.573767	-0.762017
Br69	Br	1.225833	-0.160283	-0.877441
Br70	Br	1.359823	-0.659194	-0.664425
H71	H	1.396528	-1.079016	-0.628021
H72	H	0.819811	-0.481943	-0.640354
Br73	Br	0.760208	-0.279483	-0.372077
H74	H	1.652816	-0.481632	-1.205736
Br75	Br	1.292756	-0.977605	-0.731590
Br76	Br	1.148217	-0.601237	-0.798390
Br77	Br	1.384084	-0.279490	-0.748097
Br78	Br	1.225896	-0.160232	-1.136082
Br79	Br	1.277472	-0.279468	-0.372007
H80	H	1.384192	-0.279397	-1.205793
H81	H	1.774628	-0.573381	-1.106185
Br82	Br	0.889499	-0.160169	-0.213973
H83	H	1.329158	-0.805419	-0.695116
H84	H	1.774587	-0.573429	-0.907117
H85	H	1.652709	-0.481716	-0.807608
H86	H	1.640260	-0.681582	-0.384375
H87	H	1.217939	-0.481929	-0.640296
Br88	Br	1.676960	-1.101396	-0.347991
Br89	Br	1.148132	-0.160149	-0.213934
Br90	Br	1.744049	-0.782992	-0.280807
Br91	Br	1.744131	-0.977570	-0.280847
