data_functionalizedCrystal
_audit_creation_method	'MofGen! by Chris Wilmer'
_symmetry_space_group_name_H-M	'P1'
_symmetry_Int_Tables_number	1
_symmetry_cell_setting	triclinic
loop_
_symmetry_equiv_pos_as_xyz
  x,y,z
_cell_length_a	16.959453
_cell_length_b	16.959455
_cell_length_c	16.959447
_cell_angle_alpha	89.985678
_cell_angle_beta	90.031064
_cell_angle_gamma	89.983065
loop_
_atom_site_label
_atom_site_type_symbol
_atom_site_fract_x
_atom_site_fract_y
_atom_site_fract_z
Zn1	Zn	-0.314730	-1.208384	0.446905
Zn2	Zn	-0.446923	-1.208307	0.314724
Zn3	Zn	-0.314755	-1.076213	0.314742
Zn4	Zn	-0.446864	-1.076178	0.446863
O5	O	-0.380818	-1.142270	0.380808
O6	O	-0.332280	-1.318985	0.429381
O7	O	-0.429426	-1.190767	0.204116
O8	O	-0.204141	-1.093793	0.332299
O9	O	-0.429402	-1.318928	0.332268
O10	O	-0.204123	-1.190898	0.429398
O11	O	-0.332323	-1.093718	0.204129
O12	O	-0.332265	-0.965597	0.332258
O13	O	-0.429301	-1.093733	0.557479
O14	O	-0.429325	-0.965571	0.429327
O15	O	-0.332223	-1.190864	0.557510
O16	O	-0.557526	-1.190733	0.332228
O17	O	-0.557482	-1.093658	0.429310
C18	C	-0.380792	-0.936904	0.380790
C19	C	-0.380800	-0.849048	0.380801
C20	C	-0.586184	-1.142204	0.380780
C21	C	-0.674041	-1.142249	0.380794
C22	C	-0.380753	-1.142303	0.586977
C23	C	-0.380725	-1.142317	0.674833
C24	C	-1.045448	-1.192898	0.431463
C25	C	-1.045584	-1.091863	0.330271
C26	C	-0.963039	-1.091834	0.330253
C27	C	-0.921694	-1.142337	0.380842
C28	C	-0.962895	-1.192869	0.431449
C29	C	-0.921831	-1.041297	0.279652
C30	C	-0.839280	-1.041265	0.279633
C31	C	-0.797934	-1.091773	0.330218
C32	C	-0.839140	-1.142307	0.380827
C33	C	-0.797796	-1.192810	0.431415
C34	C	-0.839000	-1.243349	0.482021
C35	C	-0.921549	-1.243376	0.482034
C36	C	-0.715386	-1.091746	0.330205
C37	C	-0.715242	-1.192781	0.431401
C38	C	-0.174650	-1.142358	0.380855
C39	C	-0.086793	-1.142395	0.380875
C40	C	-0.380845	-1.348439	0.380827
C41	C	-0.380856	-1.436295	0.380835
C42	C	-0.330238	-0.477561	0.330370
C43	C	-0.431463	-0.477583	0.431292
C44	C	-0.431452	-0.560129	0.431287
C45	C	-0.380834	-0.601395	0.380822
C46	C	-0.330226	-0.560114	0.330362
C47	C	-0.482064	-0.601415	0.481740
C48	C	-0.482055	-0.683966	0.481737
C49	C	-0.431432	-0.725233	0.431275
C50	C	-0.380822	-0.683948	0.380814
C51	C	-0.330204	-0.725214	0.330350
C52	C	-0.279589	-0.683930	0.279892
C53	C	-0.279603	-0.601382	0.279901
C54	C	-0.431418	-0.807782	0.431266
C55	C	-0.330193	-0.807767	0.330341
C56	C	-0.380826	-1.142283	0.175442
C57	C	-0.380631	-1.142422	0.087586
C58	C	-0.431185	-1.091840	1.046296
C59	C	-0.330097	-1.192984	1.046323
C60	C	-0.330114	-1.192963	0.963777
C61	C	-0.380668	-1.142380	0.922487
C62	C	-0.431205	-1.091819	0.963742
C63	C	-0.279584	-1.243529	0.922515
C64	C	-0.279599	-1.243511	0.839964
C65	C	-0.330149	-1.192923	0.798672
C66	C	-0.380688	-1.142359	0.839933
C67	C	-0.431242	-1.091777	0.798643
C68	C	-0.481777	-1.041208	0.839902
C69	C	-0.481756	-1.041232	0.922450
C70	C	-0.330171	-1.192900	0.716124
C71	C	-0.431262	-1.091756	0.716089
H72	H	-0.681584	-1.233909	0.472593
O73	O	-0.275660	-0.433026	0.275949
H74	H	-0.213635	-0.448875	0.289613
O75	O	-0.965987	-1.297880	0.536616
H76	H	-0.950098	-1.284278	0.598635
H77	H	-0.238397	-0.567761	0.238820
H78	H	-0.472679	-0.443979	0.472373
H79	H	-0.523280	-0.567810	0.522820
H80	H	-0.805328	-1.284465	0.523214
H81	H	-0.288943	-1.234170	1.079946
O82	O	-0.536633	-0.728493	0.536164
H83	H	-0.571827	-0.685929	0.571261
O84	O	-0.485999	-0.852312	0.485683
H85	H	-0.521197	-0.809749	0.520777
O86	O	-0.966420	-0.986842	0.225077
H87	H	-1.030743	-0.995367	0.233578
H88	H	-0.522901	-1.000064	0.956051
H89	H	-0.472422	-1.050558	0.682476
H90	H	-1.079001	-1.234048	0.472663
H91	H	-0.238450	-1.284686	0.806378
O92	O	-0.485684	-1.037294	1.090790
H93	H	-0.525901	-1.072656	1.128388
O94	O	-0.536301	-0.986649	0.795366
H95	H	-0.527819	-0.995132	0.731034
H96	H	-0.238430	-1.284715	0.956140
H97	H	-0.805737	-1.000115	0.238427
O98	O	-0.275677	-1.247437	0.671618
H99	H	-0.213633	-1.233913	0.687475
O100	O	-1.090180	-1.037407	0.275703
H101	H	-1.127798	-0.997185	0.311046
O102	O	-0.670940	-1.037247	0.275628
H103	H	-0.713558	-1.002137	0.240451
O104	O	-0.275595	-0.852277	0.275913
H105	H	-0.310922	-0.889868	0.235635
H106	H	-0.238379	-0.717540	0.238800
