data_functionalizedCrystal
_audit_creation_method	'MofGen! by Chris Wilmer'
_symmetry_space_group_name_H-M	'P1'
_symmetry_Int_Tables_number	1
_symmetry_cell_setting	triclinic
loop_
_symmetry_equiv_pos_as_xyz
  x,y,z
_cell_length_a	17.077404
_cell_length_b	29.839131
_cell_length_c	29.839126
_cell_angle_alpha	89.975848
_cell_angle_beta	89.980185
_cell_angle_gamma	90.041645
loop_
_atom_site_label
_atom_site_type_symbol
_atom_site_fract_x
_atom_site_fract_y
_atom_site_fract_z
Zn1	Zn	1.199956	-0.178885	-0.254007
Zn2	Zn	1.199820	-0.254006	-0.178877
Zn3	Zn	1.068687	-0.178891	-0.178890
Zn4	Zn	1.068613	-0.253989	-0.253979
O5	O	1.134269	-0.216443	-0.216438
O6	O	1.309785	-0.188855	-0.244048
O7	O	1.182399	-0.244051	-0.116012
O8	O	1.086188	-0.116023	-0.188872
O9	O	1.309685	-0.244045	-0.188850
O10	O	1.182631	-0.116019	-0.244060
O11	O	1.086056	-0.188864	-0.116021
O12	O	0.958830	-0.188848	-0.188844
O13	O	1.086062	-0.244017	-0.316849
O14	O	0.958776	-0.244023	-0.244011
O15	O	1.182559	-0.188839	-0.316871
O16	O	1.182327	-0.316870	-0.188822
O17	O	1.085930	-0.316858	-0.243999
C18	C	0.930321	-0.216434	-0.216426
C19	C	0.843071	-0.216442	-0.216431
C20	C	1.134127	-0.333165	-0.216416
C21	C	1.134138	-0.383100	-0.216421
C22	C	0.802073	-0.245214	-0.245111
C23	C	0.720093	-0.245215	-0.245118
C24	C	0.679112	-0.216446	-0.216443
C25	C	0.720116	-0.187670	-0.187762
C26	C	0.802094	-0.187667	-0.187758
C27	C	0.549246	-0.187679	-0.187773
C28	C	0.467261	-0.187682	-0.187777
C29	C	0.467244	-0.245227	-0.245133
C30	C	0.549223	-0.245224	-0.245129
C31	C	0.590221	-0.216449	-0.216447
C32	C	1.184554	-0.692737	-0.187750
C33	C	1.184651	-0.880410	-0.187767
O34	O	1.227404	-0.904669	-0.163372
N35	N	1.134432	-0.903885	-0.216472
C36	C	1.084188	-0.880438	-0.245177
O37	O	1.041482	-0.904712	-0.269596
C38	C	1.084096	-0.692766	-0.245161
C39	C	1.134313	-0.669294	-0.216451
C40	C	1.234768	-0.669264	-0.159042
C41	C	1.234740	-0.622349	-0.159037
C42	C	1.184499	-0.598906	-0.187738
C43	C	1.134285	-0.622378	-0.216445
C44	C	1.033857	-0.669321	-0.273868
C45	C	1.033840	-0.622400	-0.273862
C46	C	1.084057	-0.598927	-0.245152
C47	C	1.084016	-0.552020	-0.245141
N48	N	1.134235	-0.528545	-0.216436
C49	C	1.184477	-0.551988	-0.187735
C50	C	1.084239	-0.978969	-0.245182
C51	C	1.084261	-1.025887	-0.245186
C52	C	1.184725	-1.025855	-0.187777
C53	C	1.184699	-0.978936	-0.187771
C54	C	1.134459	-0.955494	-0.216477
C55	C	1.184414	-0.453462	-0.187724
C56	C	1.184380	-0.406542	-0.187720
C57	C	1.083919	-0.406579	-0.245131
C58	C	1.083950	-0.453494	-0.245134
C59	C	1.134204	-0.476935	-0.216429
O60	O	1.041292	-0.527732	-0.269527
O61	O	1.227189	-0.527707	-0.163326
C62	C	1.184582	-0.739652	-0.187756
C63	C	1.134368	-0.763125	-0.216463
C64	C	1.084127	-0.739682	-0.245164
C65	C	1.134390	-0.810042	-0.216466
C66	C	1.184632	-0.833485	-0.187765
C67	C	1.234851	-0.810010	-0.159060
C68	C	1.234823	-0.763095	-0.159054
C69	C	1.033908	-0.763157	-0.273869
C70	C	1.033939	-0.810072	-0.273872
C71	C	1.084180	-0.833515	-0.245171
C72	C	1.339013	-0.216451	-0.216451
C73	C	1.426263	-0.216455	-0.216456
C74	C	1.134318	-0.216425	-0.333617
C75	C	1.134338	-0.216418	-0.383551
C76	C	1.134433	-0.099264	-0.216470
C77	C	1.134502	-0.049330	-0.216484
C78	C	1.084188	-0.187637	-0.693202
C79	C	1.084211	-0.187606	-0.880875
O80	O	1.041532	-0.163181	-0.905147
N81	N	1.134376	-0.216334	-0.904336
C82	C	1.184535	-0.245073	-0.880876
O83	O	1.227198	-0.269510	-0.905137
C84	C	1.184508	-0.245106	-0.693204
C85	C	1.134345	-0.216374	-0.669745
C86	C	1.034029	-0.158908	-0.669744
C87	C	1.034027	-0.158914	-0.622828
C88	C	1.084184	-0.187650	-0.599371
C89	C	1.134343	-0.216380	-0.622830
C90	C	1.234663	-0.273848	-0.669745
C91	C	1.234650	-0.273854	-0.622824
C92	C	1.184488	-0.245122	-0.599365
C93	C	1.184499	-0.245123	-0.552458
N94	N	1.134334	-0.216395	-0.528997
C95	C	1.084176	-0.187659	-0.552453
C96	C	1.184547	-0.245053	-0.979407
C97	C	1.184554	-0.245044	-1.026325
C98	C	1.084229	-0.187578	-1.026321
C99	C	1.084225	-0.187585	-0.979402
C100	C	1.134382	-0.216326	-0.955946
C101	C	1.084176	-0.187674	-0.453928
C102	C	1.084181	-0.187682	-0.407008
C103	C	1.184503	-0.245150	-0.407016
C104	C	1.184502	-0.245141	-0.453932
C105	C	1.134332	-0.216401	-0.477386
O106	O	1.227149	-0.269539	-0.528157
O107	O	1.041507	-0.163233	-0.528184
C108	C	1.084190	-0.187631	-0.740118
C109	C	1.134350	-0.216361	-0.763576
C110	C	1.184507	-0.245097	-0.740119
C111	C	1.134357	-0.216352	-0.810494
C112	C	1.084200	-0.187616	-0.833951
C113	C	1.034035	-0.158888	-0.810490
C114	C	1.034033	-0.158895	-0.763575
C115	C	1.234672	-0.273825	-0.763580
C116	C	1.234670	-0.273816	-0.810496
C117	C	1.184513	-0.245079	-0.833953
C118	C	1.134266	-0.216427	-0.099716
C119	C	1.134397	-0.216308	-0.049782
H120	H	0.835434	-0.268644	-0.268460
N121	N	1.288773	-0.304812	-0.835793
H122	H	1.281168	-0.300452	-0.869076
H123	H	1.344846	-0.297827	-0.827605
N124	N	1.030085	-1.051197	-0.276146
H125	H	1.042241	-1.043007	-0.308250
H126	H	1.037738	-1.084470	-0.271759
N127	N	1.238869	-0.953620	-0.156812
H128	H	1.206986	-0.934181	-0.135973
H129	H	1.270687	-0.975622	-0.138662
N130	N	0.423073	-0.156659	-0.156835
H131	H	0.389040	-0.174898	-0.135984
H132	H	0.461547	-0.138443	-0.138698
N133	N	1.238607	-0.276133	-0.479230
H134	H	1.206674	-0.296949	-0.498681
H135	H	1.275005	-0.257849	-0.498686
N136	N	0.675873	-0.276255	-0.276044
H137	H	0.714274	-0.294484	-0.294205
H138	H	0.641826	-0.297017	-0.257713
H139	H	0.993186	-0.135498	-0.744479
N140	N	0.593427	-0.276258	-0.276052
H141	H	0.555017	-0.294487	-0.294222
H142	H	0.627480	-0.257999	-0.296873
N143	N	1.238602	-0.276141	-0.381712
H144	H	1.230894	-0.271835	-0.348431
H145	H	1.226419	-0.308221	-0.389954
N146	N	0.979709	-0.737875	-0.304822
H147	H	1.011567	-0.718377	-0.325660
H148	H	0.947913	-0.759897	-0.322975
N149	N	0.423031	-0.276265	-0.276068
H150	H	0.364879	-0.271901	-0.271723
H151	H	0.437396	-0.269320	-0.308166
N152	N	1.238913	-1.051144	-0.156818
H153	H	1.231302	-1.084427	-0.161179
H154	H	1.294964	-1.042909	-0.163842
H155	H	0.582624	-0.164243	-0.164421
H156	H	1.043324	-0.164272	-0.473019
N157	N	0.675913	-0.156648	-0.156827
H158	H	0.641927	-0.135856	-0.175118
H159	H	0.641918	-0.174920	-0.135987
N160	N	1.030083	-0.156686	-0.381706
H161	H	0.998311	-0.138481	-0.403688
H162	H	0.993726	-0.174970	-0.362226
N163	N	0.979931	-0.127909	-0.695040
H164	H	0.943525	-0.146156	-0.714497
H165	H	0.948212	-0.109719	-0.673025
H166	H	0.835474	-0.164235	-0.164406
H167	H	1.275684	-0.688346	-0.135670
H168	H	1.225272	-0.387433	-0.164339
N169	N	1.238615	-0.478740	-0.156766
H170	H	1.270416	-0.456746	-0.138581
H171	H	1.206696	-0.498237	-0.135959
N172	N	1.288914	-0.597035	-0.128077
H173	H	1.320746	-0.619011	-0.109901
H174	H	1.325212	-0.577542	-0.146387
H175	H	1.043326	-0.959886	-0.268559
H176	H	1.275514	-0.297227	-0.744487
H177	H	0.992961	-0.688424	-0.297245
N178	N	0.979653	-0.597116	-0.304826
H179	H	0.947848	-0.619108	-0.323012
H180	H	0.943330	-0.577681	-0.286519
N181	N	1.238657	-0.276050	-0.954114
H182	H	1.275057	-0.257798	-0.934658
H183	H	1.206678	-0.296870	-0.934663
H184	H	1.043062	-0.472606	-0.268513
H185	H	0.993176	-0.135519	-0.603732
H186	H	1.043011	-0.387484	-0.268498
N187	N	1.030126	-0.156593	-0.954102
H188	H	0.998358	-0.138388	-0.976085
H189	H	0.993765	-0.174879	-0.934626
H190	H	1.275510	-0.297245	-0.688837
H191	H	1.275715	-0.743987	-0.135676
N192	N	1.289034	-0.835300	-0.128099
H193	H	1.281424	-0.868583	-0.132461
H194	H	1.345086	-0.827065	-0.135118
H195	H	0.993040	-0.829180	-0.297251
H196	H	1.043391	-0.164179	-1.045427
N197	N	0.979929	-0.127898	-0.835794
H198	H	0.987544	-0.132259	-0.869075
H199	H	0.923859	-0.134896	-0.827581
N200	N	1.238668	-0.276028	-1.051624
H201	H	1.270437	-0.294233	-1.029640
H202	H	1.206691	-0.296815	-1.071080
N203	N	1.288747	-0.304856	-0.597526
H204	H	1.320520	-0.323054	-0.619510
H205	H	1.325103	-0.286577	-0.578071
