data_functionalizedCrystal
_audit_creation_method	'MofGen! by Chris Wilmer'
_symmetry_space_group_name_H-M	'P1'
_symmetry_Int_Tables_number	1
_symmetry_cell_setting	triclinic
loop_
_symmetry_equiv_pos_as_xyz
  x,y,z
_cell_length_a	9.065215
_cell_length_b	11.792254
_cell_length_c	7.540329
_cell_angle_alpha	89.996229
_cell_angle_beta	89.997574
_cell_angle_gamma	84.606648
loop_
_atom_site_label
_atom_site_type_symbol
_atom_site_fract_x
_atom_site_fract_y
_atom_site_fract_z
O1	O	1.958851	0.166413	-0.147463
O2	O	2.292184	0.499747	0.185870
O3	O	2.625518	0.833080	0.519204
O4	O	1.529439	0.180068	-0.147471
O5	O	1.862772	0.513401	0.185862
O6	O	2.196105	0.846735	0.519196
O7	O	1.754556	0.008129	-0.147454
O8	O	2.087889	0.341462	0.185879
O9	O	2.421222	0.674795	0.519212
O10	O	1.733734	0.338353	-0.147480
O11	O	2.067067	0.671686	0.185854
O12	O	2.400401	1.005019	0.519187
O13	O	1.754542	0.008127	0.147511
O14	O	2.087876	0.341460	0.480844
O15	O	2.421209	0.674793	0.814177
O16	O	1.529425	0.180066	0.147494
O17	O	1.862758	0.513399	0.480827
O18	O	2.196092	0.846732	0.814161
O19	O	1.958838	0.166411	0.147502
O20	O	2.292171	0.499744	0.480835
O21	O	2.625504	0.833078	0.814169
Cu22	Cu	1.744130	0.173238	0.174431
Cu23	Cu	2.077463	0.506572	0.507764
Cu24	Cu	2.410797	0.839905	0.841097
Cu25	Cu	1.744146	0.173241	-0.174400
Cu26	Cu	2.077479	0.506574	0.158934
Cu27	Cu	2.410813	0.839908	0.492267
O28	O	1.733720	0.338350	0.147485
O29	O	2.067054	0.671684	0.480819
O30	O	2.400387	1.005017	0.814152
C31	C	1.474457	0.178755	0.000011
C32	C	1.807791	0.512089	0.333344
C33	C	2.141124	0.845422	0.666677
C34	C	1.310651	0.174834	0.000008
C35	C	1.643984	0.508167	0.333341
C36	C	1.977317	0.841501	0.666674
C37	C	1.753237	-0.034170	0.000028
C38	C	2.086571	0.299163	0.333361
C39	C	2.419904	0.632496	0.666694
C40	C	1.749311	-0.160205	0.000026
C41	C	2.082645	0.173128	0.333359
C42	C	2.415978	0.506462	0.666693
C43	C	1.746122	-0.262559	0.000020
C44	C	2.079455	0.070774	0.333353
C45	C	2.412788	0.404107	0.666686
C46	C	1.742133	-0.390968	0.000003
C47	C	2.075466	-0.057635	0.333337
C48	C	2.408800	0.275699	0.666670
C49	C	2.013819	0.167724	0.000017
C50	C	2.347152	0.501057	0.333350
C51	C	2.680485	0.834390	0.666683
C52	C	2.177625	0.171645	0.000008
C53	C	2.510959	0.504979	0.333341
C54	C	2.844292	0.838312	0.666674
C55	C	1.735039	0.380649	-0.000001
C56	C	2.068372	0.713983	0.333333
C57	C	2.401705	1.047316	0.666666
C58	C	1.738965	0.506684	-0.000011
C59	C	2.072298	0.840018	0.333323
C60	C	2.405631	1.173351	0.666656
N61	N	1.744130	0.173236	0.419779
N62	N	2.077463	0.506569	0.753112
N63	N	2.410796	0.839902	1.086446
N64	N	1.744158	0.173234	-0.419748
N65	N	2.077491	0.506568	-0.086415
N66	N	2.410825	0.839901	0.246919
