data_functionalizedCrystal
_audit_creation_method	'MofGen! by Chris Wilmer'
_symmetry_space_group_name_H-M	'P1'
_symmetry_Int_Tables_number	1
_symmetry_cell_setting	triclinic
loop_
_symmetry_equiv_pos_as_xyz
  x,y,z
_cell_length_a	18.050582
_cell_length_b	17.077404
_cell_length_c	17.077402
_cell_angle_alpha	90.023108
_cell_angle_beta	90.023347
_cell_angle_gamma	90.014815
loop_
_atom_site_label
_atom_site_type_symbol
_atom_site_fract_x
_atom_site_fract_y
_atom_site_fract_z
Zn1	Zn	-0.419906	-1.200018	0.312553
Zn2	Zn	-0.295715	-1.199936	0.443813
Zn3	Zn	-0.295731	-1.068761	0.312566
Zn4	Zn	-0.419863	-1.068718	0.443782
O5	O	-0.357804	-1.134358	0.378179
O6	O	-0.403443	-1.309854	0.329973
O7	O	-0.191792	-1.182519	0.426422
O8	O	-0.312228	-1.086225	0.202717
O9	O	-0.312200	-1.309794	0.426409
O10	O	-0.403459	-1.182659	0.202708
O11	O	-0.191804	-1.086145	0.329995
O12	O	-0.312186	-0.958908	0.329964
O13	O	-0.523794	-1.086152	0.426355
O14	O	-0.403386	-0.958877	0.426368
O15	O	-0.523825	-1.182618	0.329942
O16	O	-0.312159	-1.182478	0.553656
O17	O	-0.403370	-1.086072	0.553633
C18	C	-0.357783	-0.930411	0.378164
C19	C	-0.357792	-0.843161	0.378177
C20	C	-0.357774	-1.134283	0.582126
C21	C	-0.357786	-1.134322	0.669376
C22	C	-0.551510	-1.134389	0.378144
C23	C	-0.634055	-1.134402	0.378129
C24	C	-0.833489	-1.081984	0.430487
C25	C	-0.882880	-1.153603	0.449674
C26	C	-0.785186	-1.134441	0.378069
C27	C	-0.882877	-1.062862	0.358860
C28	C	-0.931171	-1.134472	0.378013
C29	C	-0.833490	-1.206097	0.397294
C30	C	-0.833482	-1.115308	0.306446
C31	C	-0.882851	-1.186976	0.325607
C32	C	-0.701087	-1.134422	0.378104
C33	C	-1.015268	-1.134499	0.377978
C34	C	-0.164852	-1.134373	0.378157
C35	C	-0.082306	-1.134512	0.377950
C36	C	-0.357825	-1.339103	0.378193
C37	C	-0.357834	-1.426352	0.378200
C38	C	-0.405204	-0.802175	0.428450
C39	C	-0.405216	-0.720194	0.428452
C40	C	-0.357812	-0.679201	0.378184
C41	C	-0.310398	-0.720193	0.327905
C42	C	-0.310390	-0.802172	0.327900
C43	C	-0.310416	-0.549323	0.327921
C44	C	-0.310422	-0.467338	0.327927
C45	C	-0.405241	-0.467345	0.428472
C46	C	-0.405234	-0.549324	0.428467
C47	C	-0.357819	-0.590310	0.378190
C48	C	-0.357850	-1.134456	0.173434
C49	C	-0.357869	-1.134497	0.086184
C50	C	-0.310344	-1.184572	0.710353
C51	C	-0.310362	-1.184610	0.792333
C52	C	-0.357821	-1.134394	0.833336
C53	C	-0.405269	-1.084142	0.792354
C54	C	-0.405253	-1.084109	0.710375
C55	C	-0.405297	-1.084215	0.963224
C56	C	-0.405312	-1.084248	1.045208
C57	C	-0.310406	-1.184716	1.045182
C58	C	-0.310391	-1.184683	0.963203
C59	C	-0.357838	-1.134430	0.922227
H60	H	-0.811816	-1.037665	0.474872
H61	H	-0.271694	-1.225459	0.676974
C62	C	-0.457358	-0.675113	0.483771
N63	N	-0.496629	-0.641159	0.525445
C64	C	-0.804308	-1.287915	0.419313
N65	N	-0.782326	-1.349538	0.435901
H66	H	-0.271787	-0.835542	0.286959
C67	C	-0.804140	-1.093390	0.224676
N68	N	-0.782038	-1.076872	0.163087
H69	H	-0.443887	-1.043191	0.677013
C70	C	-0.258167	-1.239883	0.837403
N71	N	-0.218849	-1.281517	0.871349
C72	C	-0.258220	-1.240002	1.090257
N73	N	-0.218915	-1.281641	1.124212
C74	C	-0.258255	-0.594406	0.272614
N75	N	-0.218965	-0.628362	0.230962
C76	C	-0.457402	-0.422259	0.483775
N77	N	-0.496686	-0.388297	0.525428
H78	H	-0.443803	-0.835545	0.469387
C79	C	-0.258278	-0.422248	0.272627
N80	N	-0.219003	-0.388285	0.230973
C81	C	-0.457527	-1.029016	1.090310
N82	N	-0.496858	-0.987418	1.124280
H83	H	-0.904578	-1.169804	0.510220
C84	C	-0.912181	-0.981066	0.336938
N85	N	-0.934249	-0.919456	0.320432
C86	C	-0.457486	-1.028927	0.918152
N87	N	-0.496788	-0.987280	0.884203
H88	H	-0.904387	-1.231401	0.281255
H89	H	-0.443830	-0.582699	0.469404
H90	H	-0.443914	-1.043259	0.825745
H91	H	-0.271804	-0.686810	0.286973
H92	H	-0.271743	-1.225568	0.929819
