data_functionalizedCrystal
_audit_creation_method	'MofGen! by Chris Wilmer'
_symmetry_space_group_name_H-M	'P1'
_symmetry_Int_Tables_number	1
_symmetry_cell_setting	triclinic
loop_
_symmetry_equiv_pos_as_xyz
  x,y,z
_cell_length_a	17.699083
_cell_length_b	15.021413
_cell_length_c	17.699083
_cell_angle_alpha	89.996989
_cell_angle_beta	96.716984
_cell_angle_gamma	90.001270
loop_
_atom_site_label
_atom_site_type_symbol
_atom_site_fract_x
_atom_site_fract_y
_atom_site_fract_z
O1	O	1.004080	0.073921	-0.095701
O2	O	0.783702	0.073952	-0.108154
O3	O	0.900117	0.073914	0.008262
O4	O	0.887665	0.073959	-0.212117
O5	O	0.900099	-0.074150	0.008245
O6	O	0.783683	-0.074112	-0.108170
O7	O	1.004062	-0.074143	-0.095718
Zn8	Zn	0.893869	-0.097636	-0.101947
Zn9	Zn	0.893894	0.097445	-0.101925
O10	O	0.887646	-0.074105	-0.212133
C11	C	0.755495	-0.000076	-0.107716
C12	C	0.671477	-0.000066	-0.106377
N13	N	0.893858	-0.230774	-0.101961
C14	C	0.622856	-0.000052	-0.174711
C15	C	0.543913	-0.000064	-0.173448
C16	C	0.513592	-0.000083	-0.103852
C17	C	0.562219	-0.000099	-0.035513
C18	C	0.641161	-0.000094	-0.036776
C19	C	0.243856	-0.000122	-0.030418
C20	C	0.164908	-0.000125	-0.029160
C21	C	0.146608	-0.000092	-0.167090
C22	C	0.225550	-0.000087	-0.168353
C23	C	0.274170	-0.000108	-0.100015
C24	C	0.359769	-0.000097	-0.101384
C25	C	0.427995	-0.000088	-0.102481
C26	C	0.840020	-0.470439	-0.155766
C27	C	0.908383	-0.529780	-0.170330
C28	C	0.893878	-0.412381	-0.101942
C29	C	0.825533	-0.529782	-0.087395
C30	C	0.893890	-0.587805	-0.101926
C31	C	0.962276	-0.470415	-0.116540
C32	C	0.879380	-0.470411	-0.033575
C33	C	0.947793	-0.529725	-0.048110
C34	C	0.893869	-0.311323	-0.101954
C35	C	0.893906	-0.688860	-0.101913
C36	C	1.032268	-0.000113	-0.096156
C37	C	1.116286	-0.000118	-0.097494
C38	C	0.899662	-0.000122	0.036451
C39	C	0.898323	-0.000133	0.120469
N40	N	0.893911	0.230583	-0.101904
C41	C	0.966656	-0.000149	0.169090
C42	C	0.965394	-0.000151	0.248033
C43	C	0.895798	-0.000143	0.278354
C44	C	0.827459	-0.000124	0.229727
C45	C	0.828722	-0.000115	0.150785
C46	C	0.822364	-0.000156	0.548090
C47	C	0.821106	-0.000167	0.627038
C48	C	0.959036	-0.000191	0.645338
C49	C	0.960299	-0.000183	0.566396
C50	C	0.891961	-0.000159	0.517776
C51	C	0.893330	-0.000156	0.432177
C52	C	0.894427	-0.000153	0.363951
C53	C	0.888102	-0.000099	0.759678
C54	C	0.889440	-0.000177	0.675660
H55	H	0.647537	-0.000036	-0.231384
Br56	Br	0.735980	-0.000086	0.084797
H57	H	0.920656	-0.555857	-0.228140
H58	H	0.867085	-0.444313	0.024216
Br59	Br	1.058642	-0.427140	-0.137147
H60	H	0.767729	-0.555862	-0.075098
Br61	Br	0.080619	-0.000065	-0.259837
Br62	Br	1.054754	-0.000194	0.525250
Br63	Br	0.726647	-0.000157	0.668186
Br64	Br	1.023794	-0.572846	0.027772
H65	H	0.140225	-0.000142	0.027517
H66	H	0.283434	-0.000140	0.025228
Br67	Br	1.058137	-0.000173	0.314016
H68	H	1.023330	-0.000161	0.144409
H69	H	1.014680	-0.000206	0.684934
H70	H	0.504328	-0.000051	-0.229092
Br71	Br	0.729619	-0.000118	0.482115
H72	H	0.770792	-0.000111	0.254420
H73	H	0.537526	-0.000128	0.021154
Br74	Br	0.764182	-0.427048	-0.231688
H75	H	0.250232	-0.000067	-0.225025
H76	H	0.680748	-0.000104	0.018868
