data_functionalizedCrystal
_audit_creation_method	'MofGen! by Chris Wilmer'
_symmetry_space_group_name_H-M	'P1'
_symmetry_Int_Tables_number	1
_symmetry_cell_setting	triclinic
loop_
_symmetry_equiv_pos_as_xyz
  x,y,z
_cell_length_a	19.851628
_cell_length_b	14.628931
_cell_length_c	14.628931
_cell_angle_alpha	60.000164
_cell_angle_beta	90.003599
_cell_angle_gamma	59.998261
loop_
_atom_site_label
_atom_site_type_symbol
_atom_site_fract_x
_atom_site_fract_y
_atom_site_fract_z
Zr1	Zr	0.648979	1.000473	-0.119851
O2	O	0.541412	1.191195	-0.265829
O3	O	0.681953	0.809762	-0.075102
O4	O	0.681954	1.000467	-0.265807
O5	O	0.541412	1.000490	0.075307
O6	O	0.792816	1.000449	-0.265788
O7	O	0.541412	1.000490	-0.075124
O8	O	0.792815	0.659313	0.075348
O9	O	0.541413	1.341626	-0.265829
O10	O	0.778752	0.888187	-0.056002
O11	O	0.696017	0.888200	0.056249
O12	O	0.696017	1.112730	-0.168281
O13	O	0.613282	1.112744	-0.056029
Zr14	Zr	0.825790	1.000445	0.120099
Zr15	Zr	0.825791	1.000444	-0.119822
Zr16	Zr	0.648978	1.000473	0.120070
Zr17	Zr	0.648979	1.240394	-0.119851
Zr18	Zr	0.825790	0.760524	0.120098
O19	O	0.792816	1.191155	0.075349
O20	O	0.792816	1.191154	-0.265788
O21	O	0.541412	1.191196	0.075308
O22	O	0.933357	0.809723	0.266077
O23	O	0.933357	0.809722	-0.075060
O24	O	0.681953	0.809763	0.266035
O25	O	0.933357	1.000427	-0.075060
O26	O	0.792815	1.000451	0.266054
O27	O	0.681953	1.000469	0.266036
O28	O	0.933357	1.000428	0.075372
O29	O	0.681954	1.341604	-0.265806
O30	O	0.792815	0.659314	0.266053
O31	O	0.933356	0.659292	0.266076
O32	O	0.933357	0.659291	0.075371
O33	O	0.541412	1.341627	-0.075124
O34	O	0.681954	1.341604	-0.075101
O35	O	0.778752	0.888187	0.168528
O36	O	0.861487	0.888174	0.056277
O37	O	0.778752	1.112718	-0.056002
O38	O	0.696017	1.112731	0.056250
C39	C	0.737384	0.700354	0.000123
C40	C	0.737384	0.598502	0.000123
C41	C	0.795426	0.474324	0.078892
C42	C	0.795427	0.369052	0.078893
C43	C	0.516220	1.000494	0.000087
C44	C	0.441159	1.000506	0.000075
C45	C	0.214704	1.122908	-0.061107
C46	C	0.192342	1.061708	-0.105465
C47	C	0.303752	1.000473	0.000107
C48	C	0.192373	1.061680	0.044445
C49	C	0.171020	1.000449	0.000137
C50	C	0.282379	0.939272	-0.044313
C51	C	0.282408	0.939262	0.105656
C52	C	0.260099	0.877973	0.061323
C53	C	0.380214	1.000490	0.000087
C54	C	0.094563	1.000423	0.000156
C55	C	0.958549	1.000424	0.000160
C56	C	1.033610	1.000412	0.000173
C57	C	0.737385	1.000458	-0.299981
C58	C	0.737385	1.000458	-0.401834
C59	C	0.737385	1.300564	0.000124
C60	C	0.737385	1.402416	0.000125
C61	C	0.696343	1.111846	-0.502941
C62	C	0.696342	1.111849	-0.608212
C63	C	0.737384	1.000460	0.300228
C64	C	0.737384	1.000460	0.402081
C65	C	0.958549	0.700319	0.000160
C66	C	1.033610	0.598454	0.000172
C67	C	0.737384	0.700355	0.300228
C68	C	0.737383	0.598503	0.402080
C69	C	0.958548	0.700320	0.300264
C70	C	1.033609	0.598455	0.402129
C71	C	0.516221	1.300598	-0.300017
C72	C	0.441160	1.402462	-0.401882
C73	C	0.516220	1.300599	0.000088
C74	C	0.441159	1.402463	0.000076
C75	C	0.737385	1.300563	-0.299980
C76	C	0.737386	1.402415	-0.401833
C77	C	1.025672	0.550624	-0.058441
C78	C	1.096194	0.454925	-0.058452
C79	C	1.174651	0.407051	0.000157
C80	C	1.182587	0.454890	0.058772
C81	C	1.112066	0.550594	0.058775
C82	C	1.112053	0.550612	0.391372
C83	C	1.182587	0.454913	0.487076
C84	C	1.174676	0.407052	0.593536
C85	C	1.096225	0.454906	0.604291
C86	C	1.025692	0.550609	0.508588
C87	C	0.362716	1.450318	-0.391125
C88	C	0.292182	1.546046	-0.486828
C89	C	0.300093	1.593912	-0.593289
C90	C	0.378544	1.546052	-0.604044
C91	C	0.449077	1.450332	-0.508341
C92	C	0.449097	1.450304	0.058679
C93	C	0.378575	1.546029	0.058663
C94	C	0.300118	1.593907	0.000051
C95	C	0.292182	1.546063	-0.058560
C96	C	0.362703	1.450345	-0.058550
C97	C	0.778425	0.553087	0.503188
C98	C	0.778426	0.447817	0.608459
H99	H	0.845120	0.262565	0.146328
H100	H	0.153532	1.113454	-0.194715
Cl101	Cl	0.927049	0.610794	-0.132136
H102	H	0.153571	1.113450	0.081930
Cl103	Cl	0.683126	0.538224	0.388751
Cl104	Cl	0.193543	1.606260	-0.132233
H105	H	0.661210	1.207209	-0.511567
H106	H	0.196252	1.226433	-0.112947
Cl107	Cl	0.352710	1.390206	-0.132221
Cl108	Cl	0.352749	1.390163	-0.257300
Cl109	Cl	0.388571	1.606151	0.132356
H110	H	0.321074	0.887563	-0.081901
Cl111	Cl	0.642085	1.259092	-0.742125
H112	H	1.089716	0.415985	-0.106183
Cl113	Cl	1.263355	0.286735	0.713839
H114	H	0.242702	1.671846	0.000052
Cl115	Cl	0.832684	0.387516	0.742371
H116	H	0.512974	1.411329	0.106415
H117	H	1.089795	0.415924	0.690984
H118	H	1.246460	0.415960	0.478299
Cl119	Cl	0.660657	0.642327	-0.103993
Cl120	Cl	0.872144	0.430499	0.183019
H121	H	0.278705	0.774363	0.113090
Cl122	Cl	0.660661	0.566822	-0.104007
Cl123	Cl	0.832671	0.613382	0.516518
H124	H	0.321215	0.887560	0.194886
Cl125	Cl	0.927080	0.610736	0.522132
Cl126	Cl	1.281226	0.394686	0.132452
Cl127	Cl	0.791633	0.853212	-0.464010
Cl128	Cl	0.791642	0.853218	-0.388504
Cl129	Cl	1.263298	0.286732	0.000144
Cl130	Cl	0.683135	0.462701	0.464256
H131	H	1.118510	0.589566	0.304695
Cl132	Cl	0.193567	1.606187	-0.473282
Cl133	Cl	1.122059	0.610703	0.132477
H134	H	0.242654	1.671853	-0.671207
H135	H	0.384976	1.585037	-0.690735
Cl136	Cl	0.547689	1.390173	-0.521884
