data_functionalizedCrystal
_audit_creation_method	'MofGen! by Chris Wilmer'
_symmetry_space_group_name_H-M	'P1'
_symmetry_Int_Tables_number	1
_symmetry_cell_setting	triclinic
loop_
_symmetry_equiv_pos_as_xyz
  x,y,z
_cell_length_a	16.109318
_cell_length_b	16.053789
_cell_length_c	16.109301
_cell_angle_alpha	92.890227
_cell_angle_beta	83.465022
_cell_angle_gamma	92.885241
loop_
_atom_site_label
_atom_site_type_symbol
_atom_site_fract_x
_atom_site_fract_y
_atom_site_fract_z
O1	O	1.106246	0.069363	0.110058
O2	O	1.439579	0.402696	0.443392
O3	O	1.772912	0.736029	0.776725
O4	O	0.864187	0.069380	0.123343
O5	O	1.197520	0.402713	0.456677
O6	O	1.530853	0.736047	0.790010
O7	O	0.991865	0.069362	-0.004330
O8	O	1.325199	0.402696	0.329003
O9	O	1.658532	0.736029	0.662337
O10	O	0.978567	0.069380	0.237732
O11	O	1.311900	0.402714	0.571065
O12	O	1.645234	0.736047	0.904398
O13	O	0.985603	-0.069497	-0.010585
O14	O	1.318936	0.263836	0.322748
O15	O	1.652269	0.597170	0.656081
O16	O	0.857924	-0.069479	0.117088
O17	O	1.191257	0.263854	0.450422
O18	O	1.524590	0.597187	0.783755
O19	O	1.099983	-0.069497	0.103803
O20	O	1.433316	0.263837	0.437137
O21	O	1.766650	0.597170	0.770470
Zn22	Zn	0.977959	-0.091535	0.109453
Zn23	Zn	1.311292	0.241798	0.442786
Zn24	Zn	1.644626	0.575132	0.776119
Zn25	Zn	0.986211	0.091418	0.117694
Zn26	Zn	1.319544	0.424752	0.451027
Zn27	Zn	1.652877	0.758085	0.784361
O28	O	0.972304	-0.069479	0.231477
O29	O	1.305637	0.263854	0.564810
O30	O	1.638971	0.597188	0.898143
C31	C	0.830081	-0.000047	0.119675
C32	C	1.163414	0.333286	0.453009
C33	C	1.496747	0.666619	0.786342
C34	C	0.737786	-0.000041	0.118055
C35	C	1.071120	0.333292	0.451388
C36	C	1.404453	0.666625	0.784721
C37	C	0.442126	0.075636	0.116229
C38	C	0.775459	0.408969	0.449562
C39	C	1.108792	0.742303	0.782895
C40	C	0.528847	0.075641	0.117746
C41	C	0.862181	0.408975	0.451080
C42	C	1.195514	0.742308	0.784413
C43	C	0.522038	-0.075751	0.110915
C44	C	0.855371	0.257582	0.444249
C45	C	1.188705	0.590916	0.777582
C46	C	0.435319	-0.075755	0.109392
C47	C	0.768652	0.257578	0.442725
C48	C	1.101986	0.590911	0.776058
C49	C	0.395365	-0.000059	0.112053
C50	C	0.728698	0.333274	0.445386
C51	C	1.062031	0.666607	0.778720
C52	C	0.568805	-0.000050	0.115094
C53	C	0.902139	0.333284	0.448427
C54	C	1.235472	0.666617	0.781761
C55	C	0.662832	-0.000045	0.116740
C56	C	0.996166	0.333289	0.450073
C57	C	1.329499	0.666622	0.783406
C58	C	0.301332	-0.000064	0.110406
C59	C	0.634665	0.333269	0.443739
C60	C	0.967998	0.666603	0.777072
N61	N	0.972334	-0.216396	0.103828
N62	N	1.305667	0.116938	0.437161
N63	N	1.639000	0.450271	0.770494
C64	C	1.020773	-0.260086	0.152306
C65	C	1.354107	0.073247	0.485639
C66	C	1.687440	0.406581	0.818973
C67	C	1.016850	-0.347493	0.148366
C68	C	1.350183	-0.014160	0.481699
C69	C	1.683516	0.319174	0.815032
C70	C	0.964481	-0.391208	0.095951
C71	C	1.297814	-0.057875	0.429284
C72	C	1.631147	0.275459	0.762618
C73	C	0.916039	-0.347512	0.047467
C74	C	1.249373	-0.014178	0.380800
C75	C	1.582706	0.319155	0.714134
C76	C	0.919968	-0.260106	0.051403
C77	C	1.253301	0.073227	0.384737
C78	C	1.586635	0.406560	0.718070
C79	C	0.947330	-0.652619	0.078765
C80	C	1.280663	-0.319286	0.412098
C81	C	1.613996	0.014048	0.745432
C82	C	0.943403	-0.740031	0.074834
C83	C	1.276736	-0.406697	0.408167
C84	C	1.610069	-0.073364	0.741501
C85	C	1.044215	-0.740006	0.175732
C86	C	1.377548	-0.406672	0.509065
C87	C	1.710881	-0.073339	0.842399
C88	C	1.048135	-0.652599	0.179667
C89	C	1.381468	-0.319265	0.513001
C90	C	1.714802	0.014068	0.846334
C91	C	0.999697	-0.608910	0.131180
C92	C	1.333030	-0.275577	0.464514
C93	C	1.666364	0.057757	0.797847
N94	N	0.960467	-0.480552	0.091924
N95	N	1.293800	-0.147219	0.425257
N96	N	1.627133	0.186115	0.758591
N97	N	1.003716	-0.519567	0.135203
N98	N	1.337049	-0.186234	0.468536
N99	N	1.670383	0.147099	0.801870
C100	C	1.134089	-0.000067	0.107471
C101	C	1.467422	0.333266	0.440805
C102	C	1.800756	0.666600	0.774138
C103	C	1.226383	-0.000068	0.109092
C104	C	1.559717	0.333265	0.442426
C105	C	1.893050	0.666599	0.775759
C106	C	0.988195	-0.000068	-0.038433
C107	C	1.321529	0.333266	0.294901
C108	C	1.654862	0.666599	0.628234
C109	C	0.986580	-0.000069	-0.130728
C110	C	1.319913	0.333265	0.202605
C111	C	1.653247	0.666598	0.535939
N112	N	0.991843	0.216279	0.123312
N113	N	1.325176	0.549612	0.456646
N114	N	1.658509	0.882946	0.789979
C115	C	1.058588	-0.000061	-0.352996
C116	C	1.391921	0.333273	-0.019662
C117	C	1.725254	0.666606	0.313671
C118	C	1.057064	-0.000054	-0.439716
C119	C	1.390397	0.333280	-0.106382
C120	C	1.723730	0.666613	0.226951
C121	C	0.905577	-0.000046	-0.419851
C122	C	1.238910	0.333287	-0.086517
C123	C	1.572243	0.666621	0.246816
C124	C	0.907101	-0.000047	-0.333132
C125	C	1.240435	0.333286	0.000202
C126	C	1.573768	0.666620	0.333535
C127	C	0.983609	-0.000059	-0.299707
C128	C	1.316943	0.333275	0.033626
C129	C	1.650276	0.666608	0.366960
C130	C	0.980561	-0.000051	-0.473146
C131	C	1.313894	0.333283	-0.139813
C132	C	1.647227	0.666616	0.193521
C133	C	0.978908	-0.000043	-0.567172
C134	C	1.312241	0.333290	-0.233838
C135	C	1.645575	0.666624	0.099495
C136	C	0.985262	-0.000065	-0.205675
C137	C	1.318596	0.333269	0.127658
C138	C	1.651929	0.666602	0.460991
C139	C	0.975974	-0.000047	0.265579
C140	C	1.309308	0.333286	0.598913
C141	C	1.642641	0.666620	0.932246
C142	C	0.977590	-0.000040	0.357875
C143	C	1.310923	0.333293	0.691208
C144	C	1.644256	0.666626	1.024542
H145	H	0.566917	0.137280	0.121146
H146	H	0.900250	0.470613	0.454479
H147	H	1.233584	0.803947	0.787812
N148	N	1.104628	-0.605453	0.236192
N149	N	1.437962	-0.272120	0.569526
N150	N	1.771295	0.061214	0.902859
H151	H	1.070053	-0.569187	0.278509
H152	H	1.403386	-0.235854	0.611842
H153	H	1.736720	0.097479	0.945176
H154	H	1.134710	-0.646450	0.266245
H155	H	1.468043	-0.313117	0.599578
H156	H	1.801377	0.020217	0.932911
N157	N	1.096458	-0.787126	0.228025
N158	N	1.429791	-0.453793	0.561358
N159	N	1.763124	-0.120459	0.894692
H160	H	1.086025	-0.849131	0.217580
H161	H	1.419358	-0.515797	0.550913
H162	H	1.752692	-0.182464	0.884247
H163	H	1.157613	-0.771843	0.212308
H164	H	1.490946	-0.438510	0.545641
H165	H	1.824279	-0.105176	0.878974
N166	N	0.823061	-0.000037	-0.455902
N167	N	1.156394	0.333296	-0.122569
N168	N	1.489727	0.666629	0.210765
H169	H	0.833470	-0.000040	-0.518925
H170	H	1.166804	0.333293	-0.185591
H171	H	1.500137	0.666627	0.147742
H172	H	0.787933	-0.051513	-0.438728
H173	H	1.121267	0.281820	-0.105395
H174	H	1.454600	0.615153	0.227939
N175	N	1.137933	-0.000055	-0.497192
N176	N	1.471266	0.333278	-0.163859
N177	N	1.804600	0.666611	0.169474
H178	H	1.186628	-0.000063	-0.462856
H179	H	1.519961	0.333270	-0.129522
H180	H	1.853295	0.666604	0.203811
H181	H	1.138278	-0.051531	-0.535930
H182	H	1.471611	0.281802	-0.202596
H183	H	1.804944	0.615136	0.130737
H184	H	0.846041	-0.000043	-0.289741
H185	H	1.179375	0.333290	0.043592
H186	H	1.512708	0.666624	0.376925
H187	H	0.409598	0.137272	0.118394
H188	H	0.742931	0.470606	0.451728
H189	H	1.076265	0.803939	0.785061
N190	N	1.077263	-0.212947	0.208839
N191	N	1.410596	0.120387	0.542172
N192	N	1.743930	0.453720	0.875506
H193	H	1.119595	-0.176682	0.174288
H194	H	1.452929	0.156651	0.507621
H195	H	1.786262	0.489984	0.840955
H196	H	1.042628	-0.176729	0.251147
H197	H	1.375961	0.156604	0.584480
H198	H	1.709294	0.489938	0.917814
N199	N	0.565131	-0.157391	0.108052
N200	N	0.898464	0.175942	0.441385
N201	N	1.231798	0.509276	0.774719
H202	H	0.627163	-0.145904	0.109655
H203	H	0.960496	0.187429	0.442988
H204	H	1.293829	0.520763	0.776321
H205	H	0.541729	-0.190443	0.157805
H206	H	0.875062	0.142891	0.491138
H207	H	1.208396	0.476224	0.824472
H208	H	0.397244	-0.137399	0.105990
H209	H	0.730578	0.195934	0.439324
H210	H	1.063911	0.529267	0.772657
N211	N	0.859556	-0.394665	-0.009063
N212	N	1.192889	-0.061332	0.324271
N213	N	1.526223	0.272002	0.657604
H214	H	0.799747	-0.379456	0.007999
H215	H	1.133080	-0.046122	0.341332
H216	H	1.466414	0.287211	0.674666
H217	H	0.876729	-0.379444	-0.068846
H218	H	1.210063	-0.046111	0.264488
H219	H	1.543396	0.287223	0.597821
N220	N	1.141102	-0.000072	-0.316942
N221	N	1.474435	0.333262	0.016391
N222	N	1.807769	0.666595	0.349725
H223	H	1.188369	-0.000071	-0.363862
H224	H	1.521702	0.333263	-0.030529
H225	H	1.855035	0.666596	0.302804
H226	H	1.147355	0.051404	-0.279070
H227	H	1.480688	0.384737	0.054263
H228	H	1.814021	0.718070	0.387596
H229	H	0.900753	-0.775621	0.032152
H230	H	1.234087	-0.442288	0.365485
H231	H	1.567420	-0.108954	0.698818
H232	H	0.907888	-0.617058	0.039283
H233	H	1.241221	-0.283725	0.372616
H234	H	1.574555	0.049609	0.705949
H235	H	1.056296	-0.383062	0.187840
H236	H	1.389629	-0.049728	0.521174
H237	H	1.722963	0.283605	0.854507
H238	H	0.880523	-0.224535	0.011927
H239	H	1.213856	0.108799	0.345261
H240	H	1.547189	0.442132	0.678594
