data_functionalizedCrystal
_audit_creation_method	'MofGen! by Chris Wilmer'
_symmetry_space_group_name_H-M	'P1'
_symmetry_Int_Tables_number	1
_symmetry_cell_setting	triclinic
loop_
_symmetry_equiv_pos_as_xyz
  x,y,z
_cell_length_a	19.288867
_cell_length_b	10.654558
_cell_length_c	18.366186
_cell_angle_alpha	89.993708
_cell_angle_beta	89.992441
_cell_angle_gamma	83.812614
loop_
_atom_site_label
_atom_site_type_symbol
_atom_site_fract_x
_atom_site_fract_y
_atom_site_fract_z
O1	O	0.922380	0.156668	-0.060524
O2	O	0.720258	0.177798	-0.060531
O3	O	0.825964	-0.015605	-0.060523
O4	O	0.816675	0.350071	-0.060533
O5	O	0.825945	-0.015614	0.060577
O6	O	0.720240	0.177788	0.060568
O7	O	0.922362	0.156659	0.060575
Zn8	Zn	0.821298	0.167222	0.079799
Zn9	Zn	0.821322	0.167234	-0.079755
O10	O	0.816657	0.350061	0.060566
C11	C	0.694368	0.177113	0.000017
C12	C	0.617251	0.175071	0.000015
C13	C	0.061599	0.160366	-0.065988
C14	C	0.134060	0.162277	-0.065990
C15	C	0.170285	0.163234	0.000021
C16	C	0.134046	0.162246	0.066039
C17	C	0.061588	0.160322	0.066040
C18	C	0.280107	0.239828	0.050592
C19	C	0.352563	0.241760	0.050588
C20	C	0.393769	0.169162	0.000021
C21	C	0.362509	0.094649	-0.050555
C22	C	0.290051	0.092725	-0.050554
C23	C	0.248853	0.165319	0.000027
C24	C	0.508569	0.172213	-0.065997
C25	C	0.581031	0.174117	-0.065997
C26	C	0.581015	0.174098	0.066035
C27	C	0.508555	0.172182	0.066033
C28	C	0.472336	0.171245	0.000015
C29	C	0.825271	-0.062393	0.000027
C30	C	0.823227	-0.201792	0.000026
C31	C	0.822256	-0.267298	0.066034
C32	C	0.820341	-0.398280	0.066027
C33	C	0.820366	-0.398237	-0.066002
C34	C	0.822286	-0.267259	-0.065994
C35	C	0.858325	-0.587154	0.145327
C36	C	0.857342	-0.652661	0.211339
C37	C	0.817326	-0.600320	0.269622
C38	C	0.778277	-0.482469	0.261897
C39	C	0.779254	-0.416966	0.195884
C40	C	0.819286	-0.469310	0.137603
C41	C	0.784297	-0.078381	-0.145290
C42	C	0.785269	-0.012875	-0.211303
C43	C	0.825280	-0.065213	-0.269593
C44	C	0.864318	-0.183066	-0.261874
C45	C	0.863346	-0.248572	-0.195861
C46	C	0.823337	-0.196225	-0.137571
C47	C	0.948252	0.157344	0.000025
C48	C	1.025369	0.159386	0.000022
C49	C	0.817349	0.396849	0.000015
C50	C	0.819393	0.536248	0.000011
N51	N	0.821287	0.167213	0.188690
N52	N	0.821339	0.167234	-0.188646
C53	C	0.868109	0.081616	0.226794
C54	C	0.868113	0.081610	0.303022
C55	C	0.821302	0.167223	0.341143
C56	C	0.774472	0.252827	0.303029
C57	C	0.774464	0.252821	0.226803
C58	C	0.812755	0.281644	0.461899
C59	C	0.812768	0.281651	0.538124
C60	C	0.821322	0.167239	0.576250
C61	C	0.829879	0.052815	0.538141
C62	C	0.829871	0.052810	0.461915
C63	C	0.821305	0.167238	0.423797
C64	C	0.868151	0.081629	0.697009
C65	C	0.868151	0.081621	0.773238
C66	C	0.774513	0.252849	0.773244
C67	C	0.774510	0.252845	0.697016
C68	C	0.821333	0.167236	0.658904
H69	H	0.032115	0.159598	-0.119745
H70	H	0.163545	0.163023	0.119786
Br71	Br	0.801163	0.436937	0.589836
H72	H	0.736386	0.322551	0.665990
H73	H	0.896890	-0.225692	-0.309343
H74	H	0.906276	0.011917	0.665976
Br75	Br	0.819092	-0.487093	-0.155596
H76	H	0.816526	-0.653666	0.323370
H77	H	0.889139	-0.748618	0.217624
Br78	Br	0.183241	0.163607	-0.155582
H79	H	0.479079	0.171446	-0.119753
Br80	Br	0.726268	-0.257034	0.185396
H81	H	0.895132	-0.344540	-0.189582
H82	H	0.378007	0.302464	0.091755
Br83	Br	0.841476	-0.102470	0.410198
H84	H	0.836844	-0.040350	0.569182
H85	H	0.805777	0.374818	0.430864
Br86	Br	0.710976	0.369025	0.824973
Br87	Br	0.912647	-0.658188	0.066232
H88	H	0.246563	0.298940	0.091778
H89	H	0.753520	0.083132	-0.217566
H90	H	0.264603	0.032052	-0.091734
H91	H	0.736356	0.322532	0.334071
Br92	Br	0.710914	0.368996	0.175085
H93	H	0.826037	-0.011896	-0.323357
Br94	Br	0.723951	-0.411455	0.340995
Br95	Br	0.729999	-0.007334	-0.066177
H96	H	0.906233	0.011905	0.195765
H97	H	0.396058	0.035537	-0.091734
H98	H	0.032089	0.159529	0.119795
H99	H	0.610530	0.174905	-0.119752
H100	H	0.610509	0.174872	0.119782
Br101	Br	0.459380	0.170869	0.155623
H102	H	0.823017	-0.213997	0.119792
Br103	Br	0.931694	-0.034566	0.824956
Br104	Br	0.931662	-0.034569	0.354744
