data_functionalizedCrystal
_audit_creation_method	'MofGen! by Chris Wilmer'
_symmetry_space_group_name_H-M	'P1'
_symmetry_Int_Tables_number	1
_symmetry_cell_setting	triclinic
loop_
_symmetry_equiv_pos_as_xyz
  x,y,z
_cell_length_a	15.995292
_cell_length_b	15.995292
_cell_length_c	15.186229
_cell_angle_alpha	89.999448
_cell_angle_beta	89.995469
_cell_angle_gamma	83.468616
loop_
_atom_site_label
_atom_site_type_symbol
_atom_site_fract_x
_atom_site_fract_y
_atom_site_fract_z
O1	O	1.110992	0.107697	-0.073246
O2	O	0.867207	0.121075	-0.073242
O3	O	0.995789	-0.007506	-0.073245
O4	O	0.982410	0.236278	-0.073243
O5	O	0.995781	-0.007508	0.073212
O6	O	0.867199	0.121074	0.073215
O7	O	1.110984	0.107695	0.073211
Zn8	Zn	0.989090	0.114384	0.096467
Zn9	Zn	0.989101	0.114386	-0.096497
O10	O	0.982402	0.236277	0.073215
C11	C	0.836008	0.120530	-0.000013
C12	C	0.743055	0.118898	-0.000011
C13	C	0.405318	0.112896	-0.000021
C14	C	0.428611	0.205703	-0.000347
C15	C	0.525286	0.207467	-0.000013
C16	C	0.572873	0.115874	-0.000017
C17	C	0.543776	0.069474	0.083614
C18	C	0.446986	0.068357	0.083680
C19	C	0.447141	0.066464	-0.082869
C20	C	0.543632	0.069903	-0.083971
C21	C	0.667569	0.117552	-0.000011
C22	C	0.310622	0.111215	-0.000021
C23	C	0.995240	-0.038703	-0.000019
C24	C	0.993608	-0.131655	-0.000026
C25	C	0.987607	-0.469393	-0.000017
C26	C	1.080413	-0.446100	0.000308
C27	C	1.082177	-0.349424	-0.000025
C28	C	0.990584	-0.301837	-0.000021
C29	C	0.944190	-0.330928	-0.083652
C30	C	0.943073	-0.427718	-0.083719
C31	C	0.941168	-0.427577	0.082831
C32	C	0.944607	-0.331085	0.083933
C33	C	0.992263	-0.207141	-0.000026
C34	C	0.985926	-0.564088	-0.000018
C35	C	1.142183	0.108240	-0.000020
C36	C	1.235136	0.109873	-0.000027
C37	C	0.982951	0.267473	-0.000014
C38	C	0.984583	0.360426	-0.000013
N39	N	0.989088	0.114382	0.228159
N40	N	0.989109	0.114382	-0.228190
C41	C	1.046044	0.057465	0.453880
C42	C	1.046046	0.057463	0.546070
C43	C	0.932148	0.171301	0.546082
C44	C	0.932142	0.171299	0.453894
C45	C	0.989095	0.114381	0.407796
C46	C	0.989103	0.114382	0.592173
C47	C	0.989106	0.114380	0.692130
C48	C	0.989091	0.114382	0.307833
H49	H	0.543678	0.244023	0.060039
H50	H	0.885780	0.217643	0.583625
H51	H	0.544308	0.243801	-0.059965
Cl52	Cl	1.138614	-0.321013	-0.092750
Cl53	Cl	0.403415	0.111262	-0.180736
Cl54	Cl	0.835700	-0.449156	0.083708
Cl55	Cl	0.383792	0.260630	0.091729
H56	H	0.975211	-0.454540	-0.146237
Cl57	Cl	0.860539	0.242852	0.395954
H58	H	0.400611	0.241476	-0.060323
Cl59	Cl	0.594549	-0.033319	-0.091772
H60	H	0.970391	-0.455672	0.146223
Cl61	Cl	1.117638	-0.014091	0.395932
H62	H	0.420158	0.100490	0.146198
H63	H	0.432449	0.000310	0.087477
Cl64	Cl	0.592989	-0.034591	0.088411
H65	H	0.978389	-0.312527	0.145802
H66	H	1.118512	-0.330408	0.059923
H67	H	0.875027	-0.442254	-0.087505
Cl68	Cl	0.841386	-0.280165	0.091737
Cl69	Cl	0.574725	0.119219	0.179711
H70	H	1.092418	0.011115	0.583590
Cl71	Cl	0.425564	-0.039005	-0.083745
Cl72	Cl	0.572335	0.122034	-0.179497
H73	H	1.116182	-0.474105	0.060283
H74	H	1.115990	-0.475124	-0.059332
Cl75	Cl	0.840131	-0.281702	-0.088457
Cl76	Cl	0.993943	-0.299972	-0.179749
