data_functionalizedCrystal
_audit_creation_method	'MofGen! by Chris Wilmer'
_symmetry_space_group_name_H-M	'P1'
_symmetry_Int_Tables_number	1
_symmetry_cell_setting	triclinic
loop_
_symmetry_equiv_pos_as_xyz
  x,y,z
_cell_length_a	14.519731
_cell_length_b	14.519731
_cell_length_c	7.088929
_cell_angle_alpha	83.763267
_cell_angle_beta	96.215673
_cell_angle_gamma	83.688853
loop_
_atom_site_label
_atom_site_type_symbol
_atom_site_fract_x
_atom_site_fract_y
_atom_site_fract_z
O1	O	1.214413	0.130448	-0.158997
O2	O	1.464413	0.380448	0.091003
O3	O	1.714413	0.630448	0.341003
O4	O	1.964413	0.880448	0.591003
O5	O	0.945940	0.144664	-0.159001
O6	O	1.195940	0.394664	0.090999
O7	O	1.445940	0.644664	0.340999
O8	O	1.695940	0.894664	0.590999
O9	O	1.087286	0.003318	-0.158981
O10	O	1.337286	0.253318	0.091019
O11	O	1.587286	0.503318	0.341019
O12	O	1.837286	0.753318	0.591019
O13	O	1.073068	0.271794	-0.159016
O14	O	1.323068	0.521794	0.090984
O15	O	1.573068	0.771794	0.340984
O16	O	1.823068	1.021794	0.590984
O17	O	1.106175	-0.015614	0.158996
O18	O	1.356175	0.234386	0.408996
O19	O	1.606175	0.484386	0.658996
O20	O	1.856175	0.734386	0.908996
O21	O	0.964829	0.125732	0.158977
O22	O	1.214829	0.375732	0.408977
O23	O	1.464829	0.625732	0.658977
O24	O	1.714829	0.875732	0.908977
O25	O	1.233303	0.111516	0.158981
O26	O	1.483303	0.361516	0.408981
O27	O	1.733303	0.611516	0.658981
O28	O	1.983303	0.861516	0.908981
Cu29	Cu	1.100791	0.116895	0.188013
Cu30	Cu	1.350791	0.366895	0.438013
Cu31	Cu	1.600791	0.616895	0.688013
Cu32	Cu	1.850791	0.866895	0.938013
Cu33	Cu	1.078452	0.139285	-0.188033
Cu34	Cu	1.328452	0.389285	0.061967
Cu35	Cu	1.578452	0.639285	0.311967
Cu36	Cu	1.828452	0.889285	0.561967
O37	O	1.091957	0.252861	0.158961
O38	O	1.341957	0.502861	0.408961
O39	O	1.591957	0.752861	0.658961
O40	O	1.841957	1.002861	0.908961
C41	C	0.921025	0.134532	-0.000012
C42	C	1.171025	0.384532	0.249988
C43	C	1.421025	0.634532	0.499988
C44	C	1.671025	0.884532	0.749988
C45	C	0.818645	0.132536	-0.000013
C46	C	1.068645	0.382536	0.249987
C47	C	1.318645	0.632536	0.499987
C48	C	1.568645	0.882536	0.749987
C49	C	0.735500	0.130914	-0.000020
C50	C	0.985500	0.380914	0.249980
C51	C	1.235500	0.630914	0.499980
C52	C	1.485500	0.880914	0.749980
C53	C	0.631191	0.128888	-0.000021
C54	C	0.881191	0.378888	0.249979
C55	C	1.131191	0.628888	0.499979
C56	C	1.381191	0.878888	0.749979
C57	C	0.548052	0.127279	-0.000020
C58	C	0.798052	0.377279	0.249980
C59	C	1.048052	0.627279	0.499980
C60	C	1.298052	0.877279	0.749980
C61	C	0.443736	0.125253	-0.000024
C62	C	0.693736	0.375253	0.249976
C63	C	0.943736	0.625253	0.499976
C64	C	1.193736	0.875253	0.749976
C65	C	1.096064	-0.040507	0.000008
C66	C	1.346064	0.209493	0.250008
C67	C	1.596064	0.459493	0.500008
C68	C	1.846064	0.709493	0.750008
C69	C	1.094068	-0.142888	0.000009
C70	C	1.344068	0.107112	0.250009
C71	C	1.594068	0.357112	0.500009
C72	C	1.844068	0.607112	0.750009
C73	C	1.092446	-0.226032	0.000004
C74	C	1.342446	0.023968	0.250004
C75	C	1.592446	0.273968	0.500004
C76	C	1.842446	0.523968	0.750004
C77	C	1.090419	-0.330340	-0.000010
C78	C	1.340419	-0.080340	0.249990
C79	C	1.590419	0.169660	0.499990
C80	C	1.840419	0.419660	0.749990
C81	C	1.088810	-0.413478	-0.000022
C82	C	1.338810	-0.163478	0.249978
C83	C	1.588810	0.086522	0.499978
C84	C	1.838810	0.336522	0.749978
C85	C	1.086783	-0.517793	-0.000034
C86	C	1.336783	-0.267793	0.249966
C87	C	1.586783	-0.017793	0.499966
C88	C	1.836783	0.232207	0.749966
C89	C	1.258217	0.121648	-0.000012
C90	C	1.508217	0.371648	0.249988
C91	C	1.758217	0.621648	0.499988
C92	C	2.008217	0.871648	0.749988
C93	C	1.360597	0.123645	-0.000024
C94	C	1.610597	0.373645	0.249976
C95	C	1.860597	0.623645	0.499976
C96	C	2.110597	0.873645	0.749976
C97	C	1.083178	0.296687	-0.000032
C98	C	1.333178	0.546687	0.249968
C99	C	1.583178	0.796687	0.499968
C100	C	1.833178	1.046687	0.749968
C101	C	1.085173	0.399069	-0.000046
C102	C	1.335173	0.649069	0.249954
C103	C	1.585173	0.899069	0.499954
C104	C	1.835173	1.149069	0.749954
N105	N	1.116509	0.101147	0.452503
N106	N	1.366509	0.351147	0.702503
N107	N	1.616509	0.601147	0.952503
N108	N	1.866509	0.851147	1.202503
N109	N	1.062741	0.155026	-0.452523
N110	N	1.312741	0.405026	-0.202523
N111	N	1.562741	0.655026	0.047477
N112	N	1.812741	0.905026	0.297477
H113	H	1.007015	0.210859	0.465823
H114	H	1.257015	0.460859	0.715823
H115	H	1.507015	0.710859	0.965823
H116	H	1.757015	0.960859	1.215823
H117	H	1.172245	0.045316	0.534166
H118	H	1.422245	0.295316	0.784166
H119	H	1.672245	0.545316	1.034166
H120	H	1.922245	0.795316	1.284166
