data_functionalizedCrystal
_audit_creation_method	'MofGen! by Chris Wilmer'
_symmetry_space_group_name_H-M	'P1'
_symmetry_Int_Tables_number	1
_symmetry_cell_setting	triclinic
loop_
_symmetry_equiv_pos_as_xyz
  x,y,z
_cell_length_a	29.839135
_cell_length_b	29.839131
_cell_length_c	11.169409
_cell_angle_alpha	89.959881
_cell_angle_beta	89.973595
_cell_angle_gamma	90.043950
loop_
_atom_site_label
_atom_site_type_symbol
_atom_site_fract_x
_atom_site_fract_y
_atom_site_fract_z
Zn1	Zn	0.686768	-0.178787	-0.678689
Zn2	Zn	0.686686	-0.253928	-0.477978
Zn3	Zn	0.611637	-0.178816	-0.478000
Zn4	Zn	0.611599	-0.253894	-0.678600
O5	O	0.649172	-0.216356	-0.578317
O6	O	0.749624	-0.188756	-0.652092
O7	O	0.676712	-0.243991	-0.310031
O8	O	0.621653	-0.115945	-0.504668
O9	O	0.749564	-0.243962	-0.504631
O10	O	0.676852	-0.115923	-0.652113
O11	O	0.621573	-0.188807	-0.310047
O12	O	0.548764	-0.188773	-0.504582
O13	O	0.621589	-0.243904	-0.846562
O14	O	0.548737	-0.243932	-0.651962
O15	O	0.676815	-0.188723	-0.846627
O16	O	0.676675	-0.316791	-0.504545
O17	O	0.621509	-0.316765	-0.651941
C18	C	0.532450	-0.216353	-0.578265
C19	C	0.482515	-0.216362	-0.578272
C20	C	0.172900	-0.187654	-0.655213
C21	C	-0.014773	-0.187657	-0.655247
O22	O	-0.039013	-0.163238	-0.720608
N23	N	-0.038270	-0.216357	-0.578361
C24	C	-0.014846	-0.245055	-0.501455
O25	O	-0.039138	-0.269463	-0.436051
C26	C	0.172826	-0.245050	-0.501416
C27	C	0.196321	-0.216351	-0.578315
C28	C	0.196395	-0.158957	-0.732105
C29	C	0.243311	-0.158959	-0.732101
C30	C	0.266731	-0.187656	-0.655203
C31	C	0.243237	-0.216353	-0.578311
C32	C	0.196250	-0.273746	-0.424505
C33	C	0.243171	-0.273741	-0.424500
C34	C	0.266665	-0.245043	-0.501399
C35	C	0.313573	-0.245051	-0.501409
N36	N	0.337070	-0.216352	-0.578295
C37	C	0.313649	-0.187654	-0.655192
C38	C	-0.113376	-0.245057	-0.501483
C39	C	-0.160294	-0.245059	-0.501494
C40	C	-0.160218	-0.187660	-0.655284
C41	C	-0.113299	-0.187660	-0.655278
C42	C	-0.089879	-0.216357	-0.578369
C43	C	0.412175	-0.187659	-0.655177
C44	C	0.459095	-0.187664	-0.655169
C45	C	0.459014	-0.245062	-0.501375
C46	C	0.412099	-0.245059	-0.501387
C47	C	0.388680	-0.216354	-0.578292
O48	O	0.337842	-0.269454	-0.436073
O49	O	0.337949	-0.163243	-0.720568
C50	C	0.125985	-0.187653	-0.655217
C51	C	0.102490	-0.216349	-0.578325
C52	C	0.125911	-0.245046	-0.501428
C53	C	0.055572	-0.216351	-0.578336
C54	C	0.032152	-0.187653	-0.655233
C55	C	0.055649	-0.158954	-0.732119
C56	C	0.102564	-0.158955	-0.732115
C57	C	0.102414	-0.273746	-0.424541
C58	C	0.055498	-0.273743	-0.424553
C59	C	0.032078	-0.245045	-0.501451
C60	C	0.649091	-0.333079	-0.578257
C61	C	0.649098	-0.383013	-0.578272
C62	C	0.677950	-0.692657	-0.501680
C63	C	0.678005	-0.880330	-0.501726
O64	O	0.702472	-0.904595	-0.436559
N65	N	0.649265	-0.903798	-0.578407
C66	C	0.620512	-0.880345	-0.655087
O67	O	0.596072	-0.904612	-0.720319
C68	C	0.620459	-0.692673	-0.655046
C69	C	0.649197	-0.669207	-0.578351
C70	C	0.706686	-0.669191	-0.424992
C71	C	0.706670	-0.622276	-0.424977
C72	C	0.677918	-0.598826	-0.501649
C73	C	0.649182	-0.622292	-0.578336
C74	C	0.591708	-0.669221	-0.731731
C75	C	0.591698	-0.622300	-0.731716
C76	C	0.620437	-0.598834	-0.655022
C77	C	0.620413	-0.551927	-0.654992
N78	N	0.649153	-0.528459	-0.578311
C79	C	0.677905	-0.551908	-0.501640
C80	C	0.620541	-0.978876	-0.655102
C81	C	0.620554	-1.025794	-0.655111
C82	C	0.678048	-1.025775	-0.501751
C83	C	0.678032	-0.978857	-0.501737
C84	C	0.649281	-0.955408	-0.578421
C85	C	0.677870	-0.453382	-0.501612
C86	C	0.677850	-0.406463	-0.501600
C87	C	0.620358	-0.406485	-0.654964
C88	C	0.620376	-0.453401	-0.654972
C89	C	0.649135	-0.476848	-0.578292
O90	O	0.595963	-0.527632	-0.720135
O91	O	0.702349	-0.527633	-0.436437
C92	C	0.677966	-0.739572	-0.501695
C93	C	0.649229	-0.763038	-0.578382
C94	C	0.620477	-0.739588	-0.655054
C95	C	0.649242	-0.809956	-0.578392
C96	C	0.677994	-0.833406	-0.501720
C97	C	0.706734	-0.809938	-0.425039
C98	C	0.706718	-0.763022	-0.425023
C99	C	0.591737	-0.763057	-0.731735
C100	C	0.591755	-0.809972	-0.731743
C101	C	0.620507	-0.833422	-0.655072
C102	C	0.766351	-0.216360	-0.578369
C103	C	0.816285	-0.216361	-0.578391
C104	C	0.649207	-0.216306	-0.891359
C105	C	0.649222	-0.216285	-1.024759
C106	C	0.649266	-0.099178	-0.578403
C107	C	0.649306	-0.049243	-0.578439
C108	C	0.649164	-0.216373	-0.266492
C109	C	0.649236	-0.216268	-0.133093
H110	H	0.262237	-0.297110	-0.361867
Cl111	Cl	-0.083768	-0.151580	-0.751953
H112	H	0.478092	-0.268428	-0.438769
Cl113	Cl	0.584238	-0.482901	-0.751364
H114	H	0.730119	-0.743920	-0.362572
Cl115	Cl	0.714162	-0.949362	-0.405320
Cl116	Cl	0.166960	-0.122876	-0.828792
Cl117	Cl	0.742807	-0.592783	-0.328574
H118	H	-0.094312	-0.268427	-0.438850
H119	H	-0.179295	-0.164293	-0.717898
H120	H	0.568324	-0.743967	-0.794172
Cl121	Cl	0.713981	-0.376966	-0.405177
H122	H	0.392968	-0.268432	-0.438782
H123	H	0.036571	-0.135589	-0.794736
Cl124	Cl	0.025968	-0.309824	-0.327866
Cl125	Cl	0.714192	-1.055263	-0.405363
H126	H	0.701289	-0.472468	-0.439175
H127	H	0.597148	-1.044895	-0.717552
Cl128	Cl	0.742837	-0.698662	-0.328592
H129	H	0.121689	-0.135586	-0.794734
Cl130	Cl	0.382742	-0.151573	-0.751861
H131	H	0.262436	-0.135589	-0.794719
H132	H	0.121478	-0.297115	-0.361919
H133	H	0.597127	-0.959787	-0.717549
Cl134	Cl	0.555583	-0.698709	-0.828168
Cl135	Cl	0.555552	-0.592824	-0.828127
H136	H	0.730143	-0.829039	-0.362607
H137	H	-0.179420	-0.268433	-0.438888
H138	H	0.177128	-0.297115	-0.361883
Cl139	Cl	0.584217	-0.376997	-0.751352
Cl140	Cl	0.555623	-0.839466	-0.828169
H141	H	0.478222	-0.164294	-0.717794
