data_functionalizedCrystal
_audit_creation_method	'MofGen! by Chris Wilmer'
_symmetry_space_group_name_H-M	'P1'
_symmetry_Int_Tables_number	1
_symmetry_cell_setting	triclinic
loop_
_symmetry_equiv_pos_as_xyz
  x,y,z
_cell_length_a	14.044191
_cell_length_b	10.489746
_cell_length_c	12.503572
_cell_angle_alpha	93.558979
_cell_angle_beta	86.162165
_cell_angle_gamma	88.866539
loop_
_atom_site_label
_atom_site_type_symbol
_atom_site_fract_x
_atom_site_fract_y
_atom_site_fract_z
O1	O	1.265230	0.301028	-0.089270
O2	O	1.765230	0.801028	0.410730
O3	O	0.989186	0.289913	-0.089283
O4	O	1.489186	0.789913	0.410717
O5	O	1.133486	0.110511	-0.089268
O6	O	1.633486	0.610511	0.410732
O7	O	1.120930	0.480430	-0.089285
O8	O	1.620930	0.980430	0.410715
O9	O	1.122634	0.124027	0.089373
O10	O	1.622634	0.624027	0.589373
O11	O	0.978333	0.303429	0.089358
O12	O	1.478333	0.803429	0.589358
O13	O	1.254378	0.314545	0.089371
O14	O	1.754378	0.814545	0.589371
Cu15	Cu	1.115365	0.310221	0.105676
Cu16	Cu	1.615365	0.810221	0.605676
Cu17	Cu	1.128199	0.294236	-0.105588
Cu18	Cu	1.628199	0.794236	0.394412
O19	O	1.110078	0.493947	0.089356
O20	O	1.610078	0.993947	0.589356
C21	C	0.948412	0.291809	0.000036
C22	C	1.448412	0.791809	0.500036
C23	C	0.843087	0.277305	0.000031
C24	C	1.343087	0.777305	0.500031
C25	C	0.593322	0.353651	0.000038
C26	C	1.093322	0.853651	0.500038
C27	C	0.650248	0.250811	0.000041
C28	C	1.150248	0.750811	0.500041
C29	C	0.757553	0.265556	0.000035
C30	C	1.257553	0.765556	0.500035
C31	C	0.486007	0.338908	0.000043
C32	C	0.986007	0.838908	0.500043
C33	C	1.127111	0.069641	0.000052
C34	C	1.627111	0.569641	0.500052
C35	C	1.124270	-0.072277	0.000051
C36	C	1.624270	0.427723	0.500051
C37	C	1.030775	-0.234622	0.000033
C38	C	1.530775	0.265378	0.500033
C39	C	1.082869	-0.159151	-0.088042
C40	C	1.582869	0.340849	0.411958
C41	C	1.072192	-0.145864	0.088084
C42	C	1.572192	0.354136	0.588084
C43	C	1.171357	-0.249671	-0.088120
C44	C	1.671357	0.250329	0.411880
C45	C	1.160662	-0.236384	0.088085
C46	C	1.660662	0.263616	0.588085
C47	C	1.212823	-0.160958	-0.000012
C48	C	1.712823	0.339042	0.499988
C49	C	1.295152	0.312648	0.000050
C50	C	1.795152	0.812648	0.500050
C51	C	1.400477	0.327152	0.000048
C52	C	1.900477	0.827152	0.500048
C53	C	1.116453	0.534816	0.000034
C54	C	1.616453	1.034816	0.500034
C55	C	1.119294	0.676733	0.000027
C56	C	1.619294	1.176733	0.500027
N57	N	1.106345	0.321464	0.254267
N58	N	1.606345	0.821464	0.754267
N59	N	1.137226	0.282984	-0.254179
N60	N	1.637226	0.782984	0.245821
C61	C	1.093077	0.338013	0.473381
C62	C	1.593077	0.838013	0.973381
C63	C	1.150491	0.266438	0.526714
C64	C	1.650491	0.766438	1.026714
C65	C	1.143109	0.275647	0.648636
C66	C	1.643109	0.775647	1.148636
C67	C	1.100458	0.328806	0.351447
C68	C	1.600458	0.828806	0.851447
H69	H	0.618399	0.151688	-0.000031
H70	H	1.118399	0.651688	0.499969
N71	N	1.222949	0.176107	0.465917
N72	N	1.722949	0.676107	0.965917
H73	H	1.218024	0.182249	0.386175
H74	H	1.718024	0.682249	0.886175
H75	H	1.289203	0.199875	0.485502
H76	H	1.789203	0.699875	0.985502
N77	N	0.635506	0.484938	0.000025
N78	N	1.135506	0.984938	0.500025
H79	H	0.707294	0.476992	0.000019
H80	H	1.207294	0.976992	0.500019
H81	H	0.617694	0.527801	-0.066205
H82	H	1.117694	1.027801	0.433795
H83	H	1.289854	-0.128671	-0.000056
H84	H	1.789854	0.371329	0.499944
N85	N	0.928838	-0.277762	-0.000094
N86	N	1.428838	0.222238	0.499906
H87	H	0.899557	-0.249797	-0.066698
H88	H	1.399557	0.250203	0.433302
H89	H	0.927705	-0.373945	0.000619
H90	H	1.427705	0.126055	0.500619
H91	H	1.030284	-0.100578	0.162545
H92	H	1.530284	0.399422	0.662545
N93	N	1.039374	-0.114047	-0.186684
N94	N	1.539374	0.385953	0.313316
H95	H	0.970653	-0.140677	-0.186626
H96	H	1.470653	0.359323	0.313374
H97	H	1.042241	-0.017889	-0.186248
H98	H	1.542241	0.482111	0.313752
N99	N	1.226824	-0.309439	-0.186866
N100	N	1.726824	0.190561	0.313134
H101	H	1.224545	-0.405570	-0.186282
H102	H	1.724545	0.094430	0.313718
H103	H	1.197665	-0.280614	-0.253258
H104	H	1.697665	0.219386	0.246742
H105	H	1.038382	0.406203	0.519283
H106	H	1.538382	0.906203	1.019283
N107	N	1.204124	-0.281525	0.186727
N108	N	1.704124	0.218475	0.686727
H109	H	1.155187	-0.329756	0.230080
H110	H	1.655187	0.170244	0.730080
H111	H	1.261098	-0.339609	0.164205
H112	H	1.761098	0.160391	0.664205
