data_functionalizedCrystal
_audit_creation_method	'MofGen! by Chris Wilmer'
_symmetry_space_group_name_H-M	'P1'
_symmetry_Int_Tables_number	1
_symmetry_cell_setting	triclinic
loop_
_symmetry_equiv_pos_as_xyz
  x,y,z
_cell_length_a	10.540514
_cell_length_b	9.016244
_cell_length_c	10.723024
_cell_angle_alpha	89.999867
_cell_angle_beta	95.508485
_cell_angle_gamma	90.007876
loop_
_atom_site_label
_atom_site_type_symbol
_atom_site_fract_x
_atom_site_fract_y
_atom_site_fract_z
O1	O	1.685821	0.123352	-0.175709
O2	O	1.316396	0.123350	-0.192312
O3	O	1.509630	0.123349	-0.002438
O4	O	1.492587	0.123353	-0.365583
O5	O	1.509601	-0.123332	-0.002442
O6	O	1.316367	-0.123331	-0.192316
O7	O	1.685793	-0.123329	-0.175713
Cu8	Cu	1.501078	-0.145854	-0.184015
Cu9	Cu	1.501111	0.145875	-0.184010
O10	O	1.492559	-0.123328	-0.365587
C11	C	1.269079	0.000009	-0.191076
C12	C	1.128131	0.000009	-0.187370
N13	N	1.501063	-0.351040	-0.184018
C14	C	1.057355	0.000013	-0.323166
C15	C	0.910744	0.000581	-0.319358
C16	C	0.935847	0.140609	-0.113516
C17	C	1.082384	0.140720	-0.118287
C18	C	1.082756	-0.139812	-0.116283
C19	C	0.935777	-0.141652	-0.114972
C20	C	1.397379	-0.586072	-0.285247
C21	C	1.397608	-0.414181	-0.285626
C22	C	1.633772	-0.413378	-0.213628
C23	C	1.633206	-0.585322	-0.214345
C24	C	1.473356	-0.585585	-0.052847
C25	C	1.470311	-0.413631	-0.053697
C26	C	1.733110	0.000015	-0.176950
C27	C	1.874058	0.000025	-0.180655
N28	N	1.501136	0.351061	-0.183998
C29	C	1.493813	0.000013	-0.412085
C30	C	1.497524	0.000015	-0.550641
C31	C	1.612788	0.000018	-0.742445
C32	C	1.608956	0.000016	-0.599241
C33	C	1.508375	0.000011	0.044060
C34	C	1.504665	0.000019	0.182616
H35	H	0.868042	-0.100173	-0.372165
F36	F	1.562557	-0.357475	0.049517
H37	H	1.378633	-0.629034	-0.024662
H38	H	1.404957	0.000005	-0.615029
H39	H	1.701518	0.000009	-0.534846
F40	F	1.342703	-0.360383	-0.024357
H41	H	0.894745	-0.245659	-0.164038
F42	F	1.420416	-0.642501	-0.411714
F43	F	1.737156	-0.359921	-0.119869
H44	H	1.409259	0.000025	-0.775523
H45	H	1.549008	-0.626238	0.022514
F46	F	1.737496	0.000031	-0.797154
H47	H	1.085855	-0.100786	-0.378255
H48	H	0.868997	0.101952	-0.371936
F49	F	1.096838	0.131594	-0.394116
H50	H	1.110596	0.246211	-0.167320
H51	H	1.657512	-0.625410	-0.310029
F52	F	1.145203	0.148555	0.012092
H53	H	0.893229	0.245633	-0.159534
F54	F	0.906752	0.146928	0.019641
H55	H	1.114214	-0.246404	-0.161488
F56	F	0.904226	-0.153307	0.017172
H57	H	1.658622	-0.370298	-0.308230
H58	H	1.130063	-0.141170	-0.016119
H59	H	1.298999	-0.372038	-0.267812
H60	H	1.298461	-0.627466	-0.267706
H61	H	1.415458	-0.373033	-0.382929
H62	H	1.712886	-0.626905	-0.143570
