data_functionalizedCrystal
_audit_creation_method	'MofGen! by Chris Wilmer'
_symmetry_space_group_name_H-M	'P1'
_symmetry_Int_Tables_number	1
_symmetry_cell_setting	triclinic
loop_
_symmetry_equiv_pos_as_xyz
  x,y,z
_cell_length_a	14.971482
_cell_length_b	14.971487
_cell_length_c	14.048226
_cell_angle_alpha	89.998057
_cell_angle_beta	90.004139
_cell_angle_gamma	96.386495
loop_
_atom_site_label
_atom_site_type_symbol
_atom_site_fract_x
_atom_site_fract_y
_atom_site_fract_z
O1	O	1.186948	-0.116544	0.079147
O2	O	0.926547	-0.130506	0.079151
O3	O	1.063726	0.006675	0.079144
O4	O	1.049768	-0.253725	0.079154
O5	O	1.063713	0.006674	-0.079177
O6	O	0.926534	-0.130508	-0.079170
O7	O	1.186935	-0.116545	-0.079175
Zn8	Zn	1.056732	-0.123527	-0.104309
Zn9	Zn	1.056749	-0.123525	0.104286
O10	O	1.049755	-0.253727	-0.079168
C11	C	0.893216	-0.129883	-0.000009
C12	C	0.793918	-0.128014	-0.000007
C13	C	0.747267	-0.127134	-0.086309
C14	C	0.653968	-0.125363	-0.086310
C15	C	0.607322	-0.124479	-0.000008
C16	C	0.653981	-0.125356	0.086300
C17	C	0.747279	-0.127120	0.086300
C18	C	0.459519	-0.121680	0.086294
C19	C	0.366215	-0.119918	0.086294
C20	C	0.366209	-0.119923	-0.086317
C21	C	0.459506	-0.121688	-0.086317
C22	C	0.506158	-0.122567	-0.000008
C23	C	1.063096	0.039999	-0.000015
C24	C	1.061225	0.139296	-0.000013
C25	C	1.141814	0.196522	-0.000014
C26	C	1.140050	0.289822	-0.000003
C27	C	1.057697	0.325893	0.000003
C28	C	0.977102	0.268659	0.000007
C29	C	0.978866	0.175362	0.000002
C30	C	0.973430	0.463122	0.000014
C31	C	0.971665	0.556426	0.000016
C32	C	1.134615	0.577582	0.000009
C33	C	1.136379	0.484284	0.000004
C34	C	1.055783	0.427057	0.000006
C35	C	1.220266	-0.117168	-0.000012
C36	C	1.319563	-0.119038	-0.000008
N37	N	1.056727	-0.123527	-0.246670
C38	C	1.050385	0.712949	-0.000001
C39	C	1.052255	0.613652	0.000015
C40	C	1.002459	-0.069178	-0.703538
C41	C	1.002456	-0.069175	-0.603881
C42	C	1.056751	-0.123517	-0.554040
C43	C	1.111059	-0.177859	-0.603862
C44	C	1.111067	-0.177857	-0.703518
C45	C	1.111038	-0.177863	-0.396148
C46	C	1.111030	-0.177867	-0.296485
C47	C	1.002427	-0.069181	-0.296511
C48	C	1.002434	-0.069178	-0.396167
C49	C	1.056742	-0.123522	-0.445982
N50	N	1.056762	-0.123517	0.246647
H51	H	0.785238	-0.127862	-0.156587
H52	H	0.328238	-0.119198	0.156569
H53	H	1.203438	0.454918	-0.000007
H54	H	0.958218	-0.024932	-0.436744
H55	H	0.904606	0.585791	0.000006
H56	H	0.615991	-0.124632	-0.156586
O57	O	0.886504	0.401393	0.000007
H58	H	0.828941	0.442147	-0.000002
H59	H	0.958206	-0.024935	-0.255946
O60	O	0.509820	-0.122671	-0.179396
H61	H	0.461707	-0.121765	-0.239412
H62	H	0.615995	-0.124629	0.156569
H63	H	1.155264	-0.222113	-0.436704
O64	O	0.315896	-0.119009	-0.179412
H65	H	0.243183	-0.117636	-0.164917
H66	H	0.910048	0.298036	0.000017
O67	O	0.891946	0.113632	-0.000007
H68	H	0.834383	0.154387	-0.000013
O69	O	1.169601	-0.236465	-0.242722
H70	H	1.207379	-0.274240	-0.294101
O71	O	0.943915	-0.010547	-0.757295
H72	H	0.906168	0.027251	-0.705908
H73	H	1.155272	-0.222101	-0.563274
H74	H	0.958239	-0.024924	-0.563326
H75	H	1.200239	0.624181	0.000010
O76	O	1.169632	-0.236469	-0.757255
H77	H	1.207379	-0.274265	-0.705857
H78	H	0.497500	-0.122396	0.156576
O79	O	0.797602	-0.128075	0.179382
H80	H	0.749493	-0.127172	0.239394
O81	O	1.230638	0.157618	-0.000011
H82	H	1.286380	0.213089	0.000003
H83	H	1.205675	0.336412	-0.000006
