data_functionalizedCrystal
_audit_creation_method	'MofGen! by Chris Wilmer'
_symmetry_space_group_name_H-M	'P1'
_symmetry_Int_Tables_number	1
_symmetry_cell_setting	triclinic
loop_
_symmetry_equiv_pos_as_xyz
  x,y,z
_cell_length_a	10.654550
_cell_length_b	11.026607
_cell_length_c	9.482900
_cell_angle_alpha	101.400185
_cell_angle_beta	80.615899
_cell_angle_gamma	96.535460
loop_
_atom_site_label
_atom_site_type_symbol
_atom_site_fract_x
_atom_site_fract_y
_atom_site_fract_z
O1	O	1.720232	0.151877	-0.121015
O2	O	1.358282	0.168150	-0.120991
O3	O	1.509258	-0.016891	-0.120996
O4	O	1.569256	0.336918	-0.121010
O5	O	1.478626	0.020847	0.120798
O6	O	1.327650	0.205888	0.120802
O7	O	1.689599	0.189615	0.120779
Cu8	Cu	1.505828	0.201198	0.142868
Cu9	Cu	1.542054	0.156568	-0.143080
O10	O	1.538623	0.374656	0.120783
C11	C	1.482874	-0.043326	-0.000100
C12	C	1.449880	-0.178318	-0.000103
C13	C	1.295908	0.185825	-0.000091
C14	C	1.155688	0.182253	-0.000082
C15	C	1.540984	-0.251358	-0.000111
C16	C	1.506885	-0.390880	-0.000114
C17	C	1.099855	0.291197	-0.000108
C18	C	0.968107	0.287828	-0.000133
C19	C	0.948036	0.066558	-0.000113
C20	C	1.079781	0.069931	-0.000077
C21	C	1.175762	0.403519	-0.000113
C22	C	1.119930	0.512473	-0.000140
C23	C	0.988182	0.509103	-0.000165
C24	C	0.912266	0.396780	-0.000163
C25	C	1.751974	0.171940	-0.000124
C26	C	1.892195	0.175511	-0.000143
C27	C	1.565008	0.401091	-0.000116
C28	C	1.598003	0.536081	-0.000122
N29	N	1.480357	0.232587	0.343989
N30	N	1.567532	0.125169	-0.344201
C31	C	1.534531	0.165820	0.416187
C32	C	1.513350	0.191946	0.583605
H33	H	1.644225	-0.210598	-0.000109
H34	H	1.403638	-0.431635	-0.000117
Br35	Br	1.409891	0.319457	0.687143
H36	H	1.701266	-0.423184	-0.000238
H37	H	0.942726	0.597821	-0.000173
Br38	Br	1.671340	-0.002066	0.552265
H39	H	1.346639	-0.219079	-0.000106
H40	H	1.596587	0.089311	0.354057
H41	H	1.283040	0.406274	-0.000099
Br42	Br	1.222951	0.664906	-0.000121
H43	H	0.804985	0.394049	-0.000161
Br44	Br	1.376902	0.360093	0.447533
H45	H	0.886218	-0.024894	-0.000135
H46	H	1.125241	-0.018782	-0.000060
