data_functionalizedCrystal
_audit_creation_method	'MofGen! by Chris Wilmer'
_symmetry_space_group_name_H-M	'P1'
_symmetry_Int_Tables_number	1
_symmetry_cell_setting	triclinic
loop_
_symmetry_equiv_pos_as_xyz
  x,y,z
_cell_length_a	15.299816
_cell_length_b	17.639874
_cell_length_c	15.296720
_cell_angle_alpha	108.495807
_cell_angle_beta	69.242954
_cell_angle_gamma	90.272001
loop_
_atom_site_label
_atom_site_type_symbol
_atom_site_fract_x
_atom_site_fract_y
_atom_site_fract_z
Zn1	Zn	-0.129366	-1.188695	0.258695
Zn2	Zn	-0.247098	-1.227602	0.119281
Zn3	Zn	-0.133940	-1.076042	0.134599
Zn4	Zn	-0.316249	-1.075977	0.316986
O5	O	-0.206663	-1.142079	0.207390
O6	O	-0.114129	-1.304456	0.209396
O7	O	-0.205061	-1.223807	-0.013362
O8	O	-0.007765	-1.074730	0.133076
O9	O	-0.200626	-1.333041	0.106969
O10	O	-0.004405	-1.157496	0.224249
O11	O	-0.121925	-1.112457	-0.002108
O12	O	-0.188978	-0.965433	0.189599
O13	O	-0.318485	-1.074619	0.443929
O14	O	-0.322920	-0.965385	0.323598
O15	O	-0.181183	-1.157432	0.401103
O16	O	-0.381839	-1.223744	0.163491
O17	O	-0.432645	-1.112346	0.308745
C18	C	-0.263950	-0.936732	0.264587
C19	C	-0.288484	-0.848883	0.289081
C20	C	-0.020203	-0.559865	0.021254
C21	C	-0.043277	-0.477318	0.044286
C22	C	-0.182866	-0.477369	0.183630
C23	C	-0.159801	-0.559916	0.160612
C24	C	-0.078469	-0.601158	0.079423
C25	C	-0.218067	-0.601209	0.218781
C26	C	-0.195007	-0.683750	0.195762
C27	C	-0.113680	-0.724998	0.114574
C28	C	-0.055408	-0.683698	0.056403
C29	C	-0.299403	-0.559967	0.299966
C30	C	-0.357669	-0.601260	0.358135
C31	C	-0.334605	-0.683802	0.335120
C32	C	-0.253278	-0.725049	0.253932
C33	C	-0.392877	-0.725101	0.393291
C34	C	-0.369816	-0.807642	0.370271
C35	C	-0.230218	-0.807590	0.230913
C36	C	-0.439798	-1.172279	0.240796
C37	C	-0.539521	-1.185267	0.255099
C38	C	-0.827835	-1.049730	0.105346
C39	C	-0.734142	-1.037523	0.091911
C40	C	-0.685482	-1.074458	0.132706
C41	C	-0.730524	-1.123602	0.186940
C42	C	-0.824228	-1.135806	0.200383
C43	C	-0.681876	-1.160533	0.227744
C44	C	-0.726918	-1.209677	0.281977
C45	C	-0.820612	-1.221879	0.295417
C46	C	-0.869272	-1.184944	0.254622
C47	C	-0.588172	-1.148330	0.214301
C48	C	-0.584565	-1.234405	0.309338
C49	C	-0.678258	-1.246612	0.322773
C50	C	0.027384	-1.111780	0.173869
C51	C	0.127121	-1.098869	0.159584
C52	C	-0.257037	-1.111679	0.458412
C53	C	-0.278504	-1.098724	0.565382
C54	C	-0.149140	-0.348228	0.149960
C55	C	-0.124593	-0.436076	0.125456
C56	C	-0.156408	-1.172398	-0.042677
C57	C	-0.134646	-1.185473	-0.149726
C58	C	-0.053074	-1.234679	0.777724
C59	C	-0.032906	-1.246856	0.677219
C60	C	-0.094303	-1.209823	0.649255
C61	C	-0.175873	-1.160613	0.721806
C62	C	-0.196048	-1.148440	0.822320
C63	C	-0.237276	-1.123584	0.693851
C64	C	-0.318847	-1.074374	0.766402
C65	C	-0.339017	-1.062202	0.866906
C66	C	-0.277619	-1.099234	0.894871
C67	C	-0.217102	-1.135757	0.593336
C68	C	-0.360075	-1.049518	0.637933
C69	C	-0.380244	-1.037342	0.738438
H70	H	0.046036	-0.593442	-0.044846
H71	H	-0.609193	-1.064517	0.121763
H72	H	-0.551507	-1.108316	0.170143
H73	H	-0.697473	-0.997510	0.047755
H74	H	-0.857285	-1.261891	0.339583
H75	H	-0.150686	-1.175825	0.534274
H76	H	-0.294036	-1.089323	0.976709
H77	H	-0.714944	-1.286626	0.366931
H78	H	-0.867464	-1.019659	0.072141
H79	H	-0.163979	-0.841168	0.164812
H80	H	-0.318176	-0.492757	0.318705
H81	H	-0.077877	-1.219741	0.567417
H82	H	-0.544947	-1.264479	0.342560
H83	H	-0.945564	-1.194884	0.265553
H84	H	0.010831	-0.717276	-0.009697
H85	H	0.033507	-1.286925	0.618154
H86	H	-0.003097	-1.264830	0.800503
H87	H	0.004182	-0.443699	-0.003082
H88	H	-0.405442	-1.022139	0.925976
H89	H	-0.446659	-0.997273	0.797523
H90	H	-0.410071	-1.019365	0.615166
H91	H	-0.423891	-0.567671	0.424237
H92	H	-0.249088	-0.443780	0.249732
H93	H	-0.094907	-0.792208	0.095831
H94	H	-0.417262	-0.841263	0.417639
H95	H	-0.459102	-0.691511	0.459389
