data_functionalizedCrystal
_audit_creation_method	'MofGen! by Chris Wilmer'
_symmetry_space_group_name_H-M	'P1'
_symmetry_Int_Tables_number	1
_symmetry_cell_setting	triclinic
loop_
_symmetry_equiv_pos_as_xyz
  x,y,z
_cell_length_a	19.805407
_cell_length_b	25.639240
_cell_length_c	25.639233
_cell_angle_alpha	89.974071
_cell_angle_beta	89.985655
_cell_angle_gamma	90.032757
loop_
_atom_site_label
_atom_site_type_symbol
_atom_site_fract_x
_atom_site_fract_y
_atom_site_fract_z
Zn1	Zn	1.034671	-0.208214	-0.295607
Zn2	Zn	1.034583	-0.295633	-0.208160
Zn3	Zn	0.921496	-0.208214	-0.208183
Zn4	Zn	0.921436	-0.295621	-0.295562
O5	O	0.978047	-0.251920	-0.251878
O6	O	1.129376	-0.219816	-0.284016
O7	O	1.019570	-0.284042	-0.134998
O8	O	0.936570	-0.135048	-0.219808
O9	O	1.129312	-0.284042	-0.219770
O10	O	1.019719	-0.135049	-0.284038
O11	O	0.936485	-0.219815	-0.135015
O12	O	0.826771	-0.219803	-0.219765
O13	O	0.936469	-0.284021	-0.368733
O14	O	0.826728	-0.284020	-0.283962
O15	O	1.019662	-0.219804	-0.368766
O16	O	1.019513	-0.368797	-0.219726
O17	O	0.936384	-0.368788	-0.283940
C18	C	0.802191	-0.251910	-0.251861
C19	C	0.726959	-0.251919	-0.251866
C20	C	0.691609	-0.285407	-0.285240
C21	C	0.620921	-0.285408	-0.285247
C22	C	0.585583	-0.251923	-0.251878
C23	C	0.620937	-0.218431	-0.218503
C24	C	0.691624	-0.218428	-0.218499
C25	C	0.335864	-0.218442	-0.218521
C26	C	0.265172	-0.218449	-0.218526
C27	C	0.265161	-0.285423	-0.285269
C28	C	0.335848	-0.285420	-0.285264
C29	C	0.371196	-0.251926	-0.251892
C30	C	0.447844	-0.251925	-0.251885
C31	C	0.508936	-0.251926	-0.251882
C32	C	0.977951	-0.387763	-0.251837
C33	C	0.977972	-0.445877	-0.251837
C34	C	1.021364	-0.806202	-0.285383
C35	C	1.021384	-0.860806	-0.285394
O36	O	1.058163	-0.889011	-0.313874
N37	N	0.978141	-0.888159	-0.251929
C38	C	0.934870	-0.860906	-0.218455
O39	O	0.898089	-0.889186	-0.189991
C40	C	0.934847	-0.806302	-0.218447
C41	C	0.978098	-0.778952	-0.251911
C42	C	1.064611	-0.778851	-0.318844
C43	C	1.064592	-0.724251	-0.318833
C44	C	1.021325	-0.697001	-0.285360
C45	C	0.978079	-0.724351	-0.251899
C46	C	0.891573	-0.779049	-0.184976
C47	C	0.891553	-0.724442	-0.184972
C48	C	0.934804	-0.697092	-0.218435
C49	C	0.934793	-0.642501	-0.218415
N50	N	0.978036	-0.615148	-0.251880
C51	C	1.021303	-0.642398	-0.285353
C52	C	0.934920	-0.975576	-0.218474
C53	C	0.934946	-1.030179	-0.218478
C54	C	1.021459	-1.030075	-0.285418
C55	C	1.021437	-0.975472	-0.285411
C56	C	0.978163	-0.948223	-0.251939
C57	C	1.021259	-0.527733	-0.285326
C58	C	1.021238	-0.473127	-0.285310
C59	C	0.934722	-0.473235	-0.218372
C60	C	0.934746	-0.527836	-0.218386
C61	C	0.978016	-0.555083	-0.251867
O62	O	0.898030	-0.614262	-0.189951
O63	O	1.058071	-0.614111	-0.313816
C64	C	1.154589	-0.251931	-0.251895
C65	C	1.229821	-0.251935	-0.251903
C66	C	0.978068	-0.251911	-0.388251
C67	C	0.978078	-0.251907	-0.446365
C68	C	0.978161	-0.115547	-0.251931
C69	C	0.978210	-0.057433	-0.251953
C70	C	1.021451	-0.218370	-0.806751
C71	C	1.021460	-0.218356	-0.861356
O72	O	1.058283	-0.189903	-0.889612
N73	N	0.978152	-0.251785	-0.888648
C74	C	0.934829	-0.285227	-0.861333
O75	O	0.897993	-0.313659	-0.889561
C76	C	0.934818	-0.285238	-0.806730
C77	C	0.978133	-0.251811	-0.779440
C78	C	1.064762	-0.184945	-0.779462
C79	C	1.064754	-0.184960	-0.724861
C80	C	1.021436	-0.218401	-0.697550
C81	C	0.978125	-0.251826	-0.724840
C82	C	0.891492	-0.318677	-0.779416
C83	C	0.891484	-0.318685	-0.724809
C84	C	0.934799	-0.285258	-0.697519
C85	C	0.934799	-0.285282	-0.642928
N86	N	0.978106	-0.251853	-0.615636
C87	C	1.021425	-0.218412	-0.642947
C88	C	0.934855	-0.285199	-0.976004
C89	C	0.934869	-0.285191	-1.030606
C90	C	1.021499	-0.218319	-1.030625
C91	C	1.021488	-0.218331	-0.976022
C92	C	0.978162	-0.251770	-0.948712
C93	C	1.021406	-0.218447	-0.528282
C94	C	1.021396	-0.218467	-0.473676
C95	C	0.934764	-0.285337	-0.473662
C96	C	0.934776	-0.285319	-0.528263
C97	C	0.978099	-0.251870	-0.555571
O98	O	0.897993	-0.313718	-0.614637
O99	O	1.058248	-0.189980	-0.614712
C100	C	0.978064	-0.251892	-0.116036
C101	C	0.978186	-0.251748	-0.057922
H102	H	1.056461	-0.450860	-0.312560
H103	H	0.856195	-0.345911	-0.702576
H104	H	0.592143	-0.312678	-0.312423
N105	N	0.729752	-0.182311	-0.182499
H106	H	0.779894	-0.187389	-0.187560
H107	H	0.717424	-0.144983	-0.190710
H108	H	0.899512	-0.312543	-0.550483
H109	H	0.720377	-0.312677	-0.312411
H110	H	1.099808	-0.701985	-0.346083
N111	N	1.067921	-0.557116	-0.321442
H112	H	1.095310	-0.531498	-0.342636
H113	H	1.099276	-0.579767	-0.300193
H114	H	0.236402	-0.191178	-0.191353
H115	H	0.364616	-0.312689	-0.312435
H116	H	0.364636	-0.191174	-0.191343
N117	N	1.068221	-0.182244	-1.060081
H118	H	1.099574	-0.203486	-1.082737
H119	H	1.040687	-0.158016	-1.082707
H120	H	1.100025	-0.157739	-0.702647
H121	H	0.592159	-0.191164	-0.191336
N122	N	0.888039	-0.321400	-0.444202
H123	H	0.898515	-0.358758	-0.453693
H124	H	0.894628	-0.316289	-0.405480
N125	N	1.111263	-0.808237	-0.354963
H126	H	1.138646	-0.782618	-0.376160
H127	H	1.142624	-0.830889	-0.333721
H128	H	0.856220	-0.345897	-0.801626
H129	H	0.899734	-1.052443	-0.191223
N130	N	1.068084	-0.945975	-0.321503
H131	H	1.095495	-0.971528	-0.342707
H132	H	1.040503	-0.923326	-0.345679
H133	H	0.236372	-0.312693	-0.312444
N134	N	1.068127	-1.059472	-0.321523
H135	H	1.061573	-1.098212	-0.316448
H136	H	1.057554	-1.049913	-0.358855
N137	N	0.888250	-0.946188	-0.182365
H138	H	0.860864	-0.971805	-0.161168
H139	H	0.915814	-0.923529	-0.158185
N140	N	0.844924	-0.808540	-0.148882
H141	H	0.817514	-0.782984	-0.127682
H142	H	0.813589	-0.831202	-0.170145
N143	N	0.844877	-0.695053	-0.148870
H144	H	0.817485	-0.720668	-0.127675
H145	H	0.872439	-0.672395	-0.124688
N146	N	0.888160	-0.321247	-1.060041
H147	H	0.898639	-0.358607	-1.050532
H148	H	0.839823	-0.313081	-1.050522
N149	N	0.888105	-0.557338	-0.182289
H150	H	0.915642	-0.579990	-0.158084
H151	H	0.860707	-0.531753	-0.161116
N152	N	0.888062	-0.443839	-0.182268
H153	H	0.894616	-0.405098	-0.187342
H154	H	0.839718	-0.453407	-0.190373
N155	N	1.068118	-0.182414	-0.444243
H156	H	1.095559	-0.161227	-0.469833
H157	H	1.040586	-0.158221	-0.421588
H158	H	0.899574	-0.312433	-0.953771
H159	H	1.056681	-0.191208	-0.550510
H160	H	1.100037	-0.157711	-0.801693
N161	N	1.068205	-0.182278	-0.946590
H162	H	1.095648	-0.161095	-0.972182
H163	H	1.040672	-0.158082	-0.923939
