data_functionalizedCrystal
_audit_creation_method	'MofGen! by Chris Wilmer'
_symmetry_space_group_name_H-M	'P1'
_symmetry_Int_Tables_number	1
_symmetry_cell_setting	triclinic
loop_
_symmetry_equiv_pos_as_xyz
  x,y,z
_cell_length_a	15.297475
_cell_length_b	11.169416
_cell_length_c	11.169409
_cell_angle_alpha	90.027704
_cell_angle_beta	80.310497
_cell_angle_gamma	99.683705
loop_
_atom_site_label
_atom_site_type_symbol
_atom_site_fract_x
_atom_site_fract_y
_atom_site_fract_z
Zn1	Zn	1.379384	0.795722	-0.995759
Zn2	Zn	1.879384	1.295722	-0.495759
Zn3	Zn	1.379297	0.996442	-0.795072
Zn4	Zn	1.879297	1.496442	-0.295072
Zn5	Zn	1.228502	0.761006	-0.760400
Zn6	Zn	1.728502	1.261006	-0.260400
Zn7	Zn	1.228503	0.961576	-0.961043
Zn8	Zn	1.728503	1.461576	-0.461043
O9	O	1.303921	0.878686	-0.878069
O10	O	1.803921	1.378686	-0.378069
O11	O	1.505625	0.851467	-0.998177
O12	O	2.005625	1.351467	-0.498177
O13	O	1.359256	0.965274	-0.622515
O14	O	1.859256	1.465274	-0.122515
O15	O	1.248553	0.597670	-0.791639
O16	O	1.748553	1.097670	-0.291639
O17	O	1.505561	0.998936	-0.850733
O18	O	2.005561	1.498936	-0.350733
O19	O	1.359406	0.623175	-0.964556
O20	O	1.859406	1.123175	-0.464556
O21	O	1.248468	0.792300	-0.597041
O22	O	1.748468	1.292300	-0.097041
O23	O	1.102249	0.758492	-0.757976
O24	O	1.602249	1.258492	-0.257976
O25	O	1.248555	0.939512	-1.133607
O26	O	1.748555	1.439512	-0.633607
O27	O	1.102250	0.905850	-0.905388
O28	O	1.602250	1.405850	-0.405388
O29	O	1.359407	0.817660	-1.159113
O30	O	1.859407	1.317660	-0.659113
O31	O	1.359257	1.159758	-0.817071
O32	O	1.859257	1.659758	-0.317071
O33	O	1.248470	1.134142	-0.939009
O34	O	1.748470	1.634142	-0.439009
C35	C	1.069513	0.824622	-0.824153
C36	C	1.569513	1.324622	-0.324153
C37	C	0.969233	0.801521	-0.801116
C38	C	1.469233	1.301521	-0.301116
C39	C	0.686660	1.043796	-1.042719
C40	C	1.186660	1.543796	-0.542719
C41	C	0.780879	1.065509	-1.064360
C42	C	1.280879	1.565509	-0.564360
C43	C	0.827972	0.999514	-0.998552
C44	C	1.327972	1.499514	-0.498552
C45	C	0.780837	0.911802	-0.911097
C46	C	1.280837	1.411802	-0.411097
C47	C	0.686609	0.890094	-0.889448
C48	C	1.186609	1.390094	-0.389448
C49	C	0.827921	0.845812	-0.845280
C50	C	1.327921	1.345812	-0.345280
C51	C	0.780786	0.758101	-0.757826
C52	C	1.280786	1.258101	-0.257826
C53	C	0.686568	0.736396	-0.736181
C54	C	1.186568	1.236396	-0.236181
C55	C	0.639474	0.802391	-0.801989
C56	C	1.139474	1.302391	-0.301989
C57	C	0.922149	0.867520	-0.866930
C58	C	1.422149	1.367520	-0.366930
C59	C	0.922098	0.713818	-0.713658
C60	C	1.422098	1.213818	-0.213658
C61	C	0.827879	0.692105	-0.692017
C62	C	1.327879	1.192105	-0.192017
C63	C	1.303878	1.190501	-0.878067
C64	C	1.803878	1.690501	-0.378067
C65	C	1.303943	1.323916	-0.878125
C66	C	1.803943	1.823916	-0.378125
C67	C	1.539244	0.932963	-0.932195
C68	C	2.039244	1.432963	-0.432195
C69	C	1.639525	0.956093	-0.955261
C70	C	2.139525	1.456093	-0.455261
C71	C	1.303991	0.878569	-1.191127
C72	C	1.803991	1.378569	-0.691127
C73	C	1.304020	0.878519	-1.324534
C74	C	1.804020	1.378519	-0.824534
C75	C	1.303983	1.565658	-0.878117
C76	C	1.803983	2.065658	-0.378117
C77	C	1.303992	1.432260	-0.878175
C78	C	1.803992	1.932260	-0.378175
C79	C	1.303904	0.878729	-0.566240
C80	C	1.803904	1.378729	-0.066240
C81	C	1.304049	0.878481	-0.432874
C82	C	1.804049	1.378481	0.067126
H83	H	0.904689	1.017197	-1.016177
H84	H	1.404689	1.517197	-0.516177
H85	H	0.819249	1.136926	-1.135563
H86	H	1.319249	1.636926	-0.635563
O87	O	0.635722	0.641806	-0.641848
O88	O	1.135722	1.141806	-0.141848
H89	H	0.653810	0.551800	-0.666748
H90	H	1.153810	1.051800	-0.166748
H91	H	0.789489	0.620690	-0.620811
H92	H	1.289489	1.120690	-0.120811
H93	H	0.648308	1.097527	-1.096284
H94	H	1.148308	1.597527	-0.596284
O95	O	0.537849	0.779031	-0.778579
O96	O	1.037849	1.279031	-0.278579
H97	H	0.513026	0.839681	-0.839011
H98	H	1.013026	1.339681	-0.339011
H99	H	0.960441	0.660081	-0.660069
H100	H	1.460441	1.160081	-0.160069
H101	H	0.960517	0.938935	-0.938136
H102	H	1.460517	1.438935	-0.438136
