data_functionalizedCrystal
_audit_creation_method	'MofGen! by Chris Wilmer'
_symmetry_space_group_name_H-M	'P1'
_symmetry_Int_Tables_number	1
_symmetry_cell_setting	triclinic
loop_
_symmetry_equiv_pos_as_xyz
  x,y,z
_cell_length_a	18.215407
_cell_length_b	25.639239
_cell_length_c	18.215399
_cell_angle_alpha	89.967555
_cell_angle_beta	89.983176
_cell_angle_gamma	90.039134
loop_
_atom_site_label
_atom_site_type_symbol
_atom_site_fract_x
_atom_site_fract_y
_atom_site_fract_z
Zn1	Zn	1.124980	-0.208137	-0.416105
Zn2	Zn	1.624980	0.291863	0.083895
Zn3	Zn	1.124865	-0.295577	-0.293034
Zn4	Zn	1.624865	0.204423	0.206966
Zn5	Zn	1.001919	-0.208158	-0.293053
Zn6	Zn	1.501919	0.291842	0.206947
Zn7	Zn	1.001848	-0.295544	-0.416059
Zn8	Zn	1.501848	0.204456	0.083941
O9	O	1.063403	-0.251854	-0.354563
O10	O	1.563403	0.248146	0.145437
O11	O	1.227949	-0.219742	-0.399791
O12	O	1.727949	0.280258	0.100209
O13	O	1.108537	-0.284003	-0.190052
O14	O	1.608537	0.215997	0.309948
O15	O	1.018320	-0.134990	-0.309403
O16	O	1.518320	0.365010	0.190597
O17	O	1.227864	-0.283983	-0.309372
O18	O	1.727864	0.216017	0.190628
O19	O	1.108733	-0.134975	-0.399809
O20	O	1.608733	0.365025	0.100191
O21	O	1.018209	-0.219777	-0.190066
O22	O	1.518209	0.280223	0.309934
O23	O	0.898925	-0.219745	-0.309358
O24	O	1.398925	0.280255	0.190642
O25	O	1.018201	-0.283927	-0.519050
O26	O	1.518201	0.216073	-0.019050
O27	O	0.898873	-0.283947	-0.399731
O28	O	1.398873	0.216053	0.100269
O29	O	1.108665	-0.219710	-0.519083
O30	O	1.608665	0.280290	-0.019083
O31	O	1.108469	-0.368738	-0.309327
O32	O	1.608469	0.131262	0.190673
O33	O	1.018089	-0.368714	-0.399713
O34	O	1.518089	0.131286	0.100287
C35	C	0.872197	-0.251845	-0.354542
C36	C	1.372197	0.248155	0.145458
C37	C	0.790398	-0.251854	-0.354550
C38	C	1.290398	0.248146	0.145450
C39	C	0.602196	-0.285337	-0.401548
C40	C	1.102196	0.214663	0.098452
C41	C	0.525337	-0.285338	-0.401557
C42	C	1.025337	0.214662	0.098443
C43	C	0.525362	-0.218381	-0.307594
C44	C	1.025362	0.281619	0.192406
C45	C	0.602219	-0.218377	-0.307589
C46	C	1.102219	0.281623	0.192411
C47	C	0.640634	-0.251858	-0.354565
C48	C	1.140634	0.248142	0.145435
C49	C	0.486918	-0.251864	-0.354579
C50	C	0.986918	0.248136	0.145421
C51	C	0.403584	-0.251865	-0.354589
C52	C	0.903584	0.248135	0.145411
C53	C	0.723973	-0.251856	-0.354556
C54	C	1.223973	0.248144	0.145444
C55	C	1.063279	-0.387697	-0.354529
C56	C	1.563279	0.112303	0.145471
C57	C	1.063293	-0.445811	-0.354539
C58	C	1.563293	0.054189	0.145461
C59	C	1.110586	-0.806174	-0.307579
C60	C	1.610586	-0.306174	0.192421
C61	C	1.110615	-0.860778	-0.307589
C62	C	1.610615	-0.360778	0.192411
O63	O	1.150696	-0.889015	-0.267625
O64	O	1.650696	-0.389015	0.232375
N65	N	1.063532	-0.888093	-0.354612
N66	N	1.563532	-0.388093	0.145388
C67	C	1.016423	-0.860801	-0.401633
C68	C	1.516423	-0.360801	0.098367
O69	O	0.976379	-0.889049	-0.441631
O70	O	1.476379	-0.389049	0.058369
C71	C	1.016399	-0.806198	-0.401626
C72	C	1.516399	-0.306198	0.098374
C73	C	1.063479	-0.778886	-0.354595
C74	C	1.563479	-0.278886	0.145405
C75	C	1.157663	-0.778862	-0.260553
C76	C	1.657663	-0.278862	0.239447
C77	C	1.157634	-0.724261	-0.260542
C78	C	1.657634	-0.224261	0.239458
C79	C	1.110527	-0.696973	-0.307558
C80	C	1.610527	-0.196973	0.192442
C81	C	1.063450	-0.724285	-0.354584
C82	C	1.563450	-0.224285	0.145416
C83	C	0.969294	-0.778907	-0.448650
C84	C	1.469294	-0.278907	0.051350
C85	C	0.969274	-0.724300	-0.448640
C86	C	1.469274	-0.224300	0.051360
C87	C	1.016355	-0.696988	-0.401609
C88	C	1.516355	-0.196988	0.098391
C89	C	1.016313	-0.642396	-0.401590
C90	C	1.516313	-0.142396	0.098410
N91	N	1.063396	-0.615081	-0.354567
N92	N	1.563396	-0.115081	0.145433
C93	C	1.110503	-0.642370	-0.307551
C94	C	1.610503	-0.142370	0.192449
C95	C	1.016479	-0.975472	-0.401644
C96	C	1.516479	-0.475472	0.098356
C97	C	1.016499	-1.030074	-0.401648
C98	C	1.516499	-0.530074	0.098352
C99	C	1.110691	-1.030047	-0.307605
C100	C	1.610691	-0.530047	0.192395
C101	C	1.110667	-0.975444	-0.307598
C102	C	1.610667	-0.475444	0.192402
C103	C	1.063561	-0.948157	-0.354621
C104	C	1.563561	-0.448157	0.145379
C105	C	1.110436	-0.527704	-0.307532
C106	C	1.610436	-0.027704	0.192468
C107	C	1.110400	-0.473099	-0.307523
C108	C	1.610400	0.026901	0.192477
C109	C	1.016211	-0.473131	-0.401569
C110	C	1.516211	0.026869	0.098431
C111	C	1.016244	-0.527731	-0.401575
C112	C	1.516244	-0.027731	0.098425
C113	C	1.063362	-0.555017	-0.354554
C114	C	1.563362	-0.055017	0.145446
O115	O	0.976254	-0.614125	-0.441536
O116	O	1.476254	-0.114125	0.058464
O117	O	1.150547	-0.614115	-0.267567
O118	O	1.650547	-0.114115	0.232433
C119	C	1.255356	-0.251864	-0.354584
C120	C	1.755356	0.248136	0.145416
C121	C	1.337155	-0.251868	-0.354594
C122	C	1.837155	0.248132	0.145406
C123	C	1.063438	-0.251813	-0.546516
C124	C	1.563438	0.248187	-0.046516
C125	C	1.063452	-0.251795	-0.628315
C126	C	1.563452	0.248205	-0.128315
C127	C	1.063547	-0.115481	-0.354613
C128	C	1.563547	0.384519	0.145387
C129	C	1.063609	-0.057367	-0.354634
C130	C	1.563609	0.442633	0.145366
C131	C	1.016458	-0.218330	-0.816517
C132	C	1.516458	0.281670	-0.316517
C133	C	1.016471	-0.218319	-0.893375
C134	C	1.516471	0.281681	-0.393375
C135	C	1.110534	-0.285198	-0.893351
C136	C	1.610534	0.214802	-0.393351
C137	C	1.110517	-0.285210	-0.816493
C138	C	1.610517	0.214790	-0.316493
C139	C	1.063480	-0.251773	-0.778078
C140	C	1.563480	0.248227	-0.278078
C141	C	1.063510	-0.251750	-0.931795
C142	C	1.563510	0.248250	-0.431795
C143	C	1.063525	-0.251739	-1.015128
C144	C	1.563525	0.248261	-0.515128
C145	C	1.063465	-0.251785	-0.694739
C146	C	1.563465	0.248215	-0.194739
C147	C	1.063411	-0.251858	-0.163357
C148	C	1.563411	0.248142	0.336643
C149	C	1.063538	-0.251729	-0.081558
C150	C	1.563538	0.248271	0.418442
H151	H	0.633472	-0.312598	-0.439801
H152	H	1.133472	0.187402	0.060199
Br153	Br	1.174368	-0.330574	-0.945490
Br154	Br	1.674368	0.169426	-0.445490
H155	H	0.930953	-0.801135	-0.486945
H156	H	1.430953	-0.301135	0.013055
Br157	Br	0.952590	-1.067134	-0.465467
Br158	Br	1.452590	-0.567134	0.034533
H159	H	1.148810	-0.312446	-0.785196
H160	H	1.648810	0.187554	-0.285196
Br161	Br	0.952538	-0.938445	-0.465463
Br162	Br	1.452538	-0.438445	0.034537
Br163	Br	0.473174	-0.330773	-0.465327
Br164	Br	0.973174	0.169227	0.034673
H165	H	0.633516	-0.191112	-0.269329
H166	H	1.133516	0.308888	0.230671
H167	H	1.148739	-0.450863	-0.269223
H168	H	1.648739	0.049137	0.230777
Br169	Br	0.473222	-0.172946	-0.243843
Br170	Br	0.973222	0.327054	0.256157
Br171	Br	0.952640	-0.172938	-0.945539
Br172	Br	1.452640	0.327062	-0.445539
H173	H	1.195973	-0.702027	-0.222248
H174	H	1.695973	-0.202027	0.277752
H175	H	1.148807	-0.549914	-0.269245
H176	H	1.648807	-0.049914	0.230755
H177	H	1.196028	-0.801074	-0.222266
H178	H	1.696028	-0.301074	0.277734
H179	H	1.149004	-0.953210	-0.269302
H180	H	1.649004	-0.453210	0.230698
H181	H	1.149051	-1.052275	-0.269324
H182	H	1.649051	-0.552275	0.230676
H183	H	0.930916	-0.702085	-0.486935
H184	H	1.430916	-0.202085	0.013065
H185	H	0.977854	-0.450904	-0.439847
H186	H	1.477854	0.049096	0.060153
Br187	Br	0.952331	-0.564799	-0.465385
Br188	Br	1.452331	-0.064799	0.034615
H189	H	0.978158	-0.191103	-0.785241
H190	H	1.478158	0.308897	-0.285241
