data_functionalizedCrystal
_audit_creation_method	'MofGen! by Chris Wilmer'
_symmetry_space_group_name_H-M	'P1'
_symmetry_Int_Tables_number	1
_symmetry_cell_setting	triclinic
loop_
_symmetry_equiv_pos_as_xyz
  x,y,z
_cell_length_a	18.215407
_cell_length_b	19.121063
_cell_length_c	18.215399
_cell_angle_alpha	87.590157
_cell_angle_beta	90.019833
_cell_angle_gamma	92.469446
loop_
_atom_site_label
_atom_site_type_symbol
_atom_site_fract_x
_atom_site_fract_y
_atom_site_fract_z
Zn1	Zn	1.112559	-0.279613	0.428596
Zn2	Zn	1.107212	-0.397068	0.310772
Zn3	Zn	0.989491	-0.279636	0.305544
Zn4	Zn	0.984203	-0.397029	0.433795
O5	O	1.048366	-0.338336	0.369677
O6	O	1.214834	-0.295200	0.412978
O7	O	1.091570	-0.381516	0.207095
O8	O	1.010267	-0.181348	0.317504
O9	O	1.210905	-0.381494	0.326414
O10	O	1.100685	-0.181331	0.407909
O11	O	1.005081	-0.295240	0.203255
O12	O	0.885805	-0.295202	0.322545
O13	O	1.001255	-0.381427	0.536089
O14	O	0.881921	-0.381450	0.416771
O15	O	1.095558	-0.295162	0.532269
O16	O	1.086443	-0.495348	0.331455
O17	O	0.996070	-0.495319	0.421840
C18	C	0.857160	-0.338324	0.369655
C19	C	0.775361	-0.338336	0.369664
C20	C	0.585160	-0.383316	0.418671
C21	C	0.508302	-0.383318	0.418681
C22	C	0.512323	-0.293369	0.320699
C23	C	0.589181	-0.293364	0.320694
C24	C	0.625597	-0.338342	0.369679
C25	C	0.471881	-0.338349	0.369694
C26	C	0.388547	-0.338351	0.369703
C27	C	0.708936	-0.338339	0.369671
C28	C	1.040122	-0.520817	0.377795
C29	C	1.036663	-0.598883	0.381293
C30	C	1.082127	-0.635551	0.335916
C31	C	1.078878	-0.708902	0.339210
C32	C	1.030161	-0.745585	0.387877
C33	C	0.984695	-0.708912	0.433258
C34	C	0.987948	-0.635562	0.429968
C35	C	1.017985	-0.967055	0.400168
C36	C	1.014733	-1.040410	0.403454
C37	C	1.108918	-1.040394	0.309406
C38	C	1.112164	-0.967043	0.306117
C39	C	1.066701	-0.930377	0.351501
C40	C	1.026837	-0.820561	0.391243
C41	C	1.070029	-0.855401	0.348138
C42	C	1.240319	-0.338349	0.369699
C43	C	1.322117	-0.338354	0.369709
C44	C	1.048413	-0.338288	0.561628
C45	C	1.048433	-0.338267	0.643426
C46	C	1.056662	-0.155143	0.361543
C47	C	1.060197	-0.077077	0.358077
C48	C	1.048364	-0.338334	0.178471
C49	C	1.048495	-0.338157	0.096664
C50	C	1.097555	-0.293307	0.829630
C51	C	1.097565	-0.293287	0.906488
C52	C	0.999368	-0.383119	0.910455
C53	C	0.999355	-0.383135	0.833598
C54	C	1.048453	-0.338231	0.793188
C55	C	1.048476	-0.338194	0.946902
C56	C	1.048486	-0.338172	1.030235
C57	C	1.048442	-0.338251	0.709850
H58	H	1.121795	-0.605688	0.296283
C59	C	0.472737	-0.244659	0.267430
C60	C	0.426815	-0.284374	0.221950
C61	C	0.390345	-0.239526	0.172862
H62	H	0.444087	-0.214081	0.294191
H63	H	0.507804	-0.217883	0.238208
H64	H	0.391753	-0.311139	0.251168
H65	H	0.455448	-0.314951	0.195173
H66	H	0.425412	-0.212750	0.143641
H67	H	0.361699	-0.208950	0.199629
H68	H	0.359188	-0.266466	0.141994
H69	H	1.115899	-0.738753	0.302259
C70	C	0.973919	-0.860264	0.444153
C71	C	0.934805	-0.812457	0.483202
C72	C	0.886061	-0.849007	0.531958
H73	H	0.940538	-0.888927	0.417337
H74	H	1.000773	-0.888817	0.477564
H75	H	0.907952	-0.783916	0.449796
H76	H	0.968167	-0.783792	0.510033
H77	H	0.912915	-0.877560	0.565369
H78	H	0.852684	-0.877669	0.505136
H79	H	0.859521	-0.816576	0.558463
C80	C	1.150842	-0.244398	0.945952
C81	C	1.137972	-0.174913	0.924151
C82	C	1.187044	-0.129855	0.960481
H83	H	1.143871	-0.250719	0.997521
H84	H	1.199835	-0.254642	0.933805
H85	H	1.088991	-0.164673	0.936304
H86	H	1.144948	-0.168571	0.872588
H87	H	1.236037	-0.140098	0.948333
H88	H	1.180069	-0.136181	1.012047
H89	H	1.178323	-0.082704	0.945689
C90	C	0.946188	-0.431962	0.954374
C91	C	0.985829	-0.476983	1.000487
C92	C	0.936865	-0.521995	1.040948
H93	H	0.915325	-0.405170	0.983223
H94	H	0.916952	-0.458760	0.921687
H95	H	1.015053	-0.450188	1.033171
H96	H	1.016689	-0.503791	0.971657
H97	H	0.907629	-0.548792	1.008260
H98	H	0.906005	-0.495196	1.069792
H99	H	0.963754	-0.552551	1.072235
H100	H	0.959365	-0.419717	0.803926
C101	C	0.938503	-0.595876	0.479270
C102	C	0.895129	-0.643699	0.522583
C103	C	0.849568	-0.607166	0.568008
H104	H	0.967831	-0.567219	0.510139
H105	H	0.907679	-0.567318	0.449829
H106	H	0.925949	-0.672244	0.552022
H107	H	0.865787	-0.672357	0.491733
H108	H	0.818745	-0.578609	0.538567
H109	H	0.878902	-0.578510	0.598872
H110	H	0.820129	-0.639608	0.597396
H111	H	0.614808	-0.419938	0.458560
C112	C	0.632958	-0.244505	0.267416
C113	C	0.584617	-0.205135	0.224500
C114	C	0.624918	-0.160126	0.175412
H115	H	0.664337	-0.213874	0.294174
H116	H	0.661702	-0.271318	0.236459
H117	H	0.555886	-0.178324	0.255454
H118	H	0.553238	-0.235748	0.197727
H119	H	0.653662	-0.186939	0.144454
H120	H	0.656295	-0.129499	0.202176
H121	H	0.592125	-0.133413	0.146283
H122	H	0.475381	-0.419940	0.458576
H123	H	1.151834	-0.937177	0.266488
C124	C	1.122798	-0.815540	0.295206
C125	C	1.083011	-0.773507	0.246109
C126	C	1.131593	-0.736777	0.197329
H127	H	1.156136	-0.786824	0.322013
H128	H	1.149399	-0.847857	0.268603
H129	H	1.056422	-0.741193	0.272709
H130	H	1.049676	-0.802205	0.219285
H131	H	1.158194	-0.769094	0.170726
H132	H	1.164928	-0.708065	0.224143
H133	H	1.104604	-0.708258	0.164007
H134	H	0.980966	-0.937207	0.437120
H135	H	1.145933	-1.070256	0.272458
C136	C	1.150820	-0.244623	0.785626
C137	C	1.140314	-0.254262	0.710517
C138	C	1.189372	-0.209429	0.669961
H139	H	1.142229	-0.197403	0.796038
H140	H	1.199821	-0.254903	0.798644
H141	H	1.091324	-0.243977	0.697504
H142	H	1.148910	-0.301473	0.700083
H143	H	1.238373	-0.219709	0.682979
H144	H	1.180778	-0.162211	0.680380
H145	H	1.182255	-0.215967	0.618996
C146	C	0.961820	-1.080112	0.456376
C147	C	0.922717	-1.032303	0.495433
C148	C	0.873978	-1.068851	0.544195
H149	H	0.928432	-1.108772	0.429565
H150	H	0.988677	-1.108668	0.489782
H151	H	0.895862	-1.003759	0.462032
H152	H	0.956086	-1.003641	0.522259
H153	H	0.900834	-1.097407	0.577601
H154	H	0.840594	-1.097510	0.517378
H155	H	0.847445	-1.036418	0.570706
H156	H	0.945031	-0.738785	0.472887
