data_functionalizedCrystal
_audit_creation_method	'MofGen! by Chris Wilmer'
_symmetry_space_group_name_H-M	'P1'
_symmetry_Int_Tables_number	1
_symmetry_cell_setting	triclinic
loop_
_symmetry_equiv_pos_as_xyz
  x,y,z
_cell_length_a	17.699083
_cell_length_b	11.295483
_cell_length_c	17.699092
_cell_angle_alpha	85.911482
_cell_angle_beta	96.715309
_cell_angle_gamma	85.909472
loop_
_atom_site_label
_atom_site_type_symbol
_atom_site_fract_x
_atom_site_fract_y
_atom_site_fract_z
O1	O	-1.009176	0.098841	0.090614
O2	O	-0.788801	0.098882	0.103064
O3	O	-0.905211	0.098858	-0.013350
O4	O	-0.892766	0.098865	0.207028
O5	O	-0.894987	-0.099191	-0.003140
O6	O	-0.778576	-0.099167	0.113273
O7	O	-0.998952	-0.099208	0.100823
Cu8	Cu	-0.887830	-0.117271	0.107980
Cu9	Cu	-0.899922	0.116945	0.095907
O10	O	-0.882541	-0.099183	0.217237
C11	C	-0.755492	-0.000137	0.107722
C12	C	-0.671474	-0.000121	0.106383
C13	C	-0.622855	-0.000119	0.174716
C14	C	-0.543911	-0.000133	0.173454
C15	C	-0.513588	-0.000142	0.103859
C16	C	-0.562213	-0.000148	0.035521
C17	C	-0.641155	-0.000142	0.036783
C18	C	-0.243848	-0.000174	0.030427
C19	C	-0.164900	-0.000176	0.029169
C20	C	-0.146605	-0.000165	0.167098
C21	C	-0.225547	-0.000159	0.168360
C22	C	-0.274164	-0.000171	0.100023
C23	C	-0.359764	-0.000158	0.101392
C24	C	-0.427990	-0.000147	0.102489
N25	N	-0.879331	-0.282005	0.116472
C26	C	-0.969609	-0.531313	0.026242
C27	C	-0.963192	-0.655976	0.032664
C28	C	-0.860075	-0.655994	0.135735
C29	C	-0.866493	-0.531332	0.129312
C30	C	-0.921262	-0.468996	0.074565
C31	C	-0.927683	-0.344331	0.068147
C32	C	-0.824564	-0.344352	0.171213
C33	C	-0.818146	-0.469014	0.177636
C34	C	-0.032261	-0.000183	0.096165
C35	C	-0.116279	-0.000182	0.097503
C36	C	-0.899652	-0.000165	-0.036442
C37	C	-0.898311	-0.000159	-0.120460
N38	N	-0.908427	0.281679	0.087409
C39	C	-0.903256	0.107799	-0.165492
C40	C	-0.901992	0.107800	-0.244436
C41	C	-0.895787	-0.000157	-0.278345
C42	C	-0.890839	-0.108123	-0.233306
C43	C	-0.892099	-0.108123	-0.154364
C44	C	-0.885759	-0.108124	-0.551671
C45	C	-0.884502	-0.108115	-0.630620
C46	C	-0.895652	0.107800	-0.641743
C47	C	-0.896911	0.107800	-0.562801
C48	C	-0.891959	-0.000166	-0.517768
C49	C	-0.893329	-0.000166	-0.432169
C50	C	-0.894422	-0.000158	-0.363944
C51	C	-0.888100	-0.000158	0.240329
C52	C	-0.889442	-0.000156	0.324347
H53	H	-0.250231	-0.000147	0.225032
O54	O	-0.099444	-0.000323	0.233542
C55	C	-0.107872	-0.102900	0.281089
H56	H	-0.166029	-0.137093	0.264157
H57	H	-0.061010	-0.174731	0.274527
C58	C	-0.030393	-0.029731	0.385562
C59	C	-0.101825	-0.071722	0.364769
H60	H	-0.026660	-0.010502	0.437180
H61	H	-0.024712	0.039375	0.353527
H62	H	0.008651	-0.089597	0.380087
H63	H	-0.140867	-0.011851	0.370235
H64	H	-0.107513	-0.140818	0.396806
H65	H	-0.785199	-0.293599	0.210563
O66	O	-0.806837	-0.716696	0.188810
C67	C	-0.756502	-0.788782	0.152039
H68	H	-0.785795	-0.807431	0.093733
H69	H	-0.703047	-0.740750	0.144499
C70	C	-0.698176	-0.884311	0.272430
C71	C	-0.734158	-0.907225	0.200821
H72	H	-0.684390	-0.957370	0.302522
H73	H	-0.732086	-0.835743	0.297205
H74	H	-0.653635	-0.844282	0.266136
H75	H	-0.778703	-0.947240	0.207115
H76	H	-0.700255	-0.955803	0.176049
O77	O	-0.291046	0.000033	-0.035987
C78	C	-0.282590	0.102587	-0.083544
H79	H	-0.259236	0.174281	-0.047231
H80	H	-0.241270	0.079394	-0.126077
C81	C	-0.389400	0.061039	-0.171690
C82	C	-0.360722	0.149098	-0.127089
H83	H	-0.437594	0.089727	-0.198554
H84	H	-0.395096	-0.008056	-0.139652
H85	H	-0.354960	0.041719	-0.207128
H86	H	-0.395157	0.168405	-0.091646
H87	H	-0.355034	0.218198	-0.159123
O88	O	-0.688406	-0.000350	-0.029565
C89	C	-0.729345	-0.102904	-0.027666
H90	H	-0.696668	-0.174594	0.014786
H91	H	-0.787910	-0.079710	-0.009377
C92	C	-0.779226	-0.061367	-0.159784
C93	C	-0.739089	-0.149422	-0.107649
H94	H	-0.785240	-0.090060	-0.209121
H95	H	-0.751647	0.007728	-0.161063
H96	H	-0.828026	-0.042047	-0.144534
H97	H	-0.690286	-0.168731	-0.122894
H98	H	-0.766660	-0.218522	-0.106374
H99	H	-1.014209	-0.480559	-0.018331
O100	O	-0.652391	-0.000265	0.242283
C101	C	-0.692207	-0.102845	0.252439
H102	H	-0.710217	-0.137045	0.194513
H103	H	-0.653568	-0.174670	0.289689
C104	C	-0.741447	-0.029669	0.362606
C105	C	-0.763573	-0.071669	0.291460
H106	H	-0.785467	-0.010442	0.386680
H107	H	-0.714620	0.039439	0.355767
H108	H	-0.709247	-0.089530	0.393639
H109	H	-0.795764	-0.011803	0.260426
H110	H	-0.790408	-0.140767	0.298296
O111	O	-0.135418	0.000019	-0.038432
C112	C	-0.095574	0.102574	-0.048571
H113	H	-0.117871	0.174273	-0.012757
H114	H	-0.032092	0.079387	-0.029798
C115	C	-0.080299	0.061003	-0.177373
C116	C	-0.107689	0.149069	-0.133390
H117	H	-0.087768	0.089682	-0.229694
H118	H	-0.107140	-0.008093	-0.170542
H119	H	-0.027399	0.041689	-0.161720
H120	H	-0.160589	0.168371	-0.149037
H121	H	-0.080857	0.218170	-0.140226
H122	H	-0.537517	-0.000172	-0.021145
O123	O	-0.764845	-0.529522	0.230735
C124	C	-0.691516	-0.499047	0.216974
H125	H	-0.693020	-0.464771	0.154613
H126	H	-0.672937	-0.426694	0.255231
C127	C	-0.632637	-0.651896	0.311097
C128	C	-0.634482	-0.609807	0.234502
H129	H	-0.597454	-0.720215	0.321912
H130	H	-0.682039	-0.672426	0.320371
H131	H	-0.617156	-0.591592	0.342968
H132	H	-0.649972	-0.670105	0.202633
H133	H	-0.585081	-0.589290	0.225224
H134	H	-0.972281	-0.293578	0.023570
H135	H	-0.901967	0.195710	-0.535196
H136	H	-0.879447	-0.196032	-0.658226
O137	O	-0.496794	-0.000076	0.239900
C138	C	-0.540485	-0.000090	0.301598
H139	H	-0.601371	0.037412	0.280345
H140	H	-0.541175	-0.095100	0.327838
C141	C	-0.430249	0.031518	0.388362
C142	C	-0.505029	0.077589	0.362260
H143	H	-0.408378	0.079429	0.425783
H144	H	-0.400813	0.031523	0.346796
H145	H	-0.430835	-0.047656	0.410224
H146	H	-0.504442	0.156756	0.340390
H147	H	-0.534465	0.077599	0.403824
H148	H	-0.899680	0.195711	-0.678417
H149	H	-1.002559	-0.706711	-0.006687
O150	O	-0.909254	0.212777	-0.132674
C151	C	-0.913365	0.308062	-0.189355
H152	H	-0.886882	0.276415	-0.240820
H153	H	-0.975641	0.341247	-0.207513
C154	C	-0.902035	0.448941	-0.094015
C155	C	-0.869502	0.410073	-0.157221
H156	H	-0.874981	0.511868	-0.074193
H157	H	-0.899269	0.384746	-0.055827
H158	H	-0.953930	0.476586	-0.109155
H159	H	-0.817611	0.382414	-0.142078
H160	H	-0.872259	0.474265	-0.195406
H161	H	-0.906022	0.195710	-0.281098
O162	O	-0.880999	-0.213103	-0.508053
C163	C	-0.875247	-0.308384	-0.554913
H164	H	-0.899921	-0.276719	-0.615995
H165	H	-0.812708	-0.341598	-0.553539
C166	C	-0.889810	-0.449261	-0.450423
C167	C	-0.920121	-0.410372	-0.525444
H168	H	-0.917487	-0.512176	-0.432244
H169	H	-0.893682	-0.385070	-0.418851
H170	H	-0.837695	-0.476931	-0.449288
H171	H	-0.972232	-0.382689	-0.526576
H172	H	-0.916258	-0.474561	-0.557015
O173	O	-0.884677	-0.213024	-0.266192
C174	C	-0.816080	-0.278705	-0.234817
H175	H	-0.773888	-0.215530	-0.210298
H176	H	-0.828148	-0.346026	-0.187490
C177	C	-0.833659	-0.422442	-0.327712
C178	C	-0.781837	-0.344849	-0.297603
H179	H	-0.812538	-0.463248	-0.366439
H180	H	-0.879876	-0.378195	-0.348849
H181	H	-0.843712	-0.478532	-0.288266
H182	H	-0.771793	-0.288752	-0.337046
H183	H	-0.735617	-0.389089	-0.276474
H184	H	-0.888061	-0.196034	-0.117698
