data_functionalizedCrystal
_audit_creation_method	'MofGen! by Chris Wilmer'
_symmetry_space_group_name_H-M	'P1'
_symmetry_Int_Tables_number	1
_symmetry_cell_setting	triclinic
loop_
_symmetry_equiv_pos_as_xyz
  x,y,z
_cell_length_a	19.805407
_cell_length_b	14.908520
_cell_length_c	19.805399
_cell_angle_alpha	93.270609
_cell_angle_beta	89.980427
_cell_angle_gamma	93.320773
loop_
_atom_site_label
_atom_site_type_symbol
_atom_site_fract_x
_atom_site_fract_y
_atom_site_fract_z
Zn1	Zn	1.019204	-0.359181	-0.398269
Zn2	Zn	1.519204	0.140819	0.101731
Zn3	Zn	1.012594	-0.510047	-0.291612
Zn4	Zn	1.512594	-0.010047	0.208388
Zn5	Zn	0.906017	-0.359206	-0.285095
Zn6	Zn	1.406017	0.140794	0.214905
Zn7	Zn	0.899460	-0.509999	-0.404757
Zn8	Zn	1.399460	-0.009999	0.095243
O9	O	0.959319	-0.434608	-0.344934
O10	O	1.459319	0.065392	0.155066
O11	O	1.113043	-0.379203	-0.384134
O12	O	1.613043	0.120797	0.115866
O13	O	0.998435	-0.490068	-0.196033
O14	O	1.498435	0.009932	0.303967
O15	O	0.926542	-0.232958	-0.294665
O16	O	1.426542	0.267042	0.205335
O17	O	1.108187	-0.490044	-0.305773
O18	O	1.608187	0.009956	0.194227
O19	O	1.009699	-0.232939	-0.377814
O20	O	1.509699	0.267061	0.122186
O21	O	0.920133	-0.379246	-0.191244
O22	O	1.420133	0.120754	0.308756
O23	O	0.810431	-0.379199	-0.300956
O24	O	1.310431	0.120801	0.199044
O25	O	0.915366	-0.489962	-0.498612
O26	O	1.415366	0.010038	0.001388
O27	O	0.805614	-0.489986	-0.388871
O28	O	1.305614	0.010014	0.111129
O29	O	1.003341	-0.379157	-0.493845
O30	O	1.503341	0.120843	0.006155
O31	O	0.992077	-0.636286	-0.312064
O32	O	1.492077	-0.136286	0.187936
O33	O	0.908957	-0.636250	-0.395191
O34	O	1.408957	-0.136250	0.104809
C35	C	0.783463	-0.434591	-0.344911
C36	C	1.283463	0.065409	0.155089
C37	C	0.708231	-0.434605	-0.344918
C38	C	1.208231	0.065395	0.155082
C39	C	0.670392	-0.492379	-0.390629
C40	C	1.170392	0.007621	0.109371
C41	C	0.599704	-0.492380	-0.390639
C42	C	1.099704	0.007620	0.109361
C43	C	0.566855	-0.434612	-0.344934
C44	C	1.066855	0.065388	0.155066
C45	C	0.604699	-0.376832	-0.299220
C46	C	1.104699	0.123168	0.200780
C47	C	0.675386	-0.376827	-0.299214
C48	C	1.175386	0.123173	0.200786
C49	C	0.319625	-0.376852	-0.299244
C50	C	0.819625	0.123148	0.200756
C51	C	0.248932	-0.376864	-0.299252
C52	C	0.748932	0.123136	0.200748
C53	C	0.243942	-0.492406	-0.390668
C54	C	0.743942	0.007594	0.109332
C55	C	0.314629	-0.492400	-0.390662
C56	C	0.814629	0.007600	0.109338
C57	C	0.352467	-0.434618	-0.344952
C58	C	0.852467	0.065382	0.155048
C59	C	0.429116	-0.434615	-0.344943
C60	C	0.929116	0.065385	0.155057
C61	C	0.490208	-0.434618	-0.344939
C62	C	0.990208	0.065382	0.155061
C63	C	0.949107	-0.669002	-0.355053
C64	C	1.449107	-0.169002	0.144947
C65	C	0.944800	-0.769277	-0.359405
C66	C	1.444800	-0.269277	0.140595
C67	C	1.023348	-0.957679	-0.281093
C68	C	1.523348	-0.457679	0.218907
C69	C	1.019304	-1.051896	-0.285180
C70	C	1.519304	-0.551896	0.214820
C71	C	0.932671	-1.051929	-0.371669
C72	C	1.432671	-0.551929	0.128331
C73	C	0.936715	-0.957712	-0.367582
C74	C	1.436715	-0.457712	0.132418
C75	C	0.982055	-0.910590	-0.322292
C76	C	1.482055	-0.410590	0.177708
C77	C	0.986095	-0.816372	-0.318202
C78	C	1.486095	-0.316372	0.181798
C79	C	0.899466	-0.816407	-0.404694
C80	C	1.399466	-0.316407	0.095306
C81	C	0.895421	-0.910624	-0.408781
C82	C	1.395421	-0.410624	0.091219
C83	C	1.135861	-0.434626	-0.344957
C84	C	1.635861	0.065374	0.155043
C85	C	1.211092	-0.434634	-0.344967
C86	C	1.711092	0.065366	0.155033
C87	C	0.959359	-0.434551	-0.521474
C88	C	1.459359	0.065449	-0.021474
C89	C	0.959376	-0.434527	-0.596705
C90	C	1.459376	0.065473	-0.096705
C91	C	0.969589	-0.199299	-0.334789
C92	C	1.469589	0.300701	0.165211
C93	C	0.973966	-0.099024	-0.330466
C94	C	1.473966	0.400976	0.169534
C95	C	1.005186	-0.376828	-0.629568
C96	C	1.505186	0.123172	-0.129568
C97	C	1.005194	-0.376802	-0.700255
C98	C	1.505194	0.123198	-0.200255
C99	C	0.959395	-0.434480	-0.738078
C100	C	1.459395	0.065520	-0.238078
C101	C	0.913581	-0.492182	-0.705210
C102	C	1.413581	0.007818	-0.205210
C103	C	0.913570	-0.492203	-0.634524
C104	C	1.413570	0.007797	-0.134524
C105	C	0.913622	-0.492098	-0.990280
C106	C	1.413622	0.007902	-0.490280
C107	C	0.913638	-0.492074	-1.060971
C108	C	1.413638	0.007926	-0.560971
C109	C	1.005247	-0.376697	-1.056011
C110	C	1.505247	0.123303	-0.556011
C111	C	1.005236	-0.376718	-0.985325
C112	C	1.505236	0.123282	-0.485325
C113	C	0.959419	-0.434416	-0.952463
C114	C	1.459419	0.065584	-0.452463
C115	C	0.959410	-0.434442	-0.875816
C116	C	1.459410	0.065558	-0.375816
C117	C	0.959407	-0.434459	-0.814725
C118	C	1.459407	0.065541	-0.314725
C119	C	0.959320	-0.434600	-0.169077
C120	C	1.459320	0.065400	0.330923
C121	C	0.959445	-0.434370	-0.093836
C122	C	1.459445	0.065630	0.406164
H123	H	0.350424	-0.329809	-0.262018
H124	H	0.850424	0.170191	0.237982
H125	H	0.876288	-0.539141	-0.736011
H126	H	1.376288	-0.039141	-0.236011
O127	O	0.869170	-0.548228	-1.097643
O128	O	1.369170	-0.048228	-0.597643
C129	C	0.829638	-0.701675	-1.125912
C130	C	1.329638	-0.201675	-0.625912
C131	C	0.880020	-0.638185	-1.084332
C132	C	1.380020	-0.138185	-0.584332
H133	H	0.838401	-0.774419	-1.115176
H134	H	1.338401	-0.274419	-0.615176
H135	H	0.775736	-0.685898	-1.111313
H136	H	1.275736	-0.185898	-0.611313
H137	H	0.837509	-0.691705	-1.182073
H138	H	1.337509	-0.191705	-0.682073
H139	H	0.872210	-0.648120	-1.028161
H140	H	1.372210	-0.148120	-0.528161
H141	H	0.933903	-0.653978	-1.098988
H142	H	1.433903	-0.153978	-0.598988
H143	H	0.876260	-0.539178	-0.607768
H144	H	1.376260	-0.039178	-0.107768
O145	O	1.067423	-0.911802	-0.237187
O146	O	1.567423	-0.411802	0.262813
C147	C	1.163406	-0.805369	-0.223548
C148	C	1.663406	-0.305369	0.276452
C149	C	1.113527	-0.857249	-0.273345
C150	C	1.613527	-0.357249	0.226655
H151	H	1.200703	-0.761265	-0.252763
H152	H	1.700703	-0.261265	0.247237
H153	H	1.134281	-0.761264	-0.186226
H154	H	1.634281	-0.261264	0.313774
H155	H	1.192190	-0.855229	-0.194786
H156	H	1.692190	-0.355229	0.305214
H157	H	1.084730	-0.807455	-0.302154
H158	H	1.584730	-0.307455	0.197846
H159	H	1.142691	-0.901368	-0.310624
H160	H	1.642691	-0.401368	0.189376
O161	O	0.869209	-0.548194	-0.958299
O162	O	1.369209	-0.048194	-0.458299
C163	C	0.854752	-0.670069	-0.883788
C164	C	1.354752	-0.170069	-0.383788
C165	C	0.905129	-0.606579	-0.919953
C166	C	1.405129	-0.106579	-0.419953
H167	H	0.883774	-0.717302	-0.852789
H168	H	1.383774	-0.217302	-0.352789
H169	H	0.821165	-0.628710	-0.848863
H170	H	1.321165	-0.128710	-0.348863
H171	H	0.822015	-0.711241	-0.922984
H172	H	1.322015	-0.211241	-0.422984
H173	H	0.937910	-0.565393	-0.880805
H174	H	1.437910	-0.065393	-0.380805
H175	H	0.938669	-0.647989	-0.954891
H176	H	1.438669	-0.147989	-0.454891
H177	H	0.697132	-0.539423	-0.427846
H178	H	1.197132	-0.039423	0.072154
H179	H	0.568898	-0.539426	-0.427861
H180	H	1.068898	-0.039426	0.072139
H181	H	0.213126	-0.539452	-0.427890
H182	H	0.713126	-0.039452	0.072110
O183	O	0.346432	-0.548545	-0.435126
O184	O	0.846432	-0.048545	0.064874
C185	C	0.334019	-0.663184	-0.525779
C186	C	0.834019	-0.163184	-0.025779
C187	C	0.297918	-0.599634	-0.475469
C188	C	0.797918	-0.099634	0.024531
H189	H	0.294811	-0.704520	-0.558400
H190	H	0.794811	-0.204520	-0.058400
H191	H	0.368908	-0.621865	-0.559479
H192	H	0.868908	-0.121865	-0.059479
H193	H	0.365069	-0.710260	-0.496666
H194	H	0.865069	-0.210260	0.003334
H195	H	0.266832	-0.552545	-0.504527
H196	H	0.766832	-0.052545	-0.004527
H197	H	0.263070	-0.641010	-0.441769
H198	H	0.763070	-0.141010	0.058231
O199	O	0.859278	-0.770804	-0.444744
O200	O	1.359278	-0.270804	0.055256
C201	C	0.772945	-0.780784	-0.530983
C202	C	1.272945	-0.280784	-0.030983
C203	C	0.818409	-0.832540	-0.485661
C204	C	1.318409	-0.332540	0.014339
H205	H	0.739900	-0.830675	-0.564085
H206	H	1.239900	-0.330675	-0.064085
H207	H	0.739418	-0.736771	-0.497991
H208	H	1.239418	-0.236771	0.002009
H209	H	0.805900	-0.736578	-0.564459
H210	H	1.305900	-0.236578	-0.064459
H211	H	0.785506	-0.876794	-0.452177
H212	H	1.285506	-0.376794	0.047823
H213	H	0.851940	-0.876496	-0.518693
H214	H	1.351940	-0.376496	-0.018693
O215	O	1.030041	-0.770554	-0.274137
O216	O	1.530041	-0.270554	0.225863
C217	C	1.043779	-0.664203	-0.178176
C218	C	1.543779	-0.164203	0.321824
C219	C	0.993932	-0.716047	-0.228025
C220	C	1.493932	-0.216047	0.271975
H221	H	1.014605	-0.620107	-0.140891
H222	H	1.514605	-0.120107	0.359109
H223	H	1.072589	-0.714005	-0.149383
H224	H	1.572589	-0.214005	0.350617
H225	H	1.081056	-0.620066	-0.207388
H226	H	1.581056	-0.120066	0.292612
H227	H	0.956613	-0.760186	-0.198865
H228	H	1.456613	-0.260186	0.301135
H229	H	0.965171	-0.666196	-0.256819
H230	H	1.465171	-0.166196	0.243181
H231	H	0.222189	-0.329817	-0.262033
H232	H	0.722189	0.170183	0.237967
H233	H	0.577948	-0.329793	-0.262009
H234	H	1.077948	0.170207	0.237991
O235	O	0.712041	-0.320682	-0.254742
O236	O	1.212041	0.179318	0.245258
C237	C	0.709537	-0.206046	-0.164089
C238	C	1.209537	0.293954	0.335911
C239	C	0.667944	-0.269601	-0.214407
C240	C	1.167944	0.230399	0.285593
H241	H	0.673902	-0.164717	-0.131474
H242	H	1.173902	0.335283	0.368526
H243	H	0.740798	-0.247359	-0.130383
H244	H	1.240798	0.252641	0.369617
H245	H	0.744713	-0.158963	-0.193195
H246	H	1.244713	0.341037	0.306805
H247	H	0.632730	-0.316697	-0.185355
H248	H	1.132730	0.183303	0.314645
H249	H	0.636728	-0.228231	-0.248112
H250	H	1.136728	0.271769	0.251888
O251	O	0.851395	-0.956541	-0.452714
O252	O	1.351395	-0.456541	0.047286
C253	C	0.806797	-1.101701	-0.497370
C254	C	1.306797	-0.601701	0.002630
C255	C	0.856677	-1.049816	-0.447576
C256	C	1.356677	-0.549816	0.052424
H257	H	0.811060	-1.177123	-0.493243
H258	H	1.311060	-0.677123	0.006757
H259	H	0.753002	-1.083319	-0.484627
H260	H	1.253002	-0.583319	0.015373
H261	H	0.819435	-1.083064	-0.551144
H262	H	1.319435	-0.583064	-0.051144
H263	H	0.844101	-1.068425	-0.393785
H264	H	1.344101	-0.568425	0.106215
H265	H	0.910457	-1.068203	-0.460378
H266	H	1.410457	-0.568203	0.039622
H267	H	1.052931	-1.090232	-0.251633
H268	H	1.552931	-0.590232	0.248367
H269	H	0.895762	-1.090312	-0.408547
H270	H	1.395762	-0.590312	0.091453
O271	O	1.049702	-0.320714	-0.592931
O272	O	1.549702	0.179286	-0.092931
C273	C	1.140594	-0.206303	-0.595481
C274	C	1.640594	0.293697	-0.095481
C275	C	1.090207	-0.269796	-0.637052
C276	C	1.590207	0.230204	-0.137052
H277	H	1.173364	-0.165133	-0.631136
H278	H	1.673364	0.334867	-0.131136
H279	H	1.111608	-0.159076	-0.560364
H280	H	1.611608	0.340924	-0.060364
H281	H	1.174143	-0.247749	-0.564163
H282	H	1.674143	0.252251	-0.064163
H283	H	1.056644	-0.228422	-0.668410
H284	H	1.556644	0.271578	-0.168410
H285	H	1.119234	-0.317024	-0.672126
H286	H	1.619234	0.182976	-0.172126
H287	H	1.042499	-0.329820	-0.727009
H288	H	1.542499	0.170180	-0.227009
O289	O	1.049750	-0.320604	-0.948686
O290	O	1.549750	0.179396	-0.448686
C291	C	1.140641	-0.206191	-0.951229
C292	C	1.640641	0.293809	-0.451229
C293	C	1.090257	-0.269683	-0.992804
C294	C	1.590257	0.230317	-0.492804
H295	H	1.173414	-0.165019	-0.986882
H296	H	1.673414	0.334981	-0.486882
H297	H	1.111653	-0.158966	-0.916113
H298	H	1.611653	0.341034	-0.416113
H299	H	1.174190	-0.247637	-0.919910
H300	H	1.674190	0.252363	-0.419910
H301	H	1.056696	-0.228310	-1.024163
H302	H	1.556696	0.271690	-0.524163
H303	H	1.119287	-0.316910	-1.027877
H304	H	1.619287	0.183090	-0.527877
O305	O	1.049684	-0.320668	-1.088040
O306	O	1.549684	0.179332	-0.588040
C307	C	1.090331	-0.269527	-1.194738
C308	C	1.590331	0.230473	-0.694738
C309	C	1.039960	-0.333005	-1.158554
C310	C	1.539960	0.166995	-0.658554
H311	H	1.082497	-0.279493	-1.251755
H312	H	1.582497	0.220507	-0.751755
H313	H	1.081619	-0.196766	-1.177748
H314	H	1.581619	0.303234	-0.677748
H315	H	1.144207	-0.285372	-1.181494
H316	H	1.644207	0.214628	-0.681494
H317	H	0.986065	-0.317241	-1.171781
H318	H	1.486065	0.182759	-0.671781
H319	H	1.048731	-0.405747	-1.175547
H320	H	1.548731	0.094253	-0.675547
