data_functionalizedCrystal
_audit_creation_method	'MofGen! by Chris Wilmer'
_symmetry_space_group_name_H-M	'P1'
_symmetry_Int_Tables_number	1
_symmetry_cell_setting	triclinic
loop_
_symmetry_equiv_pos_as_xyz
  x,y,z
_cell_length_a	14.044220
_cell_length_b	14.853567
_cell_length_c	13.930277
_cell_angle_alpha	90.004245
_cell_angle_beta	89.994760
_cell_angle_gamma	91.588096
loop_
_atom_site_label
_atom_site_type_symbol
_atom_site_fract_x
_atom_site_fract_y
_atom_site_fract_z
O1	O	0.123767	-1.206174	-0.079767
O2	O	0.138510	-0.944883	-0.079784
O3	O	-0.006851	-1.071607	-0.079766
O4	O	0.269128	-1.079450	-0.079785
O5	O	-0.006854	-1.071587	0.079896
O6	O	0.138507	-0.944863	0.079878
O7	O	0.123764	-1.206155	0.079895
Zn8	Zn	0.131135	-1.075506	0.105236
Zn9	Zn	0.131139	-1.075532	-0.105125
O10	O	0.269125	-1.079431	0.079877
C11	C	0.137841	-0.911231	0.000045
C12	C	0.135839	-0.810989	0.000039
C13	C	-0.042172	-1.068163	0.000065
C14	C	-0.147411	-1.057921	0.000066
C15	C	0.124433	-1.239806	0.000064
C16	C	0.126435	-1.340048	0.000064
C17	C	-0.340097	-1.039197	0.000051
C18	C	-0.397635	-1.111836	0.000052
C19	C	-0.504852	-1.101418	0.000044
C20	C	-0.232870	-1.049614	0.000059
C21	C	0.304446	-1.082874	0.000044
C22	C	0.409685	-1.093116	0.000037
N23	N	0.131132	-1.075495	0.248802
C24	C	0.041029	-0.390944	0.000067
C25	C	0.213721	-0.383345	0.000054
C26	C	0.215604	-0.477528	0.000051
C27	C	0.130197	-0.528423	0.000054
C28	C	0.042908	-0.485135	0.000061
C29	C	0.302891	-0.520822	0.000035
C30	C	0.304777	-0.615011	0.000031
C31	C	0.219369	-0.665908	0.000041
C32	C	0.132077	-0.622615	0.000048
C33	C	0.046670	-0.673510	0.000052
C34	C	-0.040623	-0.630218	0.000066
C35	C	-0.042499	-0.536032	0.000071
C36	C	0.221246	-0.760094	0.000036
C37	C	0.048550	-0.767702	0.000046
N38	N	0.131135	-1.075549	-0.248691
C39	C	0.195480	-1.019414	0.701064
C40	C	0.066791	-1.131673	0.701049
C41	C	0.066788	-1.131663	0.600553
C42	C	0.131133	-1.075527	0.550308
C43	C	0.195481	-1.019403	0.600559
C44	C	0.002448	-1.187792	0.550295
C45	C	0.002443	-1.187784	0.449793
C46	C	0.066784	-1.131644	0.399546
C47	C	0.131134	-1.075517	0.449803
C48	C	0.195479	-1.019382	0.399558
C49	C	0.259825	-0.963249	0.449813
C50	C	0.259822	-0.963263	0.550312
C51	C	0.066787	-1.131630	0.299047
C52	C	0.195480	-1.019371	0.299053
H53	H	-0.366371	-1.181849	-0.000008
Cl54	Cl	-0.068706	-0.336523	0.000090
H55	H	0.372424	-0.479377	0.000023
H56	H	-0.371358	-0.969191	0.000044
H57	H	0.014408	-1.177382	0.741962
Cl58	Cl	-0.147987	-0.694212	0.000063
H59	H	0.312219	-0.917547	0.408892
H60	H	0.247874	-0.973655	0.258150
H61	H	0.312211	-0.917562	0.591236
Cl62	Cl	-0.058825	-0.831677	0.000057
Cl63	Cl	-0.152229	-0.481603	0.000083
Cl64	Cl	0.321083	-0.319362	0.000037
Cl65	Cl	-0.014094	-1.202197	0.235876
Cl66	Cl	0.414515	-0.669426	0.000016
H67	H	0.292318	-0.795338	0.000026
Cl68	Cl	0.276365	-0.948847	0.764236
H69	H	-0.049936	-1.233501	0.591208
H70	H	-0.049952	-1.233489	0.408882
