data_functionalizedCrystal
_audit_creation_method	'MofGen! by Chris Wilmer'
_symmetry_space_group_name_H-M	'P1'
_symmetry_Int_Tables_number	1
_symmetry_cell_setting	triclinic
loop_
_symmetry_equiv_pos_as_xyz
  x,y,z
_cell_length_a	15.944551
_cell_length_b	15.944551
_cell_length_c	9.730223
_cell_angle_alpha	89.999638
_cell_angle_beta	90.001647
_cell_angle_gamma	83.498738
loop_
_atom_site_label
_atom_site_type_symbol
_atom_site_fract_x
_atom_site_fract_y
_atom_site_fract_z
O1	O	1.114523	0.108326	-0.114150
O2	O	0.869973	0.121682	-0.114184
O3	O	0.998926	-0.007271	-0.114153
O4	O	0.985570	0.237279	-0.114180
O5	O	0.998918	-0.007262	0.114426
O6	O	0.869965	0.121691	0.114396
O7	O	1.114514	0.108334	0.114430
Zn8	Zn	0.992238	0.115014	0.150705
Zn9	Zn	0.992249	0.115002	-0.150459
O10	O	0.985561	0.237287	0.114400
C11	C	0.838675	0.121132	0.000102
C12	C	0.745429	0.119470	0.000089
C13	C	0.530572	0.035565	0.000125
C14	C	0.469556	0.074523	-0.112582
C15	C	0.574703	0.116462	0.000105
C16	C	0.469570	0.074551	0.112780
C17	C	0.409790	0.113551	0.000127
C18	C	0.514915	0.155443	-0.112694
C19	C	0.514936	0.155459	0.112769
C20	C	0.453937	0.194476	0.000035
C21	C	0.669705	0.118137	0.000091
C22	C	0.314789	0.111883	0.000131
C23	C	0.998367	-0.038561	0.000137
C24	C	0.996705	-0.131807	0.000137
C25	C	0.912801	-0.346663	0.000106
C26	C	0.951759	-0.407676	0.112816
C27	C	0.993698	-0.302533	0.000126
C28	C	0.951786	-0.407668	-0.112546
C29	C	0.990787	-0.467445	0.000110
C30	C	1.032678	-0.362317	0.112928
C31	C	1.032694	-0.362303	-0.112535
C32	C	1.071711	-0.423298	0.000202
C33	C	0.995372	-0.207530	0.000137
C34	C	0.989119	-0.562446	0.000109
C35	C	1.145813	0.108885	0.000142
C36	C	1.239059	0.110547	0.000145
C37	C	0.986120	0.268577	0.000107
C38	C	0.987782	0.361823	0.000097
N39	N	0.992237	0.115021	0.356242
N40	N	0.992258	0.114988	-0.355995
C41	C	0.941310	0.064021	0.572061
C42	C	0.941301	0.064035	0.428178
C43	C	1.043190	0.165991	0.428196
C44	C	1.043203	0.165972	0.572076
C45	C	0.882482	0.005160	0.572050
C46	C	0.882473	0.005174	0.428167
H47	H	0.535063	0.189650	0.208052
N48	N	0.918355	-0.078855	0.369014
H49	H	0.917096	-0.075756	0.265348
H50	H	0.978536	-0.092793	0.401216
N51	N	0.906449	-0.434284	-0.238754
H52	H	0.886509	-0.382863	-0.295590
H53	H	0.946254	-0.474356	-0.295120
H54	H	0.534907	0.189629	-0.208082
N55	N	0.906444	-0.434323	0.239021
H56	H	0.936400	-0.417019	0.324143
H57	H	0.846429	-0.406161	0.238815
N58	N	0.442954	0.029220	0.238992
H59	H	0.471120	-0.030796	0.238892
H60	H	0.460267	0.059236	0.324042
H61	H	0.845652	-0.313356	0.000209
H62	H	1.066862	-0.342323	0.208320
N63	N	0.794479	0.033289	0.376444
H64	H	0.755219	0.045831	0.457143
H65	H	0.795290	0.085847	0.318752
N66	N	1.160729	-0.467232	0.000282
H67	H	1.202092	-0.423715	0.001132
H68	H	1.169605	-0.504089	0.084623
H69	H	0.563905	-0.031573	-0.000008
H70	H	0.449450	0.040303	-0.207860
H71	H	0.818996	0.032103	0.616695
H72	H	1.066885	-0.342176	-0.207817
H73	H	0.420779	0.261683	-0.000035
H74	H	1.084668	0.207499	0.369613
N75	N	1.098195	0.220901	0.649676
H76	H	1.130474	0.253191	0.582273
H77	H	1.061614	0.261946	0.709420
N78	N	0.910660	-0.082822	0.623755
H79	H	0.923229	-0.122071	0.543049
H80	H	0.963215	-0.081971	0.681444
