data_functionalizedCrystal
_audit_creation_method	'MofGen! by Chris Wilmer'
_symmetry_space_group_name_H-M	'P1'
_symmetry_Int_Tables_number	1
_symmetry_cell_setting	triclinic
loop_
_symmetry_equiv_pos_as_xyz
  x,y,z
_cell_length_a	10.654550
_cell_length_b	12.837943
_cell_length_c	9.130313
_cell_angle_alpha	90.001660
_cell_angle_beta	90.003751
_cell_angle_gamma	89.656935
loop_
_atom_site_label
_atom_site_type_symbol
_atom_site_fract_x
_atom_site_fract_y
_atom_site_fract_z
O1	O	0.326749	1.377801	0.121773
O2	O	0.310608	1.075879	0.121782
O3	O	0.136697	1.233781	0.121768
O4	O	0.500661	1.219898	0.121787
O5	O	0.136693	1.233773	-0.121831
O6	O	0.310604	1.075870	-0.121817
O7	O	0.326745	1.377792	-0.121826
Cu8	Cu	0.318674	1.226830	-0.144064
Cu9	Cu	0.318679	1.226840	0.144020
O10	O	0.500656	1.219889	-0.121812
C11	C	0.305153	1.037215	-0.000017
C12	C	0.288891	0.922021	-0.000014
C13	C	0.089786	1.232758	-0.000031
C14	C	-0.049990	1.229708	-0.000028
C15	C	-0.119331	1.322678	-0.000031
C16	C	-0.250665	1.319806	-0.000013
C17	C	-0.243307	1.130985	0.000003
C18	C	-0.111975	1.133858	-0.000004
C19	C	0.484395	0.682468	-0.000025
C20	C	0.469121	0.574232	-0.000023
C21	C	0.243070	0.597312	-0.000019
C22	C	0.258344	0.705547	-0.000021
C23	C	0.379010	0.748121	-0.000021
C24	C	0.394284	0.856359	-0.000013
C25	C	0.168233	0.879436	-0.000019
C26	C	0.152959	0.771201	-0.000017
C27	C	0.547568	1.220913	-0.000010
C28	C	0.687344	1.223963	-0.000003
C29	C	0.332200	1.416456	-0.000024
C30	C	0.348462	1.531650	-0.000018
N31	N	0.318670	1.226830	-0.346687
C32	C	0.241697	1.296778	-0.576691
C33	C	0.241698	1.296772	-0.423355
C34	C	0.395656	1.156897	-0.423364
C35	C	0.395660	1.156909	-0.576698
N36	N	0.318674	1.226848	0.346642
H37	H	-0.307116	1.395513	-0.000011
H38	H	-0.293791	1.052948	0.000020
C39	C	0.605914	1.097527	-0.376125
C40	C	0.480268	1.080018	-0.339090
H41	H	0.658147	1.050066	-0.324091
H42	H	0.616928	1.087522	-0.478404
H43	H	0.627883	1.166865	-0.350970
H44	H	0.458296	1.010682	-0.364255
H45	H	0.469248	1.090015	-0.236788
C46	C	0.447848	0.977832	-0.623957
C47	C	0.480275	1.080035	-0.660984
H48	H	0.500082	0.930379	-0.676001
H49	H	0.458870	0.967817	-0.521680
H50	H	0.362603	0.965983	-0.649104
H51	H	0.565518	1.091886	-0.635827
H52	H	0.469264	1.090053	-0.763284
H53	H	-0.055516	1.058146	0.000002
C54	C	0.616189	0.822670	-0.000035
C55	C	0.526917	0.903160	-0.000022
H56	H	0.698072	0.851563	-0.000053
H57	H	0.605541	0.780940	0.084909
H58	H	0.605508	0.780932	-0.084988
H59	H	0.537592	0.944894	0.084937
H60	H	0.537570	0.944908	-0.084975
H61	H	-0.068867	1.400725	-0.000047
H62	H	0.582647	0.717132	-0.000023
H63	H	0.554937	0.520780	-0.000030
C64	C	0.021157	0.630983	-0.000019
C65	C	0.110440	0.550503	-0.000022
H66	H	-0.060722	0.602083	-0.000028
H67	H	0.031818	0.672716	0.084927
H68	H	0.031815	0.672722	-0.084970
H69	H	0.099789	0.508768	0.084936
H70	H	0.099775	0.508752	-0.084976
C71	C	0.054276	1.014542	0.125215
C72	C	0.052382	0.951606	-0.000013
H73	H	-0.017240	1.059099	0.125217
H74	H	0.053021	0.971836	0.210143
H75	H	0.128326	1.055388	0.125197
H76	H	-0.021664	0.910754	0.000010
H77	H	0.053626	0.994317	-0.084963
H78	H	0.054715	0.736522	-0.000034
H79	H	0.179012	1.353728	-0.639104
H80	H	0.179018	1.353716	-0.360937
