data_functionalizedCrystal
_audit_creation_method	'MofGen! by Chris Wilmer'
_symmetry_space_group_name_H-M	'P1'
_symmetry_Int_Tables_number	1
_symmetry_cell_setting	triclinic
loop_
_symmetry_equiv_pos_as_xyz
  x,y,z
_cell_length_a	16.109318
_cell_length_b	9.130307
_cell_length_c	16.109301
_cell_angle_alpha	89.995285
_cell_angle_beta	96.534978
_cell_angle_gamma	89.997938
loop_
_atom_site_label
_atom_site_type_symbol
_atom_site_fract_x
_atom_site_fract_y
_atom_site_fract_z
O1	O	1.103119	0.121682	-0.106934
O2	O	0.861059	0.121712	-0.120219
O3	O	0.988739	0.121682	0.007454
O4	O	0.975440	0.121713	-0.234607
O5	O	0.988735	-0.121917	0.007455
O6	O	0.861055	-0.121887	-0.120217
O7	O	1.103115	-0.121917	-0.106933
Cu8	Cu	0.982085	-0.144144	-0.113575
Cu9	Cu	0.982090	0.143940	-0.113577
O10	O	0.975436	-0.121886	-0.234606
C11	C	0.830083	-0.000083	-0.119677
C12	C	0.737788	-0.000072	-0.118057
N13	N	0.982088	-0.346767	-0.113574
C14	C	0.438717	0.132687	-0.112822
C15	C	0.525438	0.132696	-0.114340
C16	C	0.525452	-0.132889	-0.114327
C17	C	0.438733	-0.132896	-0.112804
C18	C	0.395367	-0.000104	-0.112056
C19	C	0.568807	-0.000087	-0.115096
C20	C	0.662835	-0.000078	-0.116742
C21	C	0.301334	-0.000113	-0.110409
C22	C	1.095194	-0.346784	-0.000552
C23	C	1.151752	-0.423460	0.055956
C24	C	1.151761	-0.576793	0.055957
C25	C	1.095203	-0.653455	-0.000555
C26	C	1.038644	-0.576779	-0.057064
C27	C	1.038643	-0.423442	-0.057060
C28	C	0.925535	-0.576762	-0.170080
C29	C	0.925530	-0.423428	-0.170086
C30	C	0.868977	-0.653424	-0.226592
C31	C	0.812421	-0.576748	-0.283106
C32	C	0.812416	-0.423405	-0.283105
C33	C	0.868971	-0.346753	-0.226594
C34	C	1.134092	-0.000118	-0.107474
C35	C	1.226387	-0.000119	-0.109095
C36	C	0.988198	-0.000119	0.038430
C37	C	0.986583	-0.000120	0.130725
N38	N	0.982094	0.346563	-0.113572
C39	C	0.975976	-0.000083	-0.265581
C40	C	0.977592	-0.000071	-0.357877
C41	C	1.058590	-0.000106	0.352993
C42	C	1.057066	-0.000094	0.439713
C43	C	0.905579	-0.000081	0.419848
C44	C	0.907104	-0.000083	0.333130
C45	C	0.983612	-0.000103	0.299704
C46	C	0.980563	-0.000089	0.473144
C47	C	0.978910	-0.000075	0.567170
C48	C	0.985265	-0.000113	0.205672
H49	H	0.403411	0.240815	-0.112212
H50	H	0.560771	-0.241003	-0.114938
H51	H	0.560729	0.240828	-0.114963
C52	C	1.213963	-0.339138	0.118116
H53	H	1.247643	-0.406765	0.151774
H54	H	1.248555	-0.279313	0.088192
H55	H	1.184066	-0.279333	0.152745
C56	C	1.095190	-0.178122	-0.000560
H57	H	1.053411	-0.143437	-0.042312
H58	H	1.083840	-0.143433	0.052585
H59	H	1.148322	-0.143442	-0.011974
H60	H	0.868975	-0.221901	-0.226591
C61	C	1.095198	-0.822117	-0.000546
H62	H	1.053412	-0.856792	-0.042290
H63	H	1.148327	-0.856820	-0.011945
H64	H	1.083834	-0.856794	0.052604
C65	C	1.142745	-0.000112	0.316227
H66	H	1.187180	-0.000099	0.360387
H67	H	1.146493	-0.085060	0.282815
H68	H	1.146486	0.084848	0.282808
H69	H	1.118121	-0.000094	0.483098
C70	C	0.391045	-0.278974	-0.111963
H71	H	0.429290	-0.358059	-0.112639
H72	H	0.363569	-0.284497	-0.062915
H73	H	0.350864	-0.284490	-0.159829
C74	C	0.821427	-0.000079	0.456620
H75	H	0.831256	-0.000095	0.515899
H76	H	0.790551	0.084868	0.438324
H77	H	0.790561	-0.085039	0.438329
C78	C	1.213971	-0.661139	0.118116
H79	H	1.247656	-0.593529	0.151770
H80	H	1.184080	-0.720966	0.152736
H81	H	1.248569	-0.720944	0.088183
H82	H	0.868983	-0.778276	-0.226586
H83	H	0.766372	-0.639175	-0.329111
H84	H	0.846043	-0.000075	0.289740
C85	C	0.750202	-0.339074	-0.345267
H86	H	0.716527	-0.406696	-0.378923
H87	H	0.715606	-0.279259	-0.315345
H88	H	0.780095	-0.279258	-0.379897
