data_functionalizedCrystal
_audit_creation_method	'MofGen! by Chris Wilmer'
_symmetry_space_group_name_H-M	'P1'
_symmetry_Int_Tables_number	1
_symmetry_cell_setting	triclinic
loop_
_symmetry_equiv_pos_as_xyz
  x,y,z
_cell_length_a	10.489741
_cell_length_b	10.540539
_cell_length_c	8.965430
_cell_angle_alpha	89.998602
_cell_angle_beta	89.994421
_cell_angle_gamma	84.532333
loop_
_atom_site_label
_atom_site_type_symbol
_atom_site_fract_x
_atom_site_fract_y
_atom_site_fract_z
O1	O	-1.694019	-0.179097	-0.123939
O2	O	-1.322821	-0.195908	-0.123962
O3	O	-1.516889	-0.002797	-0.123948
O4	O	-1.499952	-0.372208	-0.123953
O5	O	-1.516898	-0.002803	0.124131
O6	O	-1.322831	-0.195914	0.124117
O7	O	-1.694028	-0.179103	0.124139
Cu8	Cu	-1.508430	-0.187509	0.146780
Cu9	Cu	-1.508419	-0.187502	-0.146602
O10	O	-1.499961	-0.372214	0.124126
C11	C	-1.275294	-0.194641	0.000075
C12	C	-1.133665	-0.190843	0.000066
C13	C	-1.741555	-0.180369	0.000100
C14	C	-1.883184	-0.184168	0.000099
C15	C	-1.515623	0.044503	0.000088
C16	C	-1.511823	0.185452	0.000080
C17	C	-1.065540	-0.067971	0.000081
C18	C	-0.973402	-0.126012	-0.122232
C19	C	-0.973445	-0.126047	0.122354
C20	C	-1.043392	-0.248933	-0.122349
C21	C	-1.043445	-0.248951	0.122347
C22	C	-0.951334	-0.307081	0.000004
C23	C	-1.501226	-0.419514	0.000086
C24	C	-1.505026	-0.560463	0.000084
N25	N	-1.508447	-0.187513	0.353129
C26	C	-1.366206	0.368896	-0.000485
C27	C	-1.370058	0.222277	0.000073
C28	C	-1.580052	0.247098	0.141749
C29	C	-1.575214	0.393643	0.141869
C30	C	-1.578087	0.394168	-0.140243
C31	C	-1.579392	0.247186	-0.142116
N32	N	-1.508412	-0.187487	-0.352951
C33	C	-1.598226	-0.098212	0.450401
C34	C	-1.482734	-0.072501	0.549799
C35	C	-1.623894	-0.213141	0.549859
C36	C	-1.392896	-0.161746	0.450338
C37	C	-1.534133	-0.302436	0.450389
C38	C	-1.418558	-0.276773	0.549742
H39	H	-1.115242	0.033036	-0.000070
Cl40	Cl	-1.732620	0.467689	0.151822
H41	H	-1.074489	-0.300901	0.225760
H42	H	-1.524797	0.421846	0.247763
Cl43	Cl	-0.925635	-0.045754	0.282010
Cl44	Cl	-1.736176	0.467064	-0.141710
Cl45	Cl	-1.242101	-0.128085	0.383139
Cl46	Cl	-1.090965	-0.329133	-0.282184
H47	H	-1.684160	0.224731	0.147023
H48	H	-0.901898	-0.408195	-0.000064
Cl49	Cl	-1.287170	0.156509	-0.156718
Cl50	Cl	-1.506890	0.181340	0.304514
H51	H	-1.310202	0.397505	-0.102079
H52	H	-1.674076	-0.022653	0.406781
H53	H	-0.942390	-0.074020	-0.225640
H54	H	-1.310437	0.399108	0.100533
Cl55	Cl	-1.449143	0.077565	0.617206
H56	H	-1.316004	0.180525	0.101790
Cl57	Cl	-1.507229	0.442875	-0.306025
Cl58	Cl	-1.502961	0.183368	-0.303951
Cl59	Cl	-1.738969	0.209767	-0.155326
Cl60	Cl	-1.301192	-0.393361	0.616667
Cl61	Cl	-1.567770	-0.452455	0.382907
Cl62	Cl	-1.774649	-0.246624	0.617360
