data_functionalizedCrystal
_audit_creation_method	'MofGen! by Chris Wilmer'
_symmetry_space_group_name_H-M	'P1'
_symmetry_Int_Tables_number	1
_symmetry_cell_setting	triclinic
loop_
_symmetry_equiv_pos_as_xyz
  x,y,z
_cell_length_a	16.974813
_cell_length_b	11.792254
_cell_length_c	15.455313
_cell_angle_alpha	87.300348
_cell_angle_beta	89.012317
_cell_angle_gamma	83.796100
loop_
_atom_site_label
_atom_site_type_symbol
_atom_site_fract_x
_atom_site_fract_y
_atom_site_fract_z
O1	O	0.104635	1.511261	-0.079473
O2	O	0.115757	1.180859	-0.080256
O3	O	-0.004484	1.354716	-0.071811
O4	O	0.224876	1.337404	-0.087919
O5	O	0.002363	1.344774	0.071971
O6	O	0.122604	1.170917	0.063525
O7	O	0.111483	1.501319	0.064308
Cu8	Cu	0.117668	1.335210	0.077045
Cu9	Cu	0.109571	1.346968	-0.092993
O10	O	0.231723	1.327462	0.055863
C11	C	0.118480	1.133602	-0.008316
C12	C	0.116383	1.007600	-0.008170
C13	C	0.114679	0.905274	-0.008054
C14	C	0.112548	0.776899	-0.007905
C15	C	-0.030424	1.348902	0.002140
C16	C	-0.117917	1.346376	0.008279
C17	C	-0.162750	1.350611	-0.067211
C18	C	-0.244958	1.348230	-0.061440
C19	C	-0.282333	1.341622	0.019822
C20	C	-0.237495	1.337383	0.095318
C21	C	-0.155287	1.339756	0.089546
C22	C	-0.527797	1.333937	0.045489
C23	C	-0.610012	1.331567	0.051255
C24	C	-0.617469	1.342412	-0.105504
C25	C	-0.535260	1.344792	-0.111268
C26	C	-0.490428	1.340547	-0.035772
N27	N	-0.366364	1.339192	0.025723
N28	N	-0.406398	1.342969	-0.041674
C29	C	0.257663	1.333276	-0.018090
C30	C	0.345156	1.335803	-0.024235
C31	C	0.108759	1.548576	-0.007634
C32	C	0.110856	1.674578	-0.007786
N33	N	0.123364	1.326949	0.196640
N34	N	0.103869	1.355238	-0.212588
C35	C	0.072300	1.400835	0.245621
C36	C	0.076614	1.394598	0.336126
C37	C	0.131997	1.314479	0.377648
C38	C	0.183062	1.240585	0.328661
C39	C	0.178744	1.246818	0.238158
C40	C	0.150616	1.287577	0.647922
C41	C	0.154933	1.281352	0.738431
C42	C	0.048483	1.435364	0.745890
C43	C	0.044173	1.441594	0.655385
C44	C	0.095236	1.367696	0.606406
N45	N	0.136409	1.308104	0.470159
N46	N	0.090818	1.374066	0.513897
H47	H	-0.132326	1.355998	-0.133383
H48	H	-0.267931	1.331996	0.161484
H49	H	0.006910	1.495527	0.785777
H50	H	0.200035	1.216106	0.772234
C51	C	-0.066941	1.433600	0.174598
C52	C	-0.106006	1.335098	0.172529
H53	H	-0.036515	1.430713	0.225829
H54	H	-0.104887	1.499015	0.174000
H55	H	-0.032918	1.437864	0.125374
H56	H	-0.140034	1.330839	0.221751
H57	H	-0.068055	1.269666	0.173136
C58	C	-0.244081	1.359288	-0.216966
C59	C	-0.294244	1.352949	-0.144421
H60	H	-0.274512	1.362223	-0.268196
H61	H	-0.206153	1.293853	-0.216389
H62	H	-0.217569	1.426099	-0.215516
H63	H	-0.320752	1.286133	-0.145867
H64	H	-0.332186	1.418390	-0.144999
C65	C	-0.550892	1.355256	-0.265639
C66	C	-0.494179	1.352046	-0.200595
H67	H	-0.525528	1.359730	-0.320785
H68	H	-0.588522	1.420226	-0.259727
H69	H	-0.577078	1.287975	-0.260523
H70	H	-0.467997	1.419331	-0.205707
H71	H	-0.456535	1.287069	-0.206509
H72	H	-0.653980	1.345866	-0.166968
C73	C	-0.058165	1.458931	0.373541
C74	C	0.020489	1.475833	0.389958
H75	H	-0.092813	1.509094	0.406770
H76	H	-0.066378	1.382153	0.389025
H77	H	-0.068647	1.474103	0.313695
H78	H	0.030974	1.460653	0.449804
H79	H	0.028707	1.552629	0.374480
H80	H	0.192195	1.227408	0.608050
H81	H	-0.491307	1.330503	0.106964
C82	C	0.236955	1.162654	0.464082
C83	C	0.243942	1.152518	0.374300
H84	H	0.274545	1.108290	0.492253
H85	H	0.185016	1.149134	0.482618
H86	H	0.246578	1.237411	0.478262
H87	H	0.234313	1.077764	0.360119
H88	H	0.295892	1.166030	0.355757
H89	H	-0.640439	1.326180	0.117432
H90	H	0.220324	1.186650	0.198279
H91	H	-0.000924	1.506833	0.621579
H92	H	0.027206	1.466081	0.211820
