data_functionalizedCrystal
_audit_creation_method	'MofGen! by Chris Wilmer'
_symmetry_space_group_name_H-M	'P1'
_symmetry_Int_Tables_number	1
_symmetry_cell_setting	triclinic
loop_
_symmetry_equiv_pos_as_xyz
  x,y,z
_cell_length_a	12.759401
_cell_length_b	19.120786
_cell_length_c	12.759393
_cell_angle_alpha	92.476000
_cell_angle_beta	90.020938
_cell_angle_gamma	92.466720
loop_
_atom_site_label
_atom_site_type_symbol
_atom_site_fract_x
_atom_site_fract_y
_atom_site_fract_z
Zn1	Zn	1.588347	-0.279569	0.576137
Zn2	Zn	2.088347	0.220431	1.076137
Zn3	Zn	1.580708	-0.397044	0.392943
Zn4	Zn	2.080708	0.102956	0.892943
Zn5	Zn	1.412643	-0.279607	0.400470
Zn6	Zn	1.912643	0.220393	0.900470
Zn7	Zn	1.405111	-0.396995	0.568583
Zn8	Zn	1.905111	0.103005	1.068583
O9	O	1.496702	-0.338304	0.484533
O10	O	1.996702	0.161696	0.984533
O11	O	1.734354	-0.295157	0.551847
O12	O	2.234354	0.204843	1.051847
O13	O	1.558370	-0.381502	0.246918
O14	O	2.058370	0.118498	0.746918
O15	O	1.442300	-0.181311	0.430084
O16	O	1.942300	0.318689	0.930084
O17	O	1.728742	-0.381465	0.417255
O18	O	2.228742	0.118535	0.917255
O19	O	1.571389	-0.181283	0.559146
O20	O	2.071389	0.318717	1.059146
O21	O	1.434893	-0.295221	0.252448
O22	O	1.934893	0.204779	0.752448
O23	O	1.264623	-0.295174	0.422759
O24	O	1.764623	0.204826	0.922759
O25	O	1.429462	-0.381382	0.716609
O26	O	1.929462	0.118618	1.216609
O27	O	1.259089	-0.381418	0.546271
O28	O	1.759089	0.118582	1.046271
O29	O	1.564085	-0.295110	0.722158
O30	O	2.064085	0.204890	1.222158
O31	O	1.551066	-0.495328	0.409930
O32	O	2.051066	0.004672	0.909930
O33	O	1.422055	-0.495292	0.538972
O34	O	1.922055	0.004708	1.038972
C35	C	1.223736	-0.338295	0.484513
C36	C	1.723736	0.161705	0.984513
C37	C	1.106958	-0.338308	0.484528
C38	C	1.606958	0.161692	0.984528
C39	C	1.484943	-0.520796	0.472838
C40	C	1.984943	-0.020796	0.972838
C41	C	1.480008	-0.598867	0.467870
C42	C	1.980008	-0.098867	0.967870
C43	C	1.049238	-0.383284	0.548731
C44	C	1.549238	0.116716	1.048731
C45	C	0.939513	-0.383287	0.548751
C46	C	1.439513	0.116713	1.048751
C47	C	0.945240	-0.293336	0.420358
C48	C	1.445240	0.206664	0.920358
C49	C	1.054962	-0.293330	0.420343
C50	C	1.554962	0.206670	0.920343
C51	C	1.544849	-0.635470	0.532786
C52	C	2.044849	-0.135470	1.032786
C53	C	1.540208	-0.708826	0.528119
C54	C	2.040208	-0.208826	1.028119
C55	C	1.470731	-0.745577	0.458531
C56	C	1.970731	-0.245577	0.958531
C57	C	1.405883	-0.708969	0.393612
C58	C	1.905883	-0.208969	0.893612
C59	C	1.410519	-0.635615	0.398284
C60	C	1.910519	-0.135615	0.898284
C61	C	1.453367	-0.967065	0.441064
C62	C	1.953367	-0.467065	0.941064
C63	C	1.448738	-1.040425	0.436394
C64	C	1.948738	-0.540425	0.936394
C65	C	1.583063	-1.040276	0.570903
C66	C	2.083063	-0.540276	1.070903
C67	C	1.587698	-0.966920	0.575565
C68	C	2.087698	-0.466920	1.075565
C69	C	1.522846	-0.930318	0.510650
C70	C	2.022846	-0.430318	1.010650
C71	C	1.465988	-0.820559	0.453757
C72	C	1.965988	-0.320559	0.953757
C73	C	1.527584	-0.855338	0.515430
C74	C	2.027584	-0.355338	1.015430
C75	C	1.770735	-0.338313	0.484554
C76	C	2.270735	0.161687	0.984554
C77	C	1.887511	-0.338317	0.484563
C78	C	2.387511	0.161683	0.984563
C79	C	1.496785	-0.338236	0.758571
C80	C	1.996785	0.161764	1.258571
C81	C	1.496821	-0.338207	0.875349
C82	C	1.996821	0.161793	1.375349
C83	C	1.508536	-0.155099	0.496297
C84	C	2.008536	0.344901	0.996297
C85	C	1.513579	-0.077028	0.501310
C86	C	2.013579	0.422972	1.001310
C87	C	1.496683	-0.338320	0.211565
C88	C	1.996683	0.161680	0.711565
C89	C	1.496864	-0.338151	0.094799
C90	C	1.996864	0.161849	0.594799
C91	C	1.566924	-0.293278	0.933103
C92	C	2.066924	0.206722	1.433103
C93	C	1.566944	-0.293248	1.042829
C94	C	2.066944	0.206752	1.542829
C95	C	1.426753	-0.383082	1.037038
C96	C	1.926753	0.116918	1.537038
C97	C	1.426729	-0.383108	0.927314
C98	C	1.926729	0.116892	1.427314
H99	H	0.892522	-0.419910	0.601033
H100	H	1.392522	0.080090	1.101033
H101	H	0.902891	-0.256717	0.368099
H102	H	1.402891	0.243283	0.868099
H103	H	1.349308	-0.738898	0.336956
H104	H	1.849308	-0.238898	0.836956
N105	N	1.642523	-0.244855	0.877053
N106	N	2.142523	0.255145	1.377053
H107	H	1.601929	-0.212315	0.833603
H108	H	2.101929	0.287685	1.333603
H109	H	1.689333	-0.273472	0.829768
H110	H	2.189333	0.226528	1.329768
N111	N	1.117228	-0.244809	0.351107
N112	N	1.617228	0.255191	0.851107
H113	H	1.067641	-0.216318	0.310446
H114	H	1.567641	0.283682	0.810446
H115	H	1.160897	-0.273352	0.300579
H116	H	1.660897	0.226648	0.800579
N117	N	1.619792	-0.595833	0.607837
N118	N	2.119792	-0.095833	1.107837
H119	H	1.660162	-0.630155	0.648254
H120	H	2.160162	-0.130155	1.148254
H121	H	1.578924	-0.565400	0.658358
H122	H	2.078924	-0.065400	1.158358
N123	N	1.105318	-0.431788	0.617966
N124	N	1.605318	0.068212	1.117966
H125	H	1.183586	-0.424963	0.608215
H126	H	1.683586	0.075037	1.108215
H127	H	1.082898	-0.481939	0.598278
H128	H	1.582898	0.018061	1.098278
N129	N	1.351120	-0.431576	0.865016
N130	N	1.851120	0.068424	1.365016
H131	H	1.361740	-0.424776	0.787622
H132	H	1.861740	0.075224	1.287622
H133	H	1.276796	-0.420636	0.884883
H134	H	1.776796	0.079364	1.384883
H135	H	1.400564	-0.937269	0.388206
H136	H	1.900564	-0.437269	0.888206
N137	N	1.610091	-0.748306	0.598189
N138	N	2.110091	-0.248306	1.098189
H139	H	1.654795	-0.713893	0.642994
H140	H	2.154795	-0.213893	1.142994
H141	H	1.656825	-0.778755	0.553579
H142	H	2.156825	-0.278755	1.053579
H143	H	1.357717	-0.605813	0.345424
H144	H	1.857717	-0.105813	0.845424
H145	H	1.584149	-0.825413	0.572093
H146	H	2.084149	-0.325413	1.072093
H147	H	1.392156	-1.070346	0.379726
H148	H	1.892156	-0.570346	0.879726
N149	N	1.662630	-0.927282	0.650625
N150	N	2.162630	-0.427282	1.150625
H151	H	1.703002	-0.961602	0.691045
H152	H	2.203002	-0.461602	1.191045
H153	H	1.621756	-0.896851	0.701143
H154	H	2.121756	-0.396851	1.201143
N155	N	1.653006	-1.079753	0.640917
N156	N	2.153006	-0.579753	1.140917
H157	H	1.639529	-1.131800	0.627401
H158	H	2.139529	-0.631800	1.127401
H159	H	1.637425	-1.066904	0.716754
H160	H	2.137425	-0.566904	1.216754
H161	H	1.409422	-0.850490	0.397095
H162	H	1.909422	-0.350490	0.897095
H163	H	1.624027	-0.256661	1.089848
H164	H	2.124027	0.243339	1.589848
H165	H	1.369690	-0.419640	1.079360
H166	H	1.869690	0.080360	1.579360
