data_functionalizedCrystal
_audit_creation_method	'MofGen! by Chris Wilmer'
_symmetry_space_group_name_H-M	'P1'
_symmetry_Int_Tables_number	1
_symmetry_cell_setting	triclinic
loop_
_symmetry_equiv_pos_as_xyz
  x,y,z
_cell_length_a	6.394989
_cell_length_b	10.654550
_cell_length_c	9.730223
_cell_angle_alpha	90.003749
_cell_angle_beta	90.001664
_cell_angle_gamma	94.508693
loop_
_atom_site_label
_atom_site_type_symbol
_atom_site_fract_x
_atom_site_fract_y
_atom_site_fract_z
O1	O	0.293432	-1.670942	-0.114393
O2	O	0.321390	-1.305759	-0.114370
O3	O	0.003422	-1.493534	-0.114383
O4	O	0.611400	-1.483167	-0.114380
O5	O	0.003430	-1.493532	0.114197
O6	O	0.321398	-1.305757	0.114210
O7	O	0.293440	-1.670940	0.114187
Zn8	Zn	0.307420	-1.488348	0.150490
Zn9	Zn	0.307410	-1.488351	-0.150674
O10	O	0.611408	-1.483165	0.114200
C11	C	0.319341	-1.258939	-0.000077
C12	C	0.313199	-1.119430	-0.000069
N13	N	0.307426	-1.488355	0.356027
N14	N	0.307387	-1.488353	-0.356210
C15	C	0.689255	-1.485216	-0.000096
C16	C	0.925581	-1.491480	-0.000101
C17	C	0.295489	-1.717760	-0.000109
C18	C	0.301631	-1.857269	-0.000126
C19	C	0.500414	-1.041927	-0.000088
C20	C	0.494630	-0.910845	-0.000112
C21	C	0.114402	-0.934782	-0.000103
C22	C	0.120188	-1.065861	-0.000070
C23	C	0.719936	-1.028107	-0.000099
C24	C	0.714152	-0.897025	-0.000123
C25	C	0.166678	-1.571524	0.427947
C26	C	0.166653	-1.571521	0.571830
C27	C	0.448142	-1.405175	0.571860
C28	C	0.448156	-1.405174	0.427979
C29	C	0.004169	-1.667567	0.427931
C30	C	0.004143	-1.667563	0.571814
H31	H	-0.032261	-1.128960	-0.000035
C32	C	0.052661	-1.798426	0.624568
N33	N	0.089266	-1.896978	0.664302
C34	C	0.825868	-0.841826	-0.129368
N35	N	0.910004	-0.800251	-0.226714
C36	C	0.803825	-0.836264	0.133179
N37	N	0.871380	-0.790496	0.233576
C38	C	0.602933	-1.313679	0.651021
N39	N	0.719524	-1.244761	0.710644
C40	C	0.603150	-1.313780	0.348872
N41	N	0.719962	-1.244978	0.289289
H42	H	-0.042742	-0.891149	-0.000125
H43	H	0.055053	-1.759289	0.383299
H44	H	-0.156414	-1.644423	0.388877
H45	H	-0.147607	-1.635443	0.616430
C46	C	0.814324	-1.077286	-0.133430
N47	N	0.885397	-1.114329	-0.233862
C48	C	0.835919	-1.068966	0.129141
N49	N	0.923271	-1.099741	0.226485
