data_functionalizedCrystal
_audit_creation_method	'MofGen! by Chris Wilmer'
_symmetry_space_group_name_H-M	'P1'
_symmetry_Int_Tables_number	1
_symmetry_cell_setting	triclinic
loop_
_symmetry_equiv_pos_as_xyz
  x,y,z
_cell_length_a	18.101395
_cell_length_b	21.395362
_cell_length_c	21.395356
_cell_angle_alpha	90.035878
_cell_angle_beta	89.974602
_cell_angle_gamma	89.953017
loop_
_atom_site_label
_atom_site_type_symbol
_atom_site_fract_x
_atom_site_fract_y
_atom_site_fract_z
Zn1	Zn	-0.294531	-0.957808	-0.354598
Zn2	Zn	0.205469	-0.457808	0.145402
Zn3	Zn	-0.418375	-0.957724	-0.249825
Zn4	Zn	0.081625	-0.457724	0.250175
Zn5	Zn	-0.294586	-0.853038	-0.249799
Zn6	Zn	0.205414	-0.353038	0.250201
Zn7	Zn	-0.418369	-0.852991	-0.354530
Zn8	Zn	0.081631	-0.352991	0.145470
O9	O	-0.356465	-0.905390	-0.302188
O10	O	0.143535	-0.405390	0.197812
O11	O	-0.310938	-1.045475	-0.340739
O12	O	0.189062	-0.545475	0.159261
O13	O	-0.401980	-0.943822	-0.162144
O14	O	0.098020	-0.443822	0.337856
O15	O	-0.190946	-0.866990	-0.263718
O16	O	0.309054	-0.366990	0.236282
O17	O	-0.401926	-1.045413	-0.263763
O18	O	0.098074	-0.545413	0.236237
O19	O	-0.190905	-0.943964	-0.340713
O20	O	0.309095	-0.443964	0.159287
O21	O	-0.311033	-0.866909	-0.162125
O22	O	0.188967	-0.366909	0.337875
O23	O	-0.311027	-0.765354	-0.263652
O24	O	0.188973	-0.265354	0.236348
O25	O	-0.401916	-0.866911	-0.442217
O26	O	0.098084	-0.366911	0.057783
O27	O	-0.401970	-0.765320	-0.340598
O28	O	0.098030	-0.265320	0.159402
O29	O	-0.310933	-0.943919	-0.442267
O30	O	0.189067	-0.443919	0.057733
O31	O	-0.522007	-0.943777	-0.263697
O32	O	-0.022007	-0.443777	0.236303
O33	O	-0.522003	-0.866830	-0.340623
O34	O	-0.022003	-0.366830	0.159377
C35	C	-0.548876	-0.905306	-0.302170
C36	C	-0.048876	-0.405306	0.197830
C37	C	-0.631190	-0.905328	-0.302183
C38	C	-0.131190	-0.405328	0.197817
C39	C	-0.356505	-0.742603	-0.302115
C40	C	0.143495	-0.242603	0.197885
C41	C	-0.356539	-0.672961	-0.302099
C42	C	0.143461	-0.172961	0.197901
C43	C	-0.356418	-0.905419	-0.465611
C44	C	0.143582	-0.405419	0.034389
C45	C	-0.356397	-0.905432	-0.535253
C46	C	0.143603	-0.405432	-0.035253
C47	C	-0.930281	-0.905465	-0.302216
C48	C	-0.430281	-0.405465	0.197784
C49	C	-0.898984	-0.857165	-0.350736
C50	C	-0.398984	-0.357165	0.149264
C51	C	-0.813366	-0.856935	-0.350585
C52	C	-0.313366	-0.356935	0.149415
C53	C	-0.781898	-0.905397	-0.302200
C54	C	-0.281898	-0.405397	0.197800
C55	C	-0.813053	-0.887524	-0.236161
C56	C	-0.313053	-0.387524	0.263839
C57	C	-0.898698	-0.887213	-0.236451
C58	C	-0.398698	-0.387213	0.263549
C59	C	-0.898604	-0.971745	-0.319154
C60	C	-0.398604	-0.471745	0.180846
C61	C	-0.812953	-0.971355	-0.320602
C62	C	-0.312953	-0.471355	0.179398
C63	C	-0.698039	-0.905360	-0.302187
C64	C	-0.198039	-0.405360	0.197813
C65	C	-1.014140	-0.905501	-0.302225
C66	C	-0.514140	-0.405501	0.197775
C67	C	-0.163303	-0.905492	-0.302220
C68	C	0.336697	-0.405492	0.197780
C69	C	-0.080989	-0.905535	-0.302234
C70	C	0.419011	-0.405535	0.197766
C71	C	-0.356427	-1.068814	-0.302261
C72	C	0.143573	-0.568814	0.197739
C73	C	-0.356410	-1.138455	-0.302293
C74	C	0.143590	-0.638455	0.197707
C75	C	-0.403956	-0.640247	-0.342105
C76	C	0.096044	-0.140247	0.157895
C77	C	-0.403938	-0.574812	-0.342133
C78	C	0.096062	-0.074812	0.157867
C79	C	-0.356511	-0.542093	-0.302144
C80	C	0.143489	-0.042093	0.197856
C81	C	-0.309085	-0.574815	-0.262135
C82	C	0.190915	-0.074815	0.237865
C83	C	-0.309099	-0.640250	-0.262113
C84	C	0.190901	-0.140250	0.237887
C85	C	-0.350556	-0.438376	-0.245738
C86	C	0.149444	0.061624	0.254262
C87	C	-0.350547	-0.372943	-0.245760
C88	C	0.149453	0.127057	0.254240
C89	C	-0.356462	-0.340272	-0.302213
C90	C	0.143538	0.159728	0.197787
C91	C	-0.362402	-0.373042	-0.358647
C92	C	0.137598	0.126958	0.141353
C93	C	-0.362417	-0.438477	-0.358624
C94	C	0.137583	0.061523	0.141376
C95	C	-0.356490	-0.471141	-0.302164
C96	C	0.143510	0.028859	0.197836
C97	C	-0.403862	-0.236605	-0.342252
C98	C	0.096138	0.263395	0.157748
C99	C	-0.403839	-0.171169	-0.342281
C100	C	0.096161	0.328831	0.157719
C101	C	-0.308989	-0.171174	-0.262278
C102	C	0.191011	0.328826	0.237722
C103	C	-0.309009	-0.236609	-0.262255
C104	C	0.190991	0.263391	0.237745
C105	C	-0.356449	-0.269321	-0.302241
C106	C	0.143551	0.230679	0.197759
C107	C	-0.308904	-0.945589	-1.037076
C108	C	0.191096	-0.445589	-0.537076
C109	C	-0.308922	-0.945584	-0.971640
C110	C	0.191078	-0.445584	-0.471640
C111	C	-0.356299	-0.905485	-0.938891
C112	C	0.143701	-0.405485	-0.438891
C113	C	-0.403675	-0.865400	-0.971583
C114	C	0.096325	-0.365400	-0.471583
C115	C	-0.403661	-0.865411	-1.037017
C116	C	0.096339	-0.365411	-0.537017
C117	C	-0.362182	-0.849016	-0.835196
C118	C	0.137818	-0.349016	-0.335196
C119	C	-0.362191	-0.849005	-0.769763
C120	C	0.137809	-0.349005	-0.269763
C121	C	-0.356346	-0.905453	-0.737070
C122	C	0.143654	-0.405453	-0.237070
C123	C	-0.350477	-0.961915	-0.769818
C124	C	0.149523	-0.461915	-0.269818
C125	C	-0.350463	-0.961926	-0.835253
C126	C	0.149537	-0.461926	-0.335253
C127	C	-0.356320	-0.905470	-0.867939
C128	C	0.143680	-0.405470	-0.367939
C129	C	-0.308996	-0.945534	-0.633434
C130	C	0.191004	-0.445534	-0.133434
C131	C	-0.309019	-0.945530	-0.567997
C132	C	0.190981	-0.445530	-0.067997
C133	C	-0.403768	-0.865341	-0.567941
C134	C	0.096232	-0.365341	-0.067941
C135	C	-0.403749	-0.865350	-0.633376
C136	C	0.096251	-0.365350	-0.133376
C137	C	-0.356359	-0.905446	-0.666119
C138	C	0.143641	-0.405446	-0.166119
C139	C	-0.356459	-0.905397	-0.139400
C140	C	0.143541	-0.405397	0.360600
C141	C	-0.356271	-0.905507	-0.069760
C142	C	0.143729	-0.405507	0.430240
H143	H	-0.792300	-0.868117	-0.399551
H144	H	-0.292300	-0.368117	0.100449
C145	C	-0.926677	-0.932670	-0.185948
C146	C	-0.426677	-0.432670	0.314052
H147	H	-0.979160	-0.932791	-0.185786
H148	H	-0.479160	-0.432791	0.314214
H149	H	-0.909085	-0.919685	-0.146187
H150	H	-0.409085	-0.419685	0.353813
H151	H	-0.909052	-0.973582	-0.194721
H152	H	-0.409052	-0.473582	0.305279
H153	H	-0.792587	-0.984834	-0.369204
H154	H	-0.292587	-0.484834	0.130796
H155	H	-0.919530	-0.868236	-0.399862
H156	H	-0.419530	-0.368236	0.100138
H157	H	-0.791526	-1.009245	-0.287841
H158	H	-0.291526	-0.509245	0.212159
H159	H	-0.442450	-0.144534	-0.374862
H160	H	0.057550	0.355466	0.125138
C161	C	-0.928156	-0.791198	-0.335768
C162	C	-0.428156	-0.291198	0.164232
H163	H	-0.959324	-0.792965	-0.300076
H164	H	-0.459324	-0.292965	0.199924
H165	H	-0.955406	-0.775803	-0.370436
H166	H	-0.455406	-0.275803	0.129564
H167	H	-0.887730	-0.764132	-0.327542
H168	H	-0.387730	-0.264132	0.172458
H169	H	-0.442487	-0.263241	-0.374814
H170	H	0.057513	0.236759	0.125186
H171	H	-0.792959	-0.807807	-0.339363
H172	H	-0.292959	-0.307807	0.160637
C173	C	-0.455850	-0.821259	-0.669333
C174	C	0.044150	-0.321259	-0.169333
H175	H	-0.449062	-0.827013	-0.712993
H176	H	0.050938	-0.327013	-0.212993
H177	H	-0.445033	-0.779164	-0.658595
H178	H	0.054967	-0.279164	-0.158595
H179	H	-0.505609	-0.830411	-0.658601
H180	H	-0.005609	-0.330411	-0.158601
C181	C	-0.785516	-0.933547	-0.185987
C182	C	-0.285516	-0.433547	0.314013
H183	H	-0.754697	-0.964143	-0.204914
H184	H	-0.254697	-0.464143	0.295086
H185	H	-0.826619	-0.953468	-0.166906
H186	H	-0.326619	-0.453468	0.333094
H187	H	-0.758226	-0.911422	-0.155192
H188	H	-0.258226	-0.411422	0.344808
C189	C	-0.256811	-0.135192	-0.218299
C190	C	0.243189	0.364808	0.281701
H191	H	-0.263593	-0.091535	-0.224042
H192	H	0.236407	0.408465	0.275958
H193	H	-0.207073	-0.145972	-0.227544
H194	H	0.292927	0.354028	0.272456
H195	H	-0.267584	-0.145861	-0.176177
H196	H	0.232416	0.354139	0.323823
H197	H	-0.442234	-0.832770	-1.063628
H198	H	0.057766	-0.332770	-0.563628
H199	H	-0.366942	-0.803046	-0.861809
H200	H	0.133058	-0.303046	-0.361809
H201	H	-0.442346	-0.832694	-0.541277
H202	H	0.057654	-0.332694	-0.041277
H203	H	-0.366969	-0.803030	-0.743105
H204	H	0.133031	-0.303030	-0.243105
C205	C	-0.256915	-0.989622	-0.532042
C206	C	0.243085	-0.489622	-0.032042
H207	H	-0.263715	-0.983879	-0.488382
H208	H	0.236285	-0.483879	0.011618
H209	H	-0.207158	-0.980474	-0.542771
H210	H	0.292842	-0.480474	-0.042771
H211	H	-0.267738	-1.031719	-0.542785
H212	H	0.232262	-0.531719	-0.042785
C213	C	-0.256914	-0.538831	-0.218148
C214	C	0.243086	-0.038831	0.281852
H215	H	-0.228671	-0.567689	-0.194321
H216	H	0.271329	-0.067689	0.305679
H217	H	-0.285194	-0.513255	-0.190814
H218	H	0.214806	-0.013255	0.309186
H219	H	-0.224677	-0.513356	-0.242177
H220	H	0.275323	-0.013356	0.257823
C221	C	-0.925867	-1.020346	-0.271374
C222	C	-0.425867	-0.520346	0.228626
H223	H	-0.956416	-1.000378	-0.241253
H224	H	-0.456416	-0.500378	0.258747
H225	H	-0.884629	-1.038816	-0.251057
H226	H	-0.384629	-0.538816	0.248943
H227	H	-0.953372	-1.051816	-0.292324
H228	H	-0.453372	-0.551816	0.207676
H229	H	-0.442250	-0.832753	-0.944914
H230	H	0.057750	-0.332753	-0.444914
H231	H	-0.442584	-0.666877	-0.374665
H232	H	0.057416	-0.166877	0.125335
H233	H	-0.918757	-0.838762	-0.222106
H234	H	-0.418757	-0.338762	0.277894
C235	C	-0.784198	-0.822762	-0.216436
C236	C	-0.284198	-0.322762	0.283564
H237	H	-0.753174	-0.806530	-0.248352
H238	H	-0.253174	-0.306530	0.251648
H239	H	-0.756862	-0.826512	-0.178733
H240	H	-0.256862	-0.326512	0.321267
H241	H	-0.824765	-0.795284	-0.210067
H242	H	-0.324765	-0.295284	0.289933
C243	C	-0.256808	-0.989668	-0.935681
C244	C	0.243192	-0.489668	-0.435681
H245	H	-0.228578	-1.013545	-0.964553
H246	H	0.271422	-0.513545	-0.464553
H247	H	-0.285125	-1.016952	-0.910156
H248	H	0.214875	-0.516952	-0.410156
H249	H	-0.224556	-0.965698	-0.910156
H250	H	0.275444	-0.465698	-0.410156
C251	C	-0.927702	-0.993760	-0.383102
C252	C	-0.427702	-0.493760	0.116898
H253	H	-0.959444	-0.962730	-0.400071
H254	H	-0.459444	-0.462730	0.099929
H255	H	-0.954324	-1.031665	-0.378044
H256	H	-0.454324	-0.531665	0.121956
H257	H	-0.887283	-1.000449	-0.410651
H258	H	-0.387283	-0.500449	0.089349
C259	C	-0.456055	-0.538818	-0.386177
C260	C	0.043945	-0.038818	0.113823
H261	H	-0.484299	-0.567672	-0.409996
H262	H	0.015701	-0.067672	0.090004
H263	H	-0.427723	-0.513361	-0.413514
H264	H	0.072277	-0.013361	0.086486
H265	H	-0.488295	-0.513224	-0.362198
H266	H	0.011705	-0.013224	0.137802
C267	C	-0.368947	-0.474524	-0.420694
C268	C	0.131053	0.025476	0.079306
H269	H	-0.368114	-0.518172	-0.412592
H270	H	0.131886	-0.018172	0.087408
H271	H	-0.328702	-0.463863	-0.447116
H272	H	0.171298	0.036137	0.052884
H273	H	-0.414066	-0.463783	-0.440663
H274	H	0.085934	0.036217	0.059337
H275	H	-0.345715	-1.007881	-0.743201
H276	H	0.154285	-0.507881	-0.243201
C277	C	-0.256942	-0.676240	-0.218104
C278	C	0.243058	-0.176240	0.281896
H279	H	-0.263742	-0.719895	-0.223820
H280	H	0.236258	-0.219895	0.276180
H281	H	-0.267709	-0.665465	-0.175994
H282	H	0.232291	-0.165465	0.324006
H283	H	-0.207193	-0.665570	-0.227358
H284	H	0.292807	-0.165570	0.272642
C285	C	-0.368907	-0.337114	-0.420749
C286	C	0.131093	0.162886	0.079251
H287	H	-0.368039	-0.293450	-0.412683
H288	H	0.131961	0.206550	0.087317
H289	H	-0.414024	-0.347816	-0.440714
H290	H	0.085976	0.152184	0.059286
H291	H	-0.328659	-0.347901	-0.447158
H292	H	0.171341	0.152099	0.052842
H293	H	-0.270408	-0.978182	-0.660095
H294	H	0.229592	-0.478182	-0.160095
H295	H	-0.270401	-0.263246	-0.229675
H296	H	0.229599	0.236754	0.270325
C297	C	-0.344012	-0.336902	-0.183686
C298	C	0.155988	0.163098	0.316314
H299	H	-0.340476	-0.365730	-0.150063
H300	H	0.159524	0.134270	0.349937
H301	H	-0.386438	-0.311335	-0.178119
H302	H	0.113562	0.188665	0.321881
H303	H	-0.301075	-0.311414	-0.184578
H304	H	0.198925	0.188586	0.315422
C305	C	-0.344019	-1.024027	-0.871276
C306	C	0.155981	-0.524027	-0.371276
H307	H	-0.344844	-1.015945	-0.914928
H308	H	0.155156	-0.515945	-0.414928
H309	H	-0.384300	-1.050360	-0.860556
H310	H	0.115700	-0.550360	-0.360556
H311	H	-0.298927	-1.044084	-0.860576
H312	H	0.201073	-0.544084	-0.360576
H313	H	-0.345736	-0.464972	-0.199764
H314	H	0.154264	0.035028	0.300236
H315	H	-0.270319	-0.978241	-1.063731
H316	H	0.229681	-0.478241	-0.563731
