data_functionalizedCrystal
_audit_creation_method	'MofGen! by Chris Wilmer'
_symmetry_space_group_name_H-M	'P1'
_symmetry_Int_Tables_number	1
_symmetry_cell_setting	triclinic
loop_
_symmetry_equiv_pos_as_xyz
  x,y,z
_cell_length_a	19.188930
_cell_length_b	9.065218
_cell_length_c	8.140239
_cell_angle_alpha	89.998314
_cell_angle_beta	89.983403
_cell_angle_gamma	84.080333
loop_
_atom_site_label
_atom_site_type_symbol
_atom_site_fract_x
_atom_site_fract_y
_atom_site_fract_z
O1	O	0.927574	0.184174	-0.137136
O2	O	0.724455	0.208967	-0.137023
O3	O	0.830213	-0.018217	-0.137078
O4	O	0.821816	0.411359	-0.137080
O5	O	0.830207	-0.018220	0.136149
O6	O	0.724449	0.208965	0.136205
O7	O	0.927568	0.184172	0.136091
Zn8	Zn	0.826008	0.196568	0.179529
Zn9	Zn	0.826016	0.196571	-0.180460
O10	O	0.821810	0.411356	0.136147
C11	C	0.829403	-0.073177	-0.000467
C12	C	0.826990	-0.236936	-0.000473
C13	C	0.698435	0.208163	-0.000395
C14	C	0.620912	0.205753	-0.000351
C15	C	0.577024	0.339058	-0.000378
C16	C	0.504182	0.336793	-0.000396
C17	C	0.475232	0.201217	-0.000421
C18	C	0.519130	0.067895	-0.000385
C19	C	0.591970	0.070163	-0.000350
N20	N	0.366449	0.097586	-0.093477
N21	N	0.297254	0.095441	-0.093514
C22	C	0.255771	0.194375	-0.000521
N23	N	0.286095	0.295558	0.092489
N24	N	0.355297	0.297708	0.092518
C25	C	0.396251	0.198742	-0.000457
C26	C	0.132899	0.325234	-0.000565
C27	C	0.060056	0.322964	-0.000572
C28	C	0.075006	0.054061	-0.000578
C29	C	0.147847	0.056335	-0.000554
C30	C	0.176789	0.191925	-0.000555
C31	C	0.953588	0.184976	-0.000540
C32	C	1.031112	0.187386	-0.000594
C33	C	0.822620	0.466316	-0.000468
C34	C	0.825033	0.630075	-0.000472
N35	N	0.826008	0.196565	0.425211
N36	N	0.826021	0.196563	-0.426143
H37	H	0.600583	0.449466	-0.000382
F38	F	0.638681	-0.071725	-0.000322
H39	H	0.495555	-0.042493	-0.000427
H40	H	0.051436	-0.056328	-0.000700
H41	H	0.156464	0.435639	-0.000541
F42	F	0.013346	0.464853	-0.000592
F43	F	0.194558	-0.085548	-0.000534
H44	H	0.468442	0.445349	-0.000413
