data_functionalizedCrystal
_audit_creation_method	'MofGen! by Chris Wilmer'
_symmetry_space_group_name_H-M	'P1'
_symmetry_Int_Tables_number	1
_symmetry_cell_setting	triclinic
loop_
_symmetry_equiv_pos_as_xyz
  x,y,z
_cell_length_a	6.817900
_cell_length_b	11.168121
_cell_length_c	12.908943
_cell_angle_alpha	94.437447
_cell_angle_beta	100.860631
_cell_angle_gamma	108.508496
loop_
_atom_site_label
_atom_site_type_symbol
_atom_site_fract_x
_atom_site_fract_y
_atom_site_fract_z
V1	V	-4.021585	-0.173128	-0.328691
O2	O	-3.982853	0.009941	-0.322425
O3	O	-3.998474	-0.344844	-0.326451
O4	O	-3.959367	-0.169754	-0.472040
O5	O	-4.022230	-0.166361	-0.175828
V6	V	-4.503727	-0.151315	-0.310406
O7	O	-4.285874	-0.220977	-0.368799
O8	O	-4.689635	-0.103466	-0.270297
O9	O	-4.303631	0.020401	-0.312645
O10	O	-4.659856	-0.334385	-0.316672
O11	O	-4.620478	-0.158082	-0.463268
O12	O	-4.342738	-0.154690	-0.167057
C13	C	-3.850074	-0.386727	-0.321268
C14	C	-3.912373	-0.527103	-0.320393
C15	C	-4.113644	-0.595773	-0.325002
C16	C	-4.178037	-0.740859	-0.324098
C17	C	-3.800188	-0.163380	-0.506980
C18	C	-3.830770	-0.161757	-0.624169
C19	C	-4.253331	-0.171238	-0.855116
C20	C	-4.282074	-0.169714	-0.965225
C21	C	-3.916997	-0.157175	-0.954499
C22	C	-3.888254	-0.158699	-0.844389
C23	C	-4.056430	-0.165733	-0.794702
C24	C	-4.027688	-0.167266	-0.684591
C25	C	-3.662610	-0.154719	-0.673865
C26	C	-3.691353	-0.153194	-0.783975
C27	C	-4.115374	0.062277	-0.317825
C28	C	-4.032313	0.202651	-0.318708
C29	C	-4.165260	-0.161068	-0.132111
C30	C	-4.113916	-0.162684	-0.014921
H31	H	-4.390273	-0.176978	-0.814662
H32	H	-3.502278	-0.150241	-0.624665
H33	H	-3.859885	-0.738324	-0.314758
H34	H	-3.780083	-0.151440	-0.994972
H35	H	-3.787732	-0.575724	-0.315783
H36	H	-3.554435	-0.147463	-0.824445
H37	H	-4.238289	-0.547155	-0.329625
O38	O	-4.191087	-0.174321	-0.636302
C39	C	-4.423421	-0.293106	-0.532475
C40	C	-4.238390	-0.285295	-0.587132
H41	H	-4.461693	-0.382808	-0.492687
H42	H	-4.569194	-0.296860	-0.594538
H43	H	-4.376251	-0.205369	-0.469668
H44	H	-4.285356	-0.373011	-0.649932
H45	H	-4.092665	-0.281478	-0.525005
O46	O	-4.473200	-0.174841	-1.023927
C47	C	-4.664543	-0.070610	-1.140204
C48	C	-4.447962	-0.064628	-1.073750
H49	H	-4.644204	0.018473	-1.180521
H50	H	-4.779842	-0.075819	-1.085809
H51	H	-4.729907	-0.158975	-1.203542
H52	H	-4.382407	0.023729	-1.010406
H53	H	-4.332805	-0.059488	-1.128213
O54	O	-4.383855	-0.811166	-0.328949
C55	C	-4.746036	-0.879485	-0.429466
C56	C	-4.513033	-0.799783	-0.424097
H57	H	-4.850536	-0.870331	-0.506397
H58	H	-4.798800	-0.843284	-0.358160
H59	H	-4.761241	-0.983931	-0.427843
H60	H	-4.497650	-0.695321	-0.425753
H61	H	-4.460375	-0.836090	-0.495397
