data_functionalizedCrystal
_audit_creation_method	'MofGen! by Chris Wilmer'
_symmetry_space_group_name_H-M	'P1'
_symmetry_Int_Tables_number	1
_symmetry_cell_setting	triclinic
loop_
_symmetry_equiv_pos_as_xyz
  x,y,z
_cell_length_a	16.120530
_cell_length_b	18.101395
_cell_length_c	16.120297
_cell_angle_alpha	92.869806
_cell_angle_beta	90.128140
_cell_angle_gamma	87.127367
loop_
_atom_site_label
_atom_site_type_symbol
_atom_site_fract_x
_atom_site_fract_y
_atom_site_fract_z
Zn1	Zn	1.247379	-0.375189	-0.534544
Zn2	Zn	1.747379	0.124811	-0.034544
Zn3	Zn	1.254311	-0.493081	-0.395480
Zn4	Zn	1.754311	0.006919	0.104520
Zn5	Zn	1.115371	-0.362675	-0.388463
Zn6	Zn	1.615371	0.137325	0.111537
Zn7	Zn	1.108267	-0.492399	-0.527449
Zn8	Zn	1.608267	0.007601	-0.027449
O9	O	1.181332	-0.430836	-0.461484
O10	O	1.681332	0.069164	0.038516
O11	O	1.364664	-0.396350	-0.522003
O12	O	1.864664	0.103650	-0.022003
O13	O	1.241754	-0.470830	-0.278184
O14	O	1.741754	0.029170	0.221816
O15	O	1.132955	-0.260707	-0.407873
O16	O	1.632955	0.239293	0.092127
O17	O	1.369756	-0.482965	-0.419833
O18	O	1.869756	0.017035	0.080167
O19	O	1.229940	-0.269901	-0.515199
O20	O	1.729940	0.230099	-0.015199
O21	O	1.139676	-0.375022	-0.273028
O22	O	1.639676	0.124978	0.226972
O23	O	0.998064	-0.374360	-0.400994
O24	O	1.498064	0.125640	0.099006
O25	O	1.120847	-0.481802	-0.644756
O26	O	1.620847	0.018198	-0.144756
O27	O	0.992844	-0.469668	-0.503107
O28	O	1.492844	0.030332	-0.003107
O29	O	1.223051	-0.395689	-0.649968
O30	O	1.723051	0.104311	-0.149968
O31	O	1.234865	-0.596619	-0.412954
O32	O	1.734865	-0.096619	0.087046
O33	O	1.127568	-0.596117	-0.509911
O34	O	1.627568	-0.096117	-0.009911
C35	C	0.965282	-0.420583	-0.450519
C36	C	1.465282	0.079417	0.049481
C37	C	0.872853	-0.416215	-0.445848
C38	C	1.372853	0.083785	0.054152
C39	C	0.703625	-0.408224	-0.437327
C40	C	1.203625	0.091776	0.062673
C41	C	0.659876	-0.453505	-0.485701
C42	C	1.159876	0.046495	0.014299
C43	C	0.565712	-0.449058	-0.480960
C44	C	1.065712	0.050942	0.019040
C45	C	0.797798	-0.412669	-0.442067
C46	C	1.297798	0.087331	0.057933
C47	C	1.181219	-0.623239	-0.461443
C48	C	1.681219	-0.123239	0.038557
C49	C	1.181246	-0.705555	-0.461457
C50	C	1.681246	-0.205555	0.038543
C51	C	1.181340	-0.856270	-0.461495
C52	C	1.681340	-0.356270	0.038505
C53	C	1.113800	-0.887336	-0.522447
C54	C	1.613800	-0.387336	-0.022447
C55	C	1.114030	-0.972977	-0.522730
C56	C	1.614030	-0.472977	-0.022730
C57	C	1.181431	-1.004658	-0.461532
C58	C	1.681431	-0.504658	0.038468
C59	C	1.267903	-0.978638	-0.489547
C60	C	1.767903	-0.478638	0.010453
C61	C	1.267455	-0.892992	-0.489973
C62	C	1.767455	-0.392992	0.010027
C63	C	1.163200	-0.883074	-0.372414
C64	C	1.663200	-0.383074	0.127586
C65	C	1.161296	-0.968658	-0.372806
C66	C	1.661296	-0.468658	0.127194
C67	C	1.181487	-1.088521	-0.461552
C68	C	1.681487	-0.588521	0.038448
C69	C	1.181289	-0.772407	-0.461477
C70	C	1.681289	-0.272407	0.038523
C71	C	1.398226	-0.441129	-0.472492
C72	C	1.898226	0.058871	0.027508
C73	C	1.490653	-0.445516	-0.477183
C74	C	1.990653	0.054484	0.022817
C75	C	1.170383	-0.440065	-0.678378
C76	C	1.670383	0.059935	-0.178378
C77	C	1.165718	-0.443999	-0.770805
C78	C	1.665718	0.056001	-0.270805
C79	C	1.181467	-0.237683	-0.461545
C80	C	1.681467	0.262317	0.038455
C81	C	1.181524	-0.155372	-0.461570
C82	C	1.681524	0.344628	0.038430
C83	C	1.157169	-0.451162	-0.940029
C84	C	1.657169	0.048838	-0.440029
C85	C	1.205659	-0.410296	-0.983799
C86	C	1.705659	0.089704	-0.483799
C87	C	1.200902	-0.414281	-1.077961
C88	C	1.700902	0.085719	-0.577961
C89	C	1.161924	-0.447177	-0.845858
C90	C	1.661924	0.052823	-0.345858
C91	C	1.192286	-0.421591	-0.245437
C92	C	1.692286	0.078409	0.254563
C93	C	1.197113	-0.417457	-0.153018
C94	C	1.697113	0.082543	0.346982
H95	H	1.049777	-0.990355	-0.504703
H96	H	1.549777	-0.490355	-0.004703
C97	C	1.043601	-0.803056	-0.398185
C98	C	1.543601	-0.303056	0.101815
C99	C	1.079798	-0.848761	-0.339085
C100	C	1.579798	-0.348761	0.160915
H101	H	0.992107	-0.781878	-0.377616
H102	H	1.492107	-0.281878	0.122384
H103	H	1.079702	-0.764742	-0.408860
H104	H	1.579702	-0.264742	0.091140
H105	H	1.034432	-0.831557	-0.448155
H106	H	1.534432	-0.331557	0.051845
H107	H	1.088972	-0.820259	-0.289116
H108	H	1.588972	-0.320259	0.210884
H109	H	1.043689	-0.887080	-0.328399
H110	H	1.543689	-0.387080	0.171601
C111	C	1.015003	-0.481682	-0.959803
C112	C	1.515003	0.018318	-0.459803
C113	C	1.096312	-0.502435	-0.984903
C114	C	1.596312	-0.002435	-0.484903
H115	H	0.977436	-0.513335	-0.987518
H116	H	1.477436	-0.013335	-0.487518
H117	H	1.010256	-0.485701	-0.901502
H118	H	1.510256	0.014299	-0.401502
H119	H	1.002171	-0.431936	-0.973380
H120	H	1.502171	0.068064	-0.473380
H121	H	1.109146	-0.552179	-0.971320
H122	H	1.609146	-0.052179	-0.471320
H123	H	1.101062	-0.498422	-1.043217
H124	H	1.601062	0.001578	-0.543217
H125	H	0.693142	-0.495609	-0.530678
H126	H	1.193142	0.004391	-0.030678
C127	C	0.611446	-0.388507	-0.320666
C128	C	1.111446	0.111493	0.179334
C129	C	0.658725	-0.351390	-0.376609
C130	C	1.158725	0.148610	0.123391
H131	H	0.583725	-0.353421	-0.283178
H132	H	1.083725	0.146579	0.216822
H133	H	0.571630	-0.416326	-0.350400
H134	H	1.071630	0.083674	0.149600
H135	H	0.646925	-0.420938	-0.290469
H136	H	1.146925	0.079062	0.209531
H137	H	0.623246	-0.318963	-0.406810
H138	H	1.123246	0.181037	0.093190
H139	H	0.698546	-0.323558	-0.346872
H140	H	1.198546	0.176442	0.153128
H141	H	1.049308	-0.863101	-0.504573
H142	H	1.549308	-0.363101	-0.004573
H143	H	1.125310	-0.869239	-0.587984
H144	H	1.625310	-0.369239	-0.087984
C145	C	1.139123	-0.947502	-0.664997
C146	C	1.639123	-0.447502	-0.164997
C147	C	1.129825	-1.005298	-0.611726
C148	C	1.629825	-0.505298	-0.111726
H149	H	1.148880	-0.967458	-0.719940
H150	H	1.648880	-0.467458	-0.219940
H151	H	1.089966	-0.916265	-0.663972
H152	H	1.589966	-0.416265	-0.163972
H153	H	1.184840	-0.919594	-0.647211
H154	H	1.684840	-0.419594	-0.147211
H155	H	1.084104	-1.033203	-0.629508
H156	H	1.584104	-0.533203	-0.129508
H157	H	1.178987	-1.036548	-0.612754
H158	H	1.678987	-0.536548	-0.112754
C159	C	1.299637	-0.955539	-0.631087
C160	C	1.799637	-0.455539	-0.131087
C161	C	1.289849	-1.012424	-0.576716
C162	C	1.789849	-0.512424	-0.076716
H163	H	1.313184	-0.976396	-0.684902
H164	H	1.813184	-0.476396	-0.184902
H165	H	1.249338	-0.926082	-0.633621
H166	H	1.749338	-0.426082	-0.133621
H167	H	1.343040	-0.925568	-0.611617
H168	H	1.843040	-0.425568	-0.111617
H169	H	1.246442	-1.042392	-0.596183
H170	H	1.746442	-0.542392	-0.096183
H171	H	1.340155	-1.041893	-0.574185
H172	H	1.840155	-0.541893	-0.074185
H173	H	1.283324	-0.876618	-0.555216
H174	H	1.783324	-0.376618	-0.055216
C175	C	1.379516	-0.926266	-0.398571
C176	C	1.879516	-0.426266	0.101429
C177	C	1.337394	-0.865553	-0.432958
C178	C	1.837394	-0.365553	0.067042
H179	H	1.422696	-0.909327	-0.363379
H180	H	1.922696	-0.409327	0.136621
H181	H	1.341768	-0.952274	-0.367168
H182	H	1.841768	-0.452274	0.132832
H183	H	1.402663	-0.958365	-0.441849
H184	H	1.902663	-0.458365	0.058151
H185	H	1.314242	-0.833456	-0.389681
H186	H	1.814242	-0.333456	0.110319
H187	H	1.375148	-0.839532	-0.464363
H188	H	1.875148	-0.339532	0.035637
H189	H	1.097679	-0.985231	-0.351756
H190	H	1.597679	-0.485231	0.148244
C191	C	1.219479	-1.074302	-0.304777
C192	C	1.719479	-0.574302	0.195223
C193	C	1.223358	-0.997376	-0.307772
C194	C	1.723358	-0.497376	0.192228
H195	H	1.257805	-1.092030	-0.264634
H196	H	1.757805	-0.592030	0.235366
H197	H	1.164892	-1.086093	-0.289918
H198	H	1.664892	-0.586093	0.210082
H199	H	1.233123	-1.096954	-0.357748
H200	H	1.733123	-0.596954	0.142252
H201	H	1.209708	-0.974724	-0.254803
H202	H	1.709708	-0.474724	0.245197
H203	H	1.277958	-0.985579	-0.322627
H204	H	1.777958	-0.485579	0.177373
C205	C	1.191569	-0.810784	-0.247549
C206	C	1.691569	-0.310784	0.252451
C207	C	1.229670	-0.855912	-0.311033
C208	C	1.729670	-0.355912	0.188967
H209	H	1.232606	-0.794015	-0.209659
H210	H	1.732606	-0.294015	0.290341
H211	H	1.163343	-0.769401	-0.270825
H212	H	1.663343	-0.269401	0.229175
H213	H	1.152928	-0.838336	-0.219101
H214	H	1.652928	-0.338336	0.280899
H215	H	1.268307	-0.828358	-0.339486
H216	H	1.768307	-0.328358	0.160514
H217	H	1.257909	-0.897301	-0.287756
H218	H	1.757909	-0.397301	0.212244
C219	C	1.259503	-0.364936	-0.852978
C220	C	1.759503	0.135064	-0.352978
C221	C	1.266516	-0.359014	-0.938925
C222	C	1.766516	0.140986	-0.438925
H223	H	1.297073	-0.333278	-0.825274
H224	H	1.797073	0.166722	-0.325274
H225	H	1.204345	-0.350865	-0.835962
H226	H	1.704345	0.149135	-0.335962
H227	H	1.272351	-0.414681	-0.839408
H228	H	1.772351	0.085319	-0.339408
H229	H	1.253663	-0.309270	-0.952496
H230	H	1.753663	0.190730	-0.452496
H231	H	1.321687	-0.373081	-0.955947
H232	H	1.821687	0.126919	-0.455947
H233	H	1.319432	-0.999364	-0.446722
H234	H	1.819432	-0.499364	0.053278
