data_functionalizedCrystal
_audit_creation_method	'MofGen! by Chris Wilmer'
_symmetry_space_group_name_H-M	'P1'
_symmetry_Int_Tables_number	1
_symmetry_cell_setting	triclinic
loop_
_symmetry_equiv_pos_as_xyz
  x,y,z
_cell_length_a	15.944493
_cell_length_b	15.944545
_cell_length_c	10.868271
_cell_angle_alpha	89.992762
_cell_angle_beta	89.996248
_cell_angle_gamma	83.485608
loop_
_atom_site_label
_atom_site_type_symbol
_atom_site_fract_x
_atom_site_fract_y
_atom_site_fract_z
O1	O	1.114552	0.108101	-0.102312
O2	O	0.869995	0.121508	-0.102319
O3	O	0.998955	-0.007472	-0.102300
O4	O	0.985592	0.237081	-0.102330
O5	O	0.998944	-0.007477	0.102344
O6	O	0.869985	0.121503	0.102326
O7	O	1.114541	0.108096	0.102333
Zn8	Zn	0.992261	0.114799	0.134821
Zn9	Zn	0.992275	0.114805	-0.134807
O10	O	0.985582	0.237076	0.102315
C11	C	0.838695	0.120958	0.000003
C12	C	0.745447	0.119315	0.000001
C13	C	0.509685	0.195235	-0.000009
C14	C	0.459122	0.154292	0.100902
C15	C	0.574726	0.116271	0.000004
C16	C	0.459137	0.154278	-0.100862
C17	C	0.409816	0.113336	0.000001
C18	C	0.525391	0.075349	0.100998
C19	C	0.525410	0.075346	-0.100856
C20	C	0.474880	0.034345	0.000079
C21	C	0.669725	0.117963	0.000006
C22	C	0.314819	0.111637	0.000007
C23	C	0.998395	-0.038768	0.000023
C24	C	0.996735	-0.132014	0.000027
C25	C	0.911839	-0.402630	-0.000001
C26	C	0.952775	-0.352050	-0.100901
C27	C	0.990814	-0.467657	-0.000009
C28	C	0.952785	-0.352082	0.100863
C29	C	0.993719	-0.302744	0.000011
C30	C	1.031729	-0.418306	-0.100992
C31	C	1.031728	-0.418341	0.100862
C32	C	1.072721	-0.367795	-0.000062
C33	C	0.989139	-0.562659	-0.000021
C34	C	0.995401	-0.207745	0.000014
C35	C	1.145841	0.108646	0.000009
C36	C	1.239090	0.110289	0.000003
C37	C	0.986141	0.268373	-0.000012
C38	C	0.987801	0.361618	-0.000023
N39	N	0.992258	0.114794	0.318835
N40	N	0.992285	0.114804	-0.318821
C41	C	0.992271	0.114804	0.569841
C42	C	0.992261	0.114801	0.430164
H43	H	0.554215	0.042018	0.186395
H44	H	1.140788	-0.352318	-0.000117
Br45	Br	0.573680	0.019817	-0.243041
H46	H	0.525307	0.263255	0.000077
Br47	Br	1.087265	-0.466611	0.243051
H48	H	0.919414	-0.323163	0.186164
H49	H	0.430180	0.187638	0.186205
H50	H	0.459415	-0.033726	0.000146
Br51	Br	0.410909	0.209888	-0.243033
H52	H	0.843825	-0.418268	-0.000101
H53	H	1.065061	-0.447117	-0.186389
Br54	Br	0.897196	-0.303814	-0.243088
