data_functionalizedCrystal
_audit_creation_method	'MofGen! by Chris Wilmer'
_symmetry_space_group_name_H-M	'P1'
_symmetry_Int_Tables_number	1
_symmetry_cell_setting	triclinic
loop_
_symmetry_equiv_pos_as_xyz
  x,y,z
_cell_length_a	16.109302
_cell_length_b	14.519731
_cell_length_c	15.186229
_cell_angle_alpha	89.994737
_cell_angle_beta	89.994094
_cell_angle_gamma	83.575317
loop_
_atom_site_label
_atom_site_type_symbol
_atom_site_fract_x
_atom_site_fract_y
_atom_site_fract_z
O1	O	1.103344	0.118543	-0.073270
O2	O	0.861309	0.133294	-0.073263
O3	O	0.988735	-0.008333	-0.073259
O4	O	0.975919	0.260169	-0.073275
O5	O	0.988725	-0.008336	0.073198
O6	O	0.861299	0.133291	0.073194
O7	O	1.103334	0.118539	0.073187
Zn8	Zn	0.982315	0.125914	0.096444
Zn9	Zn	0.982328	0.125919	-0.096520
O10	O	0.975909	0.260166	0.073183
C11	C	0.830328	0.132695	-0.000034
C12	C	0.738030	0.130903	-0.000031
C13	C	0.525676	0.126758	0.079794
C14	C	0.438953	0.125064	0.079791
C15	C	0.438974	0.125073	-0.079884
C16	C	0.525696	0.126759	-0.079881
C17	C	0.569044	0.127607	-0.000039
C18	C	0.395599	0.124226	-0.000045
C19	C	0.301570	0.122390	-0.000049
C20	C	0.663080	0.129441	-0.000034
C21	C	0.988129	-0.042692	-0.000030
C22	C	0.986330	-0.145069	-0.000029
C23	C	0.984868	-0.228210	-0.000031
C24	C	0.983041	-0.332515	-0.000038
C25	C	0.981591	-0.415651	-0.000044
C26	C	0.979764	-0.519962	-0.000049
C27	C	1.134315	0.119139	-0.000044
C28	C	1.226614	0.120930	-0.000053
C29	C	0.976514	0.294525	-0.000048
C30	C	0.978314	0.396902	-0.000054
N31	N	0.982312	0.125911	0.228136
N32	N	0.982338	0.125915	-0.228213
C33	C	1.038759	0.063220	0.546057
C34	C	1.038757	0.063220	0.453867
C35	C	0.925888	0.188613	0.453873
C36	C	0.925895	0.188616	0.546061
C37	C	0.982330	0.125914	0.592151
C38	C	0.982320	0.125911	0.407773
C39	C	0.982317	0.125912	0.307817
C40	C	0.982334	0.125914	0.692113
H41	H	0.561008	0.127448	-0.144894
O42	O	0.396948	0.124286	0.157420
C43	C	0.453811	0.125371	0.227886
H44	H	0.512234	0.155756	0.204480
H45	H	0.471644	0.051608	0.252438
C46	C	0.341162	0.147831	0.332057
C47	C	0.412915	0.185158	0.303312
H48	H	0.315935	0.184707	0.378586
H49	H	0.302852	0.147097	0.284584
H50	H	0.356033	0.086364	0.352511
H51	H	0.398042	0.246620	0.282848
H52	H	0.451222	0.185904	0.350784
O53	O	0.871188	0.249611	0.590882
C54	C	0.915807	0.306503	0.644208
H55	H	0.981370	0.308080	0.616409
H56	H	0.920128	0.277641	0.714077
C57	C	0.789618	0.403572	0.679769
C58	C	0.870142	0.405515	0.645622
H59	H	0.761449	0.464646	0.680645
H60	H	0.759557	0.365242	0.643845
H61	H	0.793230	0.379516	0.737990
H62	H	0.866528	0.429559	0.587398
H63	H	0.900202	0.443852	0.681536
H64	H	1.084713	0.012165	0.583581
H65	H	0.560967	0.127448	0.144807
H66	H	1.084708	0.012169	0.416340
O67	O	0.871179	0.249550	0.409002
C68	C	0.915784	0.306471	0.355674
H69	H	0.980781	0.269760	0.341855
H70	H	0.921540	0.374635	0.391190
C71	C	0.789102	0.371248	0.285085
C72	C	0.868931	0.326156	0.268106
H73	H	0.760200	0.383395	0.231070
H74	H	0.759050	0.332902	0.321015
H75	H	0.793910	0.428046	0.314683
H76	H	0.864122	0.269354	0.238518
H77	H	0.898982	0.364493	0.232168
O78	O	0.396730	0.124296	-0.157360
C79	C	0.310888	0.122605	-0.140247
H80	H	0.295638	0.151548	-0.071635
H81	H	0.294886	0.048185	-0.144032
C82	C	0.278068	0.146638	-0.293395
C83	C	0.259336	0.182195	-0.209127
H84	H	0.246267	0.183393	-0.335885
H85	H	0.335901	0.147774	-0.304925
H86	H	0.264733	0.084623	-0.296536
H87	H	0.272682	0.244205	-0.205983
H88	H	0.201504	0.181071	-0.197597
