data_functionalizedCrystal
_audit_creation_method	'MofGen! by Chris Wilmer'
_symmetry_space_group_name_H-M	'P1'
_symmetry_Int_Tables_number	1
_symmetry_cell_setting	triclinic
loop_
_symmetry_equiv_pos_as_xyz
  x,y,z
_cell_length_a	21.295417
_cell_length_b	19.077105
_cell_length_c	19.076919
_cell_angle_alpha	89.923776
_cell_angle_beta	92.267699
_cell_angle_gamma	92.274090
loop_
_atom_site_label
_atom_site_type_symbol
_atom_site_fract_x
_atom_site_fract_y
_atom_site_fract_z
Zn1	Zn	-0.304535	-1.058240	-0.440394
Zn2	Zn	-0.405748	-1.062870	-0.322879
Zn3	Zn	-0.296102	-0.945459	-0.318188
Zn4	Zn	-0.405368	-0.940692	-0.435631
O5	O	-0.352938	-1.001815	-0.379273
O6	O	-0.321649	-1.157186	-0.428761
O7	O	-0.387833	-1.051228	-0.223925
O8	O	-0.209135	-0.960477	-0.334428
O9	O	-0.396010	-1.160587	-0.342424
O10	O	-0.215330	-1.043337	-0.424212
O11	O	-0.307277	-0.964966	-0.220479
O12	O	-0.306909	-0.846495	-0.329811
O13	O	-0.395363	-0.952352	-0.534594
O14	O	-0.387186	-0.842993	-0.416096
O15	O	-0.321281	-1.038714	-0.538093
O16	O	-0.493784	-1.046605	-0.337806
O17	O	-0.493505	-0.956842	-0.420645
C18	C	-0.346091	-0.819248	-0.371928
C19	C	-0.343178	-0.741144	-0.368802
C20	C	-0.516485	-1.001727	-0.379234
C21	C	-0.586455	-1.001753	-0.379243
C22	C	-0.359220	-0.994485	-0.562552
C23	C	-0.361897	-0.991361	-0.640655
C24	C	-0.622490	-1.044871	-0.426025
C25	C	-0.688234	-1.044895	-0.426043
C26	C	-0.717940	-1.001809	-0.379267
C27	C	-0.681896	-0.958682	-0.332482
C28	C	-0.616153	-0.958654	-0.332470
N29	N	-0.818882	-0.998975	-0.317559
N30	N	-0.881335	-0.999006	-0.317573
C31	C	-0.916019	-1.001890	-0.379302
N32	N	-0.885891	-1.004755	-0.441020
N33	N	-0.823432	-1.004728	-0.441005
C34	C	-0.789227	-1.001834	-0.379276
C35	C	-1.023342	-1.045036	-0.426108
C36	C	-1.089087	-1.045055	-0.426127
C37	C	-1.082748	-0.958846	-0.332560
C38	C	-1.017004	-0.958823	-0.332547
C39	C	-0.987305	-1.001922	-0.379320
C40	C	-0.188754	-1.001922	-0.379328
C41	C	-0.118788	-1.001968	-0.379352
C42	C	-0.359812	-1.185096	-0.386647
C43	C	-0.362742	-1.263199	-0.389789
C44	C	-0.383664	-0.702648	-0.412187
C45	C	-0.380918	-0.629261	-0.409254
C46	C	-0.337690	-0.594371	-0.362931
C47	C	-0.297200	-0.632872	-0.319544
C48	C	-0.299943	-0.706257	-0.322482
C49	C	-0.324995	-0.375085	-0.349340
C50	C	-0.322256	-0.301694	-0.346404
C51	C	-0.405974	-0.298089	-0.436115
C52	C	-0.408716	-0.371476	-0.439045
C53	C	-0.368224	-0.409970	-0.395661
N54	N	-0.334883	-0.519358	-0.359930
N55	N	-0.371027	-0.484982	-0.398666
C56	C	-0.324586	-1.034856	-0.679171
C57	C	-0.327098	-1.031912	-0.752557
C58	C	-0.366926	-0.985477	-0.787425
C59	C	-0.404238	-0.941978	-0.748904
C60	C	-0.401722	-0.944919	-0.675520
C61	C	-0.378584	-0.971858	-1.006706
C62	C	-0.381099	-0.968923	-1.080095
C63	C	-0.303958	-1.058856	-1.083742
C64	C	-0.301448	-1.061795	-1.010356
C65	C	-0.338758	-1.018294	-0.971842
N66	N	-0.369496	-0.982469	-0.862437
N67	N	-0.336184	-1.021299	-0.896831
C68	C	-0.346637	-1.009157	-0.196708
C69	C	-0.343788	-1.012417	-0.118611
H70	H	-0.717580	-1.080001	-0.464146
H71	H	-1.106933	-0.923760	-0.294479
C72	C	-0.589825	-1.092277	-0.477473
H73	H	-0.620706	-1.117958	-0.505340
H74	H	-0.564391	-1.123976	-0.451843
H75	H	-0.564231	-1.064138	-0.506987
H76	H	-0.432098	-0.909494	-0.644161
C77	C	-0.419627	-0.924015	-0.964346
H78	H	-0.412422	-0.932408	-0.915646
H79	H	-0.462718	-0.933790	-0.976772
H80	H	-0.409052	-0.876324	-0.974476
H81	H	-0.436664	-0.904167	-0.777300
H82	H	-0.706087	-0.923599	-0.294399
C83	C	-0.286074	-1.079772	-0.794925
H84	H	-0.293274	-1.071371	-0.843624
H85	H	-0.296660	-1.127455	-0.784791
H86	H	-0.242976	-1.070011	-0.782505
H87	H	-0.586812	-0.923541	-0.294374
C88	C	-1.128729	-1.092487	-0.477588
H89	H	-1.172137	-1.086327	-0.470902
H90	H	-1.119339	-1.140113	-0.469235
H91	H	-1.119176	-1.080274	-0.524378
C92	C	-0.424909	-0.917840	-1.118450
H93	H	-0.446766	-0.892348	-1.085002
H94	H	-0.454326	-0.943555	-1.148149
H95	H	-0.400657	-0.886094	-1.145853
H96	H	-0.273581	-1.094272	-1.115109
C97	C	-0.977363	-0.911401	-0.281078
H98	H	-1.004468	-0.885748	-0.253218
H99	H	-0.951502	-0.879678	-0.306692
H100	H	-0.951668	-0.939526	-0.251560
C101	C	-0.280466	-0.417420	-0.301607
H102	H	-0.254336	-0.386129	-0.273592
H103	H	-0.255065	-0.444994	-0.329680
H104	H	-0.304530	-0.447251	-0.272085
C105	C	-0.257635	-1.112868	-0.972002
H106	H	-0.261484	-1.108393	-0.922781
H107	H	-0.215368	-1.102130	-0.983629
H108	H	-0.269033	-1.159596	-0.985927
C109	C	-0.990670	-1.092419	-0.477575
H110	H	-1.021551	-1.118091	-0.505452
H111	H	-0.965231	-1.124127	-0.451964
H112	H	-0.965081	-1.064261	-0.507078
C113	C	-0.249651	-0.594495	-0.268588
H114	H	-0.253820	-0.545276	-0.273046
H115	H	-0.208175	-0.606129	-0.279438
H116	H	-0.257634	-0.608399	-0.221837
C117	C	-0.456264	-0.409849	-0.490005
H118	H	-0.479979	-0.376411	-0.515428
H119	H	-0.483800	-0.439536	-0.464216
H120	H	-0.434342	-0.437267	-0.521819
H121	H	-0.418867	-0.731050	-0.449906
H122	H	-0.413886	-0.597921	-0.444582
C123	C	-0.450506	-0.255744	-0.483840
H124	H	-0.442679	-0.207041	-0.475462
H125	H	-0.492880	-0.268161	-0.473954
H126	H	-0.443420	-0.265898	-0.531554
C127	C	-0.274699	-0.263316	-0.295452
H128	H	-0.250971	-0.296752	-0.270039
H129	H	-0.296612	-0.235897	-0.263638
H130	H	-0.247165	-0.233631	-0.321252
H131	H	-0.292156	-1.072670	-0.650786
C132	C	-0.255407	-0.748603	-0.274760
H133	H	-0.229272	-0.717314	-0.246747
H134	H	-0.230013	-0.776171	-0.302845
H135	H	-0.279464	-0.778439	-0.245235
