data_functionalizedCrystal
_audit_creation_method	'MofGen! by Chris Wilmer'
_symmetry_space_group_name_H-M	'P1'
_symmetry_Int_Tables_number	1
_symmetry_cell_setting	triclinic
loop_
_symmetry_equiv_pos_as_xyz
  x,y,z
_cell_length_a	14.909042
_cell_length_b	19.077115
_cell_length_c	19.076919
_cell_angle_alpha	90.076897
_cell_angle_beta	89.109790
_cell_angle_gamma	84.289534
loop_
_atom_site_label
_atom_site_type_symbol
_atom_site_fract_x
_atom_site_fract_y
_atom_site_fract_z
Zn1	Zn	-0.436521	1.078720	-0.421602
Zn2	Zn	-0.581601	1.090157	-0.297846
Zn3	Zn	-0.424434	0.965372	-0.299917
Zn4	Zn	-0.581056	0.967953	-0.410623
O5	O	-0.505903	1.025551	-0.357497
O6	O	-0.461053	1.178817	-0.408913
O7	O	-0.555921	1.077310	-0.199997
O8	O	-0.299774	0.974541	-0.321521
O9	O	-0.567642	1.187219	-0.317990
O10	O	-0.308655	1.057818	-0.410922
O11	O	-0.440452	0.985631	-0.201519
O12	O	-0.439924	0.867135	-0.310875
O13	O	-0.566715	0.978941	-0.510203
O14	O	-0.554994	0.869032	-0.392210
O15	O	-0.460525	1.060321	-0.518269
O16	O	-0.707792	1.079813	-0.307344
O17	O	-0.707392	0.990031	-0.390202
C18	C	-0.496089	0.842523	-0.350577
C19	C	-0.491913	0.764223	-0.347632
C20	C	-0.461923	0.323367	-0.326518
C21	C	-0.465852	0.396938	-0.329289
C22	C	-0.527818	0.434735	-0.372944
C23	C	-0.585853	0.398956	-0.413837
C24	C	-0.581919	0.325386	-0.411069
C25	C	-0.546014	0.654874	-0.385757
C26	C	-0.549945	0.728449	-0.388520
C27	C	-0.429942	0.726427	-0.303972
C28	C	-0.426017	0.652856	-0.301206
C29	C	-0.484049	0.617083	-0.342101
N30	N	-0.531838	0.509936	-0.375775
N31	N	-0.480024	0.541882	-0.339273
C32	C	-0.740332	1.036462	-0.347373
C33	C	-0.840627	1.041193	-0.343068
C34	C	-1.028730	0.956509	-0.421176
C35	C	-1.122966	0.960952	-0.417133
C36	C	-1.123335	1.054518	-0.330936
C37	C	-1.029099	1.050075	-0.334979
C38	C	-0.981800	1.001070	-0.380101
C39	C	-0.887563	0.996630	-0.384147
C40	C	-0.887934	1.090193	-0.297947
C41	C	-0.982169	1.094636	-0.293904
C42	C	-0.270560	1.014616	-0.367677
C43	C	-0.170271	1.009956	-0.372015
C44	C	-0.514907	1.018643	-0.540390
C45	C	-0.518745	1.015700	-0.618327
C46	C	-0.515756	1.209293	-0.364445
C47	C	-0.519955	1.287594	-0.367406
C48	C	-0.465263	1.056685	-0.659143
C49	C	-0.468864	1.053910	-0.732374
C50	C	-0.525953	1.010154	-0.764787
C51	C	-0.579437	0.969164	-0.723966
C52	C	-0.575830	0.971935	-0.650737
C53	C	-0.542664	0.997319	-0.983349
C54	C	-0.546269	0.994552	-1.056583
C55	C	-0.435694	1.079298	-1.064986
C56	C	-0.432097	1.082068	-0.991755
C57	C	-0.485577	1.041076	-0.950940
N58	N	-0.529638	1.007318	-0.839641
N59	N	-0.481887	1.043908	-0.876088
C60	C	-0.496871	1.032469	-0.175321
C61	C	-0.492787	1.035537	-0.097399
H62	H	-0.411464	0.292599	-0.290968
C63	C	-0.369285	1.130196	-0.956106
N64	N	-0.321973	1.166446	-0.929256
H65	H	-1.161861	1.094410	-0.294193
H66	H	-0.392153	1.112670	-1.098225
H67	H	-0.619371	0.938553	-0.617505
H68	H	-0.586225	0.963951	-0.950126
H69	H	-0.425316	1.087286	-0.765603
C70	C	-0.402013	0.436286	-0.284307
N71	N	-0.353926	0.465923	-0.250424
C72	C	-0.836303	1.139213	-0.252761
N73	N	-0.797414	1.176135	-0.218730
H74	H	-0.375564	0.622087	-0.265652
H75	H	-0.592759	0.958918	-1.082972
H76	H	-0.625916	0.933534	-0.750363
C77	C	-0.366100	0.765782	-0.259000
N78	N	-0.318007	0.795424	-0.225130
H79	H	-0.593271	0.625757	-0.419054
H80	H	-1.020692	1.134533	-0.257165
C81	C	-0.618109	0.770023	-0.436552
N82	N	-0.669447	0.801337	-0.472729
C83	C	-0.654019	0.440534	-0.461856
N84	N	-0.705367	0.471851	-0.498023
C85	C	-0.835536	0.942726	-0.433785
N86	N	-0.796352	0.902123	-0.471172
C87	C	-0.976699	0.902603	-0.470810
N88	N	-0.937511	0.861999	-0.508194
C89	C	-1.174586	0.911934	-0.462320
N90	N	-1.213465	0.875011	-0.496357
C91	C	-0.645762	0.286035	-0.456047
N92	N	-0.693850	0.256397	-0.489927
C93	C	-0.402459	1.104820	-0.623496
N94	N	-0.355150	1.141074	-0.596648
