data_functionalizedCrystal
_audit_creation_method	'MofGen! by Chris Wilmer'
_symmetry_space_group_name_H-M	'P1'
_symmetry_Int_Tables_number	1
_symmetry_cell_setting	triclinic
loop_
_symmetry_equiv_pos_as_xyz
  x,y,z
_cell_length_a	12.645331
_cell_length_b	12.645330
_cell_length_c	12.645323
_cell_angle_alpha	89.975130
_cell_angle_beta	89.984262
_cell_angle_gamma	90.016927
loop_
_atom_site_label
_atom_site_type_symbol
_atom_site_fract_x
_atom_site_fract_y
_atom_site_fract_z
Zn1	Zn	1.620731	-0.422053	-0.599250
Zn2	Zn	1.620613	-0.599341	-0.421990
Zn3	Zn	1.443446	-0.422089	-0.422016
Zn4	Zn	1.443428	-0.599272	-0.599227
O5	O	1.532054	-0.510689	-0.510621
O6	O	1.769063	-0.445584	-0.575735
O7	O	1.597069	-0.575872	-0.273646
O8	O	1.467020	-0.273737	-0.445547
O9	O	1.768976	-0.575836	-0.445503
O10	O	1.597271	-0.273710	-0.575760
O11	O	1.466905	-0.445646	-0.273665
O12	O	1.295096	-0.445580	-0.445524
O13	O	1.466989	-0.575720	-0.747577
O14	O	1.295083	-0.575755	-0.575721
O15	O	1.597253	-0.445517	-0.747594
O16	O	1.597052	-0.747679	-0.445481
O17	O	1.466874	-0.747629	-0.575696
C18	C	1.256625	-0.510665	-0.510623
C19	C	1.138795	-0.510680	-0.510650
C20	C	0.971258	-0.593022	-0.592129
C21	C	1.093818	-0.592757	-0.592470
C22	C	1.094316	-0.399025	-0.541171
C23	C	0.971718	-0.399528	-0.541745
C24	C	0.971549	-0.539093	-0.398390
C25	C	1.094155	-0.541535	-0.398996
C26	C	1.531977	-0.786118	-0.510606
C27	C	1.532041	-0.903948	-0.510635
C28	C	1.450484	-1.071525	-0.592806
C29	C	1.450067	-0.948966	-0.592542
C30	C	1.501796	-0.948542	-0.398917
C31	C	1.501298	-1.071141	-0.399415
C32	C	1.644342	-1.071039	-0.539276
C33	C	1.643654	-0.948432	-0.541719
C34	C	1.808560	-0.510714	-0.510619
C35	C	1.926390	-0.510724	-0.510618
C36	C	1.532132	-0.510607	-0.787126
C37	C	1.532166	-0.510572	-0.904956
C38	C	1.532161	-0.234183	-0.510659
C39	C	1.532206	-0.116353	-0.510675
C40	C	1.449964	-0.592096	-1.072510
C41	C	1.450179	-0.592500	-0.949950
C42	C	1.643865	-0.540892	-0.949463
C43	C	1.643414	-0.541403	-1.072061
C44	C	1.503724	-0.398272	-1.072158
C45	C	1.501232	-0.398944	-0.949551
C46	C	1.532038	-0.510694	-0.235191
C47	C	1.532210	-0.510430	-0.117361
H48	H	0.941766	-0.676095	-0.573212
F49	F	1.341374	-0.567531	-1.111037
H50	H	1.707747	-0.917783	-0.486255
F51	F	0.931117	-0.643690	-0.362120
F52	F	1.395767	-0.908536	-0.366672
H53	H	1.558238	-1.100799	-0.336136
H54	H	1.671932	-1.101884	-0.619356
H55	H	0.940466	-0.574491	-0.674802
F56	F	0.934366	-0.368079	-0.648981
H57	H	1.419326	-1.099831	-0.375185
H58	H	1.556760	-0.334882	-0.918923
F59	F	1.582022	-0.318743	-1.110069
H60	H	1.468983	-0.675648	-0.920633
H61	H	1.469234	-1.100937	-0.675916
F62	F	1.723928	-1.108946	-0.461102
H63	H	1.667559	-0.623393	-1.100669
H64	H	1.666463	-0.919282	-0.623938
F65	F	1.132151	-0.648934	-0.368913
H66	H	1.123449	-0.336041	-0.483657
F67	F	1.342506	-1.111931	-0.568375
F68	F	1.726182	-0.466985	-1.110846
F69	F	1.341917	-0.567695	-0.910614
H70	H	1.124772	-0.485941	-0.335006
F71	F	1.133127	-0.700988	-0.567503
F72	F	1.474252	-0.700086	-1.112851
F73	F	1.341406	-0.910747	-0.567781
H74	H	1.123166	-0.573982	-0.675626
H75	H	0.942532	-0.479147	-0.337657
F76	F	1.577127	-0.910434	-0.316744
F77	F	1.474798	-0.909549	-0.700819
F78	F	1.726113	-0.465605	-0.911374
F79	F	1.675968	-0.646936	-0.909349
F80	F	1.399113	-0.362148	-1.112560
F81	F	1.393784	-0.369060	-0.911542
H82	H	0.942038	-0.336011	-0.485098
H83	H	1.125042	-0.374524	-0.622325
