data_functionalizedCrystal
_audit_creation_method	'MofGen! by Chris Wilmer'
_symmetry_space_group_name_H-M	'P1'
_symmetry_Int_Tables_number	1
_symmetry_cell_setting	triclinic
loop_
_symmetry_equiv_pos_as_xyz
  x,y,z
_cell_length_a	14.908993
_cell_length_b	14.908178
_cell_length_c	12.827885
_cell_angle_alpha	86.668451
_cell_angle_beta	93.273373
_cell_angle_gamma	96.795214
loop_
_atom_site_label
_atom_site_type_symbol
_atom_site_fract_x
_atom_site_fract_y
_atom_site_fract_z
Zn1	Zn	1.363026	-0.280420	-0.481129
Zn2	Zn	1.354190	-0.431827	-0.296842
Zn3	Zn	1.211654	-0.289207	-0.315914
Zn4	Zn	1.202905	-0.440497	-0.481055
O5	O	1.282944	-0.360488	-0.393735
O6	O	1.488517	-0.293198	-0.448732
O7	O	1.335247	-0.412957	-0.153135
O8	O	1.239093	-0.161361	-0.345844
O9	O	1.482025	-0.404437	-0.313337
O10	O	1.350305	-0.154905	-0.467226
O11	O	1.230526	-0.308175	-0.167147
O12	O	1.083831	-0.316582	-0.345772
O13	O	1.224182	-0.419214	-0.627302
O14	O	1.077403	-0.427734	-0.467100
O15	O	1.341822	-0.301605	-0.627357
O16	O	1.326763	-0.559658	-0.313265
O17	O	1.215615	-0.566028	-0.448606
C18	C	1.047775	-0.374053	-0.408498
C19	C	0.947167	-0.379878	-0.414837
C20	C	0.764766	-0.274907	-0.300607
C21	C	0.670236	-0.280377	-0.306560
C22	C	0.663576	-0.396293	-0.432689
C23	C	0.758106	-0.390823	-0.426736
C24	C	0.808697	-0.330127	-0.360694
C25	C	0.903229	-0.324652	-0.354748
C26	C	0.896567	-0.440572	-0.480871
C27	C	0.802037	-0.446042	-0.486823
C28	C	1.269305	-0.595688	-0.378879
C29	C	1.263553	-0.696303	-0.372553
C30	C	1.368462	-0.878501	-0.487211
C31	C	1.363061	-0.973038	-0.481271
C32	C	1.247346	-0.979914	-0.354738
C33	C	1.252747	-0.885378	-0.360679
C34	C	1.313308	-0.834674	-0.426916
C35	C	1.318714	-0.740136	-0.432850
C36	C	1.202994	-0.747014	-0.306324
C37	C	1.197593	-0.841551	-0.300384
C38	C	1.519032	-0.346870	-0.378915
C39	C	1.619638	-0.341067	-0.372600
C40	C	1.283011	-0.360396	-0.666307
C41	C	1.283040	-0.360358	-0.782461
C42	C	1.296661	-0.124368	-0.408671
C43	C	1.302506	-0.023747	-0.415035
C44	C	1.341287	-0.302111	-0.954318
C45	C	1.341259	-0.302150	-0.834267
C46	C	1.282933	-0.360510	-0.122225
C47	C	1.283094	-0.360284	-0.006076
H48	H	0.634471	-0.235410	-0.257632
C49	C	0.607909	-0.463059	-0.505322
N50	N	0.565979	-0.513347	-0.560031
C51	C	0.958879	-0.257888	-0.282098
N52	N	1.000791	-0.207603	-0.227373
H53	H	0.760832	-0.495462	-0.540590
H54	H	1.391133	-0.252282	-0.998883
C55	C	1.215726	-0.427643	-0.842584
N56	N	1.165024	-0.478322	-0.887876
H57	H	1.233255	-0.410120	-0.961511
C58	C	1.435082	-0.822726	-0.560068
N59	N	1.485260	-0.780717	-0.614948
H60	H	0.805959	-0.225475	-0.246847
C61	C	0.944899	-0.501317	-0.546972
N62	N	0.981304	-0.547067	-0.596760
H63	H	1.368028	-0.698854	-0.486781
H64	H	1.407969	-1.008718	-0.530374
H65	H	1.198036	-1.021213	-0.300816
C66	C	1.131036	-0.897331	-0.227458
N67	N	1.080926	-0.939343	-0.172501
C68	C	1.142321	-0.698797	-0.239995
N69	N	1.096624	-0.662479	-0.190036
H70	H	1.391076	-0.252342	-0.789757
