data_functionalizedCrystal
_audit_creation_method	'MofGen! by Chris Wilmer'
_symmetry_space_group_name_H-M	'P1'
_symmetry_Int_Tables_number	1
_symmetry_cell_setting	triclinic
loop_
_symmetry_equiv_pos_as_xyz
  x,y,z
_cell_length_a	18.050591
_cell_length_b	16.120484
_cell_length_c	16.120297
_cell_angle_alpha	95.614431
_cell_angle_beta	87.127539
_cell_angle_gamma	87.078125
loop_
_atom_site_label
_atom_site_type_symbol
_atom_site_fract_x
_atom_site_fract_y
_atom_site_fract_z
Zn1	Zn	1.097108	0.356841	0.489590
Zn2	Zn	1.430442	0.690174	0.822923
Zn3	Zn	1.763775	1.023507	1.156256
Zn4	Zn	1.097015	0.489530	0.356900
Zn5	Zn	1.430348	0.822864	0.690233
Zn6	Zn	1.763682	1.156197	1.023567
Zn7	Zn	0.979550	0.349767	0.349821
Zn8	Zn	1.312884	0.683100	0.683154
Zn9	Zn	1.646217	1.016433	1.016488
Zn10	Zn	0.966254	0.496560	0.496606
Zn11	Zn	1.299587	0.829894	0.829940
Zn12	Zn	1.632920	1.163227	1.163273
O13	O	1.034982	0.423175	0.423229
O14	O	1.368315	0.756508	0.756563
O15	O	1.701648	1.089841	1.089896
O16	O	1.201019	0.374461	0.472014
O17	O	1.534352	0.707794	0.805347
O18	O	1.867685	1.041127	1.138681
O19	O	1.086958	0.465088	0.239000
O20	O	1.420292	0.798421	0.572333
O21	O	1.753625	1.131755	0.905667
O22	O	1.000748	0.233740	0.362463
O23	O	1.334082	0.567074	0.695796
O24	O	1.667415	0.900407	1.029129
O25	O	1.200950	0.471947	0.374528
O26	O	1.534283	0.805281	0.707861
O27	O	1.867616	1.138614	1.041194
O28	O	1.087118	0.238938	0.465150
O29	O	1.420451	0.572271	0.798483
O30	O	1.753785	0.905604	1.131817
O31	O	1.000658	0.362404	0.233799
O32	O	1.333991	0.695737	0.567132
O33	O	1.667324	1.029071	0.900466
O34	O	0.873864	0.369221	0.369266
O35	O	1.207197	0.702554	0.702600
O36	O	1.540530	1.035888	1.035933
O37	O	0.978086	0.483929	0.612637
O38	O	1.311420	0.817262	0.945970
O39	O	1.644753	1.150596	1.279303
O40	O	0.864095	0.477070	0.477109
O41	O	1.197428	0.810403	0.810442
O42	O	1.530761	1.143736	1.143776
O43	O	1.074225	0.381277	0.607482
O44	O	1.407558	0.714611	0.940815
O45	O	1.740891	1.047944	1.274148
O46	O	1.074065	0.607428	0.381332
O47	O	1.407399	0.940761	0.714665
O48	O	1.740732	1.274094	1.047998
O49	O	0.977995	0.612593	0.483973
O50	O	1.311329	0.945926	0.817307
O51	O	1.644662	1.279259	1.150640
C52	C	1.024597	0.640339	0.434200
C53	C	1.357930	0.973672	0.767533
C54	C	1.691263	1.307005	1.100867
C55	C	1.020220	0.733244	0.438921
C56	C	1.353554	1.066577	0.772255
C57	C	1.686887	1.399911	1.105588
C58	C	0.842033	0.423141	0.423182
C59	C	1.175367	0.756474	0.756515
C60	C	1.508700	1.089808	1.089848
C61	C	0.759487	0.423148	0.423182
C62	C	1.092821	0.756481	0.756515
C63	C	1.426154	1.089815	1.089849
C64	C	1.045427	0.205163	0.412234
C65	C	1.378760	0.538497	0.745567
C66	C	1.712094	0.871830	1.078901
C67	C	1.049878	0.112260	0.407548
C68	C	1.383211	0.445593	0.740882
C69	C	1.716545	0.778927	1.074215
C70	C	0.565324	0.364442	0.364662
C71	C	0.898658	0.697775	0.697996
C72	C	1.231991	1.031108	1.031329
C73	C	0.513265	0.439636	0.347956
C74	C	0.846598	0.772969	0.681289
C75	C	1.179931	1.106303	1.014622
C76	C	0.608354	0.423175	0.423221
C77	C	0.941687	0.756509	0.756554
C78	C	1.275021	1.089842	1.089888
C79	C	0.513331	0.348007	0.439927
C80	C	0.846664	0.681340	0.773260
C81	C	1.179997	1.014674	1.106594
C82	C	0.462366	0.423195	0.423257
C83	C	0.795700	0.756528	0.756590
C84	C	1.129033	1.089861	1.089923
C85	C	0.557381	0.498408	0.406476
C86	C	0.890715	0.831741	0.739810
C87	C	1.224048	1.165074	1.073143
C88	C	0.557453	0.406729	0.498481
C89	C	0.890786	0.740062	0.831814
C90	C	1.224119	1.073396	1.165147
C91	C	0.505411	0.481978	0.481805
C92	C	0.838745	0.815311	0.815139
C93	C	1.172078	1.148644	1.148472
C94	C	0.692454	0.423163	0.423198
C95	C	1.025787	0.756496	0.756531
C96	C	1.359120	1.089829	1.089865
C97	C	0.378268	0.423216	0.423280
C98	C	0.711601	0.756549	0.756613
C99	C	1.044934	1.089883	1.089947
C100	C	1.228684	0.423209	0.423278
C101	C	1.562017	0.756542	0.756611
C102	C	1.895350	1.089875	1.089944
C103	C	1.311228	0.423223	0.423298
C104	C	1.644561	0.756557	0.756632
C105	C	1.977894	1.089890	1.089965
C106	C	1.024683	0.434176	0.641234
C107	C	1.358016	0.767510	0.974567
C108	C	1.691349	1.100843	1.307901
C109	C	1.020294	0.438865	0.734134
C110	C	1.353627	0.772198	1.067468
C111	C	1.686961	1.105531	1.400801
C112	C	1.012234	0.903343	0.447559
C113	C	1.345567	1.236677	0.780892
C114	C	1.678901	1.570010	1.114225
C115	C	1.057862	0.942166	0.398914
C116	C	1.391195	1.275499	0.732247
C117	C	1.724528	1.608833	1.065580
C118	C	1.053418	1.036815	0.403719
C119	C	1.386752	1.370148	0.737053
C120	C	1.720085	1.703482	1.070386
C121	C	1.016677	0.808686	0.442754
C122	C	1.350010	1.142019	0.776087
C123	C	1.683343	1.475352	1.109421
C124	C	1.045286	0.412155	0.206070
C125	C	1.378620	0.745489	0.539403
C126	C	1.711953	1.078822	0.872736
C127	C	1.049830	0.407231	0.113158
C128	C	1.383164	0.740565	0.446491
C129	C	1.716497	1.073898	0.779825
C130	C	1.012255	0.447406	0.904224
C131	C	1.345588	0.780739	1.237557
C132	C	1.678921	1.114073	1.570890
C133	C	1.057867	0.398693	0.943074
C134	C	1.391201	0.732026	1.276408
C135	C	1.724534	1.065359	1.609741
C136	C	1.053394	0.403445	1.037718
C137	C	1.386727	0.736778	1.371051
C138	C	1.720061	1.070112	1.704384
C139	C	1.016727	0.442655	0.809572
C140	C	1.350060	0.775988	1.142905
C141	C	1.683393	1.109321	1.476238
H142	H	0.591457	0.314821	0.315093
H143	H	0.924790	0.648154	0.648426
H144	H	1.258124	0.981487	0.981760
H145	H	0.576729	0.562000	0.392290
H146	H	0.910063	0.895334	0.725624
H147	H	1.243396	1.228667	1.058957
H148	H	1.100262	0.904319	0.353658
H149	H	1.433595	1.237652	0.686991
H150	H	1.766928	1.570986	1.020325
H151	H	0.969849	0.492677	0.942040
H152	H	1.303182	0.826010	1.275373
H153	H	1.636516	1.159343	1.608706
H154	H	0.493857	0.284437	0.454014
H155	H	0.827190	0.617771	0.787347
H156	H	1.160523	0.951104	1.120681
H157	H	0.969837	0.941187	0.492810
H158	H	1.303170	1.274521	0.826143
H159	H	1.636503	1.607854	1.159476
H160	H	1.100276	0.353418	0.905256
H161	H	1.433610	0.686752	1.238589
H162	H	1.766943	1.020085	1.571922
H163	H	0.479411	0.531710	0.531344
H164	H	0.812744	0.865043	0.864678
H165	H	1.146078	1.198376	1.198011
H166	H	0.493768	0.453561	0.284326
H167	H	0.827101	0.786894	0.617659
H168	H	1.160435	1.120228	0.950992
H169	H	0.576969	0.392780	0.562090
H170	H	0.910302	0.726113	0.895423
H171	H	1.243636	1.059447	1.228757
