data_functionalizedCrystal
_audit_creation_method	'MofGen! by Chris Wilmer'
_symmetry_space_group_name_H-M	'P1'
_symmetry_Int_Tables_number	1
_symmetry_cell_setting	triclinic
loop_
_symmetry_equiv_pos_as_xyz
  x,y,z
_cell_length_a	18.101395
_cell_length_b	18.101398
_cell_length_c	18.215399
_cell_angle_alpha	89.989569
_cell_angle_beta	89.973573
_cell_angle_gamma	90.026661
loop_
_atom_site_label
_atom_site_type_symbol
_atom_site_fract_x
_atom_site_fract_y
_atom_site_fract_z
Zn1	Zn	-0.294925	1.132126	-0.415939
Zn2	Zn	-0.418771	1.132020	-0.292876
Zn3	Zn	-0.294939	1.008283	-0.292907
Zn4	Zn	-0.418720	1.008236	-0.415921
O5	O	-0.356839	1.070166	-0.354411
O6	O	-0.311370	1.235745	-0.399609
O7	O	-0.402372	1.115582	-0.189896
O8	O	-0.191304	1.024776	-0.309247
O9	O	-0.402359	1.235667	-0.309195
O10	O	-0.191294	1.115762	-0.399639
O11	O	-0.311393	1.024673	-0.189918
O12	O	-0.311343	0.904644	-0.309230
O13	O	-0.402271	1.024694	-0.518908
O14	O	-0.402284	0.904609	-0.399608
O15	O	-0.311319	1.115716	-0.518921
O16	O	-0.522398	1.115536	-0.309178
O17	O	-0.522359	1.024592	-0.399579
C18	C	-0.356810	0.877756	-0.354421
C19	C	-0.356815	0.795442	-0.354443
C20	C	-0.549249	1.070067	-0.354389
C21	C	-0.631563	1.070093	-0.354404
C22	C	-0.356859	0.496351	-0.354412
C23	C	-0.414353	0.527679	-0.410995
C24	C	-0.414173	0.613297	-0.411227
C25	C	-0.356838	0.644733	-0.354427
C26	C	-0.278835	0.613679	-0.375619
C27	C	-0.279181	0.528034	-0.376022
C28	C	-0.376679	0.527897	-0.276501
C29	C	-0.378390	0.613547	-0.276917
C30	C	-0.356821	0.728593	-0.354435
C31	C	-0.356870	0.412491	-0.354406
C32	C	-0.930654	1.070255	-0.354444
C33	C	-0.899336	1.013168	-0.411463
C34	C	-0.813718	1.012897	-0.411285
C35	C	-0.782272	1.070174	-0.354425
C36	C	-0.813420	1.049044	-0.276867
C37	C	-0.899065	1.048676	-0.277209
C38	C	-0.899004	1.148597	-0.374300
C39	C	-0.813353	1.148136	-0.376001
C40	C	-0.698412	1.070130	-0.354409
C41	C	-1.014514	1.070298	-0.354454
C42	C	-0.163677	1.070286	-0.354448
C43	C	-0.081363	1.070337	-0.354465
C44	C	-0.356788	1.070211	-0.546364
C45	C	-0.356766	1.070231	-0.628163
C46	C	-0.356869	1.263328	-0.354401
C47	C	-0.356881	1.345642	-0.354397
C48	C	-0.309363	1.117643	-0.816365
C49	C	-0.309342	1.117652	-0.893223
C50	C	-0.404054	1.022871	-0.893198
C51	C	-0.404071	1.022859	-0.816341
C52	C	-0.356727	1.070249	-0.777926
C53	C	-0.356688	1.070270	-0.931642
C54	C	-0.356665	1.070279	-1.014976
C55	C	-0.356749	1.070239	-0.694587
C56	C	-0.356836	1.070164	-0.163204
C57	C	-0.356649	1.070288	-0.081406
H58	H	-0.472016	0.634292	-0.397946
Cl59	Cl	-0.462987	0.494516	-0.246759
Cl60	Cl	-0.394380	0.494454	-0.499605
H61	H	-0.435788	0.633851	-0.260934
Cl62	Cl	-0.931066	1.033371	-0.500542
H63	H	-0.401059	0.633800	-0.468955
H64	H	-0.920555	1.167862	-0.429891
H65	H	-0.262370	0.508073	-0.432978
Cl66	Cl	-0.210900	0.645121	-0.313981
H67	H	-0.270810	1.156229	-0.785089
H68	H	-0.334800	0.507638	-0.234341
H69	H	-0.442640	0.984260	-0.785044
Cl70	Cl	-0.210801	0.496036	-0.315172
Cl71	Cl	-0.931059	1.110077	-0.209377
Cl72	Cl	-0.463573	0.963302	-0.941497
H73	H	-0.792656	1.026117	-0.468793
H74	H	-0.920918	0.955452	-0.398477
Cl75	Cl	-0.318427	0.646579	-0.208329
Cl76	Cl	-0.782173	0.923242	-0.390983
H77	H	-0.919257	1.191129	-0.332771
Cl78	Cl	-0.252410	0.646815	-0.462601
Cl79	Cl	-0.503952	0.495844	-0.390726
H80	H	-0.791944	1.192919	-0.337498
H81	H	-0.792992	1.164071	-0.433079
Cl82	Cl	-0.930006	0.960260	-0.251239
Cl83	Cl	-0.781976	1.111218	-0.209485
H84	H	-0.792031	0.992383	-0.259744
Cl85	Cl	-0.249802	1.177242	-0.941543
