data_functionalizedCrystal
_audit_creation_method	'MofGen! by Chris Wilmer'
_symmetry_space_group_name_H-M	'P1'
_symmetry_Int_Tables_number	1
_symmetry_cell_setting	triclinic
loop_
_symmetry_equiv_pos_as_xyz
  x,y,z
_cell_length_a	19.902436
_cell_length_b	17.917603
_cell_length_c	17.917603
_cell_angle_alpha	60.138055
_cell_angle_beta	89.998778
_cell_angle_gamma	63.036132
loop_
_atom_site_label
_atom_site_type_symbol
_atom_site_fract_x
_atom_site_fract_y
_atom_site_fract_z
Zr1	Zr	0.685587	0.806939	-0.129149
O2	O	0.589181	0.951960	-0.249673
O3	O	0.710533	0.654714	-0.087501
O4	O	0.722705	0.796568	-0.242911
O5	O	0.572648	0.820800	0.022980
O6	O	0.833272	0.796581	-0.242925
O7	O	0.577009	0.810107	-0.094262
O8	O	0.811498	0.542831	0.035075
O9	O	0.594422	1.074550	-0.255020
O10	O	0.809254	0.720004	-0.075429
O11	O	0.723484	0.727974	0.012078
O12	O	0.737815	0.894989	-0.170897
O13	O	0.652046	0.902959	-0.083390
Zr14	Zr	0.854973	0.824014	0.057816
Zr15	Zr	0.861928	0.806960	-0.129172
Zr16	Zr	0.678632	0.823993	0.057839
Zr17	Zr	0.693945	1.002455	-0.137678
Zr18	Zr	0.846615	0.628498	0.066345
O19	O	0.830027	0.976239	0.016168
O20	O	0.839916	0.951990	-0.249705
O21	O	0.579292	0.976209	0.016200
O22	O	0.951379	0.678993	0.178339
O23	O	0.961268	0.654744	-0.087534
O24	O	0.700644	0.678963	0.178372
O25	O	0.967912	0.810153	-0.094313
O26	O	0.817855	0.834385	0.171578
O27	O	0.707288	0.834372	0.171592
O28	O	0.963551	0.820846	0.022929
O29	O	0.734590	1.074567	-0.255039
O30	O	0.805970	0.556387	0.183705
O31	O	0.946138	0.556403	0.183687
O32	O	0.951666	0.542848	0.035057
O33	O	0.588894	1.088106	-0.106390
O34	O	0.729062	1.088122	-0.106408
O35	O	0.802745	0.735964	0.099564
O36	O	0.888514	0.727994	0.012057
O37	O	0.817076	0.902979	-0.083411
O38	O	0.731307	0.910949	0.004096
C39	C	0.759825	0.570916	-0.024998
C40	C	0.756277	0.487914	-0.021377
C41	C	0.549704	0.815450	-0.035638
C42	C	0.474842	0.815441	-0.035628
C43	C	0.749793	0.335946	-0.014765
C44	C	0.790765	0.295002	-0.056567
C45	C	0.787157	0.210442	-0.052888
C46	C	0.753400	0.420514	-0.018443
C47	C	0.202798	0.815489	-0.035679
C48	C	0.276362	0.705081	0.024281
C49	C	0.354251	0.705037	0.024593
C50	C	0.337762	0.815464	-0.035654
C51	C	0.284596	0.876454	0.002099
C52	C	0.206988	0.875753	0.002533
C53	C	0.211003	0.865730	-0.133452
C54	C	0.289783	0.863575	-0.133207
C55	C	0.414036	0.815457	-0.035641
C56	C	0.126522	0.815500	-0.035690
C57	C	0.990856	0.815503	-0.035695
C58	C	1.065718	0.815512	-0.035705
C59	C	0.778980	0.794144	-0.269560
C60	C	0.781932	0.786905	-0.348941
C61	C	0.780735	1.060038	-0.046336
C62	C	0.784284	1.143039	-0.049956
C63	C	0.787342	0.773680	-0.494297
C64	C	0.753220	0.857269	-0.577039
C65	C	0.756230	0.849911	-0.657920
C66	C	0.784333	0.781036	-0.413407
C67	C	0.761581	0.836809	0.198227
C68	C	0.758628	0.844049	0.277608
C69	C	0.980401	0.570942	-0.025027
C70	C	1.051714	0.487949	-0.021415
C71	C	0.751125	0.592248	0.208896
C72	C	0.744624	0.516486	0.291898
C73	C	0.971702	0.592274	0.208867
C74	C	1.040062	0.516521	0.291859
C75	C	0.568859	1.038679	-0.280200
C76	C	0.500498	1.114432	-0.363193
C77	C	0.560159	1.060011	-0.046307
C78	C	0.488846	1.143004	-0.049918
C79	C	0.789435	1.038705	-0.280229
C80	C	0.795936	1.114467	-0.363231
C81	C	1.043831	0.444803	-0.065394
C82	C	1.110832	0.366832	-0.062019
C83	C	1.185715	0.332003	-0.014659
C84	C	1.193597	0.375156	0.029320
C85	C	1.126597	0.453131	0.025940
C86	C	0.782944	0.485079	0.376551
C87	C	0.776833	0.413904	0.454547
C88	C	0.732406	0.374132	0.447888
C89	C	0.694082	0.405546	0.363226
C90	C	0.700189	0.476725	0.285231
C91	C	1.116943	0.476786	0.285155
C92	C	1.181183	0.405619	0.363128
C93	C	1.168539	0.374182	0.447804
C94	C	1.091651	0.413924	0.454506
C95	C	1.027413	0.485096	0.376534
C96	C	0.423617	1.154176	-0.356489
C97	C	0.359379	1.225368	-0.434463
C98	C	0.372022	1.256809	-0.519139
C99	C	0.448911	1.217062	-0.525840
C100	C	0.513148	1.145877	-0.447868
C101	C	0.496730	1.186157	-0.005947
C102	C	0.429731	1.264148	-0.009344
C103	C	0.354848	1.298980	-0.056707
C104	C	0.346966	1.255823	-0.100683
C105	C	0.413964	1.177838	-0.097291
C106	C	0.840369	1.154217	-0.356543
C107	C	0.846493	1.225393	-0.434525
C108	C	0.808178	1.256824	-0.519194
C109	C	0.763743	1.217067	-0.525880
C110	C	0.757625	1.145887	-0.447899
H111	H	0.712010	0.307496	0.023783
C112	C	0.721594	1.251658	-0.619019
H113	H	0.731598	1.299752	-0.664497
H114	H	0.740703	1.195090	-0.623141
H115	H	0.666466	1.281496	-0.626885
H116	H	0.819121	0.517454	0.381990
H117	H	0.392721	0.657618	-0.000459
H118	H	0.277120	0.657326	-0.000601
C119	C	0.206446	0.811755	-0.176736
H120	H	0.199507	0.758058	-0.135572
H121	H	0.163140	0.858418	-0.229882
H122	H	0.253869	0.785482	-0.191445
H123	H	1.104398	0.331705	-0.097833
C124	C	1.275969	0.336829	0.081421
H125	H	1.314735	0.284203	0.077139
H126	H	1.285388	0.390746	0.056437
H127	H	1.278606	0.311868	0.142842
C128	C	1.135278	0.500572	0.074332
H129	H	1.189472	0.468649	0.103027
H130	H	1.114246	0.570605	0.031717
H131	H	1.107483	0.491709	0.118125
C132	C	0.281154	1.384758	-0.060429
H133	H	0.235424	1.399331	-0.094938
H134	H	0.277902	1.364497	-0.001121
H135	H	0.284670	1.443374	-0.087541
H136	H	1.081368	0.388317	0.523459
H137	H	0.276511	0.943766	-0.181248
H138	H	0.808045	0.388335	0.523475
H139	H	0.285987	1.284195	-0.139244
C140	C	1.259409	0.246225	-0.010936
H141	H	1.305139	0.231659	0.023564
H142	H	1.255891	0.187615	0.016166
H143	H	1.262664	0.266492	-0.070249
C144	C	0.725700	0.295831	0.533687
H145	H	0.754894	0.282820	0.585055
H146	H	0.671919	0.321378	0.532595
H147	H	0.746169	0.234976	0.536352
H148	H	0.407534	1.142705	-0.133095
H149	H	0.657909	0.373154	0.357817
C150	C	0.658039	0.511258	0.192118
H151	H	0.630714	0.477366	0.199332
H152	H	0.621577	0.582055	0.157904
H153	H	0.695828	0.495637	0.161681
H154	H	0.159397	0.947005	-0.178277
C155	C	0.882523	1.119652	-0.263417
H156	H	0.909867	1.153519	-0.270615
H157	H	0.844743	1.135259	-0.232971
H158	H	0.918983	1.048850	-0.229219
H159	H	1.127253	0.502371	0.216215
H160	H	0.319709	1.314773	-0.582622
H161	H	0.828550	0.323456	-0.095118
H162	H	0.459196	1.242671	-0.594793
H163	H	0.575746	1.113517	-0.453336
H164	H	0.721743	0.934358	-0.587133
C165	C	0.271268	0.652784	0.121239
H166	H	0.224505	0.697944	0.125337
H167	H	0.270354	0.594300	0.136809
H168	H	0.315798	0.633860	0.161386
H169	H	0.882674	1.257757	-0.429064
H170	H	0.388793	0.666060	0.096808
C171	C	0.201377	0.829351	0.099572
H172	H	0.246458	0.811101	0.138358
H173	H	0.155215	0.877312	0.101802
H174	H	0.199014	0.770992	0.118430
H175	H	0.813166	1.314785	-0.582684
C176	C	0.409699	1.119605	-0.263354
H177	H	0.458962	1.071511	-0.217868
H178	H	0.382628	1.176186	-0.259251
H179	H	0.378923	1.089776	-0.255483
C180	C	0.829850	0.669546	-0.480659
H181	H	0.826311	0.678206	-0.537606
H182	H	0.883698	0.633092	-0.447985
H183	H	0.805748	0.633104	-0.447992
H184	H	0.557697	1.157804	0.032626
H185	H	1.243783	0.373267	0.357655
H186	H	0.154963	0.957020	-0.038581
H187	H	1.220853	0.316228	0.511286
C188	C	0.942847	0.528785	0.383919
H189	H	0.944525	0.499856	0.445519
H190	H	0.917760	0.599931	0.353518
H191	H	0.914088	0.513499	0.357294
C192	C	0.264714	0.986447	-0.054334
H193	H	0.288722	0.996173	-0.101532
H194	H	0.209192	1.030849	-0.079222
H195	H	0.283980	1.000171	-0.017063
C196	C	0.329399	0.831227	0.098189
H197	H	0.380489	0.775197	0.115441
H198	H	0.333981	0.880957	0.099797
H199	H	0.301373	0.809600	0.138618
H200	H	0.721439	1.113530	-0.453357
H201	H	0.296779	1.257719	-0.428989
C202	C	0.339304	0.803427	-0.171379
H203	H	0.389015	0.749223	-0.128055
H204	H	0.312514	0.777358	-0.185056
H205	H	0.346951	0.846598	-0.224574
H206	H	0.982864	0.473159	-0.103970
C207	C	0.438415	1.311598	0.039042
H208	H	0.492608	1.279667	0.067747
H209	H	0.417392	1.381627	-0.003579
H210	H	0.410611	1.302750	0.082827
