data_functionalizedCrystal
_audit_creation_method	'MofGen! by Chris Wilmer'
_symmetry_space_group_name_H-M	'P1'
_symmetry_Int_Tables_number	1
_symmetry_cell_setting	triclinic
loop_
_symmetry_equiv_pos_as_xyz
  x,y,z
_cell_length_a	23.096457
_cell_length_b	20.875641
_cell_length_c	20.875641
_cell_angle_alpha	60.089808
_cell_angle_beta	89.999757
_cell_angle_gamma	62.439477
loop_
_atom_site_label
_atom_site_type_symbol
_atom_site_fract_x
_atom_site_fract_y
_atom_site_fract_z
Zr1	Zr	0.584269	0.694356	-0.105794
O2	O	0.499421	0.820595	-0.209055
O3	O	0.607105	0.563101	-0.070863
O4	O	0.615632	0.687125	-0.204336
O5	O	0.487780	0.704025	0.025977
O6	O	0.710912	0.687126	-0.204339
O7	O	0.490894	0.696572	-0.075582
O8	O	0.695660	0.465271	0.034419
O9	O	0.503032	0.925880	-0.212781
O10	O	0.691787	0.618947	-0.059926
O11	O	0.618356	0.624509	0.015869
O12	O	0.628395	0.770530	-0.141277
O13	O	0.554963	0.776091	-0.065482
Zr14	Zr	0.731263	0.706246	0.056176
Zr15	Zr	0.736231	0.694359	-0.105800
Zr16	Zr	0.579302	0.706243	0.056182
Zr17	Zr	0.590029	0.862274	-0.111736
Zr18	Zr	0.725504	0.538328	0.062118
O19	O	0.708427	0.837501	0.021245
O20	O	0.715490	0.820599	-0.209063
O21	O	0.492358	0.837497	0.021254
O22	O	0.816112	0.580007	0.159436
O23	O	0.823175	0.563105	-0.070872
O24	O	0.600042	0.580004	0.159445
O25	O	0.827753	0.696577	-0.075595
O26	O	0.699901	0.713477	0.154717
O27	O	0.604620	0.713476	0.154721
O28	O	0.824638	0.704030	0.025964
O29	O	0.623821	0.925882	-0.212785
O30	O	0.691711	0.474720	0.163167
O31	O	0.812500	0.474722	0.163163
O32	O	0.816449	0.465273	0.034414
O33	O	0.499084	0.935329	-0.084032
O34	O	0.619873	0.935331	-0.084037
O35	O	0.687138	0.630072	0.091659
O36	O	0.760569	0.624511	0.015864
O37	O	0.697177	0.776094	-0.065488
O38	O	0.623746	0.781655	0.010308
C39	C	0.650562	0.490262	-0.017376
C40	C	0.648117	0.418976	-0.014853
C41	C	0.467686	0.700298	-0.024802
C42	C	0.403174	0.700297	-0.024799
C43	C	0.685297	0.382583	-0.053232
C44	C	0.683001	0.315599	-0.050854
C45	C	0.643521	0.285013	-0.010101
C46	C	0.606340	0.321409	0.028283
C47	C	0.608640	0.388388	0.025909
C48	C	0.632535	0.085001	0.001245
C49	C	0.630236	0.018019	0.003614
C50	C	0.706898	0.012212	-0.075522
C51	C	0.709191	0.079197	-0.077896
C52	C	0.672013	0.115584	-0.039509
N53	N	0.641171	0.216546	-0.007672
N54	N	0.674367	0.184045	-0.041934
C55	C	0.405959	0.621174	0.017658
C56	C	0.345343	0.621173	0.017662
C57	C	0.281944	0.700299	-0.024807
C58	C	0.279162	0.779432	-0.067267
C59	C	0.339777	0.779431	-0.067262
N60	N	0.163217	0.756632	-0.091359
N61	N	0.105638	0.756627	-0.091362
C62	C	0.099312	0.700306	-0.024821
N63	N	0.152746	0.643976	0.041722
N64	N	0.210332	0.643978	0.041723
C65	C	0.216213	0.700308	-0.024816
C66	C	0.036372	0.621176	0.017644
C67	C	-0.024246	0.621179	0.017649
C68	C	-0.090427	0.779439	-0.067287
C69	C	-0.029809	0.779435	-0.067284
C70	C	0.033588	0.700301	-0.024821
C71	C	0.847847	0.700304	-0.024817
C72	C	0.912359	0.700305	-0.024819
C73	C	0.663980	0.685432	-0.227416
C74	C	0.666089	0.680385	-0.296178
C75	C	0.664971	0.910341	-0.032243
C76	C	0.667416	0.981626	-0.034765
C77	C	0.633990	0.757137	-0.370948
C78	C	0.635981	0.752390	-0.435555
C79	C	0.670066	0.670891	-0.425391
C80	C	0.702168	0.594133	-0.350614
C81	C	0.700182	0.598881	-0.286008
C82	C	0.679560	0.648207	-0.614057
C83	C	0.681542	0.643465	-0.678671
C84	C	0.615356	0.801723	-0.763607
C85	C	0.613368	0.806463	-0.698997
C86	C	0.645474	0.729706	-0.624225
N87	N	0.672099	0.666037	-0.491429
N88	N	0.643444	0.734561	-0.558189
C89	C	0.651553	0.715170	0.177797
C90	C	0.649444	0.720217	0.246560
C91	C	0.840643	0.490265	-0.017383
C92	C	0.902709	0.418980	-0.014863
C93	C	0.644348	0.505131	0.185231
C94	C	0.639794	0.438892	0.256516
C95	C	0.834429	0.505134	0.185223
C96	C	0.894387	0.438896	0.256506
C97	C	0.481104	0.895468	-0.234841
C98	C	0.421146	0.961706	-0.306125
C99	C	0.474890	0.910338	-0.032235
C100	C	0.412823	0.981622	-0.034755
C101	C	0.671184	0.895471	-0.234849
C102	C	0.675738	0.961710	-0.306135
C103	C	0.895953	0.382600	-0.053248
C104	C	0.954266	0.315628	-0.050895
C105	C	1.019334	0.285035	-0.010153
C106	C	1.026090	0.321422	0.028233
C107	C	0.967777	0.388396	0.025875
C108	C	0.673559	0.410690	0.329561
C109	C	0.669278	0.348461	0.396548
C110	C	0.631235	0.314431	0.390488
C111	C	0.597466	0.342639	0.317435
C112	C	0.601744	0.404871	0.250450
C113	C	0.960880	0.404887	0.250417
C114	C	1.017223	0.342658	0.317389
C115	C	1.007071	0.314435	0.390449
C116	C	0.940571	0.348450	0.396536
C117	C	0.884229	0.410682	0.329565
C118	C	0.354653	0.995724	-0.300036
C119	C	0.298310	1.057973	-0.367008
C120	C	0.308463	1.086200	-0.440068
C121	C	0.374963	1.052180	-0.446155
C122	C	0.431304	0.989936	-0.379184
C123	C	0.419580	1.018009	0.003622
C124	C	0.361268	1.084997	0.001251
C125	C	0.296200	1.115593	-0.039493
C126	C	0.289445	1.079203	-0.077876
C127	C	0.347756	1.012220	-0.075509
C128	C	0.713787	0.995721	-0.300050
C129	C	0.718079	1.057951	-0.367024
C130	C	0.684318	1.086174	-0.440082
C131	C	0.646268	1.052157	-0.446165
C132	C	0.641981	0.989923	-0.379192
H133	H	0.717442	0.407485	-0.086421
H134	H	0.472557	0.993104	0.036806
H135	H	0.574250	0.427824	0.190977
C136	C	0.759933	1.095364	-0.360315
N137	N	0.791458	1.123541	-0.355259
C138	C	0.929414	0.317388	0.476910
N139	N	0.921013	0.293985	0.537450
C140	C	-0.021178	0.534132	0.064352
N141	N	-0.018867	0.468567	0.099527
H142	H	0.236458	1.104125	-0.111049
H143	H	0.726319	0.536381	-0.225128
H144	H	-0.032079	0.843865	-0.101863
H145	H	0.383221	1.075170	-0.505649
H146	H	0.589218	0.864214	-0.824491
C147	C	0.811087	0.448084	0.336277
N148	N	0.755996	0.476253	0.341337
H149	H	0.610995	0.962238	-0.384157
H150	H	0.337505	0.843865	-0.101835
H151	H	0.087993	0.556742	0.052236
C152	C	0.946819	0.275607	-0.093116
N153	N	0.941208	0.245463	-0.124915
C154	C	0.739660	0.504483	-0.339435
N155	N	0.767897	0.436956	-0.331014
C156	C	0.714870	0.563771	-0.531816
N157	N	0.741465	0.500169	-0.469867
C158	C	1.083473	0.211355	-0.007561
N159	N	1.131780	0.155855	-0.005608
C160	C	0.689040	1.154635	-0.513748
N161	N	0.692598	1.206202	-0.569230
C162	C	0.555625	0.305191	0.310782
N163	N	0.524114	0.276980	0.305774
C164	C	1.090367	0.305244	0.310675
N165	N	1.145458	0.277063	0.305617
H166	H	1.079076	0.296503	0.061404
C167	C	0.368714	1.125008	0.043484
N168	N	0.374324	1.155140	0.075296
C169	C	0.225166	1.095382	-0.360294
N170	N	0.170075	1.123557	-0.355236
C171	C	-0.160163	0.866479	-0.114001
N172	N	-0.212693	0.932039	-0.149187
C173	C	1.069055	0.245970	0.464112
N174	N	1.115745	0.194399	0.519593
C175	C	0.600639	0.836824	-0.517802
N176	N	0.574008	0.900423	-0.579752
H177	H	0.704538	0.438391	0.334510
H178	H	0.709297	0.577095	-0.670386
H179	H	0.485444	0.962239	-0.384151
C180	C	0.824383	0.416244	-0.098075
N181	N	0.770478	0.441585	-0.131846
H182	H	0.248724	1.170135	-0.041415
C183	C	0.246478	1.154664	-0.513731
N184	N	0.199789	1.206227	-0.569212
H185	H	0.342245	0.982596	-0.106759
H186	H	0.713276	0.285967	-0.082105
H187	H	0.973288	0.418009	0.057138
C188	C	0.609163	1.083179	-0.526536
N189	N	0.581223	1.106538	-0.587073
C190	C	0.348404	0.534128	0.064366
N191	N	0.350711	0.468566	0.099543
H192	H	0.741279	0.972753	-0.240568
H193	H	0.696780	0.325502	0.456023
C194	C	0.343468	0.964692	-0.219676
N195	N	0.335039	0.941328	-0.159151
H196	H	0.741339	0.104098	-0.111080
H197	H	0.737168	-0.017421	-0.106774
H198	H	0.598083	-0.006880	0.036800
C199	C	0.626543	0.245965	0.464181
N200	N	0.623016	0.194393	0.519690
H201	H	0.969159	0.427856	0.190934
H202	H	0.574198	0.296496	0.061469
C203	C	0.567739	0.428420	0.068129
N204	N	0.536933	0.458570	0.099933
C205	C	0.591661	0.124992	0.043501
N206	N	0.560883	0.155105	0.075341
H207	H	0.227538	0.843856	-0.101845
C208	C	0.575878	0.896119	-0.710185
N209	N	0.547639	0.963649	-0.718613
C210	C	0.596495	0.846794	-0.382138
N211	N	0.568254	0.914326	-0.390570
H212	H	0.457575	0.556737	0.052231
