data_functionalizedCrystal
_audit_creation_method	'MofGen! by Chris Wilmer'
_symmetry_space_group_name_H-M	'P1'
_symmetry_Int_Tables_number	1
_symmetry_cell_setting	triclinic
loop_
_symmetry_equiv_pos_as_xyz
  x,y,z
_cell_length_a	14.044220
_cell_length_b	14.044190
_cell_length_c	13.596369
_cell_angle_alpha	89.989293
_cell_angle_beta	89.999747
_cell_angle_gamma	93.190328
loop_
_atom_site_label
_atom_site_type_symbol
_atom_site_fract_x
_atom_site_fract_y
_atom_site_fract_z
O1	O	1.277175	0.230170	-0.081707
O2	O	1.777175	0.730170	0.418293
O3	O	1.000503	0.221864	-0.081731
O4	O	1.500503	0.721864	0.418269
O5	O	1.134683	0.087681	-0.081700
O6	O	1.634683	0.587681	0.418300
O7	O	1.142995	0.364353	-0.081738
O8	O	1.642995	0.864353	0.418262
O9	O	1.134667	0.087672	0.081883
O10	O	1.634667	0.587672	0.581883
O11	O	1.000488	0.221855	0.081852
O12	O	1.500488	0.721855	0.581852
O13	O	1.277160	0.230161	0.081876
O14	O	1.777160	0.730161	0.581876
Zn15	Zn	1.138821	0.226007	0.107836
Zn16	Zn	1.638821	0.726007	0.607836
Zn17	Zn	1.138841	0.226019	-0.107691
Zn18	Zn	1.638841	0.726019	0.392309
O19	O	1.142980	0.364344	0.081845
O20	O	1.642980	0.864344	0.581845
C21	C	0.964874	0.218224	0.000058
C22	C	1.464874	0.718224	0.500058
C23	C	0.858731	0.207380	0.000049
C24	C	1.358731	0.707380	0.500049
C25	C	0.664392	0.187553	0.000072
C26	C	1.164392	0.687553	0.500072
C27	C	0.613264	0.264468	0.000065
C28	C	1.113264	0.764468	0.500065
C29	C	0.505128	0.253436	0.000077
C30	C	1.005128	0.753436	0.500077
C31	C	0.772539	0.198583	0.000059
C32	C	1.272539	0.698583	0.500059
C33	C	1.131039	0.052054	0.000094
C34	C	1.631039	0.552054	0.500094
C35	C	1.120191	-0.054089	0.000102
C36	C	1.620191	0.445911	0.500102
C37	C	1.177292	-0.299547	0.000068
C38	C	1.677292	0.200453	0.500068
C39	C	1.100375	-0.248422	0.000068
C40	C	1.600375	0.251578	0.500068
C41	C	1.111404	-0.140285	0.000087
C42	C	1.611404	0.359715	0.500087
C43	C	1.166265	-0.407694	0.000050
C44	C	1.666265	0.092306	0.500050
C45	C	1.312789	0.233801	0.000085
C46	C	1.812789	0.733801	0.500085
C47	C	1.418932	0.244646	0.000087
C48	C	1.918932	0.744646	0.500087
C49	C	1.146624	0.399971	0.000049
C50	C	1.646624	0.899971	0.500049
C51	C	1.157472	0.506114	0.000035
C52	C	1.657472	1.006114	0.500035
N53	N	1.138815	0.225999	0.254928
N54	N	1.638815	0.725999	0.754928
N55	N	1.138855	0.226020	-0.254783
N56	N	1.638855	0.726020	0.245217
C57	C	1.138840	0.226019	0.656219
C58	C	1.638840	0.726019	1.156219
C59	C	1.138831	0.226017	0.544568
C60	C	1.638831	0.726017	1.044568
C61	C	1.138828	0.226010	0.455577
C62	C	1.638828	0.726010	0.955577
C63	C	1.138817	0.226006	0.343919
C64	C	1.638817	0.726006	0.843919
H65	H	0.626954	0.113425	0.000087
H66	H	1.126954	0.613425	0.500087
H67	H	0.650706	0.338602	0.000050
H68	H	1.150706	0.838602	0.500050
O69	O	1.265778	-0.254996	0.000220
O70	O	1.765778	0.245004	0.500220
C71	C	1.315638	-0.281740	0.084958
C72	C	1.815638	0.218260	0.584958
H73	H	1.283893	-0.353063	0.113186
H74	H	1.783893	0.146937	0.613186
H75	H	1.393996	-0.288696	0.065917
H76	H	1.893996	0.211304	0.565917
H77	H	1.309343	-0.225089	0.144291
H78	H	1.809343	0.274911	0.644291
H79	H	1.026243	-0.285865	0.000056
H80	H	1.526243	0.214135	0.500056
