data_functionalizedCrystal
_audit_creation_method	'MofGen! by Chris Wilmer'
_symmetry_space_group_name_H-M	'P1'
_symmetry_Int_Tables_number	1
_symmetry_cell_setting	triclinic
loop_
_symmetry_equiv_pos_as_xyz
  x,y,z
_cell_length_a	6.817900
_cell_length_b	16.255661
_cell_length_c	10.943867
_cell_angle_alpha	93.786122
_cell_angle_beta	108.843261
_cell_angle_gamma	103.488922
loop_
_atom_site_label
_atom_site_type_symbol
_atom_site_fract_x
_atom_site_fract_y
_atom_site_fract_z
V1	V	-4.054194	-0.263862	-0.179676
O2	O	-4.013034	-0.258848	0.007561
O3	O	-4.032599	-0.262048	-0.355235
O4	O	-4.005405	-0.378945	-0.177383
O5	O	-4.040415	-0.141142	-0.171522
V6	V	-4.534399	-0.249184	-0.157225
O7	O	-4.322731	-0.296057	-0.228925
O8	O	-4.716060	-0.216989	-0.107976
O9	O	-4.332788	-0.250998	0.018334
O10	O	-4.692956	-0.254197	-0.344462
O11	O	-4.665575	-0.371904	-0.165378
O12	O	-4.359981	-0.134101	-0.159518
C13	C	-3.884133	-0.257883	-0.398018
C14	C	-3.947760	-0.257167	-0.541543
C15	C	-4.176276	-0.261152	-0.632442
C16	C	-4.157696	-0.328618	-0.731825
C17	C	-4.079701	-0.188441	-0.697899
C18	C	-3.928373	-0.324701	-0.639050
C19	C	-3.850367	-0.184460	-0.605102
C20	C	-3.831640	-0.251941	-0.704445
C21	C	-3.849444	-0.406996	-0.171148
C22	C	-3.891015	-0.501077	-0.170435
C23	C	-3.800268	-0.723896	-0.161918
C24	C	-3.973499	-0.793366	-0.271848
C25	C	-3.967195	-0.673326	-0.169099
C26	C	-3.868062	-0.771493	-0.057911
C27	C	-4.040764	-0.839709	-0.167801
C28	C	-4.139922	-0.741566	-0.279126
C29	C	-4.034409	-0.719677	-0.065092
C30	C	-4.207780	-0.789128	-0.175053
C31	C	-3.924808	-0.577476	-0.169847
C32	C	-4.083169	-0.935558	-0.167063
C33	C	-4.144597	-0.255161	0.061111
C34	C	-4.060208	-0.255883	0.204634
C35	C	-4.179286	-0.106046	-0.165757
C36	C	-4.116952	-0.011964	-0.166463
H37	H	-3.627687	-0.695416	-0.156507
H38	H	-4.321365	-0.265140	-0.600622
O39	O	-3.731645	-0.787648	0.053754
C40	C	-3.761959	-0.748521	0.162653
H41	H	-3.929877	-0.738240	0.131658
H42	H	-3.744116	-0.791546	0.241473
H43	H	-3.636400	-0.684139	0.202887
H44	H	-4.288222	-0.389560	-0.786816
H45	H	-4.254453	-0.728094	-0.372717
O46	O	-3.851578	-0.393475	-0.607682
C47	C	-3.792159	-0.393348	-0.471720
H48	H	-3.883296	-0.354962	-0.430814
H49	H	-3.833438	-0.461967	-0.451400
H50	H	-3.611698	-0.363014	-0.423006
H51	H	-3.686374	-0.248060	-0.736050
H52	H	-3.719897	-0.123518	-0.550085
O53	O	-4.157033	-0.119769	-0.729142
C54	C	-4.339479	-0.124921	-0.692796
H55	H	-4.334358	-0.166691	-0.612748
H56	H	-4.340145	-0.057988	-0.654923
H57	H	-4.491462	-0.154247	-0.781325
O58	O	-3.942933	-0.831591	-0.376019
C59	C	-3.728492	-0.798154	-0.368768
H60	H	-3.622865	-0.770604	-0.263106
H61	H	-3.668490	-0.851384	-0.405164
H62	H	-3.720716	-0.745438	-0.432170
O63	O	-4.413792	-0.822833	-0.181538
C64	C	-4.446653	-0.783836	-0.073518
H65	H	-4.324226	-0.718653	-0.034300
H66	H	-4.616246	-0.775232	-0.105221
H67	H	-4.426062	-0.826086	0.006313
H68	H	-4.059633	-0.687573	0.022324
