data_functionalizedCrystal
_audit_creation_method	'MofGen! by Chris Wilmer'
_symmetry_space_group_name_H-M	'P1'
_symmetry_Int_Tables_number	1
_symmetry_cell_setting	triclinic
loop_
_symmetry_equiv_pos_as_xyz
  x,y,z
_cell_length_a	30.700830
_cell_length_b	30.711256
_cell_length_c	30.700862
_cell_angle_alpha	59.996453
_cell_angle_beta	89.996499
_cell_angle_gamma	59.999927
loop_
_atom_site_label
_atom_site_type_symbol
_atom_site_fract_x
_atom_site_fract_y
_atom_site_fract_z
O1	O	0.298799	0.384092	-0.012980
O2	O	0.235460	0.294925	0.012879
O3	O	0.235458	0.384088	-0.076318
O4	O	0.298800	0.294929	0.076216
O5	O	0.307904	0.311667	-0.076317
O6	O	0.307905	0.222504	0.012879
O7	O	0.371245	0.311671	-0.012980
Zn8	Zn	0.351077	0.255589	-0.000050
Zn9	Zn	0.255627	0.351007	-0.000051
O10	O	0.371246	0.222508	0.076217
C11	C	0.371907	0.469499	-0.018876
C12	C	0.345028	0.523239	-0.015179
C13	C	0.424328	0.443423	-0.019246
C14	C	0.371910	0.390645	-0.018869
C15	C	0.345033	0.360074	-0.015165
C16	C	0.424331	0.364689	-0.019240
C17	C	0.450784	0.390649	-0.018876
C18	C	0.508239	0.360084	-0.015179
C19	C	0.345574	0.443418	-0.019240
C20	C	0.031743	0.071080	0.039174
C21	C	0.058198	0.018309	0.039542
C22	C	0.110620	0.071079	0.039177
C23	C	0.136955	0.018307	0.039544
C24	C	0.110619	-0.007769	0.039174
C25	C	0.058199	0.097037	0.039545
C26	C	-0.158465	0.213078	0.024893
C27	C	-0.212331	0.242108	0.020855
C28	C	-0.239353	0.217193	0.018826
C29	C	-0.297760	0.248672	0.014438
C30	C	-0.212505	0.163242	0.020841
C31	C	-0.158641	0.134212	0.024886
C32	C	-0.131622	0.159133	0.026912
C33	C	0.158783	-0.183634	0.024890
C34	C	0.183609	-0.233444	0.020851
C35	C	0.235554	-0.258431	0.018822
C36	C	0.262474	-0.312431	0.014436
C37	C	0.262675	-0.233607	0.020839
C38	C	0.237853	-0.183806	0.024887
C39	C	0.185902	-0.158820	0.026909
C40	C	0.158788	0.213071	0.024902
C41	C	0.183613	0.242104	0.020859
C42	C	0.235560	0.217187	0.018833
C43	C	0.262479	0.248664	0.014447
C44	C	0.262678	0.163241	0.020845
C45	C	0.237850	0.134213	0.024886
C46	C	0.185906	0.159130	0.026919
C47	C	-0.073217	0.127653	0.031294
C48	C	-0.026662	0.102560	0.034788
C49	C	0.137536	0.102557	0.034793
C50	C	0.158992	0.127648	0.031300
C51	C	0.137534	-0.061769	0.034788
C52	C	0.158989	-0.104815	0.031293
C53	C	0.110282	0.535521	-0.503956
C54	C	0.057861	0.588293	-0.530291
C55	C	0.110283	0.535521	-0.425080
C56	C	0.057862	0.588292	-0.451534
C57	C	0.031407	0.614370	-0.503955
C58	C	0.136617	0.509563	-0.451535
C59	C	0.238046	0.393525	-0.552121
C60	C	0.263047	0.364496	-0.576948
C61	C	0.236095	0.389413	-0.628894
C62	C	0.263197	0.357934	-0.655812
C63	C	0.184142	0.443363	-0.656014
C64	C	0.159147	0.472393	-0.631190
C65	C	0.186102	0.447471	-0.579241
C66	C	-0.158801	0.790238	-0.631716
C67	C	-0.212666	0.840049	-0.656717
C68	C	-0.239689	0.865034	-0.629766
C69	C	-0.298094	0.919035	-0.656865
C70	C	-0.212841	0.840210	-0.577813
C71	C	-0.158976	0.790408	-0.552817
C72	C	-0.131959	0.765422	-0.579775
C73	C	0.238047	0.393524	-0.234872
C74	C	0.263046	0.364490	-0.181004
C75	C	0.236094	0.389407	-0.153982
C76	C	0.263196	0.357928	-0.095575
C77	C	0.184143	0.443353	-0.180828
C78	C	0.159146	0.472382	-0.234693
C79	C	0.186105	0.447466	-0.261713
C80	C	0.158993	0.478950	-0.552326
C81	C	0.137387	0.504042	-0.530872
C82	C	0.137387	0.504042	-0.366675
C83	C	0.158994	0.478949	-0.320120
C84	C	-0.026998	0.668371	-0.531059
C85	C	-0.073552	0.711417	-0.552664
O86	O	0.682982	0.222515	0.012866
O87	O	0.530448	0.311680	-0.012993
O88	O	0.619630	0.222522	0.076204
O89	O	0.593800	0.311673	-0.076331
O90	O	0.619627	0.294947	0.076197
O91	O	0.530445	0.384106	-0.012999
O92	O	0.682979	0.294940	0.012859
Zn93	Zn	0.606712	0.351022	-0.000071
Zn94	Zn	0.606715	0.255598	-0.000062
O95	O	0.593797	0.384098	-0.076338
O96	O	0.307899	0.669889	0.012863
O97	O	0.371239	0.543255	-0.012994
O98	O	0.371236	0.543242	0.076202
O99	O	0.307902	0.669901	-0.076333
O100	O	0.298788	0.543247	0.076196
O101	O	0.298792	0.543260	-0.013000
O102	O	0.235451	0.669893	0.012857
Zn103	Zn	0.255619	0.606577	-0.000072
Zn104	Zn	0.351072	0.606571	-0.000064
O105	O	0.235455	0.669906	-0.076338
O106	O	-0.469884	1.063354	-0.692461
O107	O	-0.317352	0.936712	-0.629124
O108	O	-0.406540	0.936708	-0.629115
O109	O	-0.380697	1.063359	-0.692470
O110	O	-0.406542	0.936710	-0.701561
O111	O	-0.317354	0.936714	-0.701571
O112	O	-0.469886	1.063356	-0.764907
Zn113	Zn	-0.393621	1.000035	-0.744741
Zn114	Zn	-0.393618	1.000033	-0.649290
O115	O	-0.380699	1.063360	-0.764916
O116	O	0.298803	0.294926	-0.764575
O117	O	0.235457	0.384089	-0.701236
O118	O	0.235461	0.294924	-0.701228
O119	O	0.298800	0.384091	-0.764583
O120	O	0.307905	0.222504	-0.628782
O121	O	0.307902	0.311669	-0.628790
O122	O	0.371248	0.222506	-0.692129
Zn123	Zn	0.351077	0.255589	-0.648958
Zn124	Zn	0.255628	0.351005	-0.744408
O125	O	0.371245	0.311671	-0.692138
C126	C	0.450791	0.137109	0.234755
C127	C	0.508246	0.083371	0.261632
C128	C	0.424336	0.163186	0.261091
C129	C	0.371914	0.215959	0.155880
C130	C	0.345035	0.246527	0.098424
C131	C	0.345580	0.241916	0.182336
C132	C	0.371915	0.215958	0.234757
C133	C	0.345037	0.246525	0.261636
C134	C	0.424336	0.163187	0.182334
C135	C	0.625476	0.215999	0.234731
C136	C	0.621772	0.246572	0.261605
C137	C	0.625838	0.163230	0.261069
C138	C	0.625493	0.215987	0.155862
C139	C	0.621807	0.246546	0.098407
C140	C	0.625855	0.163217	0.182319
C141	C	0.625475	0.137148	0.234738
C142	C	0.621769	0.083412	0.261618
C143	C	0.625857	0.241949	0.182312
C144	C	0.371894	0.390626	0.234737
C145	C	0.345013	0.360058	0.261613
C146	C	0.424315	0.364664	0.261074
C147	C	0.371899	0.469481	0.155863
C148	C	0.345023	0.523225	0.098407
C149	C	0.424319	0.443399	0.182320
C150	C	0.450772	0.390623	0.234741
C151	C	0.508227	0.360052	0.261622
C152	C	0.345562	0.443403	0.182316
C153	C	0.567583	0.613983	-0.503964
C154	C	0.567223	0.587898	-0.530294
C155	C	0.567568	0.535141	-0.425087
C156	C	0.567208	0.509176	-0.451537
C157	C	0.567589	0.535126	-0.503956
C158	C	0.567203	0.587912	-0.451545
C159	C	0.581864	0.789858	-0.552141
C160	C	0.585904	0.839668	-0.576969
C161	C	0.587943	0.864647	-0.628914
C162	C	0.592334	0.918648	-0.655834
C163	C	0.585936	0.839815	-0.656029
C164	C	0.581889	0.790014	-0.631203
C165	C	0.579852	0.765035	-0.579256
C166	C	0.581907	0.472673	-0.631700
C167	C	0.585953	0.443812	-0.656696
C168	C	0.587979	0.389857	-0.629742
C169	C	0.592374	0.358554	-0.656836
C170	C	0.585952	0.364768	-0.577791
C171	C	0.581897	0.393634	-0.552800
C172	C	0.579878	0.447589	-0.579760
C173	C	0.581803	0.472746	-0.234887
C174	C	0.585836	0.443894	-0.181021
C175	C	0.587859	0.389939	-0.153997
C176	C	0.592234	0.358652	-0.095591
C177	C	0.585855	0.364835	-0.180838
C178	C	0.581825	0.393687	-0.234702
C179	C	0.579794	0.447647	-0.261724
C180	C	0.575468	0.711029	-0.552338
C181	C	0.571972	0.667983	-0.530882
C182	C	0.571941	0.503858	-0.366684
C183	C	0.575424	0.478924	-0.320130
C184	C	0.571984	0.503828	-0.531054
C185	C	0.575485	0.478882	-0.552655
O186	O	0.593717	0.311733	0.371167
O187	O	0.619578	0.222560	0.307837
O188	O	0.530383	0.311734	0.307818
O189	O	0.682911	0.222559	0.371186
O190	O	0.530400	0.384146	0.235373
O191	O	0.619594	0.294972	0.235392
O192	O	0.593733	0.384146	0.298722
Zn193	Zn	0.606667	0.351056	0.255555
Zn194	Zn	0.606644	0.255649	0.351004
O195	O	0.682928	0.294972	0.298741
C196	C	0.031769	1.071141	-0.503978
C197	C	0.058226	1.097099	-0.530310
C198	C	0.110641	0.992283	-0.425100
C199	C	0.136978	1.018361	-0.451552
C200	C	0.110646	1.071137	-0.503973
C201	C	0.058220	1.018364	-0.451557
C202	C	-0.158441	1.133577	-0.552152
C203	C	-0.212306	1.162435	-0.576981
C204	C	-0.239324	1.216395	-0.628927
C205	C	-0.297731	1.247694	-0.655847
C206	C	-0.212473	1.241492	-0.656045
C207	C	-0.158611	1.212629	-0.631219
C208	C	-0.131595	1.158669	-0.579270
C209	C	0.158822	1.213138	-0.631728
C210	C	0.183651	1.242168	-0.656727
C211	C	0.235595	1.217251	-0.629774
C212	C	0.262518	1.248725	-0.656871
C213	C	0.262712	1.163295	-0.577821
C214	C	0.237888	1.134261	-0.552827
C215	C	0.185937	1.159192	-0.579786
C216	C	0.158794	0.816397	-0.234892
C217	C	0.183615	0.766586	-0.181024
C218	C	0.235562	0.741595	-0.154000
C219	C	0.262476	0.687588	-0.095593
C220	C	0.262682	0.766420	-0.180844
C221	C	0.237859	0.816232	-0.234710
C222	C	0.185915	0.841213	-0.261732
C223	C	-0.073190	1.127379	-0.552352
C224	C	-0.026636	1.102436	-0.530896
C225	C	0.137553	0.938276	-0.366694
C226	C	0.159005	0.895225	-0.320139
C227	C	0.137565	1.102616	-0.531074
C228	C	0.159021	1.127708	-0.552678
H229	H	0.180026	-0.003515	0.040137
Br230	Br	0.273778	0.479779	0.146908
H231	H	0.626442	0.284421	0.161069
Br232	Br	0.459711	0.293886	0.332863
Br233	Br	0.022801	-0.018071	0.040534
Br234	Br	0.566223	0.438396	-0.416133
H235	H	0.259945	0.836441	-0.256563
Br236	Br	0.459711	0.479799	0.146938
Br237	Br	0.459735	0.126820	0.146929
Br238	Br	0.273791	0.312687	0.146941
H239	H	0.626451	0.141392	0.161080
Br240	Br	0.588688	0.291552	-0.541212
Br241	Br	-0.249098	0.873732	-0.727218
H242	H	-0.234843	0.860559	-0.555872
H243	H	0.626426	0.141411	0.304140
H244	H	-0.136752	1.233065	-0.653302
Br245	Br	0.459740	0.126821	0.332873
H246	H	0.566634	0.609723	-0.573366
H247	H	0.566605	0.609743	-0.430311
Br248	Br	0.022818	0.981988	-0.416158
H249	H	0.587471	0.464336	-0.159169
Br250	Br	0.579050	0.545974	-0.271560
Br251	Br	0.579098	0.755964	-0.481645
H252	H	0.587547	0.859875	-0.554885
Br253	Br	-0.122542	0.756725	-0.482317
H254	H	0.161528	0.746378	-0.159171
H255	H	0.304973	-0.253958	0.019195
Br256	Br	0.459735	0.293909	-0.020221
H257	H	0.304982	0.746067	-0.158839
H258	H	0.445564	0.465252	-0.019842
H259	H	0.302504	0.465241	-0.019828
Br260	Br	0.588701	0.873716	-0.726522
H261	H	0.580253	0.769801	-0.653284
H262	H	0.580260	0.516606	-0.653656
H263	H	0.580246	0.373204	-0.510503
H264	H	0.587605	0.464243	-0.698993
H265	H	0.580196	0.373241	-0.256552
H266	H	0.116846	0.516306	-0.256548
Br267	Br	0.022800	0.167814	0.040530
Br268	Br	0.088299	0.850302	-0.271564
H269	H	0.587506	0.320899	-0.158831
Br270	Br	0.208764	0.981984	-0.416149
H271	H	0.036984	1.139573	-0.573380
H272	H	0.036622	0.610110	-0.430290
Br273	Br	0.146807	0.315317	0.018124
Br274	Br	-0.121781	1.060348	-0.481652
Br275	Br	-0.248742	1.128376	-0.540177
H276	H	-0.234475	1.285425	-0.698340
Br277	Br	0.088647	0.545608	-0.667996
H278	H	0.116525	1.233439	-0.653684
Br279	Br	0.146848	1.315388	-0.727228
H280	H	0.305342	0.320560	-0.159147
Br281	Br	0.333211	1.129469	-0.541242
H282	H	0.259971	1.090330	-0.510529
H283	H	0.116491	0.233365	0.026556
Br284	Br	-0.121800	0.246899	0.027645
H285	H	-0.234186	0.286034	0.019214
H286	H	-0.136785	0.090286	0.026529
Br287	Br	-0.249175	0.129427	0.018095
Br288	Br	0.088279	-0.149720	0.027626
H289	H	0.161523	-0.253650	0.019208
H290	H	0.259937	0.090284	0.026531
Br291	Br	0.274660	-0.150125	0.027629
H292	H	0.304977	0.142952	0.019195
H293	H	0.036625	0.610117	-0.573363
Br294	Br	0.208406	0.438792	-0.416136
H295	H	0.259999	0.373229	-0.509824
Br296	Br	0.333549	0.291282	-0.540142
Br297	Br	0.147569	0.477180	-0.726511
Br298	Br	0.274632	0.359708	-0.271541
H299	H	0.162196	0.463638	-0.158822
Br300	Br	-0.122137	0.756331	-0.668299
