data_functionalizedCrystal
_audit_creation_method	'MofGen! by Chris Wilmer'
_symmetry_space_group_name_H-M	'P1'
_symmetry_Int_Tables_number	1
_symmetry_cell_setting	triclinic
loop_
_symmetry_equiv_pos_as_xyz
  x,y,z
_cell_length_a	12.759400
_cell_length_b	18.215407
_cell_length_c	12.759393
_cell_angle_alpha	90.022461
_cell_angle_beta	89.975615
_cell_angle_gamma	89.997032
loop_
_atom_site_label
_atom_site_type_symbol
_atom_site_fract_x
_atom_site_fract_y
_atom_site_fract_z
Zn1	Zn	-0.418216	-1.125197	-0.594142
Zn2	Zn	-0.593932	-1.125149	-0.418481
Zn3	Zn	-0.418268	-1.002126	-0.418469
Zn4	Zn	-0.593854	-1.002143	-0.594110
O5	O	-0.506067	-1.063654	-0.506300
O6	O	-0.441537	-1.228175	-0.570858
O7	O	-0.570684	-1.108802	-0.271458
O8	O	-0.271240	-1.018465	-0.441780
O9	O	-0.570635	-1.228139	-0.441801
O10	O	-0.271202	-1.108885	-0.570846
O11	O	-0.441624	-1.018418	-0.271449
O12	O	-0.441548	-0.899144	-0.441749
O13	O	-0.570500	-1.018493	-0.741135
O14	O	-0.570550	-0.899156	-0.570792
O15	O	-0.441461	-1.108901	-0.741159
O16	O	-0.740943	-1.108818	-0.441770
O17	O	-0.740885	-1.018446	-0.570804
C18	C	-0.506047	-0.872447	-0.506266
C19	C	-0.506064	-0.790648	-0.506277
C20	C	-0.232034	-1.063678	-0.506315
C21	C	-0.115258	-1.063689	-0.506322
C22	C	-0.779035	-1.063649	-0.506308
C23	C	-0.895811	-1.063714	-0.506346
C24	C	-0.505966	-1.063705	-0.780334
C25	C	-0.505923	-1.063726	-0.897110
C26	C	-0.060413	-1.016621	-0.439128
C27	C	0.049311	-1.016632	-0.439142
C28	C	0.049337	-1.110784	-0.573548
C29	C	-0.060385	-1.110769	-0.573538
C30	C	-0.060428	-0.962265	-0.361526
C31	C	0.049296	-0.962276	-0.361540
C32	C	-0.573338	-0.602480	-0.573382
C33	C	-0.573340	-0.525621	-0.573393
C34	C	-0.438803	-0.525579	-0.439223
C35	C	-0.438796	-0.602436	-0.439217
C36	C	-0.506070	-0.640885	-0.506295
C37	C	-0.506079	-0.487169	-0.506312
C38	C	-0.506081	-0.403835	-0.506324
C39	C	-0.506067	-0.724224	-0.506285
C40	C	-0.506085	-0.255606	-0.506330
C41	C	-0.506085	-0.337405	-0.506330
C42	C	-0.438675	-1.110824	-1.061711
C43	C	-0.438719	-1.110807	-0.951987
C44	C	-0.573095	-1.016666	-0.951964
C45	C	-0.573056	-1.016688	-1.061686
C46	C	-0.361091	-1.165174	-1.061724
C47	C	-0.361134	-1.165156	-0.952000
C48	C	-0.506093	-1.063645	-0.233333
C49	C	-0.505840	-1.063766	-0.116557
H50	H	-0.105035	-1.149093	-0.628260
C51	C	-0.400541	-1.238280	-0.906024
H52	H	-0.399242	-1.235768	-0.831663
H53	H	-0.356484	-1.277124	-0.929014
H54	H	-0.470233	-1.247048	-0.929017
H55	H	-0.627758	-0.978375	-1.106337
C56	C	-0.251233	-1.144531	-0.911761
H57	H	-0.251265	-1.144528	-0.837303
H58	H	-0.233044	-1.097044	-0.936560
H59	H	-0.201590	-1.179311	-0.936584
C60	C	0.109700	-1.162572	-0.647473
H61	H	0.182901	-1.155843	-0.637853
H62	H	0.091741	-1.151814	-0.718060
H63	H	0.091705	-1.212017	-0.632097
C64	C	-0.100636	-0.885272	-0.390952
H65	H	-0.042714	-0.853618	-0.403071
H66	H	-0.142012	-0.866319	-0.335257
H67	H	-0.141975	-0.888382	-0.452700
C68	C	0.089493	-0.982890	-0.251633
H69	H	0.031567	-0.991368	-0.206426
H70	H	0.130850	-0.943882	-0.224592
H71	H	0.130850	-1.026150	-0.256081
H72	H	0.083346	-0.908139	-0.390675
C73	C	-0.106451	-0.989817	-0.257114
H74	H	-0.051020	-1.002093	-0.210623
H75	H	-0.148362	-1.032021	-0.269603
H76	H	-0.148355	-0.952325	-0.226693
H77	H	-0.628116	-0.494356	-0.628023
C78	C	-0.647326	-0.644771	-0.647173
H79	H	-0.687381	-0.610888	-0.687136
H80	H	-0.693056	-0.674743	-0.606916
H81	H	-0.607176	-0.674765	-0.693014
C82	C	-0.364820	-0.483283	-0.365432
H83	H	-0.374465	-0.432009	-0.375033
H84	H	-0.294244	-0.495881	-0.380911
H85	H	-0.380126	-0.495860	-0.294814
C86	C	-0.364797	-0.644688	-0.365422
H87	H	-0.374421	-0.695967	-0.375036
H88	H	-0.380087	-0.632074	-0.294806
H89	H	-0.294222	-0.632096	-0.380920
C90	C	-0.647020	-0.964880	-0.891602
H91	H	-0.637421	-0.971603	-0.818400
H92	H	-0.717605	-0.975645	-0.909583
H93	H	-0.631624	-0.915435	-0.909575
H94	H	-0.382875	-1.222176	-1.091507
H95	H	-0.283785	-1.144767	-1.095759
