data_functionalizedCrystal
_audit_creation_method	'MofGen! by Chris Wilmer'
_symmetry_space_group_name_H-M	'P1'
_symmetry_Int_Tables_number	1
_symmetry_cell_setting	triclinic
loop_
_symmetry_equiv_pos_as_xyz
  x,y,z
_cell_length_a	25.639242
_cell_length_b	18.215405
_cell_length_c	18.215399
_cell_angle_alpha	90.032960
_cell_angle_beta	89.974553
_cell_angle_gamma	89.979588
loop_
_atom_site_label
_atom_site_type_symbol
_atom_site_fract_x
_atom_site_fract_y
_atom_site_fract_z
Zn1	Zn	0.799292	0.293062	-0.416272
Zn2	Zn	1.132626	0.626395	-0.082939
Zn3	Zn	1.465959	0.959729	0.250395
Zn4	Zn	0.799232	0.416139	-0.293200
Zn5	Zn	1.132565	0.749472	0.040133
Zn6	Zn	1.465898	1.082805	0.373467
Zn7	Zn	0.711863	0.293081	-0.293201
Zn8	Zn	1.045197	0.626414	0.040133
Zn9	Zn	1.378530	0.959747	0.373466
Zn10	Zn	0.711835	0.416082	-0.416206
Zn11	Zn	1.045168	0.749415	-0.082873
Zn12	Zn	1.378501	1.082748	0.250460
O13	O	0.755555	0.354591	-0.354720
O14	O	1.088889	0.687924	-0.021386
O15	O	1.422222	1.021257	0.311947
O16	O	0.872449	0.309404	-0.399973
O17	O	1.205783	0.642738	-0.066640
O18	O	1.539116	0.976071	0.266693
O19	O	0.787629	0.399846	-0.190216
O20	O	1.120962	0.733180	0.143118
O21	O	1.454296	1.066513	0.476451
O22	O	0.723498	0.190094	-0.309554
O23	O	1.056832	0.523427	0.023779
O24	O	1.390165	0.856761	0.357113
O25	O	0.872405	0.399828	-0.309553
O26	O	1.205738	0.733161	0.023781
O27	O	1.539072	1.066495	0.357114
O28	O	0.787732	0.190080	-0.399974
O29	O	1.121065	0.523414	-0.066641
O30	O	1.454399	0.856747	0.266693
O31	O	0.723440	0.309436	-0.190216
O32	O	1.056773	0.642770	0.143117
O33	O	1.390106	0.976103	0.476450
O34	O	0.638694	0.309381	-0.309491
O35	O	0.972028	0.642715	0.023843
O36	O	1.305361	0.976048	0.357176
O37	O	0.723449	0.399731	-0.519199
O38	O	1.056783	0.733065	-0.185866
O39	O	1.390116	1.066398	0.147467
O40	O	0.638673	0.399750	-0.399862
O41	O	0.972007	0.733083	-0.066529
O42	O	1.305340	1.066416	0.266804
O43	O	0.787704	0.309349	-0.519247
O44	O	1.121037	0.642683	-0.185914
O45	O	1.454371	0.976016	0.147419
O46	O	0.787601	0.519115	-0.309489
O47	O	1.120934	0.852449	0.023844
O48	O	1.454268	1.185782	0.357177
O49	O	0.723391	0.519074	-0.399862
O50	O	1.056724	0.852407	-0.066528
O51	O	1.390057	1.185740	0.266805
C52	C	0.755500	0.545797	-0.354684
C53	C	1.088834	0.879130	-0.021351
C54	C	1.422167	1.212464	0.311982
C55	C	0.755525	0.627596	-0.354694
C56	C	1.088858	0.960929	-0.021360
C57	C	1.422191	1.294263	0.311973
C58	C	0.619713	0.354562	-0.354670
C59	C	0.953046	0.687895	-0.021336
C60	C	1.286380	1.021228	0.311997
C61	C	0.561599	0.354567	-0.354666
C62	C	0.894932	0.687900	-0.021333
C63	C	1.228266	1.021234	0.312001
C64	C	0.755580	0.354532	-0.546673
C65	C	1.088914	0.687865	-0.213339
C66	C	1.422247	1.021199	0.119994
C67	C	0.755591	0.354507	-0.628472
C68	C	1.088924	0.687840	-0.295138
C69	C	1.422257	1.021174	0.038195
C70	C	0.201234	0.401724	-0.401732
C71	C	0.534567	0.735058	-0.068398
C72	C	0.867900	1.068391	0.264935
C73	C	0.146629	0.401729	-0.401743
C74	C	0.479963	0.735062	-0.068410
C75	C	0.813296	1.068395	0.264923
O76	O	0.118391	0.441787	-0.441718
O77	O	0.451724	0.775121	-0.108385
O78	O	0.785057	1.108454	0.224949
N79	N	0.119316	0.354611	-0.354768
N80	N	0.452650	0.687944	-0.021434
N81	N	0.785983	1.021278	0.311899
C82	C	0.146611	0.307481	-0.307783
C83	C	0.479944	0.640814	0.025551
C84	C	0.813277	0.974147	0.358884
O85	O	0.118365	0.267403	-0.267828
O86	O	0.451698	0.600736	0.065505
O87	O	0.785031	0.934070	0.398839
C88	C	0.201214	0.307473	-0.307775
C89	C	0.534547	0.640806	0.025558
C90	C	0.867881	0.974140	0.358891
C91	C	0.228524	0.354599	-0.354749
C92	C	0.561857	0.687932	-0.021415
C93	C	0.895191	1.021266	0.311918
C94	C	0.228544	0.448846	-0.448702
C95	C	0.561877	0.782179	-0.115368
C96	C	0.895211	1.115513	0.217965
C97	C	0.283144	0.448842	-0.448689
C98	C	0.616478	0.782176	-0.115356
C99	C	0.949811	1.115509	0.217978
C100	C	0.310435	0.401717	-0.401706
C101	C	0.643768	0.735050	-0.068373
C102	C	0.977101	1.068383	0.264961
C103	C	0.283125	0.354595	-0.354736
C104	C	0.616458	0.687929	-0.021403
C105	C	0.949791	1.021262	0.311931
C106	C	0.228507	0.260339	-0.260795
C107	C	0.561840	0.593672	0.072539
C108	C	0.895174	0.927006	0.405872
C109	C	0.283114	0.260335	-0.260792
C110	C	0.616447	0.593668	0.072542
C111	C	0.949781	0.927002	0.405875
C112	C	0.310424	0.307461	-0.307765
C113	C	0.643758	0.640795	0.025568
C114	C	0.977091	0.974128	0.358901
C115	C	0.365016	0.307466	-0.307740
C116	C	0.698349	0.640799	0.025593
C117	C	1.031682	0.974133	0.358926
N118	N	0.392328	0.354584	-0.354716
N119	N	0.725662	0.687917	-0.021383
N120	N	1.058995	1.021250	0.311951
C121	C	0.365038	0.401709	-0.401699
C122	C	0.698371	0.735042	-0.068365
C123	C	1.031705	1.068376	0.264968
C124	C	0.031940	0.307499	-0.307803
C125	C	0.365273	0.640833	0.025531
C126	C	0.698607	0.974166	0.358864
C127	C	-0.022662	0.307510	-0.307806
C128	C	0.310671	0.640843	0.025528
C129	C	0.644004	0.974177	0.358861
C130	C	-0.022640	0.401758	-0.401767
C131	C	0.310694	0.735091	-0.068434
C132	C	0.644027	1.068424	0.264899
C133	C	0.031964	0.401750	-0.401760
C134	C	0.365297	0.735083	-0.068427
C135	C	0.698630	1.068417	0.264907
C136	C	0.059253	0.354617	-0.354778
C137	C	0.392586	0.687950	-0.021445
C138	C	0.725920	1.021284	0.311888
C139	C	0.479703	0.401698	-0.401668
C140	C	0.813037	0.735032	-0.068335
C141	C	1.146370	1.068365	0.264999
C142	C	0.534309	0.401692	-0.401649
C143	C	0.867642	0.735026	-0.068315
C144	C	1.200975	1.068359	0.265018
C145	C	0.534281	0.307443	-0.307690
C146	C	0.867615	0.640776	0.025643
C147	C	1.200948	0.974109	0.358976
C148	C	0.479681	0.307451	-0.307706
C149	C	0.813014	0.640784	0.025627
C150	C	1.146347	0.974117	0.358960
C151	C	0.452393	0.354581	-0.354701
C152	C	0.785726	0.687914	-0.021368
C153	C	1.119060	1.021248	0.311966
O154	O	0.393289	0.267426	-0.267788
O155	O	0.726622	0.600759	0.065545
O156	O	1.059955	0.934092	0.398879
O157	O	0.393291	0.441773	-0.441654
O158	O	0.726624	0.775106	-0.108320
O159	O	1.059957	1.108440	0.225013
C160	C	0.891928	0.354620	-0.354770
C161	C	1.225262	0.687954	-0.021437
C162	C	1.558595	1.021287	0.311896
C163	C	0.950043	0.354633	-0.354792
C164	C	1.283376	0.687966	-0.021458
C165	C	1.616709	1.021300	0.311875
C166	C	0.755625	0.162638	-0.354771
C167	C	1.088959	0.495971	-0.021438
C168	C	1.422292	0.829305	0.311895
C169	C	0.755655	0.080839	-0.354793
C170	C	1.088988	0.414172	-0.021460
C171	C	1.422322	0.747506	0.311873
C172	C	0.789037	0.815787	-0.307724
C173	C	1.122371	1.149120	0.025610
C174	C	1.455704	1.482454	0.358943
C175	C	0.789061	0.892646	-0.307741
C176	C	1.122394	1.225979	0.025592
C177	C	1.455727	1.559313	0.358925
C178	C	0.722141	0.892642	-0.401769
C179	C	1.055474	1.225976	-0.068435
C180	C	1.388807	1.559309	0.264898
C181	C	0.722120	0.815785	-0.401754
C182	C	1.055454	1.149118	-0.068421
C183	C	1.388787	1.482452	0.264913
C184	C	0.755568	0.777359	-0.354727
C185	C	1.088901	1.110693	-0.021394
C186	C	1.422234	1.444026	0.311939
C187	C	0.755612	0.931075	-0.354760
C188	C	1.088945	1.264409	-0.021426
C189	C	1.422278	1.597742	0.311907
C190	C	0.755637	1.014409	-0.354779
C191	C	1.088970	1.347742	-0.021446
C192	C	1.422303	1.681076	0.311887
C193	C	0.755544	0.694020	-0.354708
C194	C	1.088877	1.027354	-0.021375
C195	C	1.422210	1.360687	0.311958
C196	C	0.722196	0.307399	-0.816667
C197	C	1.055529	0.640732	-0.483334
C198	C	1.388862	0.974065	-0.150000
C199	C	0.722205	0.307384	-0.893526
C200	C	1.055538	0.640717	-0.560192
C201	C	1.388871	0.974051	-0.226859
C202	C	0.789048	0.401527	-0.893514
C203	C	1.122382	0.734861	-0.560181
C204	C	1.455715	1.068194	-0.226848
C205	C	0.789036	0.401545	-0.816657
C206	C	1.122369	0.734879	-0.483324
C207	C	1.455703	1.068212	-0.149990
C208	C	0.755611	0.354477	-0.778235
C209	C	1.088944	0.687810	-0.444902
C210	C	1.422277	1.021144	-0.111569
C211	C	0.755632	0.354444	-0.931951
C212	C	1.088965	0.687777	-0.598618
C213	C	1.422299	1.021111	-0.265285
C214	C	0.755642	0.354428	-1.015285
C215	C	1.088975	0.687762	-0.681952
C216	C	1.422309	1.021095	-0.348618
C217	C	0.755600	0.354493	-0.694896
C218	C	1.088933	0.687827	-0.361563
C219	C	1.422266	1.021160	-0.028230
C220	C	0.755561	0.354596	-0.163513
C221	C	1.088894	0.687930	0.169820
C222	C	1.422228	1.021263	0.503153
C223	C	0.755652	0.354414	-0.081715
C224	C	1.088985	0.687747	0.251618
C225	C	1.422318	1.021081	0.584952
H226	H	0.556542	0.440071	-0.439901
H227	H	0.889875	0.773404	-0.106567
H228	H	1.223209	1.106738	0.226766
H229	H	-0.044894	0.269143	-0.269548
H230	H	0.288440	0.602476	0.063785
H231	H	0.621773	0.935809	0.397119
H232	H	0.694978	0.269073	-0.785386
H233	H	1.028312	0.602406	-0.452053
H234	H	1.361645	0.935739	-0.118719
H235	H	0.305330	0.221949	-0.222537
H236	H	0.638664	0.555282	0.110796
H237	H	0.971997	0.888615	0.444130
H238	H	0.694908	0.923938	-0.440055
H239	H	1.028241	1.257271	-0.106722
H240	H	1.361575	1.590605	0.226611
H241	H	0.694995	0.269049	-0.924813
H242	H	1.028328	0.602382	-0.591480
H243	H	1.361661	0.935715	-0.258147
H244	H	0.816316	0.923930	-0.269467
H245	H	1.149649	1.257264	0.063866
H246	H	1.482982	1.590597	0.397199
H247	H	0.816248	0.439885	-0.785365
H248	H	1.149581	0.773218	-0.452032
H249	H	1.482915	1.106552	-0.118698
H250	H	0.054196	0.440123	-0.440011
H251	H	0.387529	0.773456	-0.106678
H252	H	0.720863	1.106790	0.226656
H253	H	0.694865	0.784495	-0.440034
H254	H	1.028199	1.117828	-0.106700
H255	H	1.361532	1.451162	0.226633
H256	H	0.054156	0.269119	-0.269539
H257	H	0.387489	0.602452	0.063794
H258	H	0.720822	0.935785	0.397128
H259	H	0.457492	0.440074	-0.439937
H260	H	0.790825	0.773408	-0.106604
H261	H	1.124159	1.106741	0.226729
H262	H	0.816262	0.439848	-0.924807
H263	H	1.149596	0.773182	-0.591473
H264	H	1.482929	1.106515	-0.258140
H265	H	0.206330	0.487221	-0.486965
H266	H	0.539663	0.820555	-0.153632
H267	H	0.872997	1.153888	0.179702
H268	H	0.206281	0.221966	-0.222542
H269	H	0.539614	0.555299	0.110791
H270	H	0.872947	0.888633	0.444125
H271	H	0.556511	0.269077	-0.269436
H272	H	0.889844	0.602410	0.063898
H273	H	1.223178	0.935743	0.397231
H274	H	0.305376	0.487216	-0.486941
H275	H	0.638709	0.820549	-0.153608
H276	H	0.972042	1.153882	0.179726
H277	H	-0.044870	0.440127	-0.440026
H278	H	0.288464	0.773461	-0.106693
H279	H	0.621797	1.106794	0.226641
H280	H	0.816273	0.784503	-0.269433
H281	H	1.149606	1.117836	0.063901
H282	H	1.482940	1.451169	0.397234
H283	H	0.457444	0.269078	-0.269455
H284	H	0.790777	0.602412	0.063878
H285	H	1.124110	0.935745	0.397211
