data_functionalizedCrystal
_audit_creation_method	'MofGen! by Chris Wilmer'
_symmetry_space_group_name_H-M	'P1'
_symmetry_Int_Tables_number	1
_symmetry_cell_setting	triclinic
loop_
_symmetry_equiv_pos_as_xyz
  x,y,z
_cell_length_a	17.699083
_cell_length_b	12.503572
_cell_length_c	17.699083
_cell_angle_alpha	93.515225
_cell_angle_beta	96.716985
_cell_angle_gamma	93.505083
loop_
_atom_site_label
_atom_site_type_symbol
_atom_site_fract_x
_atom_site_fract_y
_atom_site_fract_z
O1	O	1.008441	0.089171	-0.091332
O2	O	1.341774	0.422505	0.242001
O3	O	1.675108	0.755838	0.575335
O4	O	0.788064	0.089207	-0.103783
O5	O	1.121398	0.422540	0.229551
O6	O	1.454731	0.755874	0.562884
O7	O	0.904478	0.089179	0.012631
O8	O	1.237812	0.422512	0.345965
O9	O	1.571145	0.755845	0.679298
O10	O	0.892027	0.089200	-0.207746
O11	O	1.225360	0.422533	0.125587
O12	O	1.558694	0.755866	0.458921
O13	O	0.895723	-0.089461	0.003862
O14	O	1.229057	0.243872	0.337195
O15	O	1.562390	0.577206	0.670529
O16	O	0.779309	-0.089433	-0.112552
O17	O	1.112643	0.243900	0.220781
O18	O	1.445976	0.577234	0.554114
O19	O	0.999686	-0.089468	-0.100101
O20	O	1.333019	0.243865	0.233232
O21	O	1.666353	0.577198	0.566565
Cu22	Cu	0.888698	-0.105762	-0.107128
Cu23	Cu	1.222032	0.227571	0.226206
Cu24	Cu	1.555365	0.560905	0.559539
Cu25	Cu	0.899052	0.105500	-0.096757
Cu26	Cu	1.232385	0.438834	0.236577
Cu27	Cu	1.565719	0.772167	0.569910
O28	O	0.883272	-0.089440	-0.216516
O29	O	1.216605	0.243893	0.116818
O30	O	1.549939	0.577226	0.450151
C31	C	0.755490	-0.000109	-0.107721
C32	C	1.088823	0.333225	0.225612
C33	C	1.422157	0.666558	0.558946
C34	C	0.671473	-0.000095	-0.106382
C35	C	1.004806	0.333238	0.226952
C36	C	1.338139	0.666571	0.560285
N37	N	0.881421	-0.254352	-0.114421
N38	N	1.214755	0.078981	0.218912
N39	N	1.548088	0.412314	0.552245
C40	C	0.622852	-0.000089	-0.174715
C41	C	0.956185	0.333244	0.158618
C42	C	1.289519	0.666577	0.491952
C43	C	0.543908	-0.000103	-0.173453
C44	C	0.877241	0.333230	0.159880
C45	C	1.210575	0.666563	0.493213
C46	C	0.513587	-0.000116	-0.103857
C47	C	0.846920	0.333218	0.229476
C48	C	1.180253	0.666551	0.562809
C49	C	0.562213	-0.000125	-0.035519
C50	C	0.895547	0.333208	0.297814
C51	C	1.228880	0.666542	0.631147
C52	C	0.641155	-0.000119	-0.036782
C53	C	0.974489	0.333215	0.296551
C54	C	1.307822	0.666548	0.629885
C55	C	0.243849	-0.000152	-0.030425
C56	C	0.577182	0.333181	0.302908
C57	C	0.910516	0.666515	0.636241
C58	C	0.164901	-0.000155	-0.029168
C59	C	0.498234	0.333178	0.304166
C60	C	0.831567	0.666511	0.637499
C61	C	0.146602	-0.000137	-0.167097
C62	C	0.479935	0.333197	0.166237
C63	C	0.813268	0.666530	0.499570
C64	C	0.225544	-0.000130	-0.168359
C65	C	0.558877	0.333203	0.164974
C66	C	0.892210	0.666536	0.498307
C67	C	0.274163	-0.000145	-0.100022
C68	C	0.607496	0.333188	0.233311
C69	C	0.940830	0.666521	0.566645
C70	C	0.359763	-0.000132	-0.101391
C71	C	0.693096	0.333201	0.231943
C72	C	1.026430	0.666535	0.565276
C73	C	0.427989	-0.000121	-0.102487
C74	C	0.761322	0.333212	0.230846
C75	C	1.094655	0.666545	0.564179
C76	C	0.870717	-0.473465	-0.125157
C77	C	1.204050	-0.140132	0.208176
C78	C	1.537384	0.193202	0.541509
C79	C	0.917037	-0.526803	-0.078723
C80	C	1.250370	-0.193470	0.254610
C81	C	1.583704	0.139863	0.587943
C82	C	0.911081	-0.648725	-0.084697
C83	C	1.244414	-0.315392	0.248636
C84	C	1.577748	0.017941	0.581970
C85	C	0.876672	-0.351532	-0.119185
C86	C	1.210005	-0.018199	0.214149
C87	C	1.543339	0.315134	0.547482
C88	C	1.032260	-0.000151	-0.096163
C89	C	1.365594	0.333183	0.237170
C90	C	1.698927	0.666516	0.570504
C91	C	1.116278	-0.000157	-0.097502
C92	C	1.449612	0.333177	0.235831
C93	C	1.782945	0.666510	0.569165
C94	C	0.899655	-0.000141	0.036444
C95	C	1.232988	0.333192	0.369777
C96	C	1.566321	0.666525	0.703110
C97	C	0.898316	-0.000142	0.120462
C98	C	1.231649	0.333192	0.453795
C99	C	1.564983	0.666525	0.787128
N100	N	0.906335	0.254091	-0.089457
N101	N	1.239668	0.587424	0.243877
N102	N	1.573002	0.920758	0.577210
C103	C	0.888096	-0.000118	-0.240328
C104	C	1.221429	0.333215	0.093006
C105	C	1.554762	0.666549	0.426339
C106	C	0.889435	-0.000111	-0.324345
C107	C	1.222768	0.333223	0.008988
C108	C	1.556101	0.666556	0.342321
C109	C	0.966649	-0.000154	0.169082
C110	C	1.299982	0.333179	0.502415
C111	C	1.633316	0.666513	0.835749
C112	C	0.965387	-0.000144	0.248026
C113	C	1.298720	0.333189	0.581359
C114	C	1.632054	0.666522	0.914692
C115	C	0.895791	-0.000130	0.278347
C116	C	1.229125	0.333204	0.611681
C117	C	1.562458	0.666537	0.945014
C118	C	0.827453	-0.000114	0.229721
C119	C	1.160787	0.333219	0.563054
C120	C	1.494120	0.666553	0.896388
C121	C	0.828716	-0.000116	0.150779
C122	C	1.162050	0.333217	0.484112
C123	C	1.495383	0.666551	0.817446
C124	C	0.822359	-0.000105	0.548084
C125	C	1.155692	0.333229	0.881418
C126	C	1.489025	0.666562	1.214751
C127	C	0.821101	-0.000106	0.627032
C128	C	1.154434	0.333228	0.960366
C129	C	1.487767	0.666561	1.293699
C130	C	0.959029	-0.000133	0.645331
C131	C	1.292363	0.333201	0.978665
C132	C	1.625696	0.666534	1.311998
C133	C	0.960292	-0.000135	0.566389
C134	C	1.293626	0.333199	0.899723
C135	C	1.626959	0.666532	1.233056
C136	C	0.891955	-0.000113	0.517770
C137	C	1.225288	0.333220	0.851103
C138	C	1.558622	0.666553	1.184437
C139	C	0.893324	-0.000122	0.432171
C140	C	1.226658	0.333211	0.765504
C141	C	1.559991	0.666545	1.098837
C142	C	0.894421	-0.000129	0.363945
C143	C	1.227754	0.333204	0.697278
C144	C	1.561088	0.666538	1.030612
H145	H	0.647533	-0.000078	-0.231388
H146	H	0.980866	0.333255	0.101945
H147	H	1.314200	0.666588	0.435279
C148	C	1.043205	-0.000170	0.135735
C149	C	1.376539	0.333163	0.469069
C150	C	1.709872	0.666497	0.802402
H151	H	1.083721	-0.000166	0.176002
H152	H	1.417054	0.333167	0.509335
H153	H	1.750388	0.666501	0.842668
H154	H	1.043514	-0.062466	0.102265
H155	H	1.376848	0.270867	0.435599
H156	H	1.710181	0.604201	0.768932
H157	H	1.049618	0.062133	0.108377
H158	H	1.382951	0.395467	0.441711
H159	H	1.716284	0.728800	0.775044
H160	H	1.021031	-0.000157	0.287610
H161	H	1.354364	0.333176	0.620943
H162	H	1.687697	0.666510	0.954276
H163	H	0.961167	-0.480901	-0.034484
H164	H	1.294500	-0.147568	0.298849
H165	H	1.627833	0.185765	0.632183
H166	H	0.283426	-0.000165	0.025219
H167	H	0.616759	0.333168	0.358553
H168	H	0.950093	0.666501	0.691886
H169	H	0.766714	-0.000087	0.508508
H170	H	1.100047	0.333246	0.841841
H171	H	1.433381	0.666579	1.175174
C172	C	0.811090	-0.535462	-0.184904
C173	C	1.144423	-0.202128	0.148429
C174	C	1.477756	0.131205	0.481763
H175	H	0.782800	-0.485966	-0.213247
H176	H	1.116133	-0.152632	0.120086
H177	H	1.449466	0.180701	0.453420
H178	H	0.836189	-0.579346	-0.218444
H179	H	1.169522	-0.246012	0.114890
H180	H	1.502856	0.087321	0.448223
H181	H	0.777478	-0.579319	-0.159870
H182	H	1.110812	-0.245986	0.173464
H183	H	1.444145	0.087347	0.506797
H184	H	0.770788	-0.000095	0.254415
H185	H	1.104121	0.333238	0.587748
H186	H	1.437454	0.666571	0.921082
H187	H	0.250227	-0.000115	-0.225031
H188	H	0.583560	0.333218	0.108302
H189	H	0.916893	0.666551	0.441636
C190	C	1.036847	-0.000146	0.533040
C191	C	1.370181	0.333187	0.866373
C192	C	1.703514	0.666521	1.199706
H193	H	1.077365	-0.000141	0.573304
H194	H	1.410698	0.333192	0.906637
H195	H	1.744032	0.666525	1.239971
H196	H	1.037157	-0.062440	0.499568
H197	H	1.370490	0.270893	0.832902
H198	H	1.703823	0.604226	1.166235
H199	H	1.043256	0.062159	0.505683
H200	H	1.376589	0.395492	0.839016
H201	H	1.709923	0.728826	1.172349
H202	H	1.014673	-0.000145	0.684927
H203	H	1.348006	0.333189	1.018260
H204	H	1.681340	0.666522	1.351594
C205	C	0.093117	-0.000134	-0.242268
C206	C	0.426451	0.333199	0.091065
C207	C	0.759784	0.666532	0.424398
H208	H	0.041759	-0.000152	-0.231553
H209	H	0.375092	0.333181	0.101780
H210	H	0.708425	0.666514	0.435113
H211	H	0.105340	0.062166	-0.267753
H212	H	0.438673	0.395500	0.065580
H213	H	0.772006	0.728833	0.398914
H214	H	0.099252	-0.062433	-0.273870
H215	H	0.432585	0.270901	0.059464
H216	H	0.765918	0.604234	0.392797
H217	H	0.504324	-0.000097	-0.229097
H218	H	0.837657	0.333236	0.104236
H219	H	1.170990	0.666570	0.437570
H220	H	0.773073	-0.000106	0.111192
H221	H	1.106406	0.333228	0.444526
H222	H	1.439739	0.666561	0.777859
C223	C	0.131548	-0.000180	0.047391
C224	C	0.464882	0.333154	0.380724
C225	C	0.798215	0.666487	0.714057
H226	H	0.171809	-0.000199	0.087909
H227	H	0.505143	0.333135	0.421243
H228	H	0.838476	0.666468	0.754576
H229	H	0.104180	0.062113	0.053812
H230	H	0.437513	0.395446	0.387146
H231	H	0.770846	0.728780	0.720479
H232	H	0.098086	-0.062486	0.047682
H233	H	0.431419	0.270847	0.381016
H234	H	0.764753	0.604180	0.714349
C235	C	0.528862	-0.000137	0.041035
C236	C	0.862195	0.333196	0.374368
C237	C	1.195528	0.666530	0.707701
H238	H	0.474884	-0.000128	0.032002
H239	H	0.808217	0.333205	0.365335
H240	H	1.141550	0.666538	0.698669
H241	H	0.542512	-0.062434	0.066108
H242	H	0.875846	0.270900	0.399442
H243	H	1.209179	0.604233	0.732775
H244	H	0.548608	0.062165	0.072221
H245	H	0.881941	0.395499	0.405554
H246	H	1.215275	0.728832	0.738887
H247	H	0.680742	-0.000123	0.018862
H248	H	1.014076	0.333210	0.352195
H249	H	1.347409	0.666543	0.685529
C250	C	0.744543	-0.000076	0.660385
C251	C	1.077876	0.333258	0.993719
C252	C	1.411209	0.666591	1.327052
H253	H	0.704024	-0.000051	0.620124
H254	H	1.037358	0.333282	0.953458
H255	H	1.370691	0.666616	1.286791
H256	H	0.738124	-0.062369	0.687745
H257	H	1.071458	0.270965	1.021079
H258	H	1.404791	0.604298	1.354412
H259	H	0.744248	0.062231	0.693856
H260	H	1.077581	0.395564	1.027189
H261	H	1.410914	0.728897	1.360522
