data_functionalizedCrystal
_audit_creation_method	'MofGen! by Chris Wilmer'
_symmetry_space_group_name_H-M	'P1'
_symmetry_Int_Tables_number	1
_symmetry_cell_setting	triclinic
loop_
_symmetry_equiv_pos_as_xyz
  x,y,z
_cell_length_a	10.540539
_cell_length_b	10.540539
_cell_length_c	9.616153
_cell_angle_alpha	89.999906
_cell_angle_beta	89.995174
_cell_angle_gamma	84.525492
loop_
_atom_site_label
_atom_site_type_symbol
_atom_site_fract_x
_atom_site_fract_y
_atom_site_fract_z
O1	O	1.685892	0.178895	-0.115573
O2	O	1.316479	0.195751	-0.115589
O3	O	1.509614	0.002617	-0.115579
O4	O	1.492758	0.372030	-0.115583
O5	O	1.509587	0.002621	0.115712
O6	O	1.316452	0.195755	0.115702
O7	O	1.685865	0.178899	0.115718
Zn8	Zn	1.501155	0.187328	0.152433
Zn9	Zn	1.501190	0.187323	-0.152304
O10	O	1.492731	0.372034	0.115708
C11	C	1.269163	0.194489	0.000054
C12	C	1.128215	0.190707	0.000048
C13	C	0.944788	0.045790	0.000589
C14	C	1.091406	0.049624	0.000054
C15	C	1.066557	0.258600	-0.132027
C16	C	0.920013	0.253785	-0.132123
C17	C	0.919494	0.256660	0.130899
C18	C	1.066476	0.257959	0.132630
C19	C	1.508336	-0.044684	0.000064
C20	C	1.504554	-0.185632	0.000056
C21	C	1.359637	-0.369059	-0.000469
C22	C	1.363471	-0.222441	0.000052
C23	C	1.572435	-0.247288	0.132138
C24	C	1.567620	-0.393832	0.132249
C25	C	1.570519	-0.394355	-0.130772
C26	C	1.571819	-0.247373	-0.132518
C27	C	1.733182	0.180161	0.000072
C28	C	1.874130	0.183943	0.000069
C29	C	1.494008	0.419335	0.000062
C30	C	1.497790	0.560283	0.000060
N31	N	1.501140	0.187331	0.360407
N32	N	1.501215	0.187310	-0.360278
C33	C	1.397510	0.290298	0.580772
C34	C	1.397739	0.290684	0.419604
C35	C	1.633864	0.217464	0.418862
C36	C	1.633299	0.218193	0.580080
C37	C	1.473368	0.053892	0.580319
C38	C	1.470321	0.054757	0.419092
H39	H	0.914592	-0.009712	-0.093600
N40	N	1.292736	-0.166004	-0.125372
H41	H	1.295102	-0.070439	-0.125275
H42	H	1.334506	-0.202922	-0.212842
H43	H	1.298585	0.272445	0.619578
H44	H	1.524869	-0.425910	-0.230881
N45	N	1.285815	-0.406952	-0.125923
H46	H	1.197453	-0.360545	-0.124248
H47	H	1.331351	-0.383793	-0.213410
H48	H	1.304122	-0.399265	0.093714
H49	H	1.517430	-0.422030	0.230979
H50	H	1.309662	-0.180683	0.094886
N51	N	1.340991	0.024452	0.368530
H52	H	1.283488	0.013971	0.450929
H53	H	1.302582	0.096315	0.307820
H54	H	1.676042	-0.224933	0.137054
N55	N	1.702012	-0.457384	0.140202
H56	H	1.764117	-0.390167	0.143627
H57	H	1.711666	-0.511697	0.226773
H58	H	1.525259	-0.204686	0.230425
H59	H	1.522152	-0.206516	-0.230229
N60	N	1.708074	-0.215301	-0.143088
H61	H	1.728221	-0.160051	-0.061721
H62	H	1.767212	-0.296536	-0.141951
H63	H	1.672423	-0.441581	-0.131656
H64	H	0.872044	0.355250	-0.138119
H65	H	1.540848	-0.025564	0.378801
H66	H	1.299122	0.272553	0.380085
H67	H	1.415178	0.388722	0.621270
H68	H	1.415638	0.389668	0.381024
H69	H	1.657654	0.315531	0.617668
N70	N	1.738659	0.122711	0.631779
H71	H	1.700987	0.056034	0.690169
H72	H	1.785250	0.080409	0.549772
H73	H	1.712918	0.144501	0.380514
N74	N	1.146733	-0.021643	-0.125565
H75	H	1.075861	-0.055666	-0.180812
H76	H	1.192530	0.038002	-0.185654
N77	N	1.666858	0.344937	0.365366
H78	H	1.596029	0.383341	0.303280
H79	H	1.677788	0.403779	0.446480
N80	N	1.573499	-0.047654	0.630841
H81	H	1.555117	-0.133157	0.592353
H82	H	1.660240	-0.026948	0.598215
N83	N	1.147851	-0.021128	0.125464
H84	H	1.077492	-0.055096	0.181592
H85	H	1.209888	-0.094382	0.093817
N86	N	0.906920	-0.028039	0.126058
H87	H	0.843590	0.027345	0.183781
H88	H	0.866888	-0.106445	0.094445
H89	H	1.378631	0.025213	0.621052
H90	H	0.891814	0.203603	-0.230849
H91	H	1.088911	0.362208	-0.136942
N92	N	1.122975	0.196134	-0.262233
H93	H	1.188459	0.123870	-0.235969
H94	H	1.053125	0.161807	-0.318823
H95	H	0.887936	0.211004	0.231010
H96	H	1.107427	0.208361	0.230338
H97	H	1.090701	0.360819	0.140603
H98	H	0.872267	0.358563	0.131790
