data_functionalizedCrystal
_audit_creation_method	'MofGen! by Chris Wilmer'
_symmetry_space_group_name_H-M	'P1'
_symmetry_Int_Tables_number	1
_symmetry_cell_setting	triclinic
loop_
_symmetry_equiv_pos_as_xyz
  x,y,z
_cell_length_a	19.377372
_cell_length_b	20.875444
_cell_length_c	20.875641
_cell_angle_alpha	64.273268
_cell_angle_beta	89.257912
_cell_angle_gamma	74.187902
loop_
_atom_site_label
_atom_site_type_symbol
_atom_site_fract_x
_atom_site_fract_y
_atom_site_fract_z
Zr1	Zr	0.626958	0.853828	-0.137719
O2	O	0.538064	0.947656	-0.217692
O3	O	0.649961	0.735260	-0.117046
O4	O	0.660190	0.856970	-0.241630
O5	O	0.524598	0.832095	0.009537
O6	O	0.761359	0.887592	-0.256141
O7	O	0.527834	0.825946	-0.093108
O8	O	0.743060	0.669874	-0.033284
O9	O	0.542896	1.049812	-0.213320
O10	O	0.740405	0.816044	-0.114416
O11	O	0.662489	0.797781	-0.026983
O12	O	0.674533	0.941079	-0.173664
O13	O	0.596616	0.922815	-0.086231
Zr14	Zr	0.783148	0.912472	0.002846
Zr15	Zr	0.788310	0.902666	-0.160862
Zr16	Zr	0.621796	0.863635	0.025989
Zr17	Zr	0.634666	1.016755	-0.130746
Zr18	Zr	0.775441	0.749545	-0.004127
O19	O	0.760146	1.031040	-0.017826
O20	O	0.767485	1.017097	-0.250598
O21	O	0.530724	0.961600	0.015080
O22	O	0.872043	0.818644	0.082819
O23	O	0.879383	0.804701	-0.149953
O24	O	0.642621	0.749204	0.115725
O25	O	0.885509	0.934206	-0.144410
O26	O	0.749916	0.909330	0.106757
O27	O	0.648748	0.878709	0.121268
O28	O	0.882273	0.940355	-0.041765
O29	O	0.671150	1.088631	-0.231715
O30	O	0.738957	0.677669	0.096843
O31	O	0.867210	0.716488	0.078447
O32	O	0.871313	0.708694	-0.051679
O33	O	0.538793	1.057607	-0.083194
O34	O	0.667047	1.096426	-0.101589
O35	O	0.735574	0.825222	0.038791
O36	O	0.813490	0.843485	-0.048641
O37	O	0.747618	0.968520	-0.107890
O38	O	0.669702	0.950256	-0.020457
C39	C	0.695412	0.679354	-0.076158
C40	C	0.692140	0.610187	-0.079119
C41	C	0.668212	0.224621	-0.100526
C42	C	0.671286	0.289625	-0.097776
C43	C	0.724118	0.286121	-0.050257
C44	C	0.773874	0.217606	-0.005480
C45	C	0.770797	0.152603	-0.008227
C46	C	0.738819	0.476669	-0.037089
C47	C	0.741894	0.541680	-0.034347
C48	C	0.639305	0.613694	-0.126642
C49	C	0.636235	0.548687	-0.129388
C50	C	0.685989	0.480177	-0.084609
N51	N	0.727262	0.352565	-0.047446
N52	N	0.682840	0.413734	-0.087416
C53	C	0.503227	0.822062	-0.038488
C54	C	0.434728	0.801329	-0.028663
C55	C	0.037527	1.059468	-0.150988
C56	C	-0.026828	1.039969	-0.141747
C57	C	0.041947	0.909442	-0.079896
C58	C	0.106310	0.928930	-0.089128
C59	C	0.104093	1.003944	-0.124676
C60	C	0.172876	0.873407	-0.062816
C61	C	0.237233	0.892893	-0.072052
C62	C	0.235023	0.967903	-0.107599
C63	C	0.168450	1.023431	-0.133911
C64	C	0.175091	0.798393	-0.027274
C65	C	0.241657	0.742870	-0.000962
C66	C	0.306015	0.762356	-0.010193
C67	C	0.303806	0.837366	-0.045740
C68	C	0.372588	0.706829	0.016119
C69	C	0.436945	0.726316	0.006884
C70	C	0.368162	0.856853	-0.054975
C71	C	0.906880	0.944238	-0.096385
C72	C	0.975378	0.964971	-0.106210
C73	C	0.711510	0.870884	-0.272210
C74	C	0.713701	0.866721	-0.341709
C75	C	0.714694	1.086947	-0.058714
C76	C	0.717967	1.156114	-0.055754
C77	C	0.680347	0.930030	-0.405286
C78	C	0.682416	0.926116	-0.470587
C79	C	0.717834	0.858891	-0.472307
C80	C	0.751192	0.795578	-0.408722
C81	C	0.749128	0.799493	-0.343424
C82	C	0.727699	0.840182	-0.664282
C83	C	0.729759	0.836271	-0.729586
C84	C	0.660984	0.966810	-0.791447
C85	C	0.658919	0.970719	-0.726144
C86	C	0.692280	0.907406	-0.662566
N87	N	0.719947	0.854888	-0.539053
N88	N	0.690171	0.911411	-0.595822
C89	C	0.698597	0.895417	0.137337
C90	C	0.696405	0.899580	0.206836
C91	C	0.897239	0.740442	-0.105107
C92	C	0.962465	0.692008	-0.117892
C93	C	0.688956	0.691620	0.128615
C94	C	0.683492	0.626617	0.195154
C95	C	0.890782	0.752708	0.099667
C96	C	0.953817	0.708437	0.156380
C97	C	0.519324	1.013592	-0.234540
C98	C	0.456290	1.057863	-0.291253
C99	C	0.512868	1.025859	-0.029766
C100	C	0.447642	1.074293	-0.016981
C101	C	0.721151	1.074680	-0.263488
C102	C	0.726615	1.139684	-0.330026
C103	C	0.954946	0.654938	-0.158236
C104	C	1.016228	0.609436	-0.170263
C105	C	1.085027	0.600999	-0.141941
C106	C	1.092545	0.638075	-0.101595
C107	C	1.031264	0.683581	-0.089573
C108	C	0.719076	0.610415	0.260741
C109	C	0.713940	0.549345	0.323268
C110	C	0.673224	0.504476	0.320205
C111	C	0.637636	0.520683	0.254611
C112	C	0.642768	0.581754	0.192086
C113	C	1.024097	0.697183	0.137374
C114	C	1.083332	0.655596	0.190655
C115	C	1.072285	0.625260	0.262943
C116	C	1.001997	0.636519	0.281949
C117	C	0.942765	0.678109	0.228668
C118	C	0.386010	1.069126	-0.272246
C119	C	0.326776	1.110732	-0.325527
C120	C	0.337824	1.141072	-0.397814
C121	C	0.408111	1.129809	-0.416821
C122	C	0.467343	1.088207	-0.363541
C123	C	0.455161	1.111369	0.023357
C124	C	0.393881	1.156888	0.035366
C125	C	0.325082	1.165327	0.007042
C126	C	0.317564	1.128248	-0.033301
C127	C	0.378844	1.082734	-0.045314
C128	C	0.767337	1.184537	-0.326941
C129	C	0.772484	1.245610	-0.389457
C130	C	0.736905	1.261834	-0.455057
C131	C	0.696181	1.216975	-0.458141
C132	C	0.691038	1.155899	-0.395626
H133	H	0.630778	0.345406	-0.134242
N134	N	0.625021	1.035097	-0.860022
H135	H	0.602274	1.078278	-0.849023
H136	H	0.586473	1.024852	-0.883035
N137	N	0.620726	1.043229	-0.724292
H138	H	0.568149	1.059616	-0.743746
H139	H	0.644018	1.082499	-0.754605
N140	N	0.646431	0.994398	-0.539157
H141	H	0.653114	0.981720	-0.580786
H142	H	0.668953	1.035061	-0.546687
H143	H	0.593213	0.551548	-0.168082
N144	N	0.258986	1.214412	0.020003
H145	H	0.262230	1.266966	-0.000439
H146	H	0.256224	1.194963	0.073205
H147	H	0.261539	1.135126	-0.056360
H148	H	0.598797	0.669479	-0.163098
H149	H	0.657875	1.119384	-0.398148
H150	H	0.377001	1.044422	-0.213390
H151	H	0.366355	0.917938	-0.083899
H152	H	0.511175	1.104503	0.046429
N153	N	0.805728	1.167041	-0.256196
H154	H	0.796299	1.121543	-0.217055
H155	H	0.787203	1.210772	-0.245052
N156	N	0.798879	0.537900	0.016910
H157	H	0.830100	0.569732	-0.010936
H158	H	0.829879	0.484616	0.044849
N159	N	0.401998	1.196873	0.078880
H160	H	0.454882	1.184611	0.095004
H161	H	0.375208	1.180413	0.122179
N162	N	0.604398	0.599212	0.121345
H163	H	0.613824	0.644707	0.082195
H164	H	0.550747	0.609080	0.124354
H165	H	0.758601	0.781524	-0.730979
H166	H	0.993013	0.611814	0.340812
N167	N	1.136181	0.580393	0.320398
H168	H	1.132674	0.528354	0.349512
H169	H	1.136271	0.604952	0.352748
N170	N	0.763681	0.771899	-0.595715
H171	H	0.786428	0.728719	-0.606715
H172	H	0.726421	0.759204	-0.561836
N173	N	0.792486	0.402785	0.011199
H174	H	0.826424	0.410433	0.041713
H175	H	0.821099	0.380720	-0.018975
H176	H	0.742924	0.536160	0.376670
H177	H	0.667214	1.230193	-0.511560
N178	N	0.667694	0.438603	0.387641
H179	H	0.645347	0.456319	0.423255
H180	H	0.717552	0.402747	0.409042
N181	N	0.785107	0.731212	-0.274848
H182	H	0.807857	0.688030	-0.285845
H183	H	0.747846	0.718518	-0.240970
H184	H	0.524566	1.079038	-0.379025
N185	N	0.866963	0.690242	0.249174
H186	H	0.868960	0.664709	0.303052
H187	H	0.838809	0.668803	0.227422
H188	H	0.604485	0.484141	0.252127
H189	H	0.752231	0.646942	0.263249
H190	H	0.780035	0.740843	-0.410128
N191	N	0.304437	0.988922	-0.117565
H192	H	0.332230	0.970297	-0.069191
H193	H	0.292874	1.044868	-0.144102
H194	H	1.140558	0.646434	0.175167
H195	H	0.372711	1.052545	-0.078158
H196	H	0.269551	1.119893	-0.310037
N197	N	1.039378	0.723561	-0.046057
H198	H	1.063703	0.685928	0.003679
H199	H	0.990097	0.753671	-0.042792
N200	N	0.816410	1.293986	-0.386122
H201	H	0.838161	1.274440	-0.335076
H202	H	0.784115	1.346755	-0.403493
N203	N	0.742447	1.327718	-0.522477
H204	H	0.713728	1.331196	-0.564506
H205	H	0.794773	1.321212	-0.531060
H206	H	0.417097	1.154516	-0.475683
H207	H	0.625194	0.227483	-0.139225
H208	H	1.033106	0.721877	0.078517
H209	H	0.898932	0.661806	-0.181311
N210	N	0.035151	1.140374	-0.189327
H211	H	0.059111	1.153667	-0.156079
H212	H	-0.016799	1.172544	-0.204594
H213	H	0.816888	0.214757	0.033214
H214	H	0.811311	0.096821	0.028232
N215	N	1.008111	0.569453	-0.213780
H216	H	0.955226	0.581701	-0.229889
H217	H	1.028855	0.513976	-0.183446
N218	N	0.166068	1.104339	-0.172239
H219	H	0.114132	1.136560	-0.187503
H220	H	0.192484	1.112967	-0.215876
H221	H	0.289586	1.174945	-0.441191
H222	H	-0.081030	1.085188	-0.163178
H223	H	0.043741	0.848366	-0.050955
H224	H	0.122685	0.782530	-0.019761
H225	H	0.374381	0.645753	0.045055
N226	N	0.244044	0.661965	0.037367
H227	H	0.193174	0.658044	0.039222
H228	H	0.269097	0.639170	0.087717
H229	H	1.148569	0.631199	-0.078538
N230	N	0.508745	0.666433	0.035259
H231	H	0.500384	0.615956	0.059180
H232	H	0.535733	0.673982	0.071230
H233	H	1.134920	0.563943	-0.151734
N234	N	0.642142	1.002536	-0.403433
H235	H	0.621328	1.042049	-0.453621
H236	H	0.677692	1.018477	-0.383123
