data_functionalizedCrystal
_audit_creation_method	'MofGen! by Chris Wilmer'
_symmetry_space_group_name_H-M	'P1'
_symmetry_Int_Tables_number	1
_symmetry_cell_setting	triclinic
loop_
_symmetry_equiv_pos_as_xyz
  x,y,z
_cell_length_a	10.489711
_cell_length_b	14.519709
_cell_length_c	13.596369
_cell_angle_alpha	90.006934
_cell_angle_beta	89.993154
_cell_angle_gamma	95.896423
loop_
_atom_site_label
_atom_site_type_symbol
_atom_site_fract_x
_atom_site_fract_y
_atom_site_fract_z
O1	O	1.692722	-0.129986	-0.081829
O2	O	2.026055	0.203348	0.251504
O3	O	2.359389	0.536681	0.584837
O4	O	1.321394	-0.142227	-0.081824
O5	O	1.654727	0.191106	0.251510
O6	O	1.988061	0.524439	0.584843
O7	O	1.516903	-0.001921	-0.081818
O8	O	1.850237	0.331412	0.251516
O9	O	2.183570	0.664746	0.584849
O10	O	1.497213	-0.270292	-0.081835
O11	O	1.830546	0.063041	0.251498
O12	O	2.163879	0.396375	0.584831
O13	O	1.516884	-0.001913	0.081765
O14	O	1.850217	0.331420	0.415098
O15	O	2.183550	0.664753	0.748432
O16	O	1.321374	-0.142220	0.081759
O17	O	1.654708	0.191114	0.415093
O18	O	1.988041	0.524447	0.748426
O19	O	1.692703	-0.129978	0.081754
O20	O	2.026036	0.203355	0.415087
O21	O	2.359369	0.536689	0.748420
Zn22	Zn	1.507035	-0.136098	0.107729
Zn23	Zn	1.840369	0.197236	0.441062
Zn24	Zn	2.173702	0.530569	0.774395
Zn25	Zn	1.507061	-0.136108	-0.107799
Zn26	Zn	1.840394	0.197226	0.225535
Zn27	Zn	2.173728	0.530559	0.558868
O28	O	1.497193	-0.270284	0.081748
O29	O	1.830527	0.063049	0.415081
O30	O	2.163860	0.396382	0.748414
C31	C	1.273861	-0.141305	-0.000031
C32	C	1.607195	0.192029	0.333302
C33	C	1.940528	0.525362	0.666635
C34	C	1.132259	-0.138556	-0.000029
C35	C	1.465592	0.194777	0.333304
C36	C	1.798926	0.528111	0.666638
C37	C	0.948993	-0.222932	-0.000046
C38	C	1.282326	0.110401	0.333288
C39	C	1.615659	0.443735	0.666621
C40	C	1.041587	-0.180789	-0.080696
C41	C	1.374921	0.152545	0.252637
C42	C	1.708254	0.485878	0.585970
C43	C	1.041541	-0.180759	0.080583
C44	C	1.374875	0.152575	0.413917
C45	C	1.708208	0.485908	0.747250
C46	C	0.972567	-0.091469	-0.080767
C47	C	1.305901	0.241864	0.252566
C48	C	1.639234	0.575198	0.585900
C49	C	0.972512	-0.091451	0.080585
C50	C	1.305845	0.241882	0.413919
C51	C	1.639178	0.575215	0.747252
C52	C	1.065079	-0.049243	-0.000085
C53	C	1.398413	0.284090	0.333248
C54	C	1.731746	0.617424	0.666582
C55	C	1.515976	0.032448	-0.000026
C56	C	1.849309	0.365781	0.333307
C57	C	2.182642	0.699114	0.666641
C58	C	1.513226	0.134844	-0.000026
C59	C	1.846559	0.468177	0.333308
C60	C	2.179893	0.801510	0.666641
C61	C	1.740235	-0.130901	-0.000041
C62	C	2.073568	0.202433	0.333292
C63	C	2.406902	0.535766	0.666626
C64	C	1.881838	-0.133649	-0.000050
C65	C	2.215171	0.199684	0.333284
C66	C	2.548504	0.533017	0.666617
C67	C	1.498121	-0.304653	-0.000046
C68	C	1.831454	0.028680	0.333287
C69	C	2.164787	0.362014	0.666621
C70	C	1.500871	-0.407049	-0.000053
C71	C	1.834204	-0.073716	0.333280
C72	C	2.167537	0.259618	0.666614
N73	N	1.507027	-0.136090	0.254821
N74	N	1.840361	0.197243	0.588154
N75	N	2.173694	0.530576	0.921487
C76	C	1.503102	0.509794	-0.000051
C77	C	1.836436	0.843127	0.333282
C78	C	2.169769	1.176461	0.666616
C79	C	1.505914	0.405471	-0.000044
C80	C	1.839247	0.738804	0.333290
C81	C	2.172580	1.072137	0.666623
C82	C	1.508164	0.322322	-0.000037
C83	C	1.841497	0.655655	0.333296
C84	C	2.174831	0.988989	0.666629
C85	C	1.510976	0.217992	-0.000032
C86	C	1.844309	0.551326	0.333302
C87	C	2.177642	0.884659	0.666635
N88	N	1.507079	-0.136108	-0.254891
N89	N	1.840413	0.197226	0.078443
N90	N	2.173746	0.530559	0.411776
C91	C	1.507059	-0.136109	0.656111
C92	C	1.840393	0.197225	0.989445
C93	C	2.173726	0.530558	1.322778
C94	C	1.507047	-0.136107	0.544460
C95	C	1.840380	0.197227	0.877793
C96	C	2.173713	0.530560	1.211127
C97	C	1.507044	-0.136100	0.455470
C98	C	1.840377	0.197233	0.788803
C99	C	2.173711	0.530566	1.122136
C100	C	1.507030	-0.136097	0.343811
C101	C	1.840363	0.197237	0.677144
C102	C	2.173697	0.530570	1.010478
H103	H	1.115303	0.024209	-0.000121
H104	H	1.448636	0.357542	0.333212
H105	H	1.781969	0.690875	0.666546
C106	C	0.931108	-0.040457	0.172704
C107	C	1.264442	0.292876	0.506038
C108	C	1.597775	0.626209	0.839371
H109	H	0.954449	-0.072263	0.229959
H110	H	1.287783	0.261070	0.563292
H111	H	1.621116	0.594403	0.896625
H112	H	0.972456	0.020896	0.173290
H113	H	1.305789	0.354229	0.506623
H114	H	1.639122	0.687562	0.839956
H115	H	0.840859	-0.038567	0.171708
H116	H	1.174192	0.294767	0.505042
H117	H	1.507525	0.628100	0.838375
H118	H	0.898537	-0.296316	-0.000131
H119	H	1.231871	0.037017	0.333203
H120	H	1.565204	0.370351	0.666536
H121	H	1.072095	-0.218548	0.148768
H122	H	1.405428	0.114785	0.482101
H123	H	1.738762	0.448118	0.815435
H124	H	1.072196	-0.218572	-0.148883
H125	H	1.405530	0.114761	0.184450
H126	H	1.738863	0.448094	0.517784
H127	H	0.942160	-0.053730	-0.149031
H128	H	1.275493	0.279603	0.184302
H129	H	1.608827	0.612937	0.517636
