data_functionalizedCrystal
_audit_creation_method	'MofGen! by Chris Wilmer'
_symmetry_space_group_name_H-M	'P1'
_symmetry_Int_Tables_number	1
_symmetry_cell_setting	triclinic
loop_
_symmetry_equiv_pos_as_xyz
  x,y,z
_cell_length_a	13.339070
_cell_length_b	16.109301
_cell_length_c	14.586319
_cell_angle_alpha	90.005214
_cell_angle_beta	90.003986
_cell_angle_gamma	99.545387
loop_
_atom_site_label
_atom_site_type_symbol
_atom_site_fract_x
_atom_site_fract_y
_atom_site_fract_z
O1	O	-1.342144	-0.416774	-0.076285
O2	O	-1.047635	-0.362069	-0.076278
O3	O	-1.202980	-0.270259	-0.076272
O4	O	-1.186799	-0.508584	-0.076291
O5	O	-1.202969	-0.270254	0.076208
O6	O	-1.047624	-0.362065	0.076203
O7	O	-1.342133	-0.416769	0.076196
Cu8	Cu	-1.194878	-0.389417	0.090122
Cu9	Cu	-1.194890	-0.389422	-0.090204
O10	O	-1.186788	-0.508580	0.076190
C11	C	-1.009943	-0.352827	-0.000037
C12	C	-0.897651	-0.325282	-0.000034
C13	C	-1.202319	-0.239130	-0.000032
C14	C	-1.200354	-0.146381	-0.000030
C15	C	-1.379825	-0.426012	-0.000048
C16	C	-1.492117	-0.453556	-0.000057
C17	C	-0.532787	-0.539450	-0.000065
C18	C	-0.638291	-0.565332	-0.000070
C19	C	-0.703136	-0.505322	-0.000061
C20	C	-0.662467	-0.419426	-0.000046
C21	C	-0.556952	-0.393541	-0.000048
C22	C	-0.727301	-0.359413	-0.000044
C23	C	-0.686632	-0.273517	-0.000030
C24	C	-0.581127	-0.247637	-0.000030
C25	C	-0.516283	-0.307647	-0.000040
C26	C	-0.832816	-0.385297	-0.000043
C27	C	-0.856981	-0.239388	-0.000026
C28	C	-0.751477	-0.213506	-0.000020
C29	C	-1.187449	-0.539708	-0.000053
C30	C	-1.189414	-0.632457	-0.000060
N31	N	-1.194876	-0.389414	0.216954
C32	C	-1.287963	0.055662	-0.000047
C33	C	-1.286109	0.142810	-0.000054
C34	C	-1.101798	0.165494	-0.000046
C35	C	-1.103653	0.078347	-0.000045
C36	C	-1.196739	0.023433	-0.000041
C37	C	-1.193029	0.197729	-0.000049
C38	C	-1.191018	0.292219	-0.000058
C39	C	-1.198750	-0.071064	-0.000035
N40	N	-1.194900	-0.389420	-0.217036
C41	C	-1.263685	-0.348785	0.451963
C42	C	-1.263688	-0.348783	0.547944
C43	C	-1.126083	-0.430050	0.547948
C44	C	-1.126076	-0.430046	0.451969
C45	C	-1.194883	-0.389415	0.403978
C46	C	-1.194893	-0.389418	0.595939
C47	C	-1.194896	-0.389417	0.700006
C48	C	-1.194879	-0.389415	0.299905
H49	H	-0.865918	-0.455234	-0.000051
O50	O	-1.330415	-0.309157	0.405406
C51	C	-1.389742	-0.178283	0.376162
C52	C	-1.314100	-0.223067	0.428911
H53	H	-1.376592	-0.108676	0.395162
H54	H	-1.377945	-0.185167	0.299303
H55	H	-1.470746	-0.207875	0.395020
H56	H	-1.233066	-0.193507	0.410131
H57	H	-1.325985	-0.216189	0.505757
H58	H	-1.070044	-0.463132	0.412897
H59	H	-1.070063	-0.463132	0.587032
H60	H	-1.026010	0.210216	-0.000048
O61	O	-1.015058	0.046996	-0.000202
C62	C	-0.910226	-0.038283	-0.079170
C63	C	-1.010578	-0.002817	-0.079112
H64	H	-0.906581	-0.078578	-0.142952
H65	H	-0.843337	0.015902	-0.079226
H66	H	-0.906498	-0.078477	-0.015329
H67	H	-1.014406	0.037365	-0.142942
H68	H	-1.077420	-0.057041	-0.079009
H69	H	-1.363760	0.010952	-0.000045
H70	H	-0.789042	-0.526400	-0.000068
H71	H	-0.671396	-0.635268	-0.000089
O72	O	-0.469695	-0.597657	-0.000199
C73	C	-0.336593	-0.653133	-0.079241
C74	C	-0.407972	-0.587152	-0.079191
H75	H	-0.286686	-0.644674	-0.143109
H76	H	-0.286511	-0.644654	-0.015475
H77	H	-0.383798	-0.718963	-0.079202
H78	H	-0.360847	-0.521294	-0.079262
H79	H	-0.458058	-0.595705	-0.142952
O80	O	-0.541788	-0.164165	0.000019
C81	C	-0.576894	-0.022175	-0.000017
C82	C	-0.621579	-0.116678	-0.000052
H83	H	-0.641383	0.016245	-0.000094
H84	H	-0.528130	-0.006363	0.063811
H85	H	-0.528074	-0.006448	-0.063815
H86	H	-0.670444	-0.132473	0.063703
H87	H	-0.670284	-0.132442	-0.063922
O88	O	-1.330386	-0.309202	0.594596
C89	C	-1.351971	-0.200676	0.703008
C90	C	-1.276323	-0.245419	0.650217
H91	H	-1.308291	-0.149109	0.748005
H92	H	-1.401131	-0.171573	0.652259
H93	H	-1.402508	-0.248270	0.747893
H94	H	-1.225721	-0.197876	0.605331
H95	H	-1.227235	-0.274537	0.701015
H96	H	-0.718348	-0.143568	-0.000016
O97	O	-0.919858	-0.181009	0.000107
C98	C	-0.972838	-0.064254	0.079141
C99	C	-0.901549	-0.130303	0.079098
H100	H	-0.958075	-0.023252	0.143008
H101	H	-0.958052	-0.023131	0.015374
H102	H	-1.055224	-0.097527	0.079098
H103	H	-0.819137	-0.097100	0.079174
H104	H	-0.916422	-0.171421	0.142860
H105	H	-0.430371	-0.286578	-0.000035
H106	H	-1.360393	0.169046	-0.000061
