data_functionalizedCrystal
_audit_creation_method	'MofGen! by Chris Wilmer'
_symmetry_space_group_name_H-M	'P1'
_symmetry_Int_Tables_number	1
_symmetry_cell_setting	triclinic
loop_
_symmetry_equiv_pos_as_xyz
  x,y,z
_cell_length_a	19.805405
_cell_length_b	12.759401
_cell_length_c	12.759393
_cell_angle_alpha	90.020030
_cell_angle_beta	89.962167
_cell_angle_gamma	89.976628
loop_
_atom_site_label
_atom_site_type_symbol
_atom_site_fract_x
_atom_site_fract_y
_atom_site_fract_z
Zn1	Zn	-0.269477	-1.606158	-0.594011
Zn2	Zn	-0.382682	-1.606020	-0.418313
Zn3	Zn	-0.269506	-1.430464	-0.418343
Zn4	Zn	-0.382623	-1.430413	-0.593946
O5	O	-0.326072	-1.518264	-0.506153
O6	O	-0.284506	-1.753161	-0.570719
O7	O	-0.367706	-1.582696	-0.271296
O8	O	-0.174786	-1.453849	-0.441685
O9	O	-0.367677	-1.753059	-0.441634
O10	O	-0.174764	-1.582931	-0.570748
O11	O	-0.284556	-1.453715	-0.271318
O12	O	-0.284499	-1.283436	-0.441622
O13	O	-0.367577	-1.453763	-0.740976
O14	O	-0.367606	-1.283399	-0.570637
O15	O	-0.284449	-1.582882	-0.741024
O16	O	-0.477391	-1.582646	-0.441571
O17	O	-0.477348	-1.453629	-0.570608
C18	C	-0.326050	-1.245296	-0.506126
C19	C	-0.326057	-1.128520	-0.506140
C20	C	-0.282733	-0.963921	-0.439088
C21	C	-0.282724	-1.073646	-0.439079
C22	C	-0.369396	-1.073664	-0.573221
C23	C	-0.369402	-0.963942	-0.573235
C24	C	-0.232696	-0.963912	-0.361639
C25	C	-0.232686	-1.073636	-0.361630
C26	C	-0.501928	-1.518146	-0.506102
C27	C	-0.577160	-1.518191	-0.506116
C28	C	-0.612504	-1.585436	-0.438997
C29	C	-0.683193	-1.585481	-0.439020
C30	C	-0.718536	-1.518274	-0.506158
C31	C	-0.683186	-1.451027	-0.573284
C32	C	-0.612499	-1.450988	-0.573266
C33	C	-0.968260	-1.451181	-0.573362
C34	C	-1.038952	-1.451223	-0.573374
C35	C	-1.038953	-1.585674	-0.439116
C36	C	-0.968266	-1.585636	-0.439098
C37	C	-0.932923	-1.518392	-0.506228
C38	C	-0.856275	-1.518346	-0.506203
C39	C	-0.795183	-1.518314	-0.506178
C40	C	-0.149529	-1.518411	-0.506227
C41	C	-0.074297	-1.518474	-0.506259
C42	C	-0.326003	-1.518332	-0.780187
C43	C	-0.325974	-1.518361	-0.896963
C44	C	-0.326087	-0.792297	-0.506173
C45	C	-0.326071	-0.909074	-0.506162
C46	C	-0.282670	-1.451229	-0.951843
C47	C	-0.282650	-1.451261	-1.061567
C48	C	-0.369239	-1.585565	-1.061523
C49	C	-0.369262	-1.585528	-0.951800
C50	C	-0.232676	-1.373693	-0.951869
C51	C	-0.232655	-1.373725	-1.061594
C52	C	-0.326092	-1.518256	-0.233186
C53	C	-0.325931	-1.518431	-0.116410
H54	H	-0.404686	-0.919289	-0.627862
H55	H	-0.711968	-1.396311	-0.627954
F56	F	-0.257187	-1.272693	-1.106065
H57	H	-0.583723	-1.396232	-0.627922
H58	H	-0.404535	-1.640177	-0.907122
F59	F	-1.076565	-1.379691	-0.644836
F60	F	-0.930655	-1.657165	-0.367640
H61	H	-0.939489	-1.396428	-0.628020
F62	F	-0.164109	-1.402145	-1.100558
F63	F	-0.415511	-1.132069	-0.644598
F64	F	-0.164201	-0.925036	-0.390318
F65	F	-0.415308	-1.657044	-1.119893
H66	H	-0.251418	-0.929833	-0.284298
H67	H	-0.246710	-1.292299	-0.922086
F68	F	-0.167605	-1.411833	-0.907415
H69	H	-0.182908	-1.107704	-0.390912
H70	H	-0.246666	-1.103370	-0.280217
F71	F	-0.574896	-1.656961	-0.367531
H72	H	-0.711967	-1.640237	-0.384364
H73	H	-1.067738	-1.640431	-0.384460
