data_functionalizedCrystal
_audit_creation_method	'MofGen! by Chris Wilmer'
_symmetry_space_group_name_H-M	'P1'
_symmetry_Int_Tables_number	1
_symmetry_cell_setting	triclinic
loop_
_symmetry_equiv_pos_as_xyz
  x,y,z
_cell_length_a	18.215407
_cell_length_b	16.959454
_cell_length_c	18.215399
_cell_angle_alpha	90.026105
_cell_angle_beta	90.016824
_cell_angle_gamma	90.020523
loop_
_atom_site_label
_atom_site_type_symbol
_atom_site_fract_x
_atom_site_fract_y
_atom_site_fract_z
Zn1	Zn	1.125075	-0.314661	0.416138
Zn2	Zn	1.125000	-0.446852	0.293080
Zn3	Zn	1.002014	-0.314693	0.293085
Zn4	Zn	1.001983	-0.446803	0.416105
O5	O	1.063518	-0.380752	0.354602
O6	O	1.228049	-0.332204	0.399825
O7	O	1.108667	-0.429355	0.190097
O8	O	1.018382	-0.204078	0.309424
O9	O	1.227994	-0.429325	0.309416
O10	O	1.108794	-0.204055	0.399830
O11	O	1.018309	-0.332258	0.190100
O12	O	0.899025	-0.332210	0.309392
O13	O	1.018330	-0.429240	0.519094
O14	O	0.899003	-0.429271	0.399775
O15	O	1.108765	-0.332156	0.519118
O16	O	1.108638	-0.557457	0.309385
O17	O	1.018258	-0.557420	0.399770
C18	C	0.872312	-0.380739	0.354581
C19	C	0.790513	-0.380752	0.354589
C20	C	1.063456	-0.586119	0.354590
C21	C	1.063497	-0.673975	0.354609
C22	C	0.602327	-0.431371	0.401593
C23	C	0.525468	-0.431374	0.401602
C24	C	0.525461	-0.330148	0.307628
C25	C	0.602319	-0.330142	0.307623
C26	C	0.640749	-0.380758	0.354604
C27	C	0.487033	-0.380766	0.354618
C28	C	0.403700	-0.380769	0.354628
C29	C	0.724088	-0.380755	0.354596
C30	C	1.016526	-1.045462	0.401661
C31	C	1.110715	-1.045440	0.307618
C32	C	1.110690	-0.962894	0.307611
C33	C	1.063580	-0.921628	0.354629
C34	C	1.016497	-0.962908	0.401654
C35	C	1.157767	-0.921608	0.260582
C36	C	1.157743	-0.839057	0.260573
C37	C	1.110637	-0.797789	0.307595
C38	C	1.063552	-0.839075	0.354622
C39	C	1.016442	-0.797809	0.401640
C40	C	0.969361	-0.839093	0.448672
C41	C	0.969391	-0.921641	0.448676
C42	C	1.110606	-0.715241	0.307591
C43	C	1.016414	-0.715255	0.401634
C44	C	1.255471	-0.380767	0.354624
C45	C	1.337270	-0.380773	0.354633
C46	C	1.063553	-0.380689	0.546555
C47	C	1.063568	-0.380662	0.628354
C48	C	1.063600	-0.174584	0.354631
C49	C	1.063635	-0.086728	0.354643
C50	C	1.063526	-0.380758	0.163396
C51	C	1.063653	-0.380562	0.081597
C52	C	1.016558	-0.330070	0.816551
C53	C	1.016571	-0.330054	0.893409
C54	C	1.110665	-0.431161	0.893395
C55	C	1.110648	-0.431180	0.816538
C56	C	1.063596	-0.380630	0.778118
C57	C	1.063625	-0.380595	0.931834
C58	C	1.063640	-0.380578	1.015168
C59	C	1.063580	-0.380648	0.694779
H60	H	0.633615	-0.472584	0.439850
H61	H	0.494187	-0.472586	0.439866
H62	H	0.978245	-0.288909	0.785271
F63	F	0.484554	-0.276283	0.257629
F64	F	1.160712	-0.484999	0.775632
F65	F	1.160704	-0.671308	0.257534
H66	H	0.633603	-0.288922	0.269359
F67	F	0.966499	-0.276249	0.934309
H68	H	0.978054	-0.681662	0.439924
H69	H	0.931001	-0.805485	0.486951
F70	F	1.207903	-0.965529	0.210549
F71	F	0.919287	-0.965583	0.498725
H72	H	0.978195	-1.079079	0.439955
F73	F	1.160849	-1.089360	0.257581
H74	H	1.148974	-0.472316	0.924687
F75	F	1.207855	-0.795127	0.210523
