data_functionalizedCrystal
_audit_creation_method	'MofGen! by Chris Wilmer'
_symmetry_space_group_name_H-M	'P1'
_symmetry_Int_Tables_number	1
_symmetry_cell_setting	triclinic
loop_
_symmetry_equiv_pos_as_xyz
  x,y,z
_cell_length_a	16.625548
_cell_length_b	25.639239
_cell_length_c	16.625539
_cell_angle_alpha	89.968745
_cell_angle_beta	89.979432
_cell_angle_gamma	90.039754
loop_
_atom_site_label
_atom_site_type_symbol
_atom_site_fract_x
_atom_site_fract_y
_atom_site_fract_z
Zn1	Zn	1.232590	-0.208135	-0.455893
Zn2	Zn	1.232455	-0.295573	-0.321053
Zn3	Zn	1.097751	-0.208155	-0.321073
Zn4	Zn	1.097684	-0.295543	-0.455843
O5	O	1.165120	-0.251851	-0.388466
O6	O	1.345404	-0.219738	-0.438018
O7	O	1.214558	-0.283998	-0.208223
O8	O	1.115723	-0.134987	-0.338987
O9	O	1.345305	-0.283978	-0.338952
O10	O	1.214788	-0.134972	-0.438038
O11	O	1.115592	-0.219772	-0.208238
O12	O	0.984910	-0.219743	-0.338938
O13	O	1.115607	-0.283927	-0.568682
O14	O	0.984860	-0.283946	-0.437953
O15	O	1.214722	-0.219709	-0.568719
O16	O	1.214492	-0.368734	-0.338904
O17	O	1.115477	-0.368712	-0.437933
C18	C	0.955629	-0.251844	-0.388443
C19	C	0.866008	-0.251853	-0.388452
C20	C	0.537832	-0.251857	-0.388487
C21	C	0.629141	-0.251854	-0.388475
C22	C	0.701917	-0.251855	-0.388469
C23	C	0.793231	-0.251852	-0.388458
C24	C	1.164984	-0.387694	-0.388429
C25	C	1.165000	-0.445808	-0.388440
C26	C	1.216812	-0.806170	-0.336989
C27	C	1.216843	-0.860774	-0.337000
O28	O	1.260755	-0.889010	-0.293213
N29	N	1.165262	-0.888090	-0.388519
C30	C	1.113651	-0.860799	-0.440037
O31	O	1.069780	-0.889048	-0.483860
C32	C	1.113625	-0.806196	-0.440029
C33	C	1.165204	-0.778883	-0.388501
C34	C	1.268387	-0.778857	-0.285465
C35	C	1.268355	-0.724256	-0.285453
C36	C	1.216747	-0.696969	-0.336965
C37	C	1.165171	-0.724282	-0.388489
C38	C	1.062019	-0.778906	-0.491551
C39	C	1.061997	-0.724299	-0.491539
C40	C	1.113576	-0.696986	-0.440011
C41	C	1.113531	-0.642395	-0.439990
N42	N	1.165112	-0.615078	-0.388470
C43	C	1.216720	-0.642366	-0.336958
C44	C	1.113712	-0.975470	-0.440049
C45	C	1.113734	-1.030072	-0.440053
C46	C	1.216927	-1.030043	-0.337017
C47	C	1.216900	-0.975440	-0.337009
C48	C	1.165293	-0.948154	-0.388530
C49	C	1.216648	-0.527700	-0.336937
C50	C	1.216608	-0.473095	-0.336928
C51	C	1.113418	-0.473129	-0.439967
C52	C	1.113454	-0.527729	-0.439973
C53	C	1.165076	-0.555014	-0.388456
O54	O	1.069644	-0.614124	-0.483756
O55	O	1.260591	-0.614110	-0.293150
C56	C	1.375429	-0.251859	-0.388489
C57	C	1.465050	-0.251863	-0.388498
C58	C	1.165172	-0.251812	-0.598775
C59	C	1.165195	-0.251796	-0.688396
C60	C	1.165278	-0.115478	-0.388520
C61	C	1.165345	-0.057364	-0.388544
C62	C	1.165232	-0.251737	-1.016572
C63	C	1.165219	-0.251755	-0.925263
C64	C	1.165214	-0.251767	-0.852487
C65	C	1.165200	-0.251784	-0.761172
C66	C	1.165114	-0.251852	-0.178975
C67	C	1.165248	-0.251722	-0.089354
H68	H	1.258610	-0.450858	-0.294964
H69	H	1.310357	-0.702021	-0.243497
O70	O	1.063408	-0.446591	-0.490091
C71	C	1.109283	-0.414945	-0.542180
H72	H	1.172790	-0.431362	-0.547215
H73	H	1.080095	-0.414310	-0.604209
H74	H	1.112060	-0.373573	-0.517237
H75	H	1.258684	-0.549909	-0.294988
O76	O	1.318548	-0.805277	-0.235344
C77	C	1.364071	-0.769450	-0.189889
H78	H	1.331020	-0.730552	-0.187076
H79	H	1.372713	-0.785238	-0.126365
H80	H	1.425291	-0.763590	-0.219468
O81	O	1.267083	-0.948991	-0.286932
C82	C	1.312617	-0.984791	-0.241454
H83	H	1.315405	-1.023698	-0.274492
H84	H	1.376145	-0.968981	-0.232905
H85	H	1.283124	-0.990643	-0.180192
O86	O	1.011891	-0.805349	-0.541685
C87	C	0.966332	-0.769545	-0.587132
H88	H	0.999344	-0.730601	-0.589932
H89	H	0.957709	-0.785292	-0.650660
H90	H	0.905106	-0.763790	-0.557553
O91	O	1.267094	-1.056636	-0.287110
C92	C	1.256068	-1.110686	-0.298189
H93	H	1.229551	-1.118117	-0.360363
H94	H	1.316499	-1.131385	-0.292881
H95	H	1.213240	-1.126263	-0.250284
O96	O	1.063529	-0.948909	-0.489980
C97	C	1.011444	-0.917389	-0.444023
H98	H	1.039914	-0.909209	-0.382946
H99	H	1.000592	-0.878988	-0.476856
H100	H	0.951712	-0.938480	-0.435105
H101	H	1.019973	-0.702085	-0.533496
H102	H	1.071725	-1.052306	-0.482005
O103	O	1.063323	-0.554184	-0.490100
C104	C	1.017750	-0.518388	-0.535546
H105	H	1.050748	-0.479439	-0.538351
H106	H	1.009128	-0.534138	-0.599073
H107	H	0.956523	-0.512641	-0.505965
