data_functionalizedCrystal
_audit_creation_method	'MofGen! by Chris Wilmer'
_symmetry_space_group_name_H-M	'P1'
_symmetry_Int_Tables_number	1
_symmetry_cell_setting	triclinic
loop_
_symmetry_equiv_pos_as_xyz
  x,y,z
_cell_length_a	27.732048
_cell_length_b	27.731994
_cell_length_c	10.868271
_cell_angle_alpha	89.994599
_cell_angle_beta	90.002232
_cell_angle_gamma	97.368406
loop_
_atom_site_label
_atom_site_type_symbol
_atom_site_fract_x
_atom_site_fract_y
_atom_site_fract_z
O1	O	-0.057393	0.640942	0.102127
O2	O	-0.066166	0.500144	0.102165
O3	O	0.008618	0.574916	0.102161
O4	O	-0.132177	0.566170	0.102131
O5	O	0.008622	0.574915	-0.102483
O6	O	-0.066162	0.500144	-0.102479
O7	O	-0.057389	0.640941	-0.102517
Zn8	Zn	-0.061775	0.570542	-0.134990
Zn9	Zn	-0.061780	0.570543	0.134638
O10	O	-0.132173	0.566169	-0.102513
C11	C	-0.065984	0.482137	-0.000152
C12	C	-0.065442	0.428480	-0.000136
C13	C	-0.062024	0.095761	-0.111735
C14	C	-0.059962	-0.105897	-0.111748
O15	O	-0.059673	-0.131970	-0.206619
N16	N	-0.059708	-0.131111	-0.000197
C17	C	-0.059967	-0.105908	0.111367
O18	O	-0.059698	-0.131980	0.206248
C19	C	-0.062025	0.095750	0.111379
C20	C	-0.062283	0.120961	-0.000180
C21	C	-0.062282	0.120973	-0.223285
C22	C	-0.062800	0.171384	-0.223280
C23	C	-0.063060	0.196584	-0.111726
C24	C	-0.062801	0.171372	-0.000176
C25	C	-0.062280	0.120953	0.222941
C26	C	-0.062793	0.171371	0.222934
C27	C	-0.063052	0.196582	0.111375
C28	C	-0.063579	0.246984	0.111383
N29	N	-0.063833	0.272198	-0.000169
C30	C	-0.063573	0.246998	-0.111723
C31	C	-0.058887	-0.211781	0.111352
C32	C	-0.058373	-0.262195	0.111350
C33	C	-0.058368	-0.262181	-0.111766
C34	C	-0.058885	-0.211766	-0.111762
C35	C	-0.059141	-0.186566	-0.000200
C36	C	-0.064662	0.352865	-0.111705
C37	C	-0.065182	0.403280	-0.111691
C38	C	-0.065185	0.403262	0.111424
C39	C	-0.064667	0.352851	0.111410
C40	C	-0.064404	0.327654	-0.000164
O41	O	-0.063863	0.273088	0.206204
O42	O	-0.063831	0.273081	-0.206590
C43	C	-0.061506	0.045350	-0.111739
C44	C	-0.061247	0.020139	-0.000189
C45	C	-0.061507	0.045339	0.111365
C46	C	-0.060734	-0.030275	-0.000192
C47	C	-0.060474	-0.055475	-0.111747
C48	C	-0.060728	-0.030261	-0.223298
C49	C	-0.061246	0.020150	-0.223294
C50	C	-0.061253	0.020125	0.222917
C51	C	-0.060736	-0.030287	0.222903
C52	C	-0.060476	-0.055487	0.111349
C53	C	-0.150182	0.566353	-0.000195
C54	C	-0.203837	0.566906	-0.000208
C55	C	-0.542660	0.526201	-0.000137
C56	C	-0.744319	0.528252	-0.000123
O57	O	-0.775582	0.491031	-0.000059
N58	N	-0.763434	0.572589	-0.000137
C59	C	-0.732131	0.616415	-0.000146
O60	O	-0.753017	0.654173	-0.000145
C61	C	-0.530473	0.614364	-0.000151
C62	C	-0.511361	0.570025	-0.000150
C63	C	-0.523547	0.481866	-0.000135
C64	C	-0.473135	0.481353	-0.000145
C65	C	-0.441836	0.525177	-0.000158
C66	C	-0.460949	0.569512	-0.000160
C67	C	-0.499170	0.658190	-0.000152
C68	C	-0.448753	0.657673	-0.000150
C69	C	-0.429641	0.613334	-0.000149
C70	C	-0.379238	0.612823	-0.000183
N71	N	-0.360123	0.568487	-0.000170
C72	C	-0.391422	0.524664	-0.000157
C73	C	-0.838005	0.617489	-0.000146
C74	C	-0.888419	0.618002	-0.000147
C75	C	-0.900604	0.529839	-0.000121
C76	C	-0.850188	0.529327	-0.000129
C77	C	-0.818890	0.573153	-0.000132
C78	C	-0.285553	0.523591	-0.000179
C79	C	-0.235136	0.523083	-0.000195
C80	C	-0.222956	0.611246	-0.000213
C81	C	-0.273368	0.611754	-0.000205
C82	C	-0.304666	0.567923	-0.000183
O83	O	-0.347946	0.650025	-0.000233
O84	O	-0.370527	0.486911	-0.000131
C85	C	-0.593072	0.526713	-0.000127
C86	C	-0.612184	0.571049	-0.000130
C87	C	-0.580885	0.614873	-0.000142
C88	C	-0.662599	0.571562	-0.000130
C89	C	-0.693898	0.527739	-0.000118
C90	C	-0.674783	0.483402	-0.000104
C91	C	-0.624371	0.482890	-0.000114
C92	C	-0.600000	0.659209	-0.000156
C93	C	-0.650413	0.659718	-0.000147
C94	C	-0.681712	0.615894	-0.000134
C95	C	0.026627	0.574732	-0.000154
C96	C	0.080282	0.574179	-0.000134
C97	C	-0.057571	0.658949	-0.000197
C98	C	-0.058113	0.712605	-0.000205
N99	N	-0.061780	0.570544	0.318652
N100	N	-0.061771	0.570545	-0.319004
C101	C	-0.061777	0.570543	0.569658
C102	C	-0.061781	0.570542	0.429981
H103	H	-0.058157	-0.282707	-0.202598
H104	H	-0.059095	-0.191268	0.202205
H105	H	-0.549027	0.446177	-0.000120
N106	N	-0.061996	0.093770	0.343266
H107	H	-0.062234	0.117392	0.413924
H108	H	-0.031802	0.077002	0.348123
H109	H	-0.061456	0.040673	-0.314137
H110	H	-0.834631	0.493222	-0.000133
N111	N	-0.934367	0.482571	-0.000115
H112	H	-0.969203	0.489629	-0.000117
H113	H	-0.928217	0.463234	0.075758
H114	H	-0.514722	0.694296	-0.000152
H115	H	-0.065394	0.423805	-0.202539
H116	H	-0.059096	-0.191243	-0.202603
N117	N	-0.293983	0.659577	-0.000233
H118	H	-0.314630	0.661753	-0.076094
H119	H	-0.266474	0.687230	-0.000208
N120	N	-0.708551	0.436138	-0.000106
H121	H	-0.729738	0.434390	0.075757
H122	H	-0.688767	0.407994	-0.000152
N123	N	-0.063066	0.198551	0.343264
H124	H	-0.062823	0.174927	0.413927
H125	H	-0.093257	0.215322	0.348131
N126	N	-0.064377	0.325694	-0.232044
H127	H	-0.064290	0.349366	-0.302696
H128	H	-0.094307	0.300855	-0.237282
H129	H	-0.058170	-0.282719	0.202192
N130	N	-0.063069	0.198577	-0.343600
H131	H	-0.093258	0.215350	-0.348593
H132	H	-0.062804	0.174932	-0.414195
H133	H	-0.197463	0.646926	-0.000230
N134	N	-0.060444	-0.057449	-0.343614
H135	H	-0.030219	-0.044986	-0.391632
H136	H	-0.090191	-0.052271	-0.393038
H137	H	-0.064464	0.332322	0.202251
H138	H	-0.812525	0.653180	-0.000150
H139	H	-0.062069	0.100460	-0.314131
N140	N	-0.065465	0.430447	0.231739
H141	H	-0.065829	0.466209	0.214804
H142	H	-0.035396	0.425779	0.280451
H143	H	-0.060529	-0.050810	0.313755
N144	N	-0.566249	0.706480	-0.000184
H145	H	-0.545065	0.708232	-0.076053
H146	H	-0.545086	0.708212	0.075721
H147	H	-0.665968	0.695827	-0.000158
N148	N	-0.061530	0.047301	0.343242
H149	H	-0.061289	0.023674	0.413900
H150	H	-0.091722	0.064071	0.348107
H151	H	-0.903975	0.654108	-0.000167
H152	H	-0.423272	0.693363	-0.000145
N153	N	-0.603761	0.435067	-0.000123
H154	H	-0.631244	0.407387	-0.000115
H155	H	-0.583106	0.432928	0.075737
H156	H	-0.219578	0.486975	-0.000199
H157	H	-0.311030	0.487899	-0.000162
H158	H	-0.457579	0.445248	-0.000133
