data_functionalizedCrystal
_audit_creation_method	'MofGen! by Chris Wilmer'
_symmetry_space_group_name_H-M	'P1'
_symmetry_Int_Tables_number	1
_symmetry_cell_setting	triclinic
loop_
_symmetry_equiv_pos_as_xyz
  x,y,z
_cell_length_a	16.109301
_cell_length_b	14.971486
_cell_length_c	14.048226
_cell_angle_alpha	90.006640
_cell_angle_beta	89.996259
_cell_angle_gamma	96.462195
loop_
_atom_site_label
_atom_site_type_symbol
_atom_site_fract_x
_atom_site_fract_y
_atom_site_fract_z
O1	O	1.103277	-0.114973	-0.079101
O2	O	1.603277	0.385027	0.420899
O3	O	0.861233	-0.129281	-0.079116
O4	O	1.361233	0.370719	0.420884
O5	O	0.988743	0.008082	-0.079101
O6	O	1.488743	0.508082	0.420899
O7	O	0.975768	-0.252337	-0.079116
O8	O	1.475768	0.247663	0.420884
O9	O	0.988727	0.008090	0.079220
O10	O	1.488727	0.508090	0.579220
O11	O	0.861218	-0.129273	0.079205
O12	O	1.361218	0.370727	0.579205
O13	O	1.103262	-0.114965	0.079220
O14	O	1.603262	0.385035	0.579220
Zn15	Zn	0.982237	-0.122118	0.104350
Zn16	Zn	1.482237	0.377882	0.604350
Zn17	Zn	0.982258	-0.122129	-0.104245
Zn18	Zn	1.482258	0.377871	0.395755
O19	O	0.975752	-0.252329	0.079206
O20	O	1.475752	0.247671	0.579206
C21	C	0.830250	-0.128698	0.000043
C22	C	1.330250	0.371302	0.500043
C23	C	0.737952	-0.126960	0.000037
C24	C	1.237952	0.373040	0.500037
C25	C	0.515777	-0.204428	0.000044
C26	C	1.015777	0.295572	0.500044
C27	C	0.429054	-0.202789	0.000050
C28	C	0.929054	0.297211	0.500050
C29	C	0.448725	-0.039812	0.000055
C30	C	0.948725	0.460188	0.500055
C31	C	0.535446	-0.041452	0.000056
C32	C	1.035446	0.458548	0.500056
C33	C	0.568969	-0.123763	0.000045
C34	C	1.068969	0.376237	0.500045
C35	C	0.395526	-0.120483	0.000051
C36	C	0.895526	0.379517	0.500051
C37	C	0.301498	-0.118705	0.000058
C38	C	0.801498	0.381295	0.500058
C39	C	0.663003	-0.125542	0.000040
C40	C	1.163003	0.374458	0.500040
C41	C	0.988155	0.041410	0.000059
C42	C	1.488155	0.541410	0.500059
C43	C	0.986416	0.140705	0.000058
C44	C	1.486416	0.640705	0.500058
C45	C	1.134245	-0.115549	0.000060
C46	C	1.634245	0.384451	0.500060
C47	C	1.226543	-0.117286	0.000059
C48	C	1.726543	0.382714	0.500059
C49	C	0.976340	-0.285657	0.000043
C50	C	1.476340	0.214343	0.500043
C51	C	0.978079	-0.384951	0.000038
C52	C	1.478079	0.115049	0.500038
N53	N	0.982230	-0.122110	0.246710
N54	N	1.482230	0.377890	0.746710
C55	C	1.061324	0.198038	0.000063
C56	C	1.561324	0.698038	0.500063
C57	C	1.059685	0.291335	0.000054
C58	C	1.559685	0.791335	0.500054
C59	C	0.983137	0.327297	0.000046
C60	C	1.483137	0.827297	0.500046
C61	C	0.908223	0.269956	0.000037
C62	C	1.408223	0.769956	0.500037
C63	C	0.909863	0.176661	0.000040
C64	C	1.409863	0.676661	0.500040
C65	C	0.904811	0.464414	0.000034
C66	C	1.404811	0.964414	0.500034
C67	C	0.903171	0.557716	0.000033
C68	C	1.403171	1.057716	0.500033
C69	C	1.054633	0.579088	0.000047
C70	C	1.554633	1.079088	0.500047
C71	C	1.056273	0.485793	0.000050
C72	C	1.556273	0.985793	0.500050
C73	C	0.981359	0.428458	0.000044
C74	C	1.481359	0.928458	0.500044
N75	N	0.982272	-0.122129	-0.246606
N76	N	1.482272	0.377871	0.253394
C77	C	1.038709	-0.061311	0.296535
C78	C	1.538709	0.438689	0.796535
C79	C	1.038714	-0.061310	0.396193
C80	C	1.538714	0.438690	0.896193
C81	C	0.982244	-0.122114	0.446024
C82	C	1.482244	0.377886	0.946024
C83	C	0.925759	-0.182916	0.396192
C84	C	1.425759	0.317084	0.896192
C85	C	0.925750	-0.182912	0.296537
C86	C	1.425750	0.317088	0.796537
C87	C	0.925783	-0.182923	0.603907
C88	C	1.425783	0.317077	1.103907
C89	C	0.925793	-0.182929	0.703569
C90	C	1.425793	0.317071	1.203569
C91	C	1.038747	-0.061321	0.703563
C92	C	1.538747	0.438679	1.203563
C93	C	1.038738	-0.061317	0.603907
C94	C	1.538738	0.438683	1.103907
C95	C	0.982254	-0.122120	0.554082
C96	C	1.482254	0.377880	1.054082
H97	H	1.123658	0.168766	0.000076
H98	H	1.623658	0.668766	0.500076
Br99	Br	0.849113	-0.265432	0.463817
Br100	Br	1.349113	0.234568	0.963817
H101	H	0.848865	0.129980	0.000036
H102	H	1.348865	0.629980	0.500036
Br103	Br	0.561270	-0.316135	0.000033
Br104	Br	1.061270	0.183865	0.500033
H105	H	1.120683	0.338013	0.000060
H106	H	1.620683	0.838013	0.500060
Br107	Br	0.403224	0.071890	0.000066
Br108	Br	0.903224	0.571890	0.500066
Br109	Br	0.849121	-0.265440	0.536290
Br110	Br	1.349121	0.234560	1.036290
Br111	Br	1.115383	0.021195	0.536275
Br112	Br	1.615383	0.521195	1.036275
Br113	Br	1.115406	0.021193	0.771185
Br114	Br	1.615406	0.521193	1.271185
Br115	Br	0.607643	0.068030	0.000070
Br116	Br	1.107643	0.568030	0.500070
Br117	Br	1.160161	0.436987	0.000059
Br118	Br	1.660161	0.936987	0.500059
H119	H	1.084703	-0.011802	0.436759
H120	H	1.584703	0.488198	0.936759
H121	H	0.845896	0.299244	0.000025
H122	H	1.345896	0.799244	0.500025
H123	H	0.385748	-0.268475	0.000051
H124	H	0.885748	0.231525	0.500051
Br125	Br	1.156304	0.656897	0.000054
Br126	Br	1.656304	1.156897	0.500054
H127	H	0.840839	0.586992	0.000041
H128	H	1.340839	1.086992	0.500041
H129	H	0.879808	-0.232441	0.744137
H130	H	1.379808	0.267559	1.244137
Br131	Br	0.849091	-0.265423	0.228917
Br132	Br	1.349091	0.234577	0.728917
H133	H	0.843807	0.417734	0.000026
H134	H	1.343807	0.917734	0.500026
Br135	Br	1.115357	0.021207	0.228917
Br136	Br	1.615357	0.521207	0.728917
