data_functionalizedCrystal
_audit_creation_method	'MofGen! by Chris Wilmer'
_symmetry_space_group_name_H-M	'P1'
_symmetry_Int_Tables_number	1
_symmetry_cell_setting	triclinic
loop_
_symmetry_equiv_pos_as_xyz
  x,y,z
_cell_length_a	13.897449
_cell_length_b	13.897448
_cell_length_c	13.897449
_cell_angle_alpha	89.992317
_cell_angle_beta	89.988684
_cell_angle_gamma	90.019497
loop_
_atom_site_label
_atom_site_type_symbol
_atom_site_fract_x
_atom_site_fract_y
_atom_site_fract_z
Zn1	Zn	-1.474550	0.384180	0.545535
Zn2	Zn	-1.474480	0.545444	0.384244
Zn3	Zn	-1.313280	0.384164	0.384239
Zn4	Zn	-1.313215	0.545434	0.545482
O5	O	-1.393881	0.464805	0.464875
O6	O	-1.609522	0.405582	0.524165
O7	O	-1.453094	0.524048	0.249262
O8	O	-1.334729	0.249185	0.405655
O9	O	-1.609471	0.524062	0.405665
O10	O	-1.453213	0.249196	0.524159
O11	O	-1.334662	0.405556	0.249258
O12	O	-1.178290	0.405547	0.405603
O13	O	-1.334618	0.524045	0.680470
O14	O	-1.178242	0.524031	0.524068
O15	O	-1.453150	0.405572	0.680510
O16	O	-1.453031	0.680424	0.405612
O17	O	-1.334551	0.680417	0.524073
C18	C	-1.143267	0.464787	0.464830
C19	C	-1.036053	0.464802	0.464833
C20	C	-0.948983	0.464804	0.464845
C21	C	-0.839751	0.464809	0.464869
C22	C	-1.393803	0.715420	0.464858
C23	C	-1.393857	0.822634	0.464884
C24	C	-1.393885	0.464810	0.716468
C25	C	-1.393886	0.464811	0.823682
C26	C	-0.645474	0.464821	0.464909
C27	C	-0.752688	0.464818	0.464894
C28	C	-1.393952	1.018929	0.464953
C29	C	-1.393897	0.909696	0.464917
C30	C	-1.393978	1.213213	0.464924
C31	C	-1.393998	1.105999	0.464974
C32	C	-1.393862	0.464816	1.019977
C33	C	-1.393873	0.464816	0.910745
C34	C	-1.393868	0.464821	1.214261
C35	C	-1.393861	0.464813	1.107047
