data_functionalizedCrystal
_audit_creation_method	'MofGen! by Chris Wilmer'
_symmetry_space_group_name_H-M	'P1'
_symmetry_Int_Tables_number	1
_symmetry_cell_setting	triclinic
loop_
_symmetry_equiv_pos_as_xyz
  x,y,z
_cell_length_a	14.853568
_cell_length_b	13.330367
_cell_length_c	14.853569
_cell_angle_alpha	89.994190
_cell_angle_beta	83.635503
_cell_angle_gamma	89.995730
loop_
_atom_site_label
_atom_site_type_symbol
_atom_site_fract_x
_atom_site_fract_y
_atom_site_fract_z
O1	O	-1.196369	0.083350	-0.117709
O2	O	-0.933909	0.083369	-0.131729
O3	O	-1.072149	0.083349	0.006511
O4	O	-1.058129	0.083369	-0.255949
O5	O	-1.072129	-0.083498	0.006514
O6	O	-0.933889	-0.083478	-0.131726
O7	O	-1.196349	-0.083497	-0.117706
Cu8	Cu	-1.065117	-0.098722	-0.124716
Cu9	Cu	-1.065141	0.098594	-0.124719
O10	O	-1.058109	-0.083478	-0.255945
C11	C	-0.900311	-0.000052	-0.131092
C12	C	-0.800227	-0.000045	-0.129188
C13	C	-0.377054	0.090888	-0.121135
C14	C	-0.377053	-0.091015	-0.121132
C15	C	-0.471087	-0.091012	-0.122920
C16	C	-0.518109	-0.000058	-0.123817
C17	C	-0.471096	0.090894	-0.122926
C18	C	-0.518105	-0.181963	-0.123821
C19	C	-0.612145	-0.181964	-0.125610
C20	C	-0.659169	-0.091008	-0.126501
C21	C	-0.612151	-0.000053	-0.125608
C22	C	-0.659172	0.090901	-0.126505
C23	C	-0.612157	0.181858	-0.125607
C24	C	-0.518120	0.181849	-0.123817
C25	C	-0.753206	-0.091000	-0.128291
C26	C	-0.753215	0.090906	-0.128297
N27	N	-1.065107	-0.237504	-0.124712
C28	C	-1.003926	-0.710118	-0.185908
C29	C	-1.126380	-0.710103	-0.063524
C30	C	-1.126370	-0.605085	-0.063521
C31	C	-1.065138	-0.552578	-0.124713
C32	C	-1.003916	-0.605090	-0.185909
C33	C	-1.187597	-0.552566	-0.002333
C34	C	-1.187590	-0.447541	-0.002328
C35	C	-1.126353	-0.395032	-0.063517
C36	C	-1.065128	-0.447550	-0.124714
C37	C	-1.003895	-0.395043	-0.185907
C38	C	-0.942665	-0.447560	-0.247100
C39	C	-0.942678	-0.552581	-0.247098
C40	C	-1.126340	-0.290011	-0.063520
C41	C	-1.003885	-0.290015	-0.185908
C42	C	-0.229948	-0.000072	-0.118341
C43	C	-0.330032	-0.000066	-0.120238
C44	C	-1.071504	-0.000075	0.040101
C45	C	-1.069599	-0.000075	0.140185
N46	N	-1.065158	0.237375	-0.124715
C47	C	-1.058755	-0.000052	-0.289536
C48	C	-1.060659	-0.000044	-0.389619
C49	C	-0.986588	-0.000071	0.176561
C50	C	-1.150821	-0.000072	0.197850
C51	C	-1.149034	-0.000068	0.291884
C52	C	-1.066024	-0.000064	0.328261
C53	C	-0.984799	-0.000064	0.270604
C54	C	-1.230257	-0.000057	0.349548
C55	C	-1.228474	-0.000052	0.443589
C56	C	-1.145462	-0.000055	0.479967
C57	C	-1.064235	-0.000056	0.422304
C58	C	-0.981224	-0.000052	0.458681
C59	C	-0.899995	-0.000060	0.401019
C60	C	-0.901787	-0.000067	0.306983
C61	C	-1.143670	-0.000048	0.574004
C62	C	-0.979435	-0.000044	0.552723
H63	H	-0.650418	-0.256026	-0.126340
N64	N	-0.467413	0.279944	-0.122845
H65	H	-0.400706	0.266137	-0.121577
H66	H	-0.476612	0.319670	-0.179000
N67	N	-1.253618	-0.609213	0.063668
H68	H	-1.243150	-0.590943	0.127671
H69	H	-1.317590	-0.590923	0.053101
N70	N	-1.316079	-0.000050	0.505777
H71	H	-1.368936	-0.000054	0.468462
H72	H	-1.318906	-0.061904	0.545261
N73	N	-0.803919	0.189015	-0.129264
H74	H	-0.835695	0.193080	-0.185851
H75	H	-0.850129	0.193008	-0.074129
H76	H	-1.297840	-0.000123	0.319923
H77	H	-0.954018	-0.247271	-0.235735
N78	N	-1.240348	-0.000090	0.158617
H79	H	-1.244762	0.061753	0.120063
H80	H	-1.244676	-0.061988	0.120131
H81	H	-1.237446	-0.404789	0.047499
N82	N	-1.192378	-0.233367	0.002466
H83	H	-1.231173	-0.282566	0.041227
H84	H	-1.157817	-0.189805	0.042391
H85	H	-0.835656	-0.000071	0.260026
H86	H	-0.911836	-0.000050	0.582333
H87	H	-0.338770	0.164943	-0.120399
H88	H	-0.832408	-0.000051	0.430649
N89	N	-0.898980	-0.000106	0.114378
H90	H	-0.912704	-0.000121	0.049285
H91	H	-0.862800	0.061742	0.126149
H92	H	-0.650453	0.255913	-0.126343
H93	H	-1.209805	-0.000032	0.620948
N94	N	-0.326343	-0.189112	-0.120175
H95	H	-0.259486	-0.175321	-0.120139
H96	H	-0.349171	-0.228239	-0.064019
H97	H	-0.479813	-0.256012	-0.123097
H98	H	-0.892813	-0.404797	-0.296928
N99	N	-0.803910	-0.189092	-0.129269
H100	H	-0.794782	-0.228867	-0.073118
H101	H	-0.870597	-0.175207	-0.130572
N102	N	-0.876641	-0.609221	-0.313094
H103	H	-0.885944	-0.683719	-0.303809
H104	H	-0.887129	-0.590854	-0.377070
H105	H	-0.954070	-0.752879	-0.235728
H106	H	-1.176238	-0.752858	-0.013707
