data_functionalizedCrystal
_audit_creation_method	'MofGen! by Chris Wilmer'
_symmetry_space_group_name_H-M	'P1'
_symmetry_Int_Tables_number	1
_symmetry_cell_setting	triclinic
loop_
_symmetry_equiv_pos_as_xyz
  x,y,z
_cell_length_a	19.077105
_cell_length_b	12.827892
_cell_length_c	19.076919
_cell_angle_alpha	87.724465
_cell_angle_beta	89.923776
_cell_angle_gamma	87.711903
loop_
_atom_site_label
_atom_site_type_symbol
_atom_site_fract_x
_atom_site_fract_y
_atom_site_fract_z
Zn1	Zn	1.058323	-0.505562	0.440440
Zn2	Zn	1.062981	-0.673587	0.322941
Zn3	Zn	0.945540	-0.491563	0.318233
Zn4	Zn	0.940802	-0.672957	0.435693
O5	O	1.001912	-0.585917	0.379327
O6	O	1.157274	-0.533973	0.428810
O7	O	1.051334	-0.643846	0.223985
O8	O	0.960534	-0.347187	0.334460
O9	O	1.160695	-0.657421	0.342484
O10	O	1.043396	-0.357472	0.424245
O11	O	0.965050	-0.510114	0.220526
O12	O	0.846579	-0.509503	0.329857
O13	O	0.952460	-0.656347	0.534655
O14	O	0.843098	-0.642772	0.416155
O15	O	1.038802	-0.533362	0.538142
O16	O	1.046740	-0.819737	0.337881
O17	O	0.956976	-0.819274	0.420720
C18	C	0.819342	-0.574551	0.371981
C19	C	0.741237	-0.569714	0.368855
C20	C	0.702753	-0.636925	0.412246
C21	C	0.629365	-0.632367	0.409312
C22	C	0.594463	-0.560602	0.362983
C23	C	0.632953	-0.493385	0.319590
C24	C	0.706339	-0.497938	0.322528
C25	C	0.375174	-0.539528	0.349389
C26	C	0.301782	-0.534981	0.346453
C27	C	0.298199	-0.673963	0.436177
C28	C	0.371587	-0.678514	0.439108
C29	C	0.410071	-0.611293	0.395717
N30	N	0.519449	-0.555944	0.359982
N31	N	0.485083	-0.615947	0.398723
C32	C	1.001868	-0.857424	0.379313
C33	C	1.001913	-0.973581	0.379333
C34	C	1.046380	-1.025566	0.338391
C35	C	1.046427	-1.145620	0.338411
C36	C	1.185194	-0.597329	0.386702
C37	C	1.263298	-0.602192	0.389845
C38	C	0.994583	-0.596346	0.562607
C39	C	0.991460	-0.600790	0.640711
C40	C	1.001974	-0.313353	0.379357
C41	C	1.002000	-0.197202	0.379370
C42	C	1.009252	-0.575456	0.196761
C43	C	1.012511	-0.570727	0.118663
C44	C	1.034945	-0.538849	0.679221
C45	C	1.032002	-0.543020	0.752607
C46	C	0.985578	-0.609138	0.787481
C47	C	0.942089	-0.671081	0.748966
C48	C	0.945028	-0.666904	0.675581
C49	C	0.971962	-0.628492	1.006763
C50	C	0.969027	-0.632667	1.080153
C51	C	1.058939	-0.504604	1.083789
C52	C	1.061878	-0.500438	1.010402
C53	C	1.018386	-0.562376	0.971894
N54	N	0.982570	-0.613406	0.862494
N55	N	1.021391	-0.558103	0.896882
H56	H	0.598034	-0.687098	0.444645
O57	O	0.260709	-0.739145	0.478301
C58	C	0.188452	-0.719759	0.465765
H59	H	0.179350	-0.637135	0.442441
H60	H	0.169109	-0.778235	0.427442
C61	C	0.159127	-0.832685	0.563992
C62	C	0.147948	-0.731202	0.535350
H63	H	0.134141	-0.839748	0.606914
H64	H	0.207808	-0.845749	0.572437
H65	H	0.143008	-0.881403	0.532049
H66	H	0.164075	-0.682487	0.567289
H67	H	0.099269	-0.718130	0.526912
O68	O	0.267987	-0.465169	0.301430
C69	C	0.317689	-0.406830	0.263750
H70	H	0.368858	-0.408157	0.294629
H71	H	0.327615	-0.442414	0.210649
C72	C	0.226608	-0.291616	0.214681
C73	C	0.289452	-0.293237	0.252611
H74	H	0.209189	-0.221547	0.207807
H75	H	0.193122	-0.330921	0.240065
H76	H	0.234888	-0.321274	0.170435
H77	H	0.281169	-0.263592	0.296860
H78	H	0.322936	-0.253924	0.227234
O79	O	0.956510	-1.026348	0.421235
C80	C	0.915143	-0.954702	0.459285
H81	H	0.943743	-0.878756	0.462931
H82	H	0.862815	-0.938435	0.431367
C83	C	0.866881	-1.094280	0.529157
C84	C	0.902011	-1.001006	0.533641
H85	H	0.858777	-1.122843	0.575022
H86	H	0.894748	-1.142551	0.503521
H87	H	0.823278	-1.080712	0.505889
H88	H	0.945617	-1.014578	0.556900
H89	H	0.874150	-0.952738	0.559283
O90	O	0.902716	-0.726925	0.638140
C91	C	0.859053	-0.662196	0.593856
H92	H	0.853846	-0.580879	0.615803
H93	H	0.883005	-0.656788	0.539114
C94	C	0.792435	-0.808515	0.562830
C95	C	0.786034	-0.708642	0.589789
H96	H	0.747394	-0.837166	0.560318
H97	H	0.821852	-0.852125	0.592663
H98	H	0.812397	-0.803995	0.517214
H99	H	0.766080	-0.713164	0.635407
H100	H	0.756611	-0.665032	0.559963
O101	O	1.080060	-0.474531	0.645456
C102	C	1.117820	-0.420774	0.695186
H103	H	1.086942	-0.418343	0.746337
H104	H	1.170867	-0.462807	0.705138
C105	C	1.167044	-0.311540	0.604145
C106	C	1.129117	-0.308547	0.666968
H107	H	1.174016	-0.242315	0.586738
H108	H	1.141607	-0.347760	0.570640
H109	H	1.211246	-0.346573	0.612447
H110	H	1.084913	-0.273527	0.658663
H111	H	1.154547	-0.272319	0.700471
O112	O	0.923864	-0.696919	1.113921
C113	C	0.886120	-0.750712	1.064197
H114	H	0.885787	-0.704781	1.011793
H115	H	0.912143	-0.831237	1.057418
C116	C	0.810592	-0.819155	1.154193
C117	C	0.810179	-0.762737	1.089831
H118	H	0.763750	-0.826578	1.170006
H119	H	0.836023	-0.782918	1.187694
H120	H	0.832282	-0.886253	1.148535
H121	H	0.788498	-0.695637	1.095492
H122	H	0.784743	-0.798964	1.056332
O123	O	1.074139	-0.482726	0.790037
C124	C	1.032445	-0.415167	0.830886
H125	H	0.977988	-0.404021	0.806540
H126	H	1.027792	-0.450476	0.886406
C127	C	1.133633	-0.322419	0.863296
C128	C	1.066750	-0.308722	0.833391
H129	H	1.154795	-0.256760	0.864845
H130	H	1.161724	-0.367936	0.835778
H131	H	1.129746	-0.351846	0.909560
H132	H	1.070638	-0.279308	0.787125
H133	H	1.038660	-0.263196	0.860902
H134	H	0.406498	-0.484799	0.314053
O135	O	0.598942	-0.423760	0.274607
C136	C	0.525916	-0.434132	0.281330
H137	H	0.514969	-0.515517	0.303844
H138	H	0.503609	-0.373081	0.317992
C139	C	0.504512	-0.318039	0.181083
C140	C	0.491067	-0.418001	0.208730
H141	H	0.483014	-0.308084	0.136301
H142	H	0.553711	-0.311047	0.176555
H143	H	0.485923	-0.267174	0.211642
H144	H	0.509664	-0.468863	0.178176
H145	H	0.441870	-0.425001	0.213252
H146	H	1.084418	-0.981195	0.303327
H147	H	0.963926	-1.152504	0.414421
O148	O	1.107023	-0.436335	0.976484
C149	C	1.154085	-0.496203	0.935823
H150	H	1.157562	-0.580032	0.958106
H151	H	1.134559	-0.495305	0.879340
C152	C	1.222903	-0.346612	0.910240
C153	C	1.227178	-0.449571	0.937612
H154	H	1.267990	-0.317846	0.911340
H155	H	1.191195	-0.306276	0.937632
H156	H	1.206629	-0.345878	0.863173
H157	H	1.243443	-0.450303	0.984681
H158	H	1.258890	-0.489906	0.910229
O159	O	0.929815	-0.688718	0.969296
C160	C	0.971495	-0.756315	0.928461
H161	H	1.025195	-0.722155	0.919603
H162	H	0.978069	-0.835842	0.957051
C163	C	0.869648	-0.810829	0.868083
C164	C	0.935602	-0.768868	0.857198
H165	H	0.847507	-0.818577	0.824125
H166	H	0.841567	-0.765291	0.895595
H167	H	0.875136	-0.877097	0.891909
H168	H	0.930113	-0.702596	0.833379
H169	H	0.963681	-0.814396	0.829679
H170	H	0.731165	-0.695367	0.449970
H171	H	0.737673	-0.443203	0.287198
H172	H	0.399999	-0.736955	0.476832
H173	H	1.084495	-1.190325	0.303357
H174	H	1.094347	-0.454176	1.115150
H175	H	0.904287	-0.724912	0.777367
