data_functionalizedCrystal
_audit_creation_method	'MofGen! by Chris Wilmer'
_symmetry_space_group_name_H-M	'P1'
_symmetry_Int_Tables_number	1
_symmetry_cell_setting	triclinic
loop_
_symmetry_equiv_pos_as_xyz
  x,y,z
_cell_length_a	16.109301
_cell_length_b	16.109301
_cell_length_c	8.140239
_cell_angle_alpha	89.995060
_cell_angle_beta	89.999641
_cell_angle_gamma	83.461532
loop_
_atom_site_label
_atom_site_type_symbol
_atom_site_fract_x
_atom_site_fract_y
_atom_site_fract_z
O1	O	1.103130	0.106867	-0.136528
O2	O	0.861068	0.120166	-0.136552
O3	O	0.988748	-0.007515	-0.136523
O4	O	0.975449	0.234547	-0.136558
O5	O	0.988741	-0.007516	0.136704
O6	O	0.861061	0.120165	0.136675
O7	O	1.103123	0.106865	0.136699
Zn8	Zn	0.982091	0.113515	0.180067
Zn9	Zn	0.982100	0.113517	-0.179921
O10	O	0.975442	0.234546	0.136669
C11	C	0.830089	0.119627	0.000059
C12	C	0.737794	0.118011	0.000050
C13	C	0.428796	0.188494	0.000069
C14	C	0.515516	0.190020	0.000059
C15	C	0.535389	0.038531	0.000059
C16	C	0.448671	0.037007	0.000057
C17	C	0.395376	0.111991	0.000070
C18	C	0.568815	0.115041	0.000062
C19	C	0.662841	0.116694	0.000052
C20	C	0.301344	0.110338	0.000077
C21	C	0.988206	-0.038490	0.000091
C22	C	0.986591	-0.130785	0.000094
C23	C	1.058599	-0.353058	0.000075
C24	C	1.057075	-0.439778	0.000061
C25	C	0.905586	-0.419904	0.000053
C26	C	0.907111	-0.333185	0.000054
C27	C	0.983620	-0.299765	0.000074
C28	C	0.980571	-0.473204	0.000058
C29	C	0.978918	-0.567230	0.000043
C30	C	0.985273	-0.205733	0.000086
C31	C	1.134101	0.107405	0.000084
C32	C	1.226396	0.109020	0.000082
C33	C	0.975984	0.265522	0.000051
C34	C	0.977599	0.357817	0.000038
N35	N	0.982090	0.113513	0.425750
N36	N	0.982107	0.113512	-0.425604
H37	H	0.421461	-0.025296	0.000052
H38	H	0.578792	-0.022518	0.000052
H39	H	0.542722	0.252317	0.000056
Cl40	Cl	1.154781	-0.311046	0.000095
H41	H	1.118130	-0.483167	0.000058
Cl42	Cl	0.809409	-0.461925	0.000029
H43	H	0.385405	0.249551	0.000078
H44	H	0.846050	-0.289791	0.000049
