data_functionalizedCrystal
_audit_creation_method	'MofGen! by Chris Wilmer'
_symmetry_space_group_name_H-M	'P1'
_symmetry_Int_Tables_number	1
_symmetry_cell_setting	triclinic
loop_
_symmetry_equiv_pos_as_xyz
  x,y,z
_cell_length_a	23.532407
_cell_length_b	8.559649
_cell_length_c	7.681481
_cell_angle_alpha	94.930900
_cell_angle_beta	95.692559
_cell_angle_gamma	103.686329
loop_
_atom_site_label
_atom_site_type_symbol
_atom_site_fract_x
_atom_site_fract_y
_atom_site_fract_z
O1	O	0.741120	-0.209300	-0.146206
O2	O	0.574083	-0.237390	-0.146257
O3	O	0.672318	0.009491	-0.146225
O4	O	0.642885	-0.456182	-0.146237
O5	O	0.684412	0.039946	0.146637
O6	O	0.586177	-0.206935	0.146605
O7	O	0.753214	-0.178845	0.146656
Zn8	Zn	0.671616	-0.188055	0.193129
Zn9	Zn	0.655681	-0.228181	-0.192729
O10	O	0.654979	-0.425726	0.146624
C11	C	0.558943	-0.221448	0.000168
C12	C	0.495815	-0.219300	0.000148
C13	C	0.680595	0.084283	0.000203
C14	C	0.687234	0.261768	0.000196
N15	N	0.682495	-0.160668	0.456466
C16	C	0.091182	-0.351903	0.000224
C17	C	0.031866	-0.349904	0.000235
O18	O	-0.010005	-0.472829	0.000296
N19	N	0.015363	-0.203135	0.000236
C20	C	0.058182	-0.058354	0.000244
O21	O	0.038698	0.066668	0.000248
C22	C	0.117498	-0.060353	0.000246
C23	C	0.133996	-0.207133	0.000227
C24	C	0.107682	-0.498671	0.000207
C25	C	0.166994	-0.500669	0.000193
C26	C	0.209807	-0.355899	0.000196
C27	C	0.193308	-0.209131	0.000213
C28	C	0.160315	0.084429	0.000267
C29	C	0.219634	0.082417	0.000270
C30	C	0.236132	-0.064363	0.000251
C31	C	0.295433	-0.066359	0.000202
N32	N	0.311936	-0.213128	0.000201
C33	C	0.269123	-0.357898	0.000198
C34	C	-0.066386	-0.054167	0.000244
C35	C	-0.125701	-0.052167	0.000229
C36	C	-0.152013	-0.343718	0.000223
C37	C	-0.092697	-0.345717	0.000225
C38	C	-0.049883	-0.200935	0.000243
C39	C	0.393684	-0.362084	0.000167
C40	C	0.453002	-0.364070	0.000145
C41	C	0.479309	-0.072519	0.000160
C42	C	0.419995	-0.070533	0.000173
C43	C	0.377183	-0.215328	0.000182
O44	O	0.337336	0.056502	0.000148
O45	O	0.288616	-0.482897	0.000218
C46	C	0.768353	-0.194788	0.000228
C47	C	0.831481	-0.196937	0.000236
C48	C	0.646702	-0.500519	0.000192
C49	C	0.640062	-0.678005	0.000188
N50	N	0.644807	-0.255554	-0.456067
H51	H	0.466430	-0.483601	0.000129
O52	O	0.066035	-0.639235	-0.000041
C53	C	-0.022442	-0.822043	-0.151866
C54	C	0.024671	-0.662785	-0.151761
H55	H	-0.055890	-0.841151	-0.274537
H56	H	-0.045855	-0.815718	-0.029396
H57	H	-0.000432	-0.927231	-0.151793
H58	H	0.002708	-0.557514	-0.151896
H59	H	0.048080	-0.669250	-0.274221
H60	H	0.594598	0.237775	0.000180
O61	O	-0.141662	0.090489	-0.000008
C62	C	-0.143613	0.324467	-0.151775
C63	C	-0.125498	0.162955	-0.151718
H64	H	-0.130562	0.383086	-0.274438
H65	H	-0.120373	0.408804	-0.029297
H66	H	-0.193358	0.301019	-0.151682
H67	H	-0.075761	0.186250	-0.151873
H68	H	-0.148779	0.078670	-0.274185
O69	O	0.598958	-0.371305	0.454300
C70	C	0.551186	-0.655742	0.397633
C71	C	0.603146	-0.524821	0.499232
H72	H	0.554547	-0.779887	0.433950
H73	H	0.552592	-0.652310	0.250059
H74	H	0.507922	-0.631928	0.433767
H75	H	0.646435	-0.548548	0.463246
H76	H	0.601687	-0.528286	0.646781
H77	H	0.732702	0.345999	0.000224
H78	H	0.720972	-0.063824	0.531685
H79	H	0.180420	-0.620193	0.000177
O80	O	0.352110	-0.502811	-0.000149
C81	C	0.305238	-0.767200	-0.151853
C82	C	0.352331	-0.607897	-0.151718
H83	H	0.305409	-0.852218	-0.274365
H84	H	0.259985	-0.740693	-0.151958
H85	H	0.315483	-0.826666	-0.029247
H86	H	0.342141	-0.548349	-0.274304
H87	H	0.397569	-0.634507	-0.151522
H88	H	-0.186882	-0.461597	0.000229
O89	O	-0.076590	-0.488171	0.000448
C90	C	-0.018660	-0.643914	0.152214
C91	C	-0.036836	-0.482488	0.152159
H92	H	0.013474	-0.639386	0.274877
H93	H	0.003427	-0.664902	0.029736
H94	H	-0.059465	-0.747017	0.152118
H95	H	0.003939	-0.379285	0.152317
H96	H	-0.058945	-0.461641	0.274626
H97	H	-0.031529	0.063738	0.000242
H98	H	0.146894	0.203953	0.000284
H99	H	0.254492	0.200319	0.000285
O100	O	0.520869	0.068112	-0.000149
C101	C	0.555235	0.300962	-0.151788
C102	C	0.508134	0.141716	-0.151692
H103	H	0.544948	0.360535	-0.274279
H104	H	0.600471	0.274384	-0.151907
H105	H	0.555134	0.385921	-0.029160
H106	H	0.508180	0.056681	-0.274299
H107	H	0.462920	0.168417	-0.151482
H108	H	0.406561	0.048985	0.000162
