data_functionalizedCrystal
_audit_creation_method	'MofGen! by Chris Wilmer'
_symmetry_space_group_name_H-M	'P1'
_symmetry_Int_Tables_number	1
_symmetry_cell_setting	triclinic
loop_
_symmetry_equiv_pos_as_xyz
  x,y,z
_cell_length_a	25.639242
_cell_length_b	21.295417
_cell_length_c	21.295412
_cell_angle_alpha	90.027661
_cell_angle_beta	90.026311
_cell_angle_gamma	90.022517
loop_
_atom_site_label
_atom_site_type_symbol
_atom_site_fract_x
_atom_site_fract_y
_atom_site_fract_z
Zn1	Zn	-0.799280	0.250711	-0.356092
Zn2	Zn	-0.299280	0.750711	0.143908
Zn3	Zn	-0.799215	0.355981	-0.250824
Zn4	Zn	-0.299215	0.855981	0.249176
Zn5	Zn	-0.711852	0.250719	-0.250819
Zn6	Zn	-0.211852	0.750719	0.249181
Zn7	Zn	-0.711818	0.355937	-0.356038
Zn8	Zn	-0.211818	0.855937	0.143962
O9	O	-0.755541	0.303337	-0.303444
O10	O	-0.255541	0.803337	0.196556
O11	O	-0.872437	0.264690	-0.342153
O12	O	-0.372437	0.764690	0.157847
O13	O	-0.787614	0.342039	-0.162734
O14	O	-0.287614	0.842039	0.337266
O15	O	-0.723490	0.162629	-0.264805
O16	O	-0.223490	0.662629	0.235195
O17	O	-0.872389	0.342031	-0.264813
O18	O	-0.372389	0.842031	0.235187
O19	O	-0.787724	0.162623	-0.342149
O20	O	-0.287724	0.662623	0.157851
O21	O	-0.723428	0.264704	-0.162731
O22	O	-0.223428	0.764704	0.337269
O23	O	-0.638682	0.264662	-0.264752
O24	O	-0.138682	0.764662	0.235248
O25	O	-0.723433	0.341957	-0.444135
O26	O	-0.223433	0.841957	0.055865
O27	O	-0.638657	0.341965	-0.342056
O28	O	-0.138657	0.841965	0.157944
O29	O	-0.787691	0.264648	-0.444175
O30	O	-0.287691	0.764648	0.055825
O31	O	-0.787581	0.444064	-0.264760
O32	O	-0.287581	0.944064	0.235240
O33	O	-0.723370	0.444032	-0.342060
O34	O	-0.223370	0.944032	0.157940
C35	C	-0.619699	0.303310	-0.303398
C36	C	-0.119699	0.803310	0.196602
C37	C	-0.561585	0.303313	-0.303393
C38	C	-0.061585	0.803313	0.196607
C39	C	-0.310395	0.263016	-0.263245
C40	C	0.189605	0.763016	0.236755
C41	C	-0.365000	0.263011	-0.263239
C42	C	0.135000	0.763011	0.236761
O43	O	-0.393240	0.228713	-0.229077
O44	O	0.106760	0.728713	0.270923
N45	N	-0.392311	0.303320	-0.303419
N46	N	0.107689	0.803320	0.196581
C47	C	-0.365015	0.343634	-0.343611
C48	C	0.134985	0.843634	0.156389
O49	O	-0.393259	0.377919	-0.377787
O50	O	0.106741	0.877919	0.122213
C51	C	-0.310411	0.343635	-0.343620
C52	C	0.189589	0.843635	0.156380
C53	C	-0.283103	0.303328	-0.303433
C54	C	0.216897	0.803328	0.196567
C55	C	-0.283087	0.222711	-0.223062
C56	C	0.216913	0.722711	0.276938
C57	C	-0.228486	0.222718	-0.223068
C58	C	0.271514	0.722718	0.276932
C59	C	-0.201194	0.263029	-0.263256
C60	C	0.298806	0.763029	0.236744
C61	C	-0.228503	0.303334	-0.303439
C62	C	0.271497	0.803334	0.196561
C63	C	-0.283116	0.383945	-0.383815
C64	C	0.216884	0.883945	0.116185
C65	C	-0.228509	0.383943	-0.383821
C66	C	0.271491	0.883943	0.116179
C67	C	-0.201201	0.343635	-0.343634
C68	C	0.298799	0.843635	0.156366
C69	C	-0.146610	0.343652	-0.343632
C70	C	0.353390	0.843652	0.156368
N71	N	-0.119299	0.303343	-0.303453
N72	N	0.380701	0.803343	0.196547
C73	C	-0.146591	0.263031	-0.263265
C74	C	0.353409	0.763031	0.236735
C75	C	-0.479685	0.343626	-0.343591
C76	C	0.020315	0.843626	0.156409
C77	C	-0.534288	0.343627	-0.343579
C78	C	-0.034288	0.843627	0.156421
C79	C	-0.534269	0.263003	-0.263208
C80	C	-0.034269	0.763003	0.236792
C81	C	-0.479666	0.263005	-0.263216
C82	C	0.020334	0.763005	0.236784
C83	C	-0.452374	0.303316	-0.303411
C84	C	0.047626	0.803316	0.196589
C85	C	-0.031926	0.263048	-0.263279
C86	C	0.468074	0.763048	0.236721
C87	C	0.022679	0.263060	-0.263286
C88	C	0.522679	0.763060	0.236714
C89	C	0.022656	0.343681	-0.343659
C90	C	0.522656	0.843681	0.156341
C91	C	-0.031945	0.343672	-0.343650
C92	C	0.468055	0.843672	0.156350
C93	C	-0.059234	0.303350	-0.303458
C94	C	0.440766	0.803350	0.196542
O95	O	-0.118335	0.377931	-0.377779
O96	O	0.381665	0.877931	0.122221
O97	O	-0.118340	0.228745	-0.229101
O98	O	0.381660	0.728745	0.270899
C99	C	-0.755479	0.466889	-0.303419
C100	C	-0.255479	0.966889	0.196581
C101	C	-0.755500	0.536857	-0.303429
C102	C	-0.255500	1.036857	0.196571
C103	C	0.108086	0.303364	-0.303481
C104	C	0.608086	0.803364	0.196519
C105	C	0.049972	0.303372	-0.303474
C106	C	0.549972	0.803372	0.196526
C107	C	-0.789096	1.036311	-0.263318
C108	C	-0.289096	1.536311	0.236682
C109	C	-0.789077	0.970568	-0.263301
C110	C	-0.289077	1.470568	0.236699
C111	C	-0.755611	0.937696	-0.303508
C112	C	-0.255611	1.437696	0.196492
C113	C	-0.722152	0.970572	-0.343723
C114	C	-0.222152	1.470572	0.156277
C115	C	-0.722169	1.036313	-0.343734
C116	C	-0.222169	1.536313	0.156266
N117	N	-0.751544	0.834444	-0.358587
N118	N	-0.251544	1.334444	0.141413
N119	N	-0.751531	0.771992	-0.358574
N120	N	-0.251531	1.271992	0.141426
C121	C	-0.755558	0.739621	-0.303475
C122	C	-0.255558	1.239621	0.196525
N123	N	-0.759607	0.772061	-0.248388
N124	N	-0.259607	1.272061	0.251612
N125	N	-0.759623	0.834519	-0.248401
N126	N	-0.259623	1.334519	0.251599
C127	C	-0.755589	0.866411	-0.303500
C128	C	-0.255589	1.366411	0.196500
C129	C	-0.788990	0.635468	-0.263241
C130	C	-0.288990	1.135468	0.236759
C131	C	-0.788967	0.569724	-0.263223
C132	C	-0.288967	1.069724	0.236777
C133	C	-0.722045	0.569730	-0.343650
C134	C	-0.222045	1.069730	0.156350
C135	C	-0.722066	0.635472	-0.343663
C136	C	-0.222066	1.135472	0.156337
C137	C	-0.755541	0.668337	-0.303459
C138	C	-0.255541	1.168337	0.196541
C139	C	-0.755565	0.303296	-0.467634
C140	C	-0.255565	0.803296	0.032366
C141	C	-0.755576	0.303279	-0.537602
C142	C	-0.255576	0.803279	-0.037602
C143	C	-0.755616	1.139147	-0.303490
C144	C	-0.255616	1.639147	0.196510
C145	C	-0.755644	1.069179	-0.303531
C146	C	-0.255644	1.569179	0.196469
C147	C	-0.789084	0.262925	-1.037082
C148	C	-0.289084	0.762925	-0.537082
C149	C	-0.789080	0.262940	-0.971340
C150	C	-0.289080	0.762940	-0.471340
C151	C	-0.755621	0.303196	-0.938442
C152	C	-0.255621	0.803196	-0.438442
C153	C	-0.722173	0.343451	-0.971292
C154	C	-0.222173	0.843451	-0.471292
C155	C	-0.722181	0.343439	-1.037033
C156	C	-0.222181	0.843439	-0.537033
N157	N	-0.709839	0.308035	-0.835204
N158	N	-0.209839	0.808035	-0.335204
N159	N	-0.709832	0.308042	-0.772752
N160	N	-0.209832	0.808042	-0.272752
C161	C	-0.755594	0.303235	-0.740367
C162	C	-0.255594	0.803235	-0.240367
N163	N	-0.801363	0.298408	-0.772792
N164	N	-0.301363	0.798408	-0.272792
N165	N	-0.801370	0.298397	-0.835249
N166	N	-0.301370	0.798397	-0.335249
C167	C	-0.755608	0.303214	-0.867156
C168	C	-0.255608	0.803214	-0.367156
C169	C	-0.789038	0.263002	-0.636239
C170	C	-0.289038	0.763002	-0.136239
C171	C	-0.789035	0.263022	-0.570495
C172	C	-0.289035	0.763022	-0.070495
C173	C	-0.722122	0.343530	-0.570449
C174	C	-0.222122	0.843530	-0.070449
C175	C	-0.722130	0.343513	-0.636191
C176	C	-0.222130	0.843513	-0.136191
C177	C	-0.755587	0.303246	-0.669083
C178	C	-0.255587	0.803246	-0.169083
C179	C	-0.755547	0.303332	-0.139892
C180	C	-0.255547	0.803332	0.360108
C181	C	-0.755638	0.303172	-0.069924
C182	C	-0.255638	0.803172	0.430076
H183	H	-0.206257	0.189895	-0.190344
H184	H	0.293743	0.689895	0.309656
H185	H	0.044911	0.230236	-0.230559
H186	H	0.544911	0.730236	0.269441
H187	H	-0.305303	0.189881	-0.190336
H188	H	0.194697	0.689881	0.309664
Cl189	Cl	-0.066276	0.394352	-0.394164
Cl190	Cl	0.433724	0.894352	0.105836
H191	H	0.044887	0.376504	-0.376377
H192	H	0.544887	0.876504	0.123623
Cl193	Cl	-0.831069	0.676787	-0.212696
Cl194	Cl	-0.331069	1.176787	0.287304
H195	H	-0.816319	0.943802	-0.230555
H196	H	-0.316319	1.443802	0.269445
Cl197	Cl	-0.680080	0.394112	-0.677481
Cl198	Cl	-0.180080	0.894112	-0.177481
Cl199	Cl	-0.831088	0.212424	-0.529207
Cl200	Cl	-0.331088	0.712424	-0.029207
Cl201	Cl	-0.831178	1.077623	-0.212774
Cl202	Cl	-0.331178	1.577623	0.287226
H203	H	-0.816280	0.230214	-0.663021
H204	H	-0.316280	0.730214	-0.163021
H205	H	-0.694881	0.376309	-0.543664
H206	H	-0.194881	0.876309	-0.043664
Cl207	Cl	-0.445341	0.212330	-0.212696
Cl208	Cl	0.054659	0.712330	0.287304
Cl209	Cl	-0.831026	0.528403	-0.212665
Cl210	Cl	-0.331026	1.028403	0.287335
H211	H	-0.054139	0.230211	-0.230553
H212	H	0.445861	0.730211	0.269447
H213	H	-0.556500	0.230178	-0.230485
H214	H	-0.056500	0.730178	0.269515
Cl215	Cl	-0.680112	1.077636	-0.394293
Cl216	Cl	-0.180112	1.577636	0.105707
Cl217	Cl	-0.680014	0.676794	-0.394225
Cl218	Cl	-0.180014	1.176794	0.105775
Cl219	Cl	-0.568611	0.394311	-0.394093
Cl220	Cl	-0.068611	0.894311	0.105907
Cl221	Cl	-0.445382	0.394313	-0.394121
Cl222	Cl	0.054618	0.894313	0.105879
Cl223	Cl	-0.680079	0.929249	-0.394267
Cl224	Cl	-0.180079	1.429249	0.105733
H225	H	-0.305342	0.416768	-0.416539
H226	H	0.194658	0.916768	0.083461
Cl227	Cl	-0.194204	0.434622	-0.434356
Cl228	Cl	0.305796	0.934622	0.065644
H229	H	-0.694794	0.542966	-0.376385
H230	H	-0.194794	1.042966	0.123615
H231	H	-0.816330	0.230139	-1.063858
H232	H	-0.316330	0.730139	-0.563858
H233	H	-0.816316	0.230163	-0.944594
H234	H	-0.316316	0.730163	-0.444594
H235	H	-0.694931	0.376229	-0.944502
H236	H	-0.194931	0.876229	-0.444502
Cl237	Cl	-0.680131	0.394040	-1.078323
Cl238	Cl	-0.180131	0.894040	-0.578323
