data_functionalizedCrystal
_audit_creation_method	'MofGen! by Chris Wilmer'
_symmetry_space_group_name_H-M	'P1'
_symmetry_Int_Tables_number	1
_symmetry_cell_setting	triclinic
loop_
_symmetry_equiv_pos_as_xyz
  x,y,z
_cell_length_a	18.215407
_cell_length_b	19.076808
_cell_length_c	19.077174
_cell_angle_alpha	90.063984
_cell_angle_beta	87.687393
_cell_angle_gamma	92.320996
loop_
_atom_site_label
_atom_site_type_symbol
_atom_site_fract_x
_atom_site_fract_y
_atom_site_fract_z
Zn1	Zn	1.128831	-0.295784	-0.386006
Zn2	Zn	1.628831	0.204216	0.113994
Zn3	Zn	1.118874	-0.408579	-0.263774
Zn4	Zn	1.618874	0.091421	0.236226
Zn5	Zn	1.001035	-0.291079	-0.268519
Zn6	Zn	1.501035	0.208921	0.231481
Zn7	Zn	1.000594	-0.413255	-0.381248
Zn8	Zn	1.500594	0.086745	0.118752
O9	O	1.062334	-0.352174	-0.324887
O10	O	1.562334	0.147826	0.175113
O11	O	1.230494	-0.310758	-0.369797
O12	O	1.730494	0.189242	0.130203
O13	O	1.099260	-0.389067	-0.166072
O14	O	1.599260	0.110933	0.333928
O15	O	1.022338	-0.193367	-0.288080
O16	O	1.522338	0.306633	0.211920
O17	O	1.223179	-0.393629	-0.279994
O18	O	1.723179	0.106371	0.220006
O19	O	1.116230	-0.196823	-0.374397
O20	O	1.616230	0.303177	0.125603
O21	O	1.012684	-0.302740	-0.169557
O22	O	1.512684	0.197260	0.330443
O23	O	0.897992	-0.307274	-0.283467
O24	O	1.397992	0.192726	0.216533
O25	O	1.021588	-0.401598	-0.480211
O26	O	1.521588	0.098402	0.019789
O27	O	0.897669	-0.397036	-0.366289
O28	O	1.397669	0.102964	0.133711
O29	O	1.115803	-0.315292	-0.483707
O30	O	1.615803	0.184708	0.016293
O31	O	1.098833	-0.507536	-0.275381
O32	O	1.598833	-0.007536	0.224619
O33	O	1.011933	-0.510971	-0.361689
O34	O	1.511933	-0.010971	0.138311
C35	C	0.871128	-0.352152	-0.324877
C36	C	1.371128	0.147848	0.175123
C37	C	0.789329	-0.352161	-0.324889
C38	C	1.289329	0.147839	0.175111
C39	C	0.524116	-0.398985	-0.367948
C40	C	1.024116	0.101015	0.132052
C41	C	0.600975	-0.398979	-0.367944
C42	C	1.100975	0.101021	0.132056
C43	C	0.601292	-0.305380	-0.281838
C44	C	1.101292	0.194620	0.218162
C45	C	0.524435	-0.305390	-0.281838
C46	C	1.024435	0.194610	0.218162
C47	C	0.485849	-0.352192	-0.324897
C48	C	0.985849	0.147808	0.175103
C49	C	0.639565	-0.352176	-0.324894
C50	C	1.139565	0.147824	0.175106
C51	C	0.722899	-0.352169	-0.324890
C52	C	1.222899	0.147831	0.175110
C53	C	0.402509	-0.352200	-0.324900
C54	C	0.902509	0.147800	0.175100
C55	C	1.054275	-0.534752	-0.317519
C56	C	1.554275	-0.034752	0.182481
C57	C	1.050896	-0.612860	-0.314391
C58	C	1.550896	-0.112860	0.185609
C59	C	1.098159	-0.651296	-0.357898
C60	C	1.598159	-0.151296	0.142102
C61	C	1.094982	-0.724688	-0.354960
C62	C	1.594982	-0.224688	0.145040
C63	C	1.044544	-0.759641	-0.308510
C64	C	1.544544	-0.259641	0.191490
C65	C	0.997275	-0.721200	-0.265001
C66	C	1.497275	-0.221200	0.234999
C67	C	1.000450	-0.647810	-0.267943
C68	C	1.500450	-0.147810	0.232057
C69	C	1.029807	-0.978946	-0.294890
C70	C	1.529807	-0.478946	0.205110
C71	C	1.026637	-1.052341	-0.291950
C72	C	1.526637	-0.552341	0.208050
C73	C	1.124343	-1.055824	-0.381910
C74	C	1.624343	-0.555824	0.118090
C75	C	1.127516	-0.982432	-0.384845
C76	C	1.627516	-0.482432	0.115155
C77	C	1.080245	-0.943998	-0.341339
C78	C	1.580245	-0.443998	0.158661
N79	N	1.041296	-0.834659	-0.305504
N80	N	1.541296	-0.334659	0.194496
N81	N	1.083490	-0.868982	-0.344349
N82	N	1.583490	-0.368982	0.155651
C83	C	1.254286	-0.352197	-0.324897
C84	C	1.754286	0.147803	0.175103
C85	C	1.336085	-0.352207	-0.324902
C86	C	1.836085	0.147793	0.175098
C87	C	1.069757	-0.359491	-0.508168
C88	C	1.569757	0.140509	-0.008168
C89	C	1.072921	-0.362610	-0.586272
C90	C	1.572921	0.137390	-0.086272
C91	C	1.070444	-0.168884	-0.332299
C92	C	1.570444	0.331116	0.167701
C93	C	1.073900	-0.090777	-0.335457
C94	C	1.573900	0.409223	0.164543
C95	C	1.029333	-0.319130	-0.624779
C96	C	1.529333	0.180870	-0.124779
C97	C	1.032302	-0.322065	-0.698166
C98	C	1.532302	0.177935	-0.198166
C99	C	1.078864	-0.368478	-0.733044
C100	C	1.578864	0.131522	-0.233044
C101	C	1.122453	-0.411963	-0.694531
C102	C	1.622453	0.088037	-0.194531
C103	C	1.119479	-0.409030	-0.621146
C104	C	1.619479	0.090970	-0.121146
C105	C	1.092587	-0.382071	-0.952327
C106	C	1.592587	0.117929	-0.452327
C107	C	1.095559	-0.384999	-1.025718
C108	C	1.595559	0.115001	-0.525718
C109	C	1.005407	-0.295102	-1.029348
C110	C	1.505407	0.204898	-0.529348
C111	C	1.002441	-0.292171	-0.955961
C112	C	1.502441	0.207829	-0.455961
C113	C	1.046027	-0.335658	-0.917454
C114	C	1.546027	0.164342	-0.417454
N115	N	1.081901	-0.371478	-0.808056
N116	N	1.581901	0.128522	-0.308056
N117	N	1.042985	-0.332661	-0.842443
N118	N	1.542985	0.167339	-0.342443
C119	C	1.054984	-0.344835	-0.142320
C120	C	1.554984	0.155165	0.357680
C121	C	1.051971	-0.341519	-0.064225
C122	C	1.551971	0.158481	0.435775
H123	H	1.139235	-0.622842	-0.395719
H124	H	1.639235	-0.122842	0.104281
C125	C	0.406158	-0.440559	-0.406186
C126	C	0.906158	0.059441	0.093814
C127	C	0.481700	-0.450432	-0.415272
C128	C	0.981700	0.049568	0.084728
H129	H	0.379975	-0.472320	-0.435406
H130	H	0.879975	0.027680	0.064594
H131	H	0.391200	-0.448890	-0.358550
H132	H	0.891200	0.051110	0.141450
H133	H	0.396066	-0.393772	-0.418452
H134	H	0.896066	0.106228	0.081548
H135	H	0.491793	-0.497217	-0.403002
H136	H	0.991793	0.002783	0.096998
H137	H	0.496663	-0.442106	-0.462918
H138	H	0.996663	0.057894	0.037082
C139	C	0.593885	-0.212873	-0.196715
C140	C	1.093885	0.287127	0.303285
C141	C	0.643708	-0.253938	-0.234508
C142	C	1.143708	0.246062	0.265492
H143	H	0.620070	-0.181118	-0.167492
H144	H	1.120070	0.318882	0.332508
H145	H	0.566335	-0.187263	-0.228454
H146	H	1.066335	0.312737	0.271546
H147	H	0.561467	-0.242389	-0.168560
H148	H	1.061467	0.257611	0.331440
H149	H	0.676122	-0.224422	-0.262667
H150	H	1.176122	0.275578	0.237333
H151	H	0.671270	-0.279550	-0.202765
H152	H	1.171270	0.220450	0.297235
C153	C	1.221226	-1.051894	-0.471137
C154	C	1.721226	-0.551894	0.028863
C155	C	1.176289	-1.098072	-0.429743
C156	C	1.676289	-0.598072	0.070257
H157	H	1.253295	-1.077977	-0.500668
H158	H	1.753295	-0.577977	-0.000668
H159	H	1.191460	-1.024354	-0.499125
H160	H	1.691460	-0.524354	0.000875
H161	H	1.249408	-1.022039	-0.441687
H162	H	1.749408	-0.522039	0.058313
H163	H	1.148103	-1.127924	-0.459192
H164	H	1.648103	-0.627924	0.040808
H165	H	1.206058	-1.125624	-0.401752
H166	H	1.706058	-0.625624	0.098248
C167	C	0.910187	-0.288627	-1.112259
C168	C	1.410187	0.211373	-0.612259
C169	C	0.957491	-0.247309	-1.071673
C170	C	1.457491	0.252691	-0.571673
H171	H	0.880600	-0.259121	-1.138384
H172	H	1.380600	0.240879	-0.638384
H173	H	0.938344	-0.316679	-1.143531
H174	H	1.438344	0.183321	-0.643531
H175	H	0.879528	-0.318096	-1.082381
H176	H	1.379528	0.181904	-0.582381
H177	H	0.988154	-0.217844	-1.101551
H178	H	1.488154	0.282156	-0.601551
H179	H	0.929332	-0.219246	-1.040398
H180	H	1.429332	0.280754	-0.540398
H181	H	1.133478	-0.422795	-1.054113
H182	H	1.633478	0.077205	-0.554113
C183	C	0.592937	-0.491489	-0.453064
C184	C	1.092937	0.008511	0.046936
C185	C	0.643039	-0.450412	-0.415271
C186	C	1.143039	0.049588	0.084729
H187	H	0.618907	-0.523240	-0.482285
H188	H	1.118907	-0.023240	0.017715
H189	H	0.560536	-0.517103	-0.421325
H190	H	1.060536	-0.017103	0.078675
H191	H	0.565397	-0.461980	-0.481221
H192	H	1.065397	0.038020	0.018779
H193	H	0.670575	-0.479921	-0.387110
H194	H	1.170575	0.020079	0.112890
H195	H	0.675452	-0.424796	-0.447014
H196	H	1.175452	0.075204	0.052986
C197	C	0.910117	-0.288715	-0.722116
C198	C	1.410117	0.211285	-0.222116
C199	C	0.984386	-0.274266	-0.740485
C200	C	1.484386	0.225734	-0.240485
H201	H	0.880534	-0.259201	-0.748237
H202	H	1.380534	0.240799	-0.248237
H203	H	0.897747	-0.336402	-0.732238
H204	H	1.397747	0.163598	-0.232238
H205	H	0.901702	-0.280329	-0.673417
H206	H	1.401702	0.219671	-0.173417
H207	H	0.992802	-0.282657	-0.789184
H208	H	1.492802	0.217343	-0.289184
H209	H	0.996760	-0.226568	-0.730368
H210	H	1.496760	0.273432	-0.230368
H211	H	1.128070	-0.417489	-0.920984
H212	H	1.628070	0.082511	-0.420984
H213	H	1.133474	-0.755979	-0.390383
H214	H	1.633474	-0.255979	0.109617
C215	C	0.434622	-0.291745	-0.187714
C216	C	0.934622	0.208255	0.312286
C217	C	0.482374	-0.253959	-0.234496
C218	C	0.982374	0.246041	0.265504
H219	H	0.408662	-0.259997	-0.158481
H220	H	0.908662	0.240003	0.341519
H221	H	0.400640	-0.319607	-0.213356
H222	H	0.900640	0.180393	0.286644
H223	H	0.462184	-0.321248	-0.159571
H224	H	0.962184	0.178752	0.340429
H225	H	0.454811	-0.224459	-0.262642
H226	H	0.954811	0.275541	0.237358
H227	H	0.516360	-0.226085	-0.208852
H228	H	1.016360	0.273915	0.291148
H229	H	1.168587	-0.953975	-0.422668
H230	H	1.668587	-0.453975	0.077332
C231	C	0.930361	-1.041532	-0.203331
C232	C	1.430361	-0.541532	0.296669
C233	C	0.971186	-1.090764	-0.240894
C234	C	1.471186	-0.590764	0.259106
H235	H	0.896128	-1.065254	-0.171816
H236	H	1.396128	-0.565254	0.328184
H237	H	0.962594	-1.011820	-0.177623
H238	H	1.462594	-0.511820	0.322377
H239	H	0.904665	-1.014139	-0.235080
H240	H	1.404665	-0.514139	0.264920
H241	H	0.996886	-1.118153	-0.209145
H242	H	1.496886	-0.618153	0.290855
H243	H	0.938949	-1.120488	-0.266603
H244	H	1.438949	-0.620488	0.233397
C245	C	0.933977	-0.896119	-0.288342
C246	C	1.433977	-0.396119	0.211658
C247	C	0.977850	-0.936709	-0.247062
C248	C	1.477850	-0.436709	0.252938
H249	H	0.901897	-0.870047	-0.258810
H250	H	1.401897	-0.370047	0.241190
H251	H	0.964465	-0.864797	-0.316417
H252	H	1.464465	-0.364797	0.183583
H253	H	0.905806	-0.925990	-0.317785
H254	H	1.405806	-0.425990	0.182215
H255	H	1.006025	-0.906838	-0.217622
H256	H	1.506025	-0.406838	0.282378
H257	H	0.947359	-0.968035	-0.218974
H258	H	1.447359	-0.468035	0.281026
H259	H	0.956205	-0.749665	-0.227183
H260	H	1.456205	-0.249665	0.272817
H261	H	1.154978	-0.444431	-0.589794
H262	H	1.654978	0.055569	-0.089794
C263	C	0.903556	-0.651735	-0.178725
C264	C	1.403556	-0.151735	0.321275
C265	C	0.948497	-0.605559	-0.220119
C266	C	1.448497	-0.105559	0.279881
H267	H	0.871483	-0.625649	-0.149199
H268	H	1.371483	-0.125649	0.350801
H269	H	0.875385	-0.681592	-0.208170
H270	H	1.375385	-0.181592	0.291830
H271	H	0.933325	-0.679271	-0.150724
H272	H	1.433325	-0.179271	0.349276
H273	H	0.918728	-0.578026	-0.248123
H274	H	1.418728	-0.078026	0.251877
H275	H	0.976671	-0.575689	-0.190670
H276	H	1.476671	-0.075689	0.309330
H277	H	0.991422	-0.281331	-0.596388
H278	H	1.491422	0.218669	-0.096388
C279	C	1.167044	-0.456371	-0.805412
C280	C	1.667044	0.043629	-0.305412
C281	C	1.173634	-0.462981	-0.732867
C282	C	1.673634	0.037019	-0.232867
H283	H	1.198647	-0.487866	-0.829076
H284	H	1.698647	0.012134	-0.329076
H285	H	1.117635	-0.467131	-0.817018
H286	H	1.617635	0.032869	-0.317018
H287	H	1.180393	-0.409636	-0.819342
H288	H	1.680393	0.090364	-0.319342
H289	H	1.160279	-0.509716	-0.718936
H290	H	1.660279	-0.009716	-0.218936
H291	H	1.223053	-0.452226	-0.721256
H292	H	1.723053	0.047774	-0.221256
C293	C	0.913627	-0.203607	-0.966923
C294	C	1.413627	0.296393	-0.466923
C295	C	0.951259	-0.241152	-0.917626
C296	C	1.451259	0.258848	-0.417626
H297	H	0.882029	-0.172111	-0.943255
H298	H	1.382029	0.327889	-0.443255
H299	H	0.948040	-0.177879	-0.996635
H300	H	1.448040	0.322121	-0.496635
H301	H	0.885279	-0.235370	-0.994305
H302	H	1.385279	0.264630	-0.494305
H303	H	0.979612	-0.209389	-0.890247
H304	H	1.479612	0.290611	-0.390247
H305	H	0.916841	-0.266882	-0.887901
H306	H	1.416841	0.233118	-0.387901
