data_functionalizedCrystal
_audit_creation_method	'MofGen! by Chris Wilmer'
_symmetry_space_group_name_H-M	'P1'
_symmetry_Int_Tables_number	1
_symmetry_cell_setting	triclinic
loop_
_symmetry_equiv_pos_as_xyz
  x,y,z
_cell_length_a	16.625539
_cell_length_b	11.169417
_cell_length_c	11.169416
_cell_angle_alpha	89.990722
_cell_angle_beta	89.977153
_cell_angle_gamma	90.019099
loop_
_atom_site_label
_atom_site_type_symbol
_atom_site_fract_x
_atom_site_fract_y
_atom_site_fract_z
Zn1	Zn	-0.455908	-1.834932	-0.477839
Zn2	Zn	-0.122575	-1.501598	-0.144506
Zn3	Zn	0.210758	-1.168265	0.188828
Zn4	Zn	-0.321088	-1.834830	-0.678551
Zn5	Zn	0.012245	-1.501497	-0.345218
Zn6	Zn	0.345578	-1.168163	-0.011885
Zn7	Zn	-0.321092	-1.634227	-0.477877
Zn8	Zn	0.012241	-1.300893	-0.144544
Zn9	Zn	0.345574	-0.967560	0.188789
Zn10	Zn	-0.455882	-1.634225	-0.678475
Zn11	Zn	-0.122548	-1.300892	-0.345142
Zn12	Zn	0.210785	-0.967558	-0.011808
O13	O	-0.388493	-1.734553	-0.578186
O14	O	-0.055159	-1.401220	-0.244852
O15	O	0.278174	-1.067887	0.088481
O16	O	-0.438034	-2.002868	-0.504480
O17	O	-0.104700	-1.669535	-0.171147
O18	O	0.228633	-1.336201	0.162187
O19	O	-0.208256	-1.808178	-0.651980
O20	O	0.125077	-1.474844	-0.318646
O21	O	0.458410	-1.141511	0.014687
O22	O	-0.338989	-1.660894	-0.309922
O23	O	-0.005655	-1.327560	0.023411
O24	O	0.327678	-0.994227	0.356744
O25	O	-0.338982	-2.002793	-0.651942
O26	O	-0.005649	-1.669460	-0.318609
O27	O	0.327685	-1.336127	0.014724
O28	O	-0.438037	-1.808351	-0.309894
O29	O	-0.104704	-1.475018	0.023439
O30	O	0.228629	-1.141684	0.356772
O31	O	-0.208259	-1.660795	-0.504545
O32	O	0.125074	-1.327462	-0.171212
O33	O	0.458407	-0.994129	0.162122
O34	O	-0.338963	-1.466277	-0.504471
O35	O	-0.005630	-1.132943	-0.171138
O36	O	0.327704	-0.799610	0.162196
O37	O	-0.568718	-1.660891	-0.651812
O38	O	-0.235384	-1.327558	-0.318479
O39	O	0.097949	-0.994224	0.014854
O40	O	-0.437992	-1.466276	-0.651849
O41	O	-0.104659	-1.132942	-0.318516
O42	O	0.228675	-0.799609	0.014817
O43	O	-0.568737	-1.808349	-0.504406
O44	O	-0.235404	-1.475016	-0.171073
O45	O	0.097929	-1.141683	0.162261
O46	O	-0.338956	-1.808176	-0.846491
O47	O	-0.005623	-1.474843	-0.513158
O48	O	0.327710	-1.141510	-0.179824
O49	O	-0.437988	-1.660793	-0.846435
O50	O	-0.104655	-1.327459	-0.513102
O51	O	0.228678	-0.994126	-0.179768
C52	C	-0.388476	-1.422729	-0.578157
C53	C	-0.055142	-1.089395	-0.244824
C54	C	0.278191	-0.756062	0.088510
C55	C	-0.388487	-1.289329	-0.578174
C56	C	-0.055154	-0.955995	-0.244840
C57	C	0.278179	-0.622662	0.088493
C58	C	-0.598802	-1.734631	-0.578096
C59	C	-0.265468	-1.401298	-0.244763
C60	C	0.067865	-1.067965	0.088570
C61	C	-0.688423	-1.734665	-0.578058
C62	C	-0.355090	-1.401331	-0.244725
C63	C	-0.021756	-1.067998	0.088609
C64	C	-1.016599	-1.734720	-0.577924
C65	C	-0.683265	-1.401387	-0.244590
C66	C	-0.349932	-1.068053	0.088743
C67	C	-0.925290	-1.734701	-0.577965
C68	C	-0.591957	-1.401368	-0.244632
C69	C	-0.258623	-1.068035	0.088702
C70	C	-0.852514	-1.734693	-0.577992
C71	C	-0.519180	-1.401360	-0.244659
C72	C	-0.185847	-1.068026	0.088675
C73	C	-0.761199	-1.734673	-0.578031
C74	C	-0.427866	-1.401340	-0.244698
C75	C	-0.094533	-1.068006	0.088635
C76	C	-0.179002	-1.734545	-0.578188
C77	C	0.154331	-1.401211	-0.244855
C78	C	0.487665	-1.067878	0.088479
C79	C	-0.089381	-1.734744	-0.577888
C80	C	0.243952	-1.401411	-0.244555
C81	C	0.577286	-1.068077	0.088779
C82	C	-0.388487	-1.734506	-0.890010
C83	C	-0.055153	-1.401172	-0.556677
C84	C	0.278180	-1.067839	-0.223344
C85	C	-0.388511	-1.734595	-1.023410
C86	C	-0.055178	-1.401262	-0.690077
C87	C	0.278156	-1.067929	-0.356744
C88	C	-0.388504	-1.047596	-0.578205
C89	C	-0.055171	-0.714262	-0.244872
C90	C	0.278163	-0.380929	0.088461
C91	C	-0.388492	-1.180996	-0.578188
C92	C	-0.055159	-0.847662	-0.244854
C93	C	0.278174	-0.514329	0.088479
C94	C	-0.388516	-1.734634	-0.265143
C95	C	-0.055183	-1.401301	0.068190
C96	C	0.278150	-1.067967	0.401523
C97	C	-0.388527	-1.734668	-0.131743
C98	C	-0.055193	-1.401335	0.201590
C99	C	0.278140	-1.068001	0.534923
