data_functionalizedCrystal
_audit_creation_method	'MofGen! by Chris Wilmer'
_symmetry_space_group_name_H-M	'P1'
_symmetry_Int_Tables_number	1
_symmetry_cell_setting	triclinic
loop_
_symmetry_equiv_pos_as_xyz
  x,y,z
_cell_length_a	19.077115
_cell_length_b	13.897447
_cell_length_c	19.077174
_cell_angle_alpha	92.274996
_cell_angle_beta	85.484425
_cell_angle_gamma	87.715979
loop_
_atom_site_label
_atom_site_type_symbol
_atom_site_fract_x
_atom_site_fract_y
_atom_site_fract_z
Zn1	Zn	1.093735	-0.468677	-0.441846
Zn2	Zn	1.088930	-0.623230	-0.323963
Zn3	Zn	0.971119	-0.455193	-0.319244
Zn4	Zn	0.975824	-0.623167	-0.437082
O5	O	1.032402	-0.542567	-0.380534
O6	O	1.191748	-0.494848	-0.430177
O7	O	1.069322	-0.595323	-0.224687
O8	O	0.987426	-0.322004	-0.335526
O9	O	1.188218	-0.608397	-0.343569
O10	O	1.077512	-0.331910	-0.425601
O11	O	0.982767	-0.471867	-0.221220
O12	O	0.873093	-0.471806	-0.330907
O13	O	0.995445	-0.608290	-0.536364
O14	O	0.876550	-0.595215	-0.417482
O15	O	1.082074	-0.494787	-0.539864
O16	O	1.073885	-0.758200	-0.338950
O17	O	0.990786	-0.758153	-0.422058
C18	C	0.849243	-0.532041	-0.373166
C19	C	0.770887	-0.527563	-0.370031
C20	C	0.329631	-0.495399	-0.347552
C21	C	0.403255	-0.499613	-0.350502
C22	C	0.441880	-0.566070	-0.396978
C23	C	0.406877	-0.628310	-0.440513
C24	C	0.333255	-0.624091	-0.437567
C25	C	0.662262	-0.585584	-0.410620
C26	C	0.735889	-0.589800	-0.413561
C27	C	0.732262	-0.461101	-0.323550
C28	C	0.658638	-0.456892	-0.320605
C29	C	0.623642	-0.519129	-0.364142
N30	N	0.517135	-0.570381	-0.399993
N31	N	0.548388	-0.514813	-0.361131
C32	C	1.032344	-0.793177	-0.380515
C33	C	1.032385	-0.900394	-0.380533
C34	C	1.032420	-0.987467	-0.380551
C35	C	1.032470	-1.096703	-0.380571
C36	C	1.216277	-0.553134	-0.387930
C37	C	1.294634	-0.557637	-0.391082
C38	C	1.039820	-0.553036	-0.564408
C39	C	1.042981	-0.557497	-0.642764
C40	C	1.032480	-0.290980	-0.380569
C41	C	1.032513	-0.183769	-0.380583
C42	C	0.999404	-0.495317	-0.677770
C43	C	1.002371	-0.499517	-0.751394
C44	C	1.048921	-0.565892	-0.790010
C45	C	1.092500	-0.628078	-0.754999
C46	C	1.089528	-0.623883	-0.681376
C47	C	1.062637	-0.585337	-1.010392
C48	C	1.065607	-0.589526	-1.084020
C49	C	0.975477	-0.460965	-1.080410
C50	C	0.972512	-0.456771	-1.006786
C51	C	1.016089	-0.518961	-0.971781
N52	N	1.051957	-0.570184	-0.865266
N53	N	1.013049	-0.514673	-0.896527
C54	C	1.025054	-0.532071	-0.197377
C55	C	1.022029	-0.527346	-0.119026
H56	H	0.304761	-0.674769	-0.473015
H57	H	0.767336	-0.643918	-0.451412
C58	C	1.116169	-0.661697	-1.125822
C59	C	1.153683	-0.715280	-1.079409
C60	C	1.200259	-0.781775	-1.117891
H61	H	1.148119	-0.628311	-1.155786
H62	H	1.090360	-0.703856	-1.153439
H63	H	1.179490	-0.673126	-1.051804
H64	H	1.121751	-0.748687	-1.049444
H65	H	1.174450	-0.823934	-1.145508
H66	H	1.232204	-0.748380	-1.147854
H67	H	1.225713	-0.818145	-1.086405
C68	C	0.948746	-0.423368	-0.635879
C69	C	0.879712	-0.441403	-0.650967
C70	C	0.833024	-0.375153	-0.612385
H71	H	0.959473	-0.359797	-0.648336
H72	H	0.953169	-0.429777	-0.587009
H73	H	0.875292	-0.434985	-0.699826
H74	H	0.868963	-0.504961	-0.638507
H75	H	0.837447	-0.381563	-0.563515
H76	H	0.843757	-0.311587	-0.624844
H77	H	0.786179	-0.387387	-0.622611
C78	C	1.136880	-0.691234	-0.643280
C79	C	1.180364	-0.636813	-0.602822
C80	C	1.223986	-0.698830	-0.567713
H81	H	1.165093	-0.731386	-0.676744
H82	H	1.108756	-0.730058	-0.613430
H83	H	1.208485	-0.598006	-0.632669
H84	H	1.152171	-0.596664	-0.569346
H85	H	1.195862	-0.737654	-0.537863
H86	H	1.252194	-0.738979	-0.601182
H87	H	1.253490	-0.661915	-0.540253
C88	C	0.287825	-0.423145	-0.297069
C89	C	0.334237	-0.369524	-0.259593
C90	C	0.295754	-0.302942	-0.213089
H91	H	0.257844	-0.456464	-0.265091
H92	H	0.260225	-0.381018	-0.322927
H93	H	0.361825	-0.411646	-0.233736
H94	H	0.364219	-0.336185	-0.291552
H95	H	0.268153	-0.260815	-0.238947
H96	H	0.265774	-0.336270	-0.181116
H97	H	0.327238	-0.266547	-0.187661
C98	C	0.441337	-0.432200	-0.303198
C99	C	0.481773	-0.486560	-0.259648
C100	C	0.516868	-0.424487	-0.216067
H101	H	0.407865	-0.392001	-0.275032
H102	H	0.471200	-0.393425	-0.331349
H103	H	0.451912	-0.525317	-0.231500
H104	H	0.515257	-0.526756	-0.287795
H105	H	0.546731	-0.385713	-0.244218
H106	H	0.483391	-0.384292	-0.187905
H107	H	0.544313	-0.461361	-0.186517
H108	H	0.966883	-0.448887	-0.779893
H109	H	0.934605	-0.402724	-0.975350
C110	C	1.109988	-0.652686	-0.972301
C111	C	1.153469	-0.598258	-0.931844
C112	C	1.197094	-0.660268	-0.896733
H113	H	1.138204	-0.692837	-1.005764
H114	H	1.081867	-0.691513	-0.942450
H115	H	1.181588	-0.559448	-0.961692
H116	H	1.125273	-0.558110	-0.898369
H117	H	1.168973	-0.699094	-0.866882
H118	H	1.225305	-0.700415	-0.930201
H119	H	1.226596	-0.623347	-0.869274
H120	H	1.130397	-0.682127	-0.786446
C121	C	0.928076	-0.393614	-1.118450
C122	C	0.884568	-0.448042	-1.158875
C123	C	0.840882	-0.386032	-1.193918
H124	H	0.956132	-0.354750	-1.148316
H125	H	0.899886	-0.353501	-1.084927
H126	H	0.912754	-0.488139	-1.192394
H127	H	0.856496	-0.486904	-1.129025
H128	H	0.812692	-0.345918	-1.160395
H129	H	0.868944	-0.347171	-1.223781
H130	H	0.811352	-0.422952	-1.221346
C131	C	0.770168	-0.393370	-0.276322
C132	C	0.752893	-0.297822	-0.291068
C133	C	0.787790	-0.235397	-0.247568
H134	H	0.819556	-0.405263	-0.284685
H135	H	0.756159	-0.403936	-0.228444
H136	H	0.766906	-0.287261	-0.338936
H137	H	0.703511	-0.285900	-0.282702
H138	H	0.773781	-0.245963	-0.199689
H139	H	0.837176	-0.247299	-0.255934
H140	H	0.776068	-0.170562	-0.257562
H141	H	0.627194	-0.402783	-0.282754
H142	H	0.438331	-0.682417	-0.478358
C143	C	0.624400	-0.653286	-0.457906
C144	C	0.673985	-0.712411	-0.499217
C145	C	0.639130	-0.774807	-0.542776
H146	H	0.596932	-0.616687	-0.487589
H147	H	0.594594	-0.692119	-0.429743
H148	H	0.703779	-0.673582	-0.527377
H149	H	0.701455	-0.749031	-0.469552
H150	H	0.609324	-0.813641	-0.514613
H151	H	0.611663	-0.738201	-0.572454
H152	H	0.672768	-0.814937	-0.570806
