data_functionalizedCrystal
_audit_creation_method	'MofGen! by Chris Wilmer'
_symmetry_space_group_name_H-M	'P1'
_symmetry_Int_Tables_number	1
_symmetry_cell_setting	triclinic
loop_
_symmetry_equiv_pos_as_xyz
  x,y,z
_cell_length_a	10.654550
_cell_length_b	9.730223
_cell_length_c	10.654550
_cell_angle_alpha	90.000123
_cell_angle_beta	95.515069
_cell_angle_gamma	89.999611
loop_
_atom_site_label
_atom_site_type_symbol
_atom_site_fract_x
_atom_site_fract_y
_atom_site_fract_z
O1	O	1.667839	0.114187	-0.176391
O2	O	1.302361	0.114212	-0.193197
O3	O	1.493503	0.114190	-0.002054
O4	O	1.476697	0.114209	-0.367533
O5	O	1.493490	-0.114390	-0.002065
O6	O	1.302348	-0.114368	-0.193207
O7	O	1.667827	-0.114393	-0.176401
Zn8	Zn	1.485085	-0.150672	-0.184806
Zn9	Zn	1.485102	0.150492	-0.184792
O10	O	1.476684	-0.114371	-0.367544
C11	C	1.255556	-0.000075	-0.191968
C12	C	1.116113	-0.000065	-0.188276
N13	N	1.485084	-0.356209	-0.184815
C14	C	1.036628	-0.000064	-0.300818
C15	C	0.905607	-0.000088	-0.297341
C16	C	0.933570	-0.000109	-0.068772
C17	C	1.064588	-0.000095	-0.072250
C18	C	1.561913	-0.428149	-0.261690
C19	C	1.561932	-0.572032	-0.261666
C20	C	1.408281	-0.572021	-0.107890
C21	C	1.408270	-0.428141	-0.107908
C22	C	1.638727	-0.356217	-0.338597
C23	C	1.715562	-0.428158	-0.415479
C24	C	1.715581	-0.572041	-0.415455
C25	C	1.638765	-0.643983	-0.338549
C26	C	1.714631	-0.000103	-0.177630
C27	C	1.854074	-0.000104	-0.181322
C28	C	1.492263	-0.000099	0.044738
C29	C	1.488571	-0.000096	0.184181
N30	N	1.485114	0.356028	-0.184773
C31	C	1.477925	-0.000079	-0.414336
C32	C	1.481617	-0.000072	-0.553779
C33	C	1.601112	-0.000104	0.263667
C34	C	1.597636	-0.000087	0.394688
C35	C	1.369066	-0.000061	0.366725
C36	C	1.372544	-0.000068	0.235706
H37	H	1.078574	-0.000049	-0.395294
Cl38	Cl	1.311713	-0.662464	-0.011222
H39	H	1.345706	-0.369565	-0.045312
Cl40	Cl	1.746974	-0.000136	0.198897
Cl41	Cl	1.223212	-0.000026	0.431509
H42	H	1.689279	-0.000090	0.459401
H43	H	1.280893	-0.000058	0.170985
H44	H	0.891602	-0.000142	0.025693
H45	H	1.129309	-0.000100	0.019401
Cl46	Cl	0.805687	-0.000087	-0.438829
H47	H	1.638717	-0.239061	-0.338628
H48	H	1.778152	-0.630611	-0.478047
Cl49	Cl	1.812137	-0.337719	-0.512142
Cl50	Cl	1.638806	-0.824867	-0.338508
