data_functionalizedCrystal
_audit_creation_method	'MofGen! by Chris Wilmer'
_symmetry_space_group_name_H-M	'P1'
_symmetry_Int_Tables_number	1
_symmetry_cell_setting	triclinic
loop_
_symmetry_equiv_pos_as_xyz
  x,y,z
_cell_length_a	14.908571
_cell_length_b	17.640280
_cell_length_c	14.908308
_cell_angle_alpha	82.669722
_cell_angle_beta	90.175053
_cell_angle_gamma	74.921313
loop_
_atom_site_label
_atom_site_type_symbol
_atom_site_fract_x
_atom_site_fract_y
_atom_site_fract_z
Zn1	Zn	1.445833	-0.413045	-0.498174
Zn2	Zn	1.484886	-0.538235	-0.320716
Zn3	Zn	1.300448	-0.397842	-0.342463
Zn4	Zn	1.325685	-0.537295	-0.462571
O5	O	1.389213	-0.471604	-0.405981
O6	O	1.578484	-0.436407	-0.480433
O7	O	1.466202	-0.513643	-0.199068
O8	O	1.292829	-0.289105	-0.387120
O9	O	1.607176	-0.528384	-0.350055
O10	O	1.399643	-0.300274	-0.501520
O11	O	1.330696	-0.410497	-0.215045
O12	O	1.176326	-0.409585	-0.352597
O13	O	1.335841	-0.526782	-0.591827
O14	O	1.194867	-0.512041	-0.440840
O15	O	1.424113	-0.435496	-0.617984
O16	O	1.490673	-0.648865	-0.315532
O17	O	1.373708	-0.648174	-0.419752
C18	C	1.152545	-0.459062	-0.395215
C19	C	1.051300	-0.453716	-0.390626
C20	C	0.880453	-0.550508	-0.473704
C21	C	0.785325	-0.545487	-0.469395
C22	C	0.765915	-0.438653	-0.377705
C23	C	0.861043	-0.443673	-0.382014
C24	C	0.918309	-0.499603	-0.430014
C25	C	1.013439	-0.504626	-0.434317
C26	C	0.994026	-0.397788	-0.342633
C27	C	0.898899	-0.392768	-0.338324
C28	C	1.439191	-0.677239	-0.361439
C29	C	1.460653	-0.765216	-0.342418
C30	C	1.226523	-1.052872	-0.550826
C31	C	1.246694	-1.135539	-0.532924
C32	C	1.368555	-1.136202	-0.424518
C33	C	1.348398	-1.053534	-0.442414
C34	C	1.277380	-1.011876	-0.505568
C35	C	1.399256	-1.012538	-0.397156
C36	C	1.379096	-0.929876	-0.415047
C37	C	1.308080	-0.888212	-0.478197
C38	C	1.257221	-0.929214	-0.523460
C39	C	1.470269	-1.054197	-0.333997
C40	C	1.521126	-1.013201	-0.288739
C41	C	1.500972	-0.930538	-0.306635
C42	C	1.429955	-0.888874	-0.369784
C43	C	1.551830	-0.889536	-0.261372
C44	C	1.531671	-0.806875	-0.279264
C45	C	1.409796	-0.806213	-0.387676
C46	C	1.626806	-0.484197	-0.416790
C47	C	1.728054	-0.489563	-0.421396
C48	C	1.378436	-0.482730	-0.638098
C49	C	1.373843	-0.487470	-0.737013
C50	C	1.339064	-0.265169	-0.450717
C51	C	1.317694	-0.177199	-0.469781
C52	C	1.457124	-0.401304	-0.950127
C53	C	1.452812	-0.405756	-1.043067
C54	C	1.360899	-0.500821	-1.015834
C55	C	1.365212	-0.496369	-0.922895
C56	C	1.413328	-0.446610	-0.890045
C57	C	1.417646	-0.442163	-0.797102
C58	C	1.325728	-0.537224	-0.769872
C59	C	1.321415	-0.541675	-0.862812
C60	C	1.399987	-0.460468	-0.174782
C61	C	1.404702	-0.455514	-0.075924
H62	H	0.719272	-0.393112	-0.338632
C63	C	1.277549	-0.587061	-0.703780
H64	H	1.287003	-0.577282	-0.643723
H65	H	1.303093	-0.641674	-0.708099
H66	H	1.212819	-0.572962	-0.718736
H67	H	1.205284	-1.168916	-0.569795
C68	C	0.835907	-0.331249	-0.285527
H69	H	0.872079	-0.301648	-0.260128
H70	H	0.807937	-0.357653	-0.238474
H71	H	0.788849	-0.296481	-0.325417
C72	C	1.599241	-1.059025	-0.219274
H73	H	1.626639	-1.022768	-0.194879
H74	H	1.645173	-1.094975	-0.248179
H75	H	1.574097	-1.087595	-0.171895
C76	C	1.076435	-0.566148	-0.487108
H77	H	1.138514	-0.561855	-0.483410
H78	H	1.055289	-0.556692	-0.548708
H79	H	1.074376	-0.617858	-0.461760
C80	C	1.148410	-1.007039	-0.620300
H81	H	1.143695	-0.951939	-0.624474
H82	H	1.091137	-1.016761	-0.601508
H83	H	1.162223	-1.024135	-0.677784
C84	C	1.510045	-0.346572	-0.913988
H85	H	1.535509	-0.320223	-0.963084
H86	H	1.558771	-0.377210	-0.872974
H87	H	1.468494	-0.308501	-0.883625
C88	C	1.268497	-0.596409	-0.898953
H89	H	1.272205	-0.592576	-0.962909
H90	H	1.205187	-0.580862	-0.883446
H91	H	1.295469	-0.649565	-0.872806
C92	C	1.307968	-0.555542	-1.051983
H93	H	1.311674	-0.551702	-1.115939
H94	H	1.244659	-0.539986	-1.036474
H95	H	1.334928	-0.608703	-1.025844
C96	C	1.446674	-1.182031	-0.355058
H97	H	1.451402	-1.237133	-0.350888
H98	H	1.432881	-1.164934	-0.297577
H99	H	1.503945	-1.172307	-0.373872
H100	H	1.486682	-1.121505	-0.319435
H101	H	0.927081	-0.596052	-0.512781
C102	C	1.629939	-0.935362	-0.191901
H103	H	1.657337	-0.899106	-0.167504
H104	H	1.675873	-0.971315	-0.220800
H105	H	1.604786	-0.963927	-0.144525
C106	C	1.500994	-0.355928	-1.109157
H107	H	1.491532	-0.365701	-1.169215
H108	H	1.565718	-0.370023	-1.094196
H109	H	1.475444	-0.301310	-1.104844
H110	H	1.573084	-0.773495	-0.242409
C111	C	0.743681	-0.601467	-0.517475
H112	H	0.791413	-0.635492	-0.546680
H113	H	0.697434	-0.571129	-0.561166
H114	H	0.716516	-0.632324	-0.474242
C115	C	1.035668	-0.341789	-0.294575
H116	H	1.100524	-0.352784	-0.304019
H117	H	1.025636	-0.349600	-0.231564
H118	H	1.006544	-0.288431	-0.318510
H119	H	1.456825	-0.401647	-0.770358
H120	H	1.351972	-0.772293	-0.439109
H121	H	1.291662	-0.820903	-0.492756
H122	H	1.199398	-0.895295	-0.574893
