data_functionalizedCrystal
_audit_creation_method	'MofGen! by Chris Wilmer'
_symmetry_space_group_name_H-M	'P1'
_symmetry_Int_Tables_number	1
_symmetry_cell_setting	triclinic
loop_
_symmetry_equiv_pos_as_xyz
  x,y,z
_cell_length_a	15.297475
_cell_length_b	17.640280
_cell_length_c	15.298259
_cell_angle_alpha	71.449796
_cell_angle_beta	88.370891
_cell_angle_gamma	67.467946
loop_
_atom_site_label
_atom_site_type_symbol
_atom_site_fract_x
_atom_site_fract_y
_atom_site_fract_z
Zn1	Zn	1.364895	-0.423586	-0.648284
Zn2	Zn	1.864895	0.076414	-0.148284
Zn3	Zn	1.434784	-0.593367	-0.470367
Zn4	Zn	1.934784	-0.093367	0.029633
Zn5	Zn	1.245917	-0.431834	-0.474981
Zn6	Zn	1.745917	0.068166	0.025019
Zn7	Zn	1.250470	-0.545615	-0.600344
Zn8	Zn	1.750470	-0.045615	-0.100344
O9	O	1.324017	-0.498600	-0.548494
O10	O	1.824017	0.001400	-0.048494
O11	O	1.501095	-0.462640	-0.642815
O12	O	2.001095	0.037360	-0.142815
O13	O	1.437073	-0.595375	-0.344055
O14	O	1.937073	-0.095375	0.155945
O15	O	1.230546	-0.312068	-0.519965
O16	O	1.730546	0.187932	-0.019965
O17	O	1.552441	-0.587377	-0.512100
O18	O	2.052441	-0.087377	-0.012100
O19	O	1.317959	-0.306008	-0.647290
O20	O	1.817959	0.193992	-0.147290
O21	O	1.298314	-0.476698	-0.347446
O22	O	1.798314	0.023302	0.152554
O23	O	1.119593	-0.430395	-0.473479
O24	O	1.619593	0.069605	0.026521
O25	O	1.238306	-0.505992	-0.733627
O26	O	1.738306	-0.005992	-0.233627
O27	O	1.122938	-0.513990	-0.565582
O28	O	1.622938	-0.013990	-0.065582
O29	O	1.322373	-0.416337	-0.768848
O30	O	1.822373	0.083663	-0.268848
O31	O	1.441488	-0.705704	-0.465614
O32	O	1.941488	-0.205704	0.034386
O33	O	1.306074	-0.670621	-0.561108
O34	O	1.806074	-0.170621	-0.061108
C35	C	1.088354	-0.467907	-0.514830
C36	C	1.588354	0.032093	-0.014830
C37	C	0.987538	-0.454792	-0.500446
C38	C	1.487538	0.045208	-0.000446
C39	C	0.710587	-0.592338	-0.651300
C40	C	1.210587	-0.092338	-0.151300
C41	C	0.805311	-0.604666	-0.664811
C42	C	1.305311	-0.104666	-0.164811
C43	C	0.850873	-0.567199	-0.623721
C44	C	1.350873	-0.067199	-0.123721
C45	C	0.801700	-0.517401	-0.569117
C46	C	1.301700	-0.017401	-0.069117
C47	C	0.706969	-0.505076	-0.555599
C48	C	1.206969	-0.005076	-0.055599
C49	C	0.847254	-0.479937	-0.528020
C50	C	1.347254	0.020063	-0.028020
C51	C	0.798082	-0.430139	-0.473417
C52	C	1.298082	0.069861	0.026583
C53	C	0.703359	-0.417817	-0.459902
C54	C	1.203359	0.082183	0.040098
C55	C	0.657798	-0.455285	-0.500992
C56	C	1.157798	0.044715	-0.000992
C57	C	0.941986	-0.492261	-0.541538
C58	C	1.441986	0.007739	-0.041538
C59	C	0.938367	-0.405000	-0.445838
C60	C	1.438367	0.095000	0.054162
C61	C	0.843643	-0.392672	-0.432327
C62	C	1.343643	0.107328	0.067673
C63	C	1.381879	-0.718932	-0.507681
C64	C	1.881879	-0.218932	-0.007681
C65	C	1.406710	-0.813197	-0.490263
C66	C	1.906710	-0.313197	0.009737
C67	C	1.135685	-1.032059	-0.681198
C68	C	1.635685	-0.532059	-0.181198
C69	C	1.159024	-1.120640	-0.664803
C70	C	1.659024	-0.620640	-0.164803
C71	C	1.300078	-1.157094	-0.565493
C72	C	1.800078	-0.657094	-0.065493
C73	C	1.276752	-1.068514	-0.581883
C74	C	1.776752	-0.568514	-0.081883
C75	C	1.194554	-1.006003	-0.639736
C76	C	1.694554	-0.506003	-0.139736
C77	C	1.335622	-1.042458	-0.540421
C78	C	1.835622	-0.542458	-0.040421
C79	C	1.312295	-0.953886	-0.556807
C80	C	1.812295	-0.453886	-0.056807
C81	C	1.230099	-0.891370	-0.614654
C82	C	1.730099	-0.391370	-0.114654
C83	C	1.171227	-0.917430	-0.656121
C84	C	1.671227	-0.417430	-0.156121
C85	C	1.417816	-1.104971	-0.482564
C86	C	1.917816	-0.604971	0.017436
C87	C	1.476686	-1.078915	-0.441102
C88	C	1.976686	-0.578915	0.058898
C89	C	1.453363	-0.990341	-0.457492
C90	C	1.953363	-0.490341	0.042508
C91	C	1.371167	-0.927825	-0.515340
C92	C	1.871167	-0.427825	-0.015340
C93	C	1.512235	-0.964280	-0.416025
C94	C	2.012235	-0.464280	0.083975
C95	C	1.488908	-0.875708	-0.432411
C96	C	1.988908	-0.375708	0.067589
C97	C	1.347840	-0.839253	-0.531725
C98	C	1.847840	-0.339253	-0.031725
C99	C	1.560599	-0.529415	-0.582290
C100	C	2.060599	-0.029415	-0.082290
C101	C	1.661417	-0.542546	-0.596692
C102	C	2.161417	-0.042546	-0.096692
C103	C	1.273052	-0.454918	-0.785068
C104	C	1.773052	0.045082	-0.285068
C105	C	1.251333	-0.436303	-0.885881
C106	C	1.751333	0.063697	-0.385881
C107	C	1.265949	-0.277408	-0.589490
C108	C	1.765949	0.222592	-0.089490
C109	C	1.241203	-0.183148	-0.606960
C110	C	1.741203	0.316852	-0.106960
C111	C	1.479098	-0.630995	-1.162988
C112	C	1.979098	-0.130995	-0.662988
C113	C	1.499500	-0.648489	-1.068267
C114	C	1.999500	-0.148489	-0.568267
C115	C	1.437460	-0.595444	-1.022666
C116	C	1.937460	-0.095444	-0.522666
C117	C	1.355015	-0.524902	-1.071795
C118	C	1.855015	-0.024902	-0.571795
C119	C	1.334607	-0.507410	-1.166524
C120	C	1.834607	-0.007410	-0.666524
C121	C	1.292969	-0.471859	-1.026202
C122	C	1.792969	0.028141	-0.526202
C123	C	1.210524	-0.401316	-1.075331
C124	C	1.710524	0.098684	-0.575331
C125	C	1.190120	-0.383827	-1.170050
C126	C	1.690120	0.116173	-0.670050
C127	C	1.252159	-0.436872	-1.215651
C128	C	1.752159	0.063128	-0.715651
C129	C	1.313377	-0.489351	-0.931473
C130	C	1.813377	0.010649	-0.431473
C131	C	1.168886	-0.365766	-0.935009
C132	C	1.668886	0.134234	-0.435009
C133	C	1.148484	-0.348271	-1.029730
C134	C	1.648484	0.151729	-0.529730
C135	C	1.374819	-0.542059	-0.312860
C136	C	1.874819	-0.042059	0.187140
C137	C	1.396650	-0.560458	-0.212116
C138	C	1.896650	-0.060458	0.287884
H139	H	0.663330	-0.377279	-0.415429
H140	H	1.163330	0.122721	0.084571
H141	H	1.122981	-0.326394	-1.210046
H142	H	1.622981	0.173606	-0.710046
H143	H	1.529597	-0.674182	-1.200124
H144	H	2.029597	-0.174182	-0.700124
Cl145	Cl	1.447167	-1.216318	-0.462002
Cl146	Cl	1.947167	-0.716318	0.037998
H147	H	1.536845	-0.854494	-0.398647
H148	H	2.036845	-0.354494	0.101353
H149	H	0.845342	-0.645214	-0.709266
H150	H	1.345342	-0.145214	-0.209266
Cl151	Cl	1.403411	-1.235686	-0.492769
Cl152	Cl	1.903411	-0.735686	0.007231
Cl153	Cl	1.032354	-0.953466	-0.753938
Cl154	Cl	1.532354	-0.453466	-0.253938
H155	H	1.280911	-0.788352	-0.578843
H156	H	1.780911	-0.288352	-0.078843
Cl157	Cl	0.538708	-0.439782	-0.484015
Cl158	Cl	1.038708	0.060218	0.015985
Cl159	Cl	1.463114	-0.617435	-0.903588
Cl160	Cl	1.963114	-0.117435	-0.403588
H161	H	1.566621	-0.705932	-1.028270
H162	H	2.066621	-0.205932	-0.528270
Cl163	Cl	1.226516	-0.414880	-1.334735
Cl164	Cl	1.726516	0.085120	-0.834735
H165	H	0.982013	-0.532807	-0.585998
H166	H	1.482013	-0.032807	-0.085998
H167	H	1.081356	-0.290835	-1.069744
H168	H	1.581356	0.209165	-0.569744
H169	H	0.975463	-0.374492	-0.412378
H170	H	1.475463	0.125508	0.087622
Cl171	Cl	1.200935	-0.780009	-0.635494
Cl172	Cl	1.700935	-0.280009	-0.135494
Cl173	Cl	0.969955	-0.582695	-0.640710
Cl174	Cl	1.469955	-0.082695	-0.140710
H175	H	0.803593	-0.352126	-0.387868
H176	H	1.303593	0.147874	0.112132
H177	H	1.104298	-0.866530	-0.703238
H178	H	1.604298	-0.366530	-0.203238
H179	H	1.380509	-0.546783	-0.891483
H180	H	1.880509	-0.046783	-0.391483
H181	H	1.111088	-1.141848	-0.698583
H182	H	1.611088	-0.641848	-0.198583
Cl183	Cl	1.090880	-0.299086	-0.877685
Cl184	Cl	1.590880	0.200914	-0.377685
Cl185	Cl	1.580019	-1.157506	-0.368378
Cl186	Cl	2.080019	-0.657506	0.131622
H187	H	0.673485	-0.622845	-0.684743
H188	H	1.173485	-0.122845	-0.184743
Cl189	Cl	1.615561	-1.042874	-0.343293
Cl190	Cl	2.115561	-0.542874	0.156707
