data_functionalizedCrystal
_audit_creation_method	'MofGen! by Chris Wilmer'
_symmetry_space_group_name_H-M	'P1'
_symmetry_Int_Tables_number	1
_symmetry_cell_setting	triclinic
loop_
_symmetry_equiv_pos_as_xyz
  x,y,z
_cell_length_a	13.897449
_cell_length_b	12.827885
_cell_length_c	12.827892
_cell_angle_alpha	89.969834
_cell_angle_beta	89.984680
_cell_angle_gamma	90.025625
loop_
_atom_site_label
_atom_site_type_symbol
_atom_site_fract_x
_atom_site_fract_y
_atom_site_fract_z
Zn1	Zn	-1.474714	-0.591019	-0.415982
Zn2	Zn	-1.474616	-0.416279	-0.590760
Zn3	Zn	-1.313404	-0.416274	-0.416034
Zn4	Zn	-1.313391	-0.590960	-0.590682
O5	O	-1.394031	-0.503633	-0.503365
O6	O	-1.609682	-0.567866	-0.439178
O7	O	-1.453195	-0.270042	-0.567637
O8	O	-1.334849	-0.439477	-0.269791
O9	O	-1.609610	-0.439485	-0.567587
O10	O	-1.453362	-0.567862	-0.269753
O11	O	-1.334754	-0.270039	-0.439266
O12	O	-1.178421	-0.439420	-0.439190
O13	O	-1.334827	-0.737204	-0.567453
O14	O	-1.178411	-0.567761	-0.567503
O15	O	-1.453350	-0.737247	-0.439102
O16	O	-1.453182	-0.439428	-0.736986
O17	O	-1.334731	-0.567766	-0.736928
C18	C	-1.143417	-0.503584	-0.503344
C19	C	-1.036203	-0.503588	-0.503361
C20	C	-1.394098	-0.776203	-0.503263
C21	C	-1.394126	-0.892357	-0.503220
C22	C	-0.949133	-0.503601	-0.503363
C23	C	-0.839901	-0.503627	-0.503368
C24	C	-1.335496	-0.944120	-0.566706
C25	C	-1.335524	-1.064170	-0.566663
C26	C	-0.645624	-0.503670	-0.503381
C27	C	-0.752838	-0.503654	-0.503378
C28	C	-1.393971	-0.503614	-0.774875
C29	C	-1.394033	-0.503640	-0.891028
C30	C	-1.394021	-0.232123	-0.503390
C31	C	-1.394179	-0.115971	-0.503139
C32	C	-1.335537	-0.440108	-1.062959
C33	C	-1.335471	-0.440079	-0.942908
C34	C	-1.394118	-0.503675	-0.230794
C35	C	-1.394155	-0.503693	-0.114641
H36	H	-1.285283	-0.899559	-0.621095
H37	H	-1.285289	-0.385636	-0.898463
Cl38	Cl	-1.471665	-0.961145	-0.419255
H39	H	-1.444225	-0.558078	-0.935467
Cl40	Cl	-1.471679	-1.047255	-0.419209
H41	H	-1.285322	-1.108686	-0.621009
Cl42	Cl	-1.258116	-0.356099	-1.131854
Cl43	Cl	-1.471561	-0.587719	-1.045746
