data_functionalizedCrystal
_audit_creation_method	'MofGen! by Chris Wilmer'
_symmetry_space_group_name_H-M	'P1'
_symmetry_Int_Tables_number	1
_symmetry_cell_setting	triclinic
loop_
_symmetry_equiv_pos_as_xyz
  x,y,z
_cell_length_a	12.759401
_cell_length_b	21.295417
_cell_length_c	12.759393
_cell_angle_alpha	89.960780
_cell_angle_beta	89.980163
_cell_angle_gamma	90.032032
loop_
_atom_site_label
_atom_site_type_symbol
_atom_site_fract_x
_atom_site_fract_y
_atom_site_fract_z
Zn1	Zn	1.606140	-0.250546	-0.593965
Zn2	Zn	1.605986	-0.355830	-0.418261
Zn3	Zn	1.430442	-0.250582	-0.418300
Zn4	Zn	1.430382	-0.355784	-0.593899
O5	O	1.518237	-0.303186	-0.506106
O6	O	1.753140	-0.264517	-0.570669
O7	O	1.582660	-0.341903	-0.271245
O8	O	1.453838	-0.162488	-0.441646
O9	O	1.753027	-0.341869	-0.441580
O10	O	1.582922	-0.162461	-0.570706
O11	O	1.453689	-0.264577	-0.271274
O12	O	1.283413	-0.264533	-0.441582
O13	O	1.453736	-0.341790	-0.740929
O14	O	1.283369	-0.341825	-0.570594
O15	O	1.582864	-0.264472	-0.740977
O16	O	1.582602	-0.443914	-0.441516
O17	O	1.453586	-0.443880	-0.570556
C18	C	1.245270	-0.303178	-0.506085
C19	C	1.128493	-0.303190	-0.506101
C20	C	1.073636	-0.343497	-0.573172
C21	C	0.963912	-0.343499	-0.573193
C22	C	0.963912	-0.262886	-0.439063
C23	C	1.073634	-0.262881	-0.439048
C24	C	1.518099	-0.466737	-0.506048
C25	C	1.518137	-0.536705	-0.506058
C26	C	1.585375	-0.569569	-0.438936
C27	C	1.585424	-0.635311	-0.438960
C28	C	1.518216	-0.668188	-0.506094
C29	C	1.450974	-0.635317	-0.573230
C30	C	1.450934	-0.569575	-0.573212
N31	N	1.426309	-0.771454	-0.514097
N32	N	1.426350	-0.833906	-0.514108
C33	C	1.518334	-0.866262	-0.506155
N34	N	1.610278	-0.833808	-0.498169
N35	N	1.610236	-0.771351	-0.498153
C36	C	1.518253	-0.739473	-0.506122
C37	C	1.585631	-0.970411	-0.439054
C38	C	1.585682	-1.036155	-0.439085
C39	C	1.451222	-1.036159	-0.573350
C40	C	1.451181	-0.970417	-0.573325
C41	C	1.518384	-0.937547	-0.506171
C42	C	1.792270	-0.303194	-0.506128
C43	C	1.909047	-0.303197	-0.506137
C44	C	1.518311	-0.303122	-0.780140
C45	C	1.518342	-0.303095	-0.896916
C46	C	1.518404	-0.138995	-0.506188
C47	C	1.518475	-0.069027	-0.506222
C48	C	1.451211	-0.262824	-0.951793
C49	C	1.451235	-0.262805	-1.061517
C50	C	1.585531	-0.343329	-1.061479
C51	C	1.585500	-0.343351	-0.951757
C52	C	1.518225	-0.303204	-0.233139
C53	C	1.518397	-0.303053	-0.116363
H54	H	1.118299	-0.376318	-0.627773
Br55	Br	1.676671	-0.397959	-1.135911
Br56	Br	1.359771	-0.679933	-0.664350
Br57	Br	1.360065	-0.208193	-0.877369
H58	H	1.640181	-0.662074	-0.384301
Br59	Br	1.360106	-0.208160	-1.135988
H60	H	1.118300	-0.230054	-0.384431
H61	H	1.640098	-0.542808	-0.384258
Br62	Br	1.359676	-0.524972	-0.664315
H63	H	1.640169	-0.376147	-0.907075
H64	H	0.919252	-0.376320	-0.627810
Br65	Br	1.676829	-0.925798	-0.347917
H66	H	1.640442	-1.062911	-0.384429
Br67	Br	0.889454	-0.208183	-0.348067
Br68	Br	1.360021	-1.080770	-0.664474
H69	H	1.396425	-0.943658	-0.627977
