data_functionalizedCrystal
_audit_creation_method	'MofGen! by Chris Wilmer'
_symmetry_space_group_name_H-M	'P1'
_symmetry_Int_Tables_number	1
_symmetry_cell_setting	triclinic
loop_
_symmetry_equiv_pos_as_xyz
  x,y,z
_cell_length_a	10.489711
_cell_length_b	10.489716
_cell_length_c	17.766277
_cell_angle_alpha	89.997726
_cell_angle_beta	89.989120
_cell_angle_gamma	84.528072
loop_
_atom_site_label
_atom_site_type_symbol
_atom_site_fract_x
_atom_site_fract_y
_atom_site_fract_z
O1	O	1.694069	0.179791	-0.062614
O2	O	1.322867	0.196724	-0.062609
O3	O	1.516931	0.002657	-0.062614
O4	O	1.500005	0.373858	-0.062609
O5	O	1.516896	0.002646	0.062574
O6	O	1.322832	0.196714	0.062580
O7	O	1.694034	0.179781	0.062574
Cu8	Cu	1.508430	0.188246	0.074008
Cu9	Cu	1.508471	0.188259	-0.074042
O10	O	1.499970	0.373848	0.062580
C11	C	1.275317	0.195448	-0.000014
C12	C	1.133686	0.191646	-0.000012
C13	C	0.951289	0.308352	-0.000019
C14	C	1.043457	0.250061	-0.061743
C15	C	1.043396	0.250019	0.061683
C16	C	0.973517	0.126517	-0.061804
C17	C	0.973446	0.126492	0.061678
C18	C	1.065587	0.068111	-0.000062
C19	C	1.515642	-0.044880	-0.000022
C20	C	1.511837	-0.186511	-0.000029
C21	C	1.630843	-0.284198	-0.000024
C22	C	1.567974	-0.361546	-0.061746
C23	C	1.567913	-0.361521	0.061680
C24	C	1.449018	-0.261994	-0.061802
C25	C	1.448974	-0.261963	0.061680
C26	C	1.386018	-0.339263	-0.000057
C27	C	1.741584	0.181057	-0.000022
C28	C	1.883215	0.184859	-0.000029
C29	C	1.501259	0.421385	-0.000014
C30	C	1.505064	0.563016	-0.000012
N31	N	1.508411	0.188237	0.178138
N32	N	1.508500	0.188258	-0.178173
C33	C	1.594371	0.102347	0.217523
C34	C	1.594378	0.102341	0.296324
C35	C	1.508438	0.188247	0.335739
C36	C	1.422461	0.274144	0.296345
C37	C	1.422448	0.274139	0.217544
C38	C	1.492781	0.304271	0.460578
C39	C	1.492803	0.304277	0.539377
C40	C	1.508472	0.188263	0.578785
C41	C	1.524145	0.072237	0.539384
C42	C	1.524132	0.072232	0.460584
C43	C	1.508442	0.188262	0.421184
C44	C	1.594444	0.102360	0.703615
C45	C	1.594443	0.102352	0.782419
C46	C	1.422533	0.274166	0.782437
C47	C	1.422528	0.274163	0.703636
C48	C	1.508491	0.188261	0.664229
H49	H	1.618226	-0.405042	-0.113929
C50	C	1.381232	-0.203495	-0.132380
H51	H	1.384137	-0.113253	-0.131970
H52	H	1.294539	-0.222676	-0.132561
H53	H	1.423227	-0.238454	-0.176157
H54	H	1.282425	-0.363682	-0.000089
H55	H	1.734358	-0.259532	-0.000088
H56	H	1.480049	0.398753	0.571451
C57	C	1.085180	0.320619	0.132183
H58	H	1.045649	0.405961	0.132103
H59	H	1.175606	0.321897	0.131930
H60	H	1.060030	0.277564	0.176011
C61	C	1.381155	-0.203160	0.132176
H62	H	1.423573	-0.237392	0.175993
H63	H	1.294656	-0.222950	0.132623
H64	H	1.383427	-0.112849	0.131414
H65	H	1.618161	-0.405003	0.113860
H66	H	1.352536	0.344107	0.671567
C67	C	1.688912	0.007846	0.174180
H68	H	1.740100	-0.043317	0.208927
H69	H	1.742419	0.054238	0.143425
H70	H	1.642531	-0.045708	0.143455
H71	H	1.664379	0.032396	0.328397
C72	C	1.327904	0.368633	0.174216
H73	H	1.340205	0.356325	0.121641
H74	H	1.342531	0.453900	0.187127
H75	H	1.242643	0.353953	0.187140
H76	H	1.536890	-0.022240	0.428507
H77	H	1.479999	0.398749	0.428499
H78	H	1.536903	-0.022233	0.571468
C79	C	0.931501	0.055958	0.132170
H80	H	0.890587	-0.017035	0.117343
H81	H	0.873532	0.111813	0.160724
H82	H	1.004516	0.029567	0.161930
C83	C	1.688984	0.007861	0.660265
H84	H	1.740168	-0.043309	0.695011
H85	H	1.742495	0.054257	0.629515
H86	H	1.642603	-0.045686	0.629536
H87	H	1.074462	0.302321	-0.113923
C88	C	0.931933	0.056005	-0.132383
H89	H	0.841578	0.054022	-0.131972
H90	H	0.972091	-0.029081	-0.132566
H91	H	0.956456	0.099601	-0.176159
H92	H	1.664438	0.032403	0.814486
C93	C	1.132432	-0.069124	-0.000107
H94	H	1.108512	-0.112775	-0.043994
H95	H	1.107399	-0.113324	0.043323
H96	H	1.222634	-0.065935	0.000306
H97	H	1.352485	0.344088	0.328440
C98	C	0.884128	0.445459	-0.000102
H99	H	0.907933	0.489131	-0.044014
H100	H	0.909047	0.489777	0.043302
H101	H	0.793955	0.442047	0.000337
C102	C	1.327999	0.368661	0.825783
H103	H	1.340322	0.356369	0.878356
H104	H	1.242742	0.353987	0.812884
H105	H	1.342630	0.453934	0.812863
