data_functionalizedCrystal
_audit_creation_method	'MofGen! by Chris Wilmer'
_symmetry_space_group_name_H-M	'P1'
_symmetry_Int_Tables_number	1
_symmetry_cell_setting	triclinic
loop_
_symmetry_equiv_pos_as_xyz
  x,y,z
_cell_length_a	11.792241
_cell_length_b	10.268362
_cell_length_c	14.519709
_cell_angle_alpha	89.993769
_cell_angle_beta	96.063220
_cell_angle_gamma	90.000374
loop_
_atom_site_label
_atom_site_type_symbol
_atom_site_fract_x
_atom_site_fract_y
_atom_site_fract_z
O1	O	-1.506208	-0.108177	0.126405
O2	O	-1.256208	0.141823	0.376405
O3	O	-1.006208	0.391823	0.626405
O4	O	-0.756208	0.641823	0.876405
O5	O	-1.175795	-0.108207	0.139432
O6	O	-0.925795	0.141793	0.389432
O7	O	-0.675795	0.391793	0.639432
O8	O	-0.425795	0.641793	0.889432
O9	O	-1.349762	-0.108180	-0.001288
O10	O	-1.099762	0.141820	0.248712
O11	O	-0.849762	0.391820	0.498712
O12	O	-0.599762	0.641820	0.748712
O13	O	-1.332241	-0.108205	0.267125
O14	O	-1.082241	0.141795	0.517125
O15	O	-0.832241	0.391795	0.767125
O16	O	-0.582241	0.641795	1.017125
O17	O	-1.349747	0.108421	-0.001294
O18	O	-1.099747	0.358421	0.248706
O19	O	-0.849747	0.608421	0.498706
O20	O	-0.599747	0.858421	0.748706
O21	O	-1.175780	0.108393	0.139426
O22	O	-0.925780	0.358393	0.389426
O23	O	-0.675780	0.608393	0.639426
O24	O	-0.425780	0.858393	0.889426
O25	O	-1.506193	0.108424	0.126399
O26	O	-1.256193	0.358424	0.376399
O27	O	-1.006193	0.608424	0.626399
O28	O	-0.756193	0.858424	0.876399
Cu29	Cu	-1.340985	0.128186	0.132912
Cu30	Cu	-1.090985	0.378186	0.382912
Cu31	Cu	-0.840985	0.628186	0.632912
Cu32	Cu	-0.590985	0.878186	0.882912
Cu33	Cu	-1.341003	-0.127969	0.132919
Cu34	Cu	-1.091003	0.122031	0.382919
Cu35	Cu	-0.841003	0.372031	0.632919
Cu36	Cu	-0.591003	0.622031	0.882919
O37	O	-1.332226	0.108396	0.267119
O38	O	-1.082226	0.358396	0.517119
O39	O	-0.832226	0.608396	0.767119
O40	O	-0.582226	0.858396	1.017119
C41	C	-1.133501	0.000089	0.138611
C42	C	-0.883501	0.250089	0.388611
C43	C	-0.633501	0.500089	0.638611
C44	C	-0.383501	0.750089	0.888611
C45	C	-1.007501	0.000078	0.136161
C46	C	-0.757501	0.250078	0.386161
C47	C	-0.507501	0.500078	0.636161
C48	C	-0.257501	0.750078	0.886161
C49	C	-1.348938	0.000121	-0.035654
C50	C	-1.098938	0.250121	0.214346
C51	C	-0.848938	0.500121	0.464346
C52	C	-0.598938	0.750121	0.714346
C53	C	-1.346491	0.000121	-0.138044
C54	C	-1.096491	0.250121	0.111956
C55	C	-0.846491	0.500121	0.361956
C56	C	-0.596491	0.750121	0.611956
C57	C	-1.548487	0.000124	0.127220
C58	C	-1.298487	0.250124	0.377220
C59	C	-1.048487	0.500124	0.627220
C60	C	-0.798487	0.750124	0.877220
C61	C	-1.674487	0.000127	0.129669
C62	C	-1.424487	0.250127	0.379669
C63	C	-1.174487	0.500127	0.629669
C64	C	-0.924487	0.750127	0.879669
N65	N	-1.340981	0.308352	0.132906
N66	N	-1.090981	0.558352	0.382906
N67	N	-0.840981	0.808352	0.632906
N68	N	-0.590981	1.058352	0.882906
C69	C	-0.776813	0.000116	0.131657
C70	C	-0.526813	0.250116	0.381657
C71	C	-0.276813	0.500116	0.631657
C72	C	-0.026813	0.750116	0.881657
C73	C	-0.905185	0.000095	0.134160
C74	C	-0.655185	0.250095	0.384160
C75	C	-0.405185	0.500095	0.634160
C76	C	-0.155185	0.750095	0.884160
N77	N	-1.341016	-0.308135	0.132917
N78	N	-1.091016	-0.058135	0.382917
N79	N	-0.841016	0.191865	0.632917
N80	N	-0.591016	0.441865	0.882917
C81	C	-1.340997	0.574022	0.132917
C82	C	-1.090997	0.824022	0.382917
C83	C	-0.840997	1.074022	0.632917
C84	C	-0.590997	1.324022	0.882917
C85	C	-1.340984	0.426184	0.132914
C86	C	-1.090984	0.676184	0.382914
C87	C	-0.840984	0.926184	0.632914
C88	C	-0.590984	1.176184	0.882914
C89	C	-1.337483	0.000087	-0.512973
C90	C	-1.087483	0.250087	-0.262973
C91	C	-0.837483	0.500087	-0.012973
C92	C	-0.587483	0.750087	0.237027
C93	C	-1.339984	0.000097	-0.408656
C94	C	-1.089984	0.250097	-0.158656
C95	C	-0.839984	0.500097	0.091344
C96	C	-0.589984	0.750097	0.341344
C97	C	-1.341987	0.000105	-0.325512
C98	C	-1.091987	0.250105	-0.075512
C99	C	-0.841987	0.500105	0.174488
C100	C	-0.591987	0.750105	0.424488
C101	C	-1.344489	0.000113	-0.221188
C102	C	-1.094489	0.250113	0.028812
C103	C	-0.844489	0.500113	0.278812
C104	C	-0.594489	0.750113	0.528812
C105	C	-1.333050	0.000093	0.301484
C106	C	-1.083050	0.250093	0.551484
C107	C	-0.833050	0.500093	0.801484
C108	C	-0.583050	0.750093	1.051484
C109	C	-1.335497	0.000084	0.403875
C110	C	-1.085497	0.250084	0.653875
C111	C	-0.835497	0.500084	0.903875
C112	C	-0.585497	0.750084	1.153875
