data_functionalizedCrystal
_audit_creation_method	'MofGen! by Chris Wilmer'
_symmetry_space_group_name_H-M	'P1'
_symmetry_Int_Tables_number	1
_symmetry_cell_setting	triclinic
loop_
_symmetry_equiv_pos_as_xyz
  x,y,z
_cell_length_a	10.654550
_cell_length_b	7.681481
_cell_length_c	8.559649
_cell_angle_alpha	85.095791
_cell_angle_beta	77.131784
_cell_angle_gamma	95.805617
loop_
_atom_site_label
_atom_site_type_symbol
_atom_site_fract_x
_atom_site_fract_y
_atom_site_fract_z
O1	O	1.658032	0.146563	0.209233
O2	O	1.290345	0.146534	0.230595
O3	O	1.506582	0.146549	-0.012329
O4	O	1.441795	0.146548	0.452157
O5	O	1.479892	-0.146310	0.017539
O6	O	1.263655	-0.146326	0.260463
O7	O	1.631343	-0.146296	0.239102
Zn8	Zn	1.443261	-0.192809	0.254525
Zn9	Zn	1.478426	0.193047	0.215172
O10	O	1.415106	-0.146312	0.482026
C11	C	1.230364	0.000101	0.243961
C12	C	1.091404	0.000090	0.239270
N13	N	1.419272	-0.456145	0.281381
C14	C	1.498147	0.000123	-0.056871
C15	C	1.512763	0.000134	-0.234090
C16	C	0.997146	0.000115	0.382297
C17	C	0.866585	0.000146	0.377875
C18	C	0.924554	0.000133	0.087388
C19	C	1.055112	0.000090	0.091812
C20	C	1.033439	0.000115	0.529755
C21	C	0.939179	0.000142	0.672792
C22	C	0.808617	0.000173	0.668371
C23	C	0.772316	0.000176	0.520912
C24	C	1.691324	0.000141	0.225735
C25	C	1.830285	0.000163	0.230424
N26	N	1.502427	0.456382	0.188302
C27	C	1.423541	0.000118	0.526567
C28	C	1.408926	0.000119	0.703785
H29	H	0.968743	0.000125	0.792850
C30	C	1.177055	0.000070	0.534633
N31	N	1.285228	0.000035	0.538305
C32	C	0.704932	0.000179	0.825716
N33	N	0.626838	0.000189	0.944233
H34	H	0.894988	0.000165	-0.032670
H35	H	1.334394	0.468652	0.376396
H36	H	1.587303	0.531594	0.093270
H37	H	1.308847	0.000105	-0.213826
H38	H	0.665999	0.000173	0.517326
H39	H	1.131861	0.000074	-0.024653
H40	H	1.612847	0.000128	-0.316486
