data_functionalizedCrystal
_audit_creation_method	'MofGen! by Chris Wilmer'
_symmetry_space_group_name_H-M	'P1'
_symmetry_Int_Tables_number	1
_symmetry_cell_setting	triclinic
loop_
_symmetry_equiv_pos_as_xyz
  x,y,z
_cell_length_a	16.974885
_cell_length_b	14.472311
_cell_length_c	16.992695
_cell_angle_alpha	89.990046
_cell_angle_beta	92.976847
_cell_angle_gamma	86.352112
loop_
_atom_site_label
_atom_site_type_symbol
_atom_site_fract_x
_atom_site_fract_y
_atom_site_fract_z
O1	O	1.055447	-0.002012	-0.099901
O2	O	1.555447	0.497988	0.400099
O3	O	0.826048	0.015129	-0.112636
O4	O	1.326048	0.515129	0.387364
O5	O	0.939828	0.006620	0.007873
O6	O	1.439828	0.506620	0.507873
O7	O	0.941667	0.006497	-0.220410
O8	O	1.441667	0.506497	0.279590
O9	O	0.939818	-0.147062	0.007888
O10	O	1.439818	0.352938	0.507888
O11	O	0.826038	-0.138553	-0.112621
O12	O	1.326038	0.361447	0.387379
O13	O	1.055438	-0.155693	-0.099886
O14	O	1.555438	0.344307	0.400114
Cu15	Cu	0.940737	-0.161155	-0.106252
Cu16	Cu	1.440737	0.338845	0.393748
Cu17	Cu	0.940748	0.020591	-0.106270
Cu18	Cu	1.440748	0.520591	0.393730
O19	O	0.941658	-0.147184	-0.220395
O20	O	1.441658	0.352816	0.279605
C21	C	0.796555	-0.059509	-0.112146
C22	C	1.296555	0.440491	0.387854
C23	C	0.708687	-0.052943	-0.110697
C24	C	1.208687	0.447057	0.389303
N25	N	0.940735	-0.288986	-0.106239
N26	N	1.440735	0.211014	0.393761
C27	C	0.214090	-0.006932	-0.102514
C28	C	0.714090	0.493068	0.397486
C29	C	0.296651	-0.013113	-0.103876
C30	C	0.796651	0.486887	0.396124
C31	C	0.337918	-0.099976	-0.104554
C32	C	0.837918	0.400024	0.395446
C33	C	0.296620	-0.180663	-0.103863
C34	C	0.796620	0.319337	0.396137
C35	C	0.214061	-0.174481	-0.102496
C36	C	0.714061	0.325519	0.397504
C37	C	0.584831	-0.127448	-0.108638
C38	C	1.084831	0.372552	0.391362
C39	C	0.667395	-0.133624	-0.110008
C40	C	1.167395	0.366376	0.389992
C41	C	0.667420	0.033927	-0.110019
C42	C	1.167420	0.533927	0.389981
C43	C	0.584860	0.040101	-0.108656
C44	C	1.084860	0.540101	0.391344
C45	C	0.543570	-0.040586	-0.107961
C46	C	1.043570	0.459414	0.392039
N47	N	0.422308	-0.106297	-0.105949
N48	N	0.922308	0.393703	0.394051
N49	N	0.459181	-0.034265	-0.106561
N50	N	0.959181	0.465735	0.393439
C51	C	0.940749	-0.663078	-0.106264
C52	C	1.440749	-0.163078	0.393736
C53	C	1.001854	-0.628453	-0.041997
C54	C	1.501854	-0.128453	0.458003
C55	C	1.001670	-0.521352	-0.041760
C56	C	1.501670	-0.021352	0.458240
C57	C	0.940743	-0.477487	-0.106252
C58	C	1.440743	0.022513	0.393748
C59	C	0.857126	-0.510131	-0.088476
C60	C	1.357126	-0.010131	0.411524
C61	C	0.857483	-0.617279	-0.088022
C62	C	1.357483	-0.117279	0.411978
C63	C	0.962529	-0.625205	-0.188497
C64	C	1.462529	-0.125205	0.311503
C65	C	0.964366	-0.518214	-0.187944
C66	C	1.464366	-0.018214	0.312056
C67	C	0.940734	-0.372598	-0.106246
C68	C	1.440734	0.127402	0.393754
C69	C	0.940752	-0.767967	-0.106268
C70	C	1.440752	-0.267967	0.393732
C71	C	1.084931	-0.081054	-0.100376
C72	C	1.584931	0.418946	0.399624
C73	C	1.172798	-0.087613	-0.101825
C74	C	1.672798	0.412387	0.398175
C75	C	0.937457	-0.070044	0.037091
C76	C	1.437457	0.429956	0.537091
C77	C	0.930398	-0.069516	0.124127
C78	C	1.430398	0.430484	0.624127
N79	N	0.940756	0.148421	-0.106277
N80	N	1.440756	0.648421	0.393723
C81	C	0.944028	-0.070518	-0.249613
C82	C	1.444028	0.429482	0.250387
C83	C	0.951088	-0.071040	-0.336649
C84	C	1.451088	0.428960	0.163351
C85	C	0.998512	-0.074607	0.174443
C86	C	1.498512	0.425393	0.674443
C87	C	0.991874	-0.074102	0.256222
C88	C	1.491874	0.425898	0.756222
C89	C	0.917121	-0.068513	0.287684
C90	C	1.417121	0.431487	0.787684
C91	C	0.849001	-0.063420	0.237361
C92	C	1.349001	0.436580	0.737361
C93	C	0.855640	-0.063918	0.155583
C94	C	1.355640	0.436082	0.655583
C95	C	0.889607	-0.066445	0.531251
C96	C	1.389607	0.433555	1.031251
C97	C	0.882973	-0.065950	0.613035
C98	C	1.382973	0.434050	1.113035
C99	C	1.025847	-0.076630	0.631891
C100	C	1.525847	0.423370	1.131891
C101	C	1.032479	-0.077134	0.550110
C102	C	1.532479	0.422866	1.050110
C103	C	0.964359	-0.072035	0.499795
C104	C	1.464359	0.427965	0.999795
N105	N	0.910334	-0.068000	0.371275
N106	N	1.410334	0.432000	0.871275
N107	N	0.971147	-0.072542	0.416205
N108	N	1.471147	0.427458	0.916205
H109	H	0.180496	0.063801	-0.101968
H110	H	0.680496	0.563801	0.398032
H111	H	0.180442	-0.240181	-0.101943
H112	H	0.680442	0.259819	0.398057
H113	H	1.081306	-0.080779	0.672866
H114	H	1.581306	0.419221	1.172866
H115	H	0.810379	-0.639686	-0.133056
H116	H	1.310379	-0.139686	0.366944
H117	H	1.059384	-0.079163	0.148834
H118	H	1.559384	0.420837	0.648834
H119	H	0.834138	-0.062293	0.490293
H120	H	1.334138	0.437707	0.990293
O121	O	0.782171	-0.058431	0.101314
O122	O	1.282171	0.441569	0.601314
H123	H	0.799344	-0.059707	0.039163
H124	H	1.299344	0.440293	0.539163
O125	O	1.083784	-0.492652	-0.055749
O126	O	1.583784	0.007348	0.444251
H127	H	1.102207	-0.519457	-0.113621
H128	H	1.602207	-0.019457	0.386379
H129	H	0.838404	-0.481917	-0.029191
H130	H	1.338404	0.018083	0.470809
O131	O	0.802340	-0.059928	0.646966
O132	O	1.302340	0.440072	1.146966
H133	H	0.809171	-0.060455	0.712284
H134	H	1.309171	0.439545	1.212284
H135	H	0.330227	-0.251389	-0.104410
H136	H	0.830227	0.248611	0.395590
O137	O	0.768372	-0.057401	0.271288
O138	O	1.268372	0.442599	0.771288
H139	H	0.775197	-0.057923	0.336607
H140	H	1.275197	0.442077	0.836607
H141	H	0.330267	0.052586	-0.104432
H142	H	0.830267	0.552586	0.395568
O143	O	1.113105	-0.083139	0.516176
O144	O	1.613105	0.416861	1.016176
H145	H	1.159356	-0.086580	0.564904
H146	H	1.659356	0.413420	1.064904
O147	O	0.711903	-0.227320	-0.110741
O148	O	1.211903	0.272680	0.389259
H149	H	0.776247	-0.218059	-0.111820
H150	H	1.276247	0.281941	0.388180
H151	H	0.987218	-0.494659	0.019267
H152	H	1.487218	0.005341	0.519267
H153	H	0.551266	0.110834	-0.108103
H154	H	1.051266	0.610834	0.391897
H155	H	0.923141	-0.488371	-0.238002
H156	H	1.423141	0.011629	0.261998
O157	O	0.711953	0.120951	-0.110748
O158	O	1.211953	0.620951	0.389252
H159	H	0.776296	0.102064	-0.111802
H160	H	1.276296	0.602064	0.388198
O161	O	1.065340	-0.079591	0.310495
O162	O	1.565340	0.420409	0.810495
H163	H	1.065720	-0.142251	0.348222
H164	H	1.565720	0.357749	0.848222
H165	H	0.839077	-0.640903	-0.028053
H166	H	1.339077	-0.140903	0.471947
O167	O	0.540300	-0.214470	-0.107901
O168	O	1.040300	0.285530	0.392099
H169	H	0.582867	-0.275907	-0.108614
H170	H	1.082867	0.224093	0.391386
H171	H	0.810344	-0.481172	-0.134043
H172	H	1.310344	0.018828	0.365957
H173	H	0.987579	-0.654321	0.018685
H174	H	1.487579	-0.154321	0.518685
O175	O	1.084230	-0.668713	-0.055764
O176	O	1.584230	-0.168713	0.444236
H177	H	1.082503	-0.713838	-0.108555
H178	H	1.582503	-0.213838	0.391445
H179	H	1.025904	-0.497393	-0.201434
H180	H	1.525904	0.002607	0.298566
O181	O	1.041944	-0.666903	-0.211151
O182	O	1.541944	-0.166903	0.288849
H183	H	1.034649	-0.705329	-0.267311
H184	H	1.534649	-0.205329	0.232689
O185	O	0.903594	-0.654378	-0.251854
O186	O	1.403594	-0.154378	0.248146
H187	H	0.859003	-0.695651	-0.224957
H188	H	1.359003	-0.195651	0.275043
