data_functionalizedCrystal
_audit_creation_method	'MofGen! by Chris Wilmer'
_symmetry_space_group_name_H-M	'P1'
_symmetry_Int_Tables_number	1
_symmetry_cell_setting	triclinic
loop_
_symmetry_equiv_pos_as_xyz
  x,y,z
_cell_length_a	19.121102
_cell_length_b	25.639239
_cell_length_c	25.639234
_cell_angle_alpha	89.975095
_cell_angle_beta	87.540927
_cell_angle_gamma	87.592882
loop_
_atom_site_label
_atom_site_type_symbol
_atom_site_fract_x
_atom_site_fract_y
_atom_site_fract_z
Zn1	Zn	1.073656	-0.242337	-0.329673
Zn2	Zn	1.573656	0.257663	0.170327
Zn3	Zn	1.073539	-0.329761	-0.242233
Zn4	Zn	1.573539	0.170239	0.257767
Zn5	Zn	0.956204	-0.238609	-0.238525
Zn6	Zn	1.456204	0.261391	0.261475
Zn7	Zn	0.956145	-0.326005	-0.325913
Zn8	Zn	1.456145	0.173995	0.174087
O9	O	1.014886	-0.284178	-0.284086
O10	O	1.514886	0.215822	0.215914
O11	O	1.171924	-0.257066	-0.321199
O12	O	1.671924	0.242934	0.178801
O13	O	1.057950	-0.317682	-0.168576
O14	O	1.557950	0.182318	0.331424
O15	O	0.971859	-0.165941	-0.250637
O16	O	1.471859	0.334059	0.249363
O17	O	1.171838	-0.321296	-0.256958
O18	O	1.671838	0.178704	0.243042
O19	O	1.058150	-0.168680	-0.317603
O20	O	1.558150	0.331320	0.182397
O21	O	0.971745	-0.250713	-0.165851
O22	O	1.471745	0.249287	0.334149
O23	O	0.857913	-0.247070	-0.246992
O24	O	1.357913	0.252930	0.253008
O25	O	0.971758	-0.314894	-0.399578
O26	O	1.471758	0.185106	0.100422
O27	O	0.857870	-0.311280	-0.311196
O28	O	1.357870	0.188720	0.188804
O29	O	1.058093	-0.253424	-0.402340
O30	O	1.558093	0.246576	0.097660
O31	O	1.057892	-0.402426	-0.253312
O32	O	1.557892	0.097574	0.246688
O33	O	0.971644	-0.399666	-0.314792
O34	O	1.471644	0.100334	0.185208
C35	C	0.832408	-0.278363	-0.278284
C36	C	1.332408	0.221637	0.221716
C37	C	0.754343	-0.275888	-0.275814
C38	C	1.254343	0.224112	0.224186
C39	C	0.717663	-0.308206	-0.308029
C40	C	1.217663	0.191794	0.191971
C41	C	0.644313	-0.305874	-0.305711
C42	C	1.144313	0.194126	0.194289
C43	C	0.607643	-0.271226	-0.271175
C44	C	1.107643	0.228774	0.228825
C45	C	0.644327	-0.238904	-0.238959
C46	C	1.144327	0.261096	0.261041
C47	C	0.717677	-0.241234	-0.241280
C48	C	1.217677	0.258766	0.258720
C49	C	0.386176	-0.262513	-0.262499
C50	C	0.886176	0.237487	0.237501
C51	C	0.312822	-0.260186	-0.260179
C52	C	0.812822	0.239814	0.239821
C53	C	0.312812	-0.327155	-0.326932
C54	C	0.812812	0.172845	0.173068
C55	C	0.386163	-0.329485	-0.329248
C56	C	0.886163	0.170515	0.170752
C57	C	0.422841	-0.297161	-0.297034
C58	C	0.922841	0.202839	0.202966
C59	C	0.532667	-0.268842	-0.268803
C60	C	1.032667	0.231158	0.231197
C61	C	0.497815	-0.299543	-0.299408
C62	C	0.997815	0.200457	0.200592
C63	C	1.014768	-0.420017	-0.284059
C64	C	1.514768	0.079983	0.215941
C65	C	1.014782	-0.478131	-0.284066
C66	C	1.514782	0.021869	0.215934
C67	C	1.059913	-0.839926	-0.252135
C68	C	1.559913	-0.339926	0.247865
C69	C	1.059940	-0.894531	-0.252143
C70	C	1.559940	-0.394531	0.247857
O71	O	1.098190	-0.923981	-0.224963
O72	O	1.598190	-0.423981	0.275037
N73	N	1.015010	-0.920421	-0.284125
N74	N	1.515010	-0.420421	0.215875
C75	C	0.970054	-0.891703	-0.316105
C76	C	1.470054	-0.391703	0.183895
O77	O	0.931840	-0.918739	-0.343310
O78	O	1.431840	-0.418739	0.156690
C79	C	0.970031	-0.837099	-0.316100
C80	C	1.470031	-0.337099	0.183900
C81	C	1.014959	-0.811212	-0.284111
C82	C	1.514959	-0.311212	0.215889
C83	C	1.104838	-0.814039	-0.220149
C84	C	1.604838	-0.314039	0.279851
C85	C	1.104810	-0.759437	-0.220141
C86	C	1.604810	-0.259437	0.279859
C87	C	1.059856	-0.730723	-0.252118
C88	C	1.559856	-0.230723	0.247882
C89	C	1.014931	-0.756610	-0.284103
C90	C	1.514931	-0.256610	0.215897
C91	C	0.925079	-0.808382	-0.348083
C92	C	1.425079	-0.308382	0.151917
C93	C	0.925060	-0.753775	-0.348075
C94	C	1.425060	-0.253775	0.151925
C95	C	0.969989	-0.727887	-0.316086
C96	C	1.469989	-0.227887	0.183914
C97	C	0.969949	-0.673295	-0.316071
C98	C	1.469949	-0.173295	0.183929
N99	N	1.014880	-0.647405	-0.284089
N100	N	1.514880	-0.147405	0.215911
C101	C	1.059833	-0.676119	-0.252112
C102	C	1.559833	-0.176119	0.247888
C103	C	0.970107	-1.006375	-0.316115
C104	C	1.470107	-0.506375	0.183885
C105	C	0.970126	-1.060978	-0.316118
C106	C	1.470126	-0.560978	0.183882
C107	C	1.060013	-1.063803	-0.252156
C108	C	1.560013	-0.563803	0.247844
C109	C	1.059990	-1.009199	-0.252150
C110	C	1.559990	-0.509199	0.247850
C111	C	1.015037	-0.980485	-0.284133
C112	C	1.515037	-0.480485	0.215867
C113	C	1.059770	-0.561452	-0.252097
C114	C	1.559770	-0.061452	0.247903
C115	C	1.059735	-0.506846	-0.252089
C116	C	1.559735	-0.006846	0.247911
C117	C	0.969851	-0.504026	-0.316053
C118	C	1.469851	-0.004026	0.183947
C119	C	0.969883	-0.558628	-0.316059
C120	C	1.469883	-0.058628	0.183941
C121	C	1.014848	-0.587339	-0.284079
C122	C	1.514848	-0.087339	0.215921
O123	O	0.931721	-0.643811	-0.343239
O124	O	1.431721	-0.143811	0.156761
O125	O	1.098047	-0.649077	-0.224917
O126	O	1.598047	-0.149077	0.275083
C127	C	1.198077	-0.290016	-0.289911
C128	C	1.698077	0.209984	0.210089
C129	C	1.276142	-0.292504	-0.292394
C130	C	1.776142	0.207496	0.207606
C131	C	1.014932	-0.284156	-0.420461
C132	C	1.514932	0.215844	0.079539
C133	C	1.014951	-0.284146	-0.478575
C134	C	1.514951	0.215854	0.021425
C135	C	1.015024	-0.147809	-0.284126
C136	C	1.515024	0.352191	0.215874
C137	C	1.015083	-0.089697	-0.284143
C138	C	1.515083	0.410303	0.215857
C139	C	0.970084	-0.249214	-0.837526
C140	C	1.470084	0.250786	-0.337526
C141	C	0.970088	-0.249204	-0.892131
C142	C	1.470088	0.250796	-0.392131
O143	O	0.931905	-0.219560	-0.919165
O144	O	1.431905	0.280440	-0.419165
N145	N	1.014975	-0.284065	-0.920859
N146	N	1.514975	0.215935	-0.420859
C147	C	1.059856	-0.318941	-0.894980
C148	C	1.559856	0.181059	-0.394980
O149	O	1.098035	-0.348592	-0.924429
O150	O	1.598035	0.151408	-0.424429
C151	C	1.059848	-0.318952	-0.840376
C152	C	1.559848	0.181048	-0.340376
C153	C	1.014963	-0.284086	-0.811651
C154	C	1.514963	0.215914	-0.311651
C155	C	0.925203	-0.214351	-0.808801
C156	C	1.425203	0.285649	-0.308801
C157	C	0.925200	-0.214359	-0.754200
C158	C	1.425200	0.285641	-0.254200
C159	C	0.970079	-0.249231	-0.728325
C160	C	1.470079	0.250769	-0.228325
C161	C	1.014960	-0.284095	-0.757050
C162	C	1.514960	0.215905	-0.257050
C163	C	1.104724	-0.353830	-0.814498
C164	C	1.604724	0.146170	-0.314498
C165	C	1.104712	-0.353839	-0.759891
C166	C	1.604712	0.146161	-0.259891
C167	C	1.059828	-0.318972	-0.731165
C168	C	1.559828	0.181028	-0.231165
C169	C	1.059837	-0.318975	-0.676574
C170	C	1.559837	0.181025	-0.176574
N171	N	1.014950	-0.284115	-0.647846
N172	N	1.514950	0.215885	-0.147846
C173	C	0.970071	-0.249243	-0.673721
C174	C	1.470071	0.250757	-0.173721
C175	C	1.059868	-0.318915	-1.009651
C176	C	1.559868	0.181085	-0.509651
C177	C	1.059880	-0.318901	-1.064254
C178	C	1.559880	0.181099	-0.564254
C179	C	0.970111	-0.249165	-1.061401
C180	C	1.470111	0.250835	-0.561401
C181	C	0.970103	-0.249177	-1.006797
C182	C	1.470103	0.250823	-0.506797
C183	C	1.014981	-0.284054	-0.980923
C184	C	1.514981	0.215946	-0.480923
C185	C	0.970069	-0.249264	-0.559056
C186	C	1.470069	0.250736	-0.059056
C187	C	0.970072	-0.249274	-0.504451
C188	C	1.470072	0.250726	-0.004451
C189	C	1.059838	-0.319012	-0.507308
C190	C	1.559838	0.180988	-0.007308
C191	C	1.059838	-0.319000	-0.561909
C192	C	1.559838	0.181000	-0.061909
C193	C	1.014948	-0.284124	-0.587781
C194	C	1.514948	0.215876	-0.087781
O195	O	1.097998	-0.348606	-0.649504
O196	O	1.597998	0.151394	-0.149504
O197	O	0.931891	-0.219601	-0.644265
O198	O	1.431891	0.280399	-0.144265
C199	C	1.014881	-0.284164	-0.148244
C200	C	1.514881	0.215836	0.351756
C201	C	1.014998	-0.284031	-0.090134
C202	C	1.514998	0.215969	0.409866
H203	H	0.416014	-0.357700	-0.357369
H204	H	0.916014	0.142300	0.142631
H205	H	0.933554	-0.220785	-0.983412
H206	H	1.433554	0.279215	-0.483412
H207	H	1.141396	-0.738363	-0.194095
H208	H	1.641396	-0.238363	0.305905
H209	H	0.888647	-0.185970	-0.730816
H210	H	1.388647	0.314030	-0.230816
Br211	Br	0.909151	-0.201929	-0.594160
Br212	Br	1.409151	0.298071	-0.094160
H213	H	0.282941	-0.353470	-0.353159
H214	H	0.782941	0.146530	0.146841
Br215	Br	0.908848	-0.465047	-0.359450
Br216	Br	1.408848	0.034953	0.140550
H217	H	0.933522	-0.220879	-0.481065
H218	H	1.433522	0.279121	0.018935
H219	H	1.141449	-0.837412	-0.194110
H220	H	1.641449	-0.337412	0.305890
Br221	Br	0.864276	-0.167025	-0.843906
Br222	Br	1.364276	0.332975	-0.343906
H223	H	1.096321	-0.485770	-0.226039
H224	H	1.596321	0.014230	0.273961
H225	H	1.096575	-0.988125	-0.226103
H226	H	1.596575	-0.488125	0.273897
Br227	Br	0.767457	-0.197369	-0.197561
Br228	Br	1.267457	0.302631	0.302439
H229	H	0.933568	-0.220771	-1.082478
H230	H	1.433568	0.279229	-0.582478
H231	H	1.096437	-0.347287	-1.087638
H232	H	1.596437	0.152713	-0.587638
Br233	Br	0.909089	-0.967413	-0.359520
Br234	Br	1.409089	-0.467413	0.140480
Br235	Br	0.263056	-0.213166	-0.213300
Br236	Br	0.763056	0.286834	0.286700
Br237	Br	1.165618	-0.401178	-0.724778
Br238	Br	1.665618	0.098822	-0.224778
H239	H	1.096619	-1.087192	-0.226120
H240	H	1.596619	-0.587192	0.273880
H241	H	0.502802	-0.240632	-0.240683
H242	H	1.002802	0.259368	0.259317
H243	H	1.096386	-0.584823	-0.226057
H244	H	1.596386	-0.084823	0.273943
H245	H	1.096421	-0.347313	-0.988588
H246	H	1.596421	0.152687	-0.488588
Br247	Br	0.435944	-0.218642	-0.218783
Br248	Br	0.935944	0.281358	0.281217
Br249	Br	0.909139	-1.096104	-0.359524
Br250	Br	1.409139	-0.596104	0.140476
H251	H	1.141274	-0.382223	-0.837877
H252	H	1.641274	0.117777	-0.337877
Br253	Br	0.864109	-0.843501	-0.391504
Br254	Br	1.364109	-0.343501	0.108496
Br255	Br	0.864052	-0.714810	-0.391484
Br256	Br	1.364052	-0.214810	0.108516
Br257	Br	0.908891	-0.593761	-0.359458
Br258	Br	1.408891	-0.093761	0.140542
Br259	Br	0.594562	-0.191876	-0.192093
Br260	Br	1.094562	0.308124	0.307907
H261	H	1.096380	-0.347402	-0.486231
H262	H	1.596380	0.152598	0.013769
Br263	Br	0.767422	-0.355235	-0.354897
Br264	Br	1.267422	0.144765	0.145103
Br265	Br	0.594536	-0.349735	-0.349434
Br266	Br	1.094536	0.150265	0.150566
H267	H	0.527675	-0.327751	-0.327529
H268	H	1.027675	0.172249	0.172471
Br269	Br	1.120767	-0.366308	-0.600895
Br270	Br	1.620767	0.133692	-0.100895
