data_functionalizedCrystal
_audit_creation_method	'MofGen! by Chris Wilmer'
_symmetry_space_group_name_H-M	'P1'
_symmetry_Int_Tables_number	1
_symmetry_cell_setting	triclinic
loop_
_symmetry_equiv_pos_as_xyz
  x,y,z
_cell_length_a	17.038272
_cell_length_b	9.130313
_cell_length_c	10.654550
_cell_angle_alpha	89.994910
_cell_angle_beta	92.201757
_cell_angle_gamma	89.994752
loop_
_atom_site_label
_atom_site_type_symbol
_atom_site_fract_x
_atom_site_fract_y
_atom_site_fract_z
O1	O	1.038886	0.121616	-0.272866
O2	O	1.538886	0.621616	0.227134
O3	O	0.811231	0.121659	-0.268533
O4	O	1.311231	0.621659	0.231467
O5	O	0.930293	0.121627	-0.088446
O6	O	1.430293	0.621627	0.411554
O7	O	0.919825	0.121647	-0.452953
O8	O	1.419825	0.621647	0.047047
O9	O	0.930292	-0.121972	-0.088437
O10	O	1.430292	0.378028	0.411563
O11	O	0.811230	-0.121940	-0.268524
O12	O	1.311230	0.378060	0.231476
O13	O	1.038885	-0.121983	-0.272857
O14	O	1.538885	0.378017	0.227143
Cu15	Cu	0.925058	-0.144204	-0.270689
Cu16	Cu	1.425058	0.355796	0.229311
Cu17	Cu	0.925059	0.143880	-0.270700
Cu18	Cu	1.425059	0.643880	0.229300
O19	O	0.919824	-0.121951	-0.452943
O20	O	1.419824	0.378049	0.047057
C21	C	0.782081	-0.000135	-0.264588
C22	C	1.282081	0.499865	0.235412
C23	C	0.695222	-0.000119	-0.252831
C24	C	1.195222	0.499881	0.247169
N25	N	0.925062	-0.346827	-0.270681
N26	N	1.425062	0.153173	0.229319
N27	N	0.925060	0.346502	-0.270699
N28	N	1.425060	0.846502	0.229301
C29	C	0.645711	-0.000114	-0.360775
C30	C	1.145711	0.499886	0.139225
C31	C	0.564098	-0.000135	-0.349720
C32	C	1.064098	0.499865	0.150280
C33	C	0.531999	-0.000150	-0.230720
C34	C	1.031999	0.499850	0.269280
C35	C	0.581517	-0.000159	-0.122768
C36	C	1.081517	0.499841	0.377232
C37	C	0.663127	-0.000149	-0.133824
C38	C	1.163127	0.499851	0.366176
C39	C	0.286023	-0.000192	-0.191663
C40	C	0.786023	0.499808	0.308337
C41	C	0.204406	-0.000197	-0.180615
C42	C	0.704406	0.499803	0.319385
C43	C	0.186993	-0.000176	-0.407568
C44	C	0.686993	0.499824	0.092432
C45	C	0.268606	-0.000157	-0.418614
C46	C	0.768606	0.499843	0.081386
C47	C	0.318117	-0.000174	-0.310661
C48	C	0.818117	0.499826	0.189339
C49	C	0.448578	-0.000167	-0.219418
C50	C	0.948578	0.499833	0.280582
C51	C	0.401536	-0.000167	-0.321965
C52	C	0.901536	0.499833	0.178035
C53	C	1.068036	-0.000186	-0.276802
C54	C	1.568036	0.499814	0.223198
C55	C	1.154895	-0.000193	-0.288559
C56	C	1.654895	0.499807	0.211441
C57	C	0.929524	-0.000171	-0.041572
C58	C	1.429524	0.499829	0.458428
C59	C	0.927224	-0.000169	0.098084
C60	C	1.427224	0.499831	0.598084
C61	C	0.977881	0.423140	-0.191134
C62	C	1.477881	0.923140	0.308866
C63	C	0.977884	0.576477	-0.191128
C64	C	1.477884	1.076477	0.308872
C65	C	0.872239	0.576525	-0.350255
C66	C	1.372239	1.076525	0.149745
C67	C	0.872241	0.423191	-0.350267
C68	C	1.372241	0.923191	0.149733
C69	C	0.920593	-0.000150	-0.499817
C70	C	1.420593	0.499850	0.000183
C71	C	0.922892	-0.000143	-0.639474
C72	C	1.422892	0.499857	-0.139474
C73	C	0.997326	-0.000182	0.171061
C74	C	1.497326	0.499818	0.671061
C75	C	0.995160	-0.000163	0.302283
C76	C	1.495160	0.499837	0.802283
C77	C	0.852785	-0.000126	0.287540
C78	C	1.352785	0.499874	0.787540
C79	C	0.854952	-0.000133	0.156320
C80	C	1.354952	0.499867	0.656320
H81	H	0.671839	-0.000101	-0.457677
H82	H	1.171839	0.499899	0.042323
F83	F	0.780336	-0.000109	0.078648
F84	F	1.280336	0.499891	0.578648
F85	F	1.034098	0.341529	-0.106454
F86	F	1.534098	0.841529	0.393546
F87	F	0.775872	-0.000087	0.349530
F88	F	1.275872	0.499913	0.849530
H89	H	1.020896	0.638871	-0.126340
H90	H	1.520896	1.138871	0.373660
H91	H	0.829234	0.638980	-0.415036
H92	H	1.329234	1.138980	0.084964
H93	H	0.829227	0.360788	-0.415065
H94	H	1.329227	0.860788	0.084935
H95	H	0.523789	-0.000129	-0.437620
H96	H	1.023789	0.499871	0.062380
F97	F	1.074244	-0.000217	0.109086
F98	F	1.574244	0.499783	0.609086
H99	H	0.178274	-0.000208	-0.083706
H100	H	0.678274	0.499792	0.416294
F101	F	0.302763	-0.000133	-0.545269
F102	F	0.802763	0.499867	-0.045269
F103	F	0.134296	-0.000161	-0.522450
F104	F	0.634296	0.499839	-0.022450
H105	H	1.052244	-0.000170	0.361695
H106	H	1.552244	0.499830	0.861695
H107	H	0.555375	-0.000193	-0.025876
H108	H	1.055375	0.499807	0.474124
F109	F	0.338705	-0.000209	-0.076768
F110	F	0.838705	0.499791	0.423232
F111	F	0.414408	-0.000178	-0.092773
F112	F	0.914408	0.499822	0.407227
H113	H	0.427675	-0.000163	-0.418854
H114	H	0.927675	0.499837	0.081146
F115	F	0.715821	-0.000159	-0.018935
F116	F	1.215821	0.499841	0.481065
