data_functionalizedCrystal
_audit_creation_method	'MofGen! by Chris Wilmer'
_symmetry_space_group_name_H-M	'P1'
_symmetry_Int_Tables_number	1
_symmetry_cell_setting	triclinic
loop_
_symmetry_equiv_pos_as_xyz
  x,y,z
_cell_length_a	15.186229
_cell_length_b	10.967862
_cell_length_c	16.109301
_cell_angle_alpha	84.101751
_cell_angle_beta	89.999106
_cell_angle_gamma	102.133637
loop_
_atom_site_label
_atom_site_type_symbol
_atom_site_fract_x
_atom_site_fract_y
_atom_site_fract_z
O1	O	-0.324491	-1.655664	-0.116639
O2	O	-0.269354	-1.292359	-0.127794
O3	O	-0.298442	-1.483992	-0.001245
O4	O	-0.295403	-1.464031	-0.243189
O5	O	-0.151982	-1.483979	-0.001243
O6	O	-0.122895	-1.292346	-0.127792
O7	O	-0.178031	-1.655652	-0.116637
Zn8	Zn	-0.127210	-1.473997	-0.122214
Zn9	Zn	-0.320176	-1.474014	-0.122217
O10	O	-0.148944	-1.464019	-0.243187
C11	C	-0.189069	-1.245863	-0.126980
C12	C	-0.168047	-1.107339	-0.124547
N13	N	0.004483	-1.473995	-0.122212
C14	C	-0.212834	-0.902421	-0.120958
C15	C	-0.234557	-1.045594	-0.123466
N16	N	-0.451871	-1.474026	-0.122213
C17	C	0.217322	-1.558878	-0.066195
C18	C	0.309511	-1.558882	-0.066193
C19	C	0.335286	-1.389133	-0.178232
C20	C	0.243099	-1.389124	-0.178229
C21	C	0.184119	-1.474004	-0.122212
C22	C	0.368494	-1.474017	-0.122213
C23	C	0.468450	-1.474020	-0.122211
C24	C	0.084157	-1.473999	-0.122212
C25	C	-0.258315	-0.702148	-0.117449
C26	C	-0.279334	-0.840673	-0.119877
C27	C	-0.222295	-1.464833	-0.274167
C28	C	-0.222660	-1.467258	-0.366477
C29	C	-0.206271	-1.359183	-0.588111
C30	C	-0.206625	-1.361470	-0.674845
C31	C	-0.241127	-1.588836	-0.656313
C32	C	-0.240779	-1.586548	-0.569581
C33	C	-0.223346	-1.471717	-0.535483
C34	C	-0.224047	-1.476293	-0.708949
C35	C	-0.224431	-1.478774	-0.802989
C36	C	-0.222964	-1.469236	-0.441436
C37	C	-0.225092	-1.483177	0.029736
C38	C	-0.224734	-1.480753	0.122046
H39	H	-0.139819	-0.849290	-0.120030
Cl40	Cl	0.351250	-1.665584	0.004232
H41	H	0.169302	-1.627991	-0.020581
Cl42	Cl	-0.262252	-1.728031	-0.503414
Cl43	Cl	0.409435	-1.282437	-0.248654
H44	H	-0.192722	-1.269833	-0.717693
H45	H	-0.352349	-0.893802	-0.120813
Cl46	Cl	-0.347294	-1.127606	-0.124911
Cl47	Cl	-0.184360	-1.214825	-0.545248
Cl48	Cl	-0.055308	-1.025328	-0.123115
H49	H	0.216065	-1.320003	-0.223845
H50	H	-0.255311	-1.682328	-0.684087
