data_functionalizedCrystal
_audit_creation_method	'MofGen! by Chris Wilmer'
_symmetry_space_group_name_H-M	'P1'
_symmetry_Int_Tables_number	1
_symmetry_cell_setting	triclinic
loop_
_symmetry_equiv_pos_as_xyz
  x,y,z
_cell_length_a	12.645331
_cell_length_b	13.032868
_cell_length_c	13.032268
_cell_angle_alpha	76.714099
_cell_angle_beta	97.162247
_cell_angle_gamma	82.788738
loop_
_atom_site_label
_atom_site_type_symbol
_atom_site_fract_x
_atom_site_fract_y
_atom_site_fract_z
Zn1	Zn	1.471983	0.499109	-0.654205
Zn2	Zn	1.971983	0.999109	-0.154205
Zn3	Zn	1.471846	0.654193	-0.499145
Zn4	Zn	1.971846	1.154193	0.000855
Zn5	Zn	1.320498	0.476601	-0.476623
Zn6	Zn	1.820498	0.976601	0.023377
Zn7	Zn	1.268871	0.676662	-0.676683
Zn8	Zn	1.768871	1.176662	-0.176683
O9	O	1.383300	0.576641	-0.576664
O10	O	1.883300	1.076641	-0.076664
O11	O	1.620307	0.519697	-0.633654
O12	O	2.120307	1.019697	-0.133654
O13	O	1.473319	0.611811	-0.347539
O14	O	1.973319	1.111811	0.152461
O15	O	1.362255	0.330958	-0.481346
O16	O	1.862255	0.830958	0.018654
O17	O	1.620207	0.633637	-0.519733
O18	O	2.120207	1.133637	-0.019733
O19	O	1.473551	0.347494	-0.611815
O20	O	1.973551	0.847494	-0.111815
O21	O	1.362123	0.481336	-0.330992
O22	O	1.862123	0.981336	0.169008
O23	O	1.165307	0.503123	-0.503142
O24	O	1.665307	1.003123	-0.003142
O25	O	1.274266	0.671933	-0.822319
O26	O	1.774266	1.171933	-0.322319
O27	O	1.127377	0.650107	-0.650126
O28	O	1.627377	1.150107	-0.150126
O29	O	1.423491	0.541485	-0.805805
O30	O	1.923491	1.041485	-0.305805
O31	O	1.423259	0.805802	-0.541529
O32	O	1.923259	1.305802	-0.041529
O33	O	1.274134	0.822311	-0.671965
O34	O	1.774134	1.322311	-0.171965
C35	C	1.107878	0.576612	-0.576630
C36	C	1.607878	1.076612	-0.076630
C37	C	0.990044	0.576628	-0.576644
C38	C	1.490044	1.076628	-0.076644
C39	C	1.343105	0.852597	-0.611653
C40	C	1.843105	1.352597	-0.111653
C41	C	1.326001	0.970657	-0.626657
C42	C	1.826001	1.470657	-0.126657
C43	C	1.392209	1.015095	-0.568858
C44	C	1.892209	1.515095	-0.068858
C45	C	1.374533	1.137116	-0.584364
C46	C	1.874533	1.637116	-0.084364
C47	C	0.846295	0.483841	-0.484581
C48	C	1.346295	0.983841	0.015419
C49	C	0.968876	0.484008	-0.484249
C50	C	1.468876	0.984008	0.015751
C51	C	0.933699	0.684636	-0.560265
C52	C	1.433699	1.184636	-0.060265
C53	C	0.811247	0.684115	-0.559651
C54	C	1.311247	1.184115	-0.059651
C55	C	0.810676	0.562514	-0.685535
C56	C	1.310676	1.062514	-0.185535
C57	C	0.933736	0.559935	-0.684594
C58	C	1.433736	1.059935	-0.184594
C59	C	1.659796	0.576671	-0.576698
C60	C	2.159796	1.076671	-0.076698
C61	C	1.777623	0.576684	-0.576713
C62	C	2.277623	1.076684	-0.076713
C63	C	1.343135	0.611726	-0.853675
C64	C	1.843135	1.111726	-0.353675
C65	C	1.326019	0.626677	-0.971720
C66	C	1.826019	1.126677	-0.471720
C67	C	1.423644	1.299609	-0.541549
C68	C	1.923644	1.799609	-0.041549
C69	C	1.440751	1.181551	-0.526556
C70	C	1.940751	1.681551	-0.026556
C71	C	1.392222	0.568800	-1.016178
C72	C	1.892222	1.068800	-0.516178
C73	C	1.374533	0.584251	-1.138184
C74	C	1.874533	1.084251	-0.638184
C75	C	1.423380	0.541616	-0.300721
C76	C	1.923380	1.041616	0.199279
C77	C	1.440745	0.526366	-0.182638
C78	C	1.940745	1.026366	0.317362
H79	H	1.461983	0.962808	-0.507897
H80	H	1.961983	1.462808	-0.007897
Br81	Br	1.034516	0.349774	-0.498645
Br82	Br	1.534516	0.849774	0.001355
H83	H	0.764099	0.754868	-0.624600
H84	H	1.264099	1.254868	-0.124600
Br85	Br	1.258244	1.224257	-0.685992
Br86	Br	1.758244	1.724257	-0.185992
H87	H	0.972603	0.698849	-0.482067
H88	H	1.472603	1.198849	0.017933
H89	H	0.824780	0.491917	-0.404114
H90	H	1.324780	0.991917	0.095886
Br91	Br	1.209712	0.728326	-1.058817
Br92	Br	1.709712	1.228326	-0.558817
H93	H	1.510530	1.129265	-0.465592
H94	H	2.010530	1.629265	0.034408
Br95	Br	0.996626	0.427590	-0.705627
Br96	Br	1.496626	0.927590	-0.205627
Br97	Br	1.508494	0.467110	-0.929076
Br98	Br	2.008494	0.967110	-0.429076
Br99	Br	0.953051	0.801990	-0.669645
Br100	Br	1.453051	1.301990	-0.169645
H101	H	1.304748	0.645238	-1.190443
H102	H	1.804748	1.145238	-0.690443
H103	H	1.256235	1.022948	-0.687625
H104	H	1.756235	1.522948	-0.187625
H105	H	1.510519	0.465366	-1.130379
H106	H	2.010519	0.965366	-0.630379
H107	H	0.826175	0.403028	-0.492982
H108	H	1.326175	0.903028	0.007018
H109	H	1.007528	0.492231	-0.403318
H110	H	1.507528	0.992231	0.096682
Br111	Br	0.955804	0.666322	-0.803219
Br112	Br	1.455804	1.166322	-0.303219
H113	H	0.791039	0.697801	-0.480518
H114	H	1.291039	1.197801	0.019482
H115	H	0.787394	0.485879	-0.703170
H116	H	1.287394	0.985879	-0.203170
H117	H	0.764121	0.630310	-0.754007
H118	H	1.264121	1.130310	-0.254007
