data_functionalizedCrystal
_audit_creation_method	'MofGen! by Chris Wilmer'
_symmetry_space_group_name_H-M	'P1'
_symmetry_Int_Tables_number	1
_symmetry_cell_setting	triclinic
loop_
_symmetry_equiv_pos_as_xyz
  x,y,z
_cell_length_a	18.215407
_cell_length_b	25.639234
_cell_length_c	18.215405
_cell_angle_alpha	90.025422
_cell_angle_beta	89.977671
_cell_angle_gamma	89.981735
loop_
_atom_site_label
_atom_site_type_symbol
_atom_site_fract_x
_atom_site_fract_y
_atom_site_fract_z
Zn1	Zn	1.125078	-0.295586	0.293079
Zn2	Zn	1.625078	0.204414	0.793079
Zn3	Zn	1.124985	-0.208149	0.416140
Zn4	Zn	1.624985	0.291851	0.916140
Zn5	Zn	1.002009	-0.208167	0.293086
Zn6	Zn	1.502009	0.291833	0.793086
Zn7	Zn	1.001977	-0.295556	0.416103
Zn8	Zn	1.501977	0.204444	0.916103
O9	O	1.063512	-0.251864	0.354602
O10	O	1.563512	0.248136	0.854602
O11	O	1.228050	-0.283992	0.309416
O12	O	1.728050	0.216008	0.809416
O13	O	1.108646	-0.134986	0.399834
O14	O	1.608646	0.365014	0.899834
O15	O	1.018387	-0.219783	0.190101
O16	O	1.518387	0.280217	0.690101
O17	O	1.227982	-0.219753	0.399828
O18	O	1.727982	0.280247	0.899828
O19	O	1.108806	-0.284009	0.190096
O20	O	1.608806	0.215991	0.690096
O21	O	1.018296	-0.134999	0.309427
O22	O	1.518296	0.365001	0.809427
O23	O	0.899021	-0.219754	0.309392
O24	O	1.399021	0.280246	0.809392
O25	O	1.018332	-0.368725	0.399766
O26	O	1.518332	0.131275	0.899766
O27	O	0.898997	-0.283959	0.399772
O28	O	1.398997	0.216041	0.899772
O29	O	1.108774	-0.368747	0.309381
O30	O	1.608774	0.131253	0.809381
O31	O	1.108615	-0.219724	0.519119
O32	O	1.608615	0.280276	1.019119
O33	O	1.018242	-0.283942	0.519092
O34	O	1.518242	0.216058	1.019092
C35	C	0.872306	-0.251855	0.354579
C36	C	1.372306	0.248145	0.854579
C37	C	0.790507	-0.251864	0.354587
C38	C	1.290507	0.248136	0.854587
C39	C	0.602348	-0.285366	0.307607
C40	C	1.102348	0.214634	0.807607
C41	C	0.525489	-0.285368	0.307613
C42	C	1.025489	0.214632	0.807613
C43	C	0.525429	-0.218372	0.401618
C44	C	1.025429	0.281628	0.901618
C45	C	0.602286	-0.218368	0.401607
C46	C	1.102286	0.281632	0.901607
C47	C	0.640744	-0.251868	0.354603
C48	C	1.140744	0.248132	0.854603
C49	C	0.487028	-0.251874	0.354620
C50	C	0.987028	0.248126	0.854620
C51	C	0.403694	-0.251875	0.354627
C52	C	0.903694	0.248125	0.854627
C53	C	0.724083	-0.251866	0.354594
C54	C	1.224083	0.248134	0.854594
C55	C	1.063560	-0.388238	0.354568
C56	C	1.563560	0.111762	0.854568
C57	C	1.063581	-0.446352	0.354554
C58	C	1.563581	0.053648	0.854554
C59	C	1.016556	-0.806727	0.307392
C60	C	1.516556	-0.306727	0.807392
C61	C	1.016560	-0.861331	0.307378
C62	C	1.516560	-0.361331	0.807378
O63	O	0.976541	-0.889578	0.267360
O64	O	1.476541	-0.389578	0.767360
N65	N	1.063605	-0.888634	0.354439
N66	N	1.563605	-0.388634	0.854439
C67	C	1.110644	-0.861330	0.401521
C68	C	1.610644	-0.361330	0.901521
O69	O	1.150659	-0.889567	0.441549
O70	O	1.650659	-0.389567	0.941549
C71	C	1.110636	-0.806727	0.401537
C72	C	1.610636	-0.306727	0.901537
C73	C	1.063593	-0.779427	0.354468
C74	C	1.563593	-0.279427	0.854468
C75	C	0.969516	-0.779427	0.260327
C76	C	1.469516	-0.279427	0.760327
C77	C	0.969514	-0.724826	0.260340
C78	C	1.469514	-0.224826	0.760340
C79	C	1.016550	-0.697526	0.307417
C80	C	1.516550	-0.197526	0.807417
C81	C	1.063590	-0.724826	0.354481
C82	C	1.563590	-0.224826	0.854481
C83	C	1.157670	-0.779424	0.448623
C84	C	1.657670	-0.279424	0.948623
C85	C	1.157657	-0.724816	0.448635
C86	C	1.657657	-0.224816	0.948635
C87	C	1.110615	-0.697516	0.401567
C88	C	1.610615	-0.197516	0.901567
C89	C	1.110624	-0.642925	0.401571
C90	C	1.610624	-0.142925	0.901571
N91	N	1.063579	-0.615622	0.354510
N92	N	1.563579	-0.115622	0.854510
C93	C	1.016542	-0.642922	0.307433
C94	C	1.516542	-0.142922	0.807433
C95	C	1.110657	-0.976001	0.401483
C96	C	1.610657	-0.476001	0.901483
C97	C	1.110669	-1.030603	0.401464
C98	C	1.610669	-0.530603	0.901464
C99	C	1.016584	-1.030601	0.307322
C100	C	1.516584	-0.530601	0.807322
C101	C	1.016576	-0.975997	0.307338
C102	C	1.516576	-0.475997	0.807338
C103	C	1.063612	-0.948698	0.354423
C104	C	1.563612	-0.448698	0.854423
C105	C	1.016540	-0.528257	0.307463
C106	C	1.516540	-0.028257	0.807463
C107	C	1.016544	-0.473652	0.307477
C108	C	1.516544	0.026348	0.807477
C109	C	1.110626	-0.473659	0.401621
C110	C	1.610626	0.026341	0.901621
C111	C	1.110625	-0.528260	0.401604
C112	C	1.610625	-0.028260	0.901604
C113	C	1.063577	-0.555558	0.354523
C114	C	1.563577	-0.055558	0.854523
O115	O	1.150620	-0.614643	0.441571
O116	O	1.650620	-0.114643	0.941571
O117	O	0.976527	-0.614679	0.267419
O118	O	1.476527	-0.114679	0.767419
C119	C	1.255465	-0.251874	0.354625
C120	C	1.755465	0.248126	0.854625
C121	C	1.337264	-0.251878	0.354635
C122	C	1.837264	0.248122	0.854635
C123	C	1.063435	-0.251839	0.545808
C124	C	1.563435	0.248161	1.045808
C125	C	1.063469	-0.251846	0.627607
C126	C	1.563469	0.248154	1.127607
C127	C	1.063507	-0.116022	0.354582
C128	C	1.563507	0.383978	0.854582
C129	C	1.063629	-0.057908	0.354389
C130	C	1.563629	0.442092	0.854389
C131	C	1.063610	-0.251901	0.162649
C132	C	1.563610	0.248099	0.662649
C133	C	1.063652	-0.251917	0.080850
C134	C	1.563652	0.248083	0.580850
C135	C	1.110637	-0.218470	0.815791
C136	C	1.610637	0.281530	1.315791
C137	C	1.110670	-0.218482	0.892649
C138	C	1.610670	0.281518	1.392649
C139	C	1.016482	-0.285297	0.892661
C140	C	1.516482	0.214703	1.392661
C141	C	1.016453	-0.285287	0.815804
C142	C	1.516453	0.214713	1.315804
C143	C	1.063530	-0.251870	0.777371
C144	C	1.563530	0.248130	1.277371
C145	C	1.063591	-0.251893	0.931087
C146	C	1.563591	0.248107	1.431087
C147	C	1.063627	-0.251907	1.014420
C148	C	1.563627	0.248093	1.514420
C149	C	1.063495	-0.251856	0.694032
C150	C	1.563495	0.248144	1.194032
H151	H	0.633549	-0.191087	0.439878
H152	H	1.133549	0.308913	0.939878
N153	N	1.158786	-0.184370	0.931906
N154	N	1.658786	0.315630	1.431906
N155	N	1.205684	-0.202802	0.974740
N156	N	1.705684	0.297198	1.474740
H157	H	1.239668	-0.178710	1.002466
H158	H	1.739668	0.321290	1.502466
N159	N	1.158716	-0.184339	0.776521
N160	N	1.658716	0.315661	1.276521
N161	N	1.132834	-0.150998	0.733684
N162	N	1.632834	0.349002	1.233684
H163	H	1.166791	-0.126892	0.705950
H164	H	1.666791	0.373108	1.205950
H165	H	0.978153	-0.312503	0.923963
H166	H	1.478153	0.187497	1.423963
N167	N	0.968334	-0.319401	0.776543
N168	N	1.468334	0.180599	1.276543
N169	N	0.968320	-0.319387	0.707921
N170	N	1.468320	0.180613	1.207921
H171	H	0.934340	-0.343481	0.680190
H172	H	1.434340	0.156519	1.180190
H173	H	0.633658	-0.312642	0.269331
H174	H	1.133658	0.187358	0.769331
H175	H	0.931210	-0.801649	0.221991
H176	H	1.431210	-0.301649	0.721991
N177	N	0.486281	-0.319586	0.259599
N178	N	0.986281	0.180414	0.759599
N179	N	0.520630	-0.349490	0.217635
N180	N	1.020630	0.150510	0.717635
H181	H	0.492940	-0.373657	0.183721
H182	H	0.992940	0.126343	0.683721
H183	H	0.978236	-0.451427	0.269145
H184	H	1.478236	0.048573	0.769145
N185	N	0.486132	-0.184158	0.449624
N186	N	0.986132	0.315842	0.949624
N187	N	0.417510	-0.184166	0.449629
N188	N	0.917510	0.315834	0.949629
H189	H	0.389757	-0.160002	0.483535
H190	H	0.889757	0.339998	0.983535
N191	N	1.158707	-0.948107	0.449571
N192	N	1.658707	-0.448107	0.949571
N193	N	1.132796	-0.917624	0.496475
N194	N	1.632796	-0.417624	0.996475
H195	H	1.166730	-0.897925	0.530436
H196	H	1.666730	-0.397925	1.030436
H197	H	0.978229	-0.550477	0.269123
H198	H	1.478229	-0.050477	0.769123
H199	H	0.931204	-0.702603	0.222014
H200	H	1.431204	-0.202603	0.722014
H201	H	1.195977	-0.801642	0.486952
H202	H	1.695977	-0.301642	0.986952
N203	N	0.968523	-0.948121	0.259251
N204	N	1.468523	-0.448121	0.759251
N205	N	0.926537	-0.972510	0.217218
N206	N	1.426537	-0.472510	0.717218
H207	H	0.892597	-0.952825	0.183253
H208	H	1.392597	-0.452825	0.683253
H209	H	0.978284	-1.052838	0.268990
H210	H	1.478284	-0.552838	0.768990
H211	H	1.148984	-1.052826	0.439784
H212	H	1.648984	-0.552826	0.939784
H213	H	1.195965	-0.702592	0.486974
H214	H	1.695965	-0.202592	0.986974
H215	H	1.148939	-0.550489	0.439924
H216	H	1.648939	-0.050489	0.939924
H217	H	1.148924	-0.451421	0.439948
H218	H	1.648924	0.048579	0.939948
