data_functionalizedCrystal
_audit_creation_method	'MofGen! by Chris Wilmer'
_symmetry_space_group_name_H-M	'P1'
_symmetry_Int_Tables_number	1
_symmetry_cell_setting	triclinic
loop_
_symmetry_equiv_pos_as_xyz
  x,y,z
_cell_length_a	14.395555
_cell_length_b	14.446369
_cell_length_c	14.446369
_cell_angle_alpha	90.002881
_cell_angle_beta	60.001429
_cell_angle_gamma	60.001280
loop_
_atom_site_label
_atom_site_type_symbol
_atom_site_fract_x
_atom_site_fract_y
_atom_site_fract_z
Zr1	Zr	1.016751	0.891794	-0.121450
O2	O	1.210544	0.743992	-0.269261
O3	O	0.822956	0.937099	-0.076136
O4	O	1.016741	0.937105	-0.269249
O5	O	1.016768	0.743985	0.076181
O6	O	1.016735	1.089441	-0.269243
O7	O	1.016759	0.743986	-0.076147
O8	O	0.670089	1.089430	0.076202
O9	O	1.363414	0.743996	-0.269263
O10	O	0.902663	1.070113	-0.056808
O11	O	0.902674	0.956426	0.056869
O12	O	1.130831	0.956433	-0.170497
O13	O	1.130841	0.842746	-0.056821
Zr14	Zr	1.016755	1.134752	0.121507
Zr15	Zr	1.016742	1.134752	-0.121439
Zr16	Zr	1.016764	0.891794	0.121497
Zr17	Zr	1.260560	0.891801	-0.121454
Zr18	Zr	0.772946	1.134744	0.121511
O19	O	1.210550	1.089446	0.076193
O20	O	1.210531	1.089447	-0.269246
O21	O	1.210563	0.743991	0.076178
O22	O	0.822962	1.282554	0.269318
O23	O	0.822943	1.282554	-0.076121
O24	O	0.822975	0.937099	0.269303
O25	O	1.016739	1.282560	-0.076124
O26	O	1.016765	1.089440	0.269307
O27	O	1.016771	0.937104	0.269300
O28	O	1.016747	1.282560	0.076205
O29	O	1.363406	0.937116	-0.269255
O30	O	0.670100	1.089430	0.269312
O31	O	0.670092	1.282549	0.269320
O32	O	0.670082	1.282550	0.076210
O33	O	1.363425	0.743996	-0.076153
O34	O	1.363417	0.937115	-0.076144
O35	O	0.902675	1.070112	0.170555
O36	O	0.902665	1.183799	0.056878
O37	O	1.130833	1.070120	-0.056811
O38	O	1.130843	0.956433	0.056865
C39	C	0.711785	1.013264	0.000033
C40	C	0.608282	1.013261	0.000035
C41	C	1.016765	0.709369	0.000015
C42	C	1.016769	0.606227	0.000011
C43	C	1.016736	1.013273	-0.303861
C44	C	1.016731	1.013273	-0.406998
C45	C	0.547695	0.951277	0.062020
C46	C	0.561947	0.906354	-0.044879
C47	C	0.409633	1.058157	0.106901
C48	C	0.623960	0.968275	-0.106927
C49	C	0.471583	1.120137	0.044931
C50	C	0.485882	1.075240	-0.062032
C51	C	1.321721	1.013282	0.000024
C52	C	1.425225	1.013285	0.000022
C53	C	1.160689	0.495236	-0.071696
C54	C	1.160740	0.387930	-0.071362
C55	C	0.944852	0.495100	0.123604
C56	C	0.945809	0.601936	0.123191
C57	C	0.943688	0.603088	-0.050837
C58	C	0.946361	0.494435	-0.053312
C59	C	1.016741	1.317176	0.000042
C60	C	1.016737	1.420318	0.000046
C61	C	0.872840	1.085328	-0.481975
C62	C	0.872743	1.085016	-0.374647
C63	C	1.088213	0.889747	-0.481564
C64	C	1.087299	0.890141	-0.588423
C65	C	1.090256	1.063747	-0.589989
C66	C	1.087544	1.066247	-0.481317
C67	C	1.016770	1.013272	0.303918
C68	C	1.016775	1.013272	0.407055
C69	C	0.711773	1.317167	0.000046
C70	C	0.608266	1.420306	0.000052
C71	C	0.711802	1.013263	0.303923
C72	C	0.608304	1.013260	0.407061
C73	C	0.711790	1.317167	0.303936
C74	C	0.608288	1.420306	0.407079
C75	C	1.321716	0.709379	-0.303879
C76	C	1.425218	0.606240	-0.407022
C77	C	1.321733	0.709378	0.000011
C78	C	1.425240	0.606239	0.000005
C79	C	1.321705	1.013282	-0.303865
C80	C	1.425202	1.013286	-0.407004
C81	C	0.461435	1.638669	0.071388
C82	C	0.568737	1.531441	0.071793
C83	C	0.480965	1.423631	0.052351
C84	C	0.373208	1.531395	0.052870
C85	C	0.548790	1.530028	-0.123683
C86	C	0.657646	1.424063	-0.123485
C87	C	0.461480	0.941207	0.482043
C88	C	0.568775	0.941515	0.374713
C89	C	0.481002	1.136788	0.481622
C90	C	0.373251	1.136397	0.588483
C91	C	0.548843	0.962797	0.590059
C92	C	0.657693	0.960293	0.481385
C93	C	0.461442	1.495287	0.625442
C94	C	0.568759	1.387957	0.518209
C95	C	0.480992	1.494845	0.410395
C96	C	0.373220	1.601705	0.518164
C97	C	0.548777	1.603325	0.516823
C98	C	0.657648	1.494652	0.410854
H99	H	0.574926	0.898789	0.114360
Cl100	Cl	0.707479	1.032899	0.520787
Cl101	Cl	0.515451	1.536890	0.289563
H102	H	0.531173	0.976526	0.320929
Cl103	Cl	0.510703	1.535228	0.212679
H104	H	0.588473	1.607456	0.566850
H105	H	1.044193	1.153336	-0.594101
Cl106	Cl	0.765320	0.909505	-0.246536
H107	H	0.599134	0.815979	-0.082863
H108	H	0.841327	0.519977	-0.006537
Cl109	Cl	0.444266	1.156166	-0.143079
Cl110	Cl	1.027286	0.414792	-0.193856
Cl111	Cl	0.797840	1.415289	0.411668
Cl112	Cl	0.786052	1.031775	-0.480374
H113	H	1.194082	0.833728	-0.508799
H114	H	1.217493	0.492726	-0.162914
Cl115	Cl	0.797872	0.819773	0.402007
H116	H	0.523968	1.015034	0.668276
Cl117	Cl	0.707186	1.304176	0.520713
Cl118	Cl	1.015308	0.609174	-0.189238
Cl119	Cl	0.421249	1.199614	0.401954
H120	H	0.282138	1.581740	0.143896
Cl121	Cl	0.322558	0.994747	0.480445
H122	H	0.343147	1.504741	0.004243
Cl123	Cl	1.249735	0.993635	-0.520734
H124	H	0.434415	1.210492	0.082941
Cl125	Cl	0.510382	1.487650	-0.206170
H126	H	0.689885	1.344906	-0.181134
Cl127	Cl	1.247835	0.303854	-0.211820
H128	H	0.503290	1.345364	0.002871
H129	H	0.282155	1.601420	0.568496
Cl130	Cl	0.786139	1.225454	-0.290833
H131	H	0.318029	1.096116	0.197282
H132	H	1.216612	0.494338	-0.036735
H133	H	0.837667	0.681319	0.001140
Cl134	Cl	0.785604	1.226130	-0.478358
H135	H	0.689882	1.520179	0.331702
Cl136	Cl	1.247387	0.305112	-0.016852
Cl137	Cl	0.707211	0.801076	0.290911
H138	H	0.996176	0.601871	0.163980
Cl139	Cl	0.519132	1.721977	0.017507
H140	H	0.371456	1.693652	0.162088
H141	H	0.588557	0.873208	0.594171
H142	H	0.840207	0.680541	0.179665
Cl143	Cl	0.781359	0.537201	0.209732
H144	H	0.994171	0.443647	0.164578
Cl145	Cl	0.785692	1.030879	-0.291646
Cl146	Cl	0.421223	1.420341	0.191559
Cl147	Cl	0.510357	1.724084	0.474454
Cl148	Cl	0.519178	0.800403	0.478427
H149	H	1.036504	0.849733	-0.588155
Cl150	Cl	0.610107	1.607246	-0.191129
H151	H	1.192902	0.833532	-0.667007
Cl152	Cl	1.253962	0.983105	-0.710750
Cl153	Cl	1.011568	0.826913	-0.401901
H154	H	0.498801	1.492963	0.679407
Cl155	Cl	1.007078	1.206753	-0.401922
Cl156	Cl	0.326786	1.723031	0.477027
Cl157	Cl	0.797853	1.424854	-0.183813
Cl158	Cl	0.707211	1.533889	0.017556
H159	H	0.282178	1.176803	0.588212
Cl160	Cl	0.326825	1.223806	0.709810
Cl161	Cl	0.515461	1.223287	0.523670
H162	H	0.371471	1.494239	0.680412
Cl163	Cl	0.510746	1.304885	0.521974
H164	H	0.442318	1.443223	0.408247
