data_functionalizedCrystal
_audit_creation_method	'MofGen! by Chris Wilmer'
_symmetry_space_group_name_H-M	'P1'
_symmetry_Int_Tables_number	1
_symmetry_cell_setting	triclinic
loop_
_symmetry_equiv_pos_as_xyz
  x,y,z
_cell_length_a	8.559649
_cell_length_b	8.559649
_cell_length_c	7.088668
_cell_angle_alpha	97.661819
_cell_angle_beta	82.335228
_cell_angle_gamma	110.221336
loop_
_atom_site_label
_atom_site_type_symbol
_atom_site_fract_x
_atom_site_fract_y
_atom_site_fract_z
O1	O	2.139924	0.041998	-0.158965
O2	O	1.664440	-0.041783	-0.158972
O3	O	1.944073	0.237850	-0.158966
O4	O	1.860292	-0.237635	-0.158971
O5	O	1.917961	0.263933	0.159024
O6	O	1.638329	-0.015700	0.159017
O7	O	2.113813	0.068082	0.159025
Cu8	Cu	1.873687	0.028572	0.188056
Cu9	Cu	1.904566	-0.002274	-0.188003
O10	O	1.834181	-0.211552	0.159018
C11	C	1.591076	-0.035091	0.000022
C12	C	1.411377	-0.053990	0.000019
C13	C	1.937366	0.311200	0.000026
C14	C	1.956266	0.490899	0.000015
C15	C	2.187178	0.061389	0.000027
C16	C	2.366878	0.080287	0.000017
N17	N	1.926288	-0.023958	-0.452503
C18	C	1.840887	-0.284903	0.000023
C19	C	1.821988	-0.464602	0.000021
N20	N	1.851980	0.050271	0.452556
H21	H	1.466257	0.209706	0.000009
H22	H	2.085693	0.590289	0.000033
C23	C	1.747994	0.154183	0.562900
H24	H	1.749500	0.152683	0.696406
H25	H	1.794347	0.266204	0.530186
H26	H	1.635961	0.107742	0.530213
C27	C	1.277125	-0.228839	0.000014
H28	H	1.169904	-0.219036	0.000023
H29	H	1.298423	-0.296770	-0.110872
H30	H	1.280208	-0.278567	0.110922
C31	C	2.030274	-0.127881	0.437144
H32	H	2.028751	-0.126402	0.303638
H33	H	2.142298	-0.081463	0.469835
H34	H	1.983897	-0.239910	0.469860
H35	H	1.692568	0.436020	0.000025
