data_functionalizedCrystal
_audit_creation_method	'MofGen! by Chris Wilmer'
_symmetry_space_group_name_H-M	'P1'
_symmetry_Int_Tables_number	1
_symmetry_cell_setting	triclinic
loop_
_symmetry_equiv_pos_as_xyz
  x,y,z
_cell_length_a	10.654545
_cell_length_b	17.038272
_cell_length_c	9.730223
_cell_angle_alpha	90.003256
_cell_angle_beta	90.003032
_cell_angle_gamma	87.797317
loop_
_atom_site_label
_atom_site_type_symbol
_atom_site_fract_x
_atom_site_fract_y
_atom_site_fract_z
O1	O	1.678044	0.109859	0.114278
O2	O	1.313537	0.120331	0.114284
O3	O	1.493624	0.001268	0.114270
O4	O	1.497957	0.228923	0.114292
O5	O	1.493611	0.001268	-0.114310
O6	O	1.313523	0.120331	-0.114296
O7	O	1.678030	0.109859	-0.114302
Zn8	Zn	1.495775	0.115095	-0.150591
Zn9	Zn	1.495793	0.115095	0.150573
O10	O	1.497943	0.228923	-0.114288
C11	C	1.266661	0.119563	-0.000006
C12	C	1.127004	0.117265	-0.000004
C13	C	1.489677	-0.027882	-0.000020
C14	C	1.477919	-0.114741	-0.000019
C15	C	1.061392	0.116183	-0.124603
C16	C	0.930170	0.114011	-0.124604
C17	C	0.930185	0.114005	0.124607
C18	C	1.061405	0.116172	0.124606
C19	C	1.585864	-0.164253	-0.000022
C20	C	1.574809	-0.245865	-0.000009
C21	C	1.455809	-0.277964	-0.000003
C22	C	1.347857	-0.228445	0.000005
C23	C	1.358913	-0.146834	0.000001
C24	C	1.416751	-0.523939	0.000017
C25	C	1.405704	-0.605556	0.000016
C26	C	1.632657	-0.622971	0.000005
C27	C	1.643703	-0.541358	-0.000007
C28	C	1.535750	-0.491847	0.000008
C29	C	1.444507	-0.361384	0.000007
C30	C	1.547054	-0.408428	0.000008
C31	C	1.724907	0.110627	-0.000010
C32	C	1.864563	0.112926	-0.000003
C33	C	1.501891	0.258073	0.000005
C34	C	1.513648	0.344931	0.000013
N35	N	1.495772	0.115095	-0.356128
C36	C	1.577050	0.162984	-0.428045
C37	C	1.577070	0.162979	-0.571928
C38	C	1.414523	0.067195	-0.571963
C39	C	1.414510	0.067196	-0.428083
N40	N	1.495805	0.115090	0.356109
H41	H	1.114799	0.117073	-0.226068
H42	H	1.328848	-0.483636	0.000028
O43	O	1.662742	-0.377381	0.000065
C44	C	1.886685	-0.403256	-0.000036
C45	C	1.755746	-0.438530	-0.000063
H46	H	1.961913	-0.452678	-0.000169
H47	H	1.897621	-0.365509	0.095647
H48	H	1.897450	-0.365458	-0.095674
H49	H	1.744891	-0.476364	0.095510
H50	H	1.744869	-0.476232	-0.095809
O51	O	0.866625	0.113000	-0.245763
C52	C	0.880472	0.113191	-0.492945
C53	C	0.952589	0.114358	-0.355826
H54	H	0.949943	0.114272	-0.581967
H55	H	0.813406	0.166840	-0.499260
H56	H	0.824668	0.057536	-0.499112
H57	H	1.008465	0.169977	-0.349567
H58	H	1.019579	0.060672	-0.349569
O59	O	1.328982	-0.392660	0.000184
C60	C	1.184781	-0.474660	0.118646
C61	C	1.315658	-0.439303	0.118597
H62	H	1.173956	-0.512365	0.214387
H63	H	1.173915	-0.512491	0.023053
H64	H	1.109539	-0.425246	0.118572
H65	H	1.390978	-0.488667	0.118719
H66	H	1.326416	-0.401452	0.214181
O67	O	1.655931	0.209616	-0.358298
C68	C	1.719005	0.341571	-0.314197
C69	C	1.629609	0.288851	-0.393288
H70	H	1.697738	0.405644	-0.342435
H71	H	1.820344	0.324788	-0.342499
H72	H	1.705057	0.333308	-0.199014
H73	H	1.643445	0.297086	-0.508489
H74	H	1.528303	0.305646	-0.364872
H75	H	1.348362	0.028199	-0.630567
H76	H	1.348322	0.028196	-0.369526
H77	H	0.876758	0.113116	0.226059
H78	H	1.114828	0.117051	0.226076
H79	H	1.682766	-0.138126	-0.000036
H80	H	1.250964	-0.254586	0.000019
O81	O	1.759331	-0.510222	0.000230
C82	C	1.956734	-0.500178	0.118586
C83	C	1.825812	-0.535474	0.118516
H84	H	2.010531	-0.520594	0.214194
H85	H	1.946177	-0.433340	0.118667
H86	H	2.010452	-0.520514	0.022878
H87	H	1.772022	-0.515198	0.214207
H88	H	1.836458	-0.602308	0.118363
O89	O	1.737478	-0.671099	0.000247
C90	C	1.856679	-0.773374	0.118636
C91	C	1.737928	-0.718902	0.118541
H92	H	1.857069	-0.812048	0.214251
H93	H	1.943674	-0.736453	0.118722
H94	H	1.857163	-0.811987	0.022935
H95	H	1.737322	-0.680279	0.214225
H96	H	1.650986	-0.755870	0.118383
O97	O	1.290075	-0.636703	0.000278
C98	C	1.092714	-0.646762	0.118688
C99	C	1.223624	-0.611449	0.118579
H100	H	1.038941	-0.626345	0.214309
H101	H	1.103293	-0.713600	0.118771
H102	H	1.038959	-0.626441	0.022993
H103	H	1.277450	-0.631710	0.214258
H104	H	1.212955	-0.544616	0.118424
O105	O	1.253927	-0.098848	-0.000057
C106	C	1.027655	-0.090182	0.000048
C107	C	1.146450	-0.144616	0.000070
H108	H	0.940730	-0.127164	0.000180
H109	H	1.027056	-0.051554	-0.095632
H110	H	1.027242	-0.051522	0.095688
H111	H	1.146942	-0.183325	-0.095505
H112	H	1.147003	-0.183190	0.095814
H113	H	1.662709	-0.286175	-0.000015
H114	H	1.643257	0.201974	-0.630477
