data_functionalizedCrystal
_audit_creation_method	'MofGen! by Chris Wilmer'
_symmetry_space_group_name_H-M	'P1'
_symmetry_Int_Tables_number	1
_symmetry_cell_setting	triclinic
loop_
_symmetry_equiv_pos_as_xyz
  x,y,z
_cell_length_a	12.645331
_cell_length_b	12.594516
_cell_length_c	12.645324
_cell_angle_alpha	89.967482
_cell_angle_beta	89.977038
_cell_angle_gamma	90.010795
loop_
_atom_site_label
_atom_site_type_symbol
_atom_site_fract_x
_atom_site_fract_y
_atom_site_fract_z
Zn1	Zn	1.620778	-0.423690	-0.599441
Zn2	Zn	1.620677	-0.601715	-0.422179
Zn3	Zn	1.443491	-0.423748	-0.422185
Zn4	Zn	1.443492	-0.601624	-0.599394
O5	O	1.532109	-0.512694	-0.510800
O6	O	1.769111	-0.447320	-0.575943
O7	O	1.597130	-0.578169	-0.273832
O8	O	1.467051	-0.274794	-0.445721
O9	O	1.769037	-0.578114	-0.445710
O10	O	1.597302	-0.274752	-0.575950
O11	O	1.466953	-0.447417	-0.273837
O12	O	1.295144	-0.447329	-0.445675
O13	O	1.467052	-0.577959	-0.747747
O14	O	1.295145	-0.578014	-0.575870
O15	O	1.597303	-0.447231	-0.747782
O16	O	1.597131	-0.750649	-0.445664
O17	O	1.466954	-0.750582	-0.575864
C18	C	1.256680	-0.512669	-0.510769
C19	C	1.138850	-0.512684	-0.510781
C20	C	0.971250	-0.430092	-0.429327
C21	C	1.093809	-0.430305	-0.428969
C22	C	1.094341	-0.624812	-0.480265
C23	C	0.971742	-0.624361	-0.479709
C24	C	0.971698	-0.484215	-0.623065
C25	C	1.094303	-0.481710	-0.622442
C26	C	1.532060	-0.789235	-0.510781
C27	C	1.532136	-0.907541	-0.510809
C28	C	1.603021	-0.976791	-0.440069
C29	C	1.628931	-1.047480	-0.536828
C30	C	1.506360	-1.047650	-0.414111
C31	C	1.558095	-0.976671	-0.607618
C32	C	1.435479	-0.976835	-0.484837
C33	C	1.461351	-1.047492	-0.581662
C34	C	1.808615	-0.512720	-0.510831
C35	C	1.926445	-0.512731	-0.510844
C36	C	1.532189	-0.512578	-0.787305
C37	C	1.532223	-0.512529	-0.905135
C38	C	1.532188	-0.235073	-0.510841
C39	C	1.532221	-0.116768	-0.510859
C40	C	1.614483	-0.430527	-1.072721
C41	C	1.614219	-0.430231	-0.950161
C42	C	1.420537	-0.482047	-0.949614
C43	C	1.421037	-0.481424	-1.072212
C44	C	1.560742	-0.625133	-1.072332
C45	C	1.563185	-0.624567	-0.949726
C46	C	1.532091	-0.512733	-0.235370
C47	C	1.532263	-0.512482	-0.117540
H48	H	1.123517	-0.688031	-0.537774
F49	F	1.328616	-0.936245	-0.456053
H50	H	1.697035	-0.449321	-0.920090
F51	F	1.735822	-1.088025	-0.565593
H52	H	1.484523	-1.078827	-0.332315
H53	H	1.595362	-0.346781	-0.920849
H54	H	1.507654	-0.688916	-0.919073
F55	F	1.134377	-0.554646	-0.706077
F56	F	0.930914	-0.454438	-0.321272
F57	F	0.933829	-0.562887	-0.702454
H58	H	1.357609	-0.539905	-0.920446
F59	F	1.586773	-0.936098	-0.714561
H60	H	1.697573	-0.449377	-1.102214
F61	F	1.681383	-0.936211	-0.361946
F62	F	1.590156	-0.322053	-1.113010
H63	H	1.395956	-0.400618	-0.918919
H64	H	1.124998	-0.649409	-0.399106
H65	H	1.401442	-1.078340	-0.641576
F66	F	1.389446	-0.373803	-1.109612
F67	F	1.482466	-0.704948	-1.110211
H68	H	1.357691	-0.538520	-1.101859
H69	H	1.640760	-0.652884	-1.103317
H70	H	0.940793	-0.403877	-0.650818
H71	H	1.123902	-0.347158	-0.448096
F72	F	0.932728	-0.321082	-0.454057
H73	H	1.645376	-0.647553	-0.920655
H74	H	0.943098	-0.648542	-0.397670
F75	F	0.933000	-0.707569	-0.553923
F76	F	1.132347	-0.373866	-0.652530
F77	F	1.132085	-0.454937	-0.320271
