data_functionalizedCrystal
_audit_creation_method	'MofGen! by Chris Wilmer'
_symmetry_space_group_name_H-M	'P1'
_symmetry_Int_Tables_number	1
_symmetry_cell_setting	triclinic
loop_
_symmetry_equiv_pos_as_xyz
  x,y,z
_cell_length_a	14.044202
_cell_length_b	13.101018
_cell_length_c	16.992695
_cell_angle_alpha	86.412154
_cell_angle_beta	88.069538
_cell_angle_gamma	86.333184
loop_
_atom_site_label
_atom_site_type_symbol
_atom_site_fract_x
_atom_site_fract_y
_atom_site_fract_z
O1	O	-1.277022	0.085164	0.186101
O2	O	-0.777022	0.585164	0.686101
O3	O	-1.000533	0.085178	0.179235
O4	O	-0.500533	0.585178	0.679235
O5	O	-1.137669	0.085163	0.068448
O6	O	-0.637669	0.585163	0.568448
O7	O	-1.139886	0.085179	0.296887
O8	O	-0.639886	0.585179	0.796887
O9	O	-1.127818	-0.085266	0.076403
O10	O	-0.627818	0.414734	0.576403
O11	O	-0.990682	-0.085252	0.187190
O12	O	-0.490682	0.414748	0.687190
O13	O	-1.267171	-0.085265	0.194056
O14	O	-0.767171	0.414735	0.694056
Zn15	Zn	-1.127363	-0.112318	0.191886
Zn16	Zn	-0.627363	0.387682	0.691886
Zn17	Zn	-1.140341	0.112230	0.181404
Zn18	Zn	-0.640341	0.612230	0.681404
O19	O	-1.130035	-0.085250	0.304843
O20	O	-0.630035	0.414750	0.804843
C21	C	-0.960066	-0.000035	0.180209
C22	C	-0.460066	0.499965	0.680209
C23	C	-0.854162	-0.000030	0.171252
C24	C	-0.354162	0.499970	0.671252
C25	C	-0.607446	-0.000037	0.218397
C26	C	-0.107446	0.499963	0.718397
C27	C	-0.660265	-0.000040	0.154890
C28	C	-0.160265	0.499960	0.654890
C29	C	-0.768159	-0.000034	0.163996
C30	C	-0.268159	0.499966	0.663996
C31	C	-0.499542	-0.000042	0.209292
C32	C	0.000458	0.499958	0.709292
N33	N	-1.118512	-0.265566	0.199040
N34	N	-0.618512	0.234434	0.699040
C35	C	-1.129891	-0.000051	0.043013
C36	C	-0.629891	0.499949	0.543013
C37	C	-1.121383	-0.000051	-0.044626
C38	C	-0.621383	0.499949	0.455374
C39	C	-0.307638	-0.000049	0.193080
C40	C	0.192362	0.499951	0.693080
C41	C	-0.413543	-0.000046	0.202031
C42	C	0.086457	0.499954	0.702031
C43	C	-1.161236	-0.525480	0.164509
C44	C	-0.661236	-0.025480	0.664509
C45	C	-1.106478	-0.474601	0.208774
C46	C	-0.606478	0.025399	0.708774
C47	C	-1.113175	-0.358283	0.203356
C48	C	-0.613175	0.141717	0.703356
C49	C	-1.154540	-0.641808	0.169925
C50	C	-0.654540	-0.141808	0.669925
N51	N	-1.149199	0.265478	0.174245
N52	N	-0.649199	0.765478	0.674245
C53	C	-1.203479	-0.000056	-0.089122
C54	C	-0.703479	0.499944	0.410878
C55	C	-1.195480	-0.000046	-0.171469
C56	C	-0.695480	0.499954	0.328531
C57	C	-1.105382	-0.000038	-0.209318
C58	C	-0.605382	0.499962	0.290682
C59	C	-1.023279	-0.000030	-0.164816
C60	C	-0.523279	0.499970	0.335184
C61	C	-1.031280	-0.000033	-0.082471
C62	C	-0.531280	0.499967	0.417529
C63	C	-1.072220	-0.000022	-0.455237
C64	C	-0.572220	0.499978	0.044763
C65	C	-1.064225	-0.000022	-0.537588
C66	C	-0.564225	0.499978	-0.037588
C67	C	-1.236426	-0.000036	-0.544235
C68	C	-0.736426	0.499964	-0.044235
C69	C	-1.244419	-0.000045	-0.461888
C70	C	-0.744419	0.499955	0.038112
C71	C	-1.162317	-0.000032	-0.417393
C72	C	-0.662317	0.499968	0.082607
N73	N	-1.097202	-0.000031	-0.293489
N74	N	-0.597202	0.499969	0.206511
N75	N	-1.170498	-0.000032	-0.333224
N76	N	-0.670498	0.499968	0.166776
C77	C	-1.137813	-0.000034	0.330277
C78	C	-0.637813	0.499966	0.830277
C79	C	-1.146322	-0.000027	0.417916
C80	C	-0.646322	0.499973	0.917916
H81	H	-1.054569	-0.518400	0.250739
H82	H	-0.554569	-0.018400	0.750739
H83	H	-1.213143	-0.481685	0.122548
H84	H	-0.713143	0.018315	0.622548
C85	C	-0.940967	-0.000029	-0.033526
C86	C	-0.440967	0.499971	0.466474
N87	N	-0.872940	-0.000024	0.003339
N88	N	-0.372940	0.499976	0.503339
C89	C	-1.302595	-0.000064	-0.047496
C90	C	-0.802595	0.499936	0.452504
N91	N	-1.377252	-0.000066	-0.016146
N92	N	-0.877252	0.499934	0.483854
H93	H	-1.303269	-0.000046	-0.580471
H94	H	-0.803269	0.499954	-0.080471
C95	C	-0.655826	-0.000021	0.301083
C96	C	-0.155826	0.499979	0.801083
N97	N	-0.692277	-0.000004	0.363360
N98	N	-0.192277	0.499996	0.863360
C99	C	-0.611886	-0.000037	0.072198
C100	C	-0.111886	0.499963	0.572198
N101	N	-0.575444	-0.000028	0.009916
N102	N	-0.075444	0.499972	0.509916
C103	C	-0.924170	-0.000030	-0.206453
C104	C	-0.424170	0.499970	0.293547
N105	N	-0.849518	-0.000037	-0.237812
N106	N	-0.349518	0.499963	0.262188
C107	C	-1.285792	-0.000068	-0.220410
C108	C	-0.785792	0.499932	0.279590
N109	N	-1.353820	-0.000090	-0.257272
N110	N	-0.853820	0.499910	0.242728
C111	C	-0.965107	-0.000006	-0.579220
C112	C	-0.465107	0.499994	-0.079220
N113	N	-0.890455	0.000006	-0.610578
N114	N	-0.390455	0.500006	-0.110578
H115	H	-1.317786	-0.000052	-0.431077
H116	H	-0.817786	0.499948	0.068923
C117	C	-0.981904	-0.000002	-0.406304
C118	C	-0.481904	0.499998	0.093696
N119	N	-0.913874	0.000017	-0.369445
N120	N	-0.413874	0.500017	0.130555
