data_functionalizedCrystal
_audit_creation_method	'MofGen! by Chris Wilmer'
_symmetry_space_group_name_H-M	'P1'
_symmetry_Int_Tables_number	1
_symmetry_cell_setting	triclinic
loop_
_symmetry_equiv_pos_as_xyz
  x,y,z
_cell_length_a	25.639242
_cell_length_b	25.639240
_cell_length_c	25.639233
_cell_angle_alpha	90.025929
_cell_angle_beta	90.022166
_cell_angle_gamma	90.028283
loop_
_atom_site_label
_atom_site_type_symbol
_atom_site_fract_x
_atom_site_fract_y
_atom_site_fract_z
Zn1	Zn	0.799247	-0.208277	0.295716
Zn2	Zn	1.132580	0.125057	0.629049
Zn3	Zn	1.465913	0.458390	0.962383
Zn4	Zn	0.799179	-0.295696	0.208270
Zn5	Zn	1.132512	0.037638	0.541603
Zn6	Zn	1.465846	0.370971	0.874936
Zn7	Zn	0.711823	-0.208269	0.208280
Zn8	Zn	1.045156	0.125064	0.541614
Zn9	Zn	1.378490	0.458398	0.874947
Zn10	Zn	0.711777	-0.295676	0.295659
Zn11	Zn	1.045110	0.037657	0.628993
Zn12	Zn	1.378444	0.370990	0.962326
O13	O	0.755506	-0.251979	0.251981
O14	O	1.088840	0.081354	0.585315
O15	O	1.422173	0.414687	0.918648
O16	O	0.872403	-0.219884	0.284135
O17	O	1.205736	0.113449	0.617469
O18	O	1.539069	0.446782	0.950802
O19	O	0.787582	-0.284103	0.135106
O20	O	1.120915	0.049230	0.468439
O21	O	1.454249	0.382563	0.801772
O22	O	0.723467	-0.135105	0.219907
O23	O	1.056801	0.198228	0.553240
O24	O	1.390134	0.531562	0.886574
O25	O	0.872353	-0.284111	0.219889
O26	O	1.205687	0.049223	0.553222
O27	O	1.539020	0.382556	0.886555
O28	O	0.787697	-0.135111	0.284146
O29	O	1.121030	0.198223	0.617479
O30	O	1.454364	0.531556	0.950812
O31	O	0.723402	-0.219871	0.135114
O32	O	1.056735	0.113462	0.468447
O33	O	1.390069	0.446795	0.801780
O34	O	0.638652	-0.219853	0.219852
O35	O	0.971985	0.113481	0.553185
O36	O	1.305318	0.446814	0.886519
O37	O	0.723389	-0.284078	0.368832
O38	O	1.056722	0.049256	0.702166
O39	O	1.390056	0.382589	1.035499
O40	O	0.638618	-0.284070	0.284049
O41	O	0.971951	0.049263	0.617382
O42	O	1.305285	0.382597	0.950716
O43	O	0.787653	-0.219866	0.368874
O44	O	1.120986	0.113468	0.702207
O45	O	1.454319	0.446801	1.035540
O46	O	0.787538	-0.368858	0.219834
O47	O	1.120871	-0.035525	0.553167
O48	O	1.454204	0.297808	0.886500
O49	O	0.723324	-0.368844	0.284039
O50	O	1.056657	-0.035511	0.617372
O51	O	1.389990	0.297823	0.950705
C52	C	0.619664	-0.251959	0.251946
C53	C	0.952997	0.081375	0.585279
C54	C	1.286331	0.414708	0.918613
C55	C	0.561550	-0.251963	0.251943
C56	C	0.894883	0.081371	0.585276
C57	C	1.228216	0.414704	0.918610
C58	C	0.755433	-0.387822	0.251940
C59	C	1.088766	-0.054489	0.585274
C60	C	1.422099	0.278845	0.918607
C61	C	0.755449	-0.445936	0.251940
C62	C	1.088782	-0.112603	0.585274
C63	C	1.422115	0.220731	0.918607
C64	C	0.201178	-0.285473	0.285377
C65	C	0.534511	0.047860	0.618710
C66	C	0.867845	0.381193	0.952044
C67	C	0.146574	-0.285477	0.285385
C68	C	0.479907	0.047857	0.618719
C69	C	0.813240	0.381190	0.952052
O70	O	0.118330	-0.313943	0.313782
O71	O	0.451663	0.019390	0.647115
O72	O	0.784996	0.352724	0.980449
N73	N	0.119267	-0.251994	0.252015
N74	N	0.452601	0.081340	0.585349
N75	N	0.785934	0.414673	0.918682
C76	C	0.146568	-0.218502	0.218639
C77	C	0.479901	0.114831	0.551972
C78	C	0.813235	0.448165	0.885306
O79	O	0.118328	-0.190022	0.190256
O80	O	0.451661	0.143311	0.523590
O81	O	0.784994	0.476645	0.856923
C82	C	0.201171	-0.218496	0.218634
C83	C	0.534505	0.114837	0.551967
C84	C	0.867838	0.448170	0.885300
C85	C	0.228475	-0.251985	0.252002
C86	C	0.561808	0.081348	0.585335
C87	C	0.895142	0.414681	0.918669
C88	C	0.228482	-0.318959	0.318743
C89	C	0.561815	0.014374	0.652076
C90	C	0.895148	0.347708	0.985410
C91	C	0.283082	-0.318956	0.318734
C92	C	0.616416	0.014377	0.652067
C93	C	0.949749	0.347710	0.985401
C94	C	0.310379	-0.285468	0.285359
C95	C	0.643713	0.047865	0.618692
C96	C	0.977046	0.381199	0.952026
C97	C	0.283076	-0.251983	0.251993
C98	C	0.616409	0.081351	0.585326
C99	C	0.949742	0.414684	0.918660
C100	C	0.228471	-0.185002	0.185260
C101	C	0.561804	0.148331	0.518593
C102	C	0.895138	0.481664	0.851927
C103	C	0.283078	-0.184999	0.185258
C104	C	0.616411	0.148334	0.518591
C105	C	0.949745	0.481667	0.851925
C106	C	0.310382	-0.218488	0.218626
C107	C	0.643715	0.114845	0.551960
C108	C	0.977048	0.448178	0.885293
C109	C	0.364973	-0.218492	0.218609
C110	C	0.698306	0.114842	0.551942
C111	C	1.031640	0.448175	0.885275
N112	N	0.392279	-0.251974	0.251979
N113	N	0.725613	0.081359	0.585312
N114	N	1.058946	0.414692	0.918645
C115	C	0.364983	-0.285463	0.285354
C116	C	0.698316	0.047871	0.618687
C117	C	1.031649	0.381204	0.952020
C118	C	0.031897	-0.218515	0.218653
C119	C	0.365231	0.114818	0.551986
C120	C	0.698564	0.448151	0.885320
C121	C	-0.022705	-0.218523	0.218655
C122	C	0.310628	0.114810	0.551989
C123	C	0.643962	0.448144	0.885322
C124	C	-0.022695	-0.285497	0.285402
C125	C	0.310638	0.047836	0.618736
C126	C	0.643971	0.381170	0.952069
C127	C	0.031908	-0.285492	0.285397
C128	C	0.365241	0.047842	0.618731
C129	C	0.698575	0.381175	0.952064
C130	C	0.059204	-0.251998	0.252023
C131	C	0.392537	0.081335	0.585356
C132	C	0.725871	0.414669	0.918690
C133	C	0.479648	-0.285455	0.285332
C134	C	0.812981	0.047878	0.618665
C135	C	1.146314	0.381212	0.951998
C136	C	0.534253	-0.285451	0.285318
C137	C	0.867586	0.047883	0.618652
C138	C	1.200920	0.381216	0.951985
C139	C	0.534239	-0.218475	0.218573
C140	C	0.867572	0.114858	0.551906
C141	C	1.200905	0.448192	0.885240
C142	C	0.479638	-0.218481	0.218585
C143	C	0.812971	0.114853	0.551918
C144	C	1.146305	0.448186	0.885251
C145	C	0.452344	-0.251972	0.251968
C146	C	0.785677	0.081361	0.585301
C147	C	1.119011	0.414694	0.918635
O148	O	0.393252	-0.190038	0.190228
O149	O	0.726585	0.143295	0.523561
O150	O	1.059918	0.476628	0.856895
O151	O	0.393229	-0.313933	0.313736
O152	O	0.726563	0.019401	0.647070
O153	O	1.059896	0.352734	0.980403
C154	C	0.788967	-0.806264	0.285491
C155	C	1.122301	-0.472930	0.618824
C156	C	1.455634	-0.139597	0.952157
C157	C	0.788983	-0.860868	0.285501
C158	C	1.122316	-0.527534	0.618835
C159	C	1.455650	-0.194201	0.952168
O160	O	0.817394	-0.889074	0.313985
O161	O	1.150727	-0.555741	0.647318
O162	O	1.484060	-0.222408	0.980652
N163	N	0.755579	-0.888218	0.252032
N164	N	1.088912	-0.554885	0.585365
N165	N	1.422246	-0.221552	0.918699
C166	C	0.722154	-0.860962	0.218553
C167	C	1.055487	-0.527629	0.551887
C168	C	1.388820	-0.194295	0.885220
O169	O	0.693742	-0.889240	0.190086
O170	O	1.027075	-0.555906	0.523419
O171	O	1.360409	-0.222573	0.856753
C172	C	0.722136	-0.806359	0.218546
C173	C	1.055469	-0.473025	0.551879
C174	C	1.388803	-0.139692	0.885212
C175	C	0.755546	-0.779011	0.252014
C176	C	1.088879	-0.445678	0.585347
C177	C	1.422213	-0.112344	0.918680
C178	C	0.822374	-0.778916	0.318956
C179	C	1.155708	-0.445582	0.652290
C180	C	1.489041	-0.112249	0.985623
C181	C	0.822359	-0.724315	0.318945
C182	C	1.155693	-0.390982	0.652278
C183	C	1.489026	-0.057648	0.985612
C184	C	0.788938	-0.697062	0.285468
C185	C	1.122271	-0.363729	0.618801
C186	C	1.455604	-0.030396	0.952135
C187	C	0.755531	-0.724410	0.252002
C188	C	1.088864	-0.391077	0.585336
C189	C	1.422198	-0.057744	0.918669
C190	C	0.688708	-0.779103	0.185070
C191	C	1.022042	-0.445770	0.518403
C192	C	1.355375	-0.112436	0.851737
C193	C	0.688693	-0.724496	0.185066
C194	C	1.022027	-0.391163	0.518399
C195	C	1.355360	-0.057829	0.851732
C196	C	0.722103	-0.697148	0.218534
C197	C	1.055437	-0.363815	0.551867
C198	C	1.388770	-0.030482	0.885200
C199	C	0.722095	-0.642557	0.218514
C200	C	1.055428	-0.309224	0.551847
C201	C	1.388761	0.024110	0.885180
N202	N	0.755498	-0.615206	0.251983
N203	N	1.088832	-0.281873	0.585316
N204	N	1.422165	0.051460	0.918650
C205	C	0.788920	-0.642459	0.285460
C206	C	1.122253	-0.309126	0.618794
C207	C	1.455587	0.024208	0.952127
C208	C	0.722193	-0.975633	0.218572
C209	C	1.055526	-0.642299	0.551906
C210	C	1.388859	-0.308966	0.885239
C211	C	0.722213	-1.030235	0.218577
C212	C	1.055546	-0.696902	0.551910
C213	C	1.388879	-0.363568	0.885244
C214	C	0.789041	-1.030137	0.285526
C215	C	1.122375	-0.696804	0.618859
C216	C	1.455708	-0.363470	0.952193
C217	C	0.789024	-0.975534	0.285518
C218	C	1.122357	-0.642200	0.618852
C219	C	1.455690	-0.308867	0.952185
C220	C	0.755597	-0.948282	0.252042
C221	C	1.088930	-0.614949	0.585375
C222	C	1.422263	-0.281615	0.918709
C223	C	0.788887	-0.527794	0.285433
C224	C	1.122220	-0.194461	0.618767
C225	C	1.455553	0.138873	0.952100
C226	C	0.788870	-0.473189	0.285417
C227	C	1.122204	-0.139855	0.618751
C228	C	1.455537	0.193478	0.952084
C229	C	0.722040	-0.473291	0.218471
C230	C	1.055373	-0.139958	0.551804
C231	C	1.388707	0.193375	0.885137
C232	C	0.722058	-0.527892	0.218484
C233	C	1.055391	-0.194559	0.551818
C234	C	1.388725	0.138775	0.885151
C235	C	0.755483	-0.555142	0.251970
C236	C	1.088816	-0.221809	0.585303
C237	C	1.422150	0.111525	0.918637
O238	O	0.693697	-0.614316	0.190046
O239	O	1.027030	-0.280983	0.523379
O240	O	1.360363	0.052351	0.856713
O241	O	0.817322	-0.614175	0.313927
O242	O	1.150655	-0.280841	0.647261
O243	O	1.483989	0.052492	0.980594
C244	C	0.891879	-0.252000	0.252017
C245	C	1.225213	0.081333	0.585351
C246	C	1.558546	0.414666	0.918684
C247	C	0.949993	-0.252009	0.252032
C248	C	1.283327	0.081324	0.585366
C249	C	1.616660	0.414657	0.918699
C250	C	0.755523	-0.251970	0.388354
C251	C	1.088857	0.081363	0.721688
C252	C	1.422190	0.414696	1.055021
C253	C	0.755530	-0.251966	0.446468
C254	C	1.088864	0.081367	0.779802
C255	C	1.422197	0.414700	1.113135
C256	C	0.755595	-0.115606	0.252034
C257	C	1.088928	0.217727	0.585367
C258	C	1.422261	0.551060	0.918701
C259	C	0.755632	-0.057492	0.252056
C260	C	1.088966	0.275841	0.585390
C261	C	1.422299	0.609174	0.918723
C262	C	0.755520	-0.251951	0.116139
C263	C	1.088853	0.081383	0.449472
C264	C	1.422186	0.414716	0.782805
C265	C	0.755614	-0.251807	0.058025
C266	C	1.088947	0.081526	0.391358
C267	C	1.422281	0.414859	0.724692
C268	C	0.789035	-0.218432	0.806859
C269	C	1.122368	0.114902	1.140192
C270	C	1.455702	0.448235	1.473526
C271	C	0.789041	-0.218417	0.861463
C272	C	1.122375	0.114916	1.194797
C273	C	1.455708	0.448249	1.528130
O274	O	0.817486	-0.189967	0.889723
O275	O	1.150819	0.143367	1.223057
O276	O	1.484152	0.476700	1.556390
N277	N	0.755588	-0.251844	0.888751
N278	N	1.088921	0.081490	1.222084
N279	N	1.422255	0.414823	1.555418
C280	C	0.722122	-0.285283	0.861432
C281	C	1.055456	0.048050	1.194765
C282	C	1.388789	0.381384	1.528098
O283	O	0.693668	-0.313713	0.889656
O284	O	1.027001	0.019620	1.222989
O285	O	1.360335	0.352954	1.556323
C286	C	0.722114	-0.285294	0.806828
C287	C	1.055447	0.048039	1.140162
C288	C	1.388780	0.381372	1.473495
C289	C	0.755573	-0.251870	0.779543
C290	C	1.088906	0.081464	1.112877
C291	C	1.422240	0.414797	1.446210
C292	C	0.822491	-0.185009	0.779574
C293	C	1.155824	0.148324	1.112907
C294	C	1.489158	0.481657	1.446241
C295	C	0.822485	-0.185025	0.724973
C296	C	1.155818	0.148309	1.058307
C297	C	1.489152	0.481642	1.391640
C298	C	0.789023	-0.218462	0.697658
C299	C	1.122356	0.114871	1.030991
C300	C	1.455690	0.448204	1.364325
C301	C	0.755567	-0.251885	0.724943
C302	C	1.088900	0.081448	1.058276
C303	C	1.422234	0.414782	1.391610
C304	C	0.688646	-0.318731	0.779510
C305	C	1.021979	0.014603	1.112843
C306	C	1.355313	0.347936	1.446177
C307	C	0.688640	-0.318739	0.724903
C308	C	1.021973	0.014594	1.058236
C309	C	1.355306	0.347928	1.391570
C310	C	0.722099	-0.285314	0.697618
C311	C	1.055432	0.048019	1.030951
C312	C	1.388766	0.381353	1.364285
C313	C	0.722099	-0.285338	0.643027
C314	C	1.055433	0.047995	0.976360
C315	C	1.388766	0.381329	1.309693
N316	N	0.755552	-0.251912	0.615739
N317	N	1.088886	0.081422	0.949072
N318	N	1.422219	0.414755	1.282406
C319	C	0.789014	-0.218474	0.643055
C320	C	1.122348	0.114860	0.976388
C321	C	1.455681	0.448193	1.309721
C322	C	0.722143	-0.285256	0.976102
C323	C	1.055476	0.048077	1.309436
C324	C	1.388809	0.381411	1.642769
C325	C	0.722154	-0.285247	1.030705
C326	C	1.055487	0.048086	1.364038
C327	C	1.388820	0.381419	1.697371
C328	C	0.789072	-0.218381	1.030733
C329	C	1.122405	0.114952	1.364066
C330	C	1.455739	0.448286	1.697399
C331	C	0.789063	-0.218392	0.976129
C332	C	1.122397	0.114941	1.309463
C333	C	1.455730	0.448274	1.642796
C334	C	0.755596	-0.251829	0.948815
C335	C	1.088929	0.081504	1.282148
C336	C	1.422263	0.414837	1.615481
C337	C	0.789000	-0.218509	0.528389
C338	C	1.122333	0.114825	0.861723
C339	C	1.455666	0.448158	1.195056
C340	C	0.788992	-0.218529	0.473784
C341	C	1.122326	0.114805	0.807117
C342	C	1.455659	0.448138	1.140451
C343	C	0.722072	-0.285393	0.473761
C344	C	1.055406	0.047940	0.807094
C345	C	1.388739	0.381274	1.140428
C346	C	0.722081	-0.285375	0.528362
C347	C	1.055415	0.047958	0.861695
C348	C	1.388748	0.381291	1.195028
C349	C	0.755547	-0.251929	0.555674
C350	C	1.088880	0.081404	0.889008
C351	C	1.422214	0.414738	1.222341
O352	O	0.693668	-0.313773	0.614732
O353	O	1.027001	0.019561	0.948065
O354	O	1.360334	0.352894	1.281399
O355	O	0.817459	-0.190044	0.614823
O356	O	1.150792	0.143290	0.948157
O357	O	1.484126	0.476623	1.281490
H358	H	0.556481	-0.312723	0.312491
H359	H	0.889814	0.020610	0.645824
H360	H	1.223148	0.353943	0.979158
H361	H	0.849740	-0.157777	0.801809
H362	H	1.183073	0.175556	1.135142
H363	H	1.516406	0.508889	1.468475
Cl364	Cl	0.831138	-0.176343	1.065082
Cl365	Cl	1.164471	0.156990	1.398416
Cl366	Cl	1.497804	0.490324	1.731749
Cl367	Cl	0.830875	-0.438812	0.327494
Cl368	Cl	1.164209	-0.105479	0.660827
Cl369	Cl	1.497542	0.227855	0.994161
Cl370	Cl	0.831059	-0.176506	0.439486
Cl371	Cl	1.164393	0.156827	0.772820
Cl372	Cl	1.497726	0.490160	1.106153
H373	H	0.054118	-0.191241	0.191472
H374	H	0.387452	0.142092	0.524805
H375	H	0.720785	0.475425	0.858138
H376	H	-0.044930	-0.312763	0.312580
H377	H	0.288403	0.020570	0.645913
H378	H	0.621736	0.353903	0.979247
H379	H	0.694841	-0.312597	0.550578
H380	H	1.028174	0.020736	0.883911
H381	H	1.361508	0.354069	1.217245
H382	H	0.457431	-0.312726	0.312517
H383	H	0.790764	0.020608	0.645850
H384	H	1.124098	0.353941	0.979184
Cl385	Cl	0.831069	-0.176459	0.562717
Cl386	Cl	1.164402	0.156874	0.896050
Cl387	Cl	1.497736	0.490208	1.229384
Cl388	Cl	0.445313	-0.176389	0.176627
Cl389	Cl	0.778646	0.156945	0.509960
Cl390	Cl	1.111979	0.490278	0.843294
H391	H	0.661380	-0.345963	0.702666
H392	H	0.994714	-0.012629	1.036000
H393	H	1.328047	0.320704	1.369333
Cl394	Cl	0.680097	-0.327277	1.064999
Cl395	Cl	1.013430	0.006056	1.398333
Cl396	Cl	1.346764	0.339389	1.731666
H397	H	0.556474	-0.191211	0.191398
H398	H	0.889807	0.142122	0.524732
H399	H	1.223140	0.475455	0.858065
H400	H	0.694830	-0.312619	0.451511
H401	H	1.028163	0.020715	0.784844
H402	H	1.361497	0.354048	1.118177
Cl403	Cl	0.831126	-0.176370	0.941834
Cl404	Cl	1.164460	0.156963	1.275167
Cl405	Cl	1.497793	0.490297	1.608501
Cl406	Cl	0.831025	-0.941159	0.327595
Cl407	Cl	1.164358	-0.607826	0.660928
Cl408	Cl	1.497692	-0.274493	0.994262
Cl409	Cl	0.864547	-0.142998	0.690680
Cl410	Cl	1.197880	0.190335	1.024014
Cl411	Cl	1.531213	0.523668	1.357347
Cl412	Cl	0.646582	-0.360755	0.813798
Cl413	Cl	0.979915	-0.027422	1.147131
Cl414	Cl	1.313248	0.305912	1.480464
H415	H	0.305308	-0.346225	0.345907
H416	H	0.638641	-0.012892	0.679240
H417	H	0.971975	0.320441	1.012574
Cl418	Cl	0.680069	-0.327300	0.941770
Cl419	Cl	1.013403	0.006034	1.275103
Cl420	Cl	1.346736	0.339367	1.608436
H421	H	0.206262	-0.346229	0.345924
H422	H	0.539596	-0.012896	0.679257
H423	H	0.872929	0.320437	1.012591
H424	H	0.054135	-0.312760	0.312570
H425	H	0.387468	0.020573	0.645903
H426	H	0.720802	0.353906	0.979236
Cl427	Cl	-0.057023	-0.176428	0.176698
Cl428	Cl	0.276311	0.156906	0.510031
Cl429	Cl	0.609644	0.490239	0.843365
Cl430	Cl	0.830909	-0.562043	0.327529
Cl431	Cl	1.164242	-0.228709	0.660862
Cl432	Cl	1.497576	0.104624	0.994195
Cl433	Cl	0.317390	-0.142890	0.143299
Cl434	Cl	0.650723	0.190443	0.476633
Cl435	Cl	0.984056	0.523777	0.809966
Cl436	Cl	0.194160	-0.142896	0.143312
Cl437	Cl	0.527493	0.190438	0.476646
Cl438	Cl	0.860827	0.523771	0.809979
H439	H	0.849590	-0.801099	0.346221
H440	H	1.182923	-0.467766	0.679554
H441	H	1.516257	-0.134432	1.012887
Cl442	Cl	0.864358	-0.689943	0.361026
Cl443	Cl	1.197692	-0.356610	0.694359
Cl444	Cl	1.531025	-0.023276	1.027693
Cl445	Cl	0.831057	-1.064408	0.327613
Cl446	Cl	1.164390	-0.731074	0.660946
Cl447	Cl	1.497723	-0.397741	0.994280
Cl448	Cl	0.680063	-0.562273	0.176403
Cl449	Cl	1.013397	-0.228940	0.509737
Cl450	Cl	1.346730	0.104394	0.843070
Cl451	Cl	0.680217	-1.064608	0.176494
Cl452	Cl	1.013550	-0.731275	0.509827
Cl453	Cl	1.346884	-0.397942	0.843161
H454	H	0.694974	-0.953447	0.191308
H455	H	1.028307	-0.620114	0.524641
H456	H	1.361641	-0.286780	0.857974
Cl457	Cl	0.646668	-0.690240	0.142978
Cl458	Cl	0.980002	-0.356907	0.476311
Cl459	Cl	1.313335	-0.023574	0.809645
Cl460	Cl	0.646702	-0.813470	0.142995
Cl461	Cl	0.980036	-0.480137	0.476329
Cl462	Cl	1.313369	-0.146803	0.809662
Cl463	Cl	0.680026	-0.439021	0.176387
Cl464	Cl	1.013360	-0.105687	0.509721
Cl465	Cl	1.346693	0.227646	0.843054
