data_functionalizedCrystal
_audit_creation_method	'MofGen! by Chris Wilmer'
_symmetry_space_group_name_H-M	'P1'
_symmetry_Int_Tables_number	1
_symmetry_cell_setting	triclinic
loop_
_symmetry_equiv_pos_as_xyz
  x,y,z
_cell_length_a	14.908571
_cell_length_b	14.908831
_cell_length_c	14.909227
_cell_angle_alpha	90.169705
_cell_angle_beta	96.790173
_cell_angle_gamma	89.814394
loop_
_atom_site_label
_atom_site_type_symbol
_atom_site_fract_x
_atom_site_fract_y
_atom_site_fract_z
Zn1	Zn	-1.391462	-0.404132	-0.613640
Zn2	Zn	-0.891462	0.095868	-0.113640
Zn3	Zn	-1.374051	-0.562233	-0.470923
Zn4	Zn	-0.874051	-0.062233	0.029077
Zn5	Zn	-1.231355	-0.404153	-0.453572
Zn6	Zn	-0.731355	0.095847	0.046428
Zn7	Zn	-1.232380	-0.545810	-0.612627
Zn8	Zn	-0.732380	-0.045810	-0.112627
O9	O	-1.307312	-0.479082	-0.537690
O10	O	-0.807312	0.020918	-0.037690
O11	O	-1.515448	-0.431970	-0.602394
O12	O	-1.015448	0.068030	-0.102394
O13	O	-1.347406	-0.548145	-0.342329
O14	O	-0.847406	-0.048145	0.157671
O15	O	-1.259451	-0.278700	-0.467968
O16	O	-0.759451	0.221300	0.032032
O17	O	-1.502655	-0.548126	-0.497541
O18	O	-1.002655	-0.048126	0.002459
O19	O	-1.377081	-0.278685	-0.585569
O20	O	-0.877081	0.221315	-0.085569
O21	O	-1.242567	-0.432004	-0.329581
O22	O	-0.742567	0.067996	0.170419
O23	O	-1.105195	-0.416079	-0.466985
O24	O	-0.605195	0.083921	0.033015
O25	O	-1.261199	-0.520135	-0.739053
O26	O	-0.761199	-0.020135	-0.239053
O27	O	-1.105949	-0.520154	-0.583842
O28	O	-0.605949	-0.020154	-0.083842
O29	O	-1.378076	-0.416045	-0.739798
O30	O	-0.878076	0.083955	-0.239798
O31	O	-1.348400	-0.685505	-0.496558
O32	O	-0.848400	-0.185505	0.003442
O33	O	-1.244316	-0.673438	-0.600667
O34	O	-0.744316	-0.173438	-0.100667
C35	C	-1.072825	-0.466337	-0.523421
C36	C	-0.572825	0.033663	-0.023421
C37	C	-0.972511	-0.460906	-0.517340
C38	C	-0.472511	0.039094	-0.017340
C39	C	-1.294606	-0.712000	-0.550406
C40	C	-0.794606	-0.212000	-0.050406
C41	C	-1.289254	-0.811645	-0.555881
C42	C	-0.789254	-0.311645	-0.055881
C43	C	-1.321694	-0.466255	-0.773087
C44	C	-0.821694	0.033745	-0.273087
C45	C	-1.327823	-0.460789	-0.873400
C46	C	-0.827823	0.039211	-0.373400
C47	C	-1.542714	-0.491877	-0.552016
C48	C	-1.042714	0.008123	-0.052016
C49	C	-1.643028	-0.497330	-0.558120
C50	C	-1.143028	0.002670	-0.058120
C51	C	-0.784824	-0.559258	-0.627449
C52	C	-0.284824	-0.059258	-0.127449
C53	C	-0.690570	-0.554157	-0.621738
C54	C	-0.190570	-0.054157	-0.121738
C55	C	-0.689748	-0.445598	-0.500211
C56	C	-0.189748	0.054402	-0.000211
C57	C	-0.784002	-0.450699	-0.505923
C58	C	-0.284002	0.049301	-0.005923
C59	C	-0.831537	-0.507532	-0.569542
C60	C	-0.331537	-0.007532	-0.069542
C61	C	-0.925792	-0.512637	-0.575249
C62	C	-0.425792	-0.012637	-0.075249
C63	C	-0.924968	-0.404074	-0.453727
C64	C	-0.424968	0.095926	0.046273
C65	C	-0.830714	-0.398973	-0.448016
C66	C	-0.330714	0.101027	0.051984
C67	C	-1.320094	-0.245256	-0.524946
C68	C	-0.820094	0.254744	-0.024946
C69	C	-1.325540	-0.145613	-0.519515
C70	C	-0.825540	0.354387	-0.019515
C71	C	-1.227396	0.054194	-0.617740
C72	C	-0.727396	0.554194	-0.117740
C73	C	-1.232510	0.147818	-0.612640
C74	C	-0.732510	0.647818	-0.112640
C75	C	-1.340889	0.135261	-0.504221
C76	C	-0.840889	0.635261	-0.004221
C77	C	-1.335774	0.041637	-0.509321
C78	C	-0.835774	0.541637	-0.009321
C79	C	-1.279025	0.001107	-0.566081
C80	C	-0.779025	0.501107	-0.066081
C81	C	-1.273906	-0.092519	-0.571176
C82	C	-0.773906	0.407481	-0.071176
C83	C	-1.382289	-0.105074	-0.462762
C84	C	-0.882289	0.394926	0.037238
C85	C	-1.387403	-0.011450	-0.457662
C86	C	-0.887403	0.488550	0.042338
C87	C	-1.397305	-0.398897	-1.015174
C88	C	-0.897305	0.101103	-0.515174
C89	C	-1.391552	-0.404030	-0.920922
C90	C	-0.891552	0.095970	-0.420922
C91	C	-1.269845	-0.512422	-0.920136
C92	C	-0.769845	-0.012422	-0.420136
C93	C	-1.275599	-0.507290	-1.014389
C94	C	-0.775599	-0.007290	-0.514389
C95	C	-1.339330	-0.450524	-1.061904
C96	C	-0.839330	0.049476	-0.561904
C97	C	-1.345079	-0.445387	-1.156157
C98	C	-0.845079	0.054613	-0.656157
C99	C	-1.223377	-0.553784	-1.155371
C100	C	-0.723377	-0.053784	-0.655371
C101	C	-1.217623	-0.558916	-1.061119
C102	C	-0.717623	-0.058916	-0.561119
C103	C	-1.293041	-0.491797	-0.303209
C104	C	-0.793041	0.008203	0.196791
C105	C	-1.287101	-0.497020	-0.202894
C106	C	-0.787101	0.002980	0.297106
H107	H	-0.964493	-0.558915	-0.627050
H108	H	-0.464493	-0.058915	-0.127050
H109	H	-1.433610	0.021560	-0.411452
H110	H	-0.933610	0.521560	0.088548
C111	C	-0.639189	-0.611066	-0.685434
C112	C	-0.139189	-0.111066	-0.185434
N113	N	-0.600489	-0.653934	-0.733411
N114	N	-0.100489	-0.153934	-0.233411
H115	H	-1.217964	-0.558644	-0.881434
H116	H	-0.717964	-0.058644	-0.381434
H117	H	-1.387100	0.168272	-0.458015
H118	H	-0.887100	0.668272	0.041985
H119	H	-1.181189	0.021194	-0.663958
H120	H	-0.681189	0.521194	-0.163958
H121	H	-0.823527	-0.605539	-0.679246
H122	H	-0.323527	-0.105539	-0.179246
C123	C	-0.637444	-0.383077	-0.430244
C124	C	-0.137444	0.116923	0.069756
N125	N	-0.598048	-0.335985	-0.377545
N126	N	-0.098048	0.164015	0.122455
C127	C	-1.415186	-0.382947	-1.208423
C128	C	-0.915186	0.117053	-0.708423
N129	N	-1.467996	-0.335918	-1.247787
N130	N	-0.967996	0.164082	-0.747787
H131	H	-1.424329	-0.148308	-0.420698
H132	H	-0.924329	0.351692	0.079302
H133	H	-1.449190	-0.352667	-1.053861
H134	H	-0.949190	0.147333	-0.553861
H135	H	-0.791999	-0.352699	-0.396221
H136	H	-0.291999	0.147301	0.103779
C137	C	-0.976359	-0.347175	-0.390023
C138	C	-0.476359	0.152825	0.109977
N139	N	-1.015068	-0.304322	-0.342040
N140	N	-0.515068	0.195678	0.157960
H141	H	-1.438762	-0.361990	-0.882878
H142	H	-0.938762	0.138010	-0.382878
H143	H	-1.227700	-0.125516	-0.617396
H144	H	-0.727700	0.374484	-0.117396
C145	C	-1.175723	0.206211	-0.669477
C146	C	-0.675723	0.706211	-0.169477
N147	N	-1.132952	0.250192	-0.712294
N148	N	-0.632952	0.750192	-0.212294
C149	C	-1.147519	-0.621351	-1.008841
C150	C	-0.647519	-0.121351	-0.508841
N151	N	-1.094712	-0.668375	-0.969465
N152	N	-0.594712	-0.168375	-0.469465
C153	C	-1.159604	-0.610582	-1.206782
C154	C	-0.659604	-0.110582	-0.706782
N155	N	-1.111571	-0.653361	-1.245506
N156	N	-0.611571	-0.153361	-0.745506
