data_functionalizedCrystal
_audit_creation_method	'MofGen! by Chris Wilmer'
_symmetry_space_group_name_H-M	'P1'
_symmetry_Int_Tables_number	1
_symmetry_cell_setting	triclinic
loop_
_symmetry_equiv_pos_as_xyz
  x,y,z
_cell_length_a	6.817900
_cell_length_b	19.551823
_cell_length_c	17.110486
_cell_angle_alpha	96.698619
_cell_angle_beta	99.060439
_cell_angle_gamma	101.663376
loop_
_atom_site_label
_atom_site_type_symbol
_atom_site_fract_x
_atom_site_fract_y
_atom_site_fract_z
V1	V	-3.967875	-0.096467	-0.247089
O2	O	-3.965827	0.004850	-0.242005
O3	O	-3.910834	-0.191483	-0.245766
O4	O	-3.897881	-0.094889	-0.354686
O5	O	-3.978870	-0.092413	-0.132330
V6	V	-4.455421	-0.084359	-0.233319
O7	O	-4.220309	-0.123025	-0.277296
O8	O	-4.653184	-0.057800	-0.203112
O9	O	-4.289256	0.010657	-0.234642
O10	O	-4.574866	-0.185675	-0.238403
O11	O	-4.561823	-0.088412	-0.348078
O12	O	-4.302209	-0.085937	-0.125722
C13	C	-3.754431	-0.214649	-0.241962
C14	C	-3.788936	-0.292325	-0.241597
C15	C	-3.986117	-0.332368	-0.245382
C16	C	-4.018541	-0.405354	-0.245047
C17	C	-3.853767	-0.438293	-0.240911
C18	C	-3.656559	-0.398242	-0.237129
C19	C	-3.624143	-0.325258	-0.237472
C20	C	-3.750609	-0.544823	-0.190733
C21	C	-3.783029	-0.617805	-0.190386
C22	C	-3.953741	-0.663400	-0.239856
C23	C	-4.092057	-0.636003	-0.289665
C24	C	-4.059642	-0.563019	-0.290008
C25	C	-3.888896	-0.517431	-0.240539
C26	C	-4.186093	-0.782583	-0.243280
C27	C	-4.218512	-0.855571	-0.242949
C28	C	-3.856520	-0.848456	-0.235023
C29	C	-3.824110	-0.775470	-0.235361
C30	C	-3.988903	-0.742538	-0.239486
C31	C	-3.737907	-0.091432	-0.380901
C32	C	-3.761905	-0.090771	-0.468864
C33	C	-3.954149	-0.093948	-0.514234
C34	C	-3.976686	-0.093326	-0.596885
C35	C	-3.806979	-0.089532	-0.634165
C36	C	-3.614718	-0.086353	-0.588789
C37	C	-3.592181	-0.086970	-0.506139
C38	C	-3.865969	-0.087491	-0.883512
C39	C	-3.888522	-0.086877	-0.966169
C40	C	-4.250489	-0.093848	-0.974259
C41	C	-4.227937	-0.094468	-0.891608
C42	C	-4.035678	-0.091286	-0.846238
C43	C	-3.830012	-0.088899	-0.718648
C44	C	-4.012645	-0.091914	-0.761756
C45	C	-4.109001	0.033819	-0.238444
C46	C	-4.053733	0.111495	-0.238814
C47	C	-4.125525	-0.089395	-0.099503
C48	C	-4.080766	-0.090053	-0.011539
H49	H	-4.320277	-0.755767	-0.246637
N50	N	-3.384837	-0.083548	-0.457198
H51	H	-3.345715	-0.040138	-0.414880
H52	H	-3.280885	-0.081081	-0.493411
H53	H	-4.366134	-0.097557	-0.861260
N54	N	-4.457846	-0.097273	-1.023187
H55	H	-4.496987	-0.140681	-1.065510
H56	H	-4.453411	-0.053632	-1.049754
N57	N	-3.431685	-0.082264	-0.629002
H58	H	-3.370351	-0.124357	-0.620696
H59	H	-3.327068	-0.037313	-0.604984
H60	H	-3.750314	-0.083785	-0.996519
H61	H	-3.709435	-0.084924	-0.846586
H62	H	-4.150817	-0.095001	-0.731398
N63	N	-3.646974	-0.084810	-0.758858
H64	H	-3.626560	-0.040889	-0.785119
H65	H	-3.670103	-0.127938	-0.800784
N66	N	-3.633812	-0.647340	-0.136672
H67	H	-3.574132	-0.680825	-0.170366
H68	H	-3.706705	-0.673566	-0.098273
H69	H	-4.120310	-0.305559	-0.248746
N70	N	-4.137206	-0.098035	-0.474036
H71	H	-4.114209	-0.054937	-0.432076
H72	H	-4.157560	-0.141981	-0.447822
N73	N	-4.231228	-0.448555	-0.249132
H74	H	-4.330702	-0.416618	-0.251798
H75	H	-4.235759	-0.472246	-0.199852
N76	N	-4.431200	-0.898765	-0.247041
H77	H	-4.530666	-0.866824	-0.249704
H78	H	-4.435746	-0.922461	-0.197765
H79	H	-4.230863	-0.673136	-0.330057
H80	H	-3.722358	-0.875275	-0.231660
N81	N	-4.208796	-0.533467	-0.343731
H82	H	-4.321863	-0.573421	-0.375022
H83	H	-4.135797	-0.507196	-0.382072
N84	N	-3.411452	-0.282070	-0.233391
H85	H	-3.321182	-0.286474	-0.182294
H86	H	-3.416093	-0.230857	-0.234268
N87	N	-3.611422	-0.732282	-0.231276
H88	H	-3.521155	-0.736685	-0.180178
H89	H	-3.616059	-0.681069	-0.232156
N90	N	-3.566474	-0.495648	-0.137373
H91	H	-3.483786	-0.524076	-0.105763
H92	H	-3.612565	-0.461360	-0.099315
H93	H	-3.522401	-0.425065	-0.233763
H94	H	-4.133226	-0.095909	-0.633821
