data_functionalizedCrystal
_audit_creation_method	'MofGen! by Chris Wilmer'
_symmetry_space_group_name_H-M	'P1'
_symmetry_Int_Tables_number	1
_symmetry_cell_setting	triclinic
loop_
_symmetry_equiv_pos_as_xyz
  x,y,z
_cell_length_a	18.050591
_cell_length_b	18.050589
_cell_length_c	18.050582
_cell_angle_alpha	90.018205
_cell_angle_beta	89.979078
_cell_angle_gamma	89.975773
loop_
_atom_site_label
_atom_site_type_symbol
_atom_site_fract_x
_atom_site_fract_y
_atom_site_fract_z
Zn1	Zn	1.135293	0.295786	-0.420054
Zn2	Zn	1.635293	0.795786	0.079946
Zn3	Zn	1.135203	0.419969	-0.295873
Zn4	Zn	1.635203	0.919969	0.204127
Zn5	Zn	1.011112	0.295789	-0.295865
Zn6	Zn	1.511112	0.795789	0.204135
Zn7	Zn	1.011060	0.419930	-0.420009
Zn8	Zn	1.511060	0.919930	0.079991
O9	O	1.073167	0.357868	-0.357950
O10	O	1.573167	0.857868	0.142050
O11	O	1.239205	0.312274	-0.403603
O12	O	1.739205	0.812274	0.096397
O13	O	1.118727	0.403514	-0.191948
O14	O	1.618727	0.903514	0.308052
O15	O	1.027644	0.191864	-0.312354
O16	O	1.527644	0.691864	0.187646
O17	O	1.239140	0.403511	-0.312369
O18	O	1.739140	0.903511	0.187631
O19	O	1.118879	0.191862	-0.403595
O20	O	1.618879	0.691862	0.096405
O21	O	1.027557	0.312279	-0.191942
O22	O	1.527557	0.812279	0.308058
O23	O	0.907180	0.312241	-0.312311
O24	O	1.407180	0.812241	0.187689
O25	O	1.027555	0.403444	-0.523940
O26	O	1.527555	0.903444	-0.023940
O27	O	0.907142	0.403447	-0.403519
O28	O	1.407142	0.903447	0.096481
O29	O	1.118828	0.312236	-0.523973
O30	O	1.618828	0.812236	-0.023973
O31	O	1.118676	0.523888	-0.312325
O32	O	1.618676	1.023888	0.187675
O33	O	1.027468	0.523860	-0.403527
O34	O	1.527468	1.023860	0.096473
C35	C	1.073077	0.550820	-0.357938
C36	C	1.573077	1.050820	0.142062
C37	C	1.073107	0.633366	-0.357958
C38	C	1.573107	1.133366	0.142042
C39	C	0.880215	0.357841	-0.357909
C40	C	1.380215	0.857841	0.142091
C41	C	0.797669	0.357847	-0.357909
C42	C	1.297669	0.857847	0.142091
C43	C	1.073196	0.357835	-0.551656
C44	C	1.573196	0.857835	-0.051656
C45	C	1.073208	0.357821	-0.634202
C46	C	1.573208	0.857821	-0.134202
C47	C	0.598217	0.308191	-0.308425
C48	C	1.098217	0.808191	0.191575
C49	C	0.548798	0.375927	-0.290154
C50	C	1.048798	0.875927	0.209846
C51	C	0.646539	0.357869	-0.357943
C52	C	1.146539	0.857869	0.142057
C53	C	0.548877	0.290157	-0.376212
C54	C	1.048877	0.790157	0.123788
C55	C	0.500553	0.357885	-0.357974
C56	C	1.000553	0.857885	0.142026
C57	C	0.598206	0.425641	-0.339637
C58	C	1.098206	0.925641	0.160363
C59	C	0.598289	0.339825	-0.425726
C60	C	1.098289	0.839825	0.074274
C61	C	0.548892	0.407607	-0.407481
C62	C	1.048892	0.907607	0.092519
C63	C	0.730637	0.357859	-0.357923
C64	C	1.230637	0.857859	0.142077
C65	C	0.416457	0.357903	-0.357994
C66	C	0.916457	0.857903	0.142006
C67	C	1.266872	0.357897	-0.357992
C68	C	1.766872	0.857897	0.142008
C69	C	1.349418	0.357909	-0.358010
C70	C	1.849418	0.857909	0.141990
C71	C	1.073277	0.164163	-0.357979
C72	C	1.573277	0.664163	0.142021
C73	C	1.073324	0.081617	-0.357991
C74	C	1.573324	0.581617	0.142009
C75	C	1.023557	0.832828	-0.407536
C76	C	1.523557	1.332828	0.092464
C77	C	1.005459	0.882261	-0.339767
C78	C	1.505459	1.382261	0.160233
C79	C	1.073180	0.784497	-0.357967
C80	C	1.573180	1.284497	0.142033
C81	C	1.091314	0.882146	-0.425744
C82	C	1.591314	1.382146	0.074256
C83	C	1.073249	0.930482	-0.357983
C84	C	1.573249	1.430482	0.142017
C85	C	1.055046	0.832842	-0.290162
C86	C	1.555046	1.332842	0.209838
C87	C	1.140933	0.832722	-0.376186
C88	C	1.640933	1.332722	0.123814
C89	C	1.122861	0.882133	-0.308370
C90	C	1.622861	1.382133	0.191630
C91	C	1.073138	0.700398	-0.357959
C92	C	1.573138	1.200398	0.142041
C93	C	1.073291	1.014578	-0.357983
C94	C	1.573291	1.514578	0.142017
C95	C	1.023612	0.407353	-0.833635
C96	C	1.523612	0.907353	-0.333635
C97	C	1.091367	0.425511	-0.883034
C98	C	1.591367	0.925511	-0.383034
C99	C	1.073245	0.357765	-0.785332
C100	C	1.573245	0.857765	-0.285332
C101	C	1.005527	0.339586	-0.883014
C102	C	1.505527	0.839586	-0.383014
C103	C	1.073274	0.357711	-0.931317
C104	C	1.573274	0.857711	-0.431317
C105	C	1.141036	0.375958	-0.833645
C106	C	1.641036	0.875958	-0.333645
C107	C	1.055150	0.290002	-0.833620
C108	C	1.555150	0.790002	-0.333620
C109	C	1.122952	0.308134	-0.882998
C110	C	1.622952	0.808134	-0.382998
C111	C	1.073227	0.357797	-0.701234
C112	C	1.573227	0.857797	-0.201234
C113	C	1.073300	0.357679	-1.015414
C114	C	1.573300	0.857679	-0.515414
C115	C	1.073181	0.357848	-0.164998
C116	C	1.573181	0.857848	0.335002
C117	C	1.073312	0.357652	-0.082453
C118	C	1.573312	0.857652	0.417547
H119	H	0.619875	0.266226	-0.266503
H120	H	1.119875	0.766226	0.233497
N121	N	0.520001	0.396167	-0.214244
N122	N	1.020001	0.896167	0.285756
H123	H	0.537587	0.358371	-0.176931
H124	H	1.037587	0.858371	0.323069
H125	H	0.464062	0.396923	-0.215117
H126	H	0.964062	0.896923	0.284883
H127	H	1.106690	0.482794	-0.904739
H128	H	1.606690	0.982794	-0.404739
H129	H	1.164855	0.903645	-0.266409
H130	H	1.664855	1.403645	0.233591
N131	N	0.627105	0.319566	-0.501618
N132	N	1.127105	0.819566	-0.001618
H133	H	0.658704	0.273524	-0.497951
H134	H	1.158704	0.773524	0.002049
H135	H	0.657856	0.361747	-0.521732
H136	H	1.157856	0.861747	-0.021732
H137	H	1.198333	0.391377	-0.812050
H138	H	1.698333	0.891377	-0.312050
H139	H	1.198184	0.810948	-0.391613
H140	H	1.698184	1.310948	0.108387
N141	N	1.111597	0.910841	-0.501655
N142	N	1.611597	1.410841	-0.001655
H143	H	1.074050	0.892906	-0.539048
H144	H	1.574050	1.392906	-0.039048
H145	H	1.162396	0.892042	-0.515732
H146	H	1.662396	1.392042	-0.015732
N147	N	0.968066	0.462966	-0.804916
N148	N	1.468066	0.962966	-0.304916
H149	H	0.981847	0.514120	-0.822891
H150	H	1.481847	1.014120	-0.322891
H151	H	0.968139	0.462194	-0.748970
H152	H	1.468139	0.962194	-0.248970
H153	H	0.527169	0.232894	-0.391625
H154	H	1.027169	0.732894	0.108375
N155	N	0.967896	0.804147	-0.462987
N156	N	1.467896	1.304147	0.037013
H157	H	0.916755	0.822170	-0.449130
H158	H	1.416755	1.322170	0.050870
H159	H	0.968660	0.748200	-0.462901
H160	H	1.468660	1.248200	0.037099
H161	H	0.948195	0.904037	-0.324371
H162	H	1.448195	1.404037	0.175629
H163	H	1.164986	0.266177	-0.904535
H164	H	1.664986	0.766177	-0.404535
N165	N	1.034681	0.804283	-0.214222
N166	N	1.534681	1.304283	0.285778
H167	H	1.034759	0.748331	-0.214690
H168	H	1.534759	1.248331	0.285310
H169	H	0.983708	0.822795	-0.200399
H170	H	1.483708	1.322795	0.299601
N171	N	1.034829	0.214150	-0.804835
N172	N	1.534829	0.714150	-0.304835
H173	H	0.983627	0.200483	-0.822758
H174	H	1.483627	0.700483	-0.322758
H175	H	1.035492	0.214683	-0.748890
H176	H	1.535492	0.714683	-0.248890
H177	H	0.619785	0.482928	-0.324134
H178	H	1.119785	0.982928	0.175866
N179	N	0.520378	0.463321	-0.462970
N180	N	1.020378	0.963321	0.037030
H181	H	0.538419	0.514430	-0.449088
H182	H	1.038419	1.014430	0.050912
H183	H	0.464431	0.462656	-0.462963
H184	H	0.964431	0.962656	0.037037
H185	H	0.948246	0.324232	-0.904701
H186	H	1.448246	0.824232	-0.404701
