data_functionalizedCrystal
_audit_creation_method	'MofGen! by Chris Wilmer'
_symmetry_space_group_name_H-M	'P1'
_symmetry_Int_Tables_number	1
_symmetry_cell_setting	triclinic
loop_
_symmetry_equiv_pos_as_xyz
  x,y,z
_cell_length_a	11.792254
_cell_length_b	16.109301
_cell_length_c	15.186229
_cell_angle_alpha	90.005167
_cell_angle_beta	90.003307
_cell_angle_gamma	83.830039
loop_
_atom_site_label
_atom_site_type_symbol
_atom_site_fract_x
_atom_site_fract_y
_atom_site_fract_z
O1	O	-1.505899	-0.114003	-0.073231
O2	O	-1.175457	-0.125736	-0.073233
O3	O	-1.349755	0.001118	-0.073223
O4	O	-1.331600	-0.240858	-0.073241
O5	O	-1.349743	0.001120	0.073234
O6	O	-1.175445	-0.125735	0.073224
O7	O	-1.505887	-0.114001	0.073226
Zn8	Zn	-1.340664	-0.119868	0.096479
Zn9	Zn	-1.340679	-0.119870	-0.096485
O10	O	-1.331588	-0.240856	0.073216
C11	C	-1.349014	0.032097	0.000006
C12	C	-1.346809	0.124403	0.000007
C13	C	-1.133166	-0.124996	-0.000005
C14	C	-1.007173	-0.122784	-0.000005
C15	C	-1.548177	-0.114741	-0.000004
C16	C	-1.674171	-0.116954	-0.000009
C17	C	-0.904852	-0.120987	-0.000009
C18	C	-0.776485	-0.118739	-0.000009
C19	C	-1.332330	-0.271835	-0.000015
C20	C	-1.334534	-0.364141	-0.000022
N21	N	-1.340662	-0.119866	0.228171
C22	C	-1.445108	0.346210	-0.000006
C23	C	-1.443027	0.432940	-0.000013
C24	C	-1.236228	0.414046	-0.000011
C25	C	-1.238310	0.327317	-0.000010
C26	C	-1.342753	0.293402	-0.000003
C27	C	-1.338591	0.466860	-0.000011
C28	C	-1.336334	0.560897	-0.000019
C29	C	-1.345010	0.199359	0.000003
N30	N	-1.340691	-0.119866	-0.228178
C31	C	-1.417868	-0.063714	0.453899
C32	C	-1.417871	-0.063712	0.546088
C33	C	-1.263477	-0.176020	0.546088
C34	C	-1.263469	-0.176018	0.453900
C35	C	-1.340670	-0.119865	0.407808
C36	C	-1.340682	-0.119866	0.592185
C37	C	-1.340685	-0.119864	0.692142
C38	C	-1.340666	-0.119866	0.307845
H39	H	-1.530152	0.318599	-0.000002
N40	N	-1.133751	0.273368	-0.000025
N41	N	-1.064293	0.276722	-0.061764
H42	H	-0.990451	0.238620	-0.061779
N43	N	-1.496663	-0.006302	0.406829
N44	N	-1.565536	0.043864	0.447997
H45	H	-1.621161	0.084434	0.414758
N46	N	-1.184612	-0.233368	0.593175
N47	N	-1.114183	-0.206638	0.644627
H48	H	-1.058483	-0.247140	0.677881
H49	H	-1.526375	0.475933	-0.000017
N50	N	-1.496728	-0.006344	0.593155
N51	N	-1.565643	0.043788	0.551986
H52	H	-1.621339	0.084308	0.585226
H53	H	-1.151194	0.441671	-0.000015
H54	H	-1.200600	-0.221744	0.416371
