data_functionalizedCrystal
_audit_creation_method	'MofGen! by Chris Wilmer'
_symmetry_space_group_name_H-M	'P1'
_symmetry_Int_Tables_number	1
_symmetry_cell_setting	triclinic
loop_
_symmetry_equiv_pos_as_xyz
  x,y,z
_cell_length_a	12.594517
_cell_length_b	12.594516
_cell_length_c	11.169409
_cell_angle_alpha	89.966970
_cell_angle_beta	89.986364
_cell_angle_gamma	90.007702
loop_
_atom_site_label
_atom_site_type_symbol
_atom_site_fract_x
_atom_site_fract_y
_atom_site_fract_z
Zn1	Zn	1.627321	-0.423773	-0.678339
Zn2	Zn	1.627218	-0.601799	-0.477653
Zn3	Zn	1.449318	-0.423822	-0.477695
Zn4	Zn	1.449320	-0.601697	-0.678320
O5	O	1.538294	-0.512773	-0.578002
O6	O	1.776253	-0.447411	-0.651708
O7	O	1.603576	-0.578253	-0.309709
O8	O	1.472973	-0.274870	-0.504336
O9	O	1.776178	-0.578206	-0.504265
O10	O	1.603751	-0.274834	-0.651748
O11	O	1.472873	-0.447495	-0.309739
O12	O	1.300373	-0.447396	-0.504318
O13	O	1.472976	-0.578032	-0.846272
O14	O	1.300374	-0.578079	-0.651716
O15	O	1.603753	-0.447311	-0.846286
O16	O	1.603578	-0.750731	-0.504247
O17	O	1.472877	-0.750656	-0.651676
C18	C	1.261753	-0.512733	-0.578020
C19	C	1.143448	-0.512741	-0.578056
C20	C	1.074226	-0.583959	-0.658071
C21	C	1.003412	-0.486911	-0.687589
C22	C	1.003464	-0.609869	-0.548512
C23	C	1.074191	-0.415641	-0.607631
C24	C	1.074250	-0.538665	-0.468503
C25	C	1.003467	-0.441550	-0.497979
C26	C	1.538245	-0.789314	-0.577981
C27	C	1.538321	-0.907619	-0.578012
C28	C	1.609492	-0.976874	-0.497911
C29	C	1.635506	-1.047564	-0.607451
C30	C	1.512440	-1.047728	-0.468542
C31	C	1.564385	-0.976750	-0.687609
C32	C	1.441274	-0.976909	-0.548627
C33	C	1.467251	-1.047566	-0.658242
C34	C	1.815915	-0.512814	-0.577984
C35	C	1.934221	-0.512831	-0.577976
C36	C	1.538376	-0.512655	-0.891044
C37	C	1.538411	-0.512604	-1.024444
C38	C	1.538373	-0.235152	-0.578049
C39	C	1.538406	-0.116846	-0.578069
C40	C	1.538274	-0.512814	-0.266177
C41	C	1.538446	-0.512564	-0.132777
H42	H	1.105130	-0.333514	-0.632691
C43	C	0.961748	-0.360153	-0.406527
H44	H	0.986096	-0.291252	-0.427682
H45	H	0.987075	-0.377948	-0.328968
H46	H	0.886323	-0.361030	-0.406534
H47	H	1.586229	-0.945706	-0.780290
C48	C	1.385993	-1.089247	-0.749878
H49	H	1.333991	-1.130826	-0.709850
H50	H	1.421333	-1.131658	-0.807806
H51	H	1.352513	-1.030965	-0.788499
H52	H	1.105298	-0.644070	-0.725824
H53	H	1.669689	-0.945833	-0.430233
C54	C	1.116326	-0.568281	-0.343433
H55	H	1.092154	-0.637318	-0.322586
H56	H	1.091046	-0.518428	-0.286361
H57	H	1.191748	-0.567396	-0.344200
C58	C	0.961351	-0.457345	-0.812689
H59	H	0.985567	-0.507985	-0.869478
H60	H	0.986598	-0.388867	-0.834216
H61	H	0.885929	-0.456970	-0.811555
H62	H	0.972390	-0.691971	-0.523560
H63	H	1.717614	-1.078603	-0.632337
H64	H	1.359190	-0.945847	-0.523707
H65	H	1.490515	-1.078904	-0.375941
