data_functionalizedCrystal
_audit_creation_method	'MofGen! by Chris Wilmer'
_symmetry_space_group_name_H-M	'P1'
_symmetry_Int_Tables_number	1
_symmetry_cell_setting	triclinic
loop_
_symmetry_equiv_pos_as_xyz
  x,y,z
_cell_length_a	29.839131
_cell_length_b	25.639242
_cell_length_c	29.839135
_cell_angle_alpha	89.983173
_cell_angle_beta	90.000668
_cell_angle_gamma	89.963053
loop_
_atom_site_label
_atom_site_type_symbol
_atom_site_fract_x
_atom_site_fract_y
_atom_site_fract_z
Zn1	Zn	-0.179046	-0.799187	0.254113
Zn2	Zn	0.320954	-0.299187	0.754113
Zn3	Zn	-0.254135	-0.799115	0.178983
Zn4	Zn	0.245865	-0.299115	0.678983
Zn5	Zn	-0.179014	-0.711772	0.178984
Zn6	Zn	0.320986	-0.211772	0.678984
Zn7	Zn	-0.254143	-0.711705	0.254073
Zn8	Zn	0.245857	-0.211705	0.754073
O9	O	-0.216585	-0.755445	0.216539
O10	O	0.283415	-0.255445	0.716539
O11	O	-0.189016	-0.872343	0.244164
O12	O	0.310984	-0.372343	0.744164
O13	O	-0.244154	-0.787527	0.116116
O14	O	0.255846	-0.287527	0.616116
O15	O	-0.116151	-0.723426	0.188968
O16	O	0.383849	-0.223426	0.688968
O17	O	-0.244184	-0.872290	0.188966
O18	O	0.255816	-0.372290	0.688966
O19	O	-0.116174	-0.787650	0.244165
O20	O	0.383826	-0.287650	0.744165
O21	O	-0.188963	-0.723356	0.116117
O22	O	0.311037	-0.223356	0.616117
O23	O	-0.188970	-0.638598	0.188928
O24	O	0.311030	-0.138598	0.688928
O25	O	-0.244198	-0.723312	0.316945
O26	O	0.255802	-0.223312	0.816945
O27	O	-0.244168	-0.638548	0.244096
O28	O	0.255832	-0.138548	0.744096
O29	O	-0.189024	-0.787585	0.316975
O30	O	0.310976	-0.287585	0.816975
O31	O	-0.317003	-0.787461	0.188927
O32	O	0.182997	-0.287461	0.688927
O33	O	-0.317009	-0.723241	0.244095
O34	O	0.182991	-0.223241	0.744095
C35	C	-0.216567	-0.619602	0.216508
C36	C	0.283433	-0.119602	0.716508
C37	C	-0.216570	-0.561488	0.216506
C38	C	0.283430	-0.061488	0.716506
C39	C	-0.333307	-0.755350	0.216516
C40	C	0.166693	-0.255350	0.716516
C41	C	-0.383242	-0.755358	0.216522
C42	C	0.116758	-0.255358	0.716522
C43	C	-0.216615	-0.755449	0.333717
C44	C	0.283385	-0.255449	0.833717
C45	C	-0.216628	-0.755451	0.383651
C46	C	0.283372	-0.255451	0.883651
C47	C	-0.692869	-0.788945	0.187855
C48	C	-0.192869	-0.288945	0.687855
C49	C	-0.880542	-0.789009	0.187872
C50	C	-0.380542	-0.289009	0.687872
O51	O	-0.904794	-0.817491	0.163481
O52	O	-0.404794	-0.317491	0.663481
N53	N	-0.904027	-0.755553	0.216572
N54	N	-0.404027	-0.255553	0.716572
C55	C	-0.880590	-0.722081	0.245273
C56	C	-0.380590	-0.222081	0.745273
O57	O	-0.904871	-0.693630	0.269688
O58	O	-0.404871	-0.193630	0.769688
C59	C	-0.692918	-0.722019	0.245257
C60	C	-0.192918	-0.222019	0.745257
C61	C	-0.669436	-0.755474	0.216552
C62	C	-0.169436	-0.255474	0.716552
C63	C	-0.669387	-0.822397	0.159152
C64	C	-0.169387	-0.322397	0.659152
C65	C	-0.622472	-0.822379	0.159146
C66	C	-0.122472	-0.322379	0.659146
C67	C	-0.599038	-0.788908	0.187843
C68	C	-0.099038	-0.288908	0.687843
C69	C	-0.622520	-0.755456	0.216546
C70	C	-0.122520	-0.255456	0.716546
C71	C	-0.669482	-0.688550	0.273959
C72	C	-0.169482	-0.188550	0.773959
C73	C	-0.622561	-0.688539	0.273954
C74	C	-0.122561	-0.188539	0.773954
C75	C	-0.599079	-0.721993	0.245248
C76	C	-0.099079	-0.221993	0.745248
C77	C	-0.552171	-0.721966	0.245237
C78	C	-0.052171	-0.221966	0.745237
N79	N	-0.528687	-0.755422	0.216537
N80	N	-0.028687	-0.255422	0.716537
C81	C	-0.552120	-0.788893	0.187840
C82	C	-0.052120	-0.288893	0.687840
C83	C	-0.979120	-0.722115	0.245278
C84	C	-0.479120	-0.222115	0.745278
C85	C	-1.026038	-0.722129	0.245282
C86	C	-0.526038	-0.222129	0.745282
C87	C	-1.025987	-0.789059	0.187881
C88	C	-0.525987	-0.289059	0.687881
C89	C	-0.979069	-0.789041	0.187876
C90	C	-0.479069	-0.289041	0.687876
C91	C	-0.955636	-0.755571	0.216578
C92	C	-0.455636	-0.255571	0.716578
C93	C	-0.453595	-0.788852	0.187829
C94	C	0.046405	-0.288852	0.687829
C95	C	-0.406675	-0.788829	0.187825
C96	C	0.093325	-0.288829	0.687825
C97	C	-0.406730	-0.721901	0.245226
C98	C	0.093270	-0.221901	0.745226
C99	C	-0.453645	-0.721922	0.245229
C100	C	0.046355	-0.221922	0.745229
C101	C	-0.477077	-0.755402	0.216529
C102	C	0.022923	-0.255402	0.716529
O103	O	-0.527891	-0.693503	0.269619
O104	O	-0.027891	-0.193503	0.769619
O105	O	-0.527831	-0.817349	0.163435
O106	O	-0.027831	-0.317349	0.663435
C107	C	-0.739785	-0.788963	0.187860
C108	C	-0.239785	-0.288963	0.687860
C109	C	-0.763267	-0.755511	0.216563
C110	C	-0.263267	-0.255511	0.716563
C111	C	-0.739833	-0.722040	0.245260
C112	C	-0.239833	-0.222040	0.745260
C113	C	-0.810184	-0.755526	0.216567
C114	C	-0.310184	-0.255526	0.716567
C115	C	-0.833618	-0.788996	0.187870
C116	C	-0.333618	-0.288996	0.687870
C117	C	-0.810134	-0.822453	0.159169
C118	C	-0.310134	-0.322453	0.659169
C119	C	-0.763218	-0.822434	0.159163
C120	C	-0.263218	-0.322434	0.659163
C121	C	-0.763318	-0.688584	0.273961
C122	C	-0.263318	-0.188584	0.773961
C123	C	-0.810233	-0.688605	0.273964
C124	C	-0.310233	-0.188605	0.773964
C125	C	-0.833666	-0.722076	0.245267
C126	C	-0.333666	-0.222076	0.745267
C127	C	-0.099406	-0.755554	0.216571
C128	C	0.400594	-0.255554	0.716571
C129	C	-0.049472	-0.755600	0.216584
C130	C	0.450528	-0.255600	0.716584
C131	C	-0.216603	-0.891818	0.216569
C132	C	0.283397	-0.391818	0.716569
C133	C	-0.216610	-0.949932	0.216582
C134	C	0.283390	-0.449932	0.716582
C135	C	-0.245374	-0.201108	0.245237
C136	C	0.254626	0.298892	0.745237
C137	C	-0.245376	-0.146504	0.245244
C138	C	0.254624	0.353496	0.745244
O139	O	-0.269844	-0.118253	0.269647
O140	O	0.230156	0.381747	0.769647
N141	N	-0.216597	-0.119206	0.216568
N142	N	0.283403	0.380794	0.716568
C143	C	-0.187810	-0.146515	0.187886
C144	C	0.312190	0.353485	0.687886
O145	O	-0.163330	-0.118281	0.163495
O146	O	0.336670	0.381719	0.663495
C147	C	-0.187805	-0.201118	0.187881
C148	C	0.312195	0.298882	0.687881
C149	C	-0.216590	-0.228413	0.216556
C150	C	0.283410	0.271587	0.716556
C151	C	-0.274156	-0.228404	0.273910
C152	C	0.225844	0.271596	0.773910
C153	C	-0.274153	-0.283004	0.273902
C154	C	0.225847	0.216996	0.773902
C155	C	-0.245369	-0.310309	0.245221
C156	C	0.254631	0.189691	0.745221
C157	C	-0.216587	-0.283014	0.216548
C158	C	0.283413	0.216986	0.716548
C159	C	-0.159016	-0.228426	0.159202
C160	C	0.340984	0.271574	0.659202
C161	C	-0.159013	-0.283033	0.159200
C162	C	0.340987	0.216967	0.659200
C163	C	-0.187798	-0.310328	0.187875
C164	C	0.312202	0.189672	0.687875
C165	C	-0.187801	-0.364919	0.187860
C166	C	0.312199	0.135081	0.687860
N167	N	-0.216580	-0.392218	0.216536
N168	N	0.283420	0.107782	0.716536
C169	C	-0.245364	-0.364913	0.245217
C170	C	0.254636	0.135087	0.745217
C171	C	-0.187821	-0.031844	0.187898
C172	C	0.312179	0.468156	0.687898
C173	C	-0.187828	0.022758	0.187900
C174	C	0.312172	0.522758	0.687900
C175	C	-0.245394	0.022765	0.245259
C176	C	0.254606	0.522765	0.745259
C177	C	-0.245389	-0.031838	0.245254
C178	C	0.254611	0.468162	0.745254
C179	C	-0.216601	-0.059142	0.216574
C180	C	0.283399	0.440858	0.716574
C181	C	-0.245358	-0.479578	0.245198
C182	C	0.254642	0.020422	0.745198
C183	C	-0.245354	-0.534183	0.245186
C184	C	0.254646	-0.034183	0.745186
C185	C	-0.187786	-0.534185	0.187829
C186	C	0.312214	-0.034185	0.687829
C187	C	-0.187791	-0.479585	0.187839
C188	C	0.312209	0.020415	0.687839
C189	C	-0.216579	-0.452282	0.216527
C190	C	0.283421	0.047718	0.716527
O191	O	-0.163344	-0.393205	0.163471
O192	O	0.336656	0.106795	0.663471
O193	O	-0.269835	-0.393153	0.269607
O194	O	0.230165	0.106847	0.769607
C195	C	-0.245323	-0.721978	0.740223
C196	C	0.254677	-0.221978	1.240223
C197	C	-0.245339	-0.721981	0.552550
C198	C	0.254661	-0.221981	1.052550
O199	O	-0.269757	-0.693508	0.528272
O200	O	0.230243	-0.193508	1.028272
N201	N	-0.216615	-0.755445	0.529096
N202	N	0.283385	-0.255445	1.029096
C203	C	-0.187883	-0.788908	0.552564
C204	C	0.312117	-0.288908	1.052564
O205	O	-0.163448	-0.817367	0.528309
O206	O	0.336552	-0.317367	1.028309
C207	C	-0.187865	-0.788901	0.740236
C208	C	0.312135	-0.288901	1.240236
C209	C	-0.216594	-0.755439	0.763687
C210	C	0.283406	-0.255439	1.263687
C211	C	-0.274049	-0.688517	0.763674
C212	C	0.225951	-0.188517	1.263674
C213	C	-0.274046	-0.688519	0.810590
C214	C	0.225954	-0.188519	1.310590
C215	C	-0.245318	-0.721980	0.834054
C216	C	0.254682	-0.221980	1.334054
C217	C	-0.216591	-0.755441	0.810603
C218	C	0.283409	-0.255441	1.310603
C219	C	-0.159131	-0.822361	0.763703
C220	C	0.340869	-0.322361	1.263703
C221	C	-0.159128	-0.822356	0.810624
C222	C	0.340872	-0.322356	1.310624
C223	C	-0.187857	-0.788894	0.834075
C224	C	0.312143	-0.288894	1.334075
C225	C	-0.187860	-0.788904	0.880983
C226	C	0.312140	-0.288904	1.380983
N227	N	-0.216584	-0.755440	0.904436
N228	N	0.283416	-0.255440	1.404436
C229	C	-0.245313	-0.721978	0.880972
C230	C	0.254687	-0.221978	1.380972
C231	C	-0.187895	-0.788910	0.454033
C232	C	0.312105	-0.288910	0.954033
C233	C	-0.187900	-0.788912	0.407116
C234	C	0.312100	-0.288912	0.907116
C235	C	-0.245355	-0.721984	0.407105
C236	C	0.254645	-0.221984	0.907105
C237	C	-0.245352	-0.721985	0.454023
C238	C	0.254648	-0.221985	0.954023
C239	C	-0.216619	-0.755446	0.477487
C240	C	0.283381	-0.255446	0.977487
C241	C	-0.245305	-0.721984	0.979498
C242	C	0.254695	-0.221984	1.479498
C243	C	-0.245302	-0.721990	1.026417
C244	C	0.254698	-0.221990	1.526417
C245	C	-0.187845	-0.788916	1.026424
C246	C	0.312155	-0.288916	1.526424
C247	C	-0.187850	-0.788912	0.979508
C248	C	0.312150	-0.288912	1.479508
C249	C	-0.216582	-0.755442	0.956046
C250	C	0.283418	-0.255442	1.456046
O251	O	-0.163450	-0.817357	0.905289
O252	O	0.336550	-0.317357	1.405289
O253	O	-0.269736	-0.693515	0.905235
O254	O	0.230264	-0.193515	1.405235
C255	C	-0.245325	-0.721976	0.693308
C256	C	0.254675	-0.221976	1.193308
C257	C	-0.216599	-0.755436	0.669856
C258	C	0.283401	-0.255436	1.169856
C259	C	-0.187870	-0.788898	0.693321
C260	C	0.312130	-0.288898	1.193321
C261	C	-0.216604	-0.755439	0.622939
C262	C	0.283396	-0.255439	1.122939
C263	C	-0.245333	-0.721977	0.599474
C264	C	0.254667	-0.221977	1.099474
C265	C	-0.274057	-0.688513	0.622928
C266	C	0.225943	-0.188513	1.122928
C267	C	-0.274054	-0.688514	0.669843
C268	C	0.225946	-0.188514	1.169843
C269	C	-0.159146	-0.822362	0.669867
C270	C	0.340854	-0.322362	1.169867
C271	C	-0.159151	-0.822358	0.622952
C272	C	0.340849	-0.322358	1.122952
C273	C	-0.187880	-0.788896	0.599487
C274	C	0.312120	-0.288896	1.099487
C275	C	-0.216569	-0.755441	1.099816
C276	C	0.283431	-0.255441	1.599816
C277	C	-0.216573	-0.755451	1.049882
C278	C	0.283427	-0.255451	1.549882
H279	H	-0.472667	-0.816115	0.164460
H280	H	0.027333	-0.316115	0.664460
H281	H	-0.959952	-0.816283	0.164502
H282	H	-0.459952	-0.316283	0.664502
N283	N	-1.050015	-0.687945	0.274599
N284	N	-0.550015	-0.187945	0.774599
N285	N	-1.029081	-0.658064	0.300218
N286	N	-0.529081	-0.158064	0.800218
H287	H	-1.046012	-0.633920	0.320926
H288	H	-0.546012	-0.133920	0.820926
H289	H	-0.603484	-0.661284	0.297328
H290	H	-0.103484	-0.161284	0.797328
H291	H	-0.164354	-0.457360	0.164489
H292	H	0.335646	0.042640	0.664489
N293	N	-0.303395	-0.654324	0.598955
N294	N	0.196605	-0.154324	1.098955
N295	N	-0.300406	-0.606081	0.604179
N296	N	0.199594	-0.106081	1.104179
H297	H	-0.321123	-0.581933	0.587246
H298	H	0.178877	-0.081933	1.087246
N299	N	-0.955186	-0.687917	0.274591
N300	N	-0.455186	-0.187917	0.774591
N301	N	-0.929034	-0.654603	0.258754
N302	N	-0.429034	-0.154603	0.758754
H303	H	-0.912131	-0.630450	0.279456
H304	H	-0.412131	-0.130450	0.779456
H305	H	-0.135757	-0.849612	0.603862
H306	H	0.364243	-0.349612	1.103862
H307	H	-0.268748	-0.694739	0.387992
H308	H	0.231252	-0.194739	0.887992
N309	N	-0.129611	-0.200561	0.129906
N310	N	0.370389	0.299439	0.629906
N311	N	-0.103914	-0.224958	0.104305
N312	N	0.396086	0.275042	0.604305
H313	H	-0.083145	-0.205280	0.083613
H314	H	0.416855	0.294720	0.583613
N315	N	-0.739383	-0.654386	0.303269
N316	N	-0.239383	-0.154386	0.803269
N317	N	-0.713234	-0.621071	0.287430
N318	N	-0.213234	-0.121071	0.787430
H319	H	-0.696331	-0.596916	0.308130
H320	H	-0.196331	-0.096916	0.808130
N321	N	-0.382696	-0.823004	0.158496
N322	N	0.117304	-0.323004	0.658496
N323	N	-0.403628	-0.852886	0.132877
N324	N	0.096372	-0.352886	0.632877
H325	H	-0.386695	-0.877022	0.112164
H326	H	0.113305	-0.377022	0.612164
H327	H	-0.829221	-0.849704	0.135802
H328	H	-0.329221	-0.349704	0.635802
H329	H	-0.135751	-0.849610	0.688967
H330	H	0.364249	-0.349610	1.188967
N331	N	-0.274697	-0.687797	0.477969
N332	N	0.225303	-0.187797	0.977969
N333	N	-0.300343	-0.657924	0.457008
N334	N	0.199657	-0.157924	0.957008
H335	H	-0.321068	-0.633774	0.473917
H336	H	0.178932	-0.133774	0.973917
H337	H	-0.688462	-0.849656	0.135783
H338	H	-0.188462	-0.349656	0.635783
N339	N	-0.598496	-0.856556	0.129821
N340	N	-0.098496	-0.356556	0.629821
N341	N	-0.619432	-0.886437	0.104204
N342	N	-0.119432	-0.386437	0.604204
H343	H	-0.602502	-0.910578	0.083493
H344	H	-0.102502	-0.410578	0.583493
H345	H	-0.297595	-0.206178	0.297268
H346	H	0.202405	0.293822	0.797268
N347	N	-0.274771	-0.451703	0.274499
N348	N	0.225229	0.048297	0.774499
N349	N	-0.316219	-0.457780	0.271438
N350	N	0.183781	0.042220	0.771438
H351	H	-0.336994	-0.438094	0.292130
H352	H	0.163006	0.061906	0.792130
N353	N	-0.693461	-0.654386	0.303289
N354	N	-0.193461	-0.154386	0.803289
N355	N	-0.719620	-0.672767	0.331939
N356	N	-0.219620	-0.172767	0.831939
H357	H	-0.736556	-0.648638	0.352656
H358	H	-0.236556	-0.148638	0.852656
N359	N	-0.158563	-0.823097	0.383156
N360	N	0.341437	-0.323097	0.883156
N361	N	-0.174372	-0.856402	0.356986
N362	N	0.325628	-0.356402	0.856986
H363	H	-0.153651	-0.880545	0.340065
H364	H	0.346349	-0.380545	0.840065
H365	H	-0.268698	-0.694725	0.960400
H366	H	0.231302	-0.194725	1.460400
N367	N	-1.049936	-0.823244	0.158568
N368	N	-0.549936	-0.323244	0.658568
N369	N	-1.091826	-0.823248	0.158580
N370	N	-0.591826	-0.323248	0.658580
H371	H	-1.108742	-0.847391	0.137880
H372	H	-0.608742	-0.347391	0.637880
H373	H	-0.297592	-0.305223	0.297253
H374	H	0.202408	0.194777	0.797253
H375	H	-0.387643	-0.694648	0.268590
H376	H	0.112357	-0.194648	0.768590
N377	N	-0.477627	-0.687738	0.274546
N378	N	0.022373	-0.187738	0.774546
N379	N	-0.456697	-0.657852	0.300162
N380	N	0.043303	-0.157852	0.800162
H381	H	-0.473631	-0.633710	0.320870
H382	H	0.026369	-0.133710	0.820870
H383	H	-0.268828	-0.054058	0.268605
H384	H	0.231172	0.445942	0.768605
N385	N	-0.274788	0.050664	0.274565
N386	N	0.225212	0.550664	0.774565
N387	N	-0.271879	0.044549	0.316025
N388	N	0.228121	0.544549	0.816025
H389	H	-0.292636	0.064254	0.336721
H390	H	0.207364	0.564254	0.836721
H391	H	-0.744102	-0.849676	0.135789
H392	H	-0.244102	-0.349676	0.635789
N393	N	-0.303398	-0.654328	0.739718
N394	N	0.196602	-0.154328	1.239718
N395	N	-0.329041	-0.624458	0.760671
N396	N	0.170959	-0.124458	1.260671
H397	H	-0.349773	-0.600311	0.743755
H398	H	0.150227	-0.100311	1.243755
N399	N	-0.158382	-0.562072	0.158531
N400	N	0.341618	-0.062072	0.658531
N401	N	-0.161278	-0.555955	0.117070
N402	N	0.338722	-0.055955	0.617070
H403	H	-0.140508	-0.575650	0.096380
H404	H	0.359492	-0.075650	0.596380
N405	N	-0.834209	-0.654421	0.303287
N406	N	-0.334209	-0.154421	0.803287
N407	N	-0.813275	-0.624541	0.328906
N408	N	-0.313275	-0.124541	0.828906
H409	H	-0.830207	-0.600401	0.349618
H410	H	-0.330207	-0.100401	0.849618
N411	N	-0.274764	-0.562056	0.274479
N412	N	0.225236	-0.062056	0.774479
N413	N	-0.300461	-0.537666	0.300084
N414	N	0.199539	-0.037666	0.800084
H415	H	-0.321231	-0.557349	0.320772
H416	H	0.178769	-0.057349	0.820772
N417	N	-0.274653	-0.687805	1.050364
N418	N	0.225347	-0.187805	1.550364
N419	N	-0.300300	-0.657931	1.029405
N420	N	0.199700	-0.157931	1.529405
H421	H	-0.321029	-0.633788	1.046316
H422	H	0.178971	-0.133788	1.546316
N423	N	-0.303401	-0.654341	0.834534
N424	N	0.196599	-0.154341	1.334534
N425	N	-0.329051	-0.624473	0.813570
N426	N	0.170949	-0.124473	1.313570
H427	H	-0.349786	-0.600335	0.830478
H428	H	0.150214	-0.100335	1.330478
N429	N	-0.158429	0.050628	0.158599
N430	N	0.341571	0.550628	0.658599
N431	N	-0.132734	0.026236	0.132993
N432	N	0.367266	0.526236	0.632993
H433	H	-0.111969	0.045917	0.112300
H434	H	0.388031	0.545917	0.612300
H435	H	-0.164378	-0.054072	0.164540
H436	H	0.335622	0.445928	0.664540
H437	H	-0.135567	-0.305261	0.135848
H438	H	0.364433	0.194739	0.635848
H439	H	-0.164496	-0.816160	0.473133
H440	H	0.335504	-0.316160	0.973133
N441	N	-0.129783	-0.856549	0.739763
N442	N	0.370217	-0.356549	1.239763
N443	N	-0.104136	-0.886418	0.760728
N444	N	0.395864	-0.386418	1.260728
H445	H	-0.083407	-0.910565	0.743821
H446	H	0.416593	-0.410565	1.243821
N447	N	-0.129770	-0.856536	0.834584
N448	N	0.370230	-0.356536	1.334584
N449	N	-0.104122	-0.886405	0.813636
N450	N	0.395878	-0.386405	1.313636
H451	H	-0.083388	-0.910545	0.830556
H452	H	0.416612	-0.410545	1.330556
H453	H	-0.164460	-0.816163	0.960414
H454	H	0.335540	-0.316163	1.460414
N455	N	-0.158506	-0.823094	1.050404
N456	N	0.341494	-0.323094	1.550404
N457	N	-0.158510	-0.823085	1.092295
N458	N	0.341490	-0.323085	1.592295
H459	H	-0.137788	-0.847222	1.109232
H460	H	0.362212	-0.347222	1.609232
H461	H	-0.297448	-0.661266	0.688933
H462	H	0.202552	-0.161266	1.188933
