data_functionalizedCrystal
_audit_creation_method	'MofGen! by Chris Wilmer'
_symmetry_space_group_name_H-M	'P1'
_symmetry_Int_Tables_number	1
_symmetry_cell_setting	triclinic
loop_
_symmetry_equiv_pos_as_xyz
  x,y,z
_cell_length_a	16.109301
_cell_length_b	19.188924
_cell_length_c	15.186229
_cell_angle_alpha	89.994194
_cell_angle_beta	89.999006
_cell_angle_gamma	83.301774
loop_
_atom_site_label
_atom_site_type_symbol
_atom_site_fract_x
_atom_site_fract_y
_atom_site_fract_z
O1	O	1.102830	0.089745	-0.073184
O2	O	1.602830	0.589745	0.426816
O3	O	0.860731	0.100913	-0.073197
O4	O	1.360731	0.600913	0.426803
O5	O	0.988770	-0.006310	-0.073180
O6	O	1.488770	0.493690	0.426820
O7	O	0.974791	0.196969	-0.073201
O8	O	1.474791	0.696969	0.426799
O9	O	0.988762	-0.006312	0.073277
O10	O	1.488762	0.493688	0.573277
O11	O	0.860723	0.100912	0.073260
O12	O	1.360723	0.600912	0.573260
O13	O	1.102822	0.089744	0.073273
O14	O	1.602822	0.589744	0.573273
Zn15	Zn	0.981771	0.095327	0.096520
Zn16	Zn	1.481771	0.595327	0.596520
Zn17	Zn	0.981782	0.095329	-0.096444
Zn18	Zn	1.481782	0.595329	0.403556
O19	O	0.974783	0.196967	0.073256
O20	O	1.474783	0.696967	0.573256
C21	C	0.829754	0.100460	0.000030
C22	C	1.329754	0.600460	0.500030
C23	C	0.737463	0.099104	0.000025
C24	C	1.237463	0.599104	0.500025
C25	C	0.988314	-0.032323	0.000049
C26	C	1.488314	0.467677	0.500049
C27	C	0.986958	-0.109831	0.000052
C28	C	1.486958	0.390169	0.500052
C29	C	0.428267	0.158294	0.000035
C30	C	0.928267	0.658294	0.500035
C31	C	0.514983	0.159575	0.000029
C32	C	1.014983	0.659575	0.500029
C33	C	0.535281	0.032358	0.000031
C34	C	1.035281	0.532358	0.500031
C35	C	0.448567	0.031077	0.000030
C36	C	0.948567	0.531077	0.500030
C37	C	0.395061	0.094048	0.000036
C38	C	0.895061	0.594048	0.500036
C39	C	0.568492	0.096609	0.000032
C40	C	1.068492	0.596609	0.500032
C41	C	0.662513	0.097997	0.000026
C42	C	1.162513	0.597997	0.500026
C43	C	0.301034	0.092660	0.000040
C44	C	0.801034	0.592660	0.500040
C45	C	0.986330	-0.146231	-0.079782
C46	C	1.486330	0.353769	0.420218
C47	C	0.985044	-0.219057	-0.079789
C48	C	1.485044	0.280943	0.420211
C49	C	0.984403	-0.255482	0.000043
C50	C	1.484403	0.244518	0.500043
C51	C	0.985027	-0.219073	0.079887
C52	C	1.485027	0.280927	0.579887
C53	C	0.986304	-0.146248	0.079892
C54	C	1.486304	0.353752	0.579892
N55	N	1.029706	-0.375040	0.059462
N56	N	1.529706	0.124960	0.559462
N57	N	1.028494	-0.444221	0.059452
N58	N	1.528494	0.055779	0.559452
C59	C	0.980552	-0.474900	0.000034
C60	C	1.480552	0.025100	0.500034
N61	N	0.933878	-0.433786	-0.059388
N62	N	1.433878	0.066214	0.440612
N63	N	0.935094	-0.364598	-0.059381
N64	N	1.435094	0.135402	0.440619
C65	C	0.983017	-0.334448	0.000047
C66	C	1.483017	0.165552	0.500047
C67	C	0.978528	-0.590265	-0.079813
C68	C	1.478528	-0.090265	0.420187
C69	C	0.977237	-0.663092	-0.079816
C70	C	1.477237	-0.163092	0.420184
C71	C	0.977228	-0.663108	0.079863
C72	C	1.477228	-0.163108	0.579863
C73	C	0.978511	-0.590282	0.079864
C74	C	1.478511	-0.090282	0.579864
C75	C	0.979165	-0.553865	0.000024
C76	C	1.479165	-0.053865	0.500024
C77	C	1.133800	0.090197	0.000044
C78	C	1.633800	0.590197	0.500044
C79	C	1.226090	0.091553	0.000043
C80	C	1.726090	0.591553	0.500043
C81	C	0.975239	0.222980	0.000024
C82	C	1.475239	0.722980	0.500024
C83	C	0.976595	0.300488	0.000016
C84	C	1.476595	0.800488	0.500016
N85	N	0.981769	0.095326	0.228212
N86	N	1.481769	0.595326	0.728212
N87	N	0.981790	0.095326	-0.228137
N88	N	1.481790	0.595326	0.271863
C89	C	1.038484	0.047863	0.453943
C90	C	1.538484	0.547863	0.953943
C91	C	1.038487	0.047861	0.546133
C92	C	1.538487	0.547861	1.046133
C93	C	0.925069	0.142791	0.546126
C94	C	1.425069	0.642791	1.046126
C95	C	0.925064	0.142788	0.453938
C96	C	1.425064	0.642788	0.953938
C97	C	0.981776	0.095325	0.407849
C98	C	1.481776	0.595325	0.907849
C99	C	0.981784	0.095326	0.592227
C100	C	1.481784	0.595326	1.092227
C101	C	0.981787	0.095325	0.692183
C102	C	1.481787	0.595325	1.192183
C103	C	0.981772	0.095326	0.307887
C104	C	1.481772	0.595326	0.807887
H105	H	0.384704	0.209569	0.000039
H106	H	0.884704	0.709569	0.500039
H107	H	0.979056	-0.560613	-0.144823
H108	H	1.479056	-0.060613	0.355177
O109	O	0.869942	0.188964	0.409293
O110	O	1.369942	0.688964	0.909293
C111	C	0.819879	0.230849	0.469739
C112	C	1.319879	0.730849	0.969739
H113	H	0.853963	0.231652	0.535451
H114	H	1.353963	0.731652	1.035451
H115	H	0.806988	0.286604	0.443090
H116	H	1.306988	0.786604	0.943090
H117	H	0.758205	0.208163	0.479553
H118	H	1.258205	0.708163	0.979553
O119	O	0.976674	-0.698350	-0.157451
O120	O	1.476674	-0.198350	0.342549
C121	C	0.977510	-0.650586	-0.227913
C122	C	1.477510	-0.150586	0.272087
H123	H	1.004728	-0.601572	-0.204496
H124	H	1.504728	-0.101572	0.295504
H125	H	1.017513	-0.676065	-0.283738
H126	H	1.517513	-0.176065	0.216262
H127	H	0.910968	-0.635498	-0.252482
H128	H	1.410968	-0.135498	0.247518
O129	O	0.984541	-0.254503	-0.157295
O130	O	1.484541	0.245497	0.342705
C131	C	1.055800	-0.304542	-0.162091
C132	C	1.555800	0.195458	0.337909
H133	H	1.079604	-0.318114	-0.092776
H134	H	1.579604	0.181886	0.407224
H135	H	1.038712	-0.353961	-0.195898
H136	H	1.538712	0.146039	0.304102
H137	H	1.106706	-0.282016	-0.201477
H138	H	1.606706	0.217984	0.298523
O139	O	1.093542	0.001662	0.590811
O140	O	1.593542	0.501662	1.090811
C141	C	1.080270	-0.067458	0.568309
C142	C	1.580270	0.432542	1.068309
H143	H	1.048221	-0.067380	0.501377
H144	H	1.548221	0.432620	1.001377
H145	H	1.142890	-0.101826	0.565154
H146	H	1.642890	0.398174	1.065154
H147	H	1.038972	-0.089062	0.620200
H148	H	1.538972	0.410938	1.120200
O149	O	0.984518	-0.254390	0.157491
O150	O	1.484518	0.245610	0.657491
C151	C	1.056824	-0.244539	0.206060
C152	C	1.556824	0.255461	0.706060
H153	H	1.081752	-0.194302	0.183368
H154	H	1.581752	0.305698	0.683368
H155	H	1.040669	-0.240275	0.279095
H156	H	1.540669	0.259725	0.779095
H157	H	1.106516	-0.291074	0.194994
H158	H	1.606516	0.208926	0.694994
H159	H	0.542014	0.211891	0.000027
H160	H	1.042014	0.711891	0.500027
H161	H	0.578855	-0.018910	0.000028
H162	H	1.078855	0.481090	0.500028
H163	H	0.421532	-0.021243	0.000028
H164	H	0.921532	0.478757	0.500028
H165	H	0.986860	-0.116585	-0.144795
H166	H	1.486860	0.383415	0.355205
H167	H	0.976700	-0.692764	0.144863
H168	H	1.476700	-0.192764	0.644863
H169	H	0.979030	-0.560646	0.144873
H170	H	1.479030	-0.060646	0.644873
O171	O	0.870068	0.188872	0.591036
O172	O	1.370068	0.688872	1.091036
C173	C	0.882220	0.178688	0.682288
C174	C	1.382220	0.678688	1.182288
H175	H	0.948413	0.152607	0.694877
H176	H	1.448413	0.652607	1.194877
H177	H	0.872780	0.231563	0.717314
H178	H	1.372780	0.731563	1.217314
H179	H	0.835294	0.143660	0.708462
H180	H	1.335294	0.643660	1.208462
O181	O	1.093436	0.001698	0.409094
O182	O	1.593436	0.501698	0.909094
C183	C	1.049036	-0.041396	0.355825
C184	C	1.549036	0.458604	0.855825
H185	H	0.983896	-0.013576	0.341995
H186	H	1.483896	0.486424	0.841995
H187	H	1.083773	-0.052481	0.291006
H188	H	1.583773	0.447519	0.791006
H189	H	1.043537	-0.092976	0.391399
H190	H	1.543537	0.407024	0.891399
H191	H	0.986812	-0.116611	0.144904
H192	H	1.486812	0.383389	0.644904
