data_functionalizedCrystal
_audit_creation_method	'MofGen! by Chris Wilmer'
_symmetry_space_group_name_H-M	'P1'
_symmetry_Int_Tables_number	1
_symmetry_cell_setting	triclinic
loop_
_symmetry_equiv_pos_as_xyz
  x,y,z
_cell_length_a	11.792241
_cell_length_b	11.792241
_cell_length_c	10.268362
_cell_angle_alpha	89.994572
_cell_angle_beta	90.000374
_cell_angle_gamma	95.806584
loop_
_atom_site_label
_atom_site_type_symbol
_atom_site_fract_x
_atom_site_fract_y
_atom_site_fract_z
O1	O	1.506909	-0.155569	0.108174
O2	O	2.006909	0.344431	0.608174
O3	O	1.176568	-0.171602	0.108205
O4	O	1.676568	0.328398	0.608205
O5	O	1.349755	0.001585	0.108180
O6	O	1.849755	0.501585	0.608180
O7	O	1.333722	-0.328756	0.108199
O8	O	1.833722	0.171244	0.608199
O9	O	1.349740	0.001593	-0.108421
O10	O	1.849740	0.501593	0.391579
O11	O	1.176553	-0.171594	-0.108396
O12	O	1.676553	0.328406	0.391604
O13	O	1.506894	-0.155561	-0.108426
O14	O	2.006894	0.344439	0.391574
Cu15	Cu	1.341722	-0.163577	-0.128188
Cu16	Cu	1.841722	0.336423	0.371812
Cu17	Cu	1.341740	-0.163586	0.127967
Cu18	Cu	1.841740	0.336414	0.627967
O19	O	1.333707	-0.328748	-0.108401
O20	O	1.833707	0.171252	0.391599
C21	C	1.134269	-0.170591	-0.000092
C22	C	1.634269	0.329409	0.499908
C23	C	1.008255	-0.167576	-0.000080
C24	C	1.508255	0.332424	0.499920
C25	C	1.348740	0.043880	-0.000120
C26	C	1.848740	0.543880	0.499880
C27	C	1.345726	0.169894	-0.000119
C28	C	1.845726	0.669894	0.499881
C29	C	0.777543	-0.162034	-0.000118
C30	C	1.277543	0.337966	0.499882
C31	C	0.905928	-0.165113	-0.000097
C32	C	1.405928	0.334887	0.499903
C33	C	1.549192	-0.156572	-0.000127
C34	C	2.049192	0.343428	0.499873
C35	C	1.675206	-0.159587	-0.000130
C36	C	2.175206	0.340413	0.499870
C37	C	1.334721	-0.371043	-0.000099
C38	C	1.834721	0.128957	0.499901
C39	C	1.337736	-0.497057	-0.000092
C40	C	1.837736	0.002943	0.499908
N41	N	1.341717	-0.163571	-0.308354
N42	N	1.841717	0.336429	0.191646
C43	C	1.340183	0.400606	-0.000096
C44	C	1.840183	0.900606	0.499904
C45	C	1.343262	0.272221	-0.000108
C46	C	1.843262	0.772221	0.499892
C47	C	1.341734	-0.163583	-0.574025
C48	C	1.841734	0.336417	-0.074025
C49	C	1.341721	-0.163580	-0.426187
C50	C	1.841721	0.336420	0.073813
N51	N	1.341753	-0.163584	0.308133
N52	N	1.841753	0.336416	0.808133
