data_functionalizedCrystal
_audit_creation_method	'MofGen! by Chris Wilmer'
_symmetry_space_group_name_H-M	'P1'
_symmetry_Int_Tables_number	1
_symmetry_cell_setting	triclinic
loop_
_symmetry_equiv_pos_as_xyz
  x,y,z
_cell_length_a	14.519709
_cell_length_b	11.792241
_cell_length_c	12.996460
_cell_angle_alpha	89.995297
_cell_angle_beta	89.992910
_cell_angle_gamma	83.936780
loop_
_atom_site_label
_atom_site_type_symbol
_atom_site_fract_x
_atom_site_fract_y
_atom_site_fract_z
O1	O	0.126406	1.506210	-0.085549
O2	O	0.626406	2.006210	0.414451
O3	O	0.139433	1.175796	-0.085556
O4	O	0.639433	1.675796	0.414444
O5	O	-0.001287	1.349763	-0.085543
O6	O	0.498713	1.849763	0.414457
O7	O	0.267126	1.332242	-0.085562
O8	O	0.767126	1.832242	0.414438
O9	O	-0.001295	1.349745	0.085591
O10	O	0.498705	1.849745	0.585591
O11	O	0.139425	1.175778	0.085578
O12	O	0.639425	1.675778	0.585578
O13	O	0.126398	1.506191	0.085585
O14	O	0.626398	2.006191	0.585585
Cu15	Cu	0.132911	1.340983	0.101207
Cu16	Cu	0.632911	1.840983	0.601207
Cu17	Cu	0.132920	1.341005	-0.101178
Cu18	Cu	0.632920	1.841005	0.398822
O19	O	0.267118	1.332224	0.085572
O20	O	0.767118	1.832224	0.585572
C21	C	-0.035654	1.348938	0.000024
C22	C	0.464346	1.848938	0.500024
C23	C	-0.138044	1.346491	0.000025
C24	C	0.361956	1.846491	0.500025
C25	C	0.138611	1.133501	0.000010
C26	C	0.638611	1.633501	0.500010
C27	C	0.136161	1.007501	0.000008
C28	C	0.636161	1.507501	0.500008
C29	C	0.127220	1.548487	0.000017
C30	C	0.627220	2.048487	0.500017
C31	C	0.129669	1.674487	0.000012
C32	C	0.629669	2.174487	0.500012
C33	C	-0.512973	1.337483	-0.000002
C34	C	-0.012973	1.837483	0.499998
C35	C	-0.408656	1.339984	0.000006
C36	C	0.091344	1.839984	0.500006
C37	C	-0.325512	1.341987	0.000012
C38	C	0.174488	1.841987	0.500012
C39	C	-0.221188	1.344489	0.000018
C40	C	0.278812	1.844489	0.500018
C41	C	0.301484	1.333050	0.000003
C42	C	0.801484	1.833050	0.500003
C43	C	0.403875	1.335497	-0.000004
C44	C	0.903875	1.835497	0.499996
N45	N	0.132903	1.340976	0.243555
N46	N	0.632903	1.840976	0.743555
C47	C	0.134173	1.905174	0.000012
C48	C	0.634173	2.405174	0.500012
C49	C	0.131671	1.776803	0.000012
C50	C	0.631671	2.276803	0.500012
N51	N	0.132920	1.341020	-0.243525
N52	N	0.632920	1.841020	0.256475
C53	C	0.132921	1.341003	0.663369
C54	C	0.632921	1.841003	1.163369
C55	C	0.132919	1.340992	0.546564
C56	C	0.632919	1.840992	1.046564
C57	C	0.132913	1.340990	0.453465
C58	C	0.632913	1.840990	0.953465
C59	C	0.132910	1.340978	0.336653
C60	C	0.632910	1.840978	0.836653
