data_functionalizedCrystal
_audit_creation_method	'MofGen! by Chris Wilmer'
_symmetry_space_group_name_H-M	'P1'
_symmetry_Int_Tables_number	1
_symmetry_cell_setting	triclinic
loop_
_symmetry_equiv_pos_as_xyz
  x,y,z
_cell_length_a	7.088929
_cell_length_b	16.992694
_cell_length_c	16.992695
_cell_angle_alpha	90.668223
_cell_angle_beta	83.350878
_cell_angle_gamma	96.635129
loop_
_atom_site_label
_atom_site_type_symbol
_atom_site_fract_x
_atom_site_fract_y
_atom_site_fract_z
O1	O	0.158752	-1.043288	-0.174491
O2	O	0.158809	-0.814885	-0.172663
O3	O	0.158766	-0.928172	-0.059376
O4	O	0.158796	-0.930001	-0.287778
O5	O	-0.159215	-0.943309	-0.044200
O6	O	-0.159172	-0.830023	-0.157486
O7	O	-0.159228	-1.058425	-0.159315
Cu8	Cu	-0.188234	-0.945606	-0.157015
Cu9	Cu	0.187815	-0.927704	-0.174963
O10	O	-0.159185	-0.945139	-0.272601
C11	C	-0.000175	-0.793093	-0.162719
C12	C	-0.000153	-0.705608	-0.155691
N13	N	-0.452727	-0.958203	-0.144392
C14	C	-0.000224	-0.933385	-0.022428
C15	C	-0.000222	-0.926356	0.065057
N16	N	0.452308	-0.915114	-0.187580
C17	C	-0.000241	-1.080217	-0.169259
C18	C	-0.000249	-1.167702	-0.176287
C19	C	-0.000146	-0.659617	-0.223510
C20	C	-0.000173	-0.577417	-0.216899
C21	C	-0.000194	-0.541210	-0.142471
C22	C	-0.000207	-0.587207	-0.074647
C23	C	-0.000194	-0.669406	-0.081257
C24	C	-0.000249	-0.295898	-0.115074
C25	C	-0.000257	-0.213693	-0.108469
C26	C	-0.000226	-0.203909	-0.250722
C27	C	-0.000201	-0.286109	-0.257326
C28	C	-0.000224	-0.332100	-0.189502
N29	N	-0.000216	-0.457189	-0.135713
N30	N	-0.000216	-0.416120	-0.196260
C31	C	-0.000191	-0.939926	-0.309550
C32	C	-0.000181	-0.946954	-0.397035
C33	C	-0.000240	-0.994175	0.111048
C34	C	-0.000221	-0.987565	0.193248
C35	C	-0.000196	-0.913136	0.229455
C36	C	-0.000171	-0.845312	0.183457
C37	C	-0.000177	-0.851922	0.101258
C38	C	-0.000163	-0.885740	0.474768
C39	C	-0.000162	-0.879135	0.556973
C40	C	-0.000208	-1.021389	0.566759
C41	C	-0.000226	-1.027993	0.484558
C42	C	-0.000191	-0.960168	0.438567
N43	N	-0.000182	-0.906378	0.313477
N44	N	-0.000192	-0.966926	0.354546
H45	H	-0.466029	-0.870456	-0.232336
Br46	Br	-0.588841	-1.032652	-0.069802
Br47	Br	-0.000149	-0.778119	0.606112
H48	H	-0.000233	-1.076607	0.604213
Br49	Br	-0.000098	-0.708746	-0.324526
Br50	Br	-0.000104	-0.793690	0.412361
H51	H	-0.000165	-0.539974	-0.272125
Br52	Br	-0.000151	-0.335240	-0.358341
H53	H	-0.000269	-0.333334	-0.059846
Br54	Br	-0.000197	-0.141489	-0.342763
Br55	Br	-0.000198	-1.129004	0.435423
Br56	Br	-0.000326	-0.164557	-0.007450
Br57	Br	-0.000255	-0.538071	0.026366
Br58	Br	-0.000221	-0.731825	0.010786
Br59	Br	-0.000246	-1.079609	0.255663
H60	H	-0.000272	-1.054783	0.081576
H61	H	-0.000139	-0.784709	0.212943
H62	H	-0.000162	-0.796696	0.063812
