data_functionalizedCrystal
_audit_creation_method	'MofGen! by Chris Wilmer'
_symmetry_space_group_name_H-M	'P1'
_symmetry_Int_Tables_number	1
_symmetry_cell_setting	triclinic
loop_
_symmetry_equiv_pos_as_xyz
  x,y,z
_cell_length_a	16.956985
_cell_length_b	11.892095
_cell_length_c	16.992695
_cell_angle_alpha	85.845109
_cell_angle_beta	96.639294
_cell_angle_gamma	86.390862
loop_
_atom_site_label
_atom_site_type_symbol
_atom_site_fract_x
_atom_site_fract_y
_atom_site_fract_z
O1	O	-1.064863	0.094043	0.027028
O2	O	-0.564863	0.594043	0.527028
O3	O	-0.834452	0.094037	0.054445
O4	O	-0.334452	0.594037	0.554445
O5	O	-0.948733	0.094031	-0.073346
O6	O	-0.448733	0.594031	0.426654
O7	O	-0.950581	0.094049	0.154819
O8	O	-0.450581	0.594049	0.654819
O9	O	-0.939204	-0.093976	-0.062706
O10	O	-0.439204	0.406024	0.437294
O11	O	-0.824922	-0.093970	0.065084
O12	O	-0.324922	0.406030	0.565084
O13	O	-1.055333	-0.093964	0.037668
O14	O	-0.555333	0.406036	0.537668
Zn15	Zn	-0.938615	-0.123817	0.053065
Zn16	Zn	-0.438615	0.376183	0.553065
Zn17	Zn	-0.951170	0.123890	0.039047
Zn18	Zn	-0.451170	0.623890	0.539047
O19	O	-0.941052	-0.093958	0.165458
O20	O	-0.441052	0.406042	0.665458
C21	C	-0.800068	0.000033	0.061168
C22	C	-0.300068	0.500033	0.561168
C23	C	-0.711813	0.000030	0.065342
C24	C	-0.211813	0.500030	0.565342
N25	N	-0.930052	-0.292871	0.062631
N26	N	-0.430052	0.207129	0.562631
C27	C	-0.675282	0.000021	-0.004442
C28	C	-0.175282	0.500021	0.495558
C29	C	-0.592357	0.000027	-0.000516
C30	C	-0.092357	0.500027	0.499484
C31	C	-0.545965	0.000034	0.073196
C32	C	-0.045965	0.500034	0.573196
C33	C	-0.582502	0.000046	0.142986
C34	C	-0.082502	0.500046	0.642986
C35	C	-0.665426	0.000048	0.139058
C36	C	-0.165426	0.500048	0.639058
C37	C	-0.297431	0.000035	0.092635
C38	C	0.202569	0.500035	0.592635
C39	C	-0.214502	0.000029	0.096558
C40	C	0.285498	0.500029	0.596558
C41	C	-0.224362	0.000013	-0.046945
C42	C	0.275638	0.500013	0.453055
C43	C	-0.307287	0.000009	-0.050866
C44	C	0.192713	0.500009	0.449134
C45	C	-0.343817	0.000027	0.018924
C46	C	0.156183	0.500027	0.518924
N47	N	-0.461202	0.000036	0.077211
N48	N	0.038798	0.500036	0.577211
N49	N	-0.428579	0.000032	0.014907
N50	N	0.071421	0.500032	0.514907
C51	C	-1.019322	-0.529523	-0.037136
C52	C	-0.519322	-0.029523	0.462864
C53	C	-1.013343	-0.647865	-0.030444
C54	C	-0.513343	-0.147865	0.469556
C55	C	-0.912110	-0.647898	0.082703
C56	C	-0.412110	-0.147898	0.582703
C57	C	-0.918089	-0.529556	0.076011
C58	C	-0.418089	-0.029556	0.576011
C59	C	-0.971698	-0.470373	0.016090
C60	C	-0.471698	0.029627	0.516090
C61	C	-0.977681	-0.352029	0.009403
C62	C	-0.477681	0.147971	0.509403
C63	C	-0.876444	-0.352064	0.122545
C64	C	-0.376444	0.147936	0.622545
C65	C	-0.870465	-0.470406	0.129237
C66	C	-0.370465	0.029594	0.629237
C67	C	-0.089716	0.000035	0.030945
C68	C	0.410284	0.500035	0.530945
C69	C	-0.177970	0.000021	0.026773
C70	C	0.322030	0.500021	0.526773
C71	C	-0.941592	0.000027	-0.097085
C72	C	-0.441592	0.500027	0.402915
C73	C	-0.934501	0.000028	-0.183669
C74	C	-0.434501	0.500028	0.316331
N75	N	-0.959739	0.292944	0.029474
N76	N	-0.459739	0.792944	0.529474
C77	C	-1.002916	0.000028	-0.238345
C78	C	-0.502916	0.500028	0.261655
C79	C	-0.996250	0.000039	-0.319700
C80	C	-0.496250	0.500039	0.180300
C81	C	-0.921167	0.000041	-0.346377
C82	C	-0.421167	0.500041	0.153623
C83	C	-0.852747	0.000043	-0.291695
C84	C	-0.352747	0.500043	0.208305
C85	C	-0.859415	0.000041	-0.210343
C86	C	-0.359415	0.500041	0.289657
C87	C	-0.893532	0.000055	-0.588184
C88	C	-0.393532	0.500055	-0.088184
C89	C	-0.886869	0.000055	-0.669544
C90	C	-0.386869	0.500055	-0.169544
C91	C	-1.030373	0.000052	-0.697543
C92	C	-0.530373	0.500052	-0.197543
C93	C	-1.037033	0.000043	-0.616186
C94	C	-0.537033	0.500043	-0.116186
C95	C	-0.968614	0.000051	-0.561512
C96	C	-0.468614	0.500051	-0.061512
N97	N	-0.914351	0.000048	-0.429535
N98	N	-0.414351	0.500048	0.070465
N99	N	-0.975431	0.000052	-0.478357
N100	N	-0.475431	0.500052	0.021643
C101	C	-0.948193	0.000048	0.189197
C102	C	-0.448193	0.500048	0.689197
C103	C	-0.955284	0.000055	0.275781
C104	C	-0.455284	0.500055	0.775781
H105	H	-0.562617	0.000021	-0.057342
H106	H	-0.062617	0.500021	0.442658
O107	O	-0.357324	-0.000006	-0.130369
O108	O	0.142676	0.499994	0.369631
H109	H	-0.317989	-0.000007	-0.178237
H110	H	0.182011	0.499993	0.321763
H111	H	-1.086076	0.000047	-0.742067
H112	H	-0.586076	0.500047	-0.242067
O113	O	-0.771765	0.000048	-0.320470
O114	O	-0.271765	0.500048	0.179530
H115	H	-0.725312	0.000059	-0.268781
H116	H	-0.225312	0.500059	0.231219
O117	O	-0.184964	0.000003	-0.122217
O118	O	0.315036	0.500003	0.377783
H119	H	-0.119509	0.000011	-0.107106
H120	H	0.380491	0.500011	0.392894
O121	O	-1.070043	0.000021	-0.378666
O122	O	-0.570043	0.500021	0.121334
H123	H	-1.109622	0.076637	-0.374092
H124	H	-0.609622	0.576637	0.125908
O125	O	-0.164460	0.000049	0.176064
O126	O	0.335540	0.500049	0.676064
H127	H	-0.203793	0.000075	0.223933
H128	H	0.296207	0.500075	0.723933
H129	H	-0.803704	0.000041	-0.165826
H130	H	-0.303704	0.500041	0.334174
O131	O	-0.825067	-0.288270	0.179956
O132	O	-0.325067	0.211730	0.679956
H133	H	-0.838225	-0.196036	0.165235
H134	H	-0.338225	0.303964	0.665235
O135	O	-0.704833	0.000057	0.214326
O136	O	-0.204833	0.500057	0.714326
H137	H	-0.738499	-0.076565	0.220302
H138	H	-0.238499	0.423435	0.720302
H139	H	-0.327164	0.000057	0.149462
H140	H	0.172836	0.500057	0.649462
H141	H	-0.544724	0.000058	0.203004
H142	H	-0.044724	0.500058	0.703004
O143	O	-1.118017	0.000068	-0.587413
O144	O	-0.618017	0.500068	-0.087413
H145	H	-1.164472	0.000087	-0.639102
H146	H	-0.664472	0.500087	-0.139102
H147	H	-0.868457	-0.696100	0.131484
H148	H	-0.368457	-0.196100	0.631484
H149	H	-0.713048	0.000012	-0.064467
H150	H	-0.213048	0.500012	0.435533
O151	O	-1.035493	-0.288188	-0.055227
O152	O	-0.535493	0.211812	0.444773
H153	H	-1.067597	-0.349206	-0.091119
H154	H	-0.567597	0.150794	0.408881
O155	O	-0.805884	0.000069	-0.698323
O156	O	-0.305884	0.500069	-0.198323
H157	H	-0.759428	0.000088	-0.646639
H158	H	-0.259428	0.500088	-0.146639
O159	O	-1.077139	-0.465678	-0.101759
O160	O	-0.577139	0.034322	0.398241
H161	H	-1.109250	-0.526692	-0.137649
H162	H	-0.609250	-0.026692	0.362351
O163	O	-1.064720	-0.711660	-0.087846
O164	O	-0.564720	-0.211660	0.412154
H165	H	-1.051879	-0.688947	-0.149356
H166	H	-0.551879	-0.188947	0.350644
O167	O	-0.812651	-0.534239	0.193868
O168	O	-0.312651	-0.034239	0.693868
H169	H	-0.816497	-0.626468	0.189585
H170	H	-0.316497	-0.126468	0.689585
H171	H	-1.064056	0.000020	-0.216631
H172	H	-0.564056	0.500020	0.283369
H173	H	-0.837819	0.000062	-0.543678
H174	H	-0.337819	0.500062	-0.043678
