data_functionalizedCrystal
_audit_creation_method	'MofGen! by Chris Wilmer'
_symmetry_space_group_name_H-M	'P1'
_symmetry_Int_Tables_number	1
_symmetry_cell_setting	triclinic
loop_
_symmetry_equiv_pos_as_xyz
  x,y,z
_cell_length_a	25.639242
_cell_length_b	25.639243
_cell_length_c	25.639240
_cell_angle_alpha	89.998274
_cell_angle_beta	89.975637
_cell_angle_gamma	90.007340
loop_
_atom_site_label
_atom_site_type_symbol
_atom_site_fract_x
_atom_site_fract_y
_atom_site_fract_z
Zn1	Zn	0.799213	0.295651	0.208384
Zn2	Zn	1.299213	0.795651	0.708384
Zn3	Zn	0.799157	0.208223	0.295784
Zn4	Zn	1.299157	0.708223	0.795784
Zn5	Zn	0.711800	0.208227	0.208353
Zn6	Zn	1.211800	0.708227	0.708353
Zn7	Zn	0.711744	0.295625	0.295778
Zn8	Zn	1.211744	0.795625	0.795778
O9	O	0.755479	0.251932	0.252075
O10	O	1.255479	0.751932	0.752075
O11	O	0.872371	0.284063	0.219993
O12	O	1.372371	0.784063	0.719993
O13	O	0.787569	0.135059	0.284176
O14	O	1.287569	0.635059	0.784176
O15	O	0.723442	0.219837	0.135192
O16	O	1.223442	0.719837	0.635192
O17	O	0.872330	0.219830	0.284206
O18	O	1.372330	0.719830	0.784206
O19	O	0.787664	0.284067	0.135214
O20	O	1.287664	0.784067	0.635214
O21	O	0.723388	0.135062	0.219940
O22	O	1.223388	0.635062	0.719940
O23	O	0.638627	0.219812	0.219935
O24	O	1.138627	0.719812	0.719935
O25	O	0.723347	0.368794	0.284196
O26	O	1.223347	0.868794	0.784196
O27	O	0.638587	0.284022	0.284166
O28	O	1.138587	0.784022	0.784166
O29	O	0.787610	0.368813	0.219987
O30	O	1.287610	0.868813	0.719987
O31	O	0.787515	0.219805	0.368949
O32	O	1.287515	0.719805	0.868949
O33	O	0.723293	0.284018	0.368944
O34	O	1.223293	0.784018	0.868944
C35	C	0.619636	0.251915	0.252046
C36	C	1.119636	0.751915	0.752046
C37	C	0.561522	0.251920	0.252047
C38	C	1.061522	0.751920	0.752047
C39	C	0.310358	0.285439	0.218699
C40	C	0.810358	0.785439	0.718699
C41	C	0.364962	0.285436	0.218693
C42	C	0.864962	0.785436	0.718693
O43	O	0.393224	0.313931	0.190317
O44	O	0.893224	0.813931	0.690317
N45	N	0.392248	0.251938	0.252069
N46	N	0.892248	0.751938	0.752069
C47	C	0.364927	0.218444	0.285455
C48	C	0.864927	0.718444	0.785455
O49	O	0.393150	0.189951	0.313843
O50	O	0.893150	0.689951	0.813843
C51	C	0.310324	0.218450	0.285462
C52	C	0.810324	0.718450	0.785462
C53	C	0.283040	0.251947	0.252081
C54	C	0.783040	0.751947	0.752081
C55	C	0.283075	0.318933	0.185321
C56	C	0.783075	0.818933	0.685321
C57	C	0.228474	0.318935	0.185325
C58	C	0.728474	0.818935	0.685325
C59	C	0.201157	0.285443	0.218708
C60	C	0.701157	0.785443	0.718708
C61	C	0.228440	0.251949	0.252086
C62	C	0.728440	0.751949	0.752086
C63	C	0.283003	0.184960	0.318851
C64	C	0.783003	0.684960	0.818851
C65	C	0.228396	0.184969	0.318856
C66	C	0.728396	0.684969	0.818856
C67	C	0.201113	0.218465	0.285475
C68	C	0.701113	0.718465	0.785475
C69	C	0.146522	0.218459	0.285473
C70	C	0.646522	0.718459	0.785473
N71	N	0.119236	0.251957	0.252098
N72	N	0.619236	0.751957	0.752098
C73	C	0.146553	0.285449	0.218715
C74	C	0.646553	0.785449	0.718715
C75	C	0.479598	0.218435	0.285438
C76	C	0.979598	0.718435	0.785438
C77	C	0.534200	0.218426	0.285428
C78	C	1.034200	0.718426	0.785428
C79	C	0.534231	0.285418	0.218667
C80	C	1.034231	0.785418	0.718667
C81	C	0.479628	0.285424	0.218674
C82	C	0.979628	0.785424	0.718674
C83	C	0.452312	0.251933	0.252062
C84	C	0.952312	0.751933	0.752062
C85	C	0.031888	0.285451	0.218727
C86	C	0.531888	0.785451	0.718727
C87	C	-0.022717	0.285449	0.218733
C88	C	0.477283	0.785449	0.718733
C89	C	-0.022744	0.218458	0.285496
C90	C	0.477256	0.718458	0.785496
C91	C	0.031857	0.218458	0.285488
C92	C	0.531857	0.718458	0.785488
C93	C	0.059172	0.251959	0.252102
C94	C	0.559172	0.751959	0.752102
O95	O	0.118226	0.189980	0.313837
O96	O	0.618226	0.689980	0.813837
O97	O	0.118324	0.313942	0.190337
O98	O	0.618324	0.813942	0.690337
C99	C	0.755479	0.388305	0.252094
C100	C	1.255479	0.888305	0.752094
C101	C	0.755479	0.446419	0.252102
C102	C	1.255479	0.946419	0.752102
C103	C	0.788939	0.806798	0.218645
C104	C	1.288939	1.306798	0.718645
C105	C	0.788939	0.861402	0.218642
C106	C	1.288939	1.361402	0.718642
O107	O	0.817379	0.889652	0.190199
O108	O	1.317379	1.389652	0.690199
N109	N	0.755482	0.888701	0.252072
N110	N	1.255482	1.388701	0.752072
C111	C	0.722020	0.861394	0.285504
C112	C	1.222020	1.361394	0.785504
O113	O	0.693563	0.889628	0.313939
O114	O	1.193563	1.389628	0.813939
C115	C	0.722018	0.806790	0.285504
C116	C	1.222018	1.306790	0.785504
C117	C	0.755481	0.779494	0.252075
C118	C	1.255481	1.279494	0.752075
C119	C	0.822398	0.779501	0.185219
C120	C	1.322398	1.279501	0.685219
C121	C	0.822398	0.724900	0.185223
C122	C	1.322398	1.224900	0.685223
C123	C	0.788940	0.697596	0.218653
C124	C	1.288940	1.197596	0.718653
C125	C	0.755481	0.724893	0.252079
C126	C	1.255481	1.224893	0.752079
C127	C	0.688554	0.779484	0.318933
C128	C	1.188554	1.279484	0.818933
C129	C	0.688555	0.724877	0.318930
C130	C	1.188555	1.224877	0.818930
C131	C	0.722017	0.697580	0.285501
C132	C	1.222017	1.197580	0.785501
C133	C	0.722024	0.642989	0.285513
C134	C	1.222024	1.142989	0.785513
N135	N	0.755480	0.615689	0.252083
N136	N	1.255480	1.115689	0.752083
C137	C	0.788938	0.642993	0.218653
C138	C	1.288938	1.142993	0.718653
C139	C	0.722027	0.976064	0.285501
C140	C	1.222027	1.476064	0.785501
C141	C	0.722031	1.030667	0.285504
C142	C	1.222031	1.530667	0.785504
C143	C	0.788948	1.030671	0.218641
C144	C	1.288948	1.530671	0.718641
C145	C	0.788946	0.976068	0.218641
C146	C	1.288946	1.476068	0.718641
C147	C	0.755483	0.948765	0.252071
C148	C	1.255483	1.448765	0.752071
C149	C	0.788938	0.528328	0.218664
C150	C	1.288938	1.028328	0.718664
C151	C	0.788937	0.473723	0.218672
C152	C	1.288937	0.973723	0.718672
C153	C	0.722018	0.473723	0.285533
C154	C	1.222018	0.973723	0.785533
C155	C	0.722020	0.528324	0.285527
C156	C	1.222020	1.028324	0.785527
C157	C	0.755482	0.555625	0.252088
C158	C	1.255482	1.055625	0.752088
O159	O	0.693596	0.614704	0.313940
O160	O	1.193596	1.114704	0.813940
O161	O	0.817386	0.614752	0.190218
O162	O	1.317386	1.114752	0.690218
C163	C	0.891852	0.251949	0.252103
C164	C	1.391852	0.751949	0.752103
C165	C	0.949966	0.251956	0.252116
C166	C	1.449966	0.751956	0.752116
C167	C	0.755406	0.251920	0.387917
C168	C	1.255406	0.751920	0.887917
C169	C	0.755423	0.251932	0.446031
C170	C	1.255423	0.751932	0.946031
C171	C	0.755478	1.116089	0.252070
C172	C	1.255478	1.616089	0.752070
C173	C	0.755487	1.057975	0.252072
C174	C	1.255487	1.557975	0.752072
C175	C	0.755565	0.251955	0.115702
C176	C	1.255565	0.751955	0.615702
C177	C	0.755602	0.251965	0.057588
C178	C	1.255602	0.751965	0.557588
C179	C	0.788916	0.285411	0.697185
C180	C	1.288916	0.785411	1.197185
C181	C	0.788900	0.285407	0.642581
C182	C	1.288900	0.785407	1.142581
O183	O	0.817317	0.313854	0.614311
O184	O	1.317317	0.813854	1.114311
N185	N	0.755481	0.251939	0.615305
N186	N	1.255481	0.751939	1.115305
C187	C	0.722078	0.218469	0.642637
C188	C	1.222078	0.718469	1.142637
O189	O	0.693651	0.190001	0.614422
O190	O	1.193651	0.690001	1.114422
C191	C	0.722097	0.218470	0.697240
C192	C	1.222097	0.718470	1.197240
C193	C	0.755515	0.251944	0.724513
C194	C	1.255515	0.751944	1.224513
C195	C	0.822332	0.318881	0.724458
C196	C	1.322332	0.818881	1.224458
C197	C	0.822347	0.318886	0.779059
C198	C	1.322347	0.818886	1.279059
C199	C	0.788946	0.285420	0.806386
C200	C	1.288946	0.785420	1.306386
C201	C	0.755530	0.251949	0.779113
C202	C	1.255530	0.751949	1.279113
C203	C	0.688697	0.184998	0.724570
C204	C	1.188697	0.684998	1.224570
C205	C	0.688719	0.185003	0.779177
C206	C	1.188719	0.685003	1.279177
C207	C	0.722137	0.218476	0.806450
C208	C	1.222137	0.718476	1.306450
C209	C	0.722144	0.218487	0.861041
C210	C	1.222144	0.718487	1.361041
N211	N	0.755564	0.251955	0.888317
N212	N	1.255564	0.751955	1.388317
C213	C	0.788964	0.285421	0.860990
C214	C	1.288964	0.785421	1.360990
C215	C	0.722042	0.218467	0.527966
C216	C	1.222042	0.718467	1.027966
C217	C	0.722020	0.218468	0.473364
C218	C	1.222020	0.718468	0.973364
C219	C	0.788843	0.285405	0.473312
C220	C	1.288843	0.785405	0.973312
C221	C	0.788862	0.285407	0.527915
C222	C	1.288862	0.785407	1.027915
C223	C	0.755462	0.251935	0.555242
C224	C	1.255462	0.751935	1.055242
C225	C	0.788993	0.285429	0.975655
C226	C	1.288993	0.785429	1.475655
C227	C	0.789003	0.285432	1.030260
C228	C	1.289003	0.785432	1.530260
C229	C	0.722182	0.218493	1.030307
C230	C	1.222182	0.718493	1.530307
C231	C	0.722170	0.218491	0.975707
C232	C	1.222170	0.718491	1.475707
C233	C	0.755579	0.251961	0.948382
C234	C	1.255579	0.751961	1.448382
O235	O	0.693743	0.190053	0.889346
O236	O	1.193743	0.690053	1.389346
O237	O	0.817392	0.313879	0.889211
O238	O	1.317392	0.813879	1.389211
H239	H	0.305311	0.346209	0.158136
H240	H	0.805311	0.846209	0.658136
H241	H	0.206158	0.157697	0.346046
H242	H	0.706158	0.657697	0.846046
H243	H	0.816184	0.550550	0.191433
H244	H	1.316184	1.050550	0.691433
O245	O	0.656027	0.806052	0.351334
O246	O	1.156027	1.306052	0.851334
C247	C	0.622267	0.837626	0.321562
C248	C	1.122267	1.337626	0.821562
H249	H	0.640731	0.845812	0.281943
H250	H	1.140731	1.345812	0.781943
H251	H	0.583524	0.816577	0.315810
H252	H	1.083524	1.316577	0.815810
C253	C	0.590105	0.879435	0.398992
C254	C	1.090105	1.379435	0.898992
C255	C	0.612784	0.889493	0.350333
C256	C	1.112784	1.389493	0.850333
H257	H	0.584253	0.911428	0.416739
H258	H	1.084253	1.411428	0.916739
H259	H	0.612848	0.858162	0.419050
H260	H	1.112848	1.358162	0.919050
H261	H	0.557822	0.861893	0.394191
H262	H	1.057822	1.361893	0.894191
H263	H	0.645070	0.907028	0.355134
H264	H	1.145070	1.407028	0.855134
H265	H	0.590046	0.910770	0.330276
H266	H	1.090046	1.410770	0.830276
H267	H	0.556409	0.191144	0.312605
H268	H	1.056409	0.691144	0.812605
O269	O	0.821393	0.318004	1.056776
O270	O	1.321393	0.818004	1.556776
C271	C	0.791610	0.351741	1.088388
C272	C	1.291610	0.851741	1.588388
H273	H	0.750423	0.354931	1.071963
H274	H	1.250423	0.854931	1.571963
H275	H	0.789835	0.335579	1.129774
H276	H	1.289835	0.835579	1.629774
C277	C	0.867697	0.402200	1.109373
C278	C	1.367697	0.902200	1.609373
C279	C	0.817112	0.406121	1.089197
C280	C	1.317112	0.906121	1.589197
H281	H	0.883428	0.435744	1.109875
H282	H	1.383428	0.935744	1.609875
H283	H	0.887763	0.379470	1.088078
H284	H	1.387763	0.879470	1.588078
H285	H	0.866211	0.388730	1.143860
H286	H	1.366211	0.888730	1.643860
H287	H	0.818599	0.419585	1.054709
H288	H	1.318599	0.919585	1.554709
H289	H	0.797046	0.428855	1.110487
H290	H	1.297046	0.928855	1.610487
H291	H	0.457360	0.191158	0.312625
H292	H	0.957360	0.691158	0.812625
O293	O	0.656310	0.152453	0.698027
O294	O	1.156310	0.652453	1.198027
C295	C	0.686098	0.118701	0.666436
C296	C	1.186098	0.618701	1.166436
H297	H	0.725700	0.137183	0.658219
H298	H	1.225700	0.637183	1.158219
H299	H	0.691888	0.079966	0.687484
H300	H	1.191888	0.579966	1.187484
C301	C	0.608680	0.086493	0.624686
C302	C	1.108680	0.586493	1.124686
C303	C	0.657318	0.109194	0.614590
C304	C	1.157318	0.609194	1.114590
H305	H	0.590927	0.080626	0.592706
H306	H	1.090927	0.580626	1.092706
H307	H	0.588611	0.109231	0.645971
H308	H	1.088611	0.609231	1.145971
H309	H	0.613512	0.054216	0.642228
H310	H	1.113512	0.554216	1.142228
H311	H	0.652486	0.141474	0.597055
H312	H	1.152486	0.641474	1.097055
H313	H	0.677386	0.086461	0.593301
H314	H	1.177386	0.586461	1.093301
H315	H	0.694776	0.953838	0.312726
H316	H	1.194776	1.453838	0.812726
H317	H	0.694952	0.191239	0.953500
H318	H	1.194952	0.691239	1.453500
H319	H	0.816199	0.312682	0.953413
H320	H	1.316199	0.812682	1.453413
H321	H	0.816188	0.451500	0.191450
H322	H	1.316188	0.951500	0.691450
H323	H	0.694779	0.451482	0.312752
H324	H	1.194779	0.951482	0.812752
H325	H	0.694778	0.550550	0.312752
H326	H	1.194778	1.050550	0.812752
H327	H	0.054122	0.312730	0.191541
H328	H	0.554122	0.812730	0.691541
H329	H	0.661299	0.702649	0.346147
H330	H	1.161299	1.202649	0.846147
O331	O	0.201951	0.351405	0.152849
O332	O	0.701951	0.851405	0.652849
C333	C	0.170357	0.321709	0.119035
C334	C	0.670357	0.821709	0.619035
H335	H	0.186799	0.280532	0.115729
H336	H	0.686799	0.780532	0.615729
H337	H	0.128968	0.319887	0.135201
H338	H	0.628968	0.819887	0.635201
C339	C	0.149353	0.397928	0.068791
C340	C	0.649353	0.897928	0.568791
C341	C	0.169549	0.347356	0.064726
C342	C	0.669549	0.847356	0.564726
H343	H	0.148852	0.413749	0.035292
H344	H	0.648852	0.913749	0.535292
H345	H	0.170636	0.417936	0.091573
H346	H	0.670636	0.917936	0.591573
H347	H	0.114864	0.396403	0.082265
H348	H	0.614864	0.896403	0.582265
H349	H	0.204040	0.348882	0.051260
H350	H	0.704040	0.848882	0.551260
H351	H	0.148272	0.327349	0.041941
H352	H	0.648272	0.827349	0.541941
H353	H	0.849563	0.346140	0.801260
H354	H	1.349563	0.846140	1.301260
H355	H	0.849533	0.346133	0.702213
H356	H	1.349533	0.846133	1.202213
O357	O	0.821372	0.317940	0.554325
O358	O	1.321372	0.817940	1.054325
C359	C	0.850833	0.347488	0.518489
C360	C	1.350833	0.847488	1.018489
H361	H	0.852648	0.326069	0.479568
H362	H	1.352648	0.826069	0.979568
H363	H	0.831648	0.387176	0.512691
H364	H	1.331648	0.887176	1.012691
C365	C	0.904253	0.381393	0.587556
C366	C	1.404253	0.881393	1.087556
C367	C	0.906485	0.355084	0.539753
C368	C	1.406485	0.855084	1.039753
H369	H	0.938580	0.386081	0.600673
H370	H	1.438580	0.886081	1.100673
H371	H	0.884403	0.361487	0.611700
H372	H	1.384403	0.861487	1.111700
H373	H	0.888262	0.414463	0.582718
H374	H	1.388262	0.914463	1.082718
H375	H	0.922469	0.322012	0.544593
H376	H	1.422469	0.822012	1.044593
H377	H	0.926338	0.374984	0.515611
H378	H	1.426338	0.874984	1.015611
H379	H	0.305208	0.157683	0.346034
H380	H	0.805208	0.657683	0.846034
O381	O	0.453208	0.318015	0.186235
O382	O	0.953208	0.818015	0.686235
C383	C	0.489035	0.347562	0.156761
C384	C	0.989035	0.847562	0.656761
H385	H	0.527952	0.349325	0.178176
H386	H	1.027952	0.849325	0.678176
H387	H	0.494849	0.328483	0.117019
H388	H	0.994849	0.828483	0.617019
C389	C	0.419949	0.401060	0.123021
C390	C	0.919949	0.901060	0.623021
C391	C	0.467746	0.403230	0.149325
C392	C	0.967746	0.903230	0.649325
H393	H	0.406817	0.435398	0.118432
H394	H	0.906817	0.935398	0.618432
H395	H	0.395811	0.381153	0.142876
H396	H	0.895811	0.881153	0.642876
H397	H	0.424800	0.385159	0.089905
H398	H	0.924800	0.885159	0.589905
H399	H	0.462893	0.419124	0.182443
H400	H	0.962893	0.919124	0.682443
H401	H	0.491883	0.423141	0.129475
H402	H	0.991883	0.923141	0.629475
H403	H	0.054072	0.191178	0.312665
H404	H	0.554072	0.691178	0.812665
H405	H	0.816193	0.953846	0.191420
H406	H	1.316193	1.453846	0.691420
H407	H	0.661521	0.157745	0.801424
H408	H	1.161521	0.657745	1.301424
H409	H	0.694802	0.191216	0.451162
H410	H	1.194802	0.691216	0.951162
O411	O	-0.049261	0.185852	0.317869
O412	O	0.450739	0.685852	0.817869
C413	C	-0.035921	0.133758	0.306369
C414	C	0.464079	0.633758	0.806369
H415	H	-0.020896	0.131181	0.264596
H416	H	0.479104	0.631181	0.764596
H417	H	-0.004240	0.120041	0.334378
H418	H	0.495760	0.620041	0.834378
C419	C	-0.102893	0.102029	0.363710
C420	C	0.397107	0.602029	0.863710
C421	C	-0.084444	0.098863	0.312401
C422	C	0.415556	0.598863	0.812401
H423	H	-0.132823	0.080503	0.367433
H424	H	0.367177	0.580503	0.867433
H425	H	-0.111880	0.137125	0.371459
H426	H	0.388120	0.637125	0.871459
H427	H	-0.076488	0.090599	0.387045
H428	H	0.423512	0.590599	0.887045
H429	H	-0.110846	0.110299	0.289069
H430	H	0.389154	0.610299	0.789069
H431	H	-0.075463	0.063768	0.304649
H432	H	0.424537	0.563768	0.804649
O433	O	0.854916	0.698469	0.152696
O434	O	1.354916	1.198469	0.652696
C435	C	0.884451	0.734286	0.123201
C436	C	1.384451	1.234286	0.623201
H437	H	0.863034	0.773205	0.121394
H438	H	1.363034	1.273205	0.621394
H439	H	0.924149	0.740099	0.142354
H440	H	1.424149	1.240099	0.642354
C441	C	0.918324	0.665185	0.069774
C442	C	1.418324	1.165185	0.569774
C443	C	0.892017	0.712985	0.067550
C444	C	1.392017	1.212985	0.567550
H445	H	0.922994	0.652045	0.035446
H446	H	1.422994	1.152045	0.535446
H447	H	0.898428	0.641054	0.089646
H448	H	1.398428	1.141054	0.589646
H449	H	0.951403	0.670035	0.085736
H450	H	1.451403	1.170035	0.585736
H451	H	0.858936	0.708133	0.051594
H452	H	1.358936	1.208133	0.551594
H453	H	0.911908	0.737115	0.047673
H454	H	1.411908	1.237115	0.547673
H455	H	0.556483	0.312690	0.191485
H456	H	1.056483	0.812690	0.691485
O457	O	0.854827	0.806040	0.152685
O458	O	1.354827	1.306040	0.652685
C459	C	0.825091	0.837633	0.118911
C460	C	1.325091	1.337633	0.618911
H461	H	0.783910	0.821182	0.115674
H462	H	1.283910	1.321182	0.615674
H463	H	0.823289	0.879019	0.135069
H464	H	1.323289	1.379019	0.635069
C465	C	0.901250	0.858666	0.068539
C466	C	1.401250	1.358666	0.568539
C467	C	0.850672	0.838458	0.064561
C468	C	1.350672	1.338458	0.564561
H469	H	0.917030	0.859177	0.035014
H470	H	1.417030	1.359177	0.535014
H471	H	0.921285	0.837383	0.091295
H472	H	1.421285	1.337383	0.591295
H473	H	0.899742	0.893152	0.082006
H474	H	1.399742	1.393152	0.582006
H475	H	0.852182	0.803970	0.051101
H476	H	1.352182	1.303970	0.551101
H477	H	0.830638	0.859735	0.041802
H478	H	1.330638	1.359735	0.541802
H479	H	0.816191	1.052912	0.191419
H480	H	1.316191	1.552912	0.691419
H481	H	0.694987	0.191246	1.052567
H482	H	1.194987	0.691246	1.552567
H483	H	-0.044928	0.312725	0.191548
H484	H	0.455072	0.812725	0.691548
O485	O	0.689606	1.057201	0.318039
O486	O	1.189606	1.557201	0.818039
C487	C	0.719351	1.088798	0.351807
C488	C	1.219351	1.588798	0.851807
H489	H	0.760530	1.072353	0.355040
H490	H	1.260530	1.572353	0.855040
H491	H	0.721156	1.130184	0.335646
H492	H	1.221156	1.630184	0.835646
C493	C	0.643200	1.109823	0.402186
C494	C	1.143200	1.609823	0.902186
C495	C	0.693776	1.089621	0.406160
C496	C	1.193776	1.589621	0.906160
H497	H	0.627424	1.110333	0.435713
H498	H	1.127424	1.610333	0.935713
H499	H	0.623160	1.088537	0.379435
H500	H	1.123160	1.588537	0.879435
H501	H	0.644712	1.144309	0.388716
H502	H	1.144712	1.644309	0.888716
H503	H	0.692264	1.055134	0.419624
H504	H	1.192264	1.555134	0.919624
H505	H	0.713816	1.110902	0.428915
H506	H	1.213816	1.610902	0.928915
O507	O	0.821276	0.317863	0.446680
O508	O	1.321276	0.817863	0.946680
C509	C	0.814082	0.310688	0.392638
C510	C	1.314082	0.810688	0.892638
H511	H	0.796986	0.270322	0.385202
H512	H	1.296986	0.770322	0.885202
H513	H	0.786209	0.341674	0.377160
H514	H	1.286209	0.841674	0.877160
C515	C	0.887966	0.365099	0.373693
C516	C	1.387966	0.865099	0.873693
C517	C	0.866972	0.315520	0.364559
C518	C	1.366972	0.815520	0.864559
H519	H	0.920590	0.368082	0.356371
H520	H	1.420590	0.868082	0.856371
H521	H	0.892812	0.369935	0.410101
H522	H	1.392812	0.869935	0.910101
H523	H	0.864734	0.390915	0.360794
H524	H	1.364734	0.890915	0.860794
H525	H	0.890201	0.289705	0.377464
H526	H	1.390201	0.789705	0.877464
H527	H	0.862131	0.310679	0.328152
H528	H	1.362131	0.810679	0.828152
H529	H	0.694839	0.191212	0.550212
H530	H	1.194839	0.691212	1.050212
