data_functionalizedCrystal
_audit_creation_method	'MofGen! by Chris Wilmer'
_symmetry_space_group_name_H-M	'P1'
_symmetry_Int_Tables_number	1
_symmetry_cell_setting	triclinic
loop_
_symmetry_equiv_pos_as_xyz
  x,y,z
_cell_length_a	14.560438
_cell_length_b	16.704494
_cell_length_c	14.560438
_cell_angle_alpha	89.999270
_cell_angle_beta	60.005846
_cell_angle_gamma	56.631439
loop_
_atom_site_label
_atom_site_type_symbol
_atom_site_fract_x
_atom_site_fract_y
_atom_site_fract_z
Zr1	Zr	0.909176	0.815233	-0.072372
O2	O	1.116674	0.680126	-0.226947
O3	O	0.712714	0.856646	-0.025006
O4	O	0.904298	0.856657	-0.216580
O5	O	0.925090	0.680113	0.115767
O6	O	0.887897	0.995912	-0.208380
O7	O	0.925090	0.680116	-0.035373
O8	O	0.545188	0.995894	0.134311
O9	O	1.267798	0.680132	-0.226925
O10	O	0.777194	0.978239	0.001339
O11	O	0.789434	0.874312	0.108013
O12	O	1.015000	0.874324	-0.117541
O13	O	1.027240	0.770397	-0.010867
Zr14	Zr	0.883018	1.037326	0.181757
Zr15	Zr	0.883018	1.037330	-0.059293
Zr16	Zr	0.909176	0.815229	0.168678
Zr17	Zr	1.150203	0.815242	-0.072336
Zr18	Zr	0.641992	1.037317	0.181721
O19	O	1.079481	0.995913	0.134391
O20	O	1.079481	0.995920	-0.208351
O21	O	1.116674	0.680120	0.115795
O22	O	0.675521	1.172433	0.336332
O23	O	0.675521	1.172439	-0.006410
O24	O	0.712714	0.856640	0.317736
O25	O	0.867105	1.172446	-0.006381
O26	O	0.887897	0.995903	0.325965
O27	O	0.904298	0.856647	0.317765
O28	O	0.867105	1.172444	0.144758
O29	O	1.247006	0.856669	-0.216529
O30	O	0.545188	0.995890	0.325914
O31	O	0.524396	1.172427	0.336310
O32	O	0.524396	1.172431	0.144707
O33	O	1.267798	0.680128	-0.035322
O34	O	1.247006	0.856666	-0.024926
O35	O	0.777194	0.978235	0.226926
O36	O	0.764954	1.082162	0.120252
O37	O	1.002760	0.978247	0.001372
O38	O	1.015000	0.874320	0.108046
C39	C	0.594610	0.926268	0.054648
C40	C	0.492288	0.926265	0.054633
C41	C	0.536449	0.849555	-0.033106
C42	C	0.440258	0.849572	-0.033048
C43	C	0.255745	1.003012	0.142496
C44	C	0.351935	1.002998	0.142433
C45	C	0.642976	0.760965	-0.134452
C46	C	0.546785	0.760982	-0.134395
C47	C	0.928817	0.648470	0.038333
C48	C	0.939921	0.554184	0.032781
C49	C	0.712497	0.485506	0.146486
C50	C	0.722925	0.396918	0.141273
C51	C	0.971202	0.288421	0.017147
C52	C	0.960775	0.377008	0.022361
C53	C	0.831418	0.475550	0.087031
C54	C	0.820992	0.564138	0.092238
C55	C	1.069268	0.455640	-0.031880
C56	C	1.079696	0.367052	-0.037094
C57	C	1.197585	0.926291	0.054737
C58	C	1.299907	0.926294	0.054753
C59	C	0.896097	0.926285	-0.246824
C60	C	0.896097	0.926287	-0.349156
C61	C	0.863378	1.204089	0.071052
C62	C	0.852273	1.298375	0.076604
C63	C	0.887068	1.002999	-0.392723
C64	C	0.887063	1.002995	-0.488873
C65	C	0.905123	0.849556	-0.497883
C66	C	0.905118	0.849566	-0.401731
C67	C	0.876646	1.091584	-0.387525
C68	C	0.876641	1.091579	-0.483674
C69	C	0.896097	0.926274	0.356210
C70	C	0.896097	0.926272	0.458542
C71	C	0.561890	1.204078	0.071007
C72	C	0.448463	1.298360	0.076544
C73	C	0.594610	0.926263	0.356165
C74	C	0.492288	0.926257	0.458482
C75	C	0.561890	1.204072	0.372524
C76	C	0.448463	1.298353	0.480393
C77	C	1.230304	0.648487	-0.263139
C78	C	1.343731	0.554206	-0.371008
C79	C	1.230304	0.648481	0.038378
C80	C	1.343731	0.554199	0.032841
C81	C	1.197585	0.926296	-0.246779
C82	C	1.299907	0.926302	-0.349096
C83	C	0.401586	1.288389	0.017062
C84	C	0.295024	1.376969	0.022242
C85	C	0.235334	1.475519	0.086910
C86	C	0.282221	1.485487	0.146393
C87	C	0.388788	1.396909	0.141207
C88	C	0.388807	1.396886	0.475367
C89	C	0.282243	1.485481	0.576713
C90	C	0.235330	1.475540	0.683083
C91	C	0.294998	1.376997	0.688106
C92	C	0.401567	1.288404	0.586761
C93	C	1.403399	0.455673	-0.365982
C94	C	1.509993	0.367078	-0.467328
C95	C	1.556910	0.377019	-0.573698
C96	C	1.497237	0.475563	-0.578721
C97	C	1.390651	0.564155	-0.477376
C98	C	1.390618	0.564170	0.092313
C99	C	1.497207	0.475590	0.087107
C100	C	1.556900	0.377041	0.022435
C101	C	1.510009	0.367072	-0.037043
C102	C	1.403428	0.455650	-0.031843
C103	C	0.437822	0.980503	0.568622
C104	C	0.341686	0.980489	0.664755
C105	C	0.354485	0.871983	0.540594
C106	C	0.450627	0.871991	0.444463
C107	C	0.430428	1.043152	0.640307
C108	C	0.334291	1.043138	0.736440
H109	H	0.544928	0.776461	-0.209940
H110	H	0.148560	1.547637	0.091125
Cl111	Cl	0.573418	0.409440	0.216022
Cl112	Cl	0.207162	1.609387	0.227692
H113	H	0.426942	1.405042	0.189651
Cl114	Cl	0.447767	1.409410	0.341658
Cl115	Cl	0.723334	1.208394	-0.270599
H116	H	1.342070	0.644383	-0.481482
H117	H	0.607170	0.565741	0.199150
Cl118	Cl	1.315603	0.688050	0.173617
Cl119	Cl	0.180246	1.171196	0.824577
Cl120	Cl	0.577227	0.644181	-0.128442
H121	H	0.705053	0.768592	-0.216135
H122	H	1.185014	0.286811	-0.089742
Cl123	Cl	0.236097	1.364413	-0.052539
H124	H	1.643700	0.304873	-0.656210
Cl125	Cl	0.476544	1.164537	0.593100
Cl126	Cl	1.344489	0.443097	-0.106608
H127	H	0.971734	1.076107	-0.405238
H128	H	0.775079	1.162037	-0.462727
Cl129	Cl	0.207248	1.609351	0.570372
H130	H	1.558563	0.286849	-0.463215
H131	H	0.967942	1.083939	-0.555414
Cl132	Cl	0.476608	1.164509	-0.064249
H133	H	1.535368	0.483727	0.135547
Cl134	Cl	0.101353	1.586926	0.810479
H135	H	0.715663	0.644372	0.144903
H136	H	0.710947	0.690508	-0.121805
Cl137	Cl	1.556229	0.488042	-0.712453
Cl138	Cl	0.916442	0.753137	-0.346946
H139	H	0.256786	1.368918	0.774726
Cl140	Cl	1.690885	0.265693	0.015913
Cl141	Cl	1.344441	0.443149	-0.232272
H142	H	1.076518	0.208177	-0.035488
Cl143	Cl	0.397571	0.979338	0.811321
H144	H	1.558627	0.286821	-0.089698
Cl145	Cl	0.519117	0.803775	0.305999
H146	H	0.320554	0.827801	0.529193
H147	H	0.524535	1.008313	0.638286
Cl148	Cl	0.360071	1.166978	0.634105
H149	H	0.315965	1.065471	0.213869
H150	H	1.166103	0.447539	-0.080296
Cl151	Cl	0.916463	0.753111	-0.563982
Cl152	Cl	0.079301	1.099471	0.252868
