data_functionalizedCrystal
_audit_creation_method	'MofGen! by Chris Wilmer'
_symmetry_space_group_name_H-M	'P1'
_symmetry_Int_Tables_number	1
_symmetry_cell_setting	triclinic
loop_
_symmetry_equiv_pos_as_xyz
  x,y,z
_cell_length_a	6.817900
_cell_length_b	17.982959
_cell_length_c	11.168136
_cell_angle_alpha	94.260762
_cell_angle_beta	108.508683
_cell_angle_gamma	102.451857
loop_
_atom_site_label
_atom_site_type_symbol
_atom_site_fract_x
_atom_site_fract_y
_atom_site_fract_z
V1	V	-4.079252	-0.105424	-0.394227
O2	O	-4.070935	0.005054	-0.386179
O3	O	-4.025439	-0.209027	-0.392052
O4	O	-4.056012	-0.103808	-0.565924
O5	O	-4.040150	-0.100893	-0.211104
V6	V	-4.560321	-0.092209	-0.372260
O7	O	-4.345893	-0.134412	-0.442412
O8	O	-4.743877	-0.063221	-0.324075
O9	O	-4.390928	0.011394	-0.374435
O10	O	-4.686035	-0.202687	-0.380307
O11	O	-4.716820	-0.096740	-0.555383
O12	O	-4.360354	-0.093825	-0.200562
C13	C	-3.868309	-0.234283	-0.385968
C14	C	-3.905765	-0.318979	-0.385334
C15	C	-4.106204	-0.362651	-0.391355
C16	C	-4.141390	-0.442233	-0.390767
C17	C	-3.976129	-0.478141	-0.384150
C18	C	-3.775675	-0.434464	-0.378133
C19	C	-3.740496	-0.354884	-0.378730
C20	C	-3.917543	-0.755400	-0.375728
C21	C	-3.952736	-0.834985	-0.375128
C22	C	-4.318436	-0.842748	-0.387765
C23	C	-4.283258	-0.763168	-0.388362
C24	C	-4.082811	-0.719499	-0.382352
C25	C	-4.044662	-0.633207	-0.382991
C26	C	-4.014271	-0.564430	-0.383501
C27	C	-3.907307	-0.100064	-0.607757
C28	C	-3.969553	-0.099428	-0.748124
C29	C	-4.171094	-0.102758	-0.816833
C30	C	-4.235433	-0.102101	-0.961910
C31	C	-4.211399	0.036646	-0.380516
C32	C	-4.153183	0.121342	-0.381157
C33	C	-4.172401	-0.097571	-0.158723
C34	C	-4.089393	-0.098203	-0.018354
H35	H	-4.481654	-0.878313	-0.392661
H36	H	-3.577283	-0.319328	-0.373833
O37	O	-3.820648	-0.095345	-0.806185
C38	C	-3.806117	-0.028472	-0.864605
H39	H	-3.961126	-0.009584	-0.884010
H40	H	-3.666968	0.019596	-0.798431
C41	C	-3.578436	-0.069069	-0.967765
C42	C	-3.768828	-0.045874	-0.991608
H43	H	-3.555425	-0.079801	-1.046104
H44	H	-3.588218	-0.114121	-0.928403
H45	H	-3.462500	-0.029009	-0.912617
H46	H	-3.884763	-0.085938	-1.046742
H47	H	-3.759065	-0.000829	-1.030983
O48	O	-3.883537	-0.094925	-0.947820
C49	C	-3.876487	-0.161357	-0.888659
H50	H	-4.039112	-0.186836	-0.880434
H51	H	-3.834996	-0.205673	-0.948490
C52	C	-3.505413	-0.108351	-0.764427
C53	C	-3.705148	-0.139640	-0.754315
H54	H	-3.399717	-0.094957	-0.681559
H55	H	-3.510159	-0.063595	-0.804288
H56	H	-3.470867	-0.145286	-0.814290
H57	H	-3.739702	-0.102702	-0.704466
H58	H	-3.700403	-0.184389	-0.714442
O59	O	-3.722681	-0.713000	-0.369648
C60	C	-3.566250	-0.719764	-0.255750
H61	H	-3.645325	-0.736679	-0.182461
H62	H	-3.484836	-0.765880	-0.276310
C63	C	-3.301411	-0.621233	-0.292579
C64	C	-3.398530	-0.642002	-0.202560
H65	H	-3.197947	-0.573268	-0.259770
H66	H	-3.406799	-0.616678	-0.369316
H67	H	-3.233584	-0.659670	-0.309704
H68	H	-3.466378	-0.603571	-0.185448
H69	H	-3.293150	-0.646549	-0.125818
H70	H	-4.240778	-0.333419	-0.396731
H71	H	-4.304606	-0.477787	-0.395671
H72	H	-4.417831	-0.733935	-0.393743
H73	H	-3.818153	-0.864219	-0.369748
H74	H	-4.408089	-0.104955	-1.020975
H75	H	-3.641123	-0.463707	-0.372753
H76	H	-4.296005	-0.106091	-0.768251
