data_functionalizedCrystal
_audit_creation_method	'MofGen! by Chris Wilmer'
_symmetry_space_group_name_H-M	'P1'
_symmetry_Int_Tables_number	1
_symmetry_cell_setting	triclinic
loop_
_symmetry_equiv_pos_as_xyz
  x,y,z
_cell_length_a	12.594517
_cell_length_b	18.050590
_cell_length_c	18.050582
_cell_angle_alpha	89.976663
_cell_angle_beta	89.984776
_cell_angle_gamma	90.018352
loop_
_atom_site_label
_atom_site_type_symbol
_atom_site_fract_x
_atom_site_fract_y
_atom_site_fract_z
Zn1	Zn	1.627184	-0.295711	-0.419915
Zn2	Zn	1.627086	-0.419894	-0.295723
Zn3	Zn	1.449207	-0.295722	-0.295738
Zn4	Zn	1.449163	-0.419863	-0.419871
O5	O	1.538160	-0.357797	-0.357812
O6	O	1.776117	-0.312192	-0.403452
O7	O	1.603468	-0.403440	-0.191800
O8	O	1.472876	-0.191796	-0.312235
O9	O	1.776045	-0.403429	-0.312209
O10	O	1.603635	-0.191787	-0.403467
O11	O	1.472781	-0.312211	-0.191811
O12	O	1.300255	-0.312181	-0.312192
O13	O	1.472800	-0.403376	-0.523801
O14	O	1.300223	-0.403387	-0.403392
O15	O	1.603592	-0.312162	-0.523833
O16	O	1.603425	-0.523814	-0.312167
O17	O	1.472705	-0.523792	-0.403378
C18	C	1.261619	-0.357782	-0.357790
C19	C	1.143314	-0.357794	-0.357798
C20	C	1.074047	-0.308119	-0.308289
C21	C	1.003235	-0.375858	-0.290017
C22	C	1.003327	-0.290088	-0.376083
C23	C	1.074059	-0.425569	-0.339490
C24	C	1.074158	-0.339752	-0.425588
C25	C	1.003377	-0.407538	-0.407341
C26	C	1.538078	-0.550749	-0.357782
C27	C	1.538141	-0.633295	-0.357794
C28	C	1.609374	-0.832731	-0.308263
C29	C	1.635366	-0.882070	-0.376043
C30	C	1.538201	-0.784426	-0.357824
C31	C	1.512317	-0.882168	-0.290074
C32	C	1.538261	-0.930411	-0.357846
C33	C	1.564243	-0.832677	-0.425640
C34	C	1.441149	-0.832771	-0.339625
C35	C	1.467104	-0.882088	-0.407452
C36	C	1.538169	-0.700327	-0.357810
C37	C	1.538293	-1.014507	-0.357868
C38	C	1.815781	-0.357813	-0.357834
C39	C	1.934086	-0.357819	-0.357844
C40	C	1.538202	-0.357764	-0.551517
C41	C	1.538220	-0.357750	-0.634063
C42	C	1.538271	-0.164092	-0.357858
C43	C	1.538319	-0.081546	-0.357877
C44	C	1.467149	-0.407285	-0.833496
C45	C	1.564261	-0.425439	-0.882888
C46	C	1.538272	-0.357694	-0.785194
C47	C	1.441214	-0.339519	-0.882884
C48	C	1.538314	-0.357640	-0.931179
C49	C	1.635435	-0.375883	-0.833498
C50	C	1.512322	-0.289932	-0.833489
C51	C	1.609501	-0.308060	-0.882859
C52	C	1.538246	-0.357726	-0.701095
C53	C	1.538351	-0.357608	-1.015275
C54	C	1.538180	-0.357776	-0.164859
C55	C	1.538368	-0.357581	-0.082314
H56	H	0.972202	-0.232827	-0.391503
H57	H	1.490319	-0.232667	-0.811775
H58	H	1.490400	-0.903907	-0.232770
O59	O	1.733372	-0.907878	-0.394303
C60	C	1.808145	-0.882721	-0.341912
H61	H	1.765863	-0.868909	-0.287807
H62	H	1.849421	-0.831019	-0.364018
C63	C	1.943115	-0.960704	-0.394364
C64	C	1.891184	-0.943746	-0.327908
H65	H	1.994340	-0.998345	-0.385727
H66	H	1.892740	-0.977651	-0.429662
H67	H	1.977502	-0.917614	-0.412778
H68	H	1.856786	-0.986833	-0.309500
H69	H	1.941555	-0.926807	-0.292606
H70	H	0.972543	-0.449606	-0.449229
O71	O	1.733331	-0.394300	-0.807609
C72	C	1.732122	-0.394119	-0.729503
H73	H	1.647292	-0.402379	-0.709054
H74	H	1.763762	-0.338854	-0.708361
C75	C	1.906839	-0.447269	-0.725482
C76	C	1.802651	-0.457421	-0.700367
H77	H	1.950347	-0.486314	-0.707509
H78	H	1.907656	-0.447389	-0.778104
H79	H	1.933191	-0.401213	-0.707862
H80	H	1.776295	-0.503472	-0.717996
H81	H	1.801830	-0.457311	-0.647748
H82	H	1.407060	-0.449277	-0.811823
H83	H	1.359072	-0.811099	-0.324197
H84	H	1.669734	-0.266100	-0.904396
O85	O	1.110782	-0.493962	-0.320999
C86	C	1.024225	-0.541811	-0.308076
H87	H	0.951133	-0.519925	-0.338203
H88	H	1.007359	-0.544646	-0.246084
C89	C	1.140968	-0.646698	-0.300004
C90	C	1.051197	-0.619819	-0.337011
H91	H	1.157606	-0.694818	-0.317849
H92	H	1.199284	-0.614461	-0.308707
H93	H	1.126902	-0.649054	-0.248346
H94	H	1.065269	-0.617455	-0.388666
H95	H	0.992883	-0.652058	-0.328317
H96	H	1.406942	-0.903622	-0.449422
H97	H	1.669583	-0.811059	-0.266394
O98	O	1.590303	-0.493818	-0.908746
C99	C	1.515115	-0.545967	-0.883585
H100	H	1.437626	-0.516434	-0.869723
H101	H	1.546739	-0.574816	-0.831913
C102	C	1.590115	-0.640128	-0.961654
C103	C	1.494939	-0.603856	-0.944634
H104	H	1.577672	-0.675839	-0.999309
H105	H	1.640774	-0.604995	-0.978603
H106	H	1.616458	-0.664163	-0.918588
H107	H	1.468605	-0.579814	-0.987696
H108	H	1.444275	-0.638986	-0.927693
O109	O	1.590688	-0.806824	-0.493977
C110	C	1.683379	-0.763313	-0.488806
H111	H	1.729690	-0.779740	-0.437095
H112	H	1.660607	-0.702298	-0.485213
C113	C	1.695955	-0.755837	-0.621377
C114	C	1.752839	-0.776018	-0.557868
H115	H	1.738799	-0.763671	-0.663978
H116	H	1.633504	-0.785149	-0.624861
H117	H	1.676981	-0.704993	-0.618373
H118	H	1.771800	-0.826864	-0.560869
H119	H	1.815294	-0.746715	-0.554385
O120	O	1.343193	-0.321289	-0.908677
C121	C	1.268451	-0.373762	-0.883542
H122	H	1.299955	-0.402070	-0.831540
H123	H	1.254523	-0.416997	-0.928527
C124	C	1.124374	-0.299667	-0.929434
C125	C	1.163063	-0.334431	-0.865560
H126	H	1.059363	-0.275408	-0.918345
H127	H	1.174728	-0.264316	-0.946371
H128	H	1.112775	-0.335703	-0.966915
H129	H	1.174674	-0.298394	-0.828083
H130	H	1.112708	-0.369775	-0.848616
H131	H	0.972084	-0.391134	-0.232708
O132	O	1.110898	-0.258043	-0.258230
C133	C	1.024431	-0.223399	-0.222732
H134	H	0.951523	-0.260650	-0.226486
H135	H	1.007007	-0.168219	-0.250963
C136	C	1.141552	-0.164023	-0.136141
C137	C	1.052007	-0.209778	-0.140746
H138	H	1.158563	-0.155618	-0.085569
H139	H	1.199807	-0.187361	-0.160058
H140	H	1.127020	-0.118045	-0.159671
H141	H	1.066545	-0.255759	-0.117225
H142	H	0.993755	-0.186448	-0.116823
O143	O	1.111310	-0.321378	-0.493914
C144	C	1.075313	-0.249913	-0.512963
H145	H	1.055394	-0.217803	-0.460398
H146	H	1.001301	-0.254659	-0.549000
C147	C	1.187345	-0.248252	-0.620657
C148	C	1.162888	-0.208811	-0.556096
H149	H	1.241362	-0.222898	-0.647267
H150	H	1.211594	-0.296400	-0.607826
H151	H	1.125661	-0.252204	-0.650680
H152	H	1.224568	-0.204868	-0.526071
H153	H	1.138651	-0.160661	-0.568924
