data_functionalizedCrystal
_audit_creation_method	'MofGen! by Chris Wilmer'
_symmetry_space_group_name_H-M	'P1'
_symmetry_Int_Tables_number	1
_symmetry_cell_setting	triclinic
loop_
_symmetry_equiv_pos_as_xyz
  x,y,z
_cell_length_a	16.704494
_cell_length_b	12.970454
_cell_length_c	12.970454
_cell_angle_alpha	59.999644
_cell_angle_beta	90.000580
_cell_angle_gamma	56.632329
loop_
_atom_site_label
_atom_site_type_symbol
_atom_site_fract_x
_atom_site_fract_y
_atom_site_fract_z
Zr1	Zr	0.815198	1.020730	-0.081401
O2	O	0.680080	1.253688	-0.254961
O3	O	0.856619	0.800162	-0.028194
O4	O	0.856619	1.015254	-0.243286
O5	O	0.680081	1.038595	0.129798
O6	O	0.995875	0.996840	-0.234078
O7	O	0.680081	1.038596	-0.039869
O8	O	0.995877	0.612080	0.150682
O9	O	0.680080	1.423355	-0.254962
O10	O	0.978211	0.872554	0.001369
O11	O	0.874285	0.886295	0.121118
O12	O	0.874284	1.139538	-0.132126
O13	O	0.770359	1.153280	-0.012377
Zr14	Zr	1.037298	0.991361	0.203886
Zr15	Zr	1.037297	0.991363	-0.066714
Zr16	Zr	0.815199	1.020729	0.189199
Zr17	Zr	0.815198	1.291330	-0.081402
Zr18	Zr	1.037298	0.720761	0.203887
O19	O	0.995877	1.211929	0.150679
O20	O	0.995875	1.211931	-0.234079
O21	O	0.680081	1.253686	0.129797
O22	O	1.172416	0.758403	0.377446
O23	O	1.172414	0.758405	-0.007312
O24	O	0.856621	0.800160	0.356564
O25	O	1.172415	0.973496	-0.007313
O26	O	0.995877	0.996837	0.365771
O27	O	0.856621	1.015251	0.356563
O28	O	1.172415	0.973495	0.162354
O29	O	0.856619	1.400012	-0.243288
O30	O	0.995877	0.612079	0.365773
O31	O	1.172416	0.588736	0.377447
O32	O	1.172415	0.588737	0.162356
O33	O	0.680081	1.423354	-0.039871
O34	O	0.856619	1.400011	-0.028197
O35	O	0.978211	0.872553	0.254611
O36	O	1.082137	0.858812	0.134862
O37	O	0.978211	1.125796	0.001367
O38	O	0.874285	1.139537	0.121116
C39	C	0.926248	0.667566	0.061244
C40	C	0.926248	0.552690	0.061245
C41	C	0.648437	1.042780	0.042872
C42	C	0.554150	1.055247	0.036637
C43	C	0.485483	0.799918	0.164321
C44	C	0.396895	0.811625	0.158466
C45	C	0.288386	1.090366	0.019082
C46	C	0.376974	1.078659	0.024936
C47	C	0.475521	0.933430	0.097557
C48	C	0.564110	0.921725	0.103403
C49	C	0.455600	1.200465	-0.035973
C50	C	0.367012	1.212172	-0.041828
C51	C	1.204059	0.969311	0.079613
C52	C	1.298346	0.956844	0.085847
C53	C	0.926247	1.006047	-0.277237
C54	C	0.926246	1.006048	-0.392114
C55	C	0.926248	1.344525	0.061241
C56	C	0.926248	1.459402	0.061240
C57	C	0.926249	1.006044	0.399722
C58	C	0.926250	1.006043	0.514599
C59	C	1.204059	0.630832	0.079614
C60	C	1.298346	0.503488	0.085850
C61	C	0.926249	0.667564	0.399724
C62	C	0.926250	0.552687	0.514601
C63	C	1.204060	0.630830	0.418094
C64	C	1.298347	0.503486	0.539206
C65	C	0.648436	1.381261	-0.295609
C66	C	0.554149	1.508606	-0.416721
C67	C	0.648437	1.381259	0.042870
C68	C	0.554150	1.508603	0.036635
C69	C	0.926247	1.344527	-0.277239
C70	C	0.926246	1.459404	-0.392116
C71	C	1.288375	0.450859	0.019085
C72	C	1.376959	0.331222	0.024917
C73	C	1.475512	0.264208	0.097524
C74	C	1.485480	0.316848	0.164291
C75	C	1.396898	0.436491	0.158450
C76	C	1.396883	0.436509	0.533574
C77	C	1.485484	0.316869	0.647362
C78	C	1.475547	0.264201	0.766780
C79	C	1.377001	0.331189	0.772409
C80	C	1.288403	0.450834	0.658622
C81	C	0.455613	1.575595	-0.411089
C82	C	0.367012	1.695268	-0.524877
C83	C	0.376949	1.747943	-0.644295
C84	C	0.475495	1.680947	-0.649924
C85	C	0.564093	1.561284	-0.536137
C86	C	0.564121	1.561243	0.103389
C87	C	0.475537	1.680910	0.097526
C88	C	0.376984	1.747928	0.024916
C89	C	0.367016	1.695283	-0.041845
C90	C	0.455598	1.575625	-0.035989
H91	H	0.644349	0.803472	0.162542
H92	H	1.547698	0.166777	0.859423
H93	H	1.208174	0.505352	0.663225
H94	H	1.565734	0.262268	0.223405
C95	C	0.339466	1.601838	-0.298947
C96	C	0.444672	1.517734	-0.279834
H97	H	0.332708	1.566134	-0.217917
H98	H	0.307163	1.588410	-0.345918
H99	H	0.307182	1.708010	-0.345952
H100	H	0.476955	1.411563	-0.232837
H101	H	0.476988	1.531149	-0.232843
H102	H	1.404993	0.479374	0.436349
C103	C	1.669476	0.127148	0.766240
C104	C	1.593797	0.243269	0.641157
H105	H	1.736341	0.081729	0.762403
H106	H	1.661732	0.050668	0.810580
H107	H	1.661687	0.170306	0.810559
H108	H	1.601581	0.200108	0.596840
H109	H	1.601544	0.319762	0.596798
C110	C	0.748107	1.371444	0.174265
C111	C	0.672445	1.487597	0.183204
H112	H	0.814978	1.325984	0.223545
H113	H	0.740334	1.414574	0.086805
H114	H	0.740330	1.294987	0.206406
H115	H	0.680217	1.564060	0.151054
H116	H	0.680221	1.444467	0.270682
H117	H	1.405030	0.479325	0.212826
C118	C	0.309279	0.705803	0.211387
C119	C	0.407844	0.664866	0.231854
H120	H	0.316042	0.615194	0.256706
H121	H	0.272481	0.764965	0.122008
H122	H	0.272474	0.764994	0.241589
H123	H	0.444646	0.605684	0.201643
H124	H	0.444657	0.605679	0.321253
C125	C	0.543184	1.398567	-0.088890
C126	C	0.444629	1.517752	-0.109354
H127	H	0.536404	1.362851	-0.134191
H128	H	0.579988	1.316226	0.000491
H129	H	0.579993	1.435807	-0.119114
H130	H	0.407823	1.480509	-0.079121
H131	H	0.407810	1.600108	-0.198754
C132	C	0.183045	1.885077	-0.112664
C133	C	0.258680	1.768948	-0.121644
H134	H	0.116163	1.930543	-0.161917
H135	H	0.190824	1.961521	-0.144800
H136	H	0.190846	1.841914	-0.025182
H137	H	0.250883	1.812113	-0.209125
H138	H	0.250898	1.692491	-0.089513
H139	H	1.368926	0.288288	0.869654
H140	H	0.208137	1.208604	-0.040024
C141	C	1.190029	0.453039	-0.118105
C142	C	1.180052	0.524510	-0.060737
H143	H	1.123156	0.498515	-0.167395
H144	H	1.226836	0.346280	-0.053132
H145	H	1.226848	0.465876	-0.172713
H146	H	1.143239	0.511664	-0.006121
H147	H	1.143229	0.631295	-0.125719
C148	C	0.583845	0.525569	0.301507
C149	C	0.593809	0.640289	0.244142
H150	H	0.650722	0.427021	0.350793
H151	H	0.547043	0.535926	0.236532
H152	H	0.547027	0.535946	0.356118
H153	H	0.630621	0.629919	0.189524
H154	H	0.630628	0.629927	0.309126
H155	H	0.304863	1.845359	0.020159
H156	H	0.483573	1.723851	-0.747167
C157	C	0.204445	1.926262	-0.580243
C158	C	0.258700	1.768884	-0.518667
H159	H	0.137583	1.971700	-0.576397
H160	H	0.197673	1.974764	-0.667641
H161	H	0.241279	1.939051	-0.538433
H162	H	0.221870	1.756095	-0.560483
H163	H	0.265468	1.720368	-0.431253
C164	C	0.748084	1.371527	-0.417257
C165	C	0.672404	1.487674	-0.542339
H166	H	0.814948	1.326107	-0.421096
H167	H	0.740334	1.295053	-0.372934
H168	H	0.740305	1.414662	-0.372919
H169	H	0.680179	1.444537	-0.586674
H170	H	0.680158	1.564161	-0.586680
H171	H	0.483674	1.723752	0.151898
H172	H	0.286765	1.330413	-0.100948
H173	H	0.447494	1.309181	-0.090341
H174	H	1.368822	0.288379	-0.029453
H175	H	1.547633	0.166788	0.102270
H176	H	0.304797	1.845381	-0.736938
