data_functionalizedCrystal
_audit_creation_method	'MofGen! by Chris Wilmer'
_symmetry_space_group_name_H-M	'P1'
_symmetry_Int_Tables_number	1
_symmetry_cell_setting	triclinic
loop_
_symmetry_equiv_pos_as_xyz
  x,y,z
_cell_length_a	10.686220
_cell_length_b	16.120531
_cell_length_c	10.686551
_cell_angle_alpha	91.295135
_cell_angle_beta	90.308082
_cell_angle_gamma	82.922025
loop_
_atom_site_label
_atom_site_type_symbol
_atom_site_fract_x
_atom_site_fract_y
_atom_site_fract_z
Zn1	Zn	1.957883	0.203140	-0.579030
Zn2	Zn	1.930960	0.353953	-0.381628
Zn3	Zn	1.730490	0.224455	-0.387094
Zn4	Zn	1.737509	0.352264	-0.607267
O5	O	1.839211	0.283453	-0.488755
O6	O	2.130436	0.214932	-0.538739
O7	O	1.890162	0.346402	-0.207596
O8	O	1.768984	0.105022	-0.403025
O9	O	2.110655	0.325734	-0.393709
O10	O	1.936049	0.089362	-0.544039
O11	O	1.742878	0.251260	-0.211612
O12	O	1.555297	0.249623	-0.430405
O13	O	1.780948	0.322856	-0.778278
O14	O	1.560454	0.343524	-0.592166
O15	O	1.942855	0.213294	-0.757532
O16	O	1.896968	0.470334	-0.421089
O17	O	1.754841	0.469093	-0.586865
C18	C	1.823781	0.499945	-0.506473
C19	C	1.817299	0.592553	-0.514085
C20	C	1.512208	0.298704	-0.514943
C21	C	1.372316	0.305246	-0.526178
C22	C	1.805474	0.762108	-0.528009
C23	C	1.872989	0.803959	-0.449426
C24	C	1.866409	0.898305	-0.457173
C25	C	1.812052	0.667753	-0.520263
C26	C	2.167490	0.268143	-0.462464
C27	C	2.307383	0.261619	-0.451261
C28	C	1.865688	0.265509	-0.814485
C29	C	1.876971	0.257862	-0.953291
C30	C	1.854690	1.066116	-0.470972
C31	C	1.861167	0.973509	-0.463345
C32	C	1.812913	0.301264	-0.164281
C33	C	1.801891	0.308664	-0.025436
H34	H	1.320881	0.347610	-0.598911
O35	O	1.730596	0.803753	-0.615312
C36	C	1.669077	0.746268	-0.686839
H37	H	1.725221	0.681525	-0.682091
H38	H	1.661836	0.766687	-0.788328
H39	H	1.570431	0.744106	-0.647937
O40	O	1.715041	0.367645	-0.972498
C41	C	1.739155	0.447677	-1.008895
H42	H	1.842287	0.445233	-1.037136
H43	H	1.718489	0.494023	-0.927281
H44	H	1.676192	0.468492	-1.091698
H45	H	1.949892	0.208519	-0.997722
O46	O	1.368854	0.211197	-0.364425
C47	C	1.434922	0.259492	-0.281474
H48	H	1.453571	0.319361	-0.328982
H49	H	1.528473	0.222177	-0.254704
H50	H	1.376148	0.275990	-0.193662
O51	O	1.947728	0.762056	-0.362252
C52	C	1.937753	0.675818	-0.373832
H53	H	1.844716	0.666370	-0.421504
H54	H	1.941010	0.647450	-0.276939
H55	H	2.019463	0.643901	-0.432414
