data_functionalizedCrystal
_audit_creation_method	'MofGen! by Chris Wilmer'
_symmetry_space_group_name_H-M	'P1'
_symmetry_Int_Tables_number	1
_symmetry_cell_setting	triclinic
loop_
_symmetry_equiv_pos_as_xyz
  x,y,z
_cell_length_a	19.121063
_cell_length_b	19.121385
_cell_length_c	12.594509
_cell_angle_alpha	87.589297
_cell_angle_beta	92.405810
_cell_angle_gamma	85.196193
loop_
_atom_site_label
_atom_site_type_symbol
_atom_site_fract_x
_atom_site_fract_y
_atom_site_fract_z
Zn1	Zn	-0.234194	-1.063719	-0.548459
Zn2	Zn	-0.351875	-1.058603	-0.378395
Zn3	Zn	-0.239246	-0.946051	-0.378390
Zn4	Zn	-0.356846	-0.940999	-0.564218
O5	O	-0.295540	-1.002343	-0.467365
O6	O	-0.245610	-1.161502	-0.519306
O7	O	-0.336969	-1.043646	-0.229452
O8	O	-0.140110	-0.965915	-0.394353
O9	O	-0.332070	-1.157744	-0.394361
O10	O	-0.136398	-1.052365	-0.519302
O11	O	-0.254221	-0.960955	-0.229449
O12	O	-0.259041	-0.846919	-0.409634
O13	O	-0.340542	-0.957305	-0.711069
O14	O	-0.345441	-0.843207	-0.546161
O15	O	-0.250430	-1.047467	-0.699491
O16	O	-0.451001	-1.038747	-0.409641
O17	O	-0.454653	-0.952344	-0.546165
C18	C	-0.303329	-0.819533	-0.479608
C19	C	-0.306678	-0.741325	-0.484871
C20	C	-0.327856	-0.298903	-0.518285
C21	C	-0.324715	-0.372387	-0.513320
C22	C	-0.278088	-0.411042	-0.439863
C23	C	-0.234604	-0.376209	-0.371360
C24	C	-0.237750	-0.302725	-0.376321
C25	C	-0.266340	-0.633009	-0.421329
C26	C	-0.263196	-0.706497	-0.416375
C27	C	-0.353308	-0.702670	-0.558334
C28	C	-0.356446	-0.629186	-0.563293
C29	C	-0.312966	-0.594359	-0.494786
C30	C	-0.274874	-0.486155	-0.434788
C31	C	-0.316183	-0.519248	-0.499857
C32	C	-0.478357	-0.994461	-0.479636
C33	C	-0.556564	-0.991154	-0.484916
C34	C	-0.591379	-1.034621	-0.416370
C35	C	-0.664863	-1.031514	-0.421343
C36	C	-0.703530	-0.984937	-0.494856
C37	C	-0.668709	-0.941469	-0.563409
C38	C	-0.595227	-0.944579	-0.558441
C39	C	-0.925496	-0.973297	-0.513414
C40	C	-0.998984	-0.970188	-0.518375
C41	C	-0.995132	-1.060235	-0.376309
C42	C	-0.921648	-1.063338	-0.371343
C43	C	-0.886834	-1.019872	-0.439900
C44	C	-0.778642	-0.981759	-0.499938
C45	C	-0.811723	-1.023054	-0.434823
C46	C	-0.112009	-1.010275	-0.455069
C47	C	-0.033799	-1.013655	-0.449829
C48	C	-0.295477	-1.002393	-0.744979
C49	C	-0.295450	-1.002414	-0.863281
C50	C	-0.287718	-0.185867	-0.455063
C51	C	-0.284374	-0.264075	-0.449789
C52	C	-0.344434	-0.953391	-0.938829
C53	C	-0.358886	-1.016857	-1.006464
C54	C	-0.280953	-0.939000	-1.006439
C55	C	-0.309934	-1.065912	-0.929358
C56	C	-0.231973	-0.988013	-0.929328
C57	C	-0.246398	-1.051524	-0.996927
C58	C	-0.295551	-1.002336	-0.190825
C59	C	-0.295374	-1.002460	-0.072501
H60	H	-0.365821	-0.267435	-0.578107
H61	H	-0.230938	-0.604661	-0.365542
H62	H	-0.810133	-0.943835	-0.559791
O63	O	-0.195613	-0.268856	-0.309678
C64	C	-0.189587	-0.186219	-0.170999
C65	C	-0.237386	-0.224538	-0.246403
H66	H	-0.223340	-0.150368	-0.119837
H67	H	-0.155735	-0.226436	-0.117571
H68	H	-0.154291	-0.153446	-0.219828
H69	H	-0.272724	-0.257311	-0.197659
H70	H	-0.271190	-0.184285	-0.299834
H71	H	-0.385919	-0.911962	-0.913113
H72	H	-0.412535	-1.029062	-1.040241
O73	O	-0.366878	-0.406188	-0.580011
C74	C	-0.400245	-0.427227	-0.761762
C75	C	-0.352438	-0.388922	-0.686350
H76	H	-0.388597	-0.413270	-0.847753
H77	H	-0.389992	-0.486396	-0.745695
H78	H	-0.457580	-0.410335	-0.747658
H79	H	-0.295086	-0.405756	-0.700411
H80	H	-0.362751	-0.329760	-0.702435
O81	O	-0.698546	-1.073885	-0.354793
C82	C	-0.715705	-1.192698	-0.296885
C83	C	-0.677537	-1.144760	-0.372297
H84	H	-0.698745	-1.250011	-0.311025
H85	H	-0.701798	-1.181057	-0.210875
H86	H	-0.774877	-1.182509	-0.312976
H87	H	-0.618357	-1.154922	-0.356301
H88	H	-0.691502	-1.156411	-0.458281
O89	O	-0.266270	-0.875059	-1.046825
C90	C	-0.187839	-0.810046	-1.149501
C91	C	-0.204386	-0.882505	-1.103852
H92	H	-0.137797	-0.816039	-1.195599
H93	H	-0.233327	-0.786959	-1.205063
H94	H	-0.180121	-0.773487	-1.081561
H95	H	-0.212091	-0.919117	-1.171722
H96	H	-0.158890	-0.905535	-1.048261
O97	O	-1.036621	-0.925037	-0.589843
C98	C	-1.119907	-0.912022	-0.739799
C99	C	-1.077334	-0.963229	-0.658922
H100	H	-1.152823	-0.942881	-0.795684
H101	H	-1.155978	-0.873800	-0.695735
H102	H	-1.082393	-0.881473	-0.787901
H103	H	-1.114796	-0.993825	-0.610798
H104	H	-1.041254	-1.001405	-0.703049
H105	H	-0.394416	-0.597718	-0.623107
O106	O	-0.324485	-1.129977	-0.889298
C107	C	-0.289684	-1.254186	-0.874155
C108	C	-0.273112	-1.181677	-0.919568
H109	H	-0.248167	-1.296007	-0.898630
H110	H	-0.289585	-1.253687	-0.783665
H111	H	-0.343607	-1.266548	-0.906613
H112	H	-0.219187	-1.169270	-0.887192
H113	H	-0.273257	-1.182214	-1.010057
O114	O	-0.217826	-0.744078	-0.345152
C115	C	-0.119289	-0.831151	-0.319081
C116	C	-0.170612	-0.788627	-0.399851
H117	H	-0.081112	-0.867190	-0.363272
H118	H	-0.088704	-0.793666	-0.270985
H119	H	-0.150094	-0.864113	-0.263176
H120	H	-0.139861	-0.755661	-0.455824
H121	H	-0.201197	-0.826150	-0.447871
O122	O	-0.395519	-0.736612	-0.624762
C123	C	-0.430586	-0.848121	-0.680080
C124	C	-0.382750	-0.809773	-0.604771
H125	H	-0.420269	-0.907279	-0.663959
H126	H	-0.487939	-0.831276	-0.666019
H127	H	-0.418930	-0.834192	-0.766077
H128	H	-0.394344	-0.823682	-0.518746
H129	H	-0.325412	-0.826621	-0.618925
O130	O	-0.229674	-0.523782	-0.363389
C131	C	-0.216551	-0.607080	-0.213444
C132	C	-0.267813	-0.564516	-0.294254
H133	H	-0.247367	-0.640013	-0.157514
H134	H	-0.178343	-0.643133	-0.257563
H135	H	-0.185990	-0.569560	-0.165384
H136	H	-0.298422	-0.601984	-0.342338
H137	H	-0.305975	-0.528455	-0.250072
O138	O	-0.189329	-0.413863	-0.300097
C139	C	-0.144573	-0.528760	-0.229501
C140	C	-0.195870	-0.486205	-0.310271
H141	H	-0.149854	-0.587255	-0.237684
H142	H	-0.088452	-0.516811	-0.245503
H143	H	-0.157471	-0.513709	-0.145460
H144	H	-0.183036	-0.501232	-0.394343
H145	H	-0.251976	-0.498158	-0.294177
H146	H	-0.354149	-0.487772	-0.559661
O147	O	-0.553900	-1.079827	-0.344816
C148	C	-0.529992	-1.114970	-0.159995
C149	C	-0.572492	-1.063737	-0.240915
H150	H	-0.544997	-1.101970	-0.075972
H151	H	-0.541975	-1.171101	-0.175842
H152	H	-0.471494	-1.109739	-0.168269
H153	H	-0.631002	-1.068905	-0.232687
H154	H	-0.560449	-1.007626	-0.225044
O155	O	-1.028867	-1.102562	-0.309765
C156	C	-1.046190	-1.221325	-0.251798
C157	C	-1.007929	-1.173464	-0.327200
H158	H	-1.029287	-1.278659	-0.265884
H159	H	-1.032304	-1.209671	-0.165787
H160	H	-1.105350	-1.211071	-0.267954
H161	H	-0.948761	-1.183691	-0.311140
H162	H	-1.021873	-1.185128	-0.413187
H163	H	-0.204940	-1.093047	-1.022443
H164	H	-0.890167	-1.101265	-0.311483
O165	O	-0.891796	-0.930994	-0.580038
C166	C	-0.903376	-0.841364	-0.721489
C167	C	-0.941635	-0.889227	-0.646086
H168	H	-0.943654	-0.807594	-0.774923
H169	H	-0.870623	-0.805999	-0.672763
H170	H	-0.867519	-0.875108	-0.772654
H171	H	-0.977528	-0.855538	-0.594905
H172	H	-0.974344	-0.924596	-0.694875
O173	O	-0.167935	-0.973515	-0.889115
C174	C	-0.043677	-1.008106	-0.874342
C175	C	-0.116153	-1.024608	-0.919970
H176	H	-0.001794	-1.049414	-0.899252
H177	H	-0.031369	-0.953995	-0.906089
H178	H	-0.044223	-1.008717	-0.783830
H179	H	-0.115661	-1.024036	-1.010481
H180	H	-0.128432	-1.078709	-0.888141
H181	H	-0.700198	-0.903548	-0.623270
H182	H	-0.566881	-0.909185	-0.614260
O183	O	-0.774138	-1.068197	-0.363304
C184	C	-0.690792	-1.081211	-0.213422
C185	C	-0.733337	-1.030011	-0.294341
H186	H	-0.657783	-1.050359	-0.157659
H187	H	-0.728263	-1.111735	-0.165194
H188	H	-0.654795	-1.119455	-0.257566
H189	H	-0.769337	-0.991724	-0.250283
H190	H	-0.695827	-0.999538	-0.342566
