data_functionalizedCrystal
_audit_creation_method	'MofGen! by Chris Wilmer'
_symmetry_space_group_name_H-M	'P1'
_symmetry_Int_Tables_number	1
_symmetry_cell_setting	triclinic
loop_
_symmetry_equiv_pos_as_xyz
  x,y,z
_cell_length_a	23.532361
_cell_length_b	22.010155
_cell_length_c	14.971486
_cell_angle_alpha	90.004049
_cell_angle_beta	96.778102
_cell_angle_gamma	90.004127
loop_
_atom_site_label
_atom_site_type_symbol
_atom_site_fract_x
_atom_site_fract_y
_atom_site_fract_z
O1	O	0.755745	0.050465	-0.108368
O2	O	0.589945	0.050479	-0.124122
O3	O	0.677289	0.050467	0.014004
O4	O	0.668401	0.050477	-0.246493
O5	O	0.677273	-0.050583	0.013983
O6	O	0.589930	-0.050571	-0.124142
O7	O	0.755729	-0.050586	-0.108388
Cu8	Cu	0.672828	-0.059805	-0.116267
Cu9	Cu	0.672847	0.059699	-0.116243
O10	O	0.668386	-0.050574	-0.246514
C11	C	0.568719	-0.000044	-0.123737
C12	C	0.505496	-0.000039	-0.122551
N13	N	0.672819	-0.143858	-0.116284
C14	C	0.232238	0.055040	-0.117352
C15	C	0.291643	0.055042	-0.118475
O16	O	0.322379	0.101886	-0.119015
N17	N	0.321342	-0.000041	-0.119053
C18	C	0.291635	-0.055129	-0.118500
O19	O	0.322351	-0.101981	-0.119094
C20	C	0.232232	-0.055130	-0.117370
C21	C	0.202535	-0.000044	-0.116801
C22	C	0.202541	0.110122	-0.116781
C23	C	0.143141	0.110120	-0.115660
C24	C	0.113437	0.055037	-0.115110
C25	C	0.143134	-0.000045	-0.115680
C26	C	0.202526	-0.110217	-0.116810
C27	C	0.143119	-0.110213	-0.115680
C28	C	0.113422	-0.055127	-0.115111
C29	C	0.054030	-0.055131	-0.114008
N30	N	0.024331	-0.000048	-0.113430
C31	C	0.054034	0.055036	-0.113980
C32	C	0.416385	-0.055123	-0.120869
C33	C	0.475787	-0.055123	-0.122005
C34	C	0.475791	0.055048	-0.121978
C35	C	0.416388	0.055047	-0.120849
C36	C	0.386686	-0.000040	-0.120291
C37	C	-0.070711	0.055028	-0.111627
C38	C	-0.130118	0.055021	-0.110509
C39	C	-0.130116	-0.055149	-0.110532
C40	C	-0.070715	-0.055143	-0.111654
C41	C	-0.041014	-0.000050	-0.112198
O42	O	0.023257	-0.101951	-0.113464
O43	O	0.023311	0.101880	-0.113374
C44	C	0.711525	-0.563642	-0.055090
C45	C	0.711527	-0.627250	-0.055083
O46	O	0.744414	-0.660146	-0.003065
N47	N	0.672846	-0.659065	-0.116224
C48	C	0.634156	-0.627269	-0.177369
O49	O	0.601255	-0.660170	-0.229373
C50	C	0.634151	-0.563662	-0.177370
C51	C	0.672839	-0.531851	-0.116231
C52	C	0.750209	-0.531831	0.006045
C53	C	0.750207	-0.468228	0.006037
C54	C	0.711521	-0.436436	-0.055105
C55	C	0.672837	-0.468247	-0.116239
C56	C	0.595459	-0.531867	-0.238510
C57	C	0.595457	-0.468256	-0.238505
C58	C	0.634145	-0.436445	-0.177367
C59	C	0.634149	-0.372853	-0.177388
N60	N	0.672830	-0.341038	-0.116248
C61	C	0.711516	-0.372829	-0.055106
C62	C	0.634169	-0.760846	-0.177361
C63	C	0.634176	-0.824452	-0.177364
C64	C	0.711547	-0.824429	-0.055078
C65	C	0.711542	-0.760822	-0.055079
C66	C	0.672850	-0.729032	-0.116220
C67	C	0.711509	-0.239258	-0.055127
C68	C	0.711505	-0.175649	-0.055142
C69	C	0.634133	-0.175678	-0.177425
C70	C	0.634138	-0.239281	-0.177413
C71	C	0.672828	-0.271070	-0.116257
O72	O	0.601278	-0.339916	-0.229377
O73	O	0.744407	-0.339920	-0.003103
C74	C	0.776955	-0.000061	-0.108772
C75	C	0.840179	-0.000063	-0.109959
C76	C	0.676884	-0.000058	0.047314
C77	C	0.675693	-0.000057	0.146598
N78	N	0.672860	0.143751	-0.116219
C79	C	0.668791	-0.000047	-0.279824
C80	C	0.669982	-0.000044	-0.379108
C81	C	0.727005	-0.000062	0.204379
C82	C	0.725882	-0.000056	0.297666
C83	C	0.673447	-0.000049	0.333171
C84	C	0.622131	-0.000042	0.275382
C85	C	0.623254	-0.000044	0.182097
C86	C	0.619793	-0.000040	0.469820
C87	C	0.618670	-0.000039	0.563111
C88	C	0.722421	-0.000052	0.585389
C89	C	0.723545	-0.000053	0.492103
C90	C	0.672228	-0.000048	0.434321
H91	H	-0.154295	0.099881	-0.110049
Cl92	Cl	0.546811	-0.428296	-0.315372
H93	H	0.581470	-0.000040	0.135052
Cl94	Cl	0.513111	-0.124377	-0.122739
H95	H	-0.046536	0.099890	-0.112072
H96	H	-0.046536	-0.099999	-0.112135
H97	H	0.743011	-0.149750	-0.005356
H98	H	0.743013	-0.265133	-0.005326
Cl99	Cl	0.585507	-0.279271	-0.254285
H100	H	0.118967	0.154977	-0.115193
H101	H	-0.154312	-0.099997	-0.110087
H102	H	0.781711	-0.557710	0.055838
H103	H	0.781708	-0.442330	0.055824
H104	H	0.743044	-0.734925	-0.005294
Cl105	Cl	0.239845	-0.179473	-0.117525
H106	H	0.392205	-0.099985	-0.120427
H107	H	0.118938	-0.155073	-0.115234
H108	H	0.579437	-0.000033	0.304297
Cl109	Cl	0.239872	0.179380	-0.117473
Cl110	Cl	0.760179	-0.864408	0.021788
H111	H	0.392212	0.099903	-0.120386
H112	H	0.499986	0.099900	-0.122426
Cl113	Cl	0.790392	-0.000064	0.370302
Cl114	Cl	0.585546	-0.864436	-0.254239
Cl115	Cl	0.789464	-0.000059	0.447470
H116	H	0.764205	-0.000054	0.632440
H117	H	0.602663	-0.734966	-0.227156
H118	H	0.563956	-0.557759	-0.288294
H119	H	0.602636	-0.149783	-0.227209
H120	H	0.575973	-0.000043	0.592016
Cl121	Cl	0.555280	-0.000032	0.397181
Cl122	Cl	0.792927	-0.000077	0.159754
