data_functionalizedCrystal
_audit_creation_method	'MofGen! by Chris Wilmer'
_symmetry_space_group_name_H-M	'P1'
_symmetry_Int_Tables_number	1
_symmetry_cell_setting	triclinic
loop_
_symmetry_equiv_pos_as_xyz
  x,y,z
_cell_length_a	29.839134
_cell_length_b	25.639239
_cell_length_c	25.639233
_cell_angle_alpha	90.018747
_cell_angle_beta	89.976874
_cell_angle_gamma	89.966453
loop_
_atom_site_label
_atom_site_type_symbol
_atom_site_fract_x
_atom_site_fract_y
_atom_site_fract_z
Zn1	Zn	0.686733	0.208286	-0.295756
Zn2	Zn	1.020067	0.541619	0.037578
Zn3	Zn	1.353400	0.874953	0.370911
Zn4	Zn	0.686667	0.295705	-0.208320
Zn5	Zn	1.020001	0.629038	0.125013
Zn6	Zn	1.353334	0.962372	0.458347
Zn7	Zn	0.611615	0.208277	-0.208318
Zn8	Zn	0.944948	0.541611	0.125015
Zn9	Zn	1.278281	0.874944	0.458348
Zn10	Zn	0.611567	0.295684	-0.295708
Zn11	Zn	0.944901	0.629018	0.037625
Zn12	Zn	1.278234	0.962351	0.370958
O13	O	0.649146	0.251988	-0.252026
O14	O	0.982479	0.585322	0.081308
O15	O	1.315812	0.918655	0.414641
O16	O	0.749592	0.219895	-0.284178
O17	O	1.082925	0.553228	0.049156
O18	O	1.416258	0.886561	0.382489
O19	O	0.676704	0.284112	-0.135155
O20	O	1.010037	0.617446	0.198179
O21	O	1.343370	0.950779	0.531512
O22	O	0.621626	0.135113	-0.219936
O23	O	0.954960	0.468447	0.113397
O24	O	1.288293	0.801780	0.446731
O25	O	0.749543	0.284121	-0.219939
O26	O	1.082877	0.617454	0.113394
O27	O	1.416210	0.950787	0.446728
O28	O	0.676816	0.135120	-0.284176
O29	O	1.010149	0.468453	0.049157
O30	O	1.343482	0.801786	0.382491
O31	O	0.621563	0.219880	-0.135153
O32	O	0.954896	0.553213	0.198180
O33	O	1.288229	0.886546	0.531513
O34	O	0.548741	0.219860	-0.219890
O35	O	0.882074	0.553193	0.113443
O36	O	1.215408	0.886527	0.446776
O37	O	0.621546	0.284086	-0.368880
O38	O	0.954879	0.617419	-0.035547
O39	O	1.288213	0.950753	0.297787
O40	O	0.548706	0.284078	-0.284095
O41	O	0.882040	0.617411	0.049238
O42	O	1.215373	0.950744	0.382571
O43	O	0.676770	0.219875	-0.368915
O44	O	1.010103	0.553208	-0.035581
O45	O	1.343437	0.886541	0.297752
O46	O	0.676658	0.368867	-0.219893
O47	O	1.009991	0.702201	0.113440
O48	O	1.343325	1.035534	0.446773
O49	O	0.621482	0.368852	-0.284097
O50	O	0.954816	0.702186	0.049236
O51	O	1.288149	1.035519	0.382570
C52	C	0.532423	0.251966	-0.251988
C53	C	0.865756	0.585299	0.081345
C54	C	1.199090	0.918633	0.414679
C55	C	0.482489	0.251969	-0.251984
C56	C	0.815822	0.585302	0.081349
C57	C	1.149155	0.918636	0.414683
C58	C	0.649070	0.387831	-0.252002
C59	C	0.982403	0.721164	0.081332
C60	C	1.315737	1.054497	0.414665
C61	C	0.649079	0.445945	-0.252009
C62	C	0.982412	0.779278	0.081324
C63	C	1.315746	1.112611	0.414658
C64	C	0.649160	0.251979	-0.388399
C65	C	0.982493	0.585312	-0.055065
C66	C	1.315827	0.918646	0.278268
C67	C	0.649166	0.251975	-0.446513
C68	C	0.982500	0.585308	-0.113179
C69	C	1.315833	0.918642	0.220154
C70	C	0.172837	0.285476	-0.285416
C71	C	0.506170	0.618809	0.047917
C72	C	0.839503	0.952142	0.381250
C73	C	-0.014836	0.285490	-0.285439
C74	C	0.318497	0.618824	0.047894
C75	C	0.651830	0.952157	0.381227
O76	O	-0.039108	0.313954	-0.313842
O77	O	0.294225	0.647288	0.019491
O78	O	0.627558	0.980621	0.352824
N79	N	-0.038296	0.252007	-0.252065
N80	N	0.295037	0.585341	0.081268
N81	N	0.628370	0.918674	0.414602
C82	C	-0.014835	0.218516	-0.218685
C83	C	0.318498	0.551849	0.114649
C84	C	0.651831	0.885182	0.447982
O85	O	-0.039096	0.190033	-0.190302
O86	O	0.294237	0.523366	0.143031
O87	O	0.627571	0.856700	0.476365
C88	C	0.172837	0.218499	-0.218664
C89	C	0.506170	0.551832	0.114669
C90	C	0.839504	0.885165	0.448002
C91	C	0.196294	0.251988	-0.252037
C92	C	0.529628	0.585321	0.081296
C93	C	0.862961	0.918655	0.414629
C94	C	0.196294	0.318962	-0.318787
C95	C	0.529628	0.652295	0.014546
C96	C	0.862961	0.985628	0.347880
C97	C	0.243210	0.318960	-0.318779
C98	C	0.576543	0.652293	0.014555
C99	C	0.909876	0.985626	0.347888
C100	C	0.266668	0.285472	-0.285400
C101	C	0.600001	0.618805	0.047933
C102	C	0.933334	0.952138	0.381267
C103	C	0.243210	0.251986	-0.252029
C104	C	0.576543	0.585319	0.081304
C105	C	0.909877	0.918652	0.414637
C106	C	0.196297	0.185005	-0.185287
C107	C	0.529630	0.518338	0.148046
C108	C	0.862964	0.851672	0.481380
C109	C	0.243218	0.185003	-0.185286
C110	C	0.576551	0.518336	0.148047
C111	C	0.909885	0.851669	0.481381
C112	C	0.266676	0.218492	-0.218659
C113	C	0.600009	0.551825	0.114674
C114	C	0.933342	0.885158	0.448008
C115	C	0.313583	0.218496	-0.218642
C116	C	0.646916	0.551829	0.114691
C117	C	0.980250	0.885163	0.448024
N118	N	0.337043	0.251979	-0.252017
N119	N	0.670377	0.585312	0.081317
N120	N	1.003710	0.918646	0.414650
C121	C	0.313585	0.285467	-0.285396
C122	C	0.646919	0.618800	0.047938
C123	C	0.980252	0.952134	0.381271
C124	C	-0.113366	0.218528	-0.218697
C125	C	0.219967	0.551861	0.114636
C126	C	0.553301	0.885194	0.447970
C127	C	-0.160284	0.218533	-0.218701
C128	C	0.173049	0.551866	0.114632
C129	C	0.506383	0.885199	0.447966
C130	C	-0.160282	0.285507	-0.285457
C131	C	0.173052	0.618840	0.047877
C132	C	0.506385	0.952173	0.381210
C133	C	-0.113363	0.285504	-0.285450
C134	C	0.219970	0.618838	0.047884
C135	C	0.553304	0.952171	0.381217
C136	C	-0.089906	0.252011	-0.252071
C137	C	0.243427	0.585344	0.081262
C138	C	0.576761	0.918678	0.414595
C139	C	0.412111	0.285460	-0.285376
C140	C	0.745445	0.618794	0.047958
C141	C	1.078778	0.952127	0.381291
C142	C	0.459031	0.285457	-0.285363
C143	C	0.792364	0.618790	0.047970
C144	C	1.125698	0.952124	0.381304
C145	C	0.459025	0.218481	-0.218609
C146	C	0.792358	0.551815	0.114724
C147	C	1.125691	0.885148	0.448057
C148	C	0.412109	0.218486	-0.218620
C149	C	0.745442	0.551820	0.114713
C150	C	1.078776	0.885153	0.448047
C151	C	0.388654	0.251978	-0.252007
C152	C	0.721987	0.585311	0.081326
C153	C	1.055320	0.918644	0.414659
O154	O	0.337884	0.190043	-0.190258
O155	O	0.671218	0.523376	0.143075
O156	O	1.004551	0.856709	0.476408
O157	O	0.337854	0.313937	-0.313782
O158	O	0.671187	0.647271	0.019551
O159	O	1.004521	0.980604	0.352884
C160	C	0.125921	0.285478	-0.285424
C161	C	0.459255	0.618811	0.047909
C162	C	0.792588	0.952144	0.381242
C163	C	0.102464	0.251992	-0.252054
C164	C	0.435797	0.585325	0.081280
C165	C	0.769130	0.918659	0.414613
C166	C	0.125921	0.218504	-0.218675
C167	C	0.459255	0.551837	0.114658
C168	C	0.792588	0.885171	0.447992
C169	C	0.055546	0.251997	-0.252058
C170	C	0.388879	0.585330	0.081275
C171	C	0.722212	0.918663	0.414609
C172	C	0.032088	0.285485	-0.285437
C173	C	0.365421	0.618818	0.047897
C174	C	0.698755	0.952151	0.381230
C175	C	0.055548	0.318968	-0.318811
C176	C	0.388881	0.652301	0.014522
C177	C	0.722215	0.985634	0.347855
C178	C	0.102463	0.318966	-0.318803
C179	C	0.435797	0.652299	0.014530
C180	C	0.769130	0.985632	0.347863
C181	C	0.102461	0.185021	-0.185300
C182	C	0.435795	0.518354	0.148033
C183	C	0.769128	0.851688	0.481366
C184	C	0.055546	0.185026	-0.185311
C185	C	0.388879	0.518359	0.148023
C186	C	0.722212	0.851693	0.481356
C187	C	0.032088	0.218514	-0.218690
C188	C	0.365421	0.551847	0.114644
C189	C	0.698755	0.885181	0.447977
C190	C	0.766324	0.252011	-0.252064
C191	C	1.099657	0.585344	0.081270
C192	C	1.432991	0.918678	0.414603
C193	C	0.816258	0.252021	-0.252080
C194	C	1.149592	0.585354	0.081253
C195	C	1.482925	0.918687	0.414587
C196	C	0.649234	0.115615	-0.252061
C197	C	0.982567	0.448948	0.081272
C198	C	1.315900	0.782282	0.414606
C199	C	0.649271	0.057501	-0.252076
C200	C	0.982605	0.390834	0.081257
C201	C	1.315938	0.724168	0.414590
C202	C	0.677951	0.806303	-0.218652
C203	C	1.011284	1.139636	0.114682
C204	C	1.344617	1.472970	0.448015
C205	C	0.677968	0.860907	-0.218659
C206	C	1.011301	1.194241	0.114675
C207	C	1.344635	1.527574	0.448008
O208	O	0.702437	0.889140	-0.190271
O209	O	1.035771	1.222473	0.143063
O210	O	1.369104	1.555807	0.476396
N211	N	0.649225	0.888227	-0.252060
N212	N	0.982558	1.221561	0.081273
N213	N	1.315891	1.554894	0.414606
C214	C	0.620465	0.860940	-0.285461
C215	C	0.953798	1.194273	0.047873
C216	C	1.287132	1.527607	0.381206
O217	O	0.596018	0.889192	-0.313872
O218	O	0.929352	1.222525	0.019461
O219	O	1.262685	1.555858	0.352794
C220	C	0.620450	0.806337	-0.285456
C221	C	0.953784	1.139670	0.047877
C222	C	1.287117	1.473003	0.381211
C223	C	0.649192	0.779020	-0.252048
C224	C	0.982526	1.112353	0.081285
C225	C	1.315859	1.445686	0.414618
C226	C	0.706691	0.778986	-0.185247
C227	C	1.040024	1.112319	0.148086
C228	C	1.373357	1.445653	0.481420
C229	C	0.706673	0.724385	-0.185240
C230	C	1.040006	1.057719	0.148094
C231	C	1.373339	1.391052	0.481427
C232	C	0.677914	0.697102	-0.218636
C233	C	1.011248	1.030435	0.114697
C234	C	1.344581	1.363769	0.448030
C235	C	0.649174	0.724419	-0.252041
C236	C	0.982508	1.057752	0.081292
C237	C	1.315841	1.391086	0.414626
C238	C	0.591693	0.779050	-0.318859
C239	C	0.925027	1.112384	0.014474
C240	C	1.258360	1.445717	0.347808
C241	C	0.591681	0.724443	-0.318852
C242	C	0.925015	1.057777	0.014482
C243	C	1.258348	1.391110	0.347815
C244	C	0.620423	0.697126	-0.285444
C245	C	0.953757	1.030460	0.047889
C246	C	1.287090	1.363793	0.381223
C247	C	0.620398	0.642535	-0.285430
C248	C	0.953731	0.975868	0.047903
C249	C	1.287065	1.309202	0.381236
N250	N	0.649141	0.615215	-0.252029
N251	N	0.982475	0.948549	0.081305
N252	N	1.315808	1.281882	0.414638
C253	C	0.677900	0.642499	-0.218632
C254	C	1.011233	0.975832	0.114702
C255	C	1.344566	1.309165	0.448035
C256	C	0.620499	0.975611	-0.285469
C257	C	0.953832	1.308944	0.047864
C258	C	1.287166	1.642277	0.381198
C259	C	0.620511	1.030213	-0.285471
C260	C	0.953844	1.363546	0.047862
C261	C	1.287178	1.696880	0.381195
C262	C	0.678015	1.030177	-0.218670
C263	C	1.011348	1.363510	0.114664
C264	C	1.344681	1.696843	0.447997
C265	C	0.678000	0.975573	-0.218665
C266	C	1.011333	1.308907	0.114668
C267	C	1.344667	1.642240	0.448002
C268	C	0.649242	0.948291	-0.252067
C269	C	0.982576	1.281624	0.081266
C270	C	1.315909	1.614957	0.414599
C271	C	0.677859	0.527834	-0.218618
C272	C	1.011192	0.861167	0.114715
C273	C	1.344526	1.194500	0.448049
C274	C	0.677837	0.473228	-0.218612
C275	C	1.011170	0.806562	0.114721
C276	C	1.344504	1.139895	0.448055
C277	C	0.620335	0.473269	-0.285415
C278	C	0.953669	0.806603	0.047918
C279	C	1.287002	1.139936	0.381251
C280	C	0.620355	0.527870	-0.285420
C281	C	0.953689	0.861203	0.047914
C282	C	1.287022	1.194537	0.381247
C283	C	0.649121	0.555151	-0.252019
C284	C	0.982454	0.888484	0.081314
C285	C	1.315788	1.221817	0.414647
O286	O	0.595942	0.614268	-0.313805
O287	O	0.929276	0.947601	0.019528
O288	O	1.262609	1.280934	0.352862
O289	O	0.702346	0.614240	-0.190230
O290	O	1.035680	0.947574	0.143104
O291	O	1.369013	1.280907	0.476437
C292	C	0.677958	0.218441	-0.806900
C293	C	1.011291	0.551774	-0.473566
C294	C	1.344625	0.885108	-0.140233
C295	C	0.677963	0.218427	-0.861504
C296	C	1.011297	0.551760	-0.528171
C297	C	1.344630	0.885093	-0.194837
O298	O	0.702407	0.189976	-0.889761
O299	O	1.035740	0.523310	-0.556428
O300	O	1.369074	0.856643	-0.223094
N301	N	0.649216	0.251853	-0.888795
N302	N	0.982549	0.585186	-0.555462
N303	N	1.315882	0.918519	-0.222129
C304	C	0.620458	0.285291	-0.861480
C305	C	0.953791	0.618625	-0.528146
C306	C	1.287124	0.951958	-0.194813
O307	O	0.596006	0.313721	-0.889707
O308	O	0.929339	0.647055	-0.556374
O309	O	1.262672	0.980388	-0.223040
C310	C	0.620450	0.285303	-0.806876
C311	C	0.953783	0.618636	-0.473543
C312	C	1.287117	0.951970	-0.140210
C313	C	0.649203	0.251878	-0.779588
C314	C	0.982536	0.585212	-0.446254
C315	C	1.315869	0.918545	-0.112921
C316	C	0.706708	0.185019	-0.779611
C317	C	1.040041	0.518352	-0.446278
C318	C	1.373375	0.851686	-0.112944
C319	C	0.706703	0.185034	-0.725010
C320	C	1.040036	0.518367	-0.391677
C321	C	1.373370	0.851701	-0.058344
C322	C	0.677948	0.218472	-0.697698
C323	C	1.011281	0.551805	-0.364365
C324	C	1.344614	0.885138	-0.031032
C325	C	0.649198	0.251894	-0.724987
C326	C	0.982531	0.585227	-0.391654
C327	C	1.315864	0.918560	-0.058320
C328	C	0.591690	0.318739	-0.779562
C329	C	0.925023	0.652072	-0.446228
C330	C	1.258357	0.985405	-0.112895
C331	C	0.591685	0.318747	-0.724954
C332	C	0.925018	0.652080	-0.391621
C333	C	1.258351	0.985414	-0.058288
C334	C	0.620437	0.285323	-0.697666
C335	C	0.953771	0.618656	-0.364333
C336	C	1.287104	0.951989	-0.030999
C337	C	0.620438	0.285346	-0.643075
C338	C	0.953771	0.618680	-0.309741
C339	C	1.287104	0.952013	0.023592
N340	N	0.649185	0.251920	-0.615783
N341	N	0.982519	0.585254	-0.282450
N342	N	1.315852	0.918587	0.050883
C343	C	0.677940	0.218483	-0.643095
C344	C	1.011274	0.551816	-0.309762
C345	C	1.344607	0.885150	0.023572
C346	C	0.620475	0.285264	-0.976150
C347	C	0.953808	0.618598	-0.642817
C348	C	1.287142	0.951931	-0.309484
C349	C	0.620484	0.285256	-1.030753
C350	C	0.953818	0.618589	-0.697419
C351	C	1.287151	0.951923	-0.364086
C352	C	0.677990	0.218390	-1.030773
C353	C	1.011323	0.551723	-0.697440
C354	C	1.344656	0.885057	-0.364107
C355	C	0.677982	0.218402	-0.976170
C356	C	1.011316	0.551735	-0.642837
C357	C	1.344649	0.885068	-0.309503
C358	C	0.649223	0.251838	-0.948859
C359	C	0.982556	0.585172	-0.615526
C360	C	1.315889	0.918505	-0.282192
C361	C	0.677928	0.218518	-0.528430
C362	C	1.011261	0.551851	-0.195097
C363	C	1.344594	0.885185	0.138237
C364	C	0.677921	0.218538	-0.473825
C365	C	1.011255	0.551871	-0.140491
C366	C	1.344588	0.885204	0.192842
C367	C	0.620415	0.285401	-0.473809
C368	C	0.953748	0.618735	-0.140475
C369	C	1.287081	0.952068	0.192858
C370	C	0.620422	0.285384	-0.528409
C371	C	0.953756	0.618717	-0.195076
C372	C	1.287089	0.952050	0.138257
C373	C	0.649180	0.251938	-0.555719
C374	C	0.982514	0.585271	-0.222385
C375	C	1.315847	0.918604	0.110948
O376	O	0.596005	0.313781	-0.614783
O377	O	0.929339	0.647114	-0.281450
O378	O	1.262672	0.980447	0.051884
O379	O	0.702384	0.190053	-0.614861
O380	O	1.035717	0.523386	-0.281528
O381	O	1.369051	0.856720	0.051806
C382	C	0.649157	0.251960	-0.116183
C383	C	0.982490	0.585293	0.217150
C384	C	1.315824	0.918626	0.550484
C385	C	0.649238	0.251816	-0.058069
C386	C	0.982571	0.585150	0.275264
C387	C	1.315905	0.918483	0.608597
H388	H	0.393019	0.312731	-0.312564
H389	H	0.726353	0.646064	0.020769
H390	H	1.059686	0.979398	0.354103
H391	H	0.262305	0.346229	-0.345956
H392	H	0.595638	0.679562	-0.012622
H393	H	0.928972	1.012895	0.320711
H394	H	0.568260	0.345970	-0.702721
H395	H	0.901593	0.679304	-0.369387
H396	H	1.234926	1.012637	-0.036054
H397	H	0.701337	0.191319	-0.451609
H398	H	1.034670	0.524652	-0.118275
H399	H	1.368004	0.857986	0.215058
H400	H	0.597102	1.052450	-0.312670
H401	H	0.930436	1.385783	0.020663
H402	H	1.263769	1.719116	0.353996
H403	H	0.701242	0.450988	-0.191406
H404	H	1.034576	0.784322	0.141928
H405	H	1.367909	1.117655	0.475261
H406	H	-0.094267	0.312773	-0.312626
H407	H	0.239067	0.646106	0.020708
H408	H	0.572400	0.979440	0.354041
O409	O	0.589457	0.321332	-0.946691
O410	O	0.922791	0.654665	-0.613357
O411	O	1.256124	0.987999	-0.280024
H412	H	0.566611	0.297928	-0.921815
H413	H	0.899944	0.631262	-0.588481
H414	H	1.233278	0.964595	-0.255148
H415	H	-0.094272	0.191253	-0.191514
H416	H	0.239062	0.524586	0.141819
H417	H	0.572395	0.857920	0.475153
O418	O	0.737714	0.808410	-0.149228
O419	O	1.071047	1.141744	0.184106
O420	O	1.404381	1.475077	0.517439
H421	H	0.717632	0.833323	-0.122604
H422	H	1.050966	1.166657	0.210730
H423	H	1.384299	1.499990	0.544063
H424	H	0.177206	0.157736	-0.158110
H425	H	0.510539	0.491069	0.175224
H426	H	0.843873	0.824403	0.508557
O427	O	0.560694	0.808506	-0.354893
O428	O	0.894027	1.141840	-0.021560
O429	O	1.227361	1.475173	0.311774
H430	H	0.568380	0.797997	-0.395934
H431	H	0.901713	1.131331	-0.062600
H432	H	1.235046	1.464664	0.270733
H433	H	0.701395	0.191183	-0.953955
H434	H	1.034728	0.524517	-0.620622
H435	H	1.368061	0.857850	-0.287288
O436	O	0.737680	0.694930	-0.149212
O437	O	1.071014	1.028263	0.184122
O438	O	1.404347	1.361596	0.517455
H439	H	0.717588	0.670088	-0.122574
H440	H	1.050921	1.003421	0.210759
H441	H	1.384255	1.336754	0.544093
H442	H	0.393009	0.191218	-0.191444
H443	H	0.726342	0.524551	0.141889
H444	H	1.059676	0.857885	0.475223
H445	H	0.262314	0.157725	-0.158108
H446	H	0.595648	0.491058	0.175225
H447	H	0.928981	0.824391	0.508559
O448	O	0.709009	0.946111	-0.182644
O449	O	1.042342	1.279444	0.150689
O450	O	1.375676	1.612778	0.484023
H451	H	0.688918	0.921264	-0.156010
H452	H	1.022251	1.254597	0.177324
H453	H	1.355585	1.587930	0.510657
H454	H	0.701433	1.052401	-0.191478
H455	H	1.034766	1.385734	0.141855
H456	H	1.368100	1.719067	0.475189
O457	O	0.589476	0.946184	-0.321492
O458	O	0.922809	1.279517	0.011842
O459	O	1.256142	1.612850	0.345175
H460	H	0.566629	0.921339	-0.298057
H461	H	0.899962	1.254672	0.035276
H462	H	1.233296	1.588005	0.368610
O463	O	0.589348	0.557331	-0.321447
O464	O	0.922681	0.890664	0.011886
O465	O	1.256015	1.223997	0.345219
H466	H	0.566511	0.582241	-0.298020
H467	H	0.899844	0.915575	0.035313
H468	H	1.233178	1.248908	0.368646
H469	H	0.568264	0.702233	-0.346053
H470	H	0.901597	1.035566	-0.012720
H471	H	1.234931	1.368899	0.320613
H472	H	0.597076	0.312479	-1.052966
H473	H	0.930409	0.645812	-0.719633
H474	H	1.263742	0.979146	-0.386300
H475	H	0.596919	0.451047	-0.312605
H476	H	0.930253	0.784380	0.020728
H477	H	1.263586	1.117713	0.354061
H478	H	0.701344	0.191281	-0.550659
H479	H	1.034677	0.524615	-0.217325
H480	H	1.368011	0.857948	0.116008
O481	O	0.708880	0.557255	-0.182590
O482	O	1.042213	0.890588	0.150743
O483	O	1.375547	1.223921	0.484076
H484	H	0.728856	0.529079	-0.159360
H485	H	1.062189	0.862412	0.173973
H486	H	1.395522	1.195745	0.507307
H487	H	0.730124	0.157787	-0.801843
H488	H	1.063457	0.491121	-0.468509
H489	H	1.396791	0.824454	-0.135176
H490	H	0.121558	0.346236	-0.345979
H491	H	0.454892	0.679569	-0.012646
H492	H	0.788225	1.012902	0.320687
O493	O	0.560672	0.354783	-0.808987
O494	O	0.894005	0.688116	-0.475654
O495	O	1.227339	1.021450	-0.142320
H496	H	0.540673	0.378025	-0.780813
H497	H	0.874006	0.711359	-0.447480
H498	H	1.207340	1.044692	-0.114147
O499	O	-0.185560	0.321651	-0.321460
O500	O	0.147773	0.654985	0.011873
O501	O	0.481106	0.988318	0.345206
H502	H	-0.206916	0.298315	-0.348124
H503	H	0.126417	0.631648	-0.014791
H504	H	0.459750	0.964981	0.318542
H505	H	0.597014	0.312605	-0.550629
H506	H	0.930347	0.645939	-0.217296
H507	H	1.263680	0.979272	0.116038
O508	O	0.737712	0.148981	-0.695580
O509	O	1.071046	0.482314	-0.362247
O510	O	1.404379	0.815648	-0.028913
H511	H	0.757703	0.125727	-0.723753
H512	H	1.091036	0.459061	-0.390419
H513	H	1.424370	0.792394	-0.057086
H514	H	0.701403	0.191162	-1.053020
H515	H	1.034736	0.524496	-0.719687
H516	H	1.368069	0.857829	-0.386354
H517	H	0.597004	0.312627	-0.451562
H518	H	0.930338	0.645960	-0.118228
H519	H	1.263671	0.979293	0.215105
H520	H	0.478128	0.312730	-0.312540
H521	H	0.811461	0.646063	0.020794
H522	H	1.144795	0.979396	0.354127
H523	H	0.177200	0.346232	-0.345971
H524	H	0.510533	0.679565	-0.012637
H525	H	0.843867	1.012898	0.320696
O526	O	0.484328	0.182362	-0.182608
O527	O	0.817661	0.515695	0.150725
O528	O	1.150995	0.849029	0.484059
H529	H	0.505723	0.155795	-0.206059
H530	H	0.839056	0.489128	0.127274
H531	H	1.172389	0.822462	0.460607
O532	O	-0.185586	0.182421	-0.182701
O533	O	0.147747	0.515754	0.150632
O534	O	0.481080	0.849087	0.483965
H535	H	-0.176563	0.141398	-0.191745
H536	H	0.156770	0.474731	0.141589
H537	H	0.490104	0.808065	0.474922
O538	O	0.030243	0.355086	-0.354817
O539	O	0.363577	0.688419	-0.021484
O540	O	0.696910	1.021752	0.311850
H541	H	-0.006321	0.349453	-0.349215
H542	H	0.327012	0.682787	-0.015881
H543	H	0.660345	1.016120	0.317452
O544	O	0.030244	0.148907	-0.149313
O545	O	0.363577	0.482240	0.184021
O546	O	0.696910	0.815574	0.517354
H547	H	0.039271	0.107886	-0.158359
H548	H	0.372604	0.441219	0.174975
H549	H	0.705938	0.774553	0.508308
O550	O	0.127760	0.148912	-0.149286
O551	O	0.461093	0.482245	0.184048
O552	O	0.794426	0.815578	0.517381
H553	H	0.103560	0.125638	-0.126077
H554	H	0.436894	0.458971	0.207257
H555	H	0.770227	0.792305	0.540590
