data_functionalizedCrystal
_audit_creation_method	'MofGen! by Chris Wilmer'
_symmetry_space_group_name_H-M	'P1'
_symmetry_Int_Tables_number	1
_symmetry_cell_setting	triclinic
loop_
_symmetry_equiv_pos_as_xyz
  x,y,z
_cell_length_a	12.811445
_cell_length_b	10.654541
_cell_length_c	11.295483
_cell_angle_alpha	94.135029
_cell_angle_beta	80.460739
_cell_angle_gamma	84.263786
loop_
_atom_site_label
_atom_site_type_symbol
_atom_site_fract_x
_atom_site_fract_y
_atom_site_fract_z
O1	O	1.411702	0.147813	-0.251463
O2	O	1.103900	0.169024	-0.218228
O3	O	1.264879	-0.024422	-0.235603
O4	O	1.250723	0.341259	-0.234089
O5	O	1.250739	-0.007457	-0.036026
O6	O	1.089760	0.185988	-0.018652
O7	O	1.397563	0.164778	-0.051887
Cu8	Cu	1.242371	0.176932	-0.017046
Cu9	Cu	1.259092	0.156869	-0.253069
O10	O	1.236584	0.358223	-0.034512
C11	C	1.057417	0.176836	-0.114184
C12	C	0.939979	0.174825	-0.101504
C13	C	0.734713	0.152572	-0.295277
C14	C	0.624370	0.150682	-0.283368
C15	C	0.608948	0.169164	-0.065777
C16	C	0.719291	0.171054	-0.077686
C17	C	0.782170	0.162756	-0.192440
C18	C	0.892516	0.164637	-0.204348
C19	C	0.877091	0.183127	0.013241
C20	C	0.766748	0.181237	0.025150
C21	C	1.256770	-0.062723	-0.135703
C22	C	1.253662	-0.202122	-0.135369
C23	C	1.446156	-0.232846	-0.156139
C24	C	1.540938	-0.313696	-0.166363
C25	C	1.538011	-0.444672	-0.166051
C26	C	1.440292	-0.494801	-0.155517
C27	C	1.345510	-0.413951	-0.145293
C28	C	1.348447	-0.282973	-0.145602
C29	C	1.153019	-0.383228	-0.124532
C30	C	1.155943	-0.252250	-0.124835
C31	C	1.055300	-0.433356	-0.113998
C32	C	0.960515	-0.352505	-0.103765
C33	C	0.963446	-0.221521	-0.104076
C34	C	1.061161	-0.171400	-0.114611
C35	C	1.444046	0.156965	-0.155933
C36	C	1.561484	0.158976	-0.168622
C37	C	1.244693	0.396524	-0.134415
C38	C	1.247801	0.535922	-0.134756
N39	N	1.230617	0.191042	0.148959
N40	N	1.270853	0.142749	-0.419075
C41	C	1.355459	0.041106	0.384774
C42	C	1.346585	0.051778	0.510395
C43	C	1.203990	0.223052	0.525826
C44	C	1.212864	0.212380	0.400204
C45	C	1.288602	0.121405	0.329682
C46	C	1.297481	0.110740	0.204058
C47	C	1.154882	0.282007	0.219491
C48	C	1.146007	0.292679	0.345113
H49	H	0.915741	0.191417	0.096978
N50	N	1.449310	-0.091578	-0.156454
H51	H	1.525592	-0.072089	-0.164674
H52	H	1.417428	-0.060365	-0.226433
N53	N	0.960342	0.155696	-0.328109
H54	H	1.014470	0.078236	-0.338769
H55	H	0.913457	0.149016	-0.391373
N56	N	0.573193	0.139687	-0.394290
H57	H	0.535760	0.060658	-0.395063
H58	H	0.519801	0.216379	-0.393274
N59	N	0.541122	0.178133	0.057986
H60	H	0.463850	0.177144	0.049950
H61	H	0.564077	0.103727	0.101940
N62	N	0.698926	0.190195	0.148914
H63	H	0.621656	0.189174	0.140882
H64	H	0.721903	0.115799	0.192869
H65	H	1.052924	-0.540006	-0.113752
N66	N	0.802533	0.143614	-0.419042
H67	H	0.840657	0.221815	-0.427975
H68	H	0.856599	0.066107	-0.429614
H69	H	1.620498	-0.272866	-0.174929
H70	H	1.615192	-0.510502	-0.174386
H71	H	1.437919	-0.601451	-0.155278
H72	H	1.142318	0.297113	0.583262
H73	H	0.880961	-0.393332	-0.095197
N74	N	0.861216	-0.134323	-0.093060
H75	H	0.798875	-0.185958	-0.086342
H76	H	0.852984	-0.073027	-0.018749
N77	N	1.418702	-0.034819	0.569818
H78	H	1.468029	-0.094063	0.506076
H79	H	1.462129	0.017542	0.616832
N80	N	1.064321	-0.030134	-0.114942
H81	H	1.140605	-0.010651	-0.123167
H82	H	1.032439	0.001068	-0.184925
N83	N	1.379170	0.012628	0.127990
H84	H	1.420174	-0.036624	0.181958
H85	H	1.341952	-0.047180	0.080295
N86	N	1.437153	-0.056996	0.308701
H87	H	1.478166	-0.106243	0.362664
H88	H	1.399941	-0.116810	0.261005
H89	H	1.084339	0.366746	0.402546
H90	H	1.100445	0.347395	0.174622
