data_functionalizedCrystal
_audit_creation_method	'MofGen! by Chris Wilmer'
_symmetry_space_group_name_H-M	'P1'
_symmetry_Int_Tables_number	1
_symmetry_cell_setting	triclinic
loop_
_symmetry_equiv_pos_as_xyz
  x,y,z
_cell_length_a	10.489711
_cell_length_b	10.489741
_cell_length_c	14.048226
_cell_angle_alpha	89.993872
_cell_angle_beta	89.992023
_cell_angle_gamma	84.533091
loop_
_atom_site_label
_atom_site_type_symbol
_atom_site_fract_x
_atom_site_fract_y
_atom_site_fract_z
O1	O	1.694079	0.179790	-0.079195
O2	O	2.194079	0.679790	0.420805
O3	O	1.322879	0.196722	-0.079189
O4	O	1.822879	0.696722	0.420811
O5	O	1.516925	0.002657	-0.079186
O6	O	2.016925	0.502657	0.420814
O7	O	1.500032	0.373855	-0.079197
O8	O	2.000032	0.873855	0.420803
O9	O	1.516902	0.002646	0.079135
O10	O	2.016902	0.502646	0.579135
O11	O	1.322855	0.196711	0.079133
O12	O	1.822855	0.696711	0.579133
O13	O	1.694055	0.179778	0.079127
O14	O	2.194055	0.679778	0.579127
Zn15	Zn	1.508451	0.188243	0.104267
Zn16	Zn	2.008451	0.688243	0.604267
Zn17	Zn	1.508483	0.188258	-0.104329
Zn18	Zn	2.008483	0.688258	0.395671
O19	O	1.500009	0.373843	0.079124
O20	O	2.000009	0.873843	0.579124
C21	C	1.275334	0.195446	-0.000027
C22	C	1.775334	0.695446	0.499973
C23	C	1.133703	0.191644	-0.000025
C24	C	1.633703	0.691644	0.499975
C25	C	0.951317	0.308348	-0.000040
C26	C	1.451317	0.808348	0.499960
C27	C	1.043474	0.250059	-0.078097
C28	C	1.543474	0.750059	0.421903
C29	C	1.043424	0.250016	0.077995
C30	C	1.543424	0.750016	0.577995
C31	C	0.973523	0.126516	-0.078167
C32	C	1.473523	0.626516	0.421833
C33	C	0.973463	0.126490	0.077995
C34	C	1.473463	0.626490	0.577995
C35	C	1.065593	0.068111	-0.000081
C36	C	1.565593	0.568111	0.499919
C37	C	1.515638	-0.044880	-0.000026
C38	C	2.015638	0.455120	0.499974
C39	C	1.511820	-0.186509	-0.000028
C40	C	2.011820	0.313491	0.499972
C41	C	1.388354	-0.254636	-0.000033
C42	C	1.888354	0.245364	0.499967
C43	C	1.446667	-0.346770	0.078027
C44	C	1.946667	0.153230	0.578027
C45	C	1.446719	-0.346733	-0.078065
C46	C	1.946719	0.153267	0.421935
C47	C	1.570184	-0.276778	0.078097
C48	C	2.070184	0.223222	0.578097
C49	C	1.570219	-0.276732	-0.078066
C50	C	2.070219	0.223268	0.421934
C51	C	1.628622	-0.368839	0.000013
C52	C	2.128622	0.131161	0.500013
C53	C	1.741600	0.181055	-0.000037
C54	C	2.241600	0.681055	0.499963
C55	C	1.883231	0.184857	-0.000045
C56	C	2.383231	0.684857	0.499955
C57	C	1.501296	0.421381	-0.000038
C58	C	2.001296	0.921381	0.499962
C59	C	1.505114	0.563010	-0.000043
C60	C	2.005114	1.063010	0.499957
N61	N	1.508439	0.188231	0.246627
N62	N	2.008439	0.688231	0.746627
N63	N	1.508505	0.188259	-0.246689
N64	N	2.008505	0.688259	0.253311
C65	C	1.594391	0.102335	0.296446
C66	C	2.094391	0.602335	0.796446
C67	C	1.594400	0.102335	0.396104
C68	C	2.094400	0.602335	0.896104
C69	C	1.508462	0.188237	0.445941
C70	C	2.008462	0.688237	0.945941
C71	C	1.422501	0.274137	0.396115
C72	C	1.922501	0.774137	0.896115
C73	C	1.422487	0.274131	0.296459
C74	C	1.922487	0.774131	0.796459
C75	C	1.422538	0.274147	0.603829
C76	C	1.922538	0.774147	1.103829
C77	C	1.422553	0.274155	0.703491
C78	C	1.922553	0.774155	1.203491
C79	C	1.594450	0.102351	0.703474
C80	C	2.094450	0.602351	1.203474
C81	C	1.594436	0.102344	0.603818
C82	C	2.094436	0.602344	1.103818
C83	C	1.508477	0.188246	0.553999
C84	C	2.008477	0.688246	1.053999
H85	H	0.901626	0.409850	-0.000120
H86	H	1.401626	0.909850	0.499880
H87	H	1.352523	0.344076	0.436697
H88	H	1.852523	0.844076	0.936697
H89	H	1.730226	-0.418274	0.000055
H90	H	2.230226	0.081726	0.500055
H91	H	1.074478	0.302319	-0.144089
H92	H	1.574478	0.802319	0.355911
H93	H	0.942724	0.074318	-0.144236
H94	H	1.442724	0.574318	0.355764
Cl95	Cl	1.141968	-0.088737	-0.000138
Cl96	Cl	1.641968	0.411263	0.499862
H97	H	1.286841	-0.204974	0.000047
H98	H	1.786841	0.295026	0.500047
H99	H	1.394472	-0.377687	-0.144065
H100	H	1.894472	0.122313	0.355935
Cl101	Cl	1.702440	-0.005657	0.233805
Cl102	Cl	2.202440	0.494343	0.733805
Cl103	Cl	1.314424	0.382115	0.233830
Cl104	Cl	1.814424	0.882115	0.733830
Cl105	Cl	0.925544	0.045875	0.179893
Cl106	Cl	1.425544	0.545875	0.679893
H107	H	1.664441	0.032407	0.744043
H108	H	2.164441	0.532407	1.244043
H109	H	1.394415	-0.377781	0.144022
H110	H	1.894415	0.122219	0.644022
Cl111	Cl	1.091207	0.330712	0.179881
Cl112	Cl	1.591207	0.830712	0.679881
Cl113	Cl	1.650759	-0.229201	0.180099
Cl114	Cl	2.150759	0.270799	0.680099
Cl115	Cl	1.650824	-0.228796	-0.179964
Cl116	Cl	2.150824	0.271204	0.320036
H117	H	1.664387	0.032391	0.436667
H118	H	2.164387	0.532391	0.936667
Cl119	Cl	1.314468	0.382138	0.541203
Cl120	Cl	1.814468	0.882138	1.041203
Cl121	Cl	1.702480	-0.005640	0.541165
Cl122	Cl	2.202480	0.494360	1.041165
H123	H	1.352572	0.344105	0.744063
H124	H	1.852572	0.844105	1.244063
