data_functionalizedCrystal
_audit_creation_method	'MofGen! by Chris Wilmer'
_symmetry_space_group_name_H-M	'P1'
_symmetry_Int_Tables_number	1
_symmetry_cell_setting	triclinic
loop_
_symmetry_equiv_pos_as_xyz
  x,y,z
_cell_length_a	20.875621
_cell_length_b	12.970454
_cell_length_c	12.970454
_cell_angle_alpha	59.999644
_cell_angle_beta	87.028566
_cell_angle_gamma	58.315290
loop_
_atom_site_label
_atom_site_type_symbol
_atom_site_fract_x
_atom_site_fract_y
_atom_site_fract_z
Zr1	Zr	0.617937	1.128526	-0.186865
O2	O	0.515514	1.343617	-0.342945
O3	O	0.649334	0.913435	-0.139018
O4	O	0.649334	1.128527	-0.354110
O5	O	0.515515	1.128524	0.041814
O6	O	0.754893	1.128527	-0.362917
O7	O	0.515515	1.128525	-0.127853
O8	O	0.754894	0.743767	0.021843
O9	O	0.515514	1.513284	-0.342946
O10	O	0.741503	1.001905	-0.125185
O11	O	0.662726	1.001904	0.008009
O12	O	0.662725	1.255147	-0.245234
O13	O	0.583948	1.255146	-0.112041
Zr14	Zr	0.786292	1.128525	0.069687
Zr15	Zr	0.786291	1.128527	-0.200913
Zr16	Zr	0.617937	1.128524	0.083734
Zr17	Zr	0.617937	1.399126	-0.186867
Zr18	Zr	0.786292	0.857925	0.069689
O19	O	0.754894	1.343616	0.021840
O20	O	0.754893	1.343618	-0.362919
O21	O	0.515515	1.343615	0.041813
O22	O	0.888714	0.913434	0.225767
O23	O	0.888713	0.913436	-0.158991
O24	O	0.649335	0.913433	0.245740
O25	O	0.888713	1.128527	-0.158992
O26	O	0.754895	1.128524	0.236932
O27	O	0.649336	1.128524	0.245739
O28	O	0.888714	1.128526	0.010675
O29	O	0.649334	1.513285	-0.354112
O30	O	0.754895	0.743766	0.236933
O31	O	0.888714	0.743767	0.225768
O32	O	0.888714	0.743768	0.010677
O33	O	0.515515	1.513283	-0.127855
O34	O	0.649335	1.513284	-0.139021
O35	O	0.741504	1.001904	0.128056
O36	O	0.820281	1.001905	-0.005138
O37	O	0.741503	1.255147	-0.125187
O38	O	0.662726	1.255146	0.008007
C39	C	0.702114	0.790046	-0.058587
C40	C	0.702114	0.675170	-0.058587
C41	C	0.491528	1.128524	-0.041018
C42	C	0.420057	1.128524	-0.035055
C43	C	0.386479	1.128528	-0.125727
C44	C	0.319327	1.128520	-0.120117
C45	C	0.285750	1.128518	-0.023840
C46	C	0.319334	1.128510	0.066841
C47	C	0.386489	1.128507	0.061236
C48	C	0.084910	1.128516	0.002952
C49	C	0.017750	1.128523	0.008548
C50	C	0.017748	1.128531	-0.178409
C51	C	0.084901	1.128537	-0.184010
C52	C	0.118481	1.128521	-0.093326
N53	N	0.217108	1.128515	-0.018106
N54	N	0.187125	1.128514	-0.099056
C55	C	0.912701	1.128527	-0.076160
C56	C	0.984172	1.128527	-0.082124
C57	C	0.702113	1.128527	-0.397068
C58	C	0.702113	1.128528	-0.511945
C59	C	0.702114	1.467005	-0.058591
C60	C	0.702114	1.581882	-0.058591
C61	C	0.702115	1.128524	0.279890
C62	C	0.702116	1.128523	0.394767
C63	C	0.912701	0.790048	-0.076158
C64	C	0.984172	0.675171	-0.082121
C65	C	0.702115	0.790045	0.279892
C66	C	0.702116	0.675167	0.394769
C67	C	0.912702	0.790046	0.262321
C68	C	0.984173	0.675169	0.371235
C69	C	0.491527	1.467005	-0.379499
C70	C	0.420056	1.581882	-0.488413
C71	C	0.491528	1.467003	-0.041020
C72	C	0.420057	1.581880	-0.035057
C73	C	0.702113	1.467006	-0.397070
C74	C	0.702113	1.581884	-0.511947
C75	C	0.976614	0.621224	-0.147596
C76	C	1.043762	0.513301	-0.153224
C77	C	1.118467	0.459319	-0.093368
C78	C	1.126024	0.513277	-0.027891
C79	C	1.058876	0.621206	-0.022271
C80	C	1.058865	0.621222	0.352855
C81	C	1.126026	0.513298	0.455181
C82	C	1.118494	0.459316	0.575884
C83	C	1.043794	0.513273	0.594262
C84	C	0.976635	0.621203	0.491937
C85	C	0.345364	1.635842	-0.470034
C86	C	0.278203	1.743799	-0.572359
C87	C	0.285735	1.797788	-0.693062
C88	C	0.360434	1.743823	-0.711440
C89	C	0.427594	1.635875	-0.609116
C90	C	0.427615	1.635838	0.030407
C91	C	0.360467	1.743791	0.036005
C92	C	0.285761	1.797777	-0.023855
C93	C	0.278205	1.743814	-0.089327
C94	C	0.345353	1.635870	-0.094932
H95	H	0.413810	1.128539	-0.204130
H96	H	0.291988	1.128522	-0.193949
Br97	Br	0.335081	1.562647	-0.183777
H98	H	-0.009586	1.128523	0.086954
H99	H	1.037594	0.469382	-0.206542
Br100	Br	1.069109	0.694468	0.189055
H101	H	1.173137	0.371435	-0.097952
H102	H	0.112237	1.128539	-0.262407
H103	H	0.915791	0.665175	-0.196355
Br104	Br	0.194639	1.944274	-0.016237
Br105	Br	-0.027827	1.128549	-0.301473
H106	H	1.065041	0.665115	0.031053
Br107	Br	0.176835	1.817011	-0.547389
Br108	Br	1.227416	0.439996	0.053340
Br109	Br	0.130479	1.128498	0.126018
Br110	Br	1.227394	0.440090	0.430211
Br111	Br	0.528959	1.562649	-0.634082
Br112	Br	0.194580	1.944291	-0.831920
Br113	Br	1.209648	0.312838	0.714742
H114	H	0.291995	1.128499	0.145237
Br115	Br	0.432063	1.128487	0.184303
Br116	Br	0.335120	1.562592	-0.306233
H117	H	0.366558	1.787794	-0.809729
Br118	Br	0.875270	0.694397	0.516904
H119	H	0.366634	1.787710	0.089324
Br120	Br	0.176813	1.817092	-0.170556
H121	H	0.488437	1.591891	0.079161
H122	H	1.037673	0.469305	0.692552
