data_functionalizedCrystal
_audit_creation_method	'MofGen! by Chris Wilmer'
_symmetry_space_group_name_H-M	'P1'
_symmetry_Int_Tables_number	1
_symmetry_cell_setting	triclinic
loop_
_symmetry_equiv_pos_as_xyz
  x,y,z
_cell_length_a	19.805407
_cell_length_b	18.101395
_cell_length_c	19.805399
_cell_angle_alpha	90.025118
_cell_angle_beta	90.019573
_cell_angle_gamma	90.031104
loop_
_atom_site_label
_atom_site_type_symbol
_atom_site_fract_x
_atom_site_fract_y
_atom_site_fract_z
Zn1	Zn	1.034714	-0.294847	0.382731
Zn2	Zn	1.534714	0.205153	0.882731
Zn3	Zn	1.034619	-0.418690	0.269548
Zn4	Zn	1.534619	0.081310	0.769548
Zn5	Zn	0.921528	-0.294867	0.269556
Zn6	Zn	1.421528	0.205133	0.769556
Zn7	Zn	0.921482	-0.418651	0.382695
Zn8	Zn	1.421482	0.081349	0.882695
O9	O	0.978086	-0.356764	0.326132
O10	O	1.478086	0.143236	0.826132
O11	O	1.129418	-0.311283	0.367729
O12	O	1.629418	0.188717	0.867729
O13	O	1.019597	-0.402290	0.174832
O14	O	1.519597	0.097710	0.674832
O15	O	0.936601	-0.191232	0.284587
O16	O	1.436601	0.308768	0.784587
O17	O	1.129348	-0.402270	0.284574
O18	O	1.629348	0.097730	0.784574
O19	O	1.019758	-0.191217	0.367737
O20	O	1.519758	0.308783	0.867737
O21	O	0.936510	-0.311318	0.174838
O22	O	1.436510	0.188682	0.674838
O23	O	0.826806	-0.311279	0.284552
O24	O	1.326806	0.188721	0.784552
O25	O	0.936523	-0.402203	0.477416
O26	O	1.436523	0.097797	0.977416
O27	O	0.826772	-0.402223	0.367674
O28	O	1.326772	0.097777	0.867674
O29	O	1.019714	-0.311245	0.477443
O30	O	1.519714	0.188755	0.977443
O31	O	1.019553	-0.522318	0.284538
O32	O	1.519553	-0.022318	0.784538
O33	O	0.936432	-0.522289	0.367667
O34	O	1.436432	-0.022289	0.867667
C35	C	0.802230	-0.356750	0.326110
C36	C	1.302230	0.143250	0.826110
C37	C	0.726998	-0.356761	0.326117
C38	C	1.226998	0.143239	0.826117
C39	C	0.691654	-0.404187	0.369329
C40	C	1.191654	0.095813	0.869329
C41	C	0.620965	-0.404188	0.369339
C42	C	1.120965	0.095812	0.869339
C43	C	0.585622	-0.356767	0.326132
C44	C	1.085622	0.143233	0.826132
C45	C	0.620971	-0.309336	0.282919
C46	C	1.120971	0.190664	0.782919
C47	C	0.691658	-0.309332	0.282913
C48	C	1.191658	0.190668	0.782913
C49	C	0.335898	-0.309353	0.282941
C50	C	0.835898	0.190647	0.782941
C51	C	0.265206	-0.309363	0.282948
C52	C	0.765206	0.190637	0.782948
C53	C	0.265205	-0.404209	0.369367
C54	C	0.765205	0.095791	0.869367
C55	C	0.335892	-0.404205	0.369361
C56	C	0.835892	0.095795	0.869361
C57	C	0.371235	-0.356771	0.326150
C58	C	0.871235	0.143229	0.826150
C59	C	0.447883	-0.356770	0.326141
C60	C	0.947883	0.143230	0.826141
C61	C	0.508975	-0.356772	0.326137
C62	C	1.008975	0.143228	0.826137
C63	C	0.977995	-0.549174	0.326112
C64	C	1.477995	-0.049174	0.826112
C65	C	0.978018	-0.631489	0.326127
C66	C	1.478018	-0.131489	0.826127
C67	C	0.978167	-0.930579	0.326163
C68	C	1.478167	-0.430579	0.826163
C69	C	0.925991	-0.899267	0.378595
C70	C	1.425991	-0.399267	0.878595
C71	C	0.925743	-0.813649	0.378431
C72	C	1.425743	-0.313649	0.878431
C73	C	0.978093	-0.782197	0.326146
C74	C	1.478093	-0.282197	0.826146
C75	C	0.958782	-0.813345	0.254811
C76	C	1.458782	-0.313345	0.754811
C77	C	0.958446	-0.898990	0.255125
C78	C	1.458446	-0.398990	0.755125
C79	C	1.049768	-0.898924	0.344438
C80	C	1.549768	-0.398924	0.844438
C81	C	1.049347	-0.813273	0.346002
C82	C	1.549347	-0.313273	0.846002
C83	C	0.978053	-0.698337	0.326131
C84	C	1.478053	-0.198337	0.826131
C85	C	0.978206	-1.014439	0.326173
C86	C	1.478206	-0.514439	0.826173
C87	C	1.154629	-0.356779	0.326155
C88	C	1.654629	0.143221	0.826155
C89	C	1.229861	-0.356785	0.326164
C90	C	1.729861	0.143215	0.826164
C91	C	0.978124	-0.356717	0.502675
C92	C	1.478124	0.143283	1.002675
C93	C	0.978140	-0.356697	0.577907
C94	C	1.478140	0.143303	1.077907
C95	C	0.978195	-0.163602	0.326167
C96	C	1.478195	0.336398	0.826167
C97	C	0.978242	-0.081288	0.326182
C98	C	1.478242	0.418712	0.826182
C99	C	0.978087	-0.356757	0.150276
C100	C	1.478087	0.143243	0.650276
C101	C	0.978202	-0.356568	0.075045
C102	C	1.478202	0.143432	0.575045
C103	C	1.021458	-0.309333	0.613266
C104	C	1.521458	0.190667	1.113266
C105	C	1.021465	-0.309311	0.683955
C106	C	1.521465	0.190689	1.183955
C107	C	0.978157	-0.356659	0.719283
C108	C	1.478157	0.143341	1.219283
C109	C	0.934834	-0.404025	0.683919
C110	C	1.434834	0.095975	1.183919
C111	C	0.934824	-0.404042	0.613231
C112	C	1.434824	0.095958	1.113231
C113	C	0.934872	-0.403956	0.968992
C114	C	1.434872	0.096044	1.468992
C115	C	0.934887	-0.403937	1.039684
C116	C	1.434887	0.096063	1.539684
C117	C	1.021513	-0.309225	1.039716
C118	C	1.521513	0.190775	1.539716
C119	C	1.021503	-0.309242	0.969028
C120	C	1.521503	0.190758	1.469028
C121	C	0.978178	-0.356606	0.933670
C122	C	1.478178	0.143394	1.433670
C123	C	0.978170	-0.356628	0.857022
C124	C	1.478170	0.143372	1.357022
C125	C	0.978168	-0.356641	0.795930
C126	C	1.478168	0.143359	1.295930
H127	H	0.937953	-0.919817	0.431660
H128	H	1.437953	-0.419817	0.931660
H129	H	0.720435	-0.270709	0.247729
H130	H	1.220435	0.229291	0.747729
H131	H	0.899569	-0.442573	0.712688
H132	H	1.399569	0.057427	1.212688
H133	H	0.592189	-0.270722	0.247742
H134	H	1.092189	0.229278	0.747742
H135	H	0.906997	-0.791960	0.239053
H136	H	1.406997	-0.291960	0.739053
C137	C	0.887909	-0.455499	0.930653
C138	C	1.387909	0.044501	1.430653
C139	C	0.902610	-0.528772	0.947823
C140	C	1.402610	-0.028772	1.447823
C141	C	0.859360	-0.576273	0.912512
C142	C	1.359360	-0.076273	1.412512
H143	H	0.842421	-0.444740	0.942215
H144	H	1.342421	0.055260	1.442215
H145	H	0.894097	-0.448783	0.883486
H146	H	1.394097	0.051217	1.383486
H147	H	0.896416	-0.535484	0.994979
H148	H	1.396416	-0.035484	1.494979
H149	H	0.948090	-0.539553	0.936259
H150	H	1.448090	-0.039553	1.436259
H151	H	0.865549	-0.569557	0.865345
H152	H	1.365549	-0.069557	1.365345
H153	H	0.813875	-0.565508	0.924077
H154	H	1.313875	-0.065508	1.424077
H155	H	0.869333	-0.625994	0.924152
H156	H	1.369333	-0.125994	1.424152
H157	H	0.720425	-0.442805	0.404510
H158	H	1.220425	0.057195	0.904510
H159	H	0.994801	-0.919706	0.214727
H160	H	1.494801	-0.419706	0.714727
C161	C	0.374386	-0.455659	0.416200
C162	C	0.874386	0.044341	0.916200
C163	C	0.443856	-0.445516	0.406935
C164	C	0.943856	0.054484	0.906935
C165	C	0.479336	-0.492908	0.450069
C166	C	0.979336	0.007092	0.950069
H167	H	0.362906	-0.444931	0.461722
H168	H	0.862906	0.055069	0.961722
H169	H	0.362817	-0.505422	0.406213
H170	H	0.862817	-0.005422	0.906213
H171	H	0.455420	-0.395765	0.416927
H172	H	0.955420	0.104235	0.916927
H173	H	0.455356	-0.456250	0.361422
H174	H	0.955356	0.043750	0.861422
H175	H	0.467767	-0.542670	0.440081
H176	H	0.967767	-0.042670	0.940081
H177	H	0.467851	-0.482176	0.495588
H178	H	0.967851	0.017824	0.995588
H179	H	0.526475	-0.486037	0.443784
H180	H	1.026475	0.013963	0.943784
H181	H	1.056727	-0.270779	0.584508
H182	H	1.556727	0.229221	1.084508
H183	H	0.937825	-0.792587	0.431325
H184	H	1.437825	-0.292587	0.931325
H185	H	0.236431	-0.270742	0.247765
H186	H	0.736431	0.229258	0.747765
C187	C	1.073381	-0.927602	0.412587
C188	C	1.573381	-0.427602	0.912587
C189	C	1.137195	-0.898385	0.427256
C190	C	1.637195	-0.398385	0.927256
C191	C	1.158965	-0.924796	0.490027
C192	C	1.658965	-0.424796	0.990027
H193	H	1.042284	-0.912956	0.446546
H194	H	1.542284	-0.412956	0.946546
H195	H	1.075971	-0.979990	0.411253
H196	H	1.575971	-0.479990	0.911253
H197	H	1.134602	-0.846009	0.428595
H198	H	1.634602	-0.346009	0.928595
H199	H	1.168308	-0.913029	0.393313
H200	H	1.668308	-0.413029	0.893313
H201	H	1.161554	-0.977184	0.488693
H202	H	1.661554	-0.477184	0.988693
H203	H	1.127863	-0.910148	0.523980
H204	H	1.627863	-0.410148	1.023980
H205	H	1.202267	-0.904982	0.499985
H206	H	1.702267	-0.404982	0.999985
H207	H	1.056788	-0.270657	1.068513
H208	H	1.556788	0.229343	1.568513
H209	H	0.873241	-0.920853	0.366642
H210	H	1.373241	-0.420853	0.866642
C211	C	0.854943	-0.786554	0.362238
C212	C	1.354943	-0.286554	0.862238
C213	C	0.812221	-0.847299	0.352565
C214	C	1.312221	-0.347299	0.852565
C215	C	0.746996	-0.822369	0.337633
C216	C	1.246996	-0.322369	0.837633
H217	H	0.838593	-0.757425	0.398627
H218	H	1.338593	-0.257425	0.898627
H219	H	0.856026	-0.757574	0.322270
H220	H	1.356026	-0.257574	0.822270
H221	H	0.811135	-0.876267	0.392528
H222	H	1.311135	-0.376267	0.892528
H223	H	0.828549	-0.876434	0.316174
H224	H	1.328549	-0.376434	0.816174
H225	H	0.748079	-0.793389	0.297665
H226	H	1.248079	-0.293389	0.797665
H227	H	0.730653	-0.793240	0.374024
H228	H	1.230653	-0.293240	0.874024
H229	H	0.718003	-0.863580	0.331062
H230	H	1.218003	-0.363580	0.831062
H231	H	1.056741	-0.270744	0.712741
H232	H	1.556741	0.229256	1.212741
H233	H	0.592192	-0.442808	0.404525
H234	H	1.092192	0.057192	0.904525
C235	C	0.374304	-0.257771	0.236137
C236	C	0.874304	0.242229	0.736137
C237	C	0.414908	-0.210342	0.274534
C238	C	0.914908	0.289658	0.774534
C239	C	0.450294	-0.162808	0.231439
C240	C	0.950294	0.337192	0.731439
H241	H	0.401910	-0.285970	0.206586
H242	H	0.901910	0.214030	0.706586
H243	H	0.343153	-0.229488	0.210415
H244	H	0.843153	0.270512	0.710415
H245	H	0.446055	-0.238622	0.300244
H246	H	0.946055	0.261378	0.800244
H247	H	0.387318	-0.182127	0.304083
H248	H	0.887318	0.317873	0.804083
H249	H	0.419144	-0.134525	0.205717
H250	H	0.919144	0.365475	0.705717
H251	H	0.477897	-0.191014	0.201891
H252	H	0.977897	0.308986	0.701891
H253	H	0.477843	-0.130618	0.257485
H254	H	0.977843	0.369382	0.757485
C255	C	0.888604	-0.925575	0.234508
C256	C	1.388604	-0.425575	0.734508
C257	C	0.847108	-0.864523	0.221881
C258	C	1.347108	-0.364523	0.721881
C259	C	0.782762	-0.888979	0.202898
C260	C	1.282762	-0.388979	0.702898
H261	H	0.891978	-0.954807	0.194811
H262	H	1.391978	-0.454807	0.694811
H263	H	0.869724	-0.954339	0.269902
H264	H	1.369724	-0.454339	0.769902
H265	H	0.865984	-0.835771	0.186490
H266	H	1.365984	-0.335771	0.686490
H267	H	0.843715	-0.835285	0.261569
H268	H	1.343715	-0.335285	0.761569
H269	H	0.763881	-0.917743	0.238292
H270	H	1.263881	-0.417743	0.738292
H271	H	0.786142	-0.918211	0.163202
H272	H	1.286142	-0.418211	0.663202
H273	H	0.754597	-0.847560	0.194335
H274	H	1.254597	-0.347560	0.694335
H275	H	1.090278	-0.791859	0.310597
H276	H	1.590278	-0.291859	0.810597
C277	C	0.226794	-0.455579	0.416373
C278	C	0.726794	0.044421	0.916373
C279	C	0.186266	-0.413711	0.459841
C280	C	0.686266	0.086289	0.959841
C281	C	0.150880	-0.461005	0.503155
C282	C	0.650880	0.038995	1.003155
H283	H	0.199136	-0.487824	0.390512
H284	H	0.699136	0.012176	0.890512
H285	H	0.257945	-0.483809	0.442143
H286	H	0.757945	0.016191	0.942143
H287	H	0.155118	-0.385493	0.434074
H288	H	0.655118	0.114507	0.934074
H289	H	0.213907	-0.381467	0.485717
H290	H	0.713907	0.118533	0.985717
H291	H	0.182031	-0.489236	0.528924
H292	H	0.682031	0.010764	1.028924
H293	H	0.123226	-0.493248	0.477288
H294	H	0.623226	0.006752	0.977288
H295	H	0.123382	-0.432605	0.532657
H296	H	0.623382	0.067395	1.032657
H297	H	0.995590	-0.792973	0.214680
H298	H	1.495590	-0.292973	0.714680
C299	C	1.068909	-0.786122	0.415963
C300	C	1.568909	-0.286122	0.915963
C301	C	1.128761	-0.745180	0.411807
C302	C	1.628761	-0.245180	0.911807
C303	C	1.146806	-0.720179	0.476247
C304	C	1.646806	-0.220179	0.976247
H305	H	1.033929	-0.755790	0.433487
H306	H	1.533929	-0.255790	0.933487
H307	H	1.075542	-0.827273	0.444970
H308	H	1.575542	-0.327273	0.944970
H309	H	1.122125	-0.704035	0.382810
H310	H	1.622125	-0.204035	0.882810
H311	H	1.163755	-0.775497	0.394294
H312	H	1.663755	-0.275497	0.894294
H313	H	1.153439	-0.761331	0.505254
H314	H	1.653439	-0.261331	1.005254
H315	H	1.111822	-0.689850	0.493766
H316	H	1.611822	-0.189850	0.993766
H317	H	1.187421	-0.692404	0.473437
H318	H	1.687421	-0.192404	0.973437
H319	H	1.056772	-0.270690	0.940268
H320	H	1.556772	0.229310	1.440268
C321	C	0.887886	-0.455597	0.574869
C322	C	1.387886	0.044403	1.074869
C323	C	0.902603	-0.528867	0.592039
C324	C	1.402603	-0.028867	1.092039
C325	C	0.859384	-0.576381	0.556705
C326	C	1.359384	-0.076381	1.056705
H327	H	0.842389	-0.444858	0.586413
H328	H	1.342389	0.055142	1.086413
H329	H	0.894092	-0.448874	0.527706
H330	H	1.394092	0.051126	1.027706
H331	H	0.896391	-0.535587	0.639192
H332	H	1.396391	-0.035587	1.139192
H333	H	0.948092	-0.539630	0.580494
H334	H	1.448092	-0.039630	1.080494
H335	H	0.865590	-0.569658	0.509542
H336	H	1.365590	-0.069658	1.009542
H337	H	0.813890	-0.565634	0.568251
H338	H	1.313890	-0.065634	1.068251
H339	H	0.869367	-0.626099	0.568345
H340	H	1.369367	-0.126099	1.068345
C341	C	1.101603	-0.926070	0.293587
C342	C	1.601603	-0.426070	0.793587
C343	C	1.103836	-1.003366	0.294865
C344	C	1.603836	-0.503366	0.794865
C345	C	1.151580	-1.028404	0.248037
C346	C	1.651580	-0.528404	0.748037
H347	H	1.089301	-0.909893	0.249656
H348	H	1.589301	-0.409893	0.749656
H349	H	1.144784	-0.906807	0.304894
H350	H	1.644784	-0.406807	0.804894
H351	H	1.060665	-1.022622	0.283553
H352	H	1.560665	-0.522622	0.783553
H353	H	1.116147	-1.019563	0.338785
H354	H	1.616147	-0.519563	0.838785
H355	H	1.194760	-1.009141	0.259344
H356	H	1.694760	-0.509141	0.759344
H357	H	1.139273	-1.012222	0.204109
H358	H	1.639273	-0.512222	0.704109
H359	H	1.153106	-1.080851	0.248902
H360	H	1.653106	-0.580851	0.748902
C361	C	0.887974	-0.455436	1.078076
C362	C	1.387974	0.044564	1.578076
C363	C	0.926278	-0.502912	1.118639
C364	C	1.426278	-0.002912	1.618639
C365	C	0.883090	-0.550369	1.154007
C366	C	1.383090	-0.050369	1.654007
H367	H	0.858493	-0.427183	1.105709
H368	H	1.358493	0.072817	1.605709
H369	H	0.862181	-0.483689	1.046914
H370	H	1.362181	0.016311	1.546914
H371	H	0.952059	-0.474663	1.149796
H372	H	1.452059	0.025337	1.649796
H373	H	0.955758	-0.531182	1.091022
H374	H	1.455758	-0.031182	1.591022
H375	H	0.857298	-0.578622	1.122845
H376	H	1.357298	-0.078622	1.622845
H377	H	0.853611	-0.522110	1.181636
H378	H	1.353611	-0.022110	1.681636
H379	H	0.909074	-0.582591	1.181528
H380	H	1.409074	-0.082591	1.681528
