data_functionalizedCrystal
_audit_creation_method	'MofGen! by Chris Wilmer'
_symmetry_space_group_name_H-M	'P1'
_symmetry_Int_Tables_number	1
_symmetry_cell_setting	triclinic
loop_
_symmetry_equiv_pos_as_xyz
  x,y,z
_cell_length_a	19.121321
_cell_length_b	19.121063
_cell_length_c	19.121504
_cell_angle_alpha	94.868905
_cell_angle_beta	90.021704
_cell_angle_gamma	89.929715
loop_
_atom_site_label
_atom_site_type_symbol
_atom_site_fract_x
_atom_site_fract_y
_atom_site_fract_z
Zn1	Zn	1.075115	-0.340471	-0.365711
Zn2	Zn	1.065324	-0.452887	-0.253472
Zn3	Zn	0.953167	-0.330661	-0.253067
Zn4	Zn	0.953261	-0.453106	-0.375671
O5	O	1.011717	-0.394281	-0.311980
O6	O	1.171750	-0.359397	-0.346823
O7	O	1.046309	-0.432477	-0.155136
O8	O	0.973402	-0.233672	-0.263672
O9	O	1.164557	-0.441989	-0.264361
O10	O	1.062997	-0.240879	-0.346430
O11	O	0.963908	-0.342677	-0.154838
O12	O	0.855246	-0.342889	-0.273330
O13	O	0.973563	-0.442362	-0.472632
O14	O	0.855315	-0.432849	-0.363407
O15	O	1.063088	-0.359609	-0.465314
O16	O	1.046400	-0.551207	-0.274020
O17	O	0.964068	-0.551367	-0.363799
C18	C	0.829887	-0.386829	-0.319406
C19	C	0.752100	-0.383659	-0.322600
C20	C	0.312341	-0.363520	-0.342852
C21	C	0.385430	-0.366512	-0.339848
C22	C	0.418220	-0.410932	-0.295336
C23	C	0.377918	-0.452368	-0.253832
C24	C	0.304830	-0.449379	-0.256841
C25	C	0.638710	-0.422106	-0.284104
C26	C	0.711803	-0.425090	-0.281097
C27	C	0.719310	-0.339235	-0.367114
C28	C	0.646221	-0.336247	-0.370116
C29	C	0.605925	-0.377686	-0.328614
C30	C	0.492929	-0.413989	-0.292263
C31	C	0.531217	-0.374631	-0.331692
C32	C	1.004202	-0.576774	-0.320049
C33	C	1.001052	-0.654849	-0.323521
C34	C	1.042474	-0.691425	-0.278445
C35	C	1.039516	-0.764785	-0.281715
C36	C	0.995131	-0.801567	-0.330058
C37	C	0.953707	-0.764986	-0.375139
C38	C	0.956670	-0.691628	-0.371872
C39	C	0.984043	-1.023067	-0.342263
C40	C	0.981083	-1.096431	-0.345525
C41	C	1.066892	-1.096224	-0.252102
C42	C	1.069848	-1.022864	-0.248836
C43	C	1.028427	-0.986290	-0.293919
C44	C	0.992104	-0.876553	-0.333401
C45	C	1.031457	-0.911306	-0.290580
C46	C	1.194256	-0.401763	-0.304526
C47	C	1.272044	-0.404951	-0.301350
C48	C	1.019428	-0.402104	-0.495170
C49	C	1.022714	-0.405438	-0.573234
C50	C	1.019281	-0.211077	-0.303895
C51	C	1.022505	-0.133007	-0.300449
C52	C	1.004078	-0.386440	-0.129500
C53	C	1.000936	-0.382914	-0.051421
C54	C	1.042694	-0.427694	-0.014832
C55	C	1.039731	-0.424385	0.058531
C56	C	0.995013	-0.376292	0.095302
C57	C	0.953251	-0.331509	0.058708
C58	C	0.956210	-0.334822	-0.014654
C59	C	0.983911	-0.363969	0.316810
C60	C	0.980956	-0.360658	0.390177
C61	C	1.067436	-0.453534	0.389994
C62	C	1.070395	-0.456840	0.316632
C63	C	1.028629	-0.412061	0.280043
C64	C	0.991985	-0.372907	0.170290
C65	C	1.031654	-0.415450	0.205056
H66	H	0.619529	-0.300078	-0.406364
H67	H	0.519635	-0.450154	-0.256019
O68	O	1.086040	-0.474446	-0.050632
C69	C	1.095560	-0.573376	-0.136975
C70	C	1.046394	-0.520461	-0.096494
H71	H	1.063524	-0.610602	-0.174053
H72	H	1.134643	-0.543949	-0.168591
H73	H	1.124912	-0.604781	-0.098204
H74	H	1.016995	-0.489041	-0.135216
H75	H	1.007355	-0.549929	-0.064867
O76	O	0.937472	-0.314034	0.425972
C77	C	0.839917	-0.297668	0.505440
C78	C	0.889118	-0.350541	0.464951
H79	H	0.800802	-0.327164	0.536952
H80	H	0.871889	-0.260477	0.542616
H81	H	0.810604	-0.266216	0.466680
H82	H	0.918442	-0.382041	0.503658
H83	H	0.857108	-0.387685	0.427765
O84	O	0.948891	-0.912200	-0.380324
C85	C	0.830336	-0.931351	-0.420154
C86	C	0.879194	-0.890918	-0.366980
H87	H	0.773974	-0.914171	-0.409376
H88	H	0.845488	-0.919797	-0.475667
H89	H	0.835375	-0.990063	-0.414756
H90	H	0.874181	-0.832196	-0.372315
H91	H	0.864029	-0.902531	-0.311489
H92	H	1.105989	-0.992917	-0.209471
O93	O	1.107234	-1.131679	-0.208342
C94	C	1.223980	-1.157483	-0.170516
C95	C	1.178368	-1.117282	-0.220100
H96	H	1.281501	-1.145869	-0.180015
H97	H	1.209993	-1.140161	-0.113718
H98	H	1.214208	-1.216228	-0.181140
H99	H	1.188116	-1.058530	-0.209539
H100	H	1.192364	-1.134662	-0.276882
O101	O	0.938050	-1.132141	-0.392587
C102	C	0.908090	-1.158254	-0.514416
C103	C	0.956880	-1.117785	-0.461201
H104	H	0.923287	-1.146650	-0.569901
H105	H	0.913095	-1.216978	-0.509062
H106	H	0.851728	-1.141055	-0.503673
H107	H	1.013262	-1.134925	-0.471910
H108	H	0.951815	-1.059070	-0.466567
H109	H	0.272020	-0.483119	-0.223046
O110	O	0.943322	-0.320395	0.281385
C111	C	0.857210	-0.227947	0.289313
C112	C	0.903151	-0.277246	0.329523
H113	H	0.824708	-0.193059	0.328214
H114	H	0.891958	-0.193801	0.257772
H115	H	0.820915	-0.260525	0.252172
H116	H	0.939452	-0.244723	0.366700
H117	H	0.868361	-0.311395	0.361017
H118	H	1.073727	-0.460858	0.088318
H119	H	1.078613	-0.661481	-0.239076
H120	H	0.950315	-0.993294	-0.378970
O121	O	0.499449	-0.331387	-0.374888
C122	C	0.483414	-0.212509	-0.404788
C123	C	0.519457	-0.261407	-0.355833
H124	H	0.499565	-0.155918	-0.389390
H125	H	0.499688	-0.227879	-0.461366
H126	H	0.424257	-0.217532	-0.399820
H127	H	0.578619	-0.256409	-0.360739
H128	H	0.503126	-0.246023	-0.299274
O129	O	0.409656	-0.495581	-0.210580
C130	C	0.394489	-0.580394	-0.125553
C131	C	0.358458	-0.531498	-0.174518
H132	H	0.353113	-0.609435	-0.096373
H133	H	0.428534	-0.619990	-0.157924
H134	H	0.428503	-0.547912	-0.086074
H135	H	0.324409	-0.563922	-0.214006
H136	H	0.324456	-0.491899	-0.142102
O137	O	0.915749	-0.291294	-0.050271
C138	C	0.912907	-0.199844	-0.129521
C139	C	0.958816	-0.249109	-0.089237
H140	H	0.947708	-0.165715	-0.161023
H141	H	0.876600	-0.232379	-0.166688
H142	H	0.880420	-0.164932	-0.090628
H143	H	0.991345	-0.284032	-0.128078
H144	H	0.995078	-0.216532	-0.052060
H145	H	1.073245	-0.794561	-0.245009
H146	H	0.917572	-0.794941	-0.414504
O147	O	0.916365	-0.656203	-0.415691
C148	C	0.830981	-0.664149	-0.508736
C149	C	0.876572	-0.704352	-0.459135
H150	H	0.798808	-0.703060	-0.543883
H151	H	0.794392	-0.626989	-0.476469
H152	H	0.866035	-0.632629	-0.542609
H153	H	0.841572	-0.735912	-0.425250
H154	H	0.913167	-0.741469	-0.491442
O155	O	0.743627	-0.468349	-0.237943
C156	C	0.759600	-0.587221	-0.207999
C157	C	0.723525	-0.538316	-0.256926
H158	H	0.743350	-0.643798	-0.223320
H159	H	0.818764	-0.582294	-0.212986
H160	H	0.743353	-0.571764	-0.151431
H161	H	0.739715	-0.553742	-0.313515
H162	H	0.664367	-0.543250	-0.251878
H163	H	1.067598	-0.881356	-0.251222
O164	O	0.599545	-0.462435	-0.243892
C165	C	0.512697	-0.553451	-0.241868
C166	C	0.557022	-0.507832	-0.287494
H167	H	0.478295	-0.590155	-0.277100
H168	H	0.548660	-0.585758	-0.209555
H169	H	0.478283	-0.518170	-0.205160
H170	H	0.591441	-0.543060	-0.324241
H171	H	0.521019	-0.475519	-0.319759
H172	H	1.106808	-0.496003	0.286697
H173	H	1.101438	-0.489992	0.419793
H174	H	0.955577	-0.333748	0.200238
O175	O	0.909708	-0.284867	0.094388
C176	C	0.790885	-0.245710	0.113516
C177	C	0.840115	-0.298588	0.073072
H178	H	0.734611	-0.256776	0.096286
H179	H	0.795883	-0.251034	0.172240
H180	H	0.805729	-0.190136	0.101927
H181	H	0.825305	-0.354185	0.084603
H182	H	0.835110	-0.293203	0.014360
O183	O	0.280604	-0.320355	-0.386153
C184	C	0.295773	-0.235489	-0.471127
C185	C	0.331802	-0.284353	-0.422128
H186	H	0.337151	-0.206358	-0.500215
H187	H	0.261803	-0.267934	-0.510677
H188	H	0.261685	-0.195964	-0.438720
H189	H	0.365926	-0.323888	-0.454478
H190	H	0.365730	-0.251863	-0.382576
O191	O	0.424603	-0.326367	-0.380241
C192	C	0.511548	-0.324485	-0.471248
C193	C	0.467218	-0.370034	-0.425557
H194	H	0.546025	-0.359770	-0.507887
H195	H	0.475588	-0.292237	-0.503624
H196	H	0.545887	-0.287715	-0.436018
H197	H	0.432875	-0.406843	-0.460735
H198	H	0.503218	-0.402233	-0.393175
O199	O	1.075188	-0.462131	0.169423
C200	C	1.194021	-0.501225	0.150226
C201	C	1.144793	-0.448330	0.190649
H202	H	1.250309	-0.490077	0.167361
H203	H	1.179275	-0.556820	0.161837
H204	H	1.188923	-0.495908	0.091510
H205	H	1.149866	-0.453583	0.249375
H206	H	1.159554	-0.392756	0.178979
O207	O	0.758423	-0.298885	-0.407355
C208	C	0.787126	-0.181846	-0.435492
C209	C	0.742802	-0.227456	-0.389856
H210	H	0.774501	-0.124088	-0.421370
H211	H	0.845007	-0.191549	-0.425695
H212	H	0.774647	-0.196144	-0.493238
H213	H	0.755220	-0.213186	-0.332094
H214	H	0.684933	-0.217747	-0.399713
