data_functionalizedCrystal
_audit_creation_method	'MofGen! by Chris Wilmer'
_symmetry_space_group_name_H-M	'P1'
_symmetry_Int_Tables_number	1
_symmetry_cell_setting	triclinic
loop_
_symmetry_equiv_pos_as_xyz
  x,y,z
_cell_length_a	19.188925
_cell_length_b	10.489741
_cell_length_c	18.266241
_cell_angle_alpha	90.011124
_cell_angle_beta	90.007961
_cell_angle_gamma	96.159139
loop_
_atom_site_label
_atom_site_type_symbol
_atom_site_fract_x
_atom_site_fract_y
_atom_site_fract_z
O1	O	0.098508	-1.691823	0.060835
O2	O	0.107754	-1.320420	0.060846
O3	O	0.001547	-1.516843	0.060836
O4	O	0.204715	-1.495400	0.060845
O5	O	0.001533	-1.516876	-0.060926
O6	O	0.107740	-1.320453	-0.060916
O7	O	0.098494	-1.691856	-0.060927
Zn8	Zn	0.103115	-1.506159	-0.080254
Zn9	Zn	0.103133	-1.506116	0.080173
O10	O	0.204701	-1.495433	-0.060917
C11	C	0.107049	-1.272920	-0.000033
C12	C	0.104959	-1.131338	-0.000029
N13	N	0.103102	-1.506198	-0.189741
C14	C	-0.024476	-1.516166	-0.000044
C15	C	-0.101995	-1.514085	-0.000043
C16	C	-0.663086	-1.615405	-0.000027
C17	C	-0.590250	-1.617371	-0.000034
C18	C	-0.546087	-1.502117	-0.000030
C19	C	-0.574767	-1.384887	-0.000038
C20	C	-0.647602	-1.382924	-0.000039
N21	N	-0.425961	-1.418666	0.041417
N22	N	-0.356771	-1.420539	0.041419
C23	C	-0.326639	-1.508025	-0.000030
N24	N	-0.368311	-1.593586	-0.041472
N25	N	-0.437507	-1.591717	-0.041471
C26	C	-0.467109	-1.504233	-0.000030
C27	C	-0.218990	-1.627379	-0.000034
C28	C	-0.146152	-1.629341	-0.000045
C29	C	-0.130670	-1.396853	-0.000042
C30	C	-0.203507	-1.394895	-0.000039
C31	C	-0.247663	-1.510162	-0.000031
C32	C	0.230724	-1.496110	-0.000035
C33	C	0.308242	-1.498191	-0.000031
C34	C	0.099199	-1.739355	-0.000046
C35	C	0.101289	-1.880938	-0.000045
C36	C	0.037383	-1.064711	-0.000039
C37	C	0.069312	-0.971853	0.059996
C38	C	0.069315	-0.971919	-0.060052
C39	C	0.136916	-1.040344	0.060056
C40	C	0.136910	-1.040420	-0.060046
C41	C	0.168888	-0.947589	0.000003
N42	N	0.103140	-1.506087	0.189660
C43	C	0.145979	-1.583045	0.227972
C44	C	0.145980	-1.583054	0.304617
C45	C	0.103128	-1.506120	0.342947
C46	C	0.060286	-1.429147	0.304625
C47	C	0.060292	-1.429130	0.227982
N48	N	0.041921	-1.503285	0.463271
N49	N	0.041917	-1.503308	0.536079
C50	C	0.103108	-1.506163	0.573869
N51	N	0.164305	-1.509020	0.536101
N52	N	0.164308	-1.509003	0.463286
C53	C	0.103117	-1.506129	0.426054
C54	C	0.145952	-1.583135	0.695289
C55	C	0.145954	-1.583135	0.771935
C56	C	0.060254	-1.429235	0.771942
C57	C	0.060258	-1.429227	0.695297
C58	C	0.103106	-1.506184	0.656975
H59	H	-0.699034	-1.709264	-0.000025
H60	H	-0.122810	-1.724795	-0.000046
C61	C	0.013850	-1.345595	0.813635
C62	C	0.055645	-1.258885	0.857665
C63	C	0.012927	-1.181812	0.896090
H64	H	-0.011673	-1.299640	0.779916
H65	H	-0.017950	-1.398091	0.843565
H66	H	0.087433	-1.206395	0.827737
H67	H	0.081168	-1.304804	0.891397
H68	H	-0.018873	-1.234309	0.926021
H69	H	-0.012595	-1.135867	0.862366
H70	H	0.041278	-1.122979	0.925974
C71	C	0.013664	-1.345645	0.653825
C72	C	-0.023842	-1.278221	0.703791
C73	C	-0.066778	-1.201220	0.665613
H74	H	0.041830	-1.286632	0.623912
H75	H	-0.018198	-1.398172	0.623954
H76	H	0.008015	-1.225698	0.733649
H77	H	-0.052022	-1.337201	0.733705
H78	H	-0.098640	-1.253747	0.635742
H79	H	-0.038607	-1.142215	0.635701
H80	H	-0.092236	-1.155473	0.699509
C81	C	0.031066	-0.931423	0.127606
C82	C	-0.037758	-0.991267	0.127321
C83	C	-0.073018	-0.954046	0.189583
H84	H	0.054545	-0.955990	0.170294
H85	H	0.030345	-0.841005	0.127339
H86	H	-0.037034	-1.081665	0.127595
H87	H	-0.061256	-0.966708	0.084647
H88	H	-0.073739	-0.863628	0.189316
H89	H	-0.049534	-0.978615	0.232266
H90	H	-0.119721	-0.994634	0.189395
C91	C	0.174964	-1.080829	0.127786
C92	C	0.176438	-1.213982	0.127028
C93	C	0.211470	-1.251328	0.189414
H94	H	0.221564	-1.039798	0.128025
H95	H	0.151117	-1.056887	0.170384
H96	H	0.200287	-1.237912	0.084442
H97	H	0.129848	-1.255045	0.126801
H98	H	0.187623	-1.227386	0.232012
H99	H	0.258068	-1.210288	0.189647
H100	H	0.212470	-1.341676	0.188911
C101	C	0.031165	-0.931235	-0.127668
C102	C	0.030246	-0.797954	-0.127106
C103	C	-0.004904	-0.760436	-0.189373
H104	H	0.054669	-0.955738	-0.170352
H105	H	-0.015571	-0.971681	-0.127596
H106	H	0.076973	-0.757522	-0.127185
H107	H	0.006737	-0.773418	-0.084436
H108	H	-0.051639	-0.800882	-0.189300
H109	H	0.018605	-0.784947	-0.232052
H110	H	-0.005537	-0.670004	-0.188996
H111	H	0.224499	-0.896919	0.000039
C112	C	0.192551	-1.666715	0.653809
C113	C	0.230088	-1.734082	0.703770
C114	C	0.273028	-1.811076	0.665588
H115	H	0.164385	-1.725762	0.623894
H116	H	0.224394	-1.614188	0.623939
H117	H	0.198249	-1.786605	0.733627
H118	H	0.258267	-1.675067	0.733687
H119	H	0.304871	-1.758548	0.635719
H120	H	0.244857	-1.870115	0.635675
H121	H	0.298506	-1.856785	0.699481
H122	H	0.165474	-1.070840	-0.110802
H123	H	0.180871	-1.645707	0.196776
C124	C	0.192514	-1.666755	0.346093
C125	C	0.230027	-1.734168	0.296128
C126	C	0.272893	-1.811298	0.334306
H127	H	0.224376	-1.614357	0.376013
H128	H	0.164277	-1.725769	0.375958
H129	H	0.258262	-1.675162	0.266276
H130	H	0.198183	-1.786590	0.266207
H131	H	0.244656	-1.870311	0.364171
H132	H	0.304751	-1.758890	0.364224
H133	H	0.298346	-1.857055	0.300411
C134	C	0.192356	-1.666772	0.813631
C135	C	0.150564	-1.753488	0.857629
C136	C	0.193288	-1.830540	0.896059
H137	H	0.217888	-1.712721	0.779915
H138	H	0.224148	-1.614262	0.843584
H139	H	0.118784	-1.805992	0.827679
H140	H	0.125033	-1.707574	0.891359
H141	H	0.225080	-1.778030	0.926012
H142	H	0.218818	-1.876481	0.862338
H143	H	0.164939	-1.889378	0.925921
C144	C	-0.559244	-1.744770	0.000018
C145	C	-0.613503	-1.845293	0.000045
C146	C	-0.584970	-1.962669	0.000107
H147	H	-0.531165	-1.750579	-0.042427
H148	H	-0.531169	-1.750402	0.042501
H149	H	-0.641566	-1.839664	-0.042433
H150	H	-0.641586	-1.839527	0.042487
H151	H	-0.556895	-1.968301	0.042589
H152	H	-0.556891	-1.968464	-0.042340
H153	H	-0.621780	-2.030888	0.000131
C154	C	-0.234506	-1.267499	0.000003
C155	C	-0.180244	-1.166981	0.000024
C156	C	-0.208773	-1.049602	0.000070
H157	H	-0.262595	-1.261732	-0.042446
H158	H	-0.262571	-1.261819	0.042482
H159	H	-0.152191	-1.172659	-0.042450
H160	H	-0.152151	-1.172706	0.042470
H161	H	-0.236838	-1.043921	0.042548
H162	H	-0.236861	-1.043848	-0.042380
H163	H	-0.171961	-0.981386	0.000090
C164	C	-0.526857	-1.259711	-0.000182
C165	C	-0.539897	-1.189141	-0.062836
C166	C	-0.495770	-1.073826	-0.063000
H167	H	-0.535569	-1.211461	0.042229
H168	H	-0.479362	-1.277612	-0.000218
H169	H	-0.587381	-1.171236	-0.062793
H170	H	-0.531181	-1.237351	-0.105257
H171	H	-0.448275	-1.091727	-0.063036
H172	H	-0.504486	-1.025588	-0.020587
H173	H	-0.504607	-1.025935	-0.105513
C174	C	0.013785	-1.345752	0.346369
C175	C	0.022934	-1.362263	0.421691
C176	C	-0.019896	-1.285465	0.460167
H177	H	0.026163	-1.258340	0.333916
H178	H	-0.033860	-1.369889	0.333835
H179	H	0.070568	-1.338119	0.434220
H180	H	0.010551	-1.449659	0.434166
H181	H	-0.067540	-1.309601	0.447633
H182	H	-0.007514	-1.198057	0.447707
H183	H	-0.013699	-1.296666	0.511276
C184	C	-0.678695	-1.255616	0.000114
C185	C	-0.656310	-1.185958	0.062767
C186	C	-0.684948	-1.068684	0.062939
H187	H	-0.663607	-1.208036	-0.042298
H188	H	-0.728401	-1.270900	0.000156
H189	H	-0.606615	-1.170670	0.062718
H190	H	-0.671397	-1.233500	0.105188
H191	H	-0.734653	-1.083968	0.062981
H192	H	-0.669858	-1.021115	0.020525
H193	H	-0.669769	-1.021412	0.105451
C194	C	0.013654	-1.345750	0.186418
C195	C	-0.056490	-1.381538	0.205061
C196	C	-0.099475	-1.304770	0.166778
H197	H	0.025999	-1.258348	0.198939
H198	H	0.019724	-1.356821	0.135277
H199	H	-0.062557	-1.370455	0.256191
H200	H	-0.068857	-1.468927	0.192539
H201	H	-0.093404	-1.315841	0.115637
H202	H	-0.087123	-1.217372	0.179302
H203	H	-0.147072	-1.329048	0.179417
H204	H	-0.254943	-1.721236	-0.000028
H205	H	-0.094714	-1.303010	-0.000046
H206	H	-0.018169	-1.115645	0.000034
