data_functionalizedCrystal
_audit_creation_method	'MofGen! by Chris Wilmer'
_symmetry_space_group_name_H-M	'P1'
_symmetry_Int_Tables_number	1
_symmetry_cell_setting	triclinic
loop_
_symmetry_equiv_pos_as_xyz
  x,y,z
_cell_length_a	19.121241
_cell_length_b	19.121449
_cell_length_c	19.076919
_cell_angle_alpha	90.071082
_cell_angle_beta	90.260442
_cell_angle_gamma	89.915403
loop_
_atom_site_label
_atom_site_type_symbol
_atom_site_fract_x
_atom_site_fract_y
_atom_site_fract_z
Zn1	Zn	1.067104	-0.251552	0.432899
Zn2	Zn	1.400437	0.081781	0.766232
Zn3	Zn	1.733770	0.415114	1.099566
Zn4	Zn	1.076698	-0.363700	0.310824
Zn5	Zn	1.410031	-0.030367	0.644157
Zn6	Zn	1.743364	0.302966	0.977491
Zn7	Zn	0.954562	-0.251452	0.310403
Zn8	Zn	1.287896	0.081881	0.643736
Zn9	Zn	1.621229	0.415215	0.977070
Zn10	Zn	0.955211	-0.373326	0.422866
Zn11	Zn	1.288545	-0.039993	0.756199
Zn12	Zn	1.621878	0.293340	1.089532
O13	O	1.013394	-0.310008	0.369248
O14	O	1.346727	0.023326	0.702581
O15	O	1.680060	0.356659	1.035915
O16	O	1.166318	-0.262443	0.421081
O17	O	1.499651	0.070891	0.754414
O18	O	1.832985	0.404224	1.087748
O19	O	1.064240	-0.344740	0.212613
O20	O	1.397573	-0.011407	0.545947
O21	O	1.730906	0.321927	0.879280
O22	O	0.965205	-0.153526	0.330675
O23	O	1.298538	0.179807	0.664009
O24	O	1.631871	0.513140	0.997342
O25	O	1.173367	-0.344837	0.331393
O26	O	1.506700	-0.011504	0.664726
O27	O	1.840033	0.321829	0.998060
O28	O	1.047888	-0.153600	0.420673
O29	O	1.381222	0.179733	0.754006
O30	O	1.714555	0.513067	1.087339
O31	O	0.974507	-0.262272	0.212304
O32	O	1.307841	0.071062	0.545637
O33	O	1.641174	0.404395	0.878971
O34	O	0.856707	-0.271605	0.320946
O35	O	1.190040	0.061728	0.654279
O36	O	1.523374	0.395061	0.987613
O37	O	0.966310	-0.361243	0.522351
O38	O	1.299644	-0.027910	0.855685
O39	O	1.632977	0.305423	1.189018
O40	O	0.857184	-0.361146	0.403572
O41	O	1.190517	-0.027813	0.736905
O42	O	1.523850	0.305521	1.070238
O43	O	1.048517	-0.271776	0.529723
O44	O	1.381851	0.061557	0.863056
O45	O	1.715184	0.394890	1.196390
O46	O	1.064869	-0.462916	0.321664
O47	O	1.398202	-0.129583	0.654997
O48	O	1.731536	0.203750	0.988330
O49	O	0.975613	-0.469989	0.403980
O50	O	1.308947	-0.136655	0.737313
O51	O	1.642280	0.196678	1.070647
C52	C	0.831550	-0.317410	0.361125
C53	C	1.164884	0.015923	0.694458
C54	C	1.498217	0.349257	1.027791
C55	C	0.753757	-0.320594	0.357666
C56	C	1.087090	0.012739	0.690999
C57	C	1.420424	0.346073	1.024332
C58	C	0.713541	-0.279265	0.402802
C59	C	1.046874	0.054068	0.736135
C60	C	1.380207	0.387401	1.069468
C61	C	0.640446	-0.282254	0.399546
C62	C	0.973779	0.051080	0.732879
C63	C	1.307112	0.384413	1.066212
C64	C	0.607568	-0.326575	0.351156
C65	C	0.940902	0.006759	0.684489
C66	C	1.274235	0.340092	1.017823
C67	C	0.647790	-0.367905	0.306015
C68	C	0.981123	-0.034572	0.639349
C69	C	1.314456	0.298762	0.972682
C70	C	0.720883	-0.364912	0.309268
C71	C	1.054217	-0.031579	0.642602
C72	C	1.387550	0.301754	0.975935
C73	C	0.387056	-0.337749	0.338991
C74	C	0.720389	-0.004416	0.672324
C75	C	1.053723	0.328918	1.005657
C76	C	0.313957	-0.340740	0.335742
C77	C	0.647290	-0.007406	0.669076
C78	C	0.980624	0.325927	1.002409
C79	C	0.306618	-0.255087	0.429272
C80	C	0.639951	0.078246	0.762606
C81	C	0.973285	0.411580	1.095939
C82	C	0.379713	-0.252102	0.432524
C83	C	0.713047	0.081232	0.765857
C84	C	1.046380	0.414565	1.099191
C85	C	0.419929	-0.293429	0.387381
C86	C	0.753262	0.039904	0.720714
C87	C	1.086595	0.373238	1.054047
C88	C	0.532853	-0.329632	0.347828
C89	C	0.866187	0.003701	0.681161
C90	C	1.199520	0.337035	1.014495
C91	C	0.494642	-0.290368	0.390706
C92	C	0.827975	0.042965	0.724039
C93	C	1.161309	0.376299	1.057372
C94	C	1.021371	-0.491847	0.361795
C95	C	1.354704	-0.158514	0.695128
C96	C	1.688038	0.174820	1.028462
C97	C	1.024847	-0.569637	0.358633
C98	C	1.358180	-0.236303	0.691966
C99	C	1.691514	0.097030	1.025300
C100	C	0.979980	-0.609890	0.399967
C101	C	1.313314	-0.276557	0.733300
C102	C	1.646647	0.056777	1.066633
C103	C	0.983249	-0.682981	0.396993
C104	C	1.316583	-0.349648	0.730326
C105	C	1.649916	-0.016315	1.063659
C106	C	1.031389	-0.715819	0.352689
C107	C	1.364722	-0.382485	0.686022
C108	C	1.698056	-0.049152	1.019355
C109	C	1.076258	-0.675560	0.311350
C110	C	1.409591	-0.342227	0.644684
C111	C	1.742924	-0.008893	0.978017
C112	C	1.072985	-0.602470	0.314321
C113	C	1.406318	-0.269136	0.647654
C114	C	1.739652	0.064197	0.980987
C115	C	1.043595	-0.936318	0.341574
C116	C	1.376928	-0.602985	0.674907
C117	C	1.710261	-0.269652	1.008240
C118	C	1.046866	-1.009414	0.338608
C119	C	1.380199	-0.676081	0.671941
C120	C	1.713532	-0.342747	1.005274
C121	C	0.953856	-1.016830	0.424250
C122	C	1.287189	-0.683497	0.757583
C123	C	1.620523	-0.350164	1.090916
C124	C	0.950590	-0.943738	0.427220
C125	C	1.283923	-0.610405	0.760553
C126	C	1.617257	-0.277072	1.093886
C127	C	0.995456	-0.903486	0.385879
C128	C	1.328790	-0.570153	0.719212
C129	C	1.662123	-0.236820	1.052545
C130	C	1.034733	-0.790530	0.349649
C131	C	1.368067	-0.457196	0.682983
C132	C	1.701400	-0.123863	1.016316
C133	C	0.992108	-0.828776	0.388914
C134	C	1.325442	-0.495443	0.722248
C135	C	1.658775	-0.162110	1.055581
C136	C	1.195947	-0.302577	0.377403
C137	C	1.529281	0.030756	0.710737
C138	C	1.862614	0.364089	1.044070
C139	C	1.273741	-0.299411	0.380879
C140	C	1.607074	0.033922	0.714212
C141	C	1.940408	0.367256	1.047545
C142	C	1.006416	-0.317595	0.552199
C143	C	1.339749	0.015739	0.885533
C144	C	1.673083	0.349072	1.218866
C145	C	1.003443	-0.320828	0.630162
C146	C	1.336776	0.012505	0.963495
C147	C	1.670109	0.345839	1.296829
C148	C	1.005404	-0.127459	0.376746
C149	C	1.338737	0.205875	0.710080
C150	C	1.672070	0.539208	1.043413
C151	C	1.001999	-0.049667	0.379941
C152	C	1.335332	0.283666	0.713275
C153	C	1.668666	0.617000	1.046608
C154	C	1.020382	-0.302398	0.187012
C155	C	1.353716	0.030935	0.520346
C156	C	1.687049	0.364268	0.853679
C157	C	1.023483	-0.298963	0.109064
C158	C	1.356816	0.034371	0.442397
C159	C	1.690149	0.367704	0.775731
C160	C	1.044844	-0.275768	0.670628
C161	C	1.378178	0.057565	1.003962
C162	C	1.711511	0.390898	1.337295
C163	C	1.042042	-0.278804	0.743882
C164	C	1.375375	0.054529	1.077216
C165	C	1.708708	0.387863	1.410549
C166	C	0.997841	-0.326903	0.776669
C167	C	1.331174	0.006431	1.110002
C168	C	1.664507	0.339764	1.443336
C169	C	0.956435	-0.371964	0.736198
C170	C	1.289768	-0.038631	1.069531
C171	C	1.623101	0.294702	1.402864
C172	C	0.959234	-0.368925	0.662945
C173	C	1.292567	-0.035592	0.996278
C174	C	1.625901	0.297742	1.329611
C175	C	0.984876	-0.340985	0.995340
C176	C	1.318209	-0.007651	1.328673
C177	C	1.651542	0.325682	1.662006
C178	C	0.982081	-0.344022	1.068598
C179	C	1.315414	-0.010689	1.401931
C180	C	1.648748	0.322645	1.735264
C181	C	1.067688	-0.250860	1.076278
C182	C	1.401021	0.082473	1.409611
C183	C	1.734354	0.415806	1.742944
C184	C	1.070486	-0.247828	1.003023
C185	C	1.403819	0.085505	1.336356
C186	C	1.737153	0.418839	1.669690
C187	C	1.029077	-0.292887	0.962558
C188	C	1.362411	0.040446	1.295891
C189	C	1.695744	0.373780	1.629225
N190	N	0.994977	-0.330008	0.851547
N191	N	1.328310	0.003325	1.184880
N192	N	1.661643	0.336658	1.518213
N193	N	1.031938	-0.289778	0.887682
N194	N	1.365271	0.043556	1.221015
N195	N	1.698605	0.376889	1.554349
H196	H	0.419791	-0.371401	0.302232
H197	H	0.753124	-0.038068	0.635566
H198	H	1.086457	0.295265	0.968899
Br199	Br	1.123881	-0.189711	1.131198
Br200	Br	1.457214	0.143622	1.464531
Br201	Br	1.790548	0.476955	1.797864
Br202	Br	0.252037	-0.199003	0.490535
Br203	Br	0.585370	0.134331	0.823868
Br204	Br	0.918704	0.467664	1.157201
H205	H	1.086071	-1.036147	0.302531
H206	H	1.419404	-0.702814	0.635864
H207	H	1.752738	-0.369480	0.969197
Br208	Br	1.130478	-0.182551	0.958532
Br209	Br	1.463811	0.150783	1.291865
Br210	Br	1.797144	0.484116	1.625199
H211	H	0.951168	-0.377685	0.962401
H212	H	1.284502	-0.044351	1.295735
H213	H	1.617835	0.288982	1.629068
H214	H	0.925513	-0.405610	0.629998
H215	H	1.258846	-0.072277	0.963331
H216	H	1.592180	0.261056	1.296664
H217	H	1.080840	-0.236603	0.643939
H218	H	1.414173	0.096730	0.977272
H219	H	1.747506	0.430064	1.310606
Br220	Br	0.896442	-0.437238	0.780693
Br221	Br	1.229776	-0.103905	1.114026
Br222	Br	1.563109	0.229429	1.447359
Br223	Br	0.892969	-1.071461	0.480351
Br224	Br	1.226302	-0.738128	0.813685
Br225	Br	1.559635	-0.404795	1.147018
Br226	Br	0.775464	-0.421002	0.248009
Br227	Br	1.108797	-0.087669	0.581342
Br228	Br	1.442130	0.245664	0.914675
H229	H	1.080128	-0.903551	0.307914
H230	H	1.413461	-0.570217	0.641247
H231	H	1.746795	-0.236884	0.974580
H232	H	0.952910	-0.802038	0.424984
H233	H	1.286243	-0.468705	0.758318
H234	H	1.619577	-0.135372	1.091651
H235	H	0.911391	-0.917004	0.463296
H236	H	1.244724	-0.583671	0.796629
H237	H	1.578058	-0.250338	1.129962
Br238	Br	0.922088	-0.409301	1.113094
Br239	Br	1.255421	-0.075968	1.446427
Br240	Br	1.588754	0.257366	1.779760
Br241	Br	0.539262	-0.230216	0.456372
Br242	Br	0.872596	0.103117	0.789705
Br243	Br	1.205929	0.436451	1.123039
H244	H	0.740304	-0.243176	0.442208
H245	H	1.073637	0.090157	0.775541
H246	H	1.406971	0.423490	1.108874
Br247	Br	0.424328	-0.191957	0.498205
Br248	Br	0.757661	0.141377	0.831538
Br249	Br	1.090994	0.474710	1.164871
Br250	Br	1.141590	-0.720124	0.251221
Br251	Br	1.474923	-0.386790	0.584554
Br252	Br	1.808257	-0.053457	0.917887
Br253	Br	0.603171	-0.428050	0.240337
Br254	Br	0.936505	-0.094716	0.573671
Br255	Br	1.269838	0.238617	0.907004
Br256	Br	0.922362	-0.737609	0.453098
Br257	Br	1.255696	-0.404275	0.786432
Br258	Br	1.589029	-0.070942	1.119765
H259	H	0.607704	-0.248601	0.436302
H260	H	0.941038	0.084732	0.769635
H261	H	1.274371	0.418066	1.102968
H262	H	0.506076	-0.365718	0.308429
H263	H	0.839410	-0.032385	0.641763
H264	H	1.172743	0.300948	0.975096
H265	H	0.940783	-0.583159	0.436047
H266	H	1.274116	-0.249826	0.769380
H267	H	1.607449	0.083508	1.102714
Br268	Br	0.269338	-0.400915	0.270086
Br269	Br	0.602671	-0.067581	0.603419
Br270	Br	0.936005	0.265752	0.936752
Br271	Br	1.133872	-0.547839	0.258216
Br272	Br	1.467205	-0.214506	0.591549
Br273	Br	1.800538	0.118828	0.924883
Br274	Br	1.098266	-0.217680	0.798799
Br275	Br	1.431600	0.115653	1.132132
Br276	Br	1.764933	0.448987	1.465465
H277	H	1.073929	-0.817274	0.313577
H278	H	1.407263	-0.483941	0.646911
H279	H	1.740596	-0.150607	0.980244
