data_functionalizedCrystal
_audit_creation_method	'MofGen! by Chris Wilmer'
_symmetry_space_group_name_H-M	'P1'
_symmetry_Int_Tables_number	1
_symmetry_cell_setting	triclinic
loop_
_symmetry_equiv_pos_as_xyz
  x,y,z
_cell_length_a	14.044191
_cell_length_b	14.044220
_cell_length_c	15.186229
_cell_angle_alpha	89.995248
_cell_angle_beta	89.999039
_cell_angle_gamma	93.190327
loop_
_atom_site_label
_atom_site_type_symbol
_atom_site_fract_x
_atom_site_fract_y
_atom_site_fract_z
O1	O	1.277171	0.230199	-0.073190
O2	O	1.000498	0.221886	-0.073201
O3	O	1.134682	0.087706	-0.073187
O4	O	1.142988	0.364378	-0.073204
O5	O	1.134672	0.087703	0.073270
O6	O	1.000489	0.221883	0.073256
O7	O	1.277161	0.230196	0.073267
Zn8	Zn	1.138823	0.226039	0.096515
Zn9	Zn	1.138836	0.226043	-0.096449
O10	O	1.142978	0.364375	0.073253
C11	C	0.964872	0.218248	0.000026
C12	C	0.858728	0.207401	0.000022
C13	C	1.131041	0.052083	0.000042
C14	C	1.120197	-0.054060	0.000043
C15	C	0.613270	0.264501	0.000028
C16	C	0.664395	0.187585	0.000031
C17	C	0.772532	0.198613	0.000026
C18	C	0.505123	0.253474	0.000032
C19	C	1.100370	-0.248398	0.000029
C20	C	1.177285	-0.299526	0.000030
C21	C	1.166253	-0.407663	0.000022
C22	C	1.111400	-0.140252	0.000037
C23	C	1.312788	0.233834	0.000038
C24	C	1.418931	0.244681	0.000036
C25	C	1.146618	0.399998	0.000022
C26	C	1.157463	0.506142	0.000016
N27	N	1.138821	0.226036	0.228208
N28	N	1.138845	0.226038	-0.228141
C29	C	1.198261	0.166645	0.453937
C30	C	1.198264	0.166643	0.546126
C31	C	1.079398	0.285432	0.546123
C32	C	1.079391	0.285428	0.453935
C33	C	1.138828	0.226036	0.407844
C34	C	1.138838	0.226038	0.592222
C35	C	1.138841	0.226036	0.692178
C36	C	1.138825	0.226037	0.307882
H37	H	0.626952	0.113452	-0.000026
C38	C	0.663845	0.364645	0.000003
C39	C	0.773554	0.375674	-0.000013
C40	C	0.824143	0.475817	-0.000045
C41	C	0.765023	0.564931	-0.000061
C42	C	0.655309	0.553905	-0.000044
C43	C	0.604720	0.453762	-0.000012
H44	H	0.817323	0.309703	-0.000002
H45	H	0.905361	0.483978	-0.000057
H46	H	0.802472	0.639062	-0.000084
H47	H	0.611539	0.619875	-0.000056
H48	H	0.523501	0.445601	0.000000
H49	H	1.246657	0.118283	0.416412
H50	H	1.251419	-0.262085	-0.000027
C51	C	1.263645	0.101315	0.596829
C52	C	1.329029	0.035998	0.546129
C53	C	1.394411	-0.029334	0.596832
C54	C	1.394409	-0.029349	0.698235
C55	C	1.329021	0.035971	0.748941
C56	C	1.263639	0.101303	0.698238
H57	H	1.329033	0.036007	0.471059
H58	H	1.442815	-0.077688	0.559296
H59	H	1.442808	-0.077712	0.735769
H60	H	1.329017	0.035962	0.824011
H61	H	1.215236	0.149657	0.735775
H62	H	1.026242	-0.285837	0.000024
C63	C	1.014027	0.350769	0.596823
C64	C	1.014087	0.350837	0.698227
C65	C	0.948716	0.416179	0.748924
C66	C	0.883286	0.481452	0.698218
C67	C	0.883224	0.481386	0.596809
C68	C	0.948594	0.416044	0.546112
H69	H	1.062525	0.302516	0.735767
H70	H	0.948763	0.416228	0.823993
H71	H	0.834895	0.529822	0.735747
H72	H	0.834786	0.529707	0.559268
H73	H	0.948548	0.415996	0.471042
H74	H	1.030989	0.333792	0.416404
