data_functionalizedCrystal
_audit_creation_method	'MofGen! by Chris Wilmer'
_symmetry_space_group_name_H-M	'P1'
_symmetry_Int_Tables_number	1
_symmetry_cell_setting	triclinic
loop_
_symmetry_equiv_pos_as_xyz
  x,y,z
_cell_length_a	10.723022
_cell_length_b	9.198806
_cell_length_c	19.288865
_cell_angle_alpha	90.008409
_cell_angle_beta	83.801737
_cell_angle_gamma	90.003648
loop_
_atom_site_label
_atom_site_type_symbol
_atom_site_fract_x
_atom_site_fract_y
_atom_site_fract_z
O1	O	1.655143	0.120902	0.097410
O2	O	1.291795	0.120908	0.106736
O3	O	1.483968	0.120876	0.001011
O4	O	1.462970	0.120934	0.203135
O5	O	1.483953	-0.120909	0.001011
O6	O	1.291780	-0.120877	0.106736
O7	O	1.655128	-0.120883	0.097410
Cu8	Cu	1.473452	-0.142957	0.102073
Cu9	Cu	1.473470	0.142982	0.102073
O10	O	1.462955	-0.120851	0.203135
C11	C	1.245302	0.000016	0.106057
C12	C	1.106790	0.000018	0.104028
N13	N	1.473449	-0.344071	0.102072
C14	C	0.887413	0.000037	0.161086
C15	C	1.030572	0.000036	0.163186
C16	C	1.554141	-0.416281	0.057486
C17	C	1.554161	-0.583694	0.057483
C18	C	1.701621	0.000012	0.098089
C19	C	1.840133	0.000020	0.100118
C20	C	1.483285	-0.000021	-0.024870
C21	C	1.481257	-0.000034	-0.101987
N22	N	1.473484	0.344096	0.102068
C23	C	1.594015	-0.000043	-0.145950
C24	C	1.592110	-0.000020	-0.218409
C25	C	1.477439	-0.000017	-0.246902
C26	C	1.364666	0.000001	-0.202930
C27	C	1.366575	-0.000008	-0.130472
C28	C	1.387290	-0.084707	-0.355776
C29	C	1.385386	-0.084708	-0.428233
C30	C	1.471548	0.000016	-0.470386
C31	C	1.559635	0.084721	-0.440075
C32	C	1.561543	0.084713	-0.367617
C33	C	1.475357	-0.000007	-0.325470
C34	C	1.582248	0.000034	-0.592919
C35	C	1.580338	0.000066	-0.665379
C36	C	1.352891	0.000072	-0.649898
C37	C	1.354804	0.000054	-0.577439
C38	C	1.469486	0.000028	-0.548954
C39	C	1.463638	0.000049	0.229016
C40	C	1.465666	0.000071	0.306133
H41	H	0.821908	0.000061	0.211729
Cl42	Cl	1.366799	-0.439964	0.161004
H43	H	1.071288	0.000042	0.215386
H44	H	1.687398	-0.000059	-0.122762
Cl45	Cl	1.208732	0.000084	-0.685711
Cl46	Cl	1.726416	-0.000007	-0.557105
Cl47	Cl	1.043945	-0.000016	0.023427
H48	H	1.623207	-0.354167	0.019312
Cl49	Cl	1.667959	0.191241	-0.493060
Cl50	Cl	1.366821	-0.560045	0.161012
H51	H	1.672163	0.000066	-0.701174
Cl52	Cl	1.660832	-0.679562	-0.001451
Cl53	Cl	0.941259	0.000008	0.021925
H54	H	1.683934	-0.000021	-0.254211
Cl55	Cl	1.213042	0.000059	-0.522168
H56	H	1.633265	0.153686	-0.342941
H57	H	1.313655	-0.153671	-0.452906
H58	H	1.317123	-0.153707	-0.321460
H59	H	1.271300	0.000006	-0.226134
Cl60	Cl	1.224809	0.000003	-0.075201
