data_functionalizedCrystal
_audit_creation_method	'MofGen! by Chris Wilmer'
_symmetry_space_group_name_H-M	'P1'
_symmetry_Int_Tables_number	1
_symmetry_cell_setting	triclinic
loop_
_symmetry_equiv_pos_as_xyz
  x,y,z
_cell_length_a	10.686220
_cell_length_b	10.685594
_cell_length_c	11.169409
_cell_angle_alpha	94.340176
_cell_angle_beta	94.348347
_cell_angle_gamma	98.404471
loop_
_atom_site_label
_atom_site_type_symbol
_atom_site_fract_x
_atom_site_fract_y
_atom_site_fract_z
Zn1	Zn	1.901845	-0.356181	-0.566005
Zn2	Zn	2.235178	-0.022848	-0.232671
Zn3	Zn	2.568512	0.310485	0.100662
Zn4	Zn	1.885446	-0.568495	-0.381996
Zn5	Zn	2.218779	-0.235161	-0.048663
Zn6	Zn	2.552113	0.098172	0.284671
Zn7	Zn	1.689571	-0.372559	-0.381993
Zn8	Zn	2.022904	-0.039225	-0.048659
Zn9	Zn	2.356238	0.294108	0.284674
Zn10	Zn	1.673311	-0.584682	-0.599271
Zn11	Zn	2.006644	-0.251349	-0.265937
Zn12	Zn	2.339978	0.081985	0.067396
O13	O	1.787543	-0.470479	-0.482316
O14	O	2.120877	-0.137146	-0.148983
O15	O	2.454210	0.196187	0.184351
O16	O	2.077286	-0.370717	-0.527675
O17	O	2.410620	-0.037383	-0.194342
O18	O	2.743953	0.295950	0.138991
O19	O	1.859405	-0.542583	-0.214056
O20	O	2.192738	-0.209250	0.119277
O21	O	2.526071	0.124084	0.452611
O22	O	1.731398	-0.192758	-0.392479
O23	O	2.064731	0.140575	-0.059146
O24	O	2.398064	0.473909	0.274188
O25	O	2.065238	-0.526703	-0.392485
O26	O	2.398571	-0.193369	-0.059151
O27	O	2.731905	0.139964	0.274182
O28	O	1.887354	-0.180726	-0.527672
O29	O	2.220688	0.152608	-0.194339
O30	O	2.554021	0.485941	0.138995
O31	O	1.715496	-0.398630	-0.214053
O32	O	2.048830	-0.065296	0.119280
O33	O	2.382163	0.268037	0.452613
O34	O	1.509797	-0.414326	-0.424736
O35	O	1.843131	-0.080992	-0.091402
O36	O	2.176464	0.252341	0.241931
O37	O	1.703685	-0.554291	-0.762798
O38	O	2.037018	-0.220958	-0.429464
O39	O	2.370351	0.112375	-0.096131
O40	O	1.497851	-0.570172	-0.584369
O41	O	1.831185	-0.236838	-0.251035
O42	O	2.164518	0.096495	0.082298
O43	O	1.871588	-0.386413	-0.738357
O44	O	2.204921	-0.053079	-0.405024
O45	O	2.538254	0.280254	-0.071691
O46	O	1.843638	-0.748270	-0.424741
O47	O	2.176971	-0.414937	-0.091408
O48	O	2.510304	-0.081604	0.241925
O49	O	1.687783	-0.760163	-0.584372
O50	O	2.021116	-0.426830	-0.251039
O51	O	2.354450	-0.093496	0.082295
C52	C	1.457770	-0.495783	-0.508162
C53	C	1.791104	-0.162450	-0.174829
C54	C	2.124437	0.170883	0.158504
C55	C	1.316690	-0.506639	-0.519250
C56	C	1.650023	-0.173306	-0.185917
C57	C	1.983356	0.160027	0.147416
C58	C	1.762201	-0.800271	-0.508190
C59	C	2.095534	-0.466938	-0.174857
C60	C	2.428868	-0.133604	0.158476
C61	C	1.751476	-0.941348	-0.519290
C62	C	2.084809	-0.608015	-0.185957
C63	C	2.418142	-0.274682	0.147376
C64	C	2.118604	-0.445077	-0.456370
C65	C	2.451937	-0.111744	-0.123036
C66	C	2.785271	0.221590	0.210297
C67	C	2.259682	-0.434252	-0.445313
C68	C	2.593016	-0.100919	-0.111979
C69	C	2.926349	0.232414	0.221354
C70	C	1.787652	-0.470331	-0.795340
C71	C	2.120985	-0.136997	-0.462007
C72	C	2.454318	0.196336	-0.128673
C73	C	1.787698	-0.470268	-0.928732
C74	C	2.121031	-0.136934	-0.595399
C75	C	2.454364	0.196399	-0.262065
C76	C	1.813019	-0.139397	-0.456364
C77	C	2.146352	0.193936	-0.123031
C78	C	2.479686	0.527270	0.210302
C79	C	1.823875	0.001691	-0.445305
C80	C	2.157209	0.335024	-0.111972
C81	C	2.490542	0.668357	0.221361
C82	C	1.787515	-0.470530	-0.170497
C83	C	2.120849	-0.137197	0.162836
C84	C	2.454182	0.196137	0.496170
C85	C	1.787743	-0.470217	-0.037058
C86	C	2.121076	-0.136883	0.296275
C87	C	2.454409	0.196450	0.629608
H88	H	1.257558	-0.576930	-0.591033
H89	H	1.590891	-0.243596	-0.257699
H90	H	1.924224	0.089737	0.075634
H91	H	1.318807	-0.363975	-0.373528
H92	H	1.652140	-0.030641	-0.040195
H93	H	1.985473	0.302692	0.293139
H94	H	1.681285	-1.000516	-0.591132
H95	H	2.014618	-0.667183	-0.257799
H96	H	2.347952	-0.333850	0.075535
H97	H	1.894072	-0.939149	-0.373477
H98	H	2.227405	-0.605815	-0.040143
H99	H	2.560738	-0.272482	0.293190
