data_functionalizedCrystal
_audit_creation_method	'MofGen! by Chris Wilmer'
_symmetry_space_group_name_H-M	'P1'
_symmetry_Int_Tables_number	1
_symmetry_cell_setting	triclinic
loop_
_symmetry_equiv_pos_as_xyz
  x,y,z
_cell_length_a	16.994730
_cell_length_b	19.805407
_cell_length_c	19.805399
_cell_angle_alpha	89.980427
_cell_angle_beta	89.942955
_cell_angle_gamma	90.044917
loop_
_atom_site_label
_atom_site_type_symbol
_atom_site_fract_x
_atom_site_fract_y
_atom_site_fract_z
Zn1	Zn	-0.314047	-1.035071	0.383118
Zn2	Zn	-0.445955	-1.035127	0.270097
Zn3	Zn	-0.314069	-0.921886	0.269942
Zn4	Zn	-0.445913	-0.921990	0.383243
O5	O	-0.379996	-0.978519	0.326600
O6	O	-0.331553	-1.129795	0.368137
O7	O	-0.428487	-1.020085	0.175360
O8	O	-0.203684	-0.936833	0.284838
O9	O	-0.428465	-1.129836	0.285101
O10	O	-0.203668	-1.019990	0.367988
O11	O	-0.331590	-0.936887	0.175246
O12	O	-0.331550	-0.827183	0.284960
O13	O	-0.428394	-0.937011	0.477943
O14	O	-0.428415	-0.827260	0.368202
O15	O	-0.331513	-1.020091	0.477851
O16	O	-0.556331	-1.020186	0.285223
O17	O	-0.556300	-0.937065	0.368352
C18	C	-0.379981	-0.802663	0.326578
C19	C	-0.379993	-0.727431	0.326585
C20	C	-0.674256	-0.978522	0.326686
C21	C	-0.584934	-0.978592	0.326765
Zn22	Zn	-0.944886	-0.921871	0.269703
Zn23	Zn	-0.813194	-1.035101	0.270046
Zn24	Zn	-0.945381	-1.034881	0.383052
Zn25	Zn	-0.813321	-0.921789	0.383018
O26	O	-0.879195	-0.978410	0.326455
O27	O	-0.927156	-0.937016	0.175032
O28	O	-0.830883	-1.129788	0.285194
O29	O	-1.055696	-1.019832	0.367887
O30	O	-0.830403	-1.020206	0.175284
O31	O	-1.055332	-0.936804	0.284610
O32	O	-0.928000	-1.129627	0.368220
O33	O	-0.928123	-1.019754	0.477764
O34	O	-0.830619	-0.827084	0.367828
O35	O	-0.831099	-0.936666	0.477739
O36	O	-0.927279	-0.827143	0.284576
O37	O	-0.702830	-1.020127	0.285161
O38	O	-0.702923	-0.936878	0.368161
C39	C	-0.174255	-0.978389	0.326380
C40	C	-0.084933	-0.978335	0.326285
C41	C	-0.379946	-0.978557	0.503143
C42	C	-0.379925	-0.978573	0.578375
C43	C	-0.380012	-1.155061	0.326622
C44	C	-0.380018	-1.230293	0.326632
C45	C	-0.430507	-0.692144	0.369859
C46	C	-0.430508	-0.621456	0.369868
C47	C	-0.379999	-0.586055	0.326600
C48	C	-0.329480	-0.621346	0.283324
C49	C	-0.329475	-0.692034	0.283319
C50	C	-0.329497	-0.336273	0.283347
C51	C	-0.329508	-0.265581	0.283354
C52	C	-0.430531	-0.265695	0.369897
C53	C	-0.430526	-0.336383	0.369891
C54	C	-0.380004	-0.371668	0.326618
C55	C	-0.380002	-0.448316	0.326609
C56	C	-0.380005	-0.509408	0.326605
C57	C	-0.379988	-0.978520	0.150744
C58	C	-0.379787	-0.978635	0.075512
C59	C	-0.329476	-1.021833	0.613672
C60	C	-0.329453	-1.021840	0.684360
C61	C	-0.379884	-0.978590	0.719750
C62	C	-0.430335	-0.935324	0.684448
C63	C	-0.430353	-0.935314	0.613761
C64	C	-0.430261	-0.935362	0.969522
C65	C	-0.430241	-0.935377	1.040214
C66	C	-0.329362	-1.021888	1.040121
C67	C	-0.329380	-1.021879	0.969434
C68	C	-0.379827	-0.978611	0.934138
C69	C	-0.379851	-0.978603	0.857489
C70	C	-0.379865	-0.978600	0.796398
C71	C	-0.879678	-0.978177	0.502310
C72	C	-0.879866	-0.978060	0.577542
C73	C	-0.878908	-0.801868	0.326160
C74	C	-0.878785	-0.726636	0.326034
C75	C	-0.878710	-0.978645	0.149912
C76	C	-0.878504	-0.978745	0.074680
C77	C	-0.879538	-1.154266	0.326710
C78	C	-0.879880	-1.229498	0.326706
C79	C	-0.829360	-0.934808	0.612844
C80	C	-0.829536	-0.934686	0.683532
C81	C	-0.880214	-0.977819	0.718918
C82	C	-0.930725	-1.021073	0.683611
C83	C	-0.930553	-1.021192	0.612924
C84	C	-0.929060	-0.691334	0.282630
C85	C	-0.928961	-0.620645	0.282513
C86	C	-0.878582	-0.585260	0.325796
C87	C	-0.828306	-0.620568	0.369205
C88	C	-0.828409	-0.691255	0.369325
C89	C	-0.928781	-0.935474	0.039216
C90	C	-0.928587	-0.935554	-0.031473
C91	C	-0.878119	-0.978909	-0.066695
C92	C	-0.827836	-1.022182	-0.031226
C93	C	-0.828027	-1.022098	0.039462
C94	C	-0.930244	-1.264714	0.370244
C95	C	-0.930581	-1.335402	0.370241
C96	C	-0.880550	-1.370873	0.326701
C97	C	-0.830185	-1.335652	0.283158
C98	C	-0.829852	-1.264965	0.283158
H99	H	-0.471640	-0.720962	0.405091
H100	H	-0.471309	-0.900154	1.069026
F101	F	-0.774894	-0.728819	0.415522
H102	H	-0.971678	-1.056417	0.584187
F103	F	-0.877924	-0.978991	-0.141928
F104	F	-0.774114	-1.068309	-0.068722
H105	H	-0.970985	-1.235843	0.405703
F106	F	-0.984657	-1.066976	0.721281
H107	H	-0.970085	-0.720135	0.247382
F108	F	-0.982470	-0.583081	0.236305
F109	F	-0.774522	-1.068164	0.077198
F110	F	-0.984188	-1.372874	0.416590
H111	H	-0.880829	-1.428430	0.326708
F112	F	-0.775775	-0.888645	0.721095
F113	F	-0.483952	-0.889313	0.931966
H114	H	-0.471665	-0.236958	0.405134
H115	H	-0.288338	-0.720763	0.248084
F116	F	-0.776939	-1.373412	0.236825
H117	H	-0.288372	-0.236760	0.248120
F118	F	-0.484046	-0.889268	0.576196
H119	H	-0.880345	-0.977717	0.776476
F120	F	-0.776240	-1.227492	0.236820
F121	F	-0.982499	-0.889325	0.076689
H122	H	-0.788088	-0.899684	0.584042
H123	H	-0.878506	-0.527702	0.325691
H124	H	-0.969534	-0.900315	-0.060342
F125	F	-0.484287	-0.374055	0.415940
F126	F	-0.484272	-0.583904	0.415927
F127	F	-0.275719	-0.583668	0.237279
F128	F	-0.275725	-0.373817	0.237293
F129	F	-0.275804	-1.067871	0.576014
H130	H	-0.288317	-1.057100	0.940623
F131	F	-0.774694	-0.582899	0.415268
H132	H	-0.288375	-1.057069	0.713096
H133	H	-0.471393	-0.900106	0.713268
F134	F	-0.275667	-1.067936	1.077691
