data_functionalizedCrystal
_audit_creation_method	'MofGen! by Chris Wilmer'
_symmetry_space_group_name_H-M	'P1'
_symmetry_Int_Tables_number	1
_symmetry_cell_setting	triclinic
loop_
_symmetry_equiv_pos_as_xyz
  x,y,z
_cell_length_a	15.625950
_cell_length_b	11.792241
_cell_length_c	14.750779
_cell_angle_alpha	77.269352
_cell_angle_beta	120.090508
_cell_angle_gamma	84.220291
loop_
_atom_site_label
_atom_site_type_symbol
_atom_site_fract_x
_atom_site_fract_y
_atom_site_fract_z
O1	O	1.286398	0.034964	0.367812
O2	O	1.786398	0.534964	0.867812
O3	O	0.999738	0.083326	0.268059
O4	O	1.499738	0.583326	0.768059
O5	O	1.150026	-0.106812	0.320364
O6	O	1.650026	0.393188	0.820364
O7	O	1.136110	0.225103	0.315507
O8	O	1.636110	0.725103	0.815507
O9	O	1.192511	-0.160557	0.494800
O10	O	1.692511	0.339443	0.994800
O11	O	1.042223	0.029582	0.442495
O12	O	1.542223	0.529582	0.942495
O13	O	1.328883	-0.018781	0.542249
O14	O	1.828883	0.481219	1.042249
Zn15	Zn	1.192298	-0.003132	0.520067
Zn16	Zn	1.692298	0.496868	1.020067
Zn17	Zn	1.136323	0.067678	0.290240
Zn18	Zn	1.636323	0.567678	0.790240
O19	O	1.178594	0.171358	0.489944
O20	O	1.678594	0.671358	0.989944
C21	C	0.984282	0.059586	0.342506
C22	C	1.484282	0.559586	0.842506
C23	C	0.874931	0.068904	0.304454
C24	C	1.374931	0.568904	0.804454
C25	C	0.630957	-0.046829	0.654602
C26	C	1.130957	0.453171	1.154602
C27	C	0.528191	-0.038035	0.618797
C28	C	1.028191	0.461965	1.118797
C29	C	0.481927	0.020551	0.428651
C30	C	0.981927	0.520551	0.928651
C31	C	0.584691	0.011768	0.464440
C32	C	1.084691	0.511768	0.964440
C33	C	0.659199	-0.021924	0.577417
C34	C	1.159199	0.478076	1.077417
C35	C	0.612932	0.036673	0.387255
C36	C	1.112932	0.536673	0.887255
C37	C	0.715687	0.027884	0.423042
C38	C	1.215687	0.527884	0.923042
C39	C	0.790201	-0.005809	0.536014
C40	C	1.290201	0.494191	1.036014
C41	C	0.761954	-0.030712	0.613204
C42	C	1.261954	0.469288	1.113204
C43	C	0.538423	0.070356	0.274279
C44	C	1.038423	0.570356	0.774279
C45	C	0.566665	0.095261	0.197094
C46	C	1.066665	0.595261	0.697094
C47	C	0.669420	0.086481	0.232880
C48	C	1.169420	0.586481	0.732880
C49	C	0.743934	0.052788	0.345852
C50	C	1.243934	0.552788	0.845852
C51	C	0.697668	0.111384	0.155691
C52	C	1.197668	0.611384	0.655691
C53	C	0.800423	0.102596	0.191477
C54	C	1.300423	0.602596	0.691477
C55	C	0.846689	0.043999	0.381639
C56	C	1.346689	0.543999	0.881639
C57	C	1.170394	-0.175877	0.407277
C58	C	1.670394	0.324123	0.907277
C59	C	1.167778	-0.301595	0.406366
C60	C	1.667778	0.198405	0.906366
C61	C	1.162964	-0.531759	0.404675
C62	C	1.662964	-0.031759	0.904675
C63	C	1.165639	-0.403679	0.405614
C64	C	1.665639	0.096321	0.905614
C65	C	1.344338	0.004961	0.467799
C66	C	1.844338	0.504961	0.967799
C67	C	1.453688	-0.004355	0.505844
C68	C	1.953688	0.495645	1.005844
C69	C	1.158225	0.240423	0.403028
C70	C	1.658225	0.740423	0.903028
C71	C	1.160840	0.366144	0.403932
C72	C	1.660840	0.866144	0.903932
N73	N	1.230507	-0.051460	0.676921
N74	N	1.730507	0.448540	1.176921
N75	N	1.098122	0.115996	0.133389
N76	N	1.598122	0.615996	0.633389
C77	C	0.991409	0.250919	0.945526
C78	C	1.491409	0.750919	1.445526
C79	C	1.018191	0.217061	1.055346
C80	C	1.518191	0.717061	1.555346
C81	C	1.151299	0.048747	1.101634
C82	C	1.651299	0.548747	1.601634
C83	C	1.124525	0.082588	0.991815
C84	C	1.624525	0.582588	1.491815
C85	C	1.044580	0.183676	0.913769
C86	C	1.544580	0.683676	1.413769
C87	C	1.177696	0.015344	0.960058
C88	C	1.677696	0.515344	1.460058
C89	C	1.150928	0.049186	0.850249
C90	C	1.650928	0.549186	1.350249
C91	C	1.070988	0.150272	0.772198
C92	C	1.570988	0.650272	1.272198
C93	C	1.017812	0.217518	0.803960
C94	C	1.517812	0.717518	1.303960
C95	C	1.257645	-0.085738	1.038107
C96	C	1.757645	0.414262	1.538107
C97	C	1.310816	-0.152982	1.006350
C98	C	1.810816	0.347018	1.506350
C99	C	1.284044	-0.119145	0.896538
C100	C	1.784044	0.380855	1.396538
C101	C	1.204104	-0.018059	0.818487
C102	C	1.704104	0.481941	1.318487
C103	C	1.337220	-0.186390	0.864776
C104	C	1.837220	0.313610	1.364776
C105	C	1.310452	-0.152548	0.754967
C106	C	1.810452	0.347452	1.254967
C107	C	1.177336	0.015783	0.708678
C108	C	1.677336	0.515783	1.208678
H109	H	0.454754	0.077516	0.245145
H110	H	0.954754	0.577516	0.745145
Cl111	Cl	1.291298	-0.128274	1.176155
Cl112	Cl	1.791298	0.371726	1.676155
Cl113	Cl	0.855627	-0.073053	0.755234
Cl114	Cl	1.355627	0.426947	1.255234
H115	H	1.375911	-0.235286	1.069908
H116	H	1.875911	0.264714	1.569908
H117	H	0.691625	-0.074246	0.746598
H118	H	1.191625	0.425754	1.246598
Cl119	Cl	0.835931	0.133902	0.094444
Cl120	Cl	1.335931	0.633902	0.594444
H121	H	0.636990	0.138804	0.063705
H122	H	1.136990	0.638804	0.563705
Cl123	Cl	0.890894	0.377994	0.847402
Cl124	Cl	1.390894	0.877994	1.347402
Cl125	Cl	0.951337	0.301614	1.095258
Cl126	Cl	1.451337	0.801614	1.595258
H127	H	1.049198	0.177828	0.682786
H128	H	1.549198	0.677828	1.182786
Cl129	Cl	1.437729	-0.313457	0.962903
Cl130	Cl	1.937729	0.186543	1.462903
H131	H	0.505202	-0.058292	0.681658
H132	H	1.005202	0.441708	1.181658
H133	H	0.907357	0.016582	0.473635
H134	H	1.407357	0.516582	0.973635
Cl135	Cl	0.919382	-0.016867	0.581007
Cl136	Cl	1.419382	0.483133	1.081007
Cl137	Cl	1.251800	-0.078329	1.199756
Cl138	Cl	1.751800	0.421671	1.699756
Cl139	Cl	1.377301	-0.237083	0.715044
Cl140	Cl	1.877301	0.262917	1.215044
H141	H	0.952706	0.299826	0.740408
H142	H	1.452706	0.799826	1.240408
H143	H	0.421250	0.047977	0.336665
H144	H	0.921250	0.547977	0.836665
H145	H	1.112230	0.098092	0.645126
H146	H	1.612230	0.598092	1.145126
Cl147	Cl	0.472994	0.137576	0.055073
Cl148	Cl	0.972994	0.637576	0.555073
