data_functionalizedCrystal
_audit_creation_method	'MofGen! by Chris Wilmer'
_symmetry_space_group_name_H-M	'P1'
_symmetry_Int_Tables_number	1
_symmetry_cell_setting	triclinic
loop_
_symmetry_equiv_pos_as_xyz
  x,y,z
_cell_length_a	23.532355
_cell_length_b	19.288859
_cell_length_c	17.766277
_cell_angle_alpha	89.993887
_cell_angle_beta	89.996455
_cell_angle_gamma	82.980612
loop_
_atom_site_label
_atom_site_type_symbol
_atom_site_fract_x
_atom_site_fract_y
_atom_site_fract_z
O1	O	0.755456	0.084148	-0.062492
O2	O	1.255456	0.584148	0.437508
O3	O	0.589613	0.096386	-0.062515
O4	O	1.089613	0.596386	0.437485
O5	O	0.677328	-0.010880	-0.062498
O6	O	1.177328	0.489120	0.437502
O7	O	0.667740	0.191413	-0.062509
O8	O	1.167740	0.691413	0.437491
O9	O	0.677313	-0.010885	0.062690
O10	O	1.177313	0.489115	0.562690
O11	O	0.589598	0.096380	0.062673
O12	O	1.089598	0.596380	0.562673
O13	O	0.755440	0.084142	0.062697
O14	O	1.255440	0.584142	0.562697
Cu15	Cu	0.672518	0.090261	0.074116
Cu16	Cu	1.172518	0.590261	0.574116
Cu17	Cu	0.672536	0.090267	-0.073934
Cu18	Cu	1.172536	0.590267	0.426066
O19	O	0.667725	0.191408	0.062680
O20	O	1.167725	0.691408	0.562680
C21	C	0.568388	0.096077	0.000076
C22	C	1.068388	0.596077	0.500076
C23	C	0.505168	0.095157	0.000067
C24	C	1.005168	0.595157	0.500067
C25	C	0.113134	0.089376	0.068339
C26	C	0.613134	0.589376	0.568339
C27	C	0.053732	0.088501	0.068342
C28	C	0.553732	0.588501	0.568342
O29	O	0.023006	0.088022	0.126377
O30	O	0.523006	0.588022	0.626377
N31	N	0.024031	0.088070	0.000102
N32	N	0.524031	0.588070	0.500102
C33	C	0.053735	0.088507	-0.068146
C34	C	0.553735	0.588507	0.431854
O35	O	0.023018	0.088059	-0.126189
O36	O	0.523018	0.588059	0.373811
C37	C	0.113136	0.089377	-0.068148
C38	C	0.613136	0.589377	0.431852
C39	C	0.142833	0.089815	0.000097
C40	C	0.642833	0.589815	0.500097
C41	C	0.142831	0.089813	0.136578
C42	C	0.642831	0.589813	0.636578
C43	C	0.202228	0.090689	0.136574
C44	C	0.702228	0.590689	0.636574
C45	C	0.231928	0.091128	0.068332
C46	C	0.731928	0.591128	0.568332
C47	C	0.202230	0.090691	0.000093
C48	C	0.702230	0.590691	0.500093
C49	C	0.142840	0.089809	-0.136394
C50	C	0.642840	0.589809	0.363606
C51	C	0.202244	0.090678	-0.136391
C52	C	0.702244	0.590678	0.363609
C53	C	0.231942	0.091116	-0.068146
C54	C	0.731942	0.591116	0.431854
C55	C	0.291327	0.092006	-0.068152
C56	C	0.791327	0.592006	0.431848
N57	N	0.321028	0.092437	0.000088
N58	N	0.821028	0.592437	0.500088
C59	C	0.291328	0.091998	0.068330
C60	C	0.791328	0.591998	0.568330
C61	C	-0.071010	0.086678	-0.068136
C62	C	0.428990	0.586678	0.431864
C63	C	-0.130410	0.085813	-0.068135
C64	C	0.369590	0.585813	0.431865
C65	C	-0.130409	0.085806	0.068353
C66	C	0.369591	0.585806	0.568353
C67	C	-0.071008	0.086676	0.068351
C68	C	0.428992	0.586676	0.568351
C69	C	-0.041309	0.087109	0.000104
C70	C	0.458691	0.587109	0.500104
C71	C	0.416066	0.093839	0.068318
C72	C	0.916066	0.593839	0.568318
C73	C	0.475468	0.094718	0.068309
C74	C	0.975468	0.594718	0.568309
C75	C	0.475462	0.094722	-0.068178
C76	C	0.975462	0.594722	0.431822
C77	C	0.416065	0.093846	-0.068169
C78	C	0.916065	0.593846	0.431831
C79	C	0.386369	0.093403	0.000085
C80	C	0.886369	0.593403	0.500085
O81	O	0.322092	0.092483	-0.126157
O82	O	0.822092	0.592483	0.373843
O83	O	0.322054	0.092437	0.126364
O84	O	0.822054	0.592437	0.626364
C85	C	0.677013	-0.036758	0.000095
C86	C	1.177013	0.463242	0.500095
C87	C	0.676088	-0.113859	0.000094
C88	C	1.176088	0.386141	0.500094
C89	C	0.776665	0.084451	0.000104
C90	C	1.276665	0.584451	0.500104
C91	C	0.839886	0.085371	0.000108
C92	C	1.339886	0.585371	0.500108
C93	C	0.721303	-0.678049	0.000081
C94	C	1.221303	-0.178049	0.500081
C95	C	0.722176	-0.605605	0.000087
C96	C	1.222176	-0.105605	0.500087
C97	C	0.670709	-0.560728	0.000080
C98	C	1.170709	-0.060728	0.500080
C99	C	0.618364	-0.588300	0.000084
C100	C	1.118364	-0.088300	0.500084
C101	C	0.617492	-0.660742	0.000085
C102	C	1.117492	-0.160742	0.500085
C103	C	0.632330	-0.439326	-0.043784
C104	C	1.132330	0.060674	0.456216
C105	C	0.633204	-0.366885	-0.043789
C106	C	1.133204	0.133115	0.456211
C107	C	0.673396	-0.337291	0.000081
C108	C	1.173396	0.162709	0.500081
C109	C	0.712724	-0.380149	0.043946
C110	C	1.212724	0.119851	0.543946
C111	C	0.711852	-0.452592	0.043947
C112	C	1.211852	0.047408	0.543947
C113	C	0.671649	-0.482176	0.000079
C114	C	1.171649	0.017824	0.500079
C115	C	0.726685	-0.231176	0.000089
C116	C	1.226685	0.268824	0.500089
C117	C	0.727556	-0.158731	0.000100
C118	C	1.227556	0.341269	0.500100
C119	C	0.623743	-0.141427	0.000090
C120	C	1.123743	0.358573	0.500090
C121	C	0.622873	-0.213871	0.000086
C122	C	1.122873	0.286129	0.500086
C123	C	0.674346	-0.258741	0.000082
C124	C	1.174346	0.241259	0.500082
C125	C	0.668041	0.217286	0.000084
C126	C	1.168041	0.717286	0.500084
C127	C	0.668965	0.294387	0.000081
C128	C	1.168965	0.794387	0.500081
N129	N	0.672509	0.090256	0.178246
N130	N	1.172509	0.590256	0.678246
N131	N	0.672549	0.090267	-0.178065
N132	N	1.172549	0.590267	0.321935
C133	C	0.711362	0.042782	0.217640
C134	C	1.211362	0.542782	0.717640
C135	C	0.711365	0.042779	0.296442
C136	C	1.211365	0.542779	0.796442
C137	C	0.672521	0.090261	0.335847
C138	C	1.172521	0.590261	0.835847
C139	C	0.633661	0.137739	0.296443
C140	C	1.133661	0.637739	0.796443
C141	C	0.633655	0.137736	0.217642
C142	C	1.133655	0.637736	0.717642
C143	C	0.664895	0.153575	0.460681
C144	C	1.164895	0.653575	0.960681
C145	C	0.664905	0.153578	0.539480
C146	C	1.164905	0.653578	1.039480
C147	C	0.672536	0.090270	0.578893
C148	C	1.172536	0.590270	1.078893
C149	C	0.680169	0.026955	0.539498
C150	C	1.180169	0.526955	1.039498
C151	C	0.680163	0.026952	0.460698
C152	C	1.180163	0.526952	0.960698
C153	C	0.672523	0.090269	0.421292
C154	C	1.172523	0.590269	0.921292
C155	C	0.711395	0.042788	0.703733
C156	C	1.211395	0.542788	1.203733
C157	C	0.711394	0.042784	0.782537
C158	C	1.211394	0.542784	1.282537
C159	C	0.633693	0.137751	0.782535
C160	C	1.133693	0.637751	1.282535
C161	C	0.633691	0.137749	0.703734
C162	C	1.133691	0.637749	1.203734
C163	C	0.672545	0.090268	0.664337
C164	C	1.172545	0.590268	1.164337
H165	H	0.499654	0.095082	-0.123739
H166	H	0.999654	0.595082	0.376261
H167	H	-0.046833	0.087034	0.123922
H168	H	0.453167	0.587034	0.623922
H169	H	0.602063	0.176409	0.814618
H170	H	1.102063	0.676409	1.314618
H171	H	0.763216	-0.714579	0.000081
H172	H	1.263216	-0.214579	0.500081
H173	H	0.581837	-0.104888	0.000090
H174	H	1.081837	0.395112	0.500090
C175	C	0.754129	-0.009447	0.660395
C176	C	1.254129	0.490553	1.160395
N177	N	0.786316	-0.048792	0.627754
N178	N	1.286316	0.451208	1.127754
C179	C	0.779754	-0.575278	0.000080
C180	C	1.279754	-0.075278	0.500080
N181	N	0.823122	-0.552437	0.000072
N182	N	1.323122	-0.052437	0.500072
H183	H	0.658694	0.205133	0.571549
H184	H	1.158694	0.705133	1.071549
C185	C	0.785135	-0.128412	0.000103
C186	C	1.285135	0.371588	0.500103
N187	N	0.828504	-0.105575	0.000104
N188	N	1.328504	0.394425	0.500104
C189	C	0.110170	0.089340	0.211656
C190	C	0.610170	0.589340	0.711656
N191	N	0.085572	0.088992	0.268210
N192	N	0.585572	0.588992	0.768210
H193	H	0.601185	-0.331996	-0.079511
H194	H	1.101185	0.168004	0.420489
H195	H	0.391894	0.093484	0.123897
H196	H	0.891894	0.593484	0.623897
C197	C	0.590990	0.190025	0.660398
C198	C	1.090990	0.690025	1.160398
N199	N	0.558838	0.229417	0.627758
N200	N	1.058838	0.729417	1.127758
H201	H	0.658671	0.205131	0.428597
H202	H	1.158671	0.705131	0.928597
C203	C	-0.163089	0.085316	0.143422
C204	C	0.336911	0.585316	0.643422
N205	N	-0.187705	0.084945	0.199959
N206	N	0.312295	0.584945	0.699959
H207	H	0.226402	0.091042	0.192146
H208	H	0.726402	0.591042	0.692146
H209	H	-0.154586	0.085468	-0.123706
H210	H	0.345414	0.585468	0.376294
H211	H	-0.046833	0.087038	-0.123714
H212	H	0.453167	0.587038	0.376286
C213	C	0.688562	-0.042690	0.582846
C214	C	1.188562	0.457310	1.082846
N215	N	0.694884	-0.095145	0.615500
N216	N	1.194884	0.404855	1.115500
H217	H	0.118671	0.089451	-0.191966
H218	H	0.618671	0.589451	0.308034
C219	C	0.590930	0.189967	0.339789
C220	C	1.090930	0.689967	0.839789
N221	N	0.558741	0.229305	0.372437
N222	N	1.058741	0.729305	0.872437
H223	H	0.602016	0.176396	0.185567
H224	H	1.102016	0.676396	0.685567
H225	H	0.743031	0.004121	0.814612
H226	H	1.243031	0.504121	1.314612
H227	H	0.391883	0.093501	-0.123740
H228	H	0.891883	0.593501	0.376260
C229	C	0.783305	-0.280537	0.000093
C230	C	1.283305	0.219463	0.500093
N231	N	0.825952	-0.317713	0.000098
N232	N	1.325952	0.182287	0.500098
H233	H	0.226422	0.091032	-0.191967
H234	H	0.726422	0.591032	0.308033
H235	H	0.599594	-0.463413	-0.079502
H236	H	1.099594	0.036587	0.420498
H237	H	0.743872	-0.487483	0.079665
H238	H	1.243872	0.012517	0.579665
H239	H	0.499644	0.095077	0.123884
H240	H	0.999644	0.595077	0.623884
C241	C	0.756938	-0.347602	0.092207
C242	C	1.256938	0.152398	0.592207
N243	N	0.790240	-0.323085	0.128555
N244	N	1.290240	0.176915	0.628555
H245	H	0.580254	-0.236313	0.000081
H246	H	1.080254	0.263687	0.500081
C247	C	0.561750	-0.538934	0.000073
C248	C	1.061750	-0.038934	0.500073
N249	N	0.519107	-0.501751	0.000066
N250	N	1.019107	-0.001751	0.500066
H251	H	0.574871	-0.683184	0.000087
H252	H	1.074871	-0.183184	0.500087
C253	C	0.754097	-0.009455	0.174309
C254	C	1.254097	0.490545	0.674309
N255	N	0.786284	-0.048802	0.141671
N256	N	1.286284	0.451198	0.641671
H257	H	0.743005	0.004118	0.328523
H258	H	1.243005	0.504118	0.828523
C259	C	0.688552	-0.042693	0.417366
C260	C	1.188552	0.457307	0.917366
N261	N	0.694867	-0.095151	0.384729
N262	N	1.194867	0.404849	0.884729
