data_functionalizedCrystal
_audit_creation_method	'MofGen! by Chris Wilmer'
_symmetry_space_group_name_H-M	'P1'
_symmetry_Int_Tables_number	1
_symmetry_cell_setting	triclinic
loop_
_symmetry_equiv_pos_as_xyz
  x,y,z
_cell_length_a	10.540514
_cell_length_b	10.540535
_cell_length_c	9.730217
_cell_angle_alpha	89.995378
_cell_angle_beta	89.998068
_cell_angle_gamma	84.519401
loop_
_atom_site_label
_atom_site_type_symbol
_atom_site_fract_x
_atom_site_fract_y
_atom_site_fract_z
O1	O	1.685898	0.178746	-0.114312
O2	O	1.316480	0.195635	-0.114311
O3	O	1.509620	0.002483	-0.114298
O4	O	1.492758	0.371898	-0.114326
O5	O	1.509614	0.002481	0.114282
O6	O	1.316474	0.195634	0.114269
O7	O	1.685892	0.178744	0.114268
Zn8	Zn	1.501182	0.187189	0.150560
Zn9	Zn	1.501190	0.187191	-0.150604
O10	O	1.492752	0.371896	0.114255
C11	C	1.269174	0.194375	-0.000021
C12	C	1.128224	0.190605	-0.000020
C13	C	1.057516	0.328746	-0.000034
C14	C	0.910903	0.324871	-0.000559
C15	C	0.935891	0.115479	-0.130299
C16	C	1.082430	0.120333	-0.130402
C17	C	1.082826	0.118287	0.129546
C18	C	0.935847	0.116954	0.131251
C19	C	1.508354	-0.044821	-0.000007
C20	C	1.504574	-0.185769	-0.000005
C21	C	1.363558	-0.222427	-0.000015
C22	C	1.359581	-0.369027	-0.000558
C23	C	1.568949	-0.395099	-0.130313
C24	C	1.571949	-0.248333	-0.130398
C25	C	1.573994	-0.248474	0.129549
C26	C	1.567472	-0.394820	0.131237
C27	C	1.733198	0.180005	-0.000025
C28	C	1.874148	0.183774	-0.000035
C29	C	1.494018	0.419200	-0.000039
C30	C	1.497798	0.560148	-0.000050
N31	N	1.501186	0.187186	0.356097
N32	N	1.501196	0.187183	-0.356140
C33	C	1.672282	0.016200	0.356100
C34	C	1.757838	-0.069289	0.428041
C35	C	1.757851	-0.069290	0.571921
C36	C	1.672296	0.016205	0.643862
C37	C	1.586739	0.101695	0.571921
C38	C	1.586738	0.101689	0.428038
C39	C	1.415639	0.272673	0.571919
C40	C	1.415631	0.272682	0.428039
C41	C	1.330084	0.358168	0.643860
C42	C	1.244532	0.443665	0.571919
C43	C	1.244523	0.443664	0.428031
C44	C	1.330074	0.358171	0.356098
H45	H	0.894849	0.166864	0.227622
Br46	Br	0.895532	-0.054463	0.145036
H47	H	1.087745	0.383965	-0.093318
Br48	Br	1.161615	-0.051531	0.131676
H49	H	1.303925	-0.398367	0.092793
Br50	Br	0.839779	0.414413	0.155035
H51	H	1.309404	-0.180460	0.093391
Br52	Br	1.744247	-0.209953	-0.139592
Br53	Br	0.898709	-0.057250	-0.137756
H54	H	1.672290	0.016203	0.238945
H55	H	1.827494	-0.138901	0.369453
H56	H	1.310316	-0.178956	-0.093292
Br57	Br	1.491873	-0.181349	-0.293317
H58	H	1.114317	0.164270	0.228313
Br59	Br	1.330078	0.358169	0.160831
Br60	Br	1.129484	0.203468	-0.293334
Br61	Br	1.105962	0.422543	0.154969
H62	H	1.174848	0.513274	0.369464
H63	H	1.827514	-0.138907	0.630495
Br64	Br	1.672291	0.016185	0.839129
Br65	Br	1.162454	-0.048791	-0.139649
H66	H	1.304219	-0.397466	-0.094497
Br67	Br	1.738571	-0.474034	-0.137786
H68	H	0.869173	0.378360	-0.094495
Br69	Br	1.500648	-0.177718	0.294183
H70	H	1.520137	-0.425985	-0.227634
H71	H	1.668352	-0.443865	0.139495
Br72	Br	0.865017	0.193619	-0.292512
H73	H	1.515695	-0.423430	0.227608
Br74	Br	1.746919	-0.211513	0.131659
H75	H	1.330093	0.358158	0.761015
H76	H	1.174873	0.513264	0.630503
