data_functionalizedCrystal
_audit_creation_method	'MofGen! by Chris Wilmer'
_symmetry_space_group_name_H-M	'P1'
_symmetry_Int_Tables_number	1
_symmetry_cell_setting	triclinic
loop_
_symmetry_equiv_pos_as_xyz
  x,y,z
_cell_length_a	21.395362
_cell_length_b	16.625545
_cell_length_c	21.395355
_cell_angle_alpha	89.983687
_cell_angle_beta	90.043940
_cell_angle_gamma	89.960085
loop_
_atom_site_label
_atom_site_type_symbol
_atom_site_fract_x
_atom_site_fract_y
_atom_site_fract_z
Zn1	Zn	0.957889	0.320753	0.354595
Zn2	Zn	1.291222	0.654087	0.687929
Zn3	Zn	1.624555	0.987420	1.021262
Zn4	Zn	0.957803	0.455568	0.249822
Zn5	Zn	1.291137	0.788902	0.583155
Zn6	Zn	1.624470	1.122235	0.916488
Zn7	Zn	0.853103	0.320791	0.249796
Zn8	Zn	1.186437	0.654124	0.583130
Zn9	Zn	1.519770	0.987457	0.916463
Zn10	Zn	0.853085	0.455585	0.354526
Zn11	Zn	1.186418	0.788918	0.687860
Zn12	Zn	1.519752	1.122252	1.021193
O13	O	0.905470	0.388174	0.302185
O14	O	1.238803	0.721508	0.635518
O15	O	1.572137	1.054841	0.968852
O16	O	1.045555	0.338614	0.340736
O17	O	1.378888	0.671947	0.674069
O18	O	1.712222	1.005281	1.007403
O19	O	0.943887	0.437699	0.162140
O20	O	1.277220	0.771032	0.495474
O21	O	1.610553	1.104365	0.828807
O22	O	0.867047	0.207953	0.263716
O23	O	1.200380	0.541287	0.597050
O24	O	1.533714	0.874620	0.930383
O25	O	1.045492	0.437662	0.263760
O26	O	1.378826	0.770996	0.597093
O27	O	1.712159	1.104329	0.930426
O28	O	0.944032	0.207926	0.340712
O29	O	1.277365	0.541259	0.674045
O30	O	1.610699	0.874593	1.007378
O31	O	0.866964	0.338678	0.162122
O32	O	1.200298	0.672011	0.495455
O33	O	1.533631	1.005345	0.828789
O34	O	0.765423	0.338694	0.263650
O35	O	1.098756	0.672028	0.596983
O36	O	1.432090	1.005361	0.930316
O37	O	0.867015	0.437690	0.442214
O38	O	1.200349	0.771024	0.775547
O39	O	1.533682	1.104357	1.108880
O40	O	0.765409	0.437727	0.340594
O41	O	1.098743	0.771060	0.673928
O42	O	1.432076	1.104394	1.007261
O43	O	0.944014	0.338630	0.442264
O44	O	1.277347	0.671964	0.775597
O45	O	1.610681	1.005297	1.108931
O46	O	0.943869	0.568403	0.263693
O47	O	1.277202	0.901736	0.597026
O48	O	1.610535	1.235070	0.930360
O49	O	0.866932	0.568415	0.340619
O50	O	1.200266	0.901749	0.673952
O51	O	1.533599	1.235082	1.007286
C52	C	0.742682	0.388217	0.302112
C53	C	1.076016	0.721550	0.635446
C54	C	1.409349	1.054884	0.968779
C55	C	0.673041	0.388255	0.302096
C56	C	1.006374	0.721588	0.635429
C57	C	1.339708	1.054921	0.968763
C58	C	0.640337	0.439889	0.342101
C59	C	0.973671	0.773223	0.675434
C60	C	1.307004	1.106556	1.008768
C61	C	0.574902	0.439870	0.342129
C62	C	0.908235	0.773203	0.675462
C63	C	1.241568	1.106536	1.008796
C64	C	0.542173	0.388224	0.302141
C65	C	0.875506	0.721557	0.635474
C66	C	1.208839	1.054890	0.968807
C67	C	0.574885	0.336579	0.262133
C68	C	0.908218	0.669912	0.595466
C69	C	1.241551	1.003246	0.928799
C70	C	0.640319	0.336594	0.262110
C71	C	0.973652	0.669928	0.595444
C72	C	1.306985	1.003261	0.928777
C73	C	0.438447	0.381728	0.245735
C74	C	0.771781	0.715061	0.579069
C75	C	1.105114	1.048395	0.912402
C76	C	0.373015	0.381718	0.245757
C77	C	0.706348	0.715051	0.579090
C78	C	1.039681	1.048385	0.912423
C79	C	0.340352	0.388171	0.302210
C80	C	0.673685	0.721504	0.635543
C81	C	1.007019	1.054838	0.968877
C82	C	0.373131	0.394651	0.358644
C83	C	0.706464	0.727984	0.691977
C84	C	1.039797	1.061317	1.025310
C85	C	0.438565	0.394666	0.358621
C86	C	0.771898	0.728000	0.691955
C87	C	1.105231	1.061333	1.025288
C88	C	0.471220	0.388201	0.302161
C89	C	0.804554	0.721534	0.635494
C90	C	1.137887	1.054867	0.968827
C91	C	0.236696	0.439787	0.342249
C92	C	0.570029	0.773120	0.675582
C93	C	0.903362	1.106454	1.008915
C94	C	0.171259	0.439762	0.342278
C95	C	0.504592	0.773095	0.675611
C96	C	0.837926	1.106428	1.008944
C97	C	0.171243	0.336475	0.262276
C98	C	0.504576	0.669809	0.595609
C99	C	0.837910	1.003142	0.928942
C100	C	0.236678	0.336496	0.262252
C101	C	0.570012	0.669830	0.595586
C102	C	0.903345	1.003163	0.928919
C103	C	0.269401	0.388157	0.302238
C104	C	0.602734	0.721490	0.635571
C105	C	0.936067	1.054823	0.968905
C106	C	0.905406	0.597665	0.302165
C107	C	1.238740	0.930999	0.635498
C108	C	1.572073	1.264332	0.968832
C109	C	0.905436	0.687286	0.302177
C110	C	1.238770	1.020620	0.635511
C111	C	1.572103	1.353953	0.968844
C112	C	0.905539	1.015462	0.302252
C113	C	1.238872	1.348795	0.635585
C114	C	1.572205	1.682129	0.968919
C115	C	0.905508	0.924153	0.302233
C116	C	1.238841	1.257487	0.635566
C117	C	1.572175	1.590820	0.968900
C118	C	0.905487	0.851377	0.302214
C119	C	1.238820	1.184710	0.635548
C120	C	1.572154	1.518044	0.968881
C121	C	0.905457	0.760063	0.302196
C122	C	1.238791	1.093396	0.635529
C123	C	1.572124	1.426729	0.968863
C124	C	1.068893	0.388132	0.302258
C125	C	1.402227	0.721465	0.635592
C126	C	1.735560	1.054799	0.968925
C127	C	1.138535	0.388114	0.302290
C128	C	1.471868	0.721447	0.635623
C129	C	1.805201	1.054781	0.968956
C130	C	0.905522	0.388158	0.465608
C131	C	1.238855	0.721491	0.798942
C132	C	1.572189	1.054825	1.132275
C133	C	0.905544	0.388151	0.535250
C134	C	1.238878	0.721484	0.868583
C135	C	1.572211	1.054818	1.201916
C136	C	0.905546	1.177865	0.302226
C137	C	1.238879	1.511199	0.635560
C138	C	1.572212	1.844532	0.968893
C139	C	0.905564	1.088244	0.302263
C140	C	1.238898	1.421578	0.635596
C141	C	1.572231	1.754911	0.968929
C142	C	0.905454	0.388132	0.139397
C143	C	1.238788	0.721466	0.472731
C144	C	1.572121	1.054799	0.806064
C145	C	0.905553	0.387912	0.069757
C146	C	1.238887	0.721246	0.403090
C147	C	1.572220	1.054579	0.736423
C148	C	0.945636	0.336568	0.567990
C149	C	1.278969	0.669902	0.901323
C150	C	1.612302	1.003235	1.234657
C151	C	0.945635	0.336534	0.633425
C152	C	1.278968	0.669867	0.966759
C153	C	1.612302	1.003200	1.300092
C154	C	0.905549	0.388096	0.666118
C155	C	1.238882	0.721429	0.999451
C156	C	1.572216	1.054763	1.332785
C157	C	0.865450	0.439683	0.633370
C158	C	1.198783	0.773016	0.966703
C159	C	1.532116	1.106349	1.300036
C160	C	0.865447	0.439710	0.567935
C161	C	1.198781	0.773043	0.901269
C162	C	1.532114	1.106377	1.234602
C163	C	0.900580	0.460699	0.769784
C164	C	1.233913	0.794032	1.103117
C165	C	1.567246	1.127365	1.436451
C166	C	0.900587	0.460672	0.835217
C167	C	1.233920	0.794006	1.168550
C168	C	1.567253	1.127339	1.501884
C169	C	0.905553	0.388011	0.867939
C170	C	1.238886	0.721344	1.201272
C171	C	1.572220	1.054678	1.534606
C172	C	0.910526	0.315373	0.835220
C173	C	1.243859	0.648707	1.168553
C174	C	1.577192	0.982040	1.501886
C175	C	0.910523	0.315401	0.769785
C176	C	1.243857	0.648734	1.103119
C177	C	1.577190	0.982067	1.436452
C178	C	0.905547	0.388072	0.737070
C179	C	1.238880	0.721405	1.070404
C180	C	1.572214	1.054738	1.403737
C181	C	0.945646	0.336386	0.971632
C182	C	1.278979	0.669719	1.304965
C183	C	1.612312	1.003053	1.638299
C184	C	0.945640	0.336350	1.037069
C185	C	1.278974	0.669683	1.370402
C186	C	1.612307	1.003017	1.703735
C187	C	0.865459	0.439506	1.037011
C188	C	1.198792	0.772840	1.370345
C189	C	1.532125	1.106173	1.703678
C190	C	0.865461	0.439535	0.971576
C191	C	1.198794	0.772868	1.304909
C192	C	1.532127	1.106202	1.638243
C193	C	0.905557	0.387976	0.938890
C194	C	1.238891	0.721309	1.272224
C195	C	1.572224	1.054643	1.605557
H196	H	0.548269	0.481916	0.374708
H197	H	0.881602	0.815250	0.708042
H198	H	1.214936	1.148583	1.041375
O199	O	0.915882	0.236991	0.870497
O200	O	1.249216	0.570324	1.203831
O201	O	1.582549	0.903657	1.537164
H202	H	0.876060	0.197419	0.857896
H203	H	1.209393	0.530752	1.191229
H204	H	1.542727	0.864086	1.524562
O205	O	0.675627	0.495604	0.385232
O206	O	1.008960	0.828937	0.718565
O207	O	1.342294	1.162271	1.051898
H208	H	0.726623	0.486947	0.378494
H209	H	1.059956	0.820280	0.711827
H210	H	1.393290	1.153614	1.045160
O211	O	0.271992	0.495476	0.385397
O212	O	0.605325	0.828809	0.718731
O213	O	0.938658	1.162142	1.052064
H214	H	0.322987	0.486813	0.378661
H215	H	0.656320	0.820146	0.711995
H216	H	0.989654	1.153479	1.045328
O217	O	0.822195	0.495348	0.532628
O218	O	1.155528	0.828681	0.865961
O219	O	1.488862	1.162015	1.199295
H220	H	0.850211	0.536382	0.502833
H221	H	1.183544	0.869715	0.836167
H222	H	1.516878	1.203048	1.169500
O223	O	0.135945	0.280774	0.219145
O224	O	0.469279	0.614108	0.552478
O225	O	0.802612	0.947441	0.885812
H226	H	0.148554	0.217514	0.229975
H227	H	0.481887	0.550848	0.563309
H228	H	0.815221	0.884181	0.896642
O229	O	0.337666	0.374725	0.184891
O230	O	0.670999	0.708058	0.518224
O231	O	1.004333	1.041391	0.851557
H232	H	0.350162	0.425929	0.154046
H233	H	0.683495	0.759263	0.487380
H234	H	1.016829	1.092596	0.820713
H235	H	0.914571	0.256257	0.743148
H236	H	1.247904	0.589590	1.076482
H237	H	1.581237	0.922923	1.409815
H238	H	0.666946	0.294545	0.229533
H239	H	1.000279	0.627878	0.562867
H240	H	1.333612	0.961212	0.896200
H241	H	0.465250	0.399940	0.404572
H242	H	0.798584	0.733273	0.737905
H243	H	1.131917	1.066606	1.071238
H244	H	0.832810	0.481663	0.659992
H245	H	1.166143	0.814996	0.993325
H246	H	1.499476	1.148329	1.326659
O247	O	0.988888	0.280770	0.936377
O248	O	1.322221	0.614104	1.269710
O249	O	1.655555	0.947437	1.603044
H250	H	1.020756	0.316865	0.906598
H251	H	1.354090	0.650198	1.239931
H252	H	1.687423	0.983532	1.573265
O253	O	0.895217	0.539011	0.870506
O254	O	1.228550	0.872344	1.203840
O255	O	1.561883	1.205678	1.537173
H256	H	0.891747	0.589540	0.836761
H257	H	1.225081	0.922873	1.170095
H258	H	1.558414	1.256207	1.503428
H259	H	0.465036	0.376470	0.199761
H260	H	0.798369	0.709803	0.533094
H261	H	1.131702	1.043137	0.866428
O262	O	0.337917	0.401598	0.419543
O263	O	0.671250	0.734931	0.752876
O264	O	1.004583	1.068265	1.086209
H265	H	0.308057	0.456203	0.418493
H266	H	0.641390	0.789536	0.751826
H267	H	0.974724	1.122870	1.085160
H268	H	0.978281	0.294524	0.660088
H269	H	1.311614	0.627858	0.993421
H270	H	1.644948	0.961191	1.326755
O271	O	0.271953	0.280807	0.219098
O272	O	0.605287	0.614141	0.552431
O273	O	0.938620	0.947474	0.885764
H274	H	0.322952	0.289490	0.225803
H275	H	0.656285	0.622823	0.559137
H276	H	0.989619	0.956156	0.892470
H277	H	0.144633	0.481807	0.374858
H278	H	0.477966	0.815141	0.708192
H279	H	0.811299	1.148474	1.041525
O280	O	0.988885	0.280713	1.072387
O281	O	1.322218	0.614047	1.405720
O282	O	1.655552	0.947380	1.739053
H283	H	1.016769	0.244875	1.038662
H284	H	1.350102	0.578208	1.371996
H285	H	1.683436	0.911541	1.705329
H286	H	0.832814	0.481481	1.063629
H287	H	1.166147	0.814815	1.396962
H288	H	1.499480	1.148148	1.730296
H289	H	0.548232	0.294527	0.229575
H290	H	0.881566	0.627860	0.562908
H291	H	1.214899	0.961194	0.896242
O292	O	0.822202	0.495149	0.936256
O293	O	1.155535	0.828483	1.269590
O294	O	1.488869	1.161816	1.602923
H295	H	0.794322	0.530993	0.969981
H296	H	1.127655	0.864327	1.303314
H297	H	1.460988	1.197660	1.636647
O298	O	0.988879	0.280958	0.532734
O299	O	1.322212	0.614292	0.866068
O300	O	1.655545	0.947625	1.199401
H301	H	1.016754	0.245080	0.566499
H302	H	1.350088	0.578413	0.899832
H303	H	1.683421	0.911746	1.233165
O304	O	0.895215	0.539073	0.734492
O305	O	1.228548	0.872406	1.067826
O306	O	1.561881	1.205739	1.401159
H307	H	0.891765	0.589576	0.768235
H308	H	1.225098	0.922909	1.101568
H309	H	1.558431	1.256242	1.434901
