data_functionalizedCrystal
_audit_creation_method	'MofGen! by Chris Wilmer'
_symmetry_space_group_name_H-M	'P1'
_symmetry_Int_Tables_number	1
_symmetry_cell_setting	triclinic
loop_
_symmetry_equiv_pos_as_xyz
  x,y,z
_cell_length_a	27.732048
_cell_length_b	27.732048
_cell_length_c	10.868271
_cell_angle_alpha	89.989927
_cell_angle_beta	90.001179
_cell_angle_gamma	82.642655
loop_
_atom_site_label
_atom_site_type_symbol
_atom_site_fract_x
_atom_site_fract_y
_atom_site_fract_z
O1	O	0.640927	0.057517	-0.102177
O2	O	0.974260	0.390851	0.231157
O3	O	1.307594	0.724184	0.564490
O4	O	0.500134	0.066263	-0.102216
O5	O	0.833467	0.399596	0.231117
O6	O	1.166800	0.732929	0.564451
O7	O	0.574903	-0.008507	-0.102172
O8	O	0.908236	0.324827	0.231162
O9	O	1.241570	0.658160	0.564495
O10	O	0.566157	0.132287	-0.102221
O11	O	0.899491	0.465620	0.231112
O12	O	1.232824	0.798953	0.564446
O13	O	0.574897	-0.008510	0.102473
O14	O	0.908230	0.324824	0.435806
O15	O	1.241564	0.658157	0.769140
O16	O	0.500127	0.066260	0.102429
O17	O	0.833461	0.399593	0.435762
O18	O	1.166794	0.732927	0.769095
O19	O	0.640921	0.057514	0.102468
O20	O	0.974254	0.390848	0.435801
O21	O	1.307588	0.724181	0.769135
Zn22	Zn	0.570523	0.061887	0.134940
Zn23	Zn	0.903857	0.395220	0.468273
Zn24	Zn	1.237190	0.728553	0.801607
Zn25	Zn	0.570531	0.061890	-0.134688
Zn26	Zn	0.903865	0.395224	0.198645
Zn27	Zn	1.237198	0.728557	0.531979
O28	O	0.566151	0.132284	0.102424
O29	O	0.899485	0.465617	0.435757
O30	O	1.232818	0.798951	0.769090
C31	C	0.482124	0.066078	0.000102
C32	C	0.815457	0.399411	0.333435
C33	C	1.148790	0.732744	0.666768
C34	C	0.428469	0.065525	0.000088
C35	C	0.761802	0.398858	0.333421
C36	C	1.095135	0.732192	0.666755
C37	C	0.089654	0.106229	0.000127
C38	C	0.422987	0.439562	0.333460
C39	C	0.756320	0.772895	0.666794
C40	C	-0.112006	0.104178	0.000139
C41	C	0.221327	0.437511	0.333472
C42	C	0.554661	0.770844	0.666805
O43	O	-0.143262	0.141398	0.000179
O44	O	0.190072	0.474732	0.333512
O45	O	0.523405	0.808065	0.666846
N46	N	-0.131130	0.059843	0.000152
N47	N	0.202204	0.393176	0.333485
N48	N	0.535537	0.726509	0.666819
C49	C	-0.099835	0.016017	0.000170
C50	C	0.233498	0.349350	0.333504
C51	C	0.566832	0.682684	0.666837
O52	O	-0.120728	-0.021740	0.000195
O53	O	0.212605	0.311593	0.333528
O54	O	0.545938	0.644927	0.666861
C55	C	0.101824	0.018068	0.000168
C56	C	0.435157	0.351402	0.333501
C57	C	0.768490	0.684735	0.666834
C58	C	0.120944	0.062407	0.000142
C59	C	0.454278	0.395740	0.333475
C60	C	0.787611	0.729073	0.666808
C61	C	0.108775	0.150563	0.000102
C62	C	0.442108	0.483897	0.333436
C63	C	0.775442	0.817230	0.666769
C64	C	0.159187	0.151075	0.000093
C65	C	0.492520	0.484409	0.333426
C66	C	0.825853	0.817742	0.666760
C67	C	0.190477	0.107253	0.000108
C68	C	0.523811	0.440587	0.333441
C69	C	0.857144	0.773920	0.666774
C70	C	0.171356	0.062919	0.000132
C71	C	0.504690	0.396252	0.333465
C72	C	0.838023	0.729585	0.666799
C73	C	0.133117	-0.025757	0.000195
C74	C	0.466451	0.307577	0.333528
C75	C	0.799784	0.640910	0.666861
C76	C	0.183535	-0.025240	0.000197
C77	C	0.516868	0.308094	0.333531
C78	C	0.850201	0.641427	0.666864
C79	C	0.202655	0.019098	0.000171
C80	C	0.535989	0.352432	0.333505
C81	C	0.869322	0.685765	0.666838
C82	C	0.253059	0.019609	0.000137
C83	C	0.586392	0.352942	0.333471
C84	C	0.919725	0.686276	0.666804
N85	N	0.272183	0.063944	0.000124
N86	N	0.605516	0.397277	0.333457
N87	N	0.938849	0.730611	0.666791
C88	C	0.240892	0.107766	0.000109
C89	C	0.574225	0.441100	0.333442
C90	C	0.907559	0.774433	0.666776
C91	C	-0.205709	0.014943	0.000170
C92	C	0.127624	0.348276	0.333503
C93	C	0.460957	0.681610	0.666836
C94	C	-0.256124	0.014430	0.000168
C95	C	0.077210	0.347763	0.333501
C96	C	0.410543	0.681097	0.666835
C97	C	-0.268291	0.102591	0.000139
C98	C	0.065042	0.435924	0.333472
C99	C	0.398376	0.769258	0.666805
C100	C	-0.217876	0.103104	0.000131
C101	C	0.115458	0.436437	0.333465
C102	C	0.448791	0.769770	0.666798
C103	C	-0.186585	0.059278	0.000156
C104	C	0.146748	0.392612	0.333490
C105	C	0.480081	0.725945	0.666823
C106	C	0.346761	0.108839	0.000088
C107	C	0.680094	0.442172	0.333421
C108	C	1.013428	0.775505	0.666754
C109	C	0.397178	0.109347	0.000073
C110	C	0.730511	0.442681	0.333406
C111	C	1.063845	0.776014	0.666740
C112	C	0.409341	0.021186	0.000109
C113	C	0.742674	0.354520	0.333442
C114	C	1.076008	0.687853	0.666776
C115	C	0.358929	0.020678	0.000117
C116	C	0.692262	0.354011	0.333451
C117	C	1.025595	0.687344	0.666784
C118	C	0.327639	0.064508	0.000111
C119	C	0.660973	0.397841	0.333444
C120	C	0.994306	0.731175	0.666778
O121	O	0.284343	-0.017592	0.000111
O122	O	0.617676	0.315741	0.333444
O123	O	0.951009	0.649075	0.666778
O124	O	0.261794	0.145518	0.000112
O125	O	0.595128	0.478851	0.333445
O126	O	0.928461	0.812184	0.666779
C127	C	0.039242	0.105716	0.000137
C128	C	0.372575	0.439050	0.333470
C129	C	0.705908	0.772383	0.666803
C130	C	0.020120	0.061382	0.000161
C131	C	0.353454	0.394715	0.333494
C132	C	0.686787	0.728049	0.666828
C133	C	0.051411	0.017560	0.000176
C134	C	0.384744	0.350893	0.333509
C135	C	0.718078	0.684226	0.666842
C136	C	-0.030294	0.060869	0.000160
C137	C	0.303039	0.394202	0.333493
C138	C	0.636373	0.727536	0.666826
C139	C	-0.061585	0.104691	0.000145
C140	C	0.271749	0.438025	0.333478
C141	C	0.605082	0.771358	0.666811
C142	C	-0.042461	0.149026	0.000131
C143	C	0.290872	0.482360	0.333465
C144	C	0.624206	0.815693	0.666798
C145	C	0.007951	0.149539	0.000122
C146	C	0.341284	0.482872	0.333455
C147	C	0.674618	0.816205	0.666788
C148	C	0.032287	-0.026775	0.000189
C149	C	0.365621	0.306558	0.333522
C150	C	0.698954	0.639891	0.666856
C151	C	-0.018125	-0.027284	0.000197
C152	C	0.315208	0.306049	0.333531
C153	C	0.648541	0.639383	0.666864
C154	C	-0.049416	0.016538	0.000183
C155	C	0.283917	0.349871	0.333516
C156	C	0.617251	0.683205	0.666849
C157	C	0.574716	-0.026515	0.000154
C158	C	0.908050	0.306818	0.333487
C159	C	1.241383	0.640152	0.666821
C160	C	0.574164	-0.080170	0.000164
C161	C	0.907497	0.253163	0.333497
C162	C	1.240830	0.586497	0.666831
C163	C	0.614867	-0.418985	0.000112
C164	C	0.948201	-0.085652	0.333445
C165	C	1.281534	0.247682	0.666779
C166	C	0.612816	-0.620645	0.000094
C167	C	0.946150	-0.287311	0.333428
C168	C	1.279483	0.046022	0.666761
O169	O	0.650037	-0.651900	0.000051
O170	O	0.983370	-0.318567	0.333384
O171	O	1.316704	0.014766	0.666717
N172	N	0.568481	-0.639768	0.000083
N173	N	0.901814	-0.306435	0.333417
N174	N	1.235148	0.026898	0.666750
C175	C	0.524656	-0.608474	0.000068
C176	C	0.857989	-0.275140	0.333402
C177	C	1.191322	0.058193	0.666735
O178	O	0.486899	-0.629367	0.000046
O179	O	0.820232	-0.296033	0.333379
O180	O	1.153565	0.037300	0.666712
C181	C	0.526707	-0.406815	0.000077
C182	C	0.860040	-0.073482	0.333411
C183	C	1.193374	0.259852	0.666744
C184	C	0.571045	-0.387694	0.000101
C185	C	0.904378	-0.054361	0.333434
C186	C	1.237712	0.278972	0.666768
C187	C	0.659202	-0.399864	0.000134
C188	C	0.992535	-0.066530	0.333468
C189	C	1.325868	0.266803	0.666801
C190	C	0.659714	-0.349452	0.000145
C191	C	0.993047	-0.016118	0.333479
C192	C	1.326381	0.317215	0.666812
C193	C	0.615892	-0.318161	0.000134
C194	C	0.949225	0.015172	0.333468
C195	C	1.282559	0.348506	0.666801
C196	C	0.571557	-0.337282	0.000112
C197	C	0.904891	-0.003949	0.333445
C198	C	1.238224	0.329384	0.666779
C199	C	0.482882	-0.375521	0.000054
C200	C	0.816215	-0.042188	0.333387
C201	C	1.149549	0.291145	0.666720
C202	C	0.483399	-0.325104	0.000053
C203	C	0.816732	0.008229	0.333386
C204	C	1.150066	0.341563	0.666719
C205	C	0.527737	-0.305983	0.000076
C206	C	0.861070	0.027350	0.333410
C207	C	1.194404	0.360683	0.666743
C208	C	0.528247	-0.255580	0.000112
C209	C	0.861581	0.077754	0.333445
C210	C	1.194914	0.411087	0.666779
N211	N	0.572583	-0.236456	0.000123
N212	N	0.905916	0.096877	0.333457
N213	N	1.239249	0.430211	0.666790
C214	C	0.616405	-0.267747	0.000134
C215	C	0.949738	0.065587	0.333468
C216	C	1.283072	0.398920	0.666801
C217	C	0.523582	-0.714348	0.000066
C218	C	0.856915	-0.381014	0.333399
C219	C	1.190248	-0.047681	0.666733
C220	C	0.523069	-0.764762	0.000066
C221	C	0.856402	-0.431429	0.333399
C222	C	1.189735	-0.098096	0.666733
C223	C	0.611230	-0.776930	0.000090
C224	C	0.944563	-0.443596	0.333423
C225	C	1.277896	-0.110263	0.666756
C226	C	0.611742	-0.726514	0.000099
C227	C	0.945075	-0.393181	0.333432
C228	C	1.278409	-0.059848	0.666765
C229	C	0.567917	-0.695224	0.000077
C230	C	0.901250	-0.361891	0.333411
C231	C	1.234583	-0.028557	0.666744
C232	C	0.617477	-0.161878	0.000159
C233	C	0.950811	0.171456	0.333492
C234	C	1.284144	0.504789	0.666825
C235	C	0.617986	-0.111461	0.000175
C236	C	0.951319	0.221873	0.333508
C237	C	1.284652	0.555206	0.666842
C238	C	0.529825	-0.099298	0.000145
C239	C	0.863158	0.234036	0.333478
C240	C	1.196492	0.567369	0.666812
C241	C	0.529316	-0.149710	0.000135
C242	C	0.862650	0.183623	0.333468
C243	C	1.195983	0.516957	0.666802
C244	C	0.573147	-0.180999	0.000138
C245	C	0.906480	0.152334	0.333471
C246	C	1.239813	0.485667	0.666805
O247	O	0.491047	-0.224296	0.000142
O248	O	0.824380	0.109038	0.333475
O249	O	1.157713	0.442371	0.666808
O250	O	0.654156	-0.246844	0.000130
O251	O	0.987490	0.086489	0.333463
O252	O	1.320823	0.419823	0.666796
C253	C	0.614355	-0.469397	0.000101
C254	C	0.947688	-0.136064	0.333434
C255	C	1.281022	0.197270	0.666768
C256	C	0.570021	-0.488518	0.000079
C257	C	0.903354	-0.155185	0.333412
C258	C	1.236687	0.178148	0.666745
C259	C	0.526198	-0.457228	0.000068
C260	C	0.859532	-0.123894	0.333401
C261	C	1.192865	0.209439	0.666734
C262	C	0.569508	-0.538933	0.000079
C263	C	0.902841	-0.205599	0.333412
C264	C	1.236174	0.127734	0.666745
C265	C	0.613330	-0.570223	0.000090
C266	C	0.946663	-0.236890	0.333423
C267	C	1.279996	0.096443	0.666756
C268	C	0.657665	-0.551100	0.000101
C269	C	0.990998	-0.217766	0.333434
C270	C	1.324332	0.115567	0.666768
C271	C	0.658177	-0.500688	0.000112
C272	C	0.991511	-0.167354	0.333445
C273	C	1.324844	0.165979	0.666779
C274	C	0.481863	-0.476351	0.000056
C275	C	0.815197	-0.143018	0.333390
C276	C	1.148530	0.190315	0.666723
C277	C	0.481355	-0.526764	0.000047
C278	C	0.814688	-0.193430	0.333380
C279	C	1.148021	0.139903	0.666713
C280	C	0.525177	-0.558054	0.000058
C281	C	0.858510	-0.224721	0.333391
C282	C	1.191843	0.108612	0.666724
C283	C	0.658931	0.057699	0.000147
C284	C	0.992264	0.391033	0.333481
C285	C	1.325598	0.724366	0.666814
C286	C	0.712586	0.058252	0.000153
C287	C	1.045919	0.391586	0.333487
C288	C	1.379252	0.724919	0.666820
C289	C	0.566338	0.150292	0.000095
C290	C	0.899671	0.483626	0.333429
C291	C	1.233005	0.816959	0.666762
C292	C	0.566891	0.203947	0.000077
C293	C	0.900224	0.537280	0.333411
C294	C	1.233557	0.870614	0.666744
N295	N	0.570521	0.061884	0.318954
N296	N	0.903855	0.395217	0.652287
N297	N	1.237188	0.728551	0.985621
N298	N	0.570537	0.061889	-0.318702
N299	N	0.903870	0.395223	0.014631
N300	N	1.237204	0.728556	0.347964
C301	C	0.570529	0.061889	0.569960
C302	C	0.903862	0.395223	0.903293
C303	C	1.237195	0.728556	1.236627
C304	C	0.570523	0.061888	0.430283
C305	C	0.903856	0.395221	0.763616
C306	C	1.237190	0.728554	1.096949
H307	H	0.083302	0.186251	0.000095
H308	H	0.416636	0.519584	0.333428
H309	H	0.749969	0.852917	0.666762
Br310	Br	0.451816	-0.038284	0.000132
Br311	Br	0.785150	0.295050	0.333465
Br312	Br	1.118483	0.628383	0.666799
Br313	Br	0.185128	0.211252	0.000063
Br314	Br	0.518461	0.544585	0.333397
Br315	Br	0.851795	0.877918	0.666730
H316	H	0.412743	0.145454	0.000051
H317	H	0.746076	0.478787	0.333385
H318	H	1.079410	0.812121	0.666718
H319	H	-0.293777	0.138273	0.000127
H320	H	0.039557	0.471606	0.333460
H321	H	0.372890	0.804939	0.666793
H322	H	0.694889	-0.425336	0.000139
H323	H	1.028223	-0.092003	0.333472
H324	H	1.361556	0.241330	0.666805
H325	H	0.647846	-0.710950	0.000117
H326	H	0.981179	-0.377617	0.333450
H327	H	1.314513	-0.044283	0.666783
Br328	Br	-0.282067	-0.045745	0.000166
Br329	Br	0.051267	0.287588	0.333499
Br330	Br	0.384600	0.620921	0.666833
H331	H	0.486964	-0.780325	0.000068
H332	H	0.820297	-0.446992	0.333402
H333	H	1.153631	-0.113659	0.666735
Br334	Br	0.033892	0.209715	0.000084
Br335	Br	0.367226	0.543048	0.333418
Br336	Br	0.700559	0.876382	0.666751
H337	H	0.487892	-0.688875	0.000049
H338	H	0.821225	-0.355542	0.333382
H339	H	1.154558	-0.022208	0.666716
Br340	Br	0.670702	-0.819405	0.000102
Br341	Br	1.004036	-0.486072	0.333435
Br342	Br	1.337369	-0.152738	0.666768
H343	H	0.209009	-0.060929	0.000218
H344	H	0.542343	0.272405	0.333552
H345	H	0.875676	0.605738	0.666885
H346	H	0.343360	-0.015426	0.000120
H347	H	0.676693	0.317907	0.333454
H348	H	1.010027	0.651241	0.666787
H349	H	-0.202311	0.139207	0.000117
H350	H	0.131022	0.472541	0.333451
H351	H	0.464355	0.805874	0.666784
H352	H	0.695819	-0.333889	0.000160
H353	H	1.029152	-0.000555	0.333493
H354	H	1.362485	0.332778	0.666826
H355	H	-0.180236	-0.020747	0.000190
H356	H	0.153097	0.312586	0.333523
H357	H	0.486430	0.645920	0.666857
H358	H	0.693347	-0.576585	0.000115
H359	H	1.026680	-0.243252	0.333449
H360	H	1.360013	0.090081	0.666782
Br361	Br	0.107181	-0.085934	0.000203
Br362	Br	0.440514	0.247400	0.333536
Br363	Br	0.773848	0.580733	0.666869
Br364	Br	-0.084937	0.208499	0.000102
Br365	Br	0.248396	0.541832	0.333435
Br366	Br	0.581730	0.875165	0.666769
Br367	Br	-0.044068	-0.087463	0.000212
Br368	Br	0.289266	0.245870	0.333545
Br369	Br	0.622599	0.579204	0.666878
H370	H	0.446777	-0.391080	0.000027
H371	H	0.780111	-0.057747	0.333360
H372	H	1.113444	0.275586	0.666694
Br373	Br	0.718354	-0.474746	0.000137
Br374	Br	1.051687	-0.141413	0.333470
Br375	Br	1.385020	0.191920	0.666803
H376	H	0.493213	-0.165279	0.000150
H377	H	0.826546	0.168055	0.333483
H378	H	1.159879	0.501388	0.666817
H379	H	0.057760	-0.062462	0.000204
H380	H	0.391093	0.270872	0.333538
H381	H	0.724427	0.604205	0.666871
H382	H	0.321291	0.144530	0.000086
H383	H	0.654624	0.477863	0.333420
H384	H	0.987957	0.811196	0.666753
H385	H	0.494146	-0.073812	0.000140
H386	H	0.827480	0.259522	0.333474
H387	H	1.160813	0.592855	0.666807
Br388	Br	0.678163	-0.085515	0.000208
Br389	Br	1.011496	0.247819	0.333542
Br390	Br	1.344830	0.581152	0.666875
H391	H	0.445246	-0.542327	0.000038
H392	H	0.778580	-0.208993	0.333371
H393	H	1.111913	0.124340	0.666705
H394	H	0.653168	-0.187348	0.000156
H395	H	0.986501	0.145985	0.333490
H396	H	1.319835	0.479319	0.666823
Br397	Br	0.423918	-0.282641	0.000018
Br398	Br	0.757251	0.050692	0.333352
Br399	Br	1.090585	0.384025	0.666685
Br400	Br	0.422384	-0.433892	0.000035
Br401	Br	0.755717	-0.100559	0.333368
Br402	Br	1.089050	0.232774	0.666702
