data_functionalizedCrystal
_audit_creation_method	'MofGen! by Chris Wilmer'
_symmetry_space_group_name_H-M	'P1'
_symmetry_Int_Tables_number	1
_symmetry_cell_setting	triclinic
loop_
_symmetry_equiv_pos_as_xyz
  x,y,z
_cell_length_a	15.944545
_cell_length_b	15.944551
_cell_length_c	17.766277
_cell_angle_alpha	89.992686
_cell_angle_beta	89.993424
_cell_angle_gamma	83.497455
loop_
_atom_site_label
_atom_site_type_symbol
_atom_site_fract_x
_atom_site_fract_y
_atom_site_fract_z
O1	O	1.114533	0.108308	-0.062547
O2	O	0.869983	0.121670	-0.062560
O3	O	0.998936	-0.007286	-0.062546
O4	O	0.985580	0.237264	-0.062560
O5	O	0.998913	-0.007292	0.062642
O6	O	0.869960	0.121663	0.062629
O7	O	1.114511	0.108302	0.062641
Cu8	Cu	0.992233	0.114982	0.074066
Cu9	Cu	0.992260	0.114990	-0.073984
O10	O	0.985557	0.237257	0.062628
C11	C	0.838677	0.121113	0.000033
C12	C	0.745431	0.119453	0.000029
C13	C	0.474798	0.034559	0.000042
C14	C	0.525369	0.075485	0.061766
C15	C	0.409787	0.113532	0.000042
C16	C	0.525372	0.075512	-0.061661
C17	C	0.574701	0.116437	0.000034
C18	C	0.459130	0.154437	0.061817
C19	C	0.459129	0.154453	-0.061665
C20	C	0.509667	0.195436	0.000074
C21	C	0.314785	0.111856	0.000047
C22	C	0.669700	0.118119	0.000034
C23	C	0.998370	-0.038583	0.000048
C24	C	0.996708	-0.131829	0.000048
C25	C	0.912803	-0.346684	0.000034
C26	C	0.951755	-0.407705	0.061761
C27	C	0.993701	-0.302555	0.000043
C28	C	0.951796	-0.407682	-0.061665
C29	C	0.990790	-0.467468	0.000034
C30	C	1.032674	-0.362348	0.061821
C31	C	1.032704	-0.362319	-0.061661
C32	C	1.071715	-0.423322	0.000082
C33	C	0.995375	-0.207553	0.000048
C34	C	0.989122	-0.562469	0.000033
C35	C	1.145816	0.108859	0.000047
C36	C	1.239062	0.110519	0.000047
C37	C	0.986123	0.268555	0.000032
C38	C	0.987785	0.361801	0.000027
N39	N	0.992221	0.114976	0.178196
N40	N	0.992279	0.114989	-0.178114
C41	C	1.049340	0.057902	0.217589
C42	C	1.049344	0.057898	0.296391
C43	C	0.992238	0.114983	0.335797
C44	C	0.935109	0.172061	0.296394
C45	C	0.935100	0.172057	0.217594
C46	C	0.981237	0.191481	0.460630
C47	C	0.981252	0.191486	0.539429
C48	C	0.992261	0.114993	0.578843
C49	C	1.003273	0.038492	0.539449
C50	C	1.003264	0.038489	0.460649
C51	C	0.992241	0.114992	0.421242
C52	C	1.049388	0.057910	0.703682
C53	C	1.049387	0.057905	0.782485
C54	C	0.935155	0.172075	0.782487
C55	C	0.935152	0.172072	0.703686
C56	C	0.992273	0.114991	0.664288
H57	H	0.430311	0.187761	0.114056
H58	H	0.972290	0.253777	0.571498
C59	C	1.078846	-0.335356	0.132401
C60	C	1.114947	-0.402170	0.189916
C61	C	1.161115	-0.375176	0.260495
C62	C	1.171183	-0.281366	0.273559
C63	C	1.135082	-0.214545	0.216041
C64	C	1.088913	-0.241540	0.145462
H65	H	1.107495	-0.471619	0.180248
H66	H	1.187840	-0.424642	0.303074
H67	H	1.205360	-0.261383	0.325805
H68	H	1.142534	-0.145096	0.225710
H69	H	1.062189	-0.192074	0.102884
H70	H	0.917579	-0.427756	-0.113854
H71	H	1.095859	0.011420	0.328470
H72	H	1.138922	-0.456483	0.000120
C73	C	0.530604	0.287384	0.000113
C74	C	0.500556	0.346778	0.065455
C75	C	0.521495	0.438724	0.065498
C76	C	0.572481	0.471277	0.000198
C77	C	0.602531	0.411882	-0.065149
C78	C	0.581593	0.319936	-0.065191
H79	H	0.462811	0.322681	0.113798
H80	H	0.499249	0.482692	0.113872
H81	H	0.587981	0.539341	0.000230
H82	H	0.640277	0.435979	-0.113492
H83	H	0.603838	0.275969	-0.113566
H84	H	1.095897	0.011428	0.671603
C85	C	0.420016	0.199465	-0.132165
C86	C	0.446370	0.166280	-0.211070
C87	C	0.407250	0.211280	-0.281577
C88	C	0.341778	0.289466	-0.273180
C89	C	0.315421	0.322655	-0.194272
C90	C	0.354540	0.277655	-0.123765
H91	H	0.494839	0.108399	-0.217289
H92	H	0.426762	0.186711	-0.339990
H93	H	0.312819	0.322778	-0.325374
H94	H	0.266951	0.380536	-0.188053
H95	H	0.335029	0.302224	-0.065352
C96	C	0.564450	0.030448	-0.132154
C97	C	0.554638	-0.063335	-0.145691
C98	C	0.593715	-0.108406	-0.216180
C99	C	0.642603	-0.059695	-0.273132
C100	C	0.652418	0.034093	-0.259596
C101	C	0.613341	0.079164	-0.189108
H102	H	0.518446	-0.099398	-0.103530
H103	H	0.586449	-0.177834	-0.226199
H104	H	0.671530	-0.093060	-0.325312
H105	H	0.688610	0.070157	-0.301757
H106	H	0.620606	0.148593	-0.179088
C107	C	1.078902	-0.335111	-0.132156
C108	C	1.044957	-0.352682	-0.211065
C109	C	1.091147	-0.325471	-0.281568
C110	C	1.171281	-0.280689	-0.273162
C111	C	1.205230	-0.263116	-0.194251
C112	C	1.159041	-0.290327	-0.123748
H113	H	0.985633	-0.385835	-0.217290
H114	H	1.066015	-0.338480	-0.339983
H115	H	1.205474	-0.260546	-0.325353
H116	H	1.264555	-0.229963	-0.188026
H117	H	1.184173	-0.277317	-0.065332
H118	H	0.554290	0.042130	0.113952
H119	H	0.845655	-0.313375	0.000092
C120	C	1.112162	-0.004892	0.174249
C121	C	1.174992	-0.067679	0.217583
C122	C	1.237812	-0.130474	0.174240
C123	C	1.237803	-0.130481	0.087563
C124	C	1.174970	-0.067691	0.044224
C125	C	1.112150	-0.004896	0.087567
H126	H	1.175002	-0.067676	0.281751
H127	H	1.284325	-0.176956	0.206323
H128	H	1.284306	-0.176966	0.055478
H129	H	1.174961	-0.067694	-0.019944
H130	H	1.065638	0.041585	0.055484
H131	H	1.012228	-0.023800	0.428577
C132	C	0.872336	0.234867	0.825825
C133	C	0.872398	0.234927	0.912503
C134	C	0.809574	0.297719	0.955846
C135	C	0.746688	0.360450	0.912511
C136	C	0.746624	0.360393	0.825829
C137	C	0.809448	0.297601	0.782486
H138	H	0.918952	0.188487	0.944585
H139	H	0.809623	0.297761	1.020014
H140	H	0.700182	0.406932	0.944596
H141	H	0.700070	0.406832	0.793746
H142	H	0.809399	0.297559	0.718318
H143	H	0.917529	-0.427816	0.113944
H144	H	0.888644	0.218550	0.671610
H145	H	0.459145	-0.033453	0.000106
H146	H	1.012237	-0.023796	0.571538
H147	H	1.095898	0.011425	0.814559
H148	H	0.972257	0.253775	0.428545
H149	H	0.888610	0.218538	0.328483
H150	H	0.888585	0.218534	0.185520
