data_functionalizedCrystal
_audit_creation_method	'MofGen! by Chris Wilmer'
_symmetry_space_group_name_H-M	'P1'
_symmetry_Int_Tables_number	1
_symmetry_cell_setting	triclinic
loop_
_symmetry_equiv_pos_as_xyz
  x,y,z
_cell_length_a	19.188933
_cell_length_b	19.188924
_cell_length_c	17.666332
_cell_angle_alpha	90.007291
_cell_angle_beta	90.007838
_cell_angle_gamma	83.143767
loop_
_atom_site_label
_atom_site_type_symbol
_atom_site_fract_x
_atom_site_fract_y
_atom_site_fract_z
O1	O	0.926147	0.087174	0.062927
O2	O	0.722835	0.098907	0.062934
O3	O	0.830361	-0.008615	0.062921
O4	O	0.818621	0.194697	0.062939
O5	O	0.830342	-0.008618	-0.062976
O6	O	0.722816	0.098904	-0.062963
O7	O	0.926128	0.087171	-0.062970
Cu8	Cu	0.824470	0.093037	-0.074462
Cu9	Cu	0.824493	0.093041	0.074426
O10	O	0.818602	0.194694	-0.062957
C11	C	0.696815	0.098525	-0.000013
C12	C	0.619310	0.097384	-0.000011
C13	C	0.066065	0.089241	0.068606
C14	C	0.138890	0.090309	0.068610
C15	C	0.175296	0.090844	-0.000017
C16	C	0.138875	0.090294	-0.068651
C17	C	0.066053	0.089219	-0.068652
N18	N	0.284308	0.132262	-0.051094
N19	N	0.353485	0.133285	-0.051089
C20	C	0.394705	0.094082	-0.000017
N21	N	0.364133	0.053827	0.051059
N22	N	0.294948	0.052807	0.051056
C23	C	0.254260	0.092010	-0.000023
C24	C	0.510082	0.095786	0.068616
C25	C	0.582909	0.096850	0.068616
C26	C	0.582892	0.096842	-0.068646
C27	C	0.510068	0.095771	-0.068645
C28	C	0.473667	0.095246	-0.000011
C29	C	0.829972	-0.034628	-0.000028
C30	C	0.828833	-0.112133	-0.000030
C31	C	0.828312	-0.148530	0.068597
C32	C	0.827232	-0.221353	0.068602
C33	C	0.826687	-0.257777	-0.000022
C34	C	0.827205	-0.221371	-0.068658
C35	C	0.828277	-0.148548	-0.068662
N36	N	0.864727	-0.377441	-0.051099
N37	N	0.863710	-0.446620	-0.051091
C38	C	0.823453	-0.477186	-0.000015
N39	N	0.784262	-0.435963	0.051064
N40	N	0.785283	-0.366778	0.051058
C41	C	0.825523	-0.336741	-0.000026
C42	C	0.821760	-0.592546	0.068623
C43	C	0.820676	-0.665370	0.068626
C44	C	0.820655	-0.665387	-0.068637
C45	C	0.821733	-0.592564	-0.068637
C46	C	0.822288	-0.556149	-0.000006
C47	C	0.952148	0.087553	-0.000021
C48	C	1.029653	0.088694	-0.000019
C49	C	0.818991	0.220706	-0.000007
C50	C	0.820130	0.298211	0.000000
N51	N	0.824460	0.093034	-0.179181
C52	C	0.866668	0.135280	-0.218782
C53	C	0.866679	0.135278	-0.298030
C54	C	0.824469	0.093038	-0.337673
C55	C	0.782259	0.050784	-0.298063
C56	C	0.782254	0.050782	-0.218817
N57	N	0.763321	0.091318	-0.462111
N58	N	0.763327	0.091324	-0.537391
C59	C	0.824482	0.093041	-0.576437
N60	N	0.885631	0.094765	-0.537359
N61	N	0.885623	0.094763	-0.462072
C62	C	0.824470	0.093035	-0.423603
C63	C	0.866705	0.135287	-0.701968
C64	C	0.866718	0.135280	-0.781217
C65	C	0.782291	0.050789	-0.781248
C66	C	0.782285	0.050792	-0.702001
C67	C	0.824491	0.093045	-0.662365
N68	N	0.824509	0.093038	0.179145
H69	H	0.168542	0.090758	0.124494
N70	N	0.822277	-0.553214	0.142618
H71	H	0.865973	-0.528762	0.145704
H72	H	0.821726	-0.587329	0.186082
N73	N	0.470811	0.095212	0.142633
H74	H	0.477695	0.138671	0.172641
H75	H	0.489296	0.052099	0.172573
H76	H	0.480420	0.095329	-0.124527
H77	H	0.036406	0.088776	-0.124536
N78	N	0.820160	-0.704617	0.142661
H79	H	0.777100	-0.686151	0.172700
H80	H	0.863673	-0.697693	0.172552
N81	N	0.736773	0.005221	-0.823996
H82	H	0.685930	0.019110	-0.810216
H83	H	0.750772	-0.045595	-0.810184
N84	N	0.912197	0.180854	-0.340753
H85	H	0.905793	0.174445	-0.396969
H86	H	0.963019	0.166942	-0.326897
N87	N	0.828908	-0.109253	0.142617
H88	H	0.828413	-0.143365	0.186093
H89	H	0.786080	-0.073246	0.145610
N90	N	0.820060	-0.704662	-0.142655
H91	H	0.819299	-0.756318	-0.132241
H92	H	0.863516	-0.697732	-0.172629
H93	H	0.826803	-0.250992	0.124488
N94	N	0.178139	0.090880	-0.142668
H95	H	0.144018	0.090372	-0.186144
H96	H	0.214150	0.048055	-0.145661
N97	N	0.736721	0.005220	-0.176101
H98	H	0.743121	0.011631	-0.119885
H99	H	0.750677	-0.045595	-0.189956
H100	H	0.901072	0.169690	-0.669695
H101	H	0.036433	0.088811	0.124493
H102	H	0.612555	0.097289	0.124501
H103	H	0.612534	0.097275	-0.124523
H104	H	0.826759	-0.251032	-0.124532
H105	H	0.828699	-0.118914	-0.124547
N106	N	0.822302	-0.553303	-0.142657
H107	H	0.821795	-0.587426	-0.186131
H108	H	0.866021	-0.528883	-0.145647
N109	N	0.912196	0.180842	-0.176033
H110	H	0.938939	0.207602	-0.213150
H111	H	0.946419	0.150309	-0.143156
N112	N	0.736736	0.005220	-0.340815
H113	H	0.743142	0.011633	-0.397027
H114	H	0.685915	0.019137	-0.326972
N115	N	0.912270	0.180821	-0.823934
H116	H	0.939011	0.207579	-0.786797
H117	H	0.881744	0.215032	-0.856830
N118	N	0.736759	0.005229	-0.659282
H119	H	0.710020	-0.021532	-0.696419
H120	H	0.702531	0.035754	-0.626404
