data_functionalizedCrystal
_audit_creation_method	'MofGen! by Chris Wilmer'
_symmetry_space_group_name_H-M	'P1'
_symmetry_Int_Tables_number	1
_symmetry_cell_setting	triclinic
loop_
_symmetry_equiv_pos_as_xyz
  x,y,z
_cell_length_a	19.188905
_cell_length_b	19.188930
_cell_length_c	7.681481
_cell_angle_alpha	84.272277
_cell_angle_beta	95.696328
_cell_angle_gamma	83.139668
loop_
_atom_site_label
_atom_site_type_symbol
_atom_site_fract_x
_atom_site_fract_y
_atom_site_fract_z
O1	O	0.919520	0.093729	-0.146739
O2	O	0.716209	0.105479	-0.146681
O3	O	0.823733	-0.002053	-0.146677
O4	O	0.811996	0.201262	-0.146743
O5	O	0.836968	-0.015319	0.146181
O6	O	0.729443	0.092214	0.146177
O7	O	0.932755	0.080464	0.146119
Zn8	Zn	0.833200	0.084233	0.192646
Zn9	Zn	0.815763	0.101711	-0.193208
O10	O	0.825230	0.187997	0.146115
C11	C	0.696815	0.098469	-0.000244
C12	C	0.619311	0.097334	-0.000221
C13	C	0.575705	0.104020	-0.159862
C14	C	0.502880	0.102948	-0.159884
C15	C	0.473667	0.095175	-0.000255
C16	C	0.517282	0.088492	0.159408
C17	C	0.590104	0.089571	0.159425
N18	N	0.370016	0.048365	0.118555
N19	N	0.300837	0.047339	0.118528
C20	C	0.254258	0.091925	-0.000296
N21	N	0.279471	0.137568	-0.119119
N22	N	0.348655	0.138591	-0.119097
C23	C	0.394704	0.094005	-0.000255
C24	C	0.131687	0.097450	-0.159972
C25	C	0.058860	0.096382	-0.159987
C26	C	0.073265	0.081918	0.159309
C27	C	0.146089	0.082994	0.159319
C28	C	0.175295	0.090756	-0.000326
C29	C	0.829971	-0.034697	-0.000243
C30	C	0.828831	-0.112202	-0.000228
C31	C	0.891922	-0.157131	-0.000237
C32	C	0.890849	-0.229954	-0.000265
C33	C	0.826683	-0.257845	-0.000248
C34	C	0.763583	-0.212906	-0.000248
C35	C	0.764657	-0.140084	-0.000238
N36	N	0.782139	-0.370361	0.099431
N37	N	0.781124	-0.439539	0.099425
C38	C	0.823443	-0.477252	-0.000283
N39	N	0.866828	-0.443176	-0.099962
N40	N	0.867846	-0.373992	-0.099948
C41	C	0.825511	-0.336807	-0.000260
C42	C	0.885375	-0.601144	-0.000325
C43	C	0.884299	-0.673967	-0.000364
C44	C	0.757032	-0.656918	-0.000330
C45	C	0.758109	-0.584096	-0.000308
C46	C	0.822283	-0.556214	-0.000298
C47	C	0.952148	0.087475	-0.000321
C48	C	1.029652	0.088610	-0.000356
C49	C	0.818993	0.220641	-0.000323
C50	C	0.820132	0.298146	-0.000350
N51	N	0.845106	0.072304	0.455980
N52	N	0.803863	0.113633	-0.456542
H53	H	0.493492	0.082165	0.289379
C54	C	0.693002	-0.243584	-0.000224
H55	H	0.701399	-0.293390	-0.000212
H56	H	0.662417	-0.223516	-0.102341
H57	H	0.671651	-0.232780	0.101924
H58	H	0.761763	0.155818	0.468259
C59	C	0.194062	0.075630	0.334923
H60	H	0.241615	0.077391	0.312071
H61	H	0.190543	0.031775	0.400529
H62	H	0.179629	0.113195	0.400498
H63	H	0.944177	-0.134435	-0.000234
H64	H	0.049480	0.075594	0.289282
C65	C	0.901987	0.015315	0.557558
H66	H	0.926673	-0.009418	0.476370
H67	H	0.880148	-0.016877	0.629511
H68	H	0.934243	0.037087	0.629440
C69	C	0.695254	-0.090661	-0.000211
H70	H	0.656884	-0.117699	-0.000197
H71	H	0.688413	-0.057262	-0.102326
H72	H	0.697646	-0.066538	0.101940
C73	C	0.955961	-0.570470	-0.000333
H74	H	0.993382	-0.607660	-0.000369
H75	H	0.963642	-0.547052	0.101799
H76	H	0.954408	-0.537781	-0.102466
H77	H	0.704786	-0.679627	-0.000325
H78	H	0.599480	0.110342	-0.289858
H79	H	0.467369	0.108395	-0.289887
C80	C	0.638074	0.082204	0.335038
H81	H	0.610250	0.077416	0.430109
H82	H	0.661331	0.123027	0.341677
H83	H	0.672233	0.041609	0.341680
C84	C	0.163816	0.106002	-0.335571
H85	H	0.127411	0.109843	-0.430654
H86	H	0.197381	0.066017	-0.342200
H87	H	0.186467	0.147435	-0.342201
H88	H	0.023356	0.101832	-0.289992
H89	H	0.935677	-0.710548	-0.000381
C90	C	0.688709	-0.534674	-0.000268
H91	H	0.650340	-0.561713	-0.000247
H92	H	0.681865	-0.501275	-0.102385
H93	H	0.691102	-0.510549	0.101880
C94	C	0.960252	-0.279385	-0.000263
H95	H	0.998625	-0.252350	-0.000244
H96	H	0.957868	-0.303518	-0.102387
H97	H	0.967086	-0.312778	0.101878
