data_functionalizedCrystal
_audit_creation_method	'MofGen! by Chris Wilmer'
_symmetry_space_group_name_H-M	'P1'
_symmetry_Int_Tables_number	1
_symmetry_cell_setting	triclinic
loop_
_symmetry_equiv_pos_as_xyz
  x,y,z
_cell_length_a	16.120530
_cell_length_b	14.908932
_cell_length_c	14.908308
_cell_angle_alpha	90.209830
_cell_angle_beta	89.451626
_cell_angle_gamma	90.229812
loop_
_atom_site_label
_atom_site_type_symbol
_atom_site_fract_x
_atom_site_fract_y
_atom_site_fract_z
Zn1	Zn	1.220888	-0.457999	0.550637
Zn2	Zn	1.554222	-0.124666	0.883970
Zn3	Zn	1.887555	0.208667	1.217303
Zn4	Zn	1.221756	-0.599750	0.391669
Zn5	Zn	1.555089	-0.266417	0.725003
Zn6	Zn	1.888423	0.066917	1.058336
Zn7	Zn	1.090708	-0.441820	0.393592
Zn8	Zn	1.424042	-0.108487	0.726926
Zn9	Zn	1.757375	0.224847	1.060259
Zn10	Zn	1.074782	-0.599854	0.534417
Zn11	Zn	1.408115	-0.266520	0.867750
Zn12	Zn	1.741449	0.066813	1.201083
O13	O	1.152034	-0.524856	0.467579
O14	O	1.485367	-0.191522	0.800912
O15	O	1.818700	0.141811	1.134245
O16	O	1.336993	-0.483531	0.535533
O17	O	1.670327	-0.150197	0.868866
O18	O	2.003660	0.183136	1.202199
O19	O	1.211400	-0.571986	0.266461
O20	O	1.544734	-0.238653	0.599794
O21	O	1.878067	0.094681	0.933127
O22	O	1.114279	-0.318505	0.422017
O23	O	1.447613	0.014828	0.755351
O24	O	1.780946	0.348161	1.088684
O25	O	1.337631	-0.587674	0.418740
O26	O	1.670964	-0.254341	0.752073
O27	O	2.004297	0.078992	1.085407
O28	O	1.209922	-0.330392	0.537397
O29	O	1.543255	0.002941	0.870731
O30	O	1.876589	0.336274	1.204064
O31	O	1.115120	-0.455955	0.267873
O32	O	1.448454	-0.122622	0.601207
O33	O	1.781787	0.210711	0.934540
O34	O	0.972606	-0.456056	0.406290
O35	O	1.305939	-0.122722	0.739623
O36	O	1.639272	0.210611	1.072956
O37	O	1.087135	-0.587851	0.662032
O38	O	1.420468	-0.254518	0.995366
O39	O	1.753802	0.078816	1.328699
O40	O	0.960905	-0.572162	0.509753
O41	O	1.294238	-0.238829	0.843086
O42	O	1.627572	0.094504	1.176420
O43	O	1.194479	-0.483631	0.673949
O44	O	1.527812	-0.150298	1.007282
O45	O	1.861146	0.183036	1.340616
O46	O	1.195957	-0.725225	0.403012
O47	O	1.529291	-0.391891	0.736346
O48	O	1.862624	-0.058558	1.069679
O49	O	1.087976	-0.725301	0.507888
O50	O	1.421310	-0.391967	0.841222
O51	O	1.754643	-0.058634	1.174555
C52	C	1.140354	-0.757796	0.453502
C53	C	1.473687	-0.424462	0.786836
C54	C	1.807021	-0.091129	1.120169
C55	C	1.135432	-0.857454	0.447514
C56	C	1.468765	-0.524121	0.780847
C57	C	1.802098	-0.190788	1.114181
C58	C	0.936680	-0.512365	0.456470
C59	C	1.270014	-0.179032	0.789804
C60	C	1.603347	0.154301	1.123137
C61	C	0.844549	-0.507045	0.451738
C62	C	1.177882	-0.173711	0.785072
C63	C	1.511216	0.159622	1.118405
C64	C	1.138934	-0.537557	0.701432
C65	C	1.472267	-0.204224	1.034765
C66	C	1.805600	0.129109	1.368098
C67	C	1.133351	-0.542970	0.801086
C68	C	1.466685	-0.209637	1.134419
C69	C	1.800018	0.123697	1.467752
C70	C	0.675864	-0.497310	0.443107
C71	C	1.009197	-0.163977	0.776441
C72	C	1.342531	0.169357	1.109774
C73	C	0.629037	-0.552471	0.492112
C74	C	0.962370	-0.219138	0.825445
C75	C	1.295704	0.114195	1.158778
C76	C	0.535175	-0.547055	0.487309
C77	C	0.868508	-0.213722	0.820643
C78	C	1.201841	0.119612	1.153976
C79	C	0.769735	-0.502725	0.447908
C80	C	1.103068	-0.169392	0.781242
C81	C	1.436401	0.163941	1.114575
C82	C	1.368228	-0.537396	0.478731
C83	C	1.701561	-0.204062	0.812064
C84	C	2.034895	0.129271	1.145398
C85	C	1.460357	-0.542739	0.483483
C86	C	1.793690	-0.209406	0.816817
C87	C	2.127024	0.123927	1.150150
C88	C	1.163780	-0.291009	0.481731
C89	C	1.497114	0.042325	0.815064
C90	C	1.830447	0.375658	1.148398
C91	C	1.168786	-0.191357	0.487762
C92	C	1.502119	0.141976	0.821095
C93	C	1.835453	0.475310	1.154429
C94	C	1.078580	0.008280	0.378951
C95	C	1.411914	0.341613	0.712284
C96	C	1.745247	0.674946	1.045618
C97	C	1.083281	0.101912	0.384615
C98	C	1.416614	0.435245	0.717948
C99	C	1.749948	0.768578	1.051281
C100	C	1.182883	0.089541	0.504756
C101	C	1.516217	0.422874	0.838089
C102	C	1.849550	0.756207	1.171423
C103	C	1.178183	-0.004091	0.499093
C104	C	1.511516	0.329242	0.832426
C105	C	1.844849	0.662575	1.165759
C106	C	1.126030	-0.044718	0.436187
C107	C	1.459364	0.288615	0.769520
C108	C	1.792697	0.621948	1.102854
C109	C	1.121335	-0.138352	0.430520
C110	C	1.454668	0.194981	0.763853
C111	C	1.788001	0.528315	1.097187
C112	C	1.220932	-0.150721	0.550665
C113	C	1.554265	0.182612	0.883998
C114	C	1.887598	0.515945	1.217332
C115	C	1.225633	-0.057089	0.556329
C116	C	1.558966	0.276244	0.889662
C117	C	1.892299	0.609577	1.222995
C118	C	1.165134	-0.512142	0.234642
C119	C	1.498467	-0.178808	0.567975
C120	C	1.831800	0.154525	0.901309
C121	C	1.170889	-0.506486	0.135012
C122	C	1.504223	-0.173153	0.468345
C123	C	1.837556	0.160181	0.801679
C124	C	1.234637	-0.444596	1.000758
C125	C	1.567970	-0.111262	1.334091
C126	C	1.901304	0.222071	1.667425
C127	C	1.229395	-0.449678	1.094392
C128	C	1.562728	-0.116345	1.427726
C129	C	1.896061	0.216988	1.761059
C130	C	1.117621	-0.558213	1.081990
C131	C	1.450954	-0.224879	1.415324
C132	C	1.784287	0.108454	1.748657
C133	C	1.122863	-0.553130	0.988356
C134	C	1.456196	-0.219797	1.321689
C135	C	1.789530	0.113537	1.655023
C136	C	1.181374	-0.496321	0.947743
C137	C	1.514707	-0.162987	1.281077
C138	C	1.848041	0.170346	1.614410
C139	C	1.186620	-0.491243	0.854107
C140	C	1.519953	-0.157910	1.187441
C141	C	1.853287	0.175423	1.520774
C142	C	1.074843	-0.599772	0.841707
C143	C	1.408176	-0.266439	1.175041
C144	C	1.741509	0.066895	1.508374
C145	C	1.069600	-0.604855	0.935342
C146	C	1.402933	-0.271522	1.268675
C147	C	1.736267	0.061812	1.602008
H148	H	0.659440	-0.603763	0.537674
H149	H	0.992773	-0.270430	0.871007
H150	H	1.326107	0.062904	1.204340
Cl151	Cl	1.308200	-0.373191	0.949699
Cl152	Cl	1.641533	-0.039858	1.283032
Cl153	Cl	1.974866	0.293476	1.616365
Cl154	Cl	1.248419	0.140631	0.583851
Cl155	Cl	1.581752	0.473964	0.917184
Cl156	Cl	1.915086	0.807297	1.250518
Cl157	Cl	0.628926	-0.418124	0.372767
Cl158	Cl	0.962260	-0.084790	0.706101
Cl159	Cl	1.295593	0.248543	1.039434
H160	H	1.272765	-0.407556	1.137554
H161	H	1.606098	-0.074223	1.470887
H162	H	1.939431	0.259111	1.804221
H163	H	1.031474	-0.641893	0.798532
H164	H	1.364807	-0.308560	1.131866
H165	H	1.698140	0.024774	1.465199
Cl166	Cl	1.023625	0.168535	0.312660
Cl167	Cl	1.356958	0.501869	0.645993
Cl168	Cl	1.690291	0.835202	0.979326
Cl169	Cl	1.044065	-0.629617	1.133062
Cl170	Cl	1.377398	-0.296284	1.466396
Cl171	Cl	1.710732	0.037050	1.799729
H172	H	1.078871	-0.171429	0.379298
H173	H	1.412204	0.161904	0.712631
H174	H	1.745538	0.495238	1.045964
H175	H	1.036121	-0.024799	0.327726
H176	H	1.369454	0.308534	0.661060
H177	H	1.702787	0.641867	0.994393
H178	H	1.268092	-0.024000	0.607547
H179	H	1.601425	0.309334	0.940881
H180	H	1.934758	0.642667	1.274214
Cl181	Cl	1.280593	-0.217353	0.622617
Cl182	Cl	1.613927	0.115980	0.955950
Cl183	Cl	1.947260	0.449314	1.289284
Cl184	Cl	1.260177	-0.419829	0.803052
Cl185	Cl	1.593511	-0.086496	1.136386
Cl186	Cl	1.926844	0.246838	1.469719
H187	H	1.021961	-0.651105	0.968421
H188	H	1.355294	-0.317772	1.301755
H189	H	1.688627	0.015561	1.635088
