data_functionalizedCrystal
_audit_creation_method	'MofGen! by Chris Wilmer'
_symmetry_space_group_name_H-M	'P1'
_symmetry_Int_Tables_number	1
_symmetry_cell_setting	triclinic
loop_
_symmetry_equiv_pos_as_xyz
  x,y,z
_cell_length_a	10.967819
_cell_length_b	11.026607
_cell_length_c	14.586319
_cell_angle_alpha	90.009332
_cell_angle_beta	102.137496
_cell_angle_gamma	96.381100
loop_
_atom_site_label
_atom_site_type_symbol
_atom_site_fract_x
_atom_site_fract_y
_atom_site_fract_z
O1	O	1.694071	0.170612	0.343891
O2	O	1.334427	0.186917	0.287071
O3	O	1.484442	0.001862	0.310768
O4	O	1.544056	0.355667	0.320193
O5	O	1.484408	0.001831	0.158282
O6	O	1.334393	0.186886	0.134584
O7	O	1.694037	0.170580	0.191404
Cu8	Cu	1.514212	0.178730	0.149071
Cu9	Cu	1.514252	0.178768	0.329404
O10	O	1.544022	0.355636	0.167707
C11	C	1.287652	0.185712	0.203440
C12	C	1.148325	0.182151	0.181428
C13	C	0.942233	0.176913	0.227874
C14	C	1.086234	0.180585	0.250619
C15	C	1.473428	-0.043457	0.232788
C16	C	1.440643	-0.178445	0.227612
C17	C	1.531167	-0.251493	0.241915
C18	C	1.497284	-0.391011	0.236566
C19	C	1.740812	0.171786	0.275037
C20	C	1.880139	0.175346	0.297055
C21	C	1.555037	0.400954	0.245688
C22	C	1.587821	0.535943	0.250871
N23	N	1.514192	0.178703	0.022236
C24	C	1.421848	0.104340	-0.323384
C25	C	1.421834	0.104323	-0.227404
C26	C	1.606633	0.253151	-0.198146
C27	C	1.606651	0.253161	-0.294122
C28	C	1.514252	0.178757	-0.356740
C29	C	1.514220	0.178731	-0.164784
C30	C	1.514206	0.178713	-0.060719
C31	C	1.514267	0.178773	-0.460811
N32	N	1.514280	0.178785	0.456240
H33	H	1.094885	0.180783	0.105355
N34	N	1.322210	0.024077	-0.390921
H35	H	1.272904	0.076465	-0.438534
H36	H	1.263760	-0.023059	-0.355151
N37	N	1.322175	0.024054	-0.191425
H38	H	1.263649	-0.023077	-0.245659
H39	H	1.272956	0.076514	-0.159376
H40	H	0.933587	0.176730	0.373122
N41	N	1.706289	0.333397	-0.130609
H42	H	1.692257	0.322102	-0.064746
H43	H	1.701456	0.421604	-0.148136
H44	H	1.139677	0.181968	0.326691
H45	H	1.681904	0.313761	-0.321279
N46	N	1.667056	-0.197530	0.263372
H47	H	1.684724	-0.145474	0.322683
H48	H	1.684582	-0.145577	0.209573
H49	H	0.888787	0.175544	0.151807
H50	H	1.394693	-0.431755	0.220363
H51	H	1.338058	-0.219195	0.211411
N52	N	1.723719	-0.410104	0.272348
H53	H	1.728664	-0.318086	0.273128
H54	H	1.766680	-0.438143	0.222609
