data_functionalizedCrystal
_audit_creation_method	'MofGen! by Chris Wilmer'
_symmetry_space_group_name_H-M	'P1'
_symmetry_Int_Tables_number	1
_symmetry_cell_setting	triclinic
loop_
_symmetry_equiv_pos_as_xyz
  x,y,z
_cell_length_a	12.759401
_cell_length_b	17.637651
_cell_length_c	12.759393
_cell_angle_alpha	78.750889
_cell_angle_beta	89.981079
_cell_angle_gamma	101.218910
loop_
_atom_site_label
_atom_site_type_symbol
_atom_site_fract_x
_atom_site_fract_y
_atom_site_fract_z
Zn1	Zn	1.521684	-0.314737	-0.509322
Zn2	Zn	1.486047	-0.446973	-0.298065
Zn3	Zn	1.345976	-0.314775	-0.333649
Zn4	Zn	1.310459	-0.446913	-0.473721
O5	O	1.416041	-0.380850	-0.403689
O6	O	1.663975	-0.332288	-0.481305
O7	O	1.467417	-0.429477	-0.155754
O8	O	1.399062	-0.204129	-0.386744
O9	O	1.637793	-0.429441	-0.326096
O10	O	1.528154	-0.204101	-0.515810
O11	O	1.364507	-0.332352	-0.181897
O12	O	1.194246	-0.332294	-0.352223
O13	O	1.338528	-0.429339	-0.625476
O14	O	1.168152	-0.429376	-0.455133
O15	O	1.493714	-0.332230	-0.651631
O16	O	1.432977	-0.557606	-0.291576
O17	O	1.303973	-0.557562	-0.420629
C18	C	1.143078	-0.380833	-0.403677
C19	C	1.026299	-0.380845	-0.403691
C20	C	0.875282	-0.330246	-0.350248
C21	C	0.985010	-0.330229	-0.350242
C22	C	0.957854	-0.431476	-0.457159
C23	C	0.848128	-0.431488	-0.457170
C24	C	0.833998	-0.279632	-0.296786
C25	C	0.902436	-0.229000	-0.243320
C26	C	1.012164	-0.228983	-0.243314
C27	C	1.053455	-0.279598	-0.296774
C28	C	1.360782	-0.586272	-0.348401
C29	C	1.337238	-0.674153	-0.324783
C30	C	1.595585	-0.962815	-0.583441
C31	C	1.573429	-1.045392	-0.561231
C32	C	1.439095	-1.045528	-0.426704
C33	C	1.461244	-0.962949	-0.448900
C34	C	1.539490	-0.921599	-0.527271
C35	C	1.405148	-0.921734	-0.392729
C36	C	1.427292	-0.839162	-0.414928
C37	C	1.505532	-0.797806	-0.493297
C38	C	1.561633	-0.839027	-0.549469
C39	C	1.326898	-0.963085	-0.314365
C40	C	1.270802	-0.921870	-0.258194
C41	C	1.292951	-0.839296	-0.280387
C42	C	1.371190	-0.797940	-0.358755
C43	C	1.236849	-0.798075	-0.224214
C44	C	1.258993	-0.715503	-0.246413
C45	C	1.393334	-0.715369	-0.380954
C46	C	1.690070	-0.380867	-0.403703
C47	C	1.806845	-0.380874	-0.403708
C48	C	1.416134	-0.380774	-0.677743
C49	C	1.416174	-0.380742	-0.794529
C50	C	1.471545	-0.174625	-0.459217
C51	C	1.495197	-0.086744	-0.482880
C52	C	1.469767	-0.431295	-0.835781
C53	C	1.469808	-0.431262	-0.945514
C54	C	1.362653	-0.330118	-0.972734
C55	C	1.362620	-0.330149	-0.863004
C56	C	1.523322	-0.481888	-0.767305
C57	C	1.576918	-0.532447	-0.808556
C58	C	1.576959	-0.532413	-0.918289
C59	C	1.523403	-0.481821	-0.986772
C60	C	1.416025	-0.380868	-0.130717
C61	C	1.416248	-0.380678	-0.013992
H62	H	0.991482	-0.472685	-0.500683
C63	C	1.681658	-0.917325	-0.669655
N64	N	1.746481	-0.883062	-0.734591
C65	C	0.772844	-0.487181	-0.515981
N66	N	0.716139	-0.529129	-0.560281
H67	H	1.457057	-0.681700	-0.444763
C68	C	1.529891	-0.706974	-0.517714
N69	N	1.548241	-0.638559	-0.536103
H70	H	1.142807	-0.279573	-0.296777
C71	C	1.302536	-1.053917	-0.289954
N72	N	1.284186	-1.122332	-0.271570
H73	H	1.213312	-0.681945	-0.200673
C74	C	1.303738	-0.274476	-1.048067
N75	N	1.259358	-0.232567	-1.104807
H76	H	1.620529	-0.573632	-0.752792
H77	H	1.318984	-0.288981	-0.829418
C78	C	1.523296	-0.481921	-0.646598
N79	N	1.523279	-0.481943	-0.555682
C80	C	1.647706	-0.793538	-0.635682
N81	N	1.712529	-0.759274	-0.700619
H82	H	1.619100	-1.078947	-0.606992
H83	H	1.375385	-1.079207	-0.362898
H84	H	1.207092	-0.955548	-0.194387
C85	C	1.150836	-0.843571	-0.137956
N86	N	1.086072	-0.877839	-0.072963
C87	C	1.635919	-0.588026	-0.963662
N88	N	1.680324	-0.629918	-0.997834
C89	C	1.087444	-0.173285	-0.184505
N90	N	1.144141	-0.131335	-0.140203
C91	C	1.523455	-0.481784	-1.107482
N92	N	1.523491	-0.481760	-1.198399
C93	C	0.713296	-0.279643	-0.296791
N94	N	0.622384	-0.279653	-0.296795
C95	C	0.857014	-0.173323	-0.184522
N96	N	0.822804	-0.131386	-0.140235
