data_functionalizedCrystal
_audit_creation_method	'MofGen! by Chris Wilmer'
_symmetry_space_group_name_H-M	'P1'
_symmetry_Int_Tables_number	1
_symmetry_cell_setting	triclinic
loop_
_symmetry_equiv_pos_as_xyz
  x,y,z
_cell_length_a	21.395362
_cell_length_b	18.101395
_cell_length_c	21.395355
_cell_angle_alpha	90.015727
_cell_angle_beta	90.043940
_cell_angle_gamma	90.046983
loop_
_atom_site_label
_atom_site_type_symbol
_atom_site_fract_x
_atom_site_fract_y
_atom_site_fract_z
Zn1	Zn	0.957858	-0.294602	0.354598
Zn2	Zn	1.457858	0.205398	0.854598
Zn3	Zn	0.957760	-0.418425	0.249825
Zn4	Zn	1.457760	0.081575	0.749825
Zn5	Zn	0.853073	-0.294636	0.249799
Zn6	Zn	1.353073	0.205364	0.749799
Zn7	Zn	0.853041	-0.418440	0.354530
Zn8	Zn	1.353041	0.081560	0.854530
O9	O	0.905433	-0.356526	0.302188
O10	O	1.405433	0.143474	0.802188
O11	O	1.045523	-0.311006	0.340739
O12	O	1.545523	0.188994	0.840739
O13	O	0.943845	-0.402012	0.162144
O14	O	1.443845	0.097988	0.662144
O15	O	0.867027	-0.190998	0.263718
O16	O	1.367027	0.309002	0.763718
O17	O	1.045450	-0.401979	0.263763
O18	O	1.545450	0.098021	0.763763
O19	O	0.944012	-0.190973	0.340713
O20	O	1.444012	0.309027	0.840713
O21	O	0.866932	-0.311065	0.162125
O22	O	1.366932	0.188935	0.662125
O23	O	0.765391	-0.311080	0.263652
O24	O	1.265391	0.188920	0.763652
O25	O	0.866973	-0.402005	0.442217
O26	O	1.366973	0.097995	0.942217
O27	O	0.765367	-0.402038	0.340598
O28	O	1.265367	0.097962	0.840598
O29	O	0.943982	-0.311021	0.442267
O30	O	1.443982	0.188979	0.942267
O31	O	0.943814	-0.522060	0.263697
O32	O	1.443814	-0.022060	0.763697
O33	O	0.866878	-0.522071	0.340623
O34	O	1.366878	-0.022071	0.840623
C35	C	0.742645	-0.356565	0.302115
C36	C	1.242645	0.143435	0.802115
C37	C	0.673004	-0.356599	0.302099
C38	C	1.173004	0.143401	0.802099
C39	C	0.640295	-0.404024	0.342105
C40	C	1.140295	0.095976	0.842105
C41	C	0.574860	-0.404006	0.342133
C42	C	1.074860	0.095994	0.842133
C43	C	0.542136	-0.356571	0.302144
C44	C	1.042136	0.143429	0.802144
C45	C	0.574852	-0.309137	0.262135
C46	C	1.074852	0.190863	0.762135
C47	C	0.640286	-0.309151	0.262113
C48	C	1.140286	0.190849	0.762113
C49	C	0.438411	-0.350605	0.245738
C50	C	0.938411	0.149395	0.745738
C51	C	0.372978	-0.350596	0.245760
C52	C	0.872978	0.149404	0.745760
C53	C	0.340315	-0.356523	0.302213
C54	C	0.840315	0.143477	0.802213
C55	C	0.373093	-0.362474	0.358647
C56	C	0.873093	0.137526	0.858647
C57	C	0.438527	-0.362488	0.358624
C58	C	0.938527	0.137512	0.858624
C59	C	0.471183	-0.356550	0.302164
C60	C	0.971183	0.143450	0.802164
C61	C	0.236654	-0.403930	0.342252
C62	C	0.736654	0.096070	0.842252
C63	C	0.171217	-0.403907	0.342281
C64	C	0.671217	0.096093	0.842281
C65	C	0.171211	-0.309042	0.262278
C66	C	0.671211	0.190958	0.762278
C67	C	0.236646	-0.309061	0.262255
C68	C	0.736646	0.190939	0.762255
C69	C	0.269364	-0.356509	0.302241
C70	C	0.769364	0.143491	0.802241
C71	C	0.905349	-0.548936	0.302170
C72	C	1.405349	-0.048936	0.802170
C73	C	0.905370	-0.631250	0.302183
C74	C	1.405370	-0.131250	0.802183
C75	C	0.905508	-0.930341	0.302216
C76	C	1.405508	-0.430341	0.802216
C77	C	0.857214	-0.899054	0.350736
C78	C	1.357214	-0.399054	0.850736
C79	C	0.856985	-0.813436	0.350585
C80	C	1.356985	-0.313436	0.850585
C81	C	0.905440	-0.781959	0.302200
C82	C	1.405440	-0.281959	0.802200
C83	C	0.887557	-0.813100	0.236161
C84	C	1.387557	-0.313100	0.736161
C85	C	0.887246	-0.898745	0.236451
C86	C	1.387246	-0.398745	0.736451
C87	C	0.971790	-0.898667	0.319154
C88	C	1.471790	-0.398667	0.819154
C89	C	0.971400	-0.813017	0.320602
C90	C	1.471400	-0.313017	0.820602
C91	C	0.905402	-0.698099	0.302187
C92	C	1.405402	-0.198099	0.802187
C93	C	0.905544	-1.014201	0.302225
C94	C	1.405544	-0.514201	0.802225
C95	C	1.068856	-0.356487	0.302261
C96	C	1.568856	0.143513	0.802261
C97	C	1.138497	-0.356470	0.302293
C98	C	1.638497	0.143530	0.802293
C99	C	0.905485	-0.356511	0.465611
C100	C	1.405485	0.143489	0.965611
C101	C	0.905507	-0.356504	0.535253
C102	C	1.405507	0.143496	1.035253
C103	C	0.905534	-0.163364	0.302220
C104	C	1.405534	0.336636	0.802220
C105	C	0.905577	-0.081050	0.302234
C106	C	1.405577	0.418950	0.802234
C107	C	0.905417	-0.356487	0.139400
C108	C	1.405417	0.143513	0.639400
C109	C	0.905516	-0.356285	0.069760
C110	C	1.405516	0.143715	0.569760
C111	C	0.945603	-0.309127	0.567993
C112	C	1.445603	0.190873	1.067993
C113	C	0.945603	-0.309095	0.633428
C114	C	1.445603	0.190905	1.133428
C115	C	0.905512	-0.356454	0.666121
C116	C	1.405512	0.143546	1.166121
C117	C	0.865408	-0.403834	0.633373
C118	C	1.365408	0.096166	1.133373
C119	C	0.865405	-0.403859	0.567939
C120	C	1.365405	0.096141	1.067939
C121	C	0.900536	-0.423137	0.769788
C122	C	1.400536	0.076863	1.269788
C123	C	0.900542	-0.423113	0.835221
C124	C	1.400542	0.076887	1.335221
C125	C	0.905516	-0.356375	0.867942
C126	C	1.405516	0.143625	1.367942
C127	C	0.910495	-0.289660	0.835222
C128	C	1.410495	0.210340	1.335222
C129	C	0.910493	-0.289685	0.769788
C130	C	1.410493	0.210315	1.269788
C131	C	0.905510	-0.356431	0.737073
C132	C	1.405510	0.143569	1.237073
C133	C	0.945613	-0.308960	0.971635
C134	C	1.445613	0.191040	1.471635
C135	C	0.945608	-0.308927	1.037071
C136	C	1.445608	0.191073	1.537071
C137	C	0.865416	-0.403672	1.037015
C138	C	1.365416	0.096328	1.537015
C139	C	0.865418	-0.403699	0.971580
C140	C	1.365418	0.096301	1.471580
C141	C	0.905520	-0.356344	0.938893
C142	C	1.405520	0.143656	1.438893
H143	H	0.666918	-0.270530	0.229536
H144	H	1.166918	0.229470	0.729536
H145	H	0.914546	-0.235316	0.861862
H146	H	1.414546	0.264684	1.361862
C147	C	1.080496	-0.813047	0.294380
C148	C	1.580496	-0.313047	0.794380
C149	C	1.022548	-0.784092	0.276375
C150	C	1.522548	-0.284092	0.776375
H151	H	1.112071	-0.795187	0.267072
H152	H	1.612071	-0.295187	0.767072
H153	H	1.079069	-0.865437	0.292309
H154	H	1.579069	-0.365437	0.792309
H155	H	1.089651	-0.798141	0.335967
H156	H	1.589651	-0.298141	0.835967
H157	H	1.013391	-0.799002	0.234788
H158	H	1.513391	-0.299002	0.734788
H159	H	1.023975	-0.731691	0.278439
H160	H	1.523975	-0.231691	0.778439
H161	H	0.868173	-0.792380	0.399551
H162	H	1.368173	-0.292380	0.899551
C163	C	1.029906	-0.298684	0.898119
C164	C	1.529906	0.201316	1.398119
C165	C	0.989691	-0.256905	0.935704
C166	C	1.489691	0.243095	1.435704
H167	H	1.057121	-0.266546	0.875943
H168	H	1.557121	0.233454	1.375943
H169	H	1.006029	-0.326899	0.869254
H170	H	1.506029	0.173101	1.369254
H171	H	1.053850	-0.330932	0.923675
H172	H	1.553850	0.169068	1.423675
H173	H	0.965744	-0.224660	0.910147
H174	H	1.465744	0.275340	1.410147
H175	H	1.013571	-0.228677	0.964573
H176	H	1.513571	0.271323	1.464573
H177	H	0.666930	-0.442659	0.374665
H178	H	1.166930	0.057341	0.874665
C179	C	0.924968	-0.972392	0.415156
C180	C	1.424968	-0.472392	0.915156
C181	C	0.872158	-0.926810	0.417055
C182	C	1.372158	-0.426810	0.917055
H183	H	0.934190	-0.989536	0.456099
H184	H	1.434190	-0.489536	0.956099
H185	H	0.959544	-0.945172	0.399496
H186	H	1.459544	-0.445172	0.899496
H187	H	0.916980	-1.013390	0.388591
H188	H	1.416980	-0.513390	0.888591
H189	H	0.880148	-0.885810	0.443617
H190	H	1.380148	-0.385810	0.943617
H191	H	0.837575	-0.954031	0.432724
H192	H	1.337575	-0.454031	0.932724
H193	H	0.838794	-0.918801	0.222106
H194	H	1.338794	-0.418801	0.722106
C195	C	0.948019	-0.506007	0.908827
C196	C	1.448019	-0.006007	1.408827
C197	C	0.895082	-0.496450	0.871176
C198	C	1.395082	0.003550	1.371176
H199	H	0.944652	-0.551288	0.931018
H200	H	1.444652	-0.051288	1.431018
H201	H	0.950979	-0.466268	0.937680
H202	H	1.450979	0.033732	1.437680
H203	H	0.984328	-0.506959	0.883315
H204	H	1.484328	-0.006959	1.383315
H205	H	0.858773	-0.495492	0.896689
H206	H	1.358773	0.004508	1.396689
H207	H	0.892116	-0.536200	0.842320
H208	H	1.392116	-0.036200	1.342320
H209	H	0.914546	-0.235363	0.743150
H210	H	1.414546	0.264637	1.243150
H211	H	0.978253	-0.270511	0.660090
H212	H	1.478253	0.229489	1.160090
C213	C	0.899930	-0.969656	0.142459
C214	C	1.399930	-0.469656	0.642459
C215	C	0.932676	-0.926711	0.185999
C216	C	1.432676	-0.426711	0.685999
H217	H	0.927980	-0.986926	0.111319
H218	H	1.427980	-0.486926	0.611319
H219	H	0.868262	-0.940555	0.123454
H220	H	1.368262	-0.440555	0.623454
H221	H	0.881348	-1.010619	0.163075
H222	H	1.381348	-0.510619	0.663075
H223	H	0.951254	-0.885744	0.165383
H224	H	1.451254	-0.385744	0.665383
H225	H	0.964355	-0.955813	0.205005
H226	H	1.464355	-0.455813	0.705005
C227	C	0.352989	-0.435486	0.450137
C228	C	0.852989	0.064514	0.950137
C229	C	0.337203	-0.368976	0.420711
C230	C	0.837203	0.131024	0.920711
H231	H	0.330828	-0.439499	0.488450
H232	H	0.830828	0.060501	0.988450
H233	H	0.396645	-0.436347	0.458192
H234	H	0.896645	0.063653	0.958192
H235	H	0.342188	-0.475721	0.423728
H236	H	0.842188	0.024279	0.923728
H237	H	0.348009	-0.328740	0.447118
H238	H	0.848009	0.171260	0.947118
H239	H	0.293537	-0.368109	0.412658
H240	H	0.793537	0.131891	0.912658
H241	H	0.832767	-0.442225	1.063633
H242	H	1.332767	0.057775	1.563633
H243	H	0.263294	-0.442562	0.374814
H244	H	0.763294	0.057438	0.874814
H245	H	0.548204	-0.270514	0.229577
H246	H	1.048204	0.229486	0.729577
C247	C	0.791213	-1.005478	0.338820
C248	C	1.291213	-0.505478	0.838820
C249	C	0.791293	-0.928207	0.335777
C250	C	1.291293	-0.428207	0.835777
H251	H	0.750518	-1.023476	0.329579
H252	H	1.250518	-0.523476	0.829579
H253	H	0.802954	-1.020729	0.379645
H254	H	1.302954	-0.520729	0.879645
H255	H	0.820109	-1.024632	0.309292
H256	H	1.320109	-0.524632	0.809292
H257	H	0.762400	-0.909053	0.365309
H258	H	1.262400	-0.409053	0.865309
H259	H	0.779544	-0.912949	0.294946
H260	H	1.279544	-0.412949	0.794946
H261	H	0.807855	-0.793026	0.339363
H262	H	1.307855	-0.293026	0.839363
H263	H	0.984886	-0.792661	0.369204
H264	H	1.484886	-0.292661	0.869204
C265	C	0.807504	-0.812493	0.157453
C266	C	1.307504	-0.312493	0.657453
C267	C	0.822839	-0.784259	0.216446
C268	C	1.322839	-0.284259	0.716446
H269	H	0.767550	-0.794684	0.145284
H270	H	1.267550	-0.294684	0.645284
H271	H	0.806662	-0.864915	0.159196
H272	H	1.306662	-0.364915	0.659196
H273	H	0.837895	-0.797015	0.127868
H274	H	1.337895	-0.297015	0.627868
H275	H	0.792449	-0.799741	0.246032
H276	H	1.292449	-0.299741	0.746032
H277	H	0.823675	-0.731825	0.214707
H278	H	1.323675	-0.231825	0.714707
C279	C	0.256707	-0.272814	0.156205
C280	C	0.756707	0.227186	0.656205
C281	C	0.272605	-0.256938	0.218273
C282	C	0.772605	0.243062	0.718273
H283	H	0.278910	-0.240634	0.129053
H284	H	0.778910	0.259366	0.629053
H285	H	0.213060	-0.266013	0.150501
H286	H	0.713060	0.233987	0.650501
H287	H	0.267382	-0.322561	0.146967
H288	H	0.767382	0.177439	0.646967
H289	H	0.261926	-0.207192	0.227512
H290	H	0.761926	0.292808	0.727512
H291	H	0.316262	-0.263732	0.223980
H292	H	0.816262	0.236268	0.723980
H293	H	0.465000	-0.345775	0.199764
H294	H	0.965000	0.154225	0.699764
H295	H	0.921625	-0.792710	0.199023
H296	H	1.421625	-0.292710	0.699023
H297	H	0.832771	-0.442283	0.944922
H298	H	1.332771	0.057717	1.444922
C299	C	1.024885	-0.215293	1.030550
C300	C	1.524885	0.284707	1.530550
C301	C	0.989687	-0.256846	1.073062
C302	C	1.489687	0.243154	1.573062
H303	H	1.052100	-0.183144	1.052771
H304	H	1.552100	0.316856	1.552771
H305	H	0.997604	-0.186980	1.005007
H306	H	1.497604	0.313020	1.505007
H307	H	1.048829	-0.247576	1.005048
H308	H	1.548829	0.252424	1.505048
H309	H	0.965739	-0.224563	1.098561
H310	H	1.465739	0.275437	1.598561
H311	H	1.016971	-0.285162	1.098615
H312	H	1.516971	0.214838	1.598615
C313	C	1.066705	-0.966512	0.302424
C314	C	1.566705	-0.466512	0.802424
C315	C	1.020370	-0.925976	0.271456
C316	C	1.520370	-0.425976	0.771456
H317	H	1.096694	-0.983369	0.272976
H318	H	1.596694	-0.483369	0.772976
H319	H	1.048193	-1.007706	0.322759
H320	H	1.548193	-0.507706	0.822759
H321	H	1.086660	-0.935945	0.332533
H322	H	1.586660	-0.435945	0.832533
H323	H	1.000411	-0.956544	0.241350
H324	H	1.500411	-0.456544	0.741350
H325	H	1.038884	-0.884776	0.251111
H326	H	1.538884	-0.384776	0.751111
H327	H	0.988093	-0.920221	0.366491
H328	H	1.488093	-0.420221	0.866491
C329	C	1.024868	-0.215472	0.574626
C330	C	1.524868	0.284528	1.074626
C331	C	0.989676	-0.257067	0.532065
C332	C	1.489676	0.242933	1.032065
H333	H	1.052072	-0.183329	0.552443
H334	H	1.552072	0.316671	1.052443
H335	H	1.048818	-0.247724	0.600163
H336	H	1.548818	0.252276	1.100163
H337	H	0.997579	-0.187145	0.600130
H338	H	1.497579	0.312855	1.100130
H339	H	1.016966	-0.285398	0.506564
H340	H	1.516966	0.214602	1.006564
H341	H	0.965724	-0.224811	0.506517
H342	H	1.465724	0.275189	1.006517
H343	H	0.896318	-0.477468	0.743152
H344	H	1.396318	0.022532	1.243152
C345	C	0.458834	-0.309689	0.459582
C346	C	0.958834	0.190311	0.959582
C347	C	0.474556	-0.369017	0.420654
C348	C	0.974556	0.130983	0.920654
H349	H	0.481080	-0.313716	0.497876
H350	H	0.981080	0.186284	0.997876
H351	H	0.415195	-0.310537	0.467675
H352	H	0.915195	0.189463	0.967675
H353	H	0.469574	-0.264579	0.439599
H354	H	0.969574	0.235421	0.939599
H355	H	0.463811	-0.414127	0.440635
H356	H	0.963811	0.085873	0.940635
H357	H	0.518204	-0.368176	0.412563
H358	H	1.018204	0.131824	0.912563
C359	C	0.177800	-0.497694	0.421342
C360	C	0.677800	0.002306	0.921342
C361	C	0.135261	-0.456044	0.386256
C362	C	0.635261	0.043956	0.886256
H363	H	0.155600	-0.529885	0.448487
H364	H	0.655600	-0.029885	0.948487
H365	H	0.203374	-0.465481	0.445351
H366	H	0.703374	0.034519	0.945351
H367	H	0.203268	-0.525973	0.393982
H368	H	0.703268	-0.025973	0.893982
H369	H	0.109796	-0.427760	0.413617
H370	H	0.609796	0.072240	0.913617
H371	H	0.109675	-0.488261	0.362246
H372	H	0.609675	0.011739	0.862246
C373	C	0.834822	-0.529237	0.653497
C374	C	1.334822	-0.029237	1.153497
C375	C	0.821339	-0.455895	0.669304
C376	C	1.321339	0.044105	1.169304
H377	H	0.807610	-0.561375	0.675676
H378	H	1.307610	-0.061375	1.175676
H379	H	0.876908	-0.540057	0.664254
H380	H	1.376908	-0.040057	1.164254
H381	H	0.829080	-0.536021	0.609839
H382	H	1.329080	-0.036021	1.109839
H383	H	0.827085	-0.449109	0.712962
H384	H	1.327085	0.050891	1.212962
H385	H	0.779242	-0.445071	0.658551
H386	H	1.279242	0.054929	1.158551
C387	C	0.829797	-0.445965	0.467610
C388	C	1.329797	0.054035	0.967610
C389	C	0.821331	-0.455943	0.531946
C390	C	1.321331	0.044057	1.031946
H391	H	0.802584	-0.478118	0.445390
H392	H	1.302584	0.021882	0.945390
H393	H	0.871884	-0.456801	0.456924
H394	H	1.371884	0.043199	0.956924
H395	H	0.820653	-0.396211	0.456882
H396	H	1.320653	0.103789	0.956882
H397	H	0.830479	-0.505696	0.542674
H398	H	1.330479	-0.005696	1.042674
H399	H	0.779234	-0.445113	0.542636
H400	H	1.279234	0.054887	1.042636
C401	C	0.581432	-0.497782	0.421206
C402	C	1.081432	0.002218	0.921206
C403	C	0.538896	-0.456136	0.386112
C404	C	1.038896	0.043864	0.886112
H405	H	0.559229	-0.529966	0.448354
H406	H	1.059229	-0.029966	0.948354
H407	H	0.607007	-0.465566	0.445210
H408	H	1.107007	0.034434	0.945210
H409	H	0.606899	-0.526069	0.393850
H410	H	1.106899	-0.026069	0.893850
H411	H	0.513431	-0.427845	0.413467
H412	H	1.013431	0.072155	0.913467
H413	H	0.513310	-0.488357	0.362105
H414	H	1.013310	0.011643	0.862105
C415	C	0.097568	-0.298617	0.178019
C416	C	0.597568	0.201383	0.678019
C417	C	0.135260	-0.256910	0.218302
C418	C	0.635260	0.243090	0.718302
H419	H	0.075378	-0.266433	0.150863
H420	H	0.575378	0.233567	0.650863
H421	H	0.068715	-0.326838	0.201850
H422	H	0.568715	0.173162	0.701850
H423	H	0.123054	-0.330856	0.154016
H424	H	0.623054	0.169144	0.654016
H425	H	0.109774	-0.224675	0.242308
H426	H	0.609774	0.275325	0.742308
H427	H	0.164117	-0.228676	0.194468
H428	H	0.664117	0.271324	0.694468
C429	C	0.379437	-0.338838	0.134175
C430	C	0.879437	0.161162	0.634175
C431	C	0.336952	-0.344052	0.183729
C432	C	0.836952	0.155948	0.683729
H433	H	0.357196	-0.334793	0.095880
H434	H	0.857196	0.165207	0.595880
H435	H	0.404920	-0.381766	0.133285
H436	H	0.904920	0.118234	0.633285
H437	H	0.405002	-0.296409	0.139748
H438	H	0.905002	0.203591	0.639748
H439	H	0.311390	-0.386484	0.178159
H440	H	0.811390	0.113516	0.678159
H441	H	0.311458	-0.301119	0.184618
H442	H	0.811458	0.198881	0.684618
