data_functionalizedCrystal
_audit_creation_method	'MofGen! by Chris Wilmer'
_symmetry_space_group_name_H-M	'P1'
_symmetry_Int_Tables_number	1
_symmetry_cell_setting	triclinic
loop_
_symmetry_equiv_pos_as_xyz
  x,y,z
_cell_length_a	13.262390
_cell_length_b	13.262415
_cell_length_c	17.766277
_cell_angle_alpha	74.077886
_cell_angle_beta	74.073354
_cell_angle_gamma	80.093410
loop_
_atom_site_label
_atom_site_type_symbol
_atom_site_fract_x
_atom_site_fract_y
_atom_site_fract_z
O1	O	1.393367	0.141392	-0.376796
O2	O	1.087838	0.156762	-0.317394
O3	O	1.248281	-0.003684	-0.317390
O4	O	1.232924	0.301837	-0.376799
O5	O	1.248252	-0.003692	-0.192194
O6	O	1.087809	0.156753	-0.192198
O7	O	1.393339	0.141383	-0.251599
Cu8	Cu	1.240571	0.149068	-0.210467
Cu9	Cu	1.240605	0.149077	-0.358526
O10	O	1.232896	0.301829	-0.251603
C11	C	1.048714	0.155896	-0.246613
C12	C	0.932180	0.153315	-0.222227
C13	C	0.603759	0.146045	-0.426475
C14	C	0.713249	0.148464	-0.449387
C15	C	0.767987	0.149677	-0.392599
C16	C	0.713224	0.148470	-0.312896
C17	C	0.603724	0.146042	-0.289980
C18	C	0.767952	0.149675	-0.256104
C19	C	0.713189	0.148468	-0.176401
C20	C	0.603700	0.146041	-0.153490
C21	C	0.548962	0.144827	-0.210277
C22	C	0.877452	0.152103	-0.279019
C23	C	0.877417	0.152100	-0.142524
C24	C	0.767927	0.149681	-0.119613
C25	C	1.247403	-0.042796	-0.246610
C26	C	1.244817	-0.159327	-0.222227
C27	C	1.237594	-0.487777	-0.426478
C28	C	1.240032	-0.378292	-0.449392
C29	C	1.241228	-0.323545	-0.392603
C30	C	1.239986	-0.378295	-0.312895
C31	C	1.237556	-0.487792	-0.289980
C32	C	1.241190	-0.323560	-0.256105
C33	C	1.239949	-0.378310	-0.176397
C34	C	1.237518	-0.487796	-0.153485
C35	C	1.236322	-0.542543	-0.210275
C36	C	1.243620	-0.214063	-0.279020
C37	C	1.243583	-0.214078	-0.142522
C38	C	1.241144	-0.323563	-0.119608
C39	C	1.432463	0.142249	-0.322382
C40	C	1.548997	0.144830	-0.346772
C41	C	1.233774	0.340942	-0.322385
C42	C	1.236360	0.457472	-0.346773
N43	N	1.240556	0.149060	-0.106332
N44	N	1.240629	0.149077	-0.462661
C45	C	1.311623	0.078050	-0.066956
C46	C	1.311629	0.078045	0.011846
C47	C	1.240578	0.149068	0.051262
C48	C	1.169497	0.220084	0.011878
C49	C	1.169486	0.220080	-0.066919
C50	C	1.227247	0.244603	0.159270
C51	C	1.227266	0.244608	0.238064
C52	C	1.240606	0.149081	0.294300
C53	C	1.253950	0.053545	0.271729
C54	C	1.253939	0.053540	0.192932
C55	C	1.240581	0.149081	0.136705
C56	C	1.311684	0.078060	0.419123
C57	C	1.311682	0.078054	0.497927
C58	C	1.169555	0.220102	0.497955
C59	C	1.169552	0.220099	0.419155
C60	C	1.240621	0.149079	0.379742
H61	H	0.559183	0.145047	-0.472702
O62	O	0.886078	0.152313	-0.417309
H63	H	0.914961	0.152964	-0.482274
O64	O	1.236302	-0.546820	-0.487724
H65	H	1.234397	-0.632152	-0.458396
O66	O	1.388287	0.001455	0.054328
H67	H	1.439483	0.045911	0.070635
O68	O	1.239811	-0.382616	-0.033639
H69	H	1.311721	-0.370638	-0.018086
O70	O	1.244882	-0.155046	-0.081264
H71	H	1.172958	-0.167027	-0.031357
O72	O	1.244940	-0.155018	-0.364982
H73	H	1.315932	-0.185078	-0.406089
O74	O	1.236196	-0.546853	-0.067519
H75	H	1.163638	-0.587705	-0.041039
O76	O	0.708601	0.148788	-0.033766
H77	H	0.667542	0.076372	-0.007143
H78	H	1.369550	0.020228	0.387033
H79	H	1.369489	0.020219	-0.099042
O80	O	0.936445	0.153434	-0.081275
H81	H	0.879972	0.152179	-0.022002
H82	H	1.243213	-0.234397	-0.411265
H83	H	1.234336	-0.631695	-0.191621
O84	O	1.241352	-0.319237	-0.535352
H85	H	1.240096	-0.375695	-0.570989
H86	H	0.559117	0.145038	-0.088586
H87	H	1.264801	-0.024249	0.174560
H88	H	0.459805	0.142861	-0.191627
H89	H	1.264812	-0.024243	0.317517
H90	H	1.369551	0.020223	0.529990
H91	H	1.111700	0.277927	0.530049
H92	H	1.216407	0.322400	0.256432
O93	O	1.092912	0.296701	0.376671
H94	H	1.043512	0.346095	0.417313
H95	H	1.216366	0.322397	0.113489
O96	O	1.092866	0.296696	0.054382
H97	H	1.104821	0.284779	0.115787
O98	O	1.092836	0.296670	-0.109402
H99	H	1.106569	0.378567	-0.113874
O100	O	0.936519	0.153407	-0.364978
H101	H	0.906478	0.224401	-0.406087
H102	H	0.757831	0.149442	-0.514280
