data_functionalizedCrystal
_audit_creation_method	'MofGen! by Chris Wilmer'
_symmetry_space_group_name_H-M	'P1'
_symmetry_Int_Tables_number	1
_symmetry_cell_setting	triclinic
loop_
_symmetry_equiv_pos_as_xyz
  x,y,z
_cell_length_a	14.044220
_cell_length_b	13.339070
_cell_length_c	12.376457
_cell_angle_alpha	104.410245
_cell_angle_beta	77.680302
_cell_angle_gamma	104.409086
loop_
_atom_site_label
_atom_site_type_symbol
_atom_site_fract_x
_atom_site_fract_y
_atom_site_fract_z
O1	O	-0.473359	-1.404410	-0.094060
O2	O	-0.409471	-1.104116	-0.094052
O3	O	-0.302247	-1.249753	-0.094045
O4	O	-0.580583	-1.258772	-0.094067
O5	O	-0.329006	-1.213353	0.093966
O6	O	-0.436230	-1.067716	0.093959
O7	O	-0.500118	-1.368010	0.093950
Zn8	Zn	-0.472423	-1.212084	0.123805
Zn9	Zn	-0.437166	-1.260042	-0.123907
O10	O	-0.607343	-1.222373	0.093943
C11	C	-0.279274	-1.227607	-0.000039
C12	C	-0.170953	-1.215836	-0.000037
C13	C	-0.412059	-1.047253	-0.000045
C14	C	-0.379891	-0.932047	-0.000042
C15	C	-0.630315	-1.244519	-0.000065
C16	C	-0.738635	-1.256291	-0.000074
C17	C	0.027370	-1.194321	-0.000053
C18	C	0.063049	-1.277803	-0.000059
C19	C	0.173403	-1.265831	-0.000068
C20	C	-0.082993	-1.206291	-0.000044
C21	C	-0.497530	-1.424874	-0.000059
C22	C	-0.529697	-1.540081	-0.000070
N23	N	-0.496486	-1.179361	0.292862
C24	C	-0.630012	-0.589833	-0.000080
C25	C	-0.660238	-0.698075	-0.000087
C26	C	-0.590154	-0.756573	-0.000075
C27	C	-0.489838	-0.706819	-0.000057
C28	C	-0.459608	-0.598569	-0.000059
C29	C	-0.419750	-0.765309	-0.000054
C30	C	-0.319434	-0.715555	-0.000037
C31	C	-0.289209	-0.607315	-0.000038
C32	C	-0.359293	-0.548816	-0.000049
C33	C	-0.449980	-0.873559	-0.000053
C34	C	-0.279576	-0.882295	-0.000032
C35	C	-0.249350	-0.774053	-0.000025
N36	N	-0.413098	-1.292772	-0.292964
C37	C	-0.357221	-1.368731	0.647856
C38	C	-0.340378	-1.391627	0.529517
C39	C	-0.379403	-1.338563	0.470347
C40	C	-0.435275	-1.262597	0.529528
C41	C	-0.452127	-1.239704	0.647878
C42	C	-0.474309	-1.209536	0.470370
C43	C	-0.530180	-1.133571	0.529551
C44	C	-0.547029	-1.110681	0.647889
C45	C	-0.508003	-1.163746	0.707059
C46	C	-0.457457	-1.232429	0.352020
C47	C	-0.552362	-1.103403	0.352042
C48	C	-0.569206	-1.080506	0.470381
H49	H	0.010727	-1.358280	-0.000137
H50	H	0.079699	-1.113864	-0.000053
Br51	Br	-0.586117	-0.941070	-0.000079
H52	H	-0.614769	-0.844709	-0.000084
H53	H	-0.741913	-0.738578	-0.000110
Br54	Br	-0.153060	-0.539802	-0.000059
H55	H	-0.521713	-1.145101	0.803420
H56	H	-0.687062	-0.542196	-0.000099
H57	H	-0.294889	-1.453478	0.481336
Br58	Br	-0.318276	-0.401909	-0.000033
H59	H	-0.325458	-1.411935	0.696039
H60	H	-0.167670	-0.733530	-0.000020
Br61	Br	-0.184453	-0.961679	-0.000030
H62	H	-0.592532	-1.048834	0.696075
H63	H	-0.614698	-1.018654	0.518581
H64	H	-0.411966	-1.294281	0.303845
H65	H	-0.365687	-1.357209	0.373991
Br66	Br	-0.605337	-1.031389	0.271749
