data_functionalizedCrystal
_audit_creation_method	'MofGen! by Chris Wilmer'
_symmetry_space_group_name_H-M	'P1'
_symmetry_Int_Tables_number	1
_symmetry_cell_setting	triclinic
loop_
_symmetry_equiv_pos_as_xyz
  x,y,z
_cell_length_a	18.215407
_cell_length_b	13.897447
_cell_length_c	18.215399
_cell_angle_alpha	89.974944
_cell_angle_beta	89.980167
_cell_angle_gamma	90.019978
loop_
_atom_site_label
_atom_site_type_symbol
_atom_site_fract_x
_atom_site_fract_y
_atom_site_fract_z
Zn1	Zn	1.125099	-0.384013	-0.416131
Zn2	Zn	1.458433	-0.050680	-0.082797
Zn3	Zn	1.791766	0.282653	0.250536
Zn4	Zn	1.125019	-0.545323	-0.293071
Zn5	Zn	1.458353	-0.211990	0.040263
Zn6	Zn	1.791686	0.121344	0.373596
Zn7	Zn	1.002032	-0.384045	-0.293078
Zn8	Zn	1.335365	-0.050711	0.040255
Zn9	Zn	1.668699	0.282622	0.373589
Zn10	Zn	1.002009	-0.545269	-0.416096
Zn11	Zn	1.335343	-0.211936	-0.082762
Zn12	Zn	1.668676	0.121397	0.250571
O13	O	1.063540	-0.464663	-0.354594
O14	O	1.396873	-0.131329	-0.021260
O15	O	1.730207	0.202004	0.312073
O16	O	1.228073	-0.405421	-0.399818
O17	O	1.561406	-0.072087	-0.066485
O18	O	1.894740	0.261246	0.266849
O19	O	1.108681	-0.523965	-0.190087
O20	O	1.442014	-0.190631	0.143246
O21	O	1.775347	0.142702	0.476579
O22	O	1.018400	-0.249059	-0.309419
O23	O	1.351733	0.084274	0.023914
O24	O	1.685067	0.417608	0.357248
O25	O	1.228014	-0.523934	-0.309406
O26	O	1.561347	-0.190601	0.023927
O27	O	1.894681	0.142733	0.357260
O28	O	1.108817	-0.249036	-0.399825
O29	O	1.442151	0.084298	-0.066492
O30	O	1.775484	0.417631	0.266841
O31	O	1.018322	-0.405474	-0.190093
O32	O	1.351656	-0.072141	0.143241
O33	O	1.684989	0.261192	0.476574
O34	O	0.899045	-0.405422	-0.309385
O35	O	1.232378	-0.072089	0.023948
O36	O	1.565711	0.261244	0.357282
O37	O	1.018361	-0.523843	-0.519084
O38	O	1.351695	-0.190509	-0.185751
O39	O	1.685028	0.142824	0.147582
O40	O	0.899028	-0.523873	-0.399765
O41	O	1.232361	-0.190540	-0.066432
O42	O	1.565695	0.142793	0.266901
O43	O	1.108795	-0.405369	-0.519110
O44	O	1.442129	-0.072035	-0.185777
O45	O	1.775462	0.261298	0.147556
O46	O	1.108659	-0.680297	-0.309372
O47	O	1.441992	-0.346964	0.023961
O48	O	1.775325	-0.013631	0.357294
O49	O	1.018284	-0.680258	-0.399758
O50	O	1.351617	-0.346925	-0.066425
O51	O	1.684951	-0.013591	0.266909
C52	C	0.872334	-0.464646	-0.354573
C53	C	1.205667	-0.131313	-0.021239
C54	C	1.539000	0.202021	0.312094
C55	C	0.790535	-0.464662	-0.354581
C56	C	1.123868	-0.131329	-0.021248
C57	C	1.457201	0.202004	0.312086
C58	C	1.063480	-0.715277	-0.354577
C59	C	1.396813	-0.381944	-0.021243
C60	C	1.730147	-0.048610	0.312090
C61	C	1.063522	-0.822491	-0.354594
C62	C	1.396855	-0.489157	-0.021261
C63	C	1.730189	-0.155824	0.312073
C64	C	0.602351	-0.526437	-0.401583
C65	C	0.935685	-0.193103	-0.068250
C66	C	1.269018	0.140230	0.265084
C67	C	0.525493	-0.526440	-0.401592
C68	C	0.858826	-0.193106	-0.068259
C69	C	1.192159	0.140227	0.265074
C70	C	0.525480	-0.402906	-0.307620
C71	C	0.858814	-0.069573	0.025713
C72	C	1.192147	0.263761	0.359046
C73	C	0.602338	-0.402899	-0.307616
C74	C	0.935671	-0.069566	0.025718
C75	C	1.269004	0.263768	0.359051
C76	C	0.640771	-0.464670	-0.354596
C77	C	0.974105	-0.131336	-0.021262
C78	C	1.307438	0.201997	0.312071
C79	C	0.487055	-0.464680	-0.354610
C80	C	0.820389	-0.131346	-0.021276
C81	C	1.153722	0.201987	0.312057
C82	C	0.403722	-0.464683	-0.354619
C83	C	0.737055	-0.131349	-0.021286
C84	C	1.070388	0.201984	0.312047
C85	C	0.724110	-0.464666	-0.354587
C86	C	1.057444	-0.131332	-0.021254
C87	C	1.390777	0.202001	0.312079
C88	C	1.063557	-0.909561	-0.354611
C89	C	1.396891	-0.576227	-0.021277
C90	C	1.730224	-0.242894	0.312056
C91	C	1.063609	-1.018793	-0.354630
C92	C	1.396942	-0.685460	-0.021296
C93	C	1.730276	-0.352126	0.312037
C94	C	1.255493	-0.464680	-0.354615
C95	C	1.588826	-0.131346	-0.021282
C96	C	1.922160	0.201987	0.312051
C97	C	1.337292	-0.464687	-0.354625
C98	C	1.670625	-0.131354	-0.021291
C99	C	2.003958	0.201979	0.312042
C100	C	1.063585	-0.464596	-0.546547
C101	C	1.396918	-0.131263	-0.213213
C102	C	1.730251	0.202071	0.120120
C103	C	1.063604	-0.464568	-0.628346
C104	C	1.396937	-0.131234	-0.295012
C105	C	1.730271	0.202099	0.038321
C106	C	1.063620	-0.213070	-0.354627
C107	C	1.396953	0.120264	-0.021294
C108	C	1.730287	0.453597	0.312040
C109	C	1.063654	-0.105856	-0.354641
C110	C	1.396988	0.227478	-0.021308
C111	C	1.730321	0.560811	0.312026
C112	C	1.110710	-0.402821	-0.816554
C113	C	1.444043	-0.069487	-0.483221
C114	C	1.777376	0.263846	-0.149888
C115	C	1.110718	-0.402792	-0.893413
C116	C	1.444052	-0.069459	-0.560080
C117	C	1.777385	0.263874	-0.226746
C118	C	1.016550	-0.526166	-0.893375
C119	C	1.349883	-0.192832	-0.560042
C120	C	1.683217	0.140501	-0.226708
C121	C	1.016538	-0.526188	-0.816518
C122	C	1.349872	-0.192855	-0.483184
C123	C	1.683205	0.140478	-0.149851
C124	C	1.063622	-0.464517	-0.778109
C125	C	1.396955	-0.131184	-0.444776
C126	C	1.730289	0.202150	-0.111443
C127	C	1.063643	-0.464466	-0.931825
C128	C	1.396976	-0.131133	-0.598492
C129	C	1.730310	0.202200	-0.265159
C130	C	1.063652	-0.464436	-1.015159
C131	C	1.396985	-0.131103	-0.681826
C132	C	1.730319	0.202230	-0.348492
C133	C	1.063612	-0.464546	-0.694770
C134	C	1.396946	-0.131212	-0.361437
C135	C	1.730279	0.202121	-0.028104
C136	C	1.063538	-0.464659	-0.163387
C137	C	1.396871	-0.131326	0.169946
C138	C	1.730204	0.202007	0.503279
C139	C	1.063661	-0.464416	-0.081589
C140	C	1.396994	-0.131082	0.251744
C141	C	1.730328	0.202251	0.585078
H142	H	0.633642	-0.576732	-0.439839
H143	H	0.966975	-0.243399	-0.106506
H144	H	1.300308	0.089935	0.226827
H145	H	0.494178	-0.352616	-0.269370
H146	H	0.827512	-0.019283	0.063964
H147	H	1.160845	0.314051	0.397297
H148	H	0.978218	-0.576378	-0.924656
H149	H	1.311551	-0.243045	-0.591323
H150	H	1.644884	0.090288	-0.257990
H151	H	0.633620	-0.352595	-0.269353
H152	H	0.966953	-0.019261	0.063981
H153	H	1.300287	0.314072	0.397314
H154	H	1.149046	-0.352601	-0.785285
H155	H	1.482380	-0.019268	-0.451951
H156	H	1.815713	0.314065	-0.118618
H157	H	1.149061	-0.352551	-0.924712
H158	H	1.482394	-0.019218	-0.591378
H159	H	1.815727	0.314115	-0.258045
H160	H	0.494215	-0.576735	-0.439855
H161	H	0.827548	-0.243402	-0.106522
H162	H	1.160881	0.089932	0.226812
H163	H	0.978189	-0.576428	-0.785215
H164	H	1.311522	-0.243095	-0.451881
H165	H	1.644855	0.090239	-0.118548
