data_functionalizedCrystal
_audit_creation_method	'MofGen! by Chris Wilmer'
_symmetry_space_group_name_H-M	'P1'
_symmetry_Int_Tables_number	1
_symmetry_cell_setting	triclinic
loop_
_symmetry_equiv_pos_as_xyz
  x,y,z
_cell_length_a	6.817900
_cell_length_b	10.992723
_cell_length_c	10.992410
_cell_angle_alpha	91.830958
_cell_angle_beta	108.764651
_cell_angle_gamma	108.770285
loop_
_atom_site_label
_atom_site_type_symbol
_atom_site_fract_x
_atom_site_fract_y
_atom_site_fract_z
V1	V	-4.114281	-0.177763	-0.400582
O2	O	-4.072374	0.008542	-0.392968
O3	O	-4.091893	-0.352473	-0.397831
O4	O	-4.091873	-0.175028	-0.575295
O5	O	-4.072394	-0.170131	-0.214276
V6	V	-4.591171	-0.155478	-0.378300
O7	O	-4.390091	-0.226645	-0.449460
O8	O	-4.765559	-0.106596	-0.329421
O9	O	-4.390353	0.019232	-0.381050
O10	O	-4.750475	-0.341783	-0.385913
O11	O	-4.750455	-0.163110	-0.564605
O12	O	-4.390373	-0.158213	-0.203587
C13	C	-3.942380	-0.395064	-0.391509
C14	C	-4.005535	-0.537892	-0.390424
C15	C	-4.317466	-0.748833	-0.396136
C16	C	-4.252189	-0.600354	-0.397761
C17	C	-3.982608	-0.607105	-0.509425
C18	C	-4.049772	-0.755778	-0.508444
C19	C	-3.918395	-0.717504	-0.262824
C20	C	-3.856042	-0.568782	-0.262474
C21	C	-3.942354	-0.168714	-0.617879
C22	C	-4.005488	-0.167634	-0.760708
C23	C	-3.872609	-0.157797	-0.955832
C24	C	-3.807059	-0.159452	-0.807348
C25	C	-4.203527	-0.294316	-0.837804
C26	C	-4.267841	-0.293195	-0.986371
C27	C	-4.145561	-0.047894	-0.948354
C28	C	-4.074852	-0.047293	-0.799341
C29	C	-4.203208	0.061816	-0.387369
C30	C	-4.119293	0.204643	-0.388462
C31	C	-4.203234	-0.164532	-0.160995
C32	C	-4.119337	-0.165605	-0.018165
H33	H	-4.090296	-0.586919	-0.604107
N34	N	-3.748331	-0.553545	-0.508328
H35	H	-3.644464	-0.567941	-0.425627
H36	H	-3.706322	-0.457390	-0.512997
N37	N	-3.721346	-0.756185	-0.253805
H38	H	-3.675875	-0.793376	-0.170750
H39	H	-3.594393	-0.677260	-0.254008
N40	N	-4.285166	-0.537890	-0.285097
H41	H	-4.444924	-0.577231	-0.292105
H42	H	-4.245564	-0.441368	-0.287060
N43	N	-3.970663	-0.751213	-0.141975
H44	H	-4.125117	-0.817304	-0.167450
H45	H	-3.960814	-0.670144	-0.090824
N46	N	-4.382625	-0.053961	-1.002457
H47	H	-4.445549	-0.060743	-0.930338
H48	H	-4.472499	-0.132532	-1.071858
H49	H	-4.466284	-0.802970	-0.486778
N50	N	-3.717316	-0.036317	-0.980782
H51	H	-3.805383	0.014837	-1.032737
H52	H	-3.631890	-0.061167	-1.031115
N53	N	-4.263006	-0.045307	-0.756191
H54	H	-4.395274	-0.127079	-0.798738
H55	H	-4.303752	0.033055	-0.782287
N56	N	-4.393530	-0.782013	-0.282712
H57	H	-4.300279	-0.827531	-0.225252
H58	H	-4.553764	-0.841068	-0.316107
H59	H	-4.369438	-0.581708	-0.489581
H60	H	-4.191229	-0.807600	-0.603052
N61	N	-3.879650	-0.507064	-0.145751
H62	H	-3.986725	-0.459288	-0.175615
H63	H	-3.730670	-0.443856	-0.088040
H64	H	-3.749895	-0.245203	-0.782528
N65	N	-4.247255	-0.411254	-1.047659
H66	H	-4.089679	-0.408589	-1.009465
H67	H	-4.288851	-0.411642	-1.144578
H68	H	-3.905367	-0.786810	-0.508115
N69	N	-3.614144	-0.510398	-0.245502
H70	H	-3.570100	-0.412937	-0.240800
H71	H	-3.588200	-0.547415	-0.321788
H72	H	-3.658587	-0.068363	-0.754014
N73	N	-3.839575	-0.269827	-1.019380
H74	H	-3.983737	-0.325614	-1.088371
H75	H	-3.788840	-0.323747	-0.951631
H76	H	-4.449845	-0.304211	-1.029001
N77	N	-4.142961	-0.412675	-0.803885
H78	H	-3.987415	-0.384517	-0.738638
H79	H	-4.151770	-0.463108	-0.885079
H80	H	-4.353905	-0.304877	-0.809000
H81	H	-4.042629	0.048305	-0.968719
N82	N	-3.885070	0.076849	-0.730027
H83	H	-3.754699	0.055241	-0.673827
H84	H	-3.932220	0.127730	-0.673775
