data_functionalizedCrystal
_audit_creation_method	'MofGen! by Chris Wilmer'
_symmetry_space_group_name_H-M	'P1'
_symmetry_Int_Tables_number	1
_symmetry_cell_setting	triclinic
loop_
_symmetry_equiv_pos_as_xyz
  x,y,z
_cell_length_a	19.805407
_cell_length_b	12.759400
_cell_length_c	19.805399
_cell_angle_alpha	90.022119
_cell_angle_beta	90.019573
_cell_angle_gamma	90.013166
loop_
_atom_site_label
_atom_site_type_symbol
_atom_site_fract_x
_atom_site_fract_y
_atom_site_fract_z
Zn1	Zn	1.034798	-0.418291	0.382745
Zn2	Zn	1.034739	-0.593984	0.269568
Zn3	Zn	0.921613	-0.418320	0.269570
Zn4	Zn	0.921602	-0.593928	0.382715
O5	O	0.978188	-0.506131	0.326149
O6	O	1.129507	-0.441608	0.367744
O7	O	1.019712	-0.570717	0.174852
O8	O	0.936656	-0.271295	0.284597
O9	O	1.129463	-0.570689	0.284593
O10	O	1.019813	-0.271273	0.367746
O11	O	0.936599	-0.441657	0.174853
O12	O	0.826895	-0.441603	0.284567
O13	O	0.936638	-0.570594	0.477435
O14	O	0.826887	-0.570622	0.367694
O15	O	1.019803	-0.441554	0.477458
O16	O	1.019702	-0.740998	0.284563
O17	O	0.936581	-0.740957	0.367692
C18	C	0.802332	-0.506110	0.326128
C19	C	0.727100	-0.506127	0.326134
C20	C	0.978152	-0.779098	0.326139
C21	C	0.978199	-0.895875	0.326157
C22	C	0.691770	-0.573408	0.369348
C23	C	0.621081	-0.573410	0.369358
C24	C	0.585724	-0.506135	0.326149
C25	C	0.621060	-0.438847	0.282933
C26	C	0.691747	-0.438840	0.282928
C27	C	0.335986	-0.438870	0.282956
C28	C	0.265294	-0.438884	0.282963
C29	C	0.265321	-0.573440	0.369386
C30	C	0.336008	-0.573433	0.369380
C31	C	0.371337	-0.506141	0.326167
C32	C	0.447985	-0.506139	0.326158
C33	C	0.509077	-0.506142	0.326154
C34	C	1.021477	-0.950646	0.369488
C35	C	1.021509	-1.060370	0.369505
C36	C	0.934982	-1.060542	0.282853
C37	C	0.934948	-0.950820	0.282840
C38	C	1.064729	-0.895701	0.412805
C39	C	1.108011	-0.950472	0.456139
C40	C	1.108042	-1.060196	0.456156
C41	C	1.064792	-1.115149	0.412838
C42	C	1.154731	-0.506152	0.326172
C43	C	1.229963	-0.506160	0.326181
C44	C	0.978226	-0.506064	0.502692
C45	C	0.978242	-0.506036	0.577924
C46	C	0.978242	-0.232097	0.326175
C47	C	0.978265	-0.115321	0.326186
C48	C	0.978189	-0.506121	0.150293
C49	C	0.978304	-0.505853	0.075062
C50	C	1.021547	-0.438842	0.613281
C51	C	1.021554	-0.438811	0.683970
C52	C	0.978259	-0.505981	0.719300
C53	C	0.934949	-0.573179	0.683938
C54	C	0.934940	-0.573203	0.613251
C55	C	0.934988	-0.573081	0.969011
C56	C	0.935002	-0.573054	1.039704
C57	C	1.021602	-0.438689	1.039730
C58	C	1.021592	-0.438713	0.969043
C59	C	0.978280	-0.505906	0.933687
C60	C	0.978272	-0.505937	0.857039
C61	C	0.978270	-0.505957	0.795947
H62	H	0.720552	-0.628195	0.404532
Cl63	Cl	0.576669	-0.657996	0.423687
Cl64	Cl	0.380391	-0.354271	0.228632
Cl65	Cl	1.064935	-1.253089	0.412758
Cl66	Cl	1.076049	-0.354212	1.084182
Cl67	Cl	1.075981	-0.354399	0.568873
H68	H	1.143220	-0.905724	0.491411
Cl69	Cl	0.880519	-0.657618	0.728353
H70	H	1.056818	-0.384097	0.712754
Cl71	Cl	0.736162	-0.354252	0.228601
Cl72	Cl	1.076024	-0.354271	0.924632
Cl73	Cl	0.880615	-1.129626	0.228399
H74	H	0.899744	-0.627754	1.068467
H75	H	1.143279	-1.104788	0.491446
H76	H	0.899706	-0.906225	0.247556
Cl77	Cl	0.880539	-0.657553	0.924573
Cl78	Cl	0.380453	-0.658014	0.423699
Cl79	Cl	0.880495	-0.657677	0.568802
H80	H	0.236547	-0.628228	0.404575
Cl81	Cl	0.220847	-0.354301	0.228641
H82	H	0.592267	-0.384066	0.247755
Cl83	Cl	1.064675	-0.757762	0.412804
