data_functionalizedCrystal
_audit_creation_method	'MofGen! by Chris Wilmer'
_symmetry_space_group_name_H-M	'P1'
_symmetry_Int_Tables_number	1
_symmetry_cell_setting	triclinic
loop_
_symmetry_equiv_pos_as_xyz
  x,y,z
_cell_length_a	19.121275
_cell_length_b	19.121111
_cell_length_c	17.640968
_cell_angle_alpha	81.650773
_cell_angle_beta	99.301410
_cell_angle_gamma	90.071991
loop_
_atom_site_label
_atom_site_type_symbol
_atom_site_fract_x
_atom_site_fract_y
_atom_site_fract_z
Zn1	Zn	1.135481	0.255339	0.404642
Zn2	Zn	1.468814	0.588672	0.737975
Zn3	Zn	1.802147	0.922006	1.071309
Zn4	Zn	1.107160	0.393898	0.280465
Zn5	Zn	1.440494	0.727231	0.613798
Zn6	Zn	1.773827	1.060564	0.947131
Zn7	Zn	0.994939	0.271761	0.280012
Zn8	Zn	1.328272	0.605094	0.613345
Zn9	Zn	1.661606	0.938427	0.946678
Zn10	Zn	1.015269	0.365647	0.415667
Zn11	Zn	1.348603	0.698980	0.749000
Zn12	Zn	1.681936	1.032314	1.082334
O13	O	1.063212	0.321661	0.345196
O14	O	1.396546	0.654994	0.678530
O15	O	1.729879	0.988328	1.011863
O16	O	1.228998	0.278670	0.383745
O17	O	1.562331	0.612003	0.717079
O18	O	1.895665	0.945336	1.050412
O19	O	1.071913	0.396391	0.171664
O20	O	1.405247	0.729725	0.504997
O21	O	1.738580	1.063058	0.838330
O22	O	1.016926	0.172303	0.291741
O23	O	1.350259	0.505637	0.625074
O24	O	1.683593	0.838970	0.958407
O25	O	1.208191	0.380468	0.292513
O26	O	1.541525	0.713801	0.625846
O27	O	1.874858	1.047135	0.959179
O28	O	1.120181	0.160238	0.383306
O29	O	1.453515	0.493572	0.716639
O30	O	1.786848	0.826905	1.049973
O31	O	0.989465	0.306658	0.171331
O32	O	1.322798	0.639991	0.504664
O33	O	1.656131	0.973325	0.837997
O34	O	0.900362	0.279264	0.302431
O35	O	1.233695	0.612598	0.635764
O36	O	1.567029	0.945931	0.969097
O37	O	1.051576	0.332319	0.522945
O38	O	1.384910	0.665652	0.856279
O39	O	1.718243	0.998985	1.189612
O40	O	0.915299	0.348242	0.402096
O41	O	1.248632	0.681575	0.735430
O42	O	1.581965	1.014909	1.068763
O43	O	1.139895	0.251276	0.514846
O44	O	1.473228	0.584609	0.848179
O45	O	1.806562	0.917943	1.181512
O46	O	1.091627	0.487429	0.303203
O47	O	1.424960	0.820762	0.636536
O48	O	1.758294	1.154096	0.969870
O49	O	1.024115	0.466673	0.402536
O50	O	1.357449	0.800007	0.735869
O51	O	1.690782	1.133340	1.069202
C52	C	0.882608	0.312470	0.353411
C53	C	1.215942	0.645803	0.686745
C54	C	1.549275	0.979137	1.020078
C55	C	0.805348	0.308552	0.356945
C56	C	1.138681	0.641885	0.690278
C57	C	1.472015	0.975218	1.023611
C58	C	0.758203	0.359652	0.311027
C59	C	1.091537	0.692985	0.644361
C60	C	1.424870	1.026319	0.977694
C61	C	0.685611	0.355969	0.314358
C62	C	1.018944	0.689302	0.647691
C63	C	1.352278	1.022636	0.981025
C64	C	0.660164	0.301182	0.363602
C65	C	0.993497	0.634515	0.696935
C66	C	1.326830	0.967848	1.030269
C67	C	0.707314	0.250078	0.409525
C68	C	1.040648	0.583412	0.742858
C69	C	1.373981	0.916745	1.076191
C70	C	0.779906	0.253765	0.406198
C71	C	1.113239	0.587098	0.739531
C72	C	1.446573	0.920432	1.072864
C73	C	0.441527	0.287404	0.376031
C74	C	0.774861	0.620737	0.709365
C75	C	1.108194	0.954071	1.042698
C76	C	0.368930	0.283720	0.379353
C77	C	0.702263	0.617053	0.712686
C78	C	1.035596	0.950387	1.046020
C79	C	0.347231	0.389612	0.284187
C80	C	0.680565	0.722945	0.617520
C81	C	1.013898	1.056278	0.950854
C82	C	0.419825	0.393291	0.280861
C83	C	0.753158	0.726624	0.614194
C84	C	1.086491	1.059958	0.947528
C85	C	0.466969	0.342190	0.326786
C86	C	0.800303	0.675523	0.660120
C87	C	1.133636	1.008857	0.993453
C88	C	0.585963	0.297414	0.367006
C89	C	0.919296	0.630747	0.700339
C90	C	1.252629	0.964081	1.033672
C91	C	0.541170	0.345961	0.323386
C92	C	0.874503	0.679294	0.656720
C93	C	1.207836	1.012628	0.990053
C94	C	1.057026	0.502273	0.354131
C95	C	1.390360	0.835606	0.687464
C96	C	1.723693	1.168939	1.020798
C97	C	1.054448	0.579538	0.357976
C98	C	1.387781	0.912871	0.691310
C99	C	1.721115	1.246204	1.024643
C100	C	1.088429	0.626615	0.308105
C101	C	1.421762	0.959948	0.641439
C102	C	1.755096	1.293282	0.974772
C103	C	1.086009	0.699212	0.311726
C104	C	1.419343	1.032546	0.645059
C105	C	1.752676	1.365879	0.978393
C106	C	1.049604	0.724732	0.365215
C107	C	1.382938	1.058065	0.698548
C108	C	1.716271	1.391399	1.031881
C109	C	1.015622	0.677649	0.415091
C110	C	1.348956	1.010982	0.748424
C111	C	1.682289	1.344315	1.081758
C112	C	1.018047	0.605052	0.411473
C113	C	1.351380	0.938385	0.744807
C114	C	1.684713	1.271719	1.078140
C115	C	1.040528	0.943387	0.378727
C116	C	1.373861	1.276720	0.712060
C117	C	1.707194	1.610054	1.045393
C118	C	1.038104	1.015990	0.382339
C119	C	1.371437	1.349323	0.715673
C120	C	1.704771	1.682657	1.049006
C121	C	1.108492	1.037548	0.278975
C122	C	1.441826	1.370882	0.612308
C123	C	1.775159	1.704215	0.945641
C124	C	1.110910	0.964950	0.275359
C125	C	1.444243	1.298283	0.608692
C126	C	1.777577	1.631617	0.942025
C127	C	1.076931	0.917873	0.325238
C128	C	1.410265	1.251206	0.658571
C129	C	1.743598	1.584539	0.991904
C130	C	1.047128	0.798938	0.368916
C131	C	1.380461	1.132272	0.702249
C132	C	1.713795	1.465605	1.035582
C133	C	1.079412	0.843667	0.321540
C134	C	1.412745	1.177001	0.654873
C135	C	1.746079	1.510334	0.988207
C136	C	1.244522	0.330888	0.336950
C137	C	1.577855	0.664222	0.670283
C138	C	1.911189	0.997555	1.003616
C139	C	1.321785	0.334821	0.333436
C140	C	1.655119	0.668154	0.666769
C141	C	1.988452	1.001487	1.000102
C142	C	1.101163	0.286814	0.547879
C143	C	1.434496	0.620148	0.881212
C144	C	1.767829	0.953481	1.214546
C145	C	1.117335	0.271965	0.634250
C146	C	1.450668	0.605298	0.967584
C147	C	1.784001	0.938631	1.300917
C148	C	1.069441	1.140340	0.336253
C149	C	1.402774	1.473674	0.669587
C150	C	1.736108	1.807007	1.002920
C151	C	1.072085	1.063067	0.332468
C152	C	1.405418	1.396400	0.665802
C153	C	1.738752	1.729734	0.999135
C154	C	1.025452	0.356324	0.143298
C155	C	1.358785	0.689657	0.476631
C156	C	1.692118	1.022991	0.809964
C157	C	1.009421	0.370984	0.056911
C158	C	1.342754	0.704318	0.390244
C159	C	1.676088	1.037651	0.723578
C160	C	0.940634	0.434107	0.939400
C161	C	1.273968	0.767440	1.272733
C162	C	1.607301	1.100774	1.606067
C163	C	0.955846	0.420145	1.020558
C164	C	1.289179	0.753479	1.353891
C165	C	1.622512	1.086812	1.687224
C166	C	1.047804	0.335763	1.012114
C167	C	1.381137	0.669096	1.345447
C168	C	1.714471	1.002429	1.678780
C169	C	1.032598	0.349715	0.930953
C170	C	1.365932	0.683048	1.264287
C171	C	1.699265	1.016381	1.597620
C172	C	0.979013	0.398888	0.894603
C173	C	1.312347	0.732221	1.227936
C174	C	1.645680	1.065555	1.561270
C175	C	1.070977	0.314496	0.886157
C176	C	1.404311	0.647829	1.219490
C177	C	1.737644	0.981162	1.552823
C178	C	1.055775	0.328450	0.805003
C179	C	1.389108	0.661783	1.138337
C180	C	1.722442	0.995116	1.471670
C181	C	1.002194	0.377622	0.768647
C182	C	1.335527	0.710955	1.101980
C183	C	1.668861	1.044289	1.435314
C184	C	0.963811	0.412842	0.813450
C185	C	1.297145	0.746175	1.146783
C186	C	1.630478	1.079508	1.480117
C187	C	1.124565	0.265326	0.922508
C188	C	1.457899	0.598660	1.255842
C189	C	1.791232	0.931993	1.589175
C190	C	1.162944	0.230108	0.877712
C191	C	1.496278	0.563441	1.211045
C192	C	1.829611	0.896774	1.544378
C193	C	1.147739	0.244057	0.796557
C194	C	1.481072	0.577391	1.129890
C195	C	1.814406	0.910724	1.463224
C196	C	1.094158	0.293230	0.760200
C197	C	1.427491	0.626563	1.093534
C198	C	1.760825	0.959897	1.426867
C199	C	1.186122	0.208838	0.751754
C200	C	1.519455	0.542171	1.085087
C201	C	1.852789	0.875504	1.418421
C202	C	1.170920	0.222791	0.670601
C203	C	1.504253	0.556125	1.003934
C204	C	1.837586	0.889458	1.337267
C205	C	1.078956	0.307184	0.679047
C206	C	1.412289	0.640517	1.012381
C207	C	1.745622	0.973850	1.345714
H208	H	0.348214	0.239100	0.419451
H209	H	0.681547	0.572434	0.752785
H210	H	1.014880	0.905767	1.086118
F211	F	1.127172	0.599463	0.251170
F212	F	1.460505	0.932796	0.584503
F213	F	1.793838	1.266130	0.917837
H214	H	0.479905	0.245794	0.413428
H215	H	0.813238	0.579128	0.746761
H216	H	1.146571	0.912461	1.080095
H217	H	0.924589	0.448829	1.057029
H218	H	1.257922	0.782162	1.390362
H219	H	1.591256	1.115495	1.723696
H220	H	1.136157	1.075886	0.238367
H221	H	1.469490	1.409219	0.571701
H222	H	1.802824	1.742553	0.905034
H223	H	0.778916	0.404264	0.270924
H224	H	1.112249	0.737597	0.604258
H225	H	1.445582	1.070930	0.937591
F226	F	1.149667	0.937795	0.218437
F227	F	1.483000	1.271128	0.551770
F228	F	1.816333	1.604462	0.885103
H229	H	0.308839	0.431216	0.246798
H230	H	0.642172	0.764549	0.580132
H231	H	0.975506	1.097883	0.913465
H232	H	0.686590	0.205472	0.449624
H233	H	1.019924	0.538805	0.782957
H234	H	1.353257	0.872139	1.116291
F235	F	0.830081	0.199378	0.455071
F236	F	1.163415	0.532712	0.788405
F237	F	1.496748	0.866045	1.121738
H238	H	1.229755	0.168806	0.781363
H239	H	1.563089	0.502139	1.114696
H240	H	1.896422	0.835473	1.448030
F241	F	0.635437	0.410348	0.265472
F242	F	0.968770	0.743681	0.598805
F243	F	1.302103	1.077014	0.932139
H244	H	0.561893	0.390571	0.283296
H245	H	0.895226	0.723904	0.616629
H246	H	1.228559	1.057238	0.949962
F247	F	0.558873	0.239108	0.419415
F248	F	0.892207	0.572441	0.752748
F249	F	1.225540	0.905774	1.086082
F250	F	0.446899	0.451589	0.228429
F251	F	0.780232	0.784923	0.561762
F252	F	1.113565	1.118256	0.895095
H253	H	0.896984	0.474131	0.909801
H254	H	1.230317	0.807465	1.243135
H255	H	1.563651	1.140798	1.576468
H256	H	1.113680	0.737541	0.271115
H257	H	1.447013	1.070874	0.604449
H258	H	1.780346	1.404207	0.937782
F259	F	0.999346	1.043148	0.439264
F260	F	1.332680	1.376481	0.772597
F261	F	1.666013	1.709815	1.105931
H262	H	1.012859	0.905062	0.419339
H263	H	1.346193	1.238396	0.752672
H264	H	1.679526	1.571729	1.086006
F265	F	0.986017	0.392477	0.682275
F266	F	1.319351	0.725810	1.015609
F267	F	1.652684	1.059143	1.348942
H268	H	1.202171	0.194112	0.634126
H269	H	1.535504	0.527445	0.967459
H270	H	1.868837	0.860778	1.300793
H271	H	1.136943	0.253969	0.988589
H272	H	1.470276	0.587302	1.321922
H273	H	1.803609	0.920635	1.655255
F274	F	0.976882	0.704810	0.472022
F275	F	1.310215	1.038143	0.805356
F276	F	1.643548	1.371476	1.138689
H277	H	0.990377	0.566721	0.452085
H278	H	1.323710	0.900055	0.785418
H279	H	1.657044	1.233388	1.118751
F280	F	1.118159	0.816506	0.264618
F281	F	1.451493	1.149839	0.597952
F282	F	1.784826	1.483172	0.931285
F283	F	1.008383	0.826105	0.425840
F284	F	1.341717	1.159438	0.759174
F285	F	1.675050	1.492771	1.092507
F286	F	1.021919	0.359514	0.640356
F287	F	1.355252	0.692847	0.973690
F288	F	1.688585	1.026181	1.307023
F289	F	0.906774	0.465172	0.774759
F290	F	1.240108	0.798505	1.108092
F291	F	1.573441	1.131839	1.441425
H292	H	1.091435	0.295728	1.041721
H293	H	1.424768	0.629061	1.375055
H294	H	1.758102	0.962395	1.708388
H295	H	1.206575	0.190073	0.907319
H296	H	1.539908	0.523406	1.240653
H297	H	1.873242	0.856739	1.573986
