data_functionalizedCrystal
_audit_creation_method	'MofGen! by Chris Wilmer'
_symmetry_space_group_name_H-M	'P1'
_symmetry_Int_Tables_number	1
_symmetry_cell_setting	triclinic
loop_
_symmetry_equiv_pos_as_xyz
  x,y,z
_cell_length_a	23.532350
_cell_length_b	27.732066
_cell_length_c	22.610064
_cell_angle_alpha	89.992187
_cell_angle_beta	90.002600
_cell_angle_gamma	82.737671
loop_
_atom_site_label
_atom_site_type_symbol
_atom_site_fract_x
_atom_site_fract_y
_atom_site_fract_z
O1	O	-0.755164	-0.058539	-0.049103
O2	O	-0.255164	0.441461	0.450897
O3	O	-0.589279	-0.067059	-0.049120
O4	O	-0.089279	0.432941	0.450880
O5	O	-0.677368	0.007590	-0.049113
O6	O	-0.177368	0.507590	0.450887
O7	O	-0.667075	-0.133188	-0.049110
O8	O	-0.167075	0.366812	0.450890
O9	O	-0.677353	0.007579	0.049256
O10	O	-0.177353	0.507579	0.549256
O11	O	-0.589263	-0.067070	0.049249
O12	O	-0.089263	0.432930	0.549249
O13	O	-0.755149	-0.058550	0.049266
O14	O	-0.255149	0.441450	0.549266
Zn15	Zn	-0.672203	-0.062812	0.064876
Zn16	Zn	-0.172203	0.437188	0.564876
Zn17	Zn	-0.672224	-0.062797	-0.064730
Zn18	Zn	-0.172224	0.437203	0.435270
O19	O	-0.667059	-0.133199	0.049259
O20	O	-0.167059	0.366801	0.549259
C21	C	-0.568055	-0.066852	0.000062
C22	C	-0.068055	0.433148	0.500062
C23	C	-0.504837	-0.066213	0.000055
C24	C	-0.004837	0.433787	0.500055
C25	C	-0.112822	-0.062204	0.053703
C26	C	0.387178	0.437796	0.553703
C27	C	-0.053424	-0.061596	0.053705
C28	C	0.446576	0.438404	0.553705
O29	O	-0.022699	-0.061270	0.099307
O30	O	0.477301	0.438730	0.599307
N31	N	-0.023724	-0.061288	0.000084
N32	N	0.476276	0.438712	0.500084
C33	C	-0.053427	-0.061584	-0.053542
C34	C	0.446573	0.438416	0.446458
O35	O	-0.022711	-0.061266	-0.099151
O36	O	0.477289	0.438734	0.400849
C37	C	-0.112825	-0.062188	-0.053544
C38	C	0.387175	0.437812	0.446456
C39	C	-0.142520	-0.062501	0.000080
C40	C	0.357480	0.437499	0.500080
C41	C	-0.142518	-0.062515	0.107323
C42	C	0.357482	0.437485	0.607323
C43	C	-0.201912	-0.063124	0.107320
C44	C	0.298088	0.436876	0.607320
C45	C	-0.231610	-0.063421	0.053697
C46	C	0.268390	0.436579	0.553697
C47	C	-0.201915	-0.063110	0.000077
C48	C	0.298085	0.436890	0.500077
C49	C	-0.142527	-0.062481	-0.107170
C50	C	0.357473	0.437519	0.392830
C51	C	-0.201929	-0.063085	-0.107168
C52	C	0.298071	0.436915	0.392832
C53	C	-0.231625	-0.063397	-0.053543
C54	C	0.268375	0.436603	0.446457
C55	C	-0.291007	-0.064015	-0.053548
C56	C	0.208993	0.435985	0.446452
N57	N	-0.320706	-0.064323	0.000073
N58	N	0.179294	0.435677	0.500073
C59	C	-0.291008	-0.064026	0.053695
C60	C	0.208992	0.435974	0.553695
C61	C	0.071312	-0.060314	-0.053534
C62	C	0.571312	0.439686	0.446466
C63	C	0.130709	-0.059713	-0.053533
C64	C	0.630709	0.440287	0.446467
C65	C	0.130709	-0.059724	0.053715
C66	C	0.630709	0.440276	0.553715
C67	C	0.071311	-0.060328	0.053713
C68	C	0.571311	0.439672	0.553713
C69	C	0.041613	-0.060621	0.000087
C70	C	0.541613	0.439379	0.500087
C71	C	-0.415740	-0.065305	0.053685
C72	C	0.084260	0.434695	0.553685
C73	C	-0.475139	-0.065916	0.053678
C74	C	0.024861	0.434084	0.553678
C75	C	-0.475133	-0.065902	-0.053570
C76	C	0.024867	0.434098	0.446430
C77	C	-0.415739	-0.065294	-0.053562
C78	C	0.084261	0.434706	0.446438
C79	C	-0.386044	-0.064994	0.000070
C80	C	0.113956	0.435006	0.500070
O81	O	-0.321770	-0.064340	-0.099127
O82	O	0.178230	0.435660	0.400873
O83	O	-0.321732	-0.064337	0.099296
O84	O	0.178268	0.435663	0.599296
C85	C	-0.677143	0.025592	0.000070
C86	C	-0.177143	0.525592	0.500070
C87	C	-0.676487	0.079247	0.000065
C88	C	-0.176487	0.579247	0.500065
C89	C	-0.619968	0.456396	0.000059
C90	C	-0.119968	0.956396	0.500059
C91	C	-0.622381	0.254733	0.000057
C92	C	-0.122381	0.754733	0.500057
O93	O	-0.578526	0.223540	0.000029
O94	O	-0.078526	0.723540	0.500029
N95	N	-0.674617	0.235534	0.000063
N96	N	-0.174617	0.735534	0.500063
C97	C	-0.726253	0.266755	0.000064
C98	C	-0.226253	0.766755	0.500064
O99	O	-0.770738	0.245798	0.000063
O100	O	-0.270738	0.745798	0.500063
C101	C	-0.723840	0.468417	0.000062
C102	C	-0.223840	0.968417	0.500062
C103	C	-0.671601	0.487613	0.000063
C104	C	-0.171601	0.987613	0.500063
C105	C	-0.567733	0.475593	0.000059
C106	C	-0.067733	0.975593	0.500059
C107	C	-0.567131	0.526006	0.000063
C108	C	-0.067131	1.026006	0.500063
C109	C	-0.618763	0.557222	0.000067
C110	C	-0.118763	1.057222	0.500067
C111	C	-0.670998	0.538026	0.000066
C112	C	-0.170998	1.038026	0.500066
C113	C	-0.775476	0.499637	0.000060
C114	C	-0.275476	0.999637	0.500060
C115	C	-0.774868	0.550055	0.000058
C116	C	-0.274868	1.050055	0.500058
C117	C	-0.722629	0.569251	0.000058
C118	C	-0.222629	1.069251	0.500058
C119	C	-0.722028	0.619656	0.000074
C120	C	-0.222028	1.119656	0.500074
N121	N	-0.669793	0.638854	0.000069
N122	N	-0.169793	1.138854	0.500069
C123	C	-0.618160	0.607638	0.000065
C124	C	-0.118160	1.107638	0.500065
C125	C	-0.727516	0.160879	0.000067
C126	C	-0.227516	0.660879	0.500067
C127	C	-0.728120	0.110464	0.000068
C128	C	-0.228120	0.610464	0.500068
C129	C	-0.624247	0.098445	0.000060
C130	C	-0.124247	0.598445	0.500060
C131	C	-0.623644	0.148861	0.000063
C132	C	-0.123644	0.648861	0.500063
C133	C	-0.675280	0.180078	0.000061
C134	C	-0.175280	0.680078	0.500061
C135	C	-0.616899	0.713509	0.000073
C136	C	-0.116899	1.213509	0.500073
C137	C	-0.616301	0.763927	0.000079
C138	C	-0.116301	1.263927	0.500079
C139	C	-0.720173	0.775941	0.000084
C140	C	-0.220173	1.275941	0.500084
C141	C	-0.720771	0.725527	0.000081
C142	C	-0.220771	1.225527	0.500081
C143	C	-0.669129	0.694312	0.000074
C144	C	-0.169129	1.194312	0.500074
O145	O	-0.765859	0.650877	0.000096
O146	O	-0.265859	1.150877	0.500096
O147	O	-0.573681	0.628604	0.000053
O148	O	-0.073681	1.128604	0.500053
C149	C	-0.620571	0.405984	0.000055
C150	C	-0.120571	0.905984	0.500055
C151	C	-0.672806	0.386787	0.000055
C152	C	-0.172806	0.886787	0.500055
C153	C	-0.724438	0.418004	0.000059
C154	C	-0.224438	0.918004	0.500059
C155	C	-0.673409	0.336372	0.000057
C156	C	-0.173409	0.836372	0.500057
C157	C	-0.621777	0.305155	0.000053
C158	C	-0.121777	0.805155	0.500053
C159	C	-0.569541	0.324354	0.000048
C160	C	-0.069541	0.824354	0.500048
C161	C	-0.568939	0.374767	0.000052
C162	C	-0.068939	0.874767	0.500052
C163	C	-0.776674	0.398805	0.000064
C164	C	-0.276674	0.898805	0.500064
C165	C	-0.777273	0.348392	0.000061
C166	C	-0.277273	0.848392	0.500061
C167	C	-0.725640	0.317175	0.000058
C168	C	-0.225640	0.817175	0.500058
C169	C	0.223628	-0.058762	0.000084
C170	C	0.723628	0.441238	0.500084
C171	C	0.160413	-0.059413	0.000090
C172	C	0.660413	0.440587	0.500090
C173	C	-0.667283	0.848799	0.000076
C174	C	-0.167283	1.348799	0.500076
C175	C	-0.667933	0.795143	0.000083
C176	C	-0.167933	1.295143	0.500083
N177	N	-0.672194	-0.062821	0.153328
N178	N	-0.172194	0.437179	0.653328
N179	N	-0.672238	-0.062784	-0.153182
N180	N	-0.172238	0.437216	0.346818
C181	C	-0.711232	-0.029748	0.561973
C182	C	-0.211232	0.470252	1.061973
C183	C	-0.711235	-0.029744	0.623893
C184	C	-0.211235	0.470256	1.123893
O185	O	-0.744402	-0.001632	0.655914
O186	O	-0.244402	0.498368	1.155914
N187	N	-0.672224	-0.062787	0.654865
N188	N	-0.172224	0.437213	1.154865
C189	C	-0.633203	-0.095833	0.623915
C190	C	-0.133203	0.404167	1.123915
O191	O	-0.600021	-0.123938	0.655945
O192	O	-0.100021	0.376062	1.155945
C193	C	-0.633198	-0.095833	0.561996
C194	C	-0.133198	0.404167	1.061996
C195	C	-0.672215	-0.062792	0.531027
C196	C	-0.172215	0.437208	1.031027
C197	C	-0.750245	0.003292	0.531004
C198	C	-0.250245	0.503292	1.031004
C199	C	-0.750243	0.003287	0.469088
C200	C	-0.250243	0.503287	0.969088
C201	C	-0.711227	-0.029756	0.438142
C202	C	-0.211227	0.470244	0.938142
C203	C	-0.672213	-0.062796	0.469111
C204	C	-0.172213	0.437204	0.969111
C205	C	-0.594175	-0.128876	0.531047
C206	C	-0.094175	0.371124	1.031047
C207	C	-0.594173	-0.128874	0.469124
C208	C	-0.094173	0.371126	0.969124
C209	C	-0.633191	-0.095832	0.438154
C210	C	-0.133191	0.404168	0.938154
C211	C	-0.633194	-0.095844	0.376249
C212	C	-0.133194	0.404156	0.876249
N213	N	-0.672206	-0.062801	0.345277
N214	N	-0.172206	0.437199	0.845277
C215	C	-0.711222	-0.029757	0.376223
C216	C	-0.211222	0.470243	0.876223
C217	C	-0.633216	-0.095828	0.753949
C218	C	-0.133216	0.404172	1.253949
C219	C	-0.633224	-0.095830	0.815866
C220	C	-0.133224	0.404170	1.315866
C221	C	-0.711255	-0.029741	0.815840
C222	C	-0.211255	0.470259	1.315840
C223	C	-0.711249	-0.029741	0.753921
C224	C	-0.211249	0.470259	1.253921
C225	C	-0.672227	-0.062785	0.722976
C226	C	-0.172227	0.437215	1.222976
C227	C	-0.711214	-0.029769	0.246196
C228	C	-0.211214	0.470231	0.746196
C229	C	-0.711210	-0.029777	0.184275
C230	C	-0.211210	0.470223	0.684275
C231	C	-0.633177	-0.095864	0.184306
C232	C	-0.133177	0.404136	0.684306
C233	C	-0.633183	-0.095858	0.246222
C234	C	-0.133183	0.404142	0.746222
C235	C	-0.672204	-0.062806	0.277165
C236	C	-0.172204	0.437194	0.777165
O237	O	-0.600043	-0.123941	0.344188
O238	O	-0.100043	0.376059	0.844188
O239	O	-0.744393	-0.001653	0.344185
O240	O	-0.244393	0.498347	0.844185
H241	H	0.154884	-0.059466	-0.097199
H242	H	0.654884	0.440534	0.402801
Br243	Br	-0.242204	-0.063546	0.180100
Br244	Br	0.257796	0.436454	0.680100
H245	H	-0.743023	-0.002834	0.841048
H246	H	-0.243023	0.497166	1.341048
H247	H	-0.499314	-0.066171	0.097347
H248	H	0.000686	0.433829	0.597347
H249	H	-0.525686	0.450180	0.000054
H250	H	-0.025686	0.950180	0.500054
H251	H	-0.118344	-0.062272	0.150991
H252	H	0.381656	0.437728	0.650991
H253	H	-0.742984	-0.002871	0.159061
H254	H	-0.242984	0.497129	0.659061
H255	H	-0.562395	-0.155781	0.443931
H256	H	-0.062395	0.344219	0.943931
H257	H	-0.743020	-0.002836	0.728709
H258	H	-0.243020	0.497164	1.228709
H259	H	-0.391569	-0.065065	0.097358
H260	H	0.108431	0.434935	0.597358
Br261	Br	0.171025	-0.059320	0.126489
Br262	Br	0.671025	0.440680	0.626489
H263	H	-0.391558	-0.065047	-0.097228
H264	H	0.108442	0.434953	0.402772
H265	H	-0.742988	-0.002855	0.271383
H266	H	-0.242988	0.497145	0.771383
Br267	Br	-0.580237	-0.140708	0.288250
Br268	Br	-0.080237	0.359292	0.788250
Br269	Br	-0.242230	-0.063480	-0.179951
Br270	Br	0.257770	0.436520	0.320049
H271	H	0.047137	-0.060583	0.097379
H272	H	0.547137	0.439417	0.597379
H273	H	0.047136	-0.060557	-0.097206
H274	H	0.547136	0.439443	0.402794
H275	H	-0.499324	-0.066146	-0.097228
H276	H	0.000676	0.433854	0.402772
H277	H	-0.524592	0.541630	0.000058
H278	H	-0.024592	1.041630	0.500058
H279	H	-0.601458	-0.122740	0.841077
H280	H	-0.101458	0.377260	1.341077
Br281	Br	-0.545400	0.789974	0.000083
Br282	Br	-0.045400	1.289974	0.500083
H283	H	-0.818721	0.424218	0.000067
H284	H	-0.318721	0.924218	0.500067
H285	H	-0.118359	-0.062226	-0.150837
H286	H	0.381641	0.437774	0.349163
H287	H	-0.601441	-0.122740	0.728756
H288	H	-0.101441	0.377260	1.228756
Br289	Br	-0.554175	0.056070	0.000057
Br290	Br	-0.054175	0.556070	0.500057
Br291	Br	-0.580230	-0.140709	0.142298
Br292	Br	-0.080230	0.359291	0.642298
H293	H	-0.574847	0.688099	0.000067
H294	H	-0.074847	1.188099	0.500067
Br295	Br	-0.541221	-0.173720	0.573064
Br296	Br	-0.041221	0.326280	1.073064
H297	H	-0.581107	0.164487	0.000066
H298	H	-0.081107	0.664487	0.500066
H299	H	-0.526400	0.390391	0.000053
H300	H	-0.026400	0.890391	0.500053
H301	H	-0.770658	0.094839	0.000077
H302	H	-0.270658	0.594839	0.500077
Br303	Br	-0.844950	0.592418	0.000052
Br304	Br	-0.344950	1.092418	0.500052
Br305	Br	-0.803194	0.048134	0.427065
Br306	Br	-0.303194	0.548134	0.927065
H307	H	-0.769567	0.186292	0.000067
H308	H	-0.269567	0.686292	0.500067
Br309	Br	-0.791668	0.699475	0.000106
Br310	Br	-0.291668	1.199475	0.500106
Br311	Br	-0.846377	0.473599	0.000045
Br312	Br	-0.346377	0.973599	0.500045
Br313	Br	-0.803202	0.048143	0.572991
Br314	Br	-0.303202	0.548143	1.072991
H315	H	-0.527500	0.298928	0.000049
H316	H	-0.027500	0.798928	0.500049
H317	H	-0.762211	0.801366	0.000090
H318	H	-0.262211	1.301366	0.500090
H319	H	-0.819815	0.332768	0.000065
H320	H	-0.319815	0.832768	0.500065
