data_functionalizedCrystal
_audit_creation_method	'MofGen! by Chris Wilmer'
_symmetry_space_group_name_H-M	'P1'
_symmetry_Int_Tables_number	1
_symmetry_cell_setting	triclinic
loop_
_symmetry_equiv_pos_as_xyz
  x,y,z
_cell_length_a	27.732064
_cell_length_b	27.732048
_cell_length_c	22.010155
_cell_angle_alpha	90.009515
_cell_angle_beta	90.008059
_cell_angle_gamma	82.646040
loop_
_atom_site_label
_atom_site_type_symbol
_atom_site_fract_x
_atom_site_fract_y
_atom_site_fract_z
O1	O	0.640930	0.057554	0.050423
O2	O	1.140930	0.557554	0.550423
O3	O	0.500138	0.066291	0.050449
O4	O	1.000138	0.566291	0.550449
O5	O	0.574906	-0.008474	0.050424
O6	O	1.074906	0.491526	0.550424
O7	O	0.566161	0.132319	0.050449
O8	O	1.066161	0.632319	0.550449
O9	O	0.574884	-0.008474	-0.050627
O10	O	1.074884	0.491526	0.449373
O11	O	0.500115	0.066291	-0.050601
O12	O	1.000115	0.566291	0.449399
O13	O	0.640907	0.057554	-0.050627
O14	O	1.140907	0.557554	0.449373
Cu15	Cu	0.570509	0.061923	-0.059841
Cu16	Cu	1.070509	0.561923	0.440159
Cu17	Cu	0.570536	0.061923	0.059663
Cu18	Cu	1.070536	0.561923	0.559663
O19	O	0.566139	0.132319	-0.050602
O20	O	1.066139	0.632319	0.449398
C21	C	0.482120	0.066106	-0.000073
C22	C	0.982120	0.566106	0.499927
C23	C	0.428465	0.065551	-0.000064
C24	C	0.928465	0.565551	0.499936
C25	C	0.051392	0.017583	-0.000107
C26	C	0.551392	0.517583	0.499893
C27	C	0.253053	0.019630	-0.000090
C28	C	0.753053	0.519630	0.499910
O29	O	0.284305	-0.017591	-0.000120
O30	O	0.784305	0.482409	0.499880
N31	N	0.272180	0.063964	-0.000080
N32	N	0.772180	0.563964	0.499920
C33	C	0.240889	0.107790	-0.000077
C34	C	0.740889	0.607790	0.499923
O35	O	0.261785	0.145546	-0.000074
O36	O	0.761785	0.645546	0.499926
C37	C	0.039230	0.105743	-0.000098
C38	C	0.539230	0.605743	0.499902
C39	C	0.020105	0.061406	-0.000102
C40	C	0.520105	0.561406	0.499898
C41	C	0.032267	-0.026750	-0.000112
C42	C	0.532267	0.473250	0.499888
C43	C	-0.018145	-0.027261	-0.000112
C44	C	0.481855	0.472739	0.499888
C45	C	-0.049432	0.016561	-0.000108
C46	C	0.450568	0.516561	0.499892
C47	C	-0.030307	0.060895	-0.000103
C48	C	0.469693	0.560895	0.499897
C49	C	0.007940	0.149568	-0.000100
C50	C	0.507940	0.649568	0.499900
C51	C	-0.042478	0.149053	-0.000106
C52	C	0.457522	0.649053	0.499894
C53	C	-0.061602	0.104716	-0.000111
C54	C	0.438398	0.604716	0.499889
C55	C	-0.112006	0.104206	-0.000099
C56	C	0.387994	0.604206	0.499901
N57	N	-0.131134	0.059872	-0.000110
N58	N	0.368866	0.559872	0.499890
C59	C	-0.099846	0.016049	-0.000114
C60	C	0.400154	0.516049	0.499886
C61	C	0.346763	0.108861	-0.000065
C62	C	0.846763	0.608861	0.499935
C63	C	0.397178	0.109373	-0.000059
C64	C	0.897178	0.609373	0.499941
C65	C	0.409338	0.021213	-0.000073
C66	C	0.909338	0.521213	0.499927
C67	C	0.358923	0.020701	-0.000075
C68	C	0.858923	0.520701	0.499925
C69	C	0.327636	0.064527	-0.000076
C70	C	0.827636	0.564527	0.499924
C71	C	-0.205716	0.014979	-0.000115
C72	C	0.294284	0.514979	0.499885
C73	C	-0.256133	0.014472	-0.000113
C74	C	0.243867	0.514472	0.499887
C75	C	-0.268289	0.102632	-0.000103
C76	C	0.231711	0.602632	0.499897
C77	C	-0.217876	0.103140	-0.000101
C78	C	0.282124	0.603140	0.499899
C79	C	-0.186590	0.059309	-0.000110
C80	C	0.313410	0.559309	0.499890
O81	O	-0.143287	0.141407	-0.000077
O82	O	0.356713	0.641407	0.499923
O83	O	-0.120752	-0.021701	-0.000131
O84	O	0.379248	0.478299	0.499869
C85	C	0.101804	0.018094	-0.000106
C86	C	0.601804	0.518094	0.499894
C87	C	0.120930	0.062428	-0.000101
C88	C	0.620930	0.562428	0.499899
C89	C	0.089642	0.106250	-0.000097
C90	C	0.589642	0.606250	0.499903
C91	C	0.171344	0.062940	-0.000095
C92	C	0.671344	0.562940	0.499905
C93	C	0.202631	0.019117	-0.000099
C94	C	0.702631	0.519117	0.499901
C95	C	0.183504	-0.025217	-0.000109
C96	C	0.683504	0.474783	0.499891
C97	C	0.133092	-0.025728	-0.000110
C98	C	0.633092	0.474272	0.499890
C99	C	0.108770	0.150585	-0.000086
C100	C	0.608770	0.650585	0.499914
C101	C	0.159183	0.151092	-0.000085
C102	C	0.659183	0.651092	0.499915
C103	C	0.190470	0.107270	-0.000089
C104	C	0.690470	0.607270	0.499911
C105	C	0.574712	-0.026481	-0.000103
C106	C	1.074712	0.473519	0.499897
C107	C	0.574159	-0.080136	-0.000108
C108	C	1.074159	0.419864	0.499892
C109	C	0.614862	-0.418948	-0.000084
C110	C	1.114862	0.081052	0.499916
C111	C	0.612811	-0.620608	-0.000075
C112	C	1.112811	-0.120608	0.499925
O113	O	0.650032	-0.651862	-0.000056
O114	O	1.150032	-0.151862	0.499944
N115	N	0.568476	-0.639735	-0.000068
N116	N	1.068476	-0.139735	0.499932
C117	C	0.524651	-0.608442	-0.000058
C118	C	1.024651	-0.108442	0.499942
O119	O	0.486895	-0.629338	-0.000045
O120	O	0.986895	-0.129338	0.499955
C121	C	0.526703	-0.406784	-0.000063
C122	C	1.026703	0.093216	0.499937
C123	C	0.571040	-0.387660	-0.000077
C124	C	1.071040	0.112340	0.499923
C125	C	0.659196	-0.399824	-0.000097
C126	C	1.159196	0.100176	0.499903
C127	C	0.659709	-0.349412	-0.000103
C128	C	1.159709	0.150588	0.499897
C129	C	0.615887	-0.318124	-0.000095
C130	C	1.115887	0.181876	0.499905
C131	C	0.571553	-0.337248	-0.000082
C132	C	1.071553	0.162752	0.499918
C133	C	0.482878	-0.375493	-0.000049
C134	C	0.982878	0.124507	0.499951
C135	C	0.483395	-0.325075	-0.000049
C136	C	0.983395	0.174925	0.499951
C137	C	0.527733	-0.305952	-0.000063
C138	C	1.027733	0.194048	0.499937
C139	C	0.528243	-0.255548	-0.000080
C140	C	1.028243	0.244452	0.499920
N141	N	0.572578	-0.236422	-0.000088
N142	N	1.072578	0.263578	0.499912
C143	C	0.616400	-0.267710	-0.000095
C144	C	1.116400	0.232290	0.499905
C145	C	0.523577	-0.714317	-0.000057
C146	C	1.023577	-0.214317	0.499943
C147	C	0.523064	-0.764731	-0.000057
C148	C	1.023064	-0.264731	0.499943
C149	C	0.611225	-0.776893	-0.000073
C150	C	1.111225	-0.276893	0.499927
C151	C	0.611737	-0.726478	-0.000077
C152	C	1.111737	-0.226478	0.499923
C153	C	0.567912	-0.695190	-0.000065
C154	C	1.067912	-0.195190	0.499935
C155	C	0.617472	-0.161841	-0.000107
C156	C	1.117472	0.338159	0.499893
C157	C	0.617981	-0.111424	-0.000115
C158	C	1.117981	0.388576	0.499885
C159	C	0.529821	-0.099266	-0.000096
C160	C	1.029821	0.400734	0.499904
C161	C	0.529312	-0.149679	-0.000092
C162	C	1.029312	0.350321	0.499908
C163	C	0.573142	-0.180965	-0.000095
C164	C	1.073142	0.319035	0.499905
O165	O	0.491043	-0.224267	-0.000093
O166	O	0.991043	0.275733	0.499907
O167	O	0.654151	-0.246805	-0.000095
O168	O	1.154151	0.253195	0.499905
C169	C	0.614350	-0.469360	-0.000079
C170	C	1.114350	0.030640	0.499921
C171	C	0.570016	-0.488484	-0.000066
C172	C	1.070016	0.011516	0.499934
C173	C	0.526194	-0.457196	-0.000058
C174	C	1.026194	0.042804	0.499942
C175	C	0.569503	-0.538899	-0.000066
C176	C	1.069503	-0.038899	0.499934
C177	C	0.613325	-0.570187	-0.000073
C178	C	1.113325	-0.070187	0.499927
C179	C	0.657660	-0.551060	-0.000081
C180	C	1.157660	-0.051060	0.499919
C181	C	0.658172	-0.500648	-0.000086
C182	C	1.158172	-0.000648	0.499914
C183	C	0.481859	-0.476323	-0.000050
C184	C	0.981859	0.023677	0.499950
C185	C	0.481351	-0.526735	-0.000046
C186	C	0.981351	-0.026735	0.499954
C187	C	0.525172	-0.558023	-0.000053
C188	C	1.025172	-0.058023	0.499947
C189	C	0.658925	0.057739	-0.000104
C190	C	1.158925	0.557739	0.499896
C191	C	0.712580	0.058295	-0.000109
C192	C	1.212580	0.558295	0.499891
C193	C	0.566333	0.150326	-0.000074
C194	C	1.066333	0.650326	0.499926
C195	C	0.566886	0.203981	-0.000065
C196	C	1.066886	0.703981	0.499935
N197	N	0.570494	0.061922	-0.143893
N198	N	1.070494	0.561922	0.356107
C199	C	0.599634	0.091035	-0.563673
C200	C	1.099634	0.591035	-0.063673
C201	C	0.599639	0.091034	-0.627281
C202	C	1.099639	0.591034	-0.127281
O203	O	0.624398	0.115784	-0.660172
O204	O	1.124398	0.615784	-0.160172
N205	N	0.570545	0.061917	-0.659100
N206	N	1.070545	0.561917	-0.159100
C207	C	0.541447	0.032796	-0.627309
C208	C	1.041447	0.532796	-0.127309
O209	O	0.516701	0.008029	-0.660215
O210	O	1.016701	0.508029	-0.160215
C211	C	0.541444	0.032795	-0.563703
C212	C	1.041444	0.532795	-0.063703
C213	C	0.570537	0.061917	-0.531886
C214	C	1.070537	0.561917	-0.031886
C215	C	0.628724	0.120155	-0.531857
C216	C	1.128724	0.620155	-0.031857
C217	C	0.628718	0.120157	-0.468253
C218	C	1.128718	0.620157	0.031747
C219	C	0.599621	0.091039	-0.436467
C220	C	1.099621	0.591039	0.063533
C221	C	0.570530	0.061919	-0.468283
C222	C	1.070530	0.561919	0.031717
C223	C	0.512349	0.003671	-0.531913
C224	C	1.012349	0.503671	-0.031913
C225	C	0.512349	0.003672	-0.468302
C226	C	1.012349	0.503672	0.031698
C227	C	0.541442	0.032795	-0.436486
C228	C	1.041442	0.532795	0.063514
C229	C	0.541427	0.032803	-0.372893
C230	C	1.041427	0.532803	0.127107
N231	N	0.570521	0.061920	-0.341074
N232	N	1.070521	0.561920	0.158926
C233	C	0.599618	0.091038	-0.372860
C234	C	1.099618	0.591038	0.127140
C235	C	0.541456	0.032799	-0.760887
C236	C	1.041456	0.532799	-0.260887
C237	C	0.541456	0.032803	-0.824492
C238	C	1.041456	0.532803	-0.324492
C239	C	0.599649	0.091040	-0.824459
C240	C	1.099649	0.591040	-0.324459
C241	C	0.599646	0.091039	-0.760853
C242	C	1.099646	0.591039	-0.260853
C243	C	0.570550	0.061916	-0.729067
C244	C	1.070550	0.561916	-0.229067
C245	C	0.599602	0.091040	-0.239289
C246	C	1.099602	0.591040	0.260711
C247	C	0.599591	0.091040	-0.175680
C248	C	1.099591	0.591040	0.324320
C249	C	0.541400	0.032801	-0.175719
C250	C	1.041400	0.532801	0.324281
C251	C	0.541409	0.032802	-0.239322
C252	C	1.041409	0.532802	0.260678
C253	C	0.570513	0.061923	-0.271105
C254	C	1.070513	0.561923	0.228895
O255	O	0.516683	0.008064	-0.339961
O256	O	1.016683	0.508064	0.160039
O257	O	0.624365	0.115796	-0.339947
O258	O	1.124365	0.615796	0.160053
N259	N	0.570555	0.061919	0.143715
N260	N	1.070555	0.561919	0.643715
H261	H	-0.033711	-0.063365	-0.000118
H262	H	0.466289	0.436635	0.499882
O263	O	0.066009	-0.074020	-0.000118
O264	O	0.566009	0.425980	0.499882
H265	H	0.059248	-0.095249	0.041068
H266	H	0.559248	0.404751	0.541068
H267	H	0.445243	-0.542300	-0.000040
H268	H	0.945243	-0.042300	0.499960
H269	H	0.647841	-0.710911	-0.000088
H270	H	1.147841	-0.210911	0.499912
O271	O	0.705993	-0.480025	-0.000098
O272	O	1.205993	0.019975	0.499902
H273	H	0.708345	-0.457340	0.041085
H274	H	1.208345	0.042660	0.541085
H275	H	0.446173	-0.450852	-0.000043
H276	H	0.946173	0.049148	0.499957
H277	H	0.517713	0.009094	-0.265228
H278	H	1.017713	0.509094	0.234772
O279	O	0.510051	0.001376	-0.141407
O280	O	1.010051	0.501376	0.358593
H281	H	0.483899	0.024709	-0.112407
H282	H	0.983899	0.524709	0.387593
O283	O	0.481489	-0.170303	-0.000084
O284	O	0.981489	0.329697	0.499916
H285	H	0.479135	-0.192986	-0.041269
H286	H	0.979135	0.307014	0.458731
H287	H	0.488656	-0.020044	-0.442426
H288	H	0.988656	0.479956	0.057574
O289	O	0.631028	0.122449	-0.726542
O290	O	1.131028	0.622449	-0.226542
H291	H	0.607659	0.148590	-0.697567
H292	H	1.107659	0.648590	-0.197567
H293	H	0.693341	-0.576544	-0.000090
H294	H	1.193341	-0.076544	0.499910
O295	O	0.658492	-0.810644	-0.000077
O296	O	1.158492	-0.310644	0.499923
H297	H	0.650682	-0.848911	-0.000069
H298	H	1.150682	-0.348911	0.499931
H299	H	-0.271701	-0.021634	-0.000115
H300	H	0.228299	0.478366	0.499885
H301	H	-0.180248	-0.020712	-0.000122
H302	H	0.319752	0.479288	0.499878
H303	H	0.494142	-0.073782	-0.000092
H304	H	0.994142	0.426218	0.499908
O305	O	-0.302043	0.149894	-0.000103
O306	O	0.197957	0.649894	0.499897
H307	H	-0.295290	0.171135	0.041086
H308	H	0.204710	0.671135	0.541086
O309	O	0.338298	-0.027120	-0.000092
O310	O	0.838298	0.472880	0.499908
H311	H	0.350895	-0.048160	0.041089
H312	H	0.850895	0.451840	0.541089
O313	O	0.443087	-0.026055	-0.000087
O314	O	0.943087	0.473945	0.499913
H315	H	0.481355	-0.018246	-0.000088
H316	H	0.981355	0.481754	0.499912
H317	H	0.623282	0.114758	-0.149778
H318	H	1.123282	0.614758	0.350222
O319	O	0.475244	-0.785356	-0.000050
O320	O	0.975244	-0.285356	0.499950
H321	H	0.444860	-0.755125	-0.000040
H322	H	0.944860	-0.255125	0.499960
H323	H	0.412744	0.145477	-0.000047
H324	H	0.912744	0.645477	0.499953
O325	O	0.313020	0.156133	-0.000062
O326	O	0.813020	0.656133	0.499938
H327	H	0.334796	0.187043	-0.000048
H328	H	0.834796	0.687043	0.499952
H329	H	0.623302	0.114752	-0.265160
H330	H	1.123302	0.614752	0.234840
H331	H	0.023501	0.185672	-0.000094
H332	H	0.523501	0.685672	0.499906
H333	H	0.652410	0.143869	-0.442354
H334	H	1.152410	0.643869	0.057646
O335	O	0.664746	-0.195580	-0.000116
O336	O	1.164746	0.304420	0.499884
H337	H	0.666610	-0.218847	-0.041300
H338	H	1.166610	0.281153	0.458700
O339	O	0.660111	0.151566	-0.566130
O340	O	1.160111	0.651566	-0.066130
H341	H	0.686272	0.128220	-0.595104
H342	H	1.186272	0.628220	-0.095104
O343	O	-0.076224	0.196322	-0.000104
O344	O	0.423776	0.696322	0.499896
H345	H	-0.054452	0.227235	-0.000095
H346	H	0.445548	0.727235	0.499905
O347	O	0.112467	-0.073549	-0.000125
O348	O	0.612467	0.426451	0.499875
H349	H	0.142699	-0.103931	-0.000136
H350	H	0.642699	0.396069	0.499864
H351	H	0.446774	-0.391054	-0.000034
H352	H	0.946774	0.108946	0.499966
H353	H	0.623340	0.114751	-0.850352
H354	H	1.123340	0.614751	-0.350352
O355	O	0.217253	-0.072485	-0.000120
O356	O	0.717253	0.427515	0.499880
H357	H	0.255521	-0.064675	-0.000125
H358	H	0.755521	0.435325	0.499875
H359	H	0.174748	0.187200	-0.000077
H360	H	0.674748	0.687200	0.499923
O361	O	0.075027	0.197853	-0.000079
O362	O	0.575027	0.697853	0.499921
H363	H	0.096802	0.228763	-0.000067
H364	H	0.596802	0.728763	0.499933
O365	O	-0.197244	0.150958	-0.000094
O366	O	0.302756	0.650958	0.499906
H367	H	-0.227472	0.181345	-0.000094
H368	H	0.272528	0.681345	0.499906
O369	O	0.476306	-0.680572	-0.000057
O370	O	0.976306	-0.180572	0.499943
H371	H	0.445396	-0.702347	-0.000060
H372	H	0.945396	-0.202347	0.499940
O373	O	0.480974	-0.027754	-0.566203
O374	O	0.980974	0.472246	-0.066203
H375	H	0.454809	-0.004420	-0.595185
H376	H	0.954809	0.495580	-0.095185
O377	O	0.510087	0.001383	-0.858807
O378	O	1.010087	0.501383	-0.358807
H379	H	0.489862	-0.018870	-0.826011
H380	H	0.989862	0.481130	-0.326011
H381	H	0.447706	-0.299603	-0.000038
H382	H	0.947706	0.200397	0.499962
O383	O	0.665804	-0.090797	-0.000121
O384	O	1.165804	0.409203	0.499879
H385	H	0.696188	-0.121026	-0.000116
H386	H	1.196188	0.378974	0.499884
H387	H	0.695813	-0.333847	-0.000112
H388	H	1.195813	0.166153	0.499888
O389	O	0.706465	-0.433568	-0.000114
O390	O	1.206465	0.066432	0.499886
H391	H	0.737375	-0.411792	-0.000129
H392	H	1.237375	0.088208	0.499871
H393	H	0.517758	0.009086	-0.735011
H394	H	1.017758	0.509086	-0.235011
