data_functionalizedCrystal
_audit_creation_method	'MofGen! by Chris Wilmer'
_symmetry_space_group_name_H-M	'P1'
_symmetry_Int_Tables_number	1
_symmetry_cell_setting	triclinic
loop_
_symmetry_equiv_pos_as_xyz
  x,y,z
_cell_length_a	19.188905
_cell_length_b	17.666332
_cell_length_c	15.625429
_cell_angle_alpha	108.083616
_cell_angle_beta	83.708656
_cell_angle_gamma	90.016479
loop_
_atom_site_label
_atom_site_type_symbol
_atom_site_fract_x
_atom_site_fract_y
_atom_site_fract_z
O1	O	0.926537	0.093934	0.112446
O2	O	0.723274	0.098073	0.127621
O3	O	0.830333	0.059975	-0.011226
O4	O	0.819478	0.132032	0.251294
O5	O	0.830315	-0.065924	-0.011234
O6	O	0.723255	-0.027826	0.127614
O7	O	0.926518	-0.031965	0.112439
Cu8	Cu	0.824885	-0.041391	0.120026
Cu9	Cu	0.824907	0.107499	0.120034
O10	O	0.819459	0.006133	0.251286
C11	C	0.697252	0.034986	0.127130
C12	C	0.619742	0.034575	0.125666
N13	N	0.824875	-0.146112	0.120019
C14	C	0.583358	0.103011	0.124967
C15	C	0.510529	0.102640	0.123581
C16	C	0.474090	0.033824	0.122877
C17	C	0.510482	-0.034620	0.123581
C18	C	0.583308	-0.034245	0.124976
N19	N	0.364883	-0.031929	0.069381
N20	N	0.295701	-0.032282	0.068054
C21	C	0.254669	0.032690	0.118677
N22	N	0.285433	0.098035	0.170666
N23	N	0.354621	0.098388	0.171988
C24	C	0.395122	0.033410	0.121365
C25	C	0.139316	0.100729	0.116477
C26	C	0.066486	0.100357	0.115097
C27	C	0.066441	-0.036908	0.115088
C28	C	0.139269	-0.036531	0.116477
C29	C	0.175702	0.032288	0.117167
C30	C	0.872296	-0.202583	0.058567
C31	C	0.872300	-0.281832	0.058563
C32	C	0.824889	-0.304602	0.120026
C33	C	0.777459	-0.248120	0.181482
C34	C	0.777452	-0.168875	0.181479
N35	N	0.816080	-0.407116	0.199834
N36	N	0.816092	-0.482396	0.199834
C37	C	0.824908	-0.543363	0.120038
N38	N	0.833726	-0.526206	0.040240
N39	N	0.833719	-0.450919	0.040240
C40	C	0.824892	-0.390529	0.120036
C41	C	0.872336	-0.685766	0.058577
C42	C	0.872335	-0.765017	0.058571
C43	C	0.777498	-0.731301	0.181499
C44	C	0.777495	-0.652054	0.181496
C45	C	0.824918	-0.629291	0.120036
C46	C	0.952541	0.031123	0.112930
C47	C	1.030051	0.031540	0.114394
C48	C	0.829832	-0.012192	-0.044816
C49	C	0.828356	-0.039657	-0.144891
N50	N	0.824924	0.212218	0.120034
C51	C	0.823534	0.213124	-0.474005
C52	C	0.822144	0.187294	-0.568040
C53	C	0.822123	0.050048	-0.568035
C54	C	0.823517	0.075867	-0.473998
C55	C	0.824221	0.157406	-0.426991
C56	C	0.824204	0.020148	-0.426984
C57	C	0.825594	0.045966	-0.332955
C58	C	0.826296	0.127502	-0.285941
C59	C	0.825610	0.183224	-0.332962
C60	C	0.823495	-0.061390	-0.473992
C61	C	0.824182	-0.117109	-0.426978
C62	C	0.825577	-0.091292	-0.332948
C63	C	0.826279	-0.009756	-0.285934
C64	C	0.826262	-0.147013	-0.285927
C65	C	0.827652	-0.121196	-0.191898
C66	C	0.827668	0.016062	-0.191905
C67	C	0.819961	0.078302	0.284876
C68	C	0.821437	0.105772	0.384951
H69	H	0.613018	0.159049	0.125529
O70	O	0.475288	0.169180	0.122865
C71	C	0.523059	0.230008	0.123802
H72	H	0.577833	0.202327	0.096260
H73	H	0.506427	0.265884	0.079640
H74	H	0.523546	0.271001	0.196260
O75	O	0.826184	0.262442	-0.287295
C76	C	0.765446	0.300781	-0.299807
H77	H	0.722816	0.255546	-0.318358
H78	H	0.746095	0.349837	-0.234445
H79	H	0.778312	0.327961	-0.356734
O80	O	0.824189	0.292364	-0.428469
C81	C	0.823309	0.336011	-0.490130
H82	H	0.800228	0.298540	-0.553335
H83	H	0.789850	0.393074	-0.457098
H84	H	0.879135	0.351712	-0.509816
O85	O	0.918271	-0.336761	-0.001219
C86	C	0.880835	-0.397866	-0.056696
H87	H	0.825774	-0.374376	-0.058050
H88	H	0.909258	-0.418465	-0.128445
H89	H	0.877200	-0.450170	-0.028457
H90	H	0.738856	-0.266664	0.231525
O91	O	0.918164	-0.180582	-0.001417
C92	C	0.880543	-0.150177	-0.056905
H93	H	0.826038	-0.128247	-0.020599
H94	H	0.909656	-0.098534	-0.071656
H95	H	0.875514	-0.199161	-0.123327
O96	O	0.731362	-0.114106	0.241267
C97	C	0.689500	-0.151197	0.295499
H98	H	0.718127	-0.207423	0.296425
H99	H	0.678915	-0.108527	0.367532
H100	H	0.637609	-0.167634	0.266396
O101	O	0.821562	0.241358	-0.613806
C102	C	0.881183	0.227712	-0.678644
H103	H	0.901121	0.163306	-0.696246
H104	H	0.866610	0.239269	-0.742398
H105	H	0.924028	0.269526	-0.649721
O106	O	0.918421	-0.663791	-0.001216
C107	C	0.960285	-0.730631	-0.055449
H108	H	0.931663	-0.787385	-0.056372
H109	H	0.970866	-0.727507	-0.127483
H110	H	1.012178	-0.731050	-0.026349
H111	H	0.821547	-0.016342	-0.606320
O112	O	0.918431	-0.819928	-0.001003
C113	C	0.961557	-0.852518	0.047144
H114	H	0.933812	-0.845005	0.117780
H115	H	0.972571	-0.918581	0.009480
H116	H	1.013160	-0.820322	0.053105
O117	O	0.031040	-0.103785	0.114238
C118	C	-0.003258	-0.129522	0.035380
H119	H	0.024181	-0.105434	-0.018754
H120	H	-0.001468	-0.197418	0.009153
H121	H	-0.060219	-0.106530	0.051974
H122	H	0.822356	-0.082408	-0.550555
H123	H	0.168893	-0.092261	0.117040
H124	H	0.828248	0.082459	-0.153630
H125	H	0.827420	0.148521	-0.209375
O126	O	0.731412	-0.753527	0.241080
C127	C	0.688287	-0.812586	0.192941
H128	H	0.716029	-0.843842	0.122303
H129	H	0.677279	-0.857973	0.230609
H130	H	0.636680	-0.783699	0.186983
O131	O	0.823532	-0.196285	-0.472790
C132	C	0.822140	-0.207125	-0.565861
H133	H	0.844038	-0.152715	-0.582528
H134	H	0.855482	-0.262366	-0.607457
H135	H	0.765777	-0.215062	-0.582858
H136	H	0.480808	-0.090650	0.123010
O137	O	0.731409	-0.597285	0.241286
C138	C	0.689551	-0.634376	0.295520
H139	H	0.718181	-0.690600	0.296446
H140	H	0.678966	-0.591705	0.367552
H141	H	0.637660	-0.650816	0.266419
H142	H	0.825682	-0.213403	-0.324213
H143	H	0.828196	-0.166567	-0.153615
O144	O	0.618640	-0.100793	0.125487
C145	C	0.608654	-0.164067	0.047095
H146	H	0.594126	-0.138990	-0.007844
H147	H	0.659169	-0.202143	0.021804
H148	H	0.564595	-0.202233	0.063936
O149	O	0.174600	0.167659	0.117203
C150	C	0.126866	0.227983	0.116279
H151	H	0.072079	0.215424	0.143816
H152	H	0.143527	0.288099	0.160452
H153	H	0.126392	0.229207	0.043825
H154	H	0.036863	0.156090	0.114533
