data_functionalizedCrystal
_audit_creation_method	'MofGen! by Chris Wilmer'
_symmetry_space_group_name_H-M	'P1'
_symmetry_Int_Tables_number	1
_symmetry_cell_setting	triclinic
loop_
_symmetry_equiv_pos_as_xyz
  x,y,z
_cell_length_a	27.732048
_cell_length_b	17.038272
_cell_length_c	16.098538
_cell_angle_alpha	92.930266
_cell_angle_beta	92.695138
_cell_angle_gamma	93.122894
loop_
_atom_site_label
_atom_site_type_symbol
_atom_site_fract_x
_atom_site_fract_y
_atom_site_fract_z
O1	O	0.102899	-1.039664	-0.069167
O2	O	0.101233	-0.812054	-0.069192
O3	O	0.031993	-0.932928	-0.069163
O4	O	0.172139	-0.918791	-0.069196
O5	O	0.036021	-0.925867	0.069348
O6	O	0.105261	-0.804994	0.069320
O7	O	0.106927	-1.032604	0.069344
Zn8	Zn	0.106733	-0.917678	0.091323
Zn9	Zn	0.101427	-0.926980	-0.091171
O10	O	0.176167	-0.911730	0.069315
C11	C	0.101731	-0.779414	0.000061
C12	C	0.097211	-0.692674	0.000053
C13	C	0.015987	-0.929100	0.000095
C14	C	-0.037709	-0.928206	0.000102
N15	N	0.110355	-0.911335	0.215871
C16	C	-0.373515	-0.994011	0.000066
C17	C	-0.575327	-0.990696	0.000054
O18	O	-0.603831	-1.050870	0.000024
N19	N	-0.597729	-0.919023	0.000047
C20	C	-0.569676	-0.848173	0.000038
O21	O	-0.593361	-0.787135	0.000023
C22	C	-0.367865	-0.851490	0.000044
C23	C	-0.345465	-0.923167	0.000059
C24	C	-0.351115	-1.065683	0.000080
C25	C	-0.300665	-1.066511	0.000088
C26	C	-0.272615	-0.995667	0.000081
C27	C	-0.295015	-0.923995	0.000067
C28	C	-0.339813	-0.780641	0.000029
C29	C	-0.289357	-0.781477	0.000028
C30	C	-0.266957	-0.853155	0.000043
C31	C	-0.216515	-0.853979	0.000067
N32	N	-0.194113	-0.925652	0.000074
C33	C	-0.222163	-0.996496	0.000081
C34	C	-0.675629	-0.846437	0.000036
C35	C	-0.726081	-0.845608	0.000036
C36	C	-0.731729	-0.988131	0.000051
C37	C	-0.681276	-0.988959	0.000057
C38	C	-0.653227	-0.918111	0.000043
C39	C	-0.116214	-0.998229	0.000098
C40	C	-0.065759	-0.999051	0.000109
C41	C	-0.060116	-0.856528	0.000090
C42	C	-0.110566	-0.855706	0.000083
C43	C	-0.138614	-0.926563	0.000084
O44	O	-0.187981	-0.793838	0.000088
O45	O	-0.198469	-1.057527	0.000077
C46	C	-0.423965	-0.993184	0.000059
C47	C	-0.446365	-0.921512	0.000044
C48	C	-0.418315	-0.850668	0.000037
C49	C	-0.496818	-0.920682	0.000044
C50	C	-0.524868	-0.991526	0.000051
C51	C	-0.502465	-1.063200	0.000058
C52	C	-0.452015	-1.064028	0.000065
C53	C	-0.440718	-0.778994	0.000030
C54	C	-0.491168	-0.778172	0.000024
C55	C	-0.519218	-0.849016	0.000031
C56	C	0.192173	-0.915558	0.000055
C57	C	0.245869	-0.916452	0.000043
C58	C	0.106428	-1.065245	0.000089
C59	C	0.110949	-1.151985	0.000092
C60	C	0.138713	-0.642076	0.000043
C61	C	0.134463	-0.560575	0.000056
C62	C	0.088710	-0.529672	0.000072
C63	C	0.047205	-0.580276	0.000083
C64	C	0.051455	-0.661776	0.000077
C65	C	0.073694	-0.284088	0.000098
C66	C	0.069446	-0.202582	0.000102
C67	C	0.156706	-0.182886	0.000076
C68	C	0.160952	-0.264389	0.000064
C69	C	0.119446	-0.314985	0.000080
C70	C	0.084365	-0.446365	0.000082
C71	C	0.123792	-0.398290	0.000076
N72	N	0.097802	-0.933330	-0.215719
C73	C	0.080979	-0.962657	0.259468
C74	C	0.083517	-0.958226	0.346656
C75	C	0.115434	-0.902478	0.390245
C76	C	0.144812	-0.851150	0.346642
C77	C	0.142270	-0.855577	0.259456
C78	C	0.124638	-0.886429	0.653492
C79	C	0.127178	-0.882008	0.740684
C80	C	0.065882	-0.989084	0.740692
C81	C	0.063346	-0.993509	0.653504
C82	C	0.092721	-0.942179	0.609908
C83	C	0.118031	-0.897950	0.479365
C84	C	0.090122	-0.946704	0.520790
H85	H	-0.139045	-1.055928	0.000095
H86	H	0.175970	-0.667230	0.000030
H87	H	0.047113	-0.421194	0.000118
H88	H	0.144019	-0.852559	0.514863
H89	H	0.054990	-1.008056	0.223984
H90	H	-0.047523	-1.057421	0.000123
H91	H	0.041965	-1.030873	0.776196
O92	O	-0.278988	-1.136210	0.000059
C93	C	-0.289932	-1.277482	0.000119
C94	C	-0.314539	-1.198600	0.000135
H95	H	-0.318663	-1.327943	0.000198
H96	H	-0.268150	-1.284447	-0.057861
H97	H	-0.264758	-1.278445	0.058073
H98	H	-0.339736	-1.197581	-0.057780
H99	H	-0.336291	-1.191666	0.058153
O100	O	-0.747761	-0.775913	-0.000006
C101	C	-0.736819	-0.634636	0.000023
C102	C	-0.712208	-0.713513	0.000059
H103	H	-0.708085	-0.584165	0.000093
H104	H	-0.761963	-0.633584	-0.057958
H105	H	-0.758633	-0.627768	0.057975
H106	H	-0.690369	-0.720433	-0.057854
H107	H	-0.687092	-0.714530	0.058079
H108	H	0.017659	-0.702973	0.000084
O109	O	0.033327	-0.333122	0.000073
C110	C	-0.053669	-0.344046	0.000151
C111	C	-0.007992	-0.288424	0.000158
H112	H	-0.087086	-0.307930	0.000238
H113	H	-0.055584	-0.385631	-0.057829
H114	H	-0.052148	-0.379762	0.058104
H115	H	-0.009481	-0.252657	-0.057756
H116	H	-0.006093	-0.246891	0.058177
O117	O	0.032121	-1.047392	0.611260
C118	C	-0.036382	-1.069223	0.513491
C119	C	-0.000920	-1.008224	0.561142
H120	H	-0.063111	-1.037578	0.472973
H121	H	-0.015404	-1.110339	0.472416
H122	H	-0.056906	-1.104914	0.559861
H123	H	0.019613	-0.972478	0.514833
H124	H	-0.021925	-0.967162	0.602230
H125	H	0.153170	-0.836608	0.776170
O126	O	0.175825	-0.796923	0.388853
C127	C	0.236371	-0.691212	0.379635
C128	C	0.201261	-0.752576	0.331731
H129	H	0.256952	-0.655353	0.333474
H130	H	0.215103	-0.650306	0.420445
H131	H	0.263076	-0.722594	0.420462
H132	H	0.174548	-0.721261	0.290860
H133	H	0.222560	-0.793479	0.290974
O134	O	-0.659597	-1.058658	0.000026
C135	C	-0.670537	-1.199929	0.000089
C136	C	-0.695146	-1.121050	0.000108
H137	H	-0.699266	-1.250393	0.000172
H138	H	-0.648757	-1.206893	-0.057894
H139	H	-0.645360	-1.200890	0.058039
H140	H	-0.720346	-1.120034	-0.057804
H141	H	-0.716895	-1.114118	0.058129
O142	O	-0.378407	-1.134450	0.000199
C143	C	-0.436534	-1.212604	0.072002
C144	C	-0.405665	-1.134680	0.071954
H145	H	-0.458572	-1.212823	0.130018
H146	H	-0.462010	-1.218755	0.014076
H147	H	-0.411841	-1.263954	0.071970
H148	H	-0.430320	-1.083284	0.072015
H149	H	-0.380185	-1.128598	0.129874
O150	O	-0.262094	-0.712680	-0.000130
C151	C	-0.203912	-0.634577	-0.071870
C152	C	-0.234768	-0.712513	-0.071807
H153	H	-0.181804	-0.634423	-0.129806
H154	H	-0.228570	-0.583182	-0.071935
H155	H	-0.178492	-0.628451	-0.013875
H156	H	-0.260191	-0.718715	-0.129792
H157	H	-0.210081	-0.763868	-0.071699
O158	O	-0.132252	-0.786013	0.000034
C159	C	-0.121318	-0.644736	0.000057
C160	C	-0.096702	-0.723608	0.000106
H161	H	-0.092587	-0.594260	0.000132
H162	H	-0.146456	-0.643691	-0.057933
H163	H	-0.143138	-0.637868	0.058000
H164	H	-0.074856	-0.730527	-0.057798
H165	H	-0.071591	-0.724618	0.058134
H166	H	-0.652796	-0.788740	0.000025
O167	O	0.153224	-0.836537	0.611279
C168	C	0.214270	-0.729837	0.620480
C169	C	0.181930	-0.786307	0.668393
H170	H	0.237479	-0.689201	0.666636
H171	H	0.238648	-0.765308	0.579667
H172	H	0.190594	-0.693159	0.579656
H173	H	0.205567	-0.822998	0.709262
H174	H	0.157548	-0.750789	0.709154
H175	H	0.168259	-0.519381	0.000048
O176	O	-0.361487	-0.710946	-0.000027
C177	C	-0.350538	-0.569671	-0.000011
C178	C	-0.325931	-0.648551	0.000034
H179	H	-0.321802	-0.519203	0.000056
H180	H	-0.375681	-0.568620	-0.057995
H181	H	-0.372353	-0.562794	0.057938
H182	H	-0.304091	-0.655480	-0.057876
H183	H	-0.300817	-0.649566	0.058057
O184	O	0.168221	-0.428349	-0.000090
C185	C	0.221553	-0.512626	-0.071854
C186	C	0.171224	-0.478619	-0.071774
H187	H	0.223994	-0.553288	-0.129796
H188	H	0.250508	-0.462498	-0.071918
H189	H	0.227404	-0.547309	-0.013866
H190	H	0.165326	-0.443944	-0.129753
H191	H	0.142295	-0.528781	-0.071668
H192	H	0.190497	-0.141682	0.000064
O193	O	0.205385	-0.294438	-0.000118
C194	C	0.258722	-0.378672	-0.071927
C195	C	0.208386	-0.344692	-0.071815
H196	H	0.261161	-0.419322	-0.129879
H197	H	0.287667	-0.328530	-0.071995
H198	H	0.264590	-0.413363	-0.013948
H199	H	0.202471	-0.310010	-0.129784
H200	H	0.179467	-0.394869	-0.071704
H201	H	0.032187	-0.177426	0.000113
H202	H	0.009952	-0.555109	0.000108
O203	O	0.054968	-1.008172	0.388877
C204	C	-0.006104	-1.114832	0.379685
C205	C	0.026207	-1.058323	0.331767
H206	H	-0.029373	-1.155382	0.333532
H207	H	0.017546	-1.151591	0.420462
H208	H	-0.030432	-1.079311	0.420545
H209	H	0.050540	-1.093782	0.290861
H210	H	0.002528	-1.021561	0.291042
H211	H	-0.754576	-1.045815	0.000057
H212	H	0.166191	-0.813784	0.223960
H213	H	-0.417884	-0.721303	0.000023
H214	H	-0.037268	-0.798849	0.000087
H215	H	0.064133	-0.992092	0.485297
O216	O	-0.529670	-1.132075	-0.000049
C217	C	-0.552048	-1.257264	-0.071831
C218	C	-0.521202	-1.179311	-0.071797
H219	H	-0.545221	-1.295469	-0.129842
H220	H	-0.541842	-1.289677	-0.013901
H221	H	-0.591950	-1.244329	-0.071798
H222	H	-0.481292	-1.192176	-0.071859
H223	H	-0.531450	-1.146922	-0.129722
O224	O	-0.512848	-0.708472	-0.000027
C225	C	-0.501906	-0.567196	-0.000008
C226	C	-0.477294	-0.646072	0.000040
H227	H	-0.473172	-0.516724	0.000063
H228	H	-0.527046	-0.566148	-0.057995
H229	H	-0.523724	-0.560323	0.057938
H230	H	-0.455451	-0.652996	-0.057867
H231	H	-0.452182	-0.647084	0.058065
H232	H	-0.433782	-1.122395	0.000078
