data_functionalizedCrystal
_audit_creation_method	'MofGen! by Chris Wilmer'
_symmetry_space_group_name_H-M	'P1'
_symmetry_Int_Tables_number	1
_symmetry_cell_setting	triclinic
loop_
_symmetry_equiv_pos_as_xyz
  x,y,z
_cell_length_a	19.121275
_cell_length_b	25.639240
_cell_length_c	19.121605
_cell_angle_alpha	92.475404
_cell_angle_beta	90.117648
_cell_angle_gamma	87.594745
loop_
_atom_site_label
_atom_site_type_symbol
_atom_site_fract_x
_atom_site_fract_y
_atom_site_fract_z
Zn1	Zn	1.088573	-0.231583	0.350600
Zn2	Zn	1.083476	-0.322579	0.233347
Zn3	Zn	0.966348	-0.231281	0.238381
Zn4	Zn	0.971290	-0.315108	0.355550
O5	O	1.027422	-0.275138	0.294470
O6	O	1.185999	-0.246906	0.330868
O7	O	1.063737	-0.313469	0.135909
O8	O	0.982627	-0.158157	0.253302
O9	O	1.182254	-0.313761	0.244723
O10	O	1.072425	-0.158378	0.335749
O11	O	0.977683	-0.246393	0.139607
O12	O	0.868901	-0.239149	0.258102
O13	O	0.991049	-0.301028	0.453000
O14	O	0.872532	-0.300736	0.344186
O15	O	1.077217	-0.239662	0.449363
O16	O	1.068529	-0.394752	0.249523
O17	O	0.986106	-0.389264	0.339305
C18	C	0.845280	-0.269100	0.302228
C19	C	0.767360	-0.266528	0.305563
C20	C	1.027320	-0.410979	0.294419
C21	C	1.027342	-0.469094	0.294418
C22	C	0.728797	-0.300076	0.262212
C23	C	0.655583	-0.297660	0.265356
C24	C	0.620933	-0.261694	0.311847
C25	C	0.659501	-0.228145	0.355202
C26	C	0.732714	-0.230564	0.352062
C27	C	0.399976	-0.252654	0.323579
C28	C	0.326758	-0.250236	0.326714
C29	C	0.322845	-0.319752	0.236868
C30	C	0.396059	-0.322166	0.233729
C31	C	0.434621	-0.288619	0.277087
C32	C	0.546097	-0.259222	0.315059
C33	C	0.509456	-0.291093	0.273878
C34	C	1.074205	-0.829532	0.337480
C35	C	1.074227	-0.884137	0.337493
O36	O	1.113952	-0.912436	0.374054
N37	N	1.027522	-0.911378	0.294533
C38	C	0.980788	-0.884011	0.251563
O39	O	0.941063	-0.912196	0.215024
C40	C	0.980764	-0.829408	0.251553
C41	C	1.027476	-0.802170	0.294511
C42	C	1.120914	-0.802295	0.380434
C43	C	1.120893	-0.747694	0.380420
C44	C	1.074164	-0.720331	0.337451
C45	C	1.027456	-0.747569	0.294496
C46	C	0.934027	-0.802042	0.208587
C47	C	0.934006	-0.747434	0.208582
C48	C	0.980719	-0.720196	0.251539
C49	C	0.980706	-0.665605	0.251513
N50	N	1.027411	-0.638364	0.294473
C51	C	1.074140	-0.665727	0.337442
C52	C	0.980841	-0.998683	0.251586
C53	C	0.980868	-1.053286	0.251591
C54	C	1.074306	-1.053408	0.337523
C55	C	1.074282	-0.998804	0.337514
C56	C	1.027546	-0.971442	0.294546
C57	C	1.074094	-0.551062	0.337407
C58	C	1.074071	-0.496456	0.337387
C59	C	0.980631	-0.496339	0.251458
C60	C	0.980655	-0.550940	0.251476
C61	C	1.027390	-0.578300	0.294456
O62	O	0.941000	-0.637272	0.214972
O63	O	1.113852	-0.637536	0.373981
C64	C	1.210274	-0.281200	0.286682
C65	C	1.288195	-0.283783	0.283363
C66	C	1.035253	-0.269545	0.477331
C67	C	1.038591	-0.267162	0.555255
C68	C	1.027543	-0.138767	0.294535
C69	C	1.027595	-0.080653	0.294563
C70	C	1.019661	-0.280672	0.112318
C71	C	1.016459	-0.282913	0.034389
C72	C	1.059752	-0.252084	0.995884
C73	C	1.056612	-0.254326	0.922666
C74	C	1.010175	-0.287393	0.887954
C75	C	0.966881	-0.318225	0.926464
C76	C	0.970025	-0.315986	0.999680
C77	C	0.998441	-0.295755	0.666982
C78	C	0.995298	-0.297991	0.593760
C79	C	1.085030	-0.234091	0.589967
C80	C	1.088167	-0.231853	0.663185
C81	C	1.044876	-0.262687	0.701689
C82	C	1.006963	-0.289684	0.813113
C83	C	1.048092	-0.260398	0.776528
H84	H	0.757003	-0.329362	0.224351
H85	H	0.631284	-0.198862	0.393059
H86	H	0.969153	-0.316607	0.784843
H87	H	1.158929	-0.725520	0.415401
Cl88	Cl	0.908505	-0.359798	0.882825
H89	H	0.291440	-0.347065	0.201569
Cl90	Cl	0.944020	-0.334521	0.715376
Cl91	Cl	0.915600	-0.354745	1.048086
Cl92	Cl	1.132848	-0.585449	0.391438
Cl93	Cl	0.936918	-0.339566	0.550123
Cl94	Cl	1.106470	-0.218831	0.820167
Cl95	Cl	1.146586	-0.190311	0.706816
Cl96	Cl	1.118125	-0.210505	1.039515
H97	H	0.624188	-0.324978	0.230054
Cl98	Cl	1.111039	-0.215568	0.874263
Cl99	Cl	0.439613	-0.367367	0.175259
H100	H	0.764111	-0.203245	0.387362
Cl101	Cl	0.283199	-0.205015	0.385161
H102	H	0.537671	-0.320379	0.236028
H103	H	0.431365	-0.225338	0.358885
Cl104	Cl	0.502531	-0.214009	0.373505
Cl105	Cl	1.132801	-0.462218	0.391394
Cl106	Cl	1.139446	-0.195328	0.541559
Cl107	Cl	1.133051	-1.087817	0.391543
Cl108	Cl	1.133008	-0.964568	0.391521
Cl109	Cl	1.179665	-0.836684	0.434462
Cl110	Cl	0.922150	-1.087522	0.197575
Cl111	Cl	0.875248	-0.713039	0.154561
Cl112	Cl	0.922086	-0.964291	0.197559
H113	H	0.895988	-0.824209	0.173606
H114	H	0.942623	-0.573118	0.216491
Cl115	Cl	0.921888	-0.461930	0.197443
