data_functionalizedCrystal
_audit_creation_method	'MofGen! by Chris Wilmer'
_symmetry_space_group_name_H-M	'P1'
_symmetry_Int_Tables_number	1
_symmetry_cell_setting	triclinic
loop_
_symmetry_equiv_pos_as_xyz
  x,y,z
_cell_length_a	14.971490
_cell_length_b	12.996460
_cell_length_c	14.971496
_cell_angle_alpha	90.007054
_cell_angle_beta	96.383114
_cell_angle_gamma	89.992083
loop_
_atom_site_label
_atom_site_type_symbol
_atom_site_fract_x
_atom_site_fract_y
_atom_site_fract_z
O1	O	-1.186948	0.085625	0.116580
O2	O	-0.926549	0.085615	0.130535
O3	O	-1.063723	0.085611	-0.006642
O4	O	-1.049774	0.085629	0.253757
O5	O	-1.063709	-0.085523	-0.006650
O6	O	-0.926534	-0.085519	0.130527
O7	O	-1.186934	-0.085509	0.116572
Cu8	Cu	-1.056733	-0.101140	0.123549
Cu9	Cu	-1.056750	0.101246	0.123558
O10	O	-1.049759	-0.085505	0.253749
C11	C	-0.893217	0.000047	0.129906
C12	C	-0.793920	0.000042	0.128034
C13	C	-0.366222	0.093347	0.119961
C14	C	-0.459522	0.093344	0.121717
C15	C	-0.506160	0.000056	0.122597
C16	C	-0.459494	-0.093236	0.121711
C17	C	-0.366196	-0.093232	0.119948
C18	C	-0.653956	-0.093237	0.125387
C19	C	-0.747260	-0.093242	0.127152
C20	C	-0.747282	0.093338	0.127156
C21	C	-0.653984	0.093342	0.125393
C22	C	-0.607324	0.000050	0.124509
N23	N	-1.056727	-0.243487	0.123542
C24	C	-1.056748	-0.663301	0.123559
C25	C	-1.056740	-0.546496	0.123557
C26	C	-1.056738	-0.453398	0.123551
C27	C	-1.056729	-0.336585	0.123548
C28	C	-0.220265	0.000059	0.117202
C29	C	-0.319562	0.000062	0.119078
C30	C	-1.063091	0.000044	-0.039970
C31	C	-1.061216	0.000043	-0.139267
N32	N	-1.056762	0.243593	0.123558
C33	C	-1.053156	0.093355	-0.566967
C34	C	-1.054922	0.093350	-0.473668
C35	C	-1.055791	0.000061	-0.427028
C36	C	-1.054903	-0.093229	-0.473694
C37	C	-1.053144	-0.093224	-0.566993
C38	C	-1.058568	-0.093234	-0.279231
C39	C	-1.060326	-0.093240	-0.185926
C40	C	-1.060346	0.093340	-0.185906
C41	C	-1.058587	0.093345	-0.279205
C42	C	-1.057698	0.000054	-0.325864
C43	C	-1.050392	0.000064	0.287077
C44	C	-1.052266	0.000071	0.386374
H45	H	-0.616013	0.169306	0.124683
H46	H	-0.785277	0.169300	0.127877
H47	H	-1.061063	0.169301	-0.147911
H48	H	-1.055649	0.169311	-0.435683
H49	H	-0.497509	0.169305	0.122430
H50	H	-0.615967	-0.169205	0.124678
H51	H	-1.057845	-0.169202	-0.317218
H52	H	-0.328206	-0.169193	0.119239
H53	H	-1.057874	0.169309	-0.317175
H54	H	-1.052440	0.169322	-0.604933
H55	H	-1.061005	-0.169204	-0.147951
H56	H	-1.055617	-0.169187	-0.435714
H57	H	-0.328255	0.169313	0.119250
H58	H	-0.785230	-0.169205	0.127873
H59	H	-0.497475	-0.169193	0.122422
H60	H	-1.052419	-0.169185	-0.604981
