data_functionalizedCrystal
_audit_creation_method	'MofGen! by Chris Wilmer'
_symmetry_space_group_name_H-M	'P1'
_symmetry_Int_Tables_number	1
_symmetry_cell_setting	triclinic
loop_
_symmetry_equiv_pos_as_xyz
  x,y,z
_cell_length_a	11.792254
_cell_length_b	11.792241
_cell_length_c	9.198806
_cell_angle_alpha	89.996670
_cell_angle_beta	89.996104
_cell_angle_gamma	84.196007
loop_
_atom_site_label
_atom_site_type_symbol
_atom_site_fract_x
_atom_site_fract_y
_atom_site_fract_z
O1	O	1.506900	0.155634	-0.120892
O2	O	1.756900	0.405634	0.129108
O3	O	2.006900	0.655634	0.379108
O4	O	2.256900	0.905634	0.629108
O5	O	1.176560	0.171652	-0.120895
O6	O	1.426560	0.421652	0.129105
O7	O	1.676560	0.671652	0.379105
O8	O	1.926560	0.921652	0.629105
O9	O	1.349746	-0.001527	-0.120883
O10	O	1.599746	0.248473	0.129117
O11	O	1.849746	0.498473	0.379117
O12	O	2.099746	0.748473	0.629117
O13	O	1.333714	0.328813	-0.120904
O14	O	1.583714	0.578813	0.129096
O15	O	1.833714	0.828813	0.379096
O16	O	2.083714	1.078813	0.629096
O17	O	1.349733	-0.001528	0.120902
O18	O	1.599733	0.248472	0.370902
O19	O	1.849733	0.498472	0.620902
O20	O	2.099733	0.748472	0.870902
O21	O	1.176547	0.171651	0.120890
O22	O	1.426547	0.421651	0.370890
O23	O	1.676547	0.671651	0.620890
O24	O	1.926547	0.921651	0.870890
O25	O	1.506886	0.155633	0.120893
O26	O	1.756886	0.405633	0.370893
O27	O	2.006886	0.655633	0.620893
O28	O	2.256886	0.905633	0.870893
Cu29	Cu	1.341715	0.163642	0.142968
Cu30	Cu	1.591715	0.413642	0.392968
Cu31	Cu	1.841715	0.663642	0.642968
Cu32	Cu	2.091715	0.913642	0.892968
Cu33	Cu	1.341731	0.163643	-0.142970
Cu34	Cu	1.591731	0.413643	0.107030
Cu35	Cu	1.841731	0.663643	0.357030
Cu36	Cu	2.091731	0.913643	0.607030
O37	O	1.333700	0.328812	0.120881
O38	O	1.583700	0.578812	0.370881
O39	O	1.833700	0.828812	0.620881
O40	O	2.083700	1.078812	0.870881
C41	C	1.134263	0.170642	-0.000003
C42	C	1.384263	0.420642	0.249997
C43	C	1.634263	0.670642	0.499997
C44	C	1.884263	0.920642	0.749997
C45	C	1.008250	0.167622	-0.000004
C46	C	1.258250	0.417622	0.249996
C47	C	1.508250	0.667622	0.499996
C48	C	1.758250	0.917622	0.749996
C49	C	0.905913	0.165168	-0.000010
C50	C	1.155913	0.415168	0.249990
C51	C	1.405913	0.665168	0.499990
C52	C	1.655913	0.915168	0.749990
C53	C	0.777527	0.162100	-0.000011
C54	C	1.027527	0.412100	0.249989
C55	C	1.277527	0.662100	0.499989
C56	C	1.527527	0.912100	0.749989
C57	C	1.348732	-0.043819	0.000009
C58	C	1.598732	0.206181	0.250009
C59	C	1.848732	0.456181	0.500009
C60	C	2.098732	0.706181	0.750009
C61	C	1.345718	-0.169832	0.000007
C62	C	1.595718	0.080168	0.250007
C63	C	1.845718	0.330168	0.500007
C64	C	2.095718	0.580168	0.750007
C65	C	1.340175	-0.400545	-0.000017
C66	C	1.590175	-0.150545	0.249983
C67	C	1.840175	0.099455	0.499983
C68	C	2.090175	0.349455	0.749983
C69	C	1.343255	-0.272160	-0.000004
C70	C	1.593255	-0.022160	0.249996
C71	C	1.843255	0.227840	0.499996
C72	C	2.093255	0.477840	0.749996
C73	C	1.549183	0.156643	-0.000002
C74	C	1.799183	0.406643	0.249998
C75	C	2.049183	0.656643	0.499998
C76	C	2.299183	0.906643	0.749998
C77	C	1.675196	0.159663	-0.000011
C78	C	1.925196	0.409663	0.249989
C79	C	2.175196	0.659663	0.499989
C80	C	2.425196	0.909663	0.749989
C81	C	1.334714	0.371104	-0.000014
C82	C	1.584714	0.621104	0.249986
C83	C	1.834714	0.871104	0.499986
C84	C	2.084714	1.121104	0.749986
C85	C	1.337728	0.497118	-0.000022
C86	C	1.587728	0.747118	0.249978
C87	C	1.837728	0.997118	0.499978
C88	C	2.087728	1.247118	0.749978
N89	N	1.341712	0.163641	0.344082
N90	N	1.591712	0.413641	0.594082
N91	N	1.841712	0.663641	0.844082
N92	N	2.091712	0.913641	1.094082
N93	N	1.341743	0.163635	-0.344084
N94	N	1.591743	0.413635	-0.094084
N95	N	1.841743	0.663635	0.155916
N96	N	2.091743	0.913635	0.405916
C97	C	1.414428	0.090608	0.416284
C98	C	1.664428	0.340608	0.666284
C99	C	1.914428	0.590608	0.916284
C100	C	2.164428	0.840608	1.166284
C101	C	1.414446	0.090604	0.583697
C102	C	1.664446	0.340604	0.833697
C103	C	1.914446	0.590604	1.083697
C104	C	2.164446	0.840604	1.333697
H105	H	1.476667	0.028080	0.354163
H106	H	1.726667	0.278080	0.604163
H107	H	1.976667	0.528080	0.854163
H108	H	2.226667	0.778080	1.104163
Cl109	Cl	1.245603	0.260171	0.439987
Cl110	Cl	1.495603	0.510171	0.689987
Cl111	Cl	1.745603	0.760171	0.939987
Cl112	Cl	1.995603	1.010171	1.189987
H113	H	1.476706	0.028082	0.645787
H114	H	1.726706	0.278082	0.895787
H115	H	1.976706	0.528082	1.145787
H116	H	2.226706	0.778082	1.395787
Cl117	Cl	1.245623	0.260185	0.560068
Cl118	Cl	1.495623	0.510185	0.810068
Cl119	Cl	1.745623	0.760185	1.060068
Cl120	Cl	1.995623	1.010185	1.310068
