data_functionalizedCrystal
_audit_creation_method	'MofGen! by Chris Wilmer'
_symmetry_space_group_name_H-M	'P1'
_symmetry_Int_Tables_number	1
_symmetry_cell_setting	triclinic
loop_
_symmetry_equiv_pos_as_xyz
  x,y,z
_cell_length_a	6.817900
_cell_length_b	14.858329
_cell_length_c	14.858340
_cell_angle_alpha	94.735759
_cell_angle_beta	104.519754
_cell_angle_gamma	104.519616
loop_
_atom_site_label
_atom_site_type_symbol
_atom_site_fract_x
_atom_site_fract_y
_atom_site_fract_z
V1	V	-4.043500	-0.129264	-0.290227
V2	V	-3.710167	0.204069	0.043107
V3	V	-3.376833	0.537403	0.376440
O4	O	-4.025343	0.005601	-0.284429
O5	O	-3.692010	0.338935	0.048904
O6	O	-3.358676	0.672268	0.382238
O7	O	-4.000049	-0.255722	-0.288504
O8	O	-3.666716	0.077611	0.044829
O9	O	-3.333383	0.410945	0.378163
O10	O	-4.000051	-0.127543	-0.416685
O11	O	-3.666718	0.205790	-0.083351
O12	O	-3.333385	0.539123	0.249982
O13	O	-4.025341	-0.123464	-0.155361
O14	O	-3.692008	0.209869	0.177972
O15	O	-3.358674	0.543202	0.511306
V16	V	-4.525845	-0.113101	-0.274064
V17	V	-4.192512	0.220232	0.059270
V18	V	-3.859178	0.553566	0.392603
O19	O	-4.307342	-0.164719	-0.325681
O20	O	-3.974009	0.168614	0.007652
O21	O	-3.640676	0.501948	0.340985
O22	O	-4.712200	-0.077646	-0.238609
O23	O	-4.378866	0.255687	0.094724
O24	O	-4.045533	0.589021	0.428058
O25	O	-4.346089	0.013357	-0.275786
O26	O	-4.012756	0.346690	0.057547
O27	O	-3.679422	0.680024	0.390880
O28	O	-4.661399	-0.247966	-0.279861
O29	O	-4.328065	0.085367	0.053472
O30	O	-3.994732	0.418700	0.386805
O31	O	-4.661401	-0.118901	-0.408929
O32	O	-4.328067	0.214433	-0.075596
O33	O	-3.994734	0.547766	0.257737
O34	O	-4.346087	-0.114821	-0.147606
O35	O	-4.012754	0.218512	0.185728
O36	O	-3.679420	0.551845	0.519061
C37	C	-3.846094	-0.286541	-0.283993
C38	C	-3.512760	0.046792	0.049340
C39	C	-3.179427	0.380125	0.382673
C40	C	-3.891888	-0.389924	-0.283428
C41	C	-3.558554	-0.056591	0.049906
C42	C	-3.225221	0.276743	0.383239
C43	C	-3.929071	-0.473881	-0.282960
C44	C	-3.595737	-0.140547	0.050374
C45	C	-3.262404	0.192786	0.383707
C46	C	-3.975738	-0.579209	-0.282377
C47	C	-3.642405	-0.245876	0.050956
C48	C	-3.309072	0.087457	0.384289
C49	C	-4.012950	-0.663161	-0.281914
C50	C	-3.679616	-0.329827	0.051420
C51	C	-3.346283	0.003506	0.384753
C52	C	-4.059620	-0.768496	-0.281330
C53	C	-3.726287	-0.435162	0.052004
C54	C	-3.392953	-0.101829	0.385337
C55	C	-3.846095	-0.123036	-0.447499
C56	C	-3.512762	0.210298	-0.114166
C57	C	-3.179429	0.543631	0.219167
C58	C	-3.891888	-0.122466	-0.550881
C59	C	-3.558554	0.210868	-0.217548
C60	C	-3.225221	0.544201	0.115785
C61	C	-3.929073	-0.122002	-0.634839
C62	C	-3.595740	0.211332	-0.301506
C63	C	-3.262407	0.544665	0.031828
C64	C	-3.975740	-0.121416	-0.740167
C65	C	-3.642407	0.211918	-0.406833
C66	C	-3.309073	0.545251	-0.073500
C67	C	-4.012950	-0.120949	-0.824118
C68	C	-3.679617	0.212385	-0.490784
C69	C	-3.346283	0.545718	-0.157451
C70	C	-4.059621	-0.120365	-0.929452
C71	C	-3.726288	0.212969	-0.596119
C72	C	-3.392954	0.546302	-0.262786
C73	C	-4.163386	0.044171	-0.280295
C74	C	-3.830053	0.377505	0.053039
C75	C	-3.496720	0.710838	0.386372
C76	C	-4.096831	0.147553	-0.280866
C77	C	-3.763498	0.480886	0.052467
C78	C	-3.430164	0.814220	0.385801
C79	C	-4.163385	-0.119332	-0.116786
C80	C	-3.830052	0.214001	0.216547
C81	C	-3.496718	0.547334	0.549881
C82	C	-4.096831	-0.119898	-0.013403
C83	C	-3.763498	0.213436	0.319930
C84	C	-3.430164	0.546769	0.653263
