data_functionalizedCrystal
_audit_creation_method	'MofGen! by Chris Wilmer'
_symmetry_space_group_name_H-M	'P1'
_symmetry_Int_Tables_number	1
_symmetry_cell_setting	triclinic
loop_
_symmetry_equiv_pos_as_xyz
  x,y,z
_cell_length_a	29.839135
_cell_length_b	29.839126
_cell_length_c	19.805405
_cell_angle_alpha	90.023889
_cell_angle_beta	89.971060
_cell_angle_gamma	89.976855
loop_
_atom_site_label
_atom_site_type_symbol
_atom_site_fract_x
_atom_site_fract_y
_atom_site_fract_z
Zn1	Zn	0.686800	-0.254048	0.269469
Zn2	Zn	0.686742	-0.178918	0.382647
Zn3	Zn	0.611673	-0.178926	0.269482
Zn4	Zn	0.611651	-0.254015	0.382627
O5	O	0.649217	-0.216477	0.326056
O6	O	0.749660	-0.244092	0.284486
O7	O	0.676769	-0.116052	0.367649
O8	O	0.621673	-0.188908	0.174764
O9	O	0.749617	-0.188895	0.367637
O10	O	0.676868	-0.244100	0.174754
O11	O	0.621616	-0.116058	0.284508
O12	O	0.548803	-0.188876	0.284488
O13	O	0.621634	-0.316887	0.367602
O14	O	0.548787	-0.244044	0.367615
O15	O	0.676847	-0.316911	0.284466
O16	O	0.676747	-0.188863	0.477361
O17	O	0.621578	-0.244037	0.477346
C18	C	0.532494	-0.216458	0.326051
C19	C	0.482560	-0.216460	0.326065
C20	C	0.172936	-0.245261	0.282825
C21	C	-0.014738	-0.245273	0.282830
O22	O	-0.038986	-0.269739	0.246050
N23	N	-0.038225	-0.216493	0.326057
C24	C	-0.014792	-0.187706	0.369283
O25	O	-0.039076	-0.163224	0.406046
C26	C	0.172880	-0.187691	0.369274
C27	C	0.196365	-0.216477	0.326049
C28	C	0.196421	-0.274043	0.239603
C29	C	0.243337	-0.274041	0.239605
C30	C	0.266766	-0.245257	0.282829
C31	C	0.243281	-0.216475	0.326051
C32	C	0.196312	-0.158902	0.412497
C33	C	0.243233	-0.158900	0.412489
C34	C	0.266719	-0.187685	0.369264
C35	C	0.313626	-0.187689	0.369277
N36	N	0.337114	-0.216469	0.326050
C37	C	0.313684	-0.245253	0.282826
C38	C	-0.113323	-0.187717	0.369285
C39	C	-0.160241	-0.187721	0.369289
C40	C	-0.160183	-0.245287	0.282834
C41	C	-0.113264	-0.245285	0.282835
C42	C	-0.089835	-0.216497	0.326058
C43	C	0.412210	-0.245247	0.282833
C44	C	0.459130	-0.245244	0.282841
C45	C	0.459068	-0.187676	0.369293
C46	C	0.412152	-0.187681	0.369288
C47	C	0.388725	-0.216468	0.326053
O48	O	0.337904	-0.163232	0.406032
O49	O	0.337977	-0.269724	0.246058
C50	C	0.126020	-0.245262	0.282823
C51	C	0.102535	-0.216480	0.326045
C52	C	0.125964	-0.187696	0.369270
C53	C	0.055617	-0.216484	0.326049
C54	C	0.032187	-0.245268	0.282824
C55	C	0.055675	-0.274048	0.239597
C56	C	0.102590	-0.274047	0.239599
C57	C	0.102477	-0.158916	0.412497
C58	C	0.055561	-0.158920	0.412492
C59	C	0.032131	-0.187705	0.369268
C60	C	0.649244	-0.333655	0.326030
C61	C	0.649256	-0.383590	0.326019
C62	C	0.620547	-0.693239	0.282660
C63	C	0.620560	-0.880912	0.282613
O64	O	0.596128	-0.905182	0.245814
N65	N	0.649278	-0.904375	0.325892
C66	C	0.677992	-0.880917	0.369190
O67	O	0.702415	-0.905180	0.406006
C68	C	0.677977	-0.693244	0.369240
C69	C	0.649260	-0.669784	0.325953
C70	C	0.591833	-0.669779	0.239377
C71	C	0.591832	-0.622863	0.239386
C72	C	0.620545	-0.599408	0.282679
C73	C	0.649259	-0.622869	0.325962
C74	C	0.706689	-0.669787	0.412540
C75	C	0.706682	-0.622866	0.412550
C76	C	0.677965	-0.599406	0.369263
C77	C	0.677971	-0.552498	0.369264
N78	N	0.649254	-0.529035	0.325985
C79	C	0.620540	-0.552490	0.282692
C80	C	0.677999	-0.979447	0.369160
C81	C	0.678003	-1.026365	0.369146
C82	C	0.620570	-1.026358	0.282570
C83	C	0.620568	-0.979439	0.282580
C84	C	0.649281	-0.955985	0.325880
C85	C	0.620540	-0.453964	0.282715
C86	C	0.620543	-0.407045	0.282727
C87	C	0.677974	-0.407057	0.369305
C88	C	0.677973	-0.453972	0.369291
C89	C	0.649253	-0.477425	0.325994
O90	O	0.702387	-0.528199	0.406049
O91	O	0.596114	-0.528219	0.245892
C92	C	0.620548	-0.740155	0.282650
C93	C	0.649263	-0.763615	0.325933
C94	C	0.677976	-0.740160	0.369226
C95	C	0.649267	-0.810533	0.325920
C96	C	0.620554	-0.833988	0.282627
C97	C	0.591836	-0.810525	0.239348
C98	C	0.591835	-0.763610	0.239357
C99	C	0.706694	-0.763623	0.412506
C100	C	0.706693	-0.810538	0.412492
C101	C	0.677980	-0.833993	0.369199
C102	C	0.766395	-0.216497	0.326062
C103	C	0.816329	-0.216505	0.326064
C104	C	0.649166	-0.216455	0.501912
C105	C	0.649186	-0.216461	0.577144
C106	C	0.649215	-0.099754	0.326033
C107	C	0.649290	-0.049820	0.325854
C108	C	0.649280	-0.216509	0.149514
C109	C	0.649306	-0.216522	0.074282
C110	C	0.677940	-0.187762	0.612474
C111	C	0.677959	-0.187772	0.683162
C112	C	0.649221	-0.216479	0.718520
C113	C	0.620465	-0.245181	0.683186
C114	C	0.620449	-0.245173	0.612498
C115	C	0.620531	-0.245214	0.968259
C116	C	0.620549	-0.245219	1.038951
C117	C	0.678042	-0.187814	1.038923
C118	C	0.678026	-0.187806	0.968235
C119	C	0.649272	-0.216509	0.932907
C120	C	0.649252	-0.216498	0.856259
C121	C	0.649238	-0.216487	0.795167
H122	H	-0.179359	-0.164286	0.404495
H123	H	0.597148	-0.268599	1.067737
H124	H	0.036443	-0.135481	0.447698
C125	C	0.563692	-0.301947	0.975397
C126	C	0.588917	-0.276756	0.929432
H127	H	0.544170	-0.321417	0.951423
H128	H	0.583261	-0.319157	1.002922
H129	H	0.546532	-0.282352	1.003011
H130	H	0.606079	-0.296351	0.901821
H131	H	0.569346	-0.259544	0.901895
C132	C	0.473614	-0.321359	0.250024
C133	C	0.484944	-0.276886	0.235322
H134	H	0.489548	-0.340891	0.220685
H135	H	0.481294	-0.327876	0.295509
H136	H	0.442317	-0.325471	0.243838
H137	H	0.516240	-0.272773	0.241513
H138	H	0.477267	-0.270367	0.189827
H139	H	0.597192	-1.045463	0.247318
H140	H	0.597068	-0.268556	0.711979
C141	C	0.531398	-0.722513	0.229944
C142	C	0.560265	-0.695553	0.191784
H143	H	0.511907	-0.738419	0.200557
H144	H	0.548497	-0.743205	0.255704
H145	H	0.514207	-0.704195	0.259441
H146	H	0.577458	-0.713871	0.162290
H147	H	0.543164	-0.674858	0.166012
H148	H	0.597034	-0.268543	0.583734
C149	C	0.614328	-0.506735	0.191652
C150	C	0.588973	-0.479741	0.235121
H151	H	0.594840	-0.522650	0.162272
H152	H	0.633908	-0.488444	0.165773
H153	H	0.631425	-0.527425	0.217433
H154	H	0.571878	-0.459049	0.209340
H155	H	0.569385	-0.498034	0.261003
H156	H	0.262454	-0.297480	0.204405
C157	C	0.359485	-0.305696	0.273552
C158	C	0.386462	-0.276892	0.235314
H159	H	0.343587	-0.325231	0.244217
H160	H	0.377787	-0.322839	0.303076
H161	H	0.338781	-0.288551	0.299287
H162	H	0.407168	-0.294037	0.209583
H163	H	0.368158	-0.259748	0.205778
H164	H	0.177198	-0.135462	0.447695
C165	C	-0.016225	-0.299605	0.201215
C166	C	0.029914	-0.305687	0.192082
H167	H	-0.032129	-0.319133	0.171877
H168	H	-0.023922	-0.306127	0.246701
H169	H	-0.023917	-0.269429	0.191248
H170	H	0.037606	-0.335862	0.202054
H171	H	0.037614	-0.299168	0.146586
C172	C	0.734863	-0.131065	0.975309
C173	C	0.709617	-0.156252	0.929371
H174	H	0.754369	-0.111588	0.951315
H175	H	0.715306	-0.113864	1.002917
H176	H	0.752040	-0.150664	1.002843
H177	H	0.692437	-0.136653	0.901840
H178	H	0.729176	-0.173455	0.901751
H179	H	0.177349	-0.297483	0.204401
H180	H	0.121708	-0.297486	0.204400
H181	H	-0.094145	-0.268724	0.247636
H182	H	0.478153	-0.164242	0.404486
H183	H	0.730072	-0.688880	0.447790
C184	C	-0.060598	-0.181357	0.460323
C185	C	-0.087573	-0.156073	0.416806
H186	H	-0.044701	-0.161821	0.489659
H187	H	-0.078900	-0.200900	0.486247
H188	H	-0.039892	-0.198491	0.434574
H189	H	-0.108281	-0.138941	0.442556
H190	H	-0.069269	-0.136522	0.390880
H191	H	0.701457	-0.164444	1.067695
C192	C	0.535060	-0.627583	0.153816
C193	C	0.560261	-0.597080	0.191810
H194	H	0.515566	-0.611667	0.124448
H195	H	0.554646	-0.645891	0.127924
H196	H	0.517872	-0.645874	0.183313
H197	H	0.577452	-0.578791	0.162313
H198	H	0.540673	-0.578764	0.217704
C199	C	0.535064	-0.805818	0.153765
C200	C	0.560273	-0.836313	0.191759
H201	H	0.515581	-0.821740	0.124388
H202	H	0.517868	-0.787507	0.183256
H203	H	0.554648	-0.787529	0.127876
H204	H	0.540689	-0.854599	0.217652
H205	H	0.577471	-0.854631	0.162265
C206	C	0.684215	-0.926682	0.460237
C207	C	0.709566	-0.953672	0.416757
H208	H	0.703705	-0.910773	0.489622
H209	H	0.667118	-0.905991	0.434468
H210	H	0.664633	-0.944979	0.486116
H211	H	0.729145	-0.935374	0.390873
H212	H	0.726670	-0.974365	0.442528
C213	C	-0.232083	-0.270846	0.244453
C214	C	-0.185943	-0.276926	0.235317
H215	H	-0.247986	-0.290373	0.215113
H216	H	-0.239778	-0.277371	0.289938
H217	H	-0.239775	-0.240670	0.234490
H218	H	-0.178250	-0.307101	0.245285
H219	H	-0.178244	-0.270404	0.189821
C220	C	0.734782	-0.131021	0.676034
C221	C	0.709565	-0.156223	0.721996
H222	H	0.754292	-0.111541	0.700010
H223	H	0.751949	-0.150607	0.648425
H224	H	0.715204	-0.113817	0.648504
H225	H	0.729142	-0.173429	0.749524
H226	H	0.692396	-0.136635	0.749617
C227	C	0.238460	-0.101997	0.497946
C228	C	0.268986	-0.127257	0.460008
H229	H	0.254358	-0.082466	0.527286
H230	H	0.220165	-0.084850	0.468418
H231	H	0.220158	-0.121546	0.523874
H232	H	0.287285	-0.107708	0.434077
H233	H	0.287288	-0.144406	0.489540
C234	C	0.359350	-0.181329	0.460321
C235	C	0.386333	-0.156043	0.416804
H236	H	0.343415	-0.161794	0.489654
H237	H	0.338682	-0.198466	0.434575
H238	H	0.377655	-0.200869	0.486253
H239	H	0.368028	-0.136505	0.390868
H240	H	0.407003	-0.138899	0.442553
C241	C	0.097697	-0.102020	0.497955
C242	C	0.128226	-0.127276	0.460017
H243	H	0.113593	-0.082489	0.527298
H244	H	0.079403	-0.084872	0.468427
H245	H	0.079395	-0.121571	0.523878
H246	H	0.146526	-0.107725	0.434090
H247	H	0.146528	-0.144425	0.489549
H248	H	0.597159	-0.387946	0.247474
H249	H	0.597185	-0.960341	0.247332
H250	H	0.730066	-0.603772	0.447806
C251	C	0.734769	-1.021648	0.454727
C252	C	0.709572	-1.052150	0.416725
H253	H	0.754256	-1.037566	0.484105
H254	H	0.751962	-1.003361	0.425241
H255	H	0.715178	-1.003337	0.480615
H256	H	0.729163	-1.070459	0.390832
H257	H	0.692378	-1.070445	0.446214
H258	H	0.701340	-0.164384	0.583690
H259	H	0.701361	-0.473075	0.404532
H260	H	0.701353	-0.387951	0.404551
H261	H	0.568451	-0.744512	0.204108
C262	C	0.763458	-0.805821	0.498081
C263	C	0.738260	-0.836323	0.460080
H264	H	0.782941	-0.821739	0.527464
H265	H	0.780654	-0.787537	0.468595
H266	H	0.743867	-0.787507	0.523964
H267	H	0.757851	-0.854635	0.434192
H268	H	0.721063	-0.854615	0.489569
H269	H	0.730074	-0.744530	0.447763
