data_functionalizedCrystal
_audit_creation_method	'MofGen! by Chris Wilmer'
_symmetry_space_group_name_H-M	'P1'
_symmetry_Int_Tables_number	1
_symmetry_cell_setting	triclinic
loop_
_symmetry_equiv_pos_as_xyz
  x,y,z
_cell_length_a	12.759401
_cell_length_b	12.594516
_cell_length_c	12.759393
_cell_angle_alpha	90.027778
_cell_angle_beta	89.980677
_cell_angle_gamma	89.973978
loop_
_atom_site_label
_atom_site_type_symbol
_atom_site_fract_x
_atom_site_fract_y
_atom_site_fract_z
Zn1	Zn	1.606161	0.423717	-0.594037
Zn2	Zn	1.606021	0.601731	-0.418363
Zn3	Zn	1.430465	0.423765	-0.418372
Zn4	Zn	1.430415	0.601652	-0.594001
O5	O	1.518265	0.512716	-0.506193
O6	O	1.753164	0.447344	-0.570745
O7	O	1.582695	0.578177	-0.271343
O8	O	1.453851	0.274813	-0.441693
O9	O	1.753060	0.578131	-0.441679
O10	O	1.582935	0.274778	-0.570753
O11	O	1.453715	0.447426	-0.271350
O12	O	1.283437	0.447349	-0.441658
O13	O	1.453766	0.577995	-0.741026
O14	O	1.283401	0.578042	-0.570691
O15	O	1.582886	0.447268	-0.741053
O16	O	1.582646	0.750667	-0.441643
O17	O	1.453630	0.750608	-0.570683
C18	C	1.245298	0.512693	-0.506172
C19	C	1.128521	0.512708	-0.506188
C20	C	0.963917	0.444592	-0.439139
C21	C	1.073641	0.444567	-0.439123
C22	C	1.073672	0.580871	-0.573281
C23	C	0.963950	0.580890	-0.573301
C24	C	1.223607	0.318968	-0.401767
C25	C	1.278452	0.250817	-0.334665
C26	C	1.242792	0.234357	-0.232185
C27	C	1.152289	0.286062	-0.196785
C28	C	1.097449	0.354220	-0.263881
C29	C	1.133108	0.370661	-0.366376
C30	C	0.813982	0.706490	-0.610647
C31	C	0.759141	0.774655	-0.677738
C32	C	0.794799	0.791126	-0.780220
C33	C	0.885305	0.739440	-0.815616
C34	C	0.940147	0.671275	-0.748524
C35	C	0.904481	0.654802	-0.646043
C36	C	1.518146	0.789257	-0.506181
C37	C	1.518191	0.907563	-0.506211
C38	C	1.447999	0.976823	-0.576346
C39	C	1.422387	1.047690	-0.480479
C40	C	1.543859	1.047495	-0.602094
C41	C	1.492529	0.976872	-0.410293
C42	C	1.614045	0.976670	-0.531973
C43	C	1.588470	1.047505	-0.436039
C44	C	1.792299	0.512741	-0.506215
C45	C	1.909075	0.512752	-0.506224
C46	C	1.518336	0.512617	-0.780227
C47	C	1.518366	0.512575	-0.897003
C48	C	1.518368	1.235096	-0.506227
C49	C	1.518294	1.116790	-0.506237
C50	C	1.451189	0.580567	-1.061584
C51	C	1.451154	0.580612	-0.951860
C52	C	1.585610	0.444481	-0.951876
C53	C	1.585638	0.444432	-1.061599
C54	C	1.327189	0.618696	-0.801899
C55	C	1.259958	0.686799	-0.747030
C56	C	1.243780	0.790637	-0.782635
C57	C	1.294848	0.826394	-0.873108
C58	C	1.362087	0.758297	-0.927971
C59	C	1.378245	0.654444	-0.892367
C60	C	1.709605	0.406359	-1.211562
C61	C	1.776850	0.338266	-1.266428
C62	C	1.793039	0.234426	-1.230824
C63	C	1.741989	0.198673	-1.140348
C64	C	1.674744	0.266765	-1.085483
C65	C	1.658553	0.370605	-1.121094
C66	C	1.518256	0.512738	-0.233226
C67	C	1.518429	0.512481	-0.116450
H68	H	1.287455	0.178866	-0.177550
H69	H	1.023765	0.396319	-0.235059
H70	H	1.123269	0.272663	-0.113331
O71	O	1.466735	0.940076	-0.313476
C72	C	1.540411	0.976953	-0.239624
H73	H	1.616913	0.997144	-0.281251
H74	H	1.555386	0.912553	-0.178681
H75	H	1.508512	1.050980	-0.199223
H76	H	1.396461	0.635975	-1.106241
O77	O	1.178314	0.856689	-0.729405
C78	C	1.076902	0.812354	-0.726731
H79	H	1.067461	0.754231	-0.794588
H80	H	1.016138	0.878319	-0.734050
H81	H	1.065102	0.768662	-0.649394
H82	H	0.919241	0.389104	-0.384526
H83	H	1.013842	0.629190	-0.777352
H84	H	1.388550	0.945786	-0.635571
H85	H	1.118365	0.636348	-0.627891
H86	H	1.352140	0.208719	-0.363497
H87	H	1.252644	0.332354	-0.485218
O88	O	1.325731	1.084786	-0.454339
C89	C	1.298187	1.047280	-0.353946
H90	H	1.344661	0.972182	-0.335810
H91	H	1.210782	1.028663	-0.351916
H92	H	1.316842	1.110666	-0.292934
O93	O	0.919781	0.755517	-0.915214
C94	C	0.851984	0.826781	-0.966833
H95	H	0.771922	0.825530	-0.927172
H96	H	0.843279	0.802043	-1.052343
H97	H	0.885928	0.910396	-0.962724
O98	O	1.693996	0.507203	-1.246290
C99	C	1.753446	0.524146	-1.337932
H100	H	1.821661	0.465702	-1.340175
H101	H	1.785067	0.608789	-1.338030
H102	H	1.701683	0.511648	-1.409692
O103	O	1.569778	1.084327	-0.698865
C104	C	1.586906	0.997846	-0.766970
H105	H	1.607744	0.924369	-0.719166
H106	H	1.654099	1.017356	-0.822623
H107	H	1.512727	0.981885	-0.814191
O108	O	1.659205	1.084436	-0.365153
C109	C	1.607311	1.147515	-0.289980
H110	H	1.530897	1.178790	-0.324472
H111	H	1.659536	1.217172	-0.267061
H112	H	1.589538	1.097593	-0.217621
O113	O	1.651047	0.378441	-0.898709
C114	C	1.755752	0.401722	-0.925514
H115	H	1.757923	0.442602	-1.005178
H116	H	1.802907	0.324909	-0.929277
H117	H	1.791095	0.456476	-0.863763
O118	O	1.624981	0.232113	-0.997660
C119	C	1.515654	0.238511	-1.012414
H120	H	1.497585	0.299711	-1.075685
H121	H	1.476595	0.263332	-0.935852
H122	H	1.484376	0.157666	-1.037633
O123	O	1.279099	0.927200	-0.907869
C124	C	1.236721	0.924233	-1.009867
H125	H	1.257462	0.845355	-1.048534
H126	H	1.270567	0.992236	-1.058111
H127	H	1.147870	0.932711	-1.005435
H128	H	0.750141	0.846640	-0.834842
O129	O	1.710637	0.939469	-0.558176
C130	C	1.737355	0.975408	-0.659348
H131	H	1.662890	0.995335	-0.704611
H132	H	1.782414	0.910545	-0.702474
H133	H	1.788366	1.049405	-0.652772
O134	O	1.858361	0.168402	-1.284271
C135	C	1.899981	0.222230	-1.371742
H136	H	1.845745	0.290476	-1.394194
H137	H	1.907128	0.164779	-1.440447
H138	H	1.980725	0.254962	-1.351320
H139	H	0.685447	0.816743	-0.648909
O140	O	1.411739	0.793186	-1.015759
C141	C	1.475339	0.881045	-0.990446
H142	H	1.444702	0.920238	-0.915929
H143	H	1.473388	0.940756	-1.057538
H144	H	1.559351	0.853190	-0.977402
H145	H	1.218378	0.657675	-0.673367
O146	O	1.342706	0.517800	-0.767288
C147	C	1.246276	0.463195	-0.765804
H148	H	1.179286	0.522892	-0.760648
H149	H	1.243626	0.408150	-0.694954
H150	H	1.237941	0.414389	-0.840608
H151	H	0.784927	0.693065	-0.527204
O152	O	1.757789	0.097754	-1.105926
C153	C	1.828105	0.045328	-1.173738
H154	H	1.826903	0.085490	-1.253778
H155	H	1.803630	-0.041264	-1.182498
H156	H	1.910638	0.049365	-1.139774
H157	H	1.818420	0.367387	-1.340096
