data_functionalizedCrystal
_audit_creation_method	'MofGen! by Chris Wilmer'
_symmetry_space_group_name_H-M	'P1'
_symmetry_Int_Tables_number	1
_symmetry_cell_setting	triclinic
loop_
_symmetry_equiv_pos_as_xyz
  x,y,z
_cell_length_a	15.538191
_cell_length_b	17.699091
_cell_length_c	16.776229
_cell_angle_alpha	89.994477
_cell_angle_beta	90.009041
_cell_angle_gamma	114.720915
loop_
_atom_site_label
_atom_site_type_symbol
_atom_site_fract_x
_atom_site_fract_y
_atom_site_fract_z
O1	O	1.250470	0.245970	0.066302
O2	O	1.750470	0.745970	0.566302
O3	O	0.976014	0.158524	0.066300
O4	O	1.476014	0.658524	0.566300
O5	O	1.120992	0.314553	0.066298
O6	O	1.620992	0.814553	0.566298
O7	O	1.105492	0.089940	0.066304
O8	O	1.605492	0.589940	0.566304
O9	O	1.120973	0.314555	-0.066279
O10	O	1.620973	0.814555	0.433721
O11	O	0.975995	0.158526	-0.066277
O12	O	1.475995	0.658526	0.433723
O13	O	1.250451	0.245971	-0.066275
O14	O	1.750451	0.745971	0.433725
Zn15	Zn	1.113220	0.202249	-0.087325
Zn16	Zn	1.613220	0.702249	0.412675
Zn17	Zn	1.113245	0.202247	0.087350
Zn18	Zn	1.613245	0.702247	0.587350
O19	O	1.105472	0.089942	-0.066273
O20	O	1.605472	0.589942	0.433727
C21	C	0.940888	0.149376	0.000011
C22	C	1.440888	0.649376	0.500011
C23	C	0.836253	0.122124	0.000010
C24	C	1.336253	0.622124	0.500010
C25	C	1.120426	0.342599	0.000011
C26	C	1.620426	0.842599	0.500011
C27	C	1.118756	0.426161	0.000013
C28	C	1.618756	0.926161	0.500013
C29	C	0.549073	0.392867	0.000016
C30	C	1.049073	0.892867	0.500016
C31	C	0.450750	0.367240	0.000017
C32	C	0.950750	0.867240	0.500017
C33	C	0.427982	0.223096	0.000021
C34	C	0.927982	0.723096	0.500021
C35	C	0.526305	0.248711	0.000016
C36	C	1.026305	0.748711	0.500016
C37	C	0.586844	0.333597	0.000014
C38	C	1.086844	0.833597	0.500014
C39	C	0.564076	0.189441	0.000014
C40	C	1.064076	0.689441	0.500014
C41	C	0.662391	0.215054	0.000013
C42	C	1.162391	0.715054	0.500013
C43	C	0.722935	0.299937	0.000014
C44	C	1.222935	0.799937	0.500014
C45	C	0.685159	0.359210	0.000013
C46	C	1.185159	0.859210	0.500013
C47	C	0.503535	0.104555	0.000021
C48	C	1.003535	0.604555	0.500021
C49	C	0.541306	0.045285	0.000019
C50	C	1.041306	0.545285	0.500019
C51	C	0.639623	0.070898	0.000012
C52	C	1.139623	0.570898	0.500012
C53	C	0.700167	0.155780	0.000013
C54	C	1.200167	0.655780	0.500013
C55	C	0.677399	0.011624	0.000013
C56	C	1.177399	0.511624	0.500013
C57	C	0.775715	0.037237	0.000012
C58	C	1.275715	0.537237	0.500012
C59	C	0.798483	0.181393	0.000012
C60	C	1.298483	0.681393	0.500012
C61	C	1.117984	0.465413	0.072281
C62	C	1.617984	0.965413	0.572281
C63	C	1.116409	0.543926	0.072282
C64	C	1.616409	1.043926	0.572282
C65	C	1.115613	0.583187	0.000013
C66	C	1.615613	1.083187	0.500013
C67	C	1.116382	0.543928	-0.072261
C68	C	1.616382	1.043928	0.427739
C69	C	1.117950	0.465414	-0.072260
C70	C	1.617950	0.965414	0.427740
C71	C	1.110056	0.860564	-0.072265
C72	C	1.610056	1.360564	0.427735
C73	C	1.108490	0.939085	-0.072260
C74	C	1.608490	1.439085	0.427740
C75	C	1.108515	0.939076	0.072276
C76	C	1.608515	1.439076	0.572276
C77	C	1.110083	0.860562	0.072277
C78	C	1.610083	1.360562	0.572277
C79	C	1.110847	0.821308	0.000004
C80	C	1.610847	1.321308	0.500004
C81	C	1.112553	0.736175	0.000005
C82	C	1.612553	1.236175	0.500005
C83	C	1.113914	0.668321	0.000011
C84	C	1.613914	1.168321	0.500011
C85	C	1.285577	0.255120	0.000016
C86	C	1.785577	0.755120	0.500016
C87	C	1.390212	0.282372	0.000022
C88	C	1.890212	0.782372	0.500022
N89	N	1.113209	0.202253	-0.206536
N90	N	1.613209	0.702253	0.293464
C91	C	1.106039	1.061897	0.000014
C92	C	1.606039	1.561897	0.500014
C93	C	1.107712	0.978336	0.000009
C94	C	1.607712	1.478336	0.500009
C95	C	1.177425	0.271327	-0.248254
C96	C	1.677425	0.771327	0.251746
C97	C	1.177431	0.271329	-0.331706
C98	C	1.677431	0.771329	0.168294
C99	C	1.113224	0.202254	-0.373439
C100	C	1.613224	0.702254	0.126561
C101	C	1.049001	0.133176	-0.331715
C102	C	1.549001	0.633176	0.168285
C103	C	1.048992	0.133177	-0.248265
C104	C	1.548992	0.633177	0.251735
C105	C	1.049035	0.133170	-0.668263
C106	C	1.549035	0.633170	-0.168263
C107	C	1.049051	0.133173	-0.751719
C108	C	1.549051	0.633173	-0.251719
C109	C	1.177474	0.271322	-0.751704
C110	C	1.677474	0.771322	-0.251704
C111	C	1.177465	0.271324	-0.668254
C112	C	1.677465	0.771324	-0.168254
C113	C	1.113239	0.202247	-0.626537
C114	C	1.613239	0.702247	-0.126537
C115	C	1.113233	0.202247	-0.536049
C116	C	1.613233	0.702247	-0.036049
C117	C	1.113234	0.202252	-0.463926
C118	C	1.613234	0.702252	0.036074
N119	N	1.113263	0.202251	0.206561
N120	N	1.613263	0.702251	0.706561
H121	H	0.847777	0.250516	0.000006
H122	H	1.347777	0.750516	0.500006
C123	C	0.610805	-0.081745	0.000025
C124	C	1.110805	0.418255	0.500025
H125	H	0.647382	-0.113377	0.000031
H126	H	1.147382	0.386623	0.500031
H127	H	0.571962	-0.094739	-0.046201
H128	H	1.071962	0.405261	0.453799
H129	H	0.571998	-0.094725	0.046269
H130	H	1.071998	0.405275	0.546269
H131	H	0.734453	0.428333	0.000007
H132	H	1.234453	0.928333	0.500007
C133	C	1.118799	0.422232	-0.151752
C134	C	1.618799	0.922232	0.348248
H135	H	1.119837	0.369846	-0.141402
H136	H	1.619837	0.869846	0.358598
H137	H	1.173481	0.455963	-0.181451
H138	H	1.673481	0.955963	0.318549
H139	H	1.063583	0.414233	-0.181442
H140	H	1.563583	0.914233	0.318558
H141	H	1.229714	0.327574	-0.214281
H142	H	1.729714	0.827574	0.285719
C143	C	1.248065	0.347309	-0.377596
C144	C	1.748065	0.847309	0.122404
H145	H	1.238868	0.337422	-0.433274
H146	H	1.738868	0.837422	0.066726
H147	H	1.310950	0.356336	-0.363909
H148	H	1.810950	0.856336	0.136091
H149	H	1.237939	0.395048	-0.363926
H150	H	1.737939	0.895048	0.136074
C151	C	0.831081	0.328118	0.000014
C152	C	1.331081	0.828118	0.500014
H153	H	0.861724	0.387160	0.000020
H154	H	1.361724	0.887160	0.500020
H155	H	0.849115	0.307295	-0.046217
H156	H	1.349115	0.807295	0.453783
H157	H	0.849125	0.307293	0.046254
H158	H	1.349125	0.807293	0.546254
H159	H	1.115728	0.575898	-0.131103
H160	H	1.615728	1.075898	0.368897
H161	H	1.229751	0.327569	-0.634277
H162	H	1.729751	0.827569	-0.134277
H163	H	0.420002	0.415511	0.000020
H164	H	0.920002	0.915511	0.500020
H165	H	1.229767	0.327570	-0.785679
H166	H	1.729767	0.827570	-0.285679
H167	H	0.598368	0.461990	0.000010
H168	H	1.098368	0.961990	0.500010
H169	H	1.110697	0.828620	-0.131114
H170	H	1.610697	1.328620	0.368886
C171	C	0.978403	0.057196	-0.797624
C172	C	1.478403	0.557196	-0.297624
H173	H	0.940141	0.016062	-0.760828
H174	H	1.440141	0.516062	-0.260828
H175	H	1.012224	0.034958	-0.830171
H176	H	1.512224	0.534958	-0.330171
H177	H	0.939244	0.073702	-0.830185
H178	H	1.439244	0.573702	-0.330185
H179	H	0.423482	0.083704	0.000024
H180	H	0.923482	0.583704	0.500024
H181	H	0.378678	0.153982	0.000025
H182	H	0.878678	0.653982	0.500025
C183	C	0.474714	-0.048084	0.000024
C184	C	0.974714	0.451916	0.500024
H185	H	0.511293	-0.079714	0.000028
H186	H	1.011293	0.420286	0.500028
H187	H	0.435875	-0.061074	-0.046206
H188	H	0.935875	0.438926	0.453794
H189	H	0.435902	-0.061071	0.046265
H190	H	0.935902	0.438929	0.546265
H191	H	0.806467	-0.011026	0.000003
H192	H	1.306467	0.488974	0.500003
C193	C	1.110955	0.817378	0.151772
C194	C	1.610955	1.317378	0.651772
H195	H	1.110260	0.851997	0.194814
H196	H	1.610260	1.351997	0.694814
H197	H	1.166510	0.807611	0.154780
H198	H	1.666510	1.307611	0.654780
H199	H	1.056613	0.765883	0.154772
H200	H	1.556613	1.265883	0.654772
C201	C	0.978398	0.057186	-0.622385
C202	C	1.478398	0.557186	-0.122385
H203	H	0.940170	0.016045	-0.659194
H204	H	1.440170	0.516045	-0.159194
H205	H	0.939219	0.073665	-0.589843
H206	H	1.439219	0.573665	-0.089843
H207	H	1.012232	0.034956	-0.589820
H208	H	1.512232	0.534956	-0.089820
H209	H	0.996718	0.076935	-0.365699
H210	H	1.496718	0.576935	0.134301
C211	C	0.978358	0.057194	-0.202375
C212	C	1.478358	0.557194	0.297625
H213	H	0.940126	0.016051	-0.239180
H214	H	1.440126	0.516051	0.260820
H215	H	0.939183	0.073677	-0.169832
H216	H	1.439183	0.573677	0.330168
H217	H	1.012193	0.034965	-0.169810
H218	H	1.512193	0.534965	0.330190
H219	H	1.118638	0.433454	0.131131
H220	H	1.618638	0.933454	0.631131
C221	C	1.115544	0.587094	0.151776
C222	C	1.615544	1.087094	0.651776
H223	H	1.116248	0.552469	0.194816
H224	H	1.616248	1.052469	0.694816
H225	H	1.059980	0.596847	0.154774
H226	H	1.559980	1.096847	0.654774
H227	H	1.169877	0.638594	0.154789
H228	H	1.669877	1.138594	0.654789
H229	H	1.107888	0.971045	0.131125
H230	H	1.607888	1.471045	0.631125
C231	C	1.107603	0.982266	-0.151759
C232	C	1.607603	1.482266	0.348241
H233	H	1.108272	0.947640	-0.194803
H234	H	1.608272	1.447640	0.305197
H235	H	1.161935	1.033760	-0.154769
H236	H	1.661935	1.533760	0.345231
H237	H	1.052038	0.992026	-0.154754
H238	H	1.552038	1.492026	0.345246
