data_functionalizedCrystal
_audit_creation_method	'MofGen! by Chris Wilmer'
_symmetry_space_group_name_H-M	'P1'
_symmetry_Int_Tables_number	1
_symmetry_cell_setting	triclinic
loop_
_symmetry_equiv_pos_as_xyz
  x,y,z
_cell_length_a	14.519731
_cell_length_b	14.519709
_cell_length_c	13.330367
_cell_angle_alpha	89.994415
_cell_angle_beta	89.992354
_cell_angle_gamma	83.684499
loop_
_atom_site_label
_atom_site_type_symbol
_atom_site_fract_x
_atom_site_fract_y
_atom_site_fract_z
O1	O	1.223860	0.120984	-0.083428
O2	O	0.955385	0.135200	-0.083430
O3	O	1.096741	-0.006146	-0.083420
O4	O	1.082504	0.262330	-0.083438
O5	O	1.096720	-0.006149	0.083427
O6	O	0.955365	0.135197	0.083417
O7	O	1.223839	0.120981	0.083419
Cu8	Cu	1.089600	0.128089	0.098653
Cu9	Cu	1.089624	0.128092	-0.098663
O10	O	1.082484	0.262327	0.083409
C11	C	0.921016	0.134532	-0.000006
C12	C	0.818635	0.132536	-0.000007
C13	C	0.735491	0.130915	-0.000011
C14	C	0.631182	0.128888	-0.000011
C15	C	0.548043	0.127280	-0.000011
C16	C	0.443728	0.125253	-0.000013
C17	C	1.096067	-0.040507	0.000004
C18	C	1.094079	-0.142889	0.000005
C19	C	1.086759	-0.517785	-0.000022
C20	C	1.088792	-0.413477	-0.000014
C21	C	1.090419	-0.330340	-0.000008
C22	C	1.092452	-0.226025	-0.000002
C23	C	1.258209	0.121649	-0.000006
C24	C	1.360589	0.123645	-0.000013
C25	C	1.083157	0.296688	-0.000017
C26	C	1.085146	0.399070	-0.000024
N27	N	1.089590	0.128085	0.237434
N28	N	1.089642	0.128088	-0.237445
C29	C	1.027029	0.190656	0.710053
C30	C	1.152244	0.065522	0.710030
C31	C	1.152234	0.065519	0.605011
C32	C	1.089621	0.128086	0.552509
C33	C	1.027019	0.190657	0.605025
C34	C	1.214841	0.002956	0.552488
C35	C	1.214834	0.002952	0.447463
C36	C	1.152216	0.065515	0.394958
C37	C	1.089611	0.128087	0.447481
C38	C	1.026998	0.190655	0.394978
C39	C	0.964387	0.253223	0.447499
C40	C	0.964401	0.253220	0.552520
C41	C	1.152202	0.065518	0.289937
C42	C	1.026988	0.190656	0.289950
H43	H	0.975997	0.241603	0.247209
O44	O	0.959514	0.258146	0.766697
H45	H	0.915976	0.301651	0.712541
O46	O	0.896855	0.320711	0.390874
H47	H	0.824951	0.308792	0.411054
O48	O	0.896889	0.320712	0.609167
H49	H	0.852017	0.281792	0.657045
H50	H	1.203226	0.014586	0.752780
O51	O	1.282372	-0.064523	0.609109
H52	H	1.271852	-0.054018	0.690961
H53	H	1.265813	-0.047995	0.404707
H54	H	1.203183	0.014580	0.247179
