data_functionalizedCrystal
_audit_creation_method	'MofGen! by Chris Wilmer'
_symmetry_space_group_name_H-M	'P1'
_symmetry_Int_Tables_number	1
_symmetry_cell_setting	triclinic
loop_
_symmetry_equiv_pos_as_xyz
  x,y,z
_cell_length_a	12.827892
_cell_length_b	12.827893
_cell_length_c	17.077396
_cell_angle_alpha	89.980660
_cell_angle_beta	90.024877
_cell_angle_gamma	89.986588
loop_
_atom_site_label
_atom_site_type_symbol
_atom_site_fract_x
_atom_site_fract_y
_atom_site_fract_z
Zn1	Zn	-0.416088	-1.597652	0.443859
Zn2	Zn	-0.590851	-1.597552	0.312601
Zn3	Zn	-0.416118	-1.422899	0.312607
Zn4	Zn	-0.590782	-1.422879	0.443825
O5	O	-0.503460	-1.510246	0.378223
O6	O	-0.439287	-1.743875	0.426459
O7	O	-0.567713	-1.574350	0.202755
O8	O	-0.269878	-1.446131	0.330035
O9	O	-0.567684	-1.743801	0.330024
O10	O	-0.269856	-1.574522	0.426465
O11	O	-0.439338	-1.446033	0.202760
O12	O	-0.439271	-1.276660	0.330002
O13	O	-0.567567	-1.446097	0.553677
O14	O	-0.567596	-1.276646	0.426407
O15	O	-0.439220	-1.574502	0.553701
O16	O	-0.737078	-1.574330	0.329992
O17	O	-0.737027	-1.445999	0.426401
C18	C	-0.774970	-1.510180	0.378209
C19	C	-0.891123	-1.510248	0.378230
C20	C	-0.503430	-1.238736	0.378202
C21	C	-0.503443	-1.122583	0.378212
C22	C	-0.503383	-1.510309	0.582968
C23	C	-0.503350	-1.510336	0.670217
C24	C	-0.942898	-1.573826	0.330576
C25	C	-1.062948	-1.573897	0.330596
C26	C	-0.230890	-1.510340	0.378254
C27	C	-0.114736	-1.510380	0.378268
C28	C	-0.566878	-1.070761	0.330428
C29	C	-0.566893	-0.950711	0.330437
C30	C	-0.503481	-0.782816	0.378239
C31	C	-0.503469	-0.898969	0.378229
C32	C	-0.503461	-1.510243	0.174275
C33	C	-0.503199	-1.510418	0.087026
C34	C	-0.436514	-1.577199	0.711222
C35	C	-0.436479	-1.577211	0.793202
C36	C	-0.503286	-1.510365	0.834177
C37	C	-0.570125	-1.443495	0.793167
C38	C	-0.570154	-1.443478	0.711188
C39	C	-0.570062	-1.443537	0.964037
C40	C	-0.570035	-1.443555	1.046022
C41	C	-0.436388	-1.577270	1.046051
C42	C	-0.436417	-1.577253	0.964072
C43	C	-0.503257	-1.510384	0.923068
H44	H	-0.898350	-1.628209	0.289766
C45	C	-0.951295	-1.436781	0.433369
C46	C	-0.936306	-1.445217	0.522619
C47	C	-0.996475	-1.371747	0.577760
C48	C	-1.071635	-1.289843	0.543651
C49	C	-1.086628	-1.281404	0.454396
C50	C	-1.026458	-1.354873	0.399255
H51	H	-0.880665	-1.505850	0.547873
H52	H	-0.985376	-1.377995	0.643833
H53	H	-1.116176	-1.235456	0.584470
H54	H	-1.142269	-1.220770	0.429142
H55	H	-1.037558	-1.348626	0.333182
C56	C	-0.640267	-0.890517	0.275167
C57	C	-0.594822	-0.815424	0.213654
C58	C	-0.668199	-0.755228	0.158382
C59	C	-0.787019	-0.770123	0.164624
C60	C	-0.832470	-0.845219	0.226141
C61	C	-0.759094	-0.905416	0.281412
H62	H	-0.506858	-0.804395	0.209031
H63	H	-0.634552	-0.699637	0.112844
H64	H	-0.841337	-0.725562	0.123709
H65	H	-0.920434	-0.856248	0.230764
H66	H	-0.792740	-0.961006	0.326951
H67	H	-0.449152	-0.943527	0.419137
C68	C	-0.643630	-1.369971	0.838230
C69	C	-0.635111	-1.251171	0.826947
C70	C	-0.708628	-1.177653	0.872005
C71	C	-0.790665	-1.222933	0.928346
C72	C	-0.799188	-1.341739	0.939631
C73	C	-0.725671	-1.415258	0.894573
H74	H	-0.574379	-1.217647	0.785238
H75	H	-0.702318	-1.089704	0.863650
H76	H	-0.845087	-1.168510	0.961700
H77	H	-0.859920	-1.375264	0.981340
H78	H	-0.731980	-1.503206	0.902928
H79	H	-1.070219	-1.455941	0.419065
H80	H	-0.449148	-1.078072	0.419130
H81	H	-0.621180	-1.115272	0.289515
C82	C	-0.363024	-1.650731	0.666153
C83	C	-0.244221	-1.642243	0.677438
C84	C	-0.170726	-1.715775	0.632372
C85	C	-0.216034	-1.797795	0.576020
C86	C	-0.334843	-1.806287	0.564733
C87	C	-0.408338	-1.732755	0.609799
H88	H	-0.210676	-1.581524	0.719155
H89	H	-0.082775	-1.709488	0.640728
H90	H	-0.161629	-1.852228	0.542659
H91	H	-0.368389	-1.867006	0.523016
H92	H	-0.496289	-1.739042	0.601443
H93	H	-0.382058	-1.631660	0.826584
H94	H	-0.382022	-1.631691	0.930713
H95	H	-0.381962	-1.631716	1.079441
C96	C	-0.643558	-1.370062	1.091096
C97	C	-0.717102	-1.296530	1.045997
C98	C	-0.790646	-1.223056	1.091072
C99	C	-0.790646	-1.223114	1.181245
C100	C	-0.717100	-1.296648	1.226349
C101	C	-0.643556	-1.370122	1.181275
H102	H	-0.717104	-1.296484	0.979240
H103	H	-0.845090	-1.168620	1.057682
H104	H	-0.845088	-1.168724	1.214612
H105	H	-0.717098	-1.296694	1.293106
H106	H	-0.589112	-1.424558	1.214664
H107	H	-0.624568	-1.389021	0.677803
H108	H	-0.624474	-1.389069	0.930654
C109	C	-1.123089	-1.647435	0.275477
C110	C	-1.108269	-1.638982	0.186221
C111	C	-1.168412	-1.712523	0.131100
C112	C	-1.243376	-1.794517	0.165234
C113	C	-1.258200	-1.802974	0.254494
C114	C	-1.198057	-1.729433	0.309615
H115	H	-1.052773	-1.578282	0.160949
H116	H	-1.157438	-1.706262	0.065024
H117	H	-1.287898	-1.848957	0.124430
H118	H	-1.313696	-1.863674	0.279766
H119	H	-1.209031	-1.735693	0.375692
