data_functionalizedCrystal
_audit_creation_method	'MofGen! by Chris Wilmer'
_symmetry_space_group_name_H-M	'P1'
_symmetry_Int_Tables_number	1
_symmetry_cell_setting	triclinic
loop_
_symmetry_equiv_pos_as_xyz
  x,y,z
_cell_length_a	17.000371
_cell_length_b	17.019294
_cell_length_c	13.596369
_cell_angle_alpha	86.115041
_cell_angle_beta	89.994129
_cell_angle_gamma	79.505866
loop_
_atom_site_label
_atom_site_type_symbol
_atom_site_fract_x
_atom_site_fract_y
_atom_site_fract_z
O1	O	1.056071	0.028428	-0.084203
O2	O	0.824306	0.057061	-0.086628
O3	O	0.946654	-0.072537	-0.075647
O4	O	0.933723	0.158026	-0.095184
O5	O	0.946642	-0.072543	0.087936
O6	O	0.824294	0.057055	0.076955
O7	O	1.056059	0.028423	0.079381
Zn8	Zn	0.940174	0.042738	0.104140
Zn9	Zn	0.940190	0.042745	-0.111388
O10	O	0.933711	0.158020	0.068399
C11	C	0.794644	0.058596	-0.004967
C12	C	0.706281	0.063169	-0.005355
C13	C	0.946157	-0.101895	0.008630
C14	C	0.944686	-0.189363	0.016035
C15	C	0.674335	-0.007205	0.000610
C16	C	0.591307	-0.002903	0.000239
C17	C	0.540226	0.071773	-0.006091
C18	C	0.572177	0.142152	-0.012059
C19	C	0.655204	0.137849	-0.011695
C20	C	0.289062	0.088391	-0.007506
C21	C	0.206030	0.092688	-0.007867
C22	C	0.225166	-0.052367	0.004429
C23	C	0.308193	-0.056663	0.004799
C24	C	0.340136	0.013716	-0.001174
C25	C	0.455358	0.076171	-0.006468
C26	C	0.425003	0.009316	-0.000804
C27	C	0.944004	-0.230449	-0.069654
C28	C	0.942616	-0.312634	-0.062693
C29	C	0.941918	-0.353733	0.029959
C30	C	0.942598	-0.312641	0.115655
C31	C	0.943979	-0.230457	0.108693
C32	C	0.937741	-0.601877	0.055442
C33	C	0.936361	-0.684068	0.062398
C34	C	0.936378	-0.684054	-0.115951
C35	C	0.937765	-0.601869	-0.122905
C36	C	0.938441	-0.560784	-0.037209
C37	C	0.940502	-0.437740	0.037077
C38	C	0.939851	-0.476777	-0.044328
C39	C	1.085721	0.026888	-0.002283
C40	C	1.174084	0.022315	-0.001902
C41	C	0.934208	0.187378	-0.015880
C42	C	0.935679	0.274847	-0.023292
N43	N	0.940169	0.042732	0.251232
N44	N	0.940202	0.042745	-0.258480
C45	C	0.940189	0.042746	0.652522
C46	C	0.940181	0.042745	0.540871
C47	C	0.940180	0.042740	0.451881
C48	C	0.940171	0.042738	0.340223
H49	H	0.565301	-0.060209	0.005095
O50	O	0.405655	0.148663	-0.012733
C51	C	0.357078	0.155501	-0.098047
H52	H	0.352956	0.093176	-0.121018
H53	H	0.294640	0.189211	-0.081847
H54	H	0.384354	0.189645	-0.160260
O55	O	0.357697	-0.129269	0.010911
C56	C	0.311696	-0.190463	0.016125
H57	H	0.249711	-0.166137	-0.016913
H58	H	0.342382	-0.242432	-0.026956
H59	H	0.305797	-0.212302	0.096456
H60	H	0.715920	-0.068015	0.005769
H61	H	0.199148	-0.109666	0.009282
H62	H	0.944577	-0.196993	-0.145101
H63	H	0.164441	0.153502	-0.013017
O64	O	0.944667	-0.190671	0.192030
C65	C	0.943729	-0.244562	0.275301
H66	H	0.967947	-0.308156	0.254554
H67	H	0.982736	-0.228497	0.336316
H68	H	0.879747	-0.240609	0.302367
H69	H	0.530581	0.202955	-0.017219
O70	O	0.319953	0.156833	-0.013261
C71	C	0.257061	0.223663	-0.018944
H72	H	0.200681	0.205461	0.013568
H73	H	0.274353	0.273143	0.024357
H74	H	0.245293	0.246425	-0.099351
H75	H	0.935827	-0.717515	-0.185720
O76	O	0.474700	-0.063175	0.005209
C77	C	0.523290	-0.070009	-0.078946
H78	H	0.527417	-0.007682	-0.112479
H79	H	0.585724	-0.103721	-0.057033
H80	H	0.496022	-0.104148	-0.135373
O81	O	0.942026	-0.352436	-0.146029
C82	C	0.942942	-0.298539	-0.229298
H83	H	0.969084	-0.244957	-0.207674
H84	H	0.981211	-0.329964	-0.288974
H85	H	0.879272	-0.277113	-0.258578
H86	H	0.938307	-0.568438	0.125222
H87	H	0.939936	-0.471212	0.112514
H88	H	0.938335	-0.568412	-0.198352
H89	H	0.681212	0.195155	-0.016547
H90	H	0.935788	-0.717527	0.137850
H91	H	0.942024	-0.346110	0.191094
O92	O	0.940414	-0.436753	-0.134278
C93	C	0.872292	-0.375521	-0.144805
H94	H	0.849524	-0.358644	-0.068810
H95	H	0.888754	-0.320807	-0.187182
H96	H	0.823512	-0.397596	-0.186935
