data_functionalizedCrystal
_audit_creation_method	'MofGen! by Chris Wilmer'
_symmetry_space_group_name_H-M	'P1'
_symmetry_Int_Tables_number	1
_symmetry_cell_setting	triclinic
loop_
_symmetry_equiv_pos_as_xyz
  x,y,z
_cell_length_a	17.077404
_cell_length_b	12.645330
_cell_length_c	17.077396
_cell_angle_alpha	89.975148
_cell_angle_beta	89.980499
_cell_angle_gamma	90.012610
loop_
_atom_site_label
_atom_site_type_symbol
_atom_site_fract_x
_atom_site_fract_y
_atom_site_fract_z
Zn1	Zn	1.200112	-0.422033	-0.443863
Zn2	Zn	1.200043	-0.599318	-0.312605
Zn3	Zn	1.068844	-0.422070	-0.312610
Zn4	Zn	1.068836	-0.599256	-0.443828
O5	O	1.134459	-0.510669	-0.378227
O6	O	1.309950	-0.445561	-0.426463
O7	O	1.182614	-0.575848	-0.202759
O8	O	1.086289	-0.273718	-0.330038
O9	O	1.309899	-0.575812	-0.330028
O10	O	1.182731	-0.273691	-0.426468
O11	O	1.086222	-0.445624	-0.202763
O12	O	0.958996	-0.445563	-0.330005
O13	O	1.086275	-0.575705	-0.553680
O14	O	0.958990	-0.575741	-0.426410
O15	O	1.182723	-0.445500	-0.553705
O16	O	1.182606	-0.747657	-0.329995
O17	O	1.086209	-0.747611	-0.426405
C18	C	0.930511	-0.510650	-0.378205
C19	C	0.843261	-0.510667	-0.378214
C20	C	0.802288	-0.578553	-0.428332
C21	C	0.720308	-0.578555	-0.428345
C22	C	0.679302	-0.510677	-0.378235
C23	C	0.720280	-0.442783	-0.328115
C24	C	0.802259	-0.442777	-0.328107
C25	C	0.549410	-0.442804	-0.328134
C26	C	0.467425	-0.442812	-0.328141
C27	C	0.467459	-0.578583	-0.428371
C28	C	0.549438	-0.578576	-0.428363
C29	C	0.590411	-0.510684	-0.378242
C30	C	1.134420	-0.786099	-0.378213
C31	C	1.134476	-0.903929	-0.378233
C32	C	1.195189	-0.948795	-0.317634
C33	C	1.195049	-1.071356	-0.317418
C34	C	1.051754	-1.071936	-0.356004
C35	C	1.052066	-0.949338	-0.355543
C36	C	1.155844	-0.949010	-0.461259
C37	C	1.157709	-1.071615	-0.460838
C38	C	1.339203	-0.510689	-0.378249
C39	C	1.426453	-0.510698	-0.378258
C40	C	1.134506	-0.510591	-0.582971
C41	C	1.134526	-0.510558	-0.670221
C42	C	1.134519	-0.234164	-0.378258
C43	C	1.134544	-0.116334	-0.378271
C44	C	1.184749	-0.442755	-0.711225
C45	C	1.184758	-0.442719	-0.793206
C46	C	1.134549	-0.510493	-0.834180
C47	C	1.084321	-0.578300	-0.793170
C48	C	1.084308	-0.578329	-0.711191
C49	C	1.084352	-0.578236	-0.964040
C50	C	1.084366	-0.578208	-1.046025
C51	C	1.184802	-0.442626	-1.046055
C52	C	1.184790	-0.442656	-0.964076
C53	C	1.134563	-0.510464	-0.923071
C54	C	1.134456	-0.510671	-0.174279
C55	C	1.134588	-0.510405	-0.087029
H56	H	1.256433	-1.101371	-0.331326
O57	O	1.030160	-0.651391	-0.837364
H58	H	1.043593	-0.734600	-0.821618
H59	H	1.043440	-0.633436	-0.930657
O60	O	1.276732	-0.909658	-0.335820
H61	H	1.299520	-0.864264	-0.285093
H62	H	0.835618	-0.387492	-0.287300
O63	O	0.423274	-0.651805	-0.482439
H64	H	0.359380	-0.640398	-0.474037
O65	O	1.028132	-0.911551	-0.275159
H66	H	1.016448	-0.980842	-0.236981
H67	H	1.033380	-1.102720	-0.295998
O68	O	0.593665	-0.651784	-0.482414
H69	H	0.630991	-0.705660	-0.447210
H70	H	1.225679	-0.387474	-0.930717
O71	O	0.423192	-0.369592	-0.274104
H72	H	0.465453	-0.322367	-0.239260
H73	H	0.582767	-0.387510	-0.287327
H74	H	1.225638	-0.387568	-0.677870
O75	O	1.238929	-0.369589	-0.837431
H76	H	1.278855	-0.417031	-0.874788
O77	O	1.238971	-0.369478	-1.090274
H78	H	1.230539	-0.380829	-1.154163
H79	H	0.686886	-0.387511	-0.287318
H80	H	1.181203	-0.918058	-0.256467
H81	H	1.043479	-0.633394	-1.079384
O82	O	1.176311	-1.110322	-0.235949
H83	H	1.167306	-1.041599	-0.196554
H84	H	1.005279	-0.919661	-0.397772
H85	H	1.005304	-1.101072	-0.398796
H86	H	1.215166	-0.918011	-0.481550
O87	O	1.103460	-1.112152	-0.523850
H88	H	1.073829	-1.044341	-0.552575
O89	O	1.238101	-1.110857	-0.483421
H90	H	1.261508	-1.161897	-0.436003
H91	H	1.043404	-0.633530	-0.677806
H92	H	0.835670	-0.633831	-0.469135
H93	H	0.686952	-0.633836	-0.469155
H94	H	1.111629	-0.919989	-0.506408
