data_functionalizedCrystal
_audit_creation_method	'MofGen! by Chris Wilmer'
_symmetry_space_group_name_H-M	'P1'
_symmetry_Int_Tables_number	1
_symmetry_cell_setting	triclinic
loop_
_symmetry_equiv_pos_as_xyz
  x,y,z
_cell_length_a	17.038272
_cell_length_b	17.038272
_cell_length_c	15.021413
_cell_angle_alpha	90.004029
_cell_angle_beta	89.997778
_cell_angle_gamma	91.111556
loop_
_atom_site_label
_atom_site_type_symbol
_atom_site_fract_x
_atom_site_fract_y
_atom_site_fract_z
O1	O	1.048758	0.170527	-0.073921
O2	O	0.820947	0.167819	-0.073948
O3	O	0.933499	0.055267	-0.073928
O4	O	0.936206	0.283078	-0.073941
O5	O	0.933480	0.055283	0.074137
O6	O	0.820929	0.167835	0.074117
O7	O	1.048740	0.170543	0.074143
Zn8	Zn	0.934832	0.169191	0.097638
Zn9	Zn	0.934855	0.169170	-0.097443
O10	O	0.936188	0.283094	0.074123
C11	C	0.791645	0.165364	0.000081
C12	C	0.704361	0.158016	0.000071
C13	C	0.658752	0.225479	0.000068
C14	C	0.576740	0.218570	0.000081
C15	C	0.540339	0.144197	0.000090
C16	C	0.585954	0.076728	0.000096
C17	C	0.667965	0.083638	0.000090
C18	C	0.292951	0.119787	0.000116
C19	C	0.210935	0.112882	0.000119
C20	C	0.201726	0.254725	0.000105
C21	C	0.283739	0.261628	0.000094
C22	C	0.329347	0.194159	0.000104
C23	C	0.456510	0.137133	0.000101
C24	C	0.413174	0.201224	0.000100
C25	C	0.931027	0.025982	0.000104
C26	C	0.923679	-0.061301	0.000103
C27	C	0.991142	-0.106911	0.000112
C28	C	0.984233	-0.188923	0.000102
C29	C	0.909860	-0.225324	0.000091
C30	C	0.842391	-0.179708	0.000080
C31	C	0.849301	-0.097698	0.000082
C32	C	0.885449	-0.472712	0.000076
C33	C	0.878545	-0.554728	0.000076
C34	C	1.020387	-0.563937	0.000097
C35	C	1.027291	-0.481924	0.000105
C36	C	0.959822	-0.436316	0.000089
C37	C	0.902796	-0.309153	0.000084
C38	C	0.966886	-0.352488	0.000089
C39	C	1.078042	0.172997	0.000112
C40	C	1.165326	0.180346	0.000116
C41	C	0.938660	0.312379	0.000089
C42	C	0.946008	0.399663	0.000084
N43	N	0.934821	0.169205	0.230776
N44	N	0.934872	0.169150	-0.230581
C45	C	0.882767	0.221223	0.470450
C46	C	0.954743	0.241185	0.529791
C47	C	0.934840	0.169187	0.412383
C48	C	0.862884	0.149244	0.529783
C49	C	0.934852	0.169171	0.587807
C50	C	1.006854	0.189187	0.470418
C51	C	0.914946	0.097212	0.470404
C52	C	0.986972	0.117147	0.529719
C53	C	0.934832	0.169198	0.311325
C54	C	0.934868	0.169159	0.688862
H55	H	0.330076	0.064848	0.000125
O56	O	0.762174	-0.218969	0.000077
H57	H	0.755640	-0.256124	-0.060265
H58	H	0.556310	0.016172	0.000117
H59	H	1.087853	-0.452293	0.000115
O60	O	0.824505	0.279565	0.435972
H61	H	0.764954	0.263561	0.460781
H62	H	0.817978	-0.584363	0.000081
O63	O	1.057003	-0.238109	0.000118
H64	H	1.057268	-0.275688	-0.060237
O65	O	0.822582	-0.348420	0.000091
H66	H	0.816049	-0.385573	-0.060254
H67	H	0.898089	0.036368	0.444298
H68	H	0.313370	0.322190	0.000075
H69	H	0.539608	0.273507	0.000077
H70	H	0.971580	0.302046	0.555877
O71	O	0.812683	-0.423524	0.000081
H72	H	0.759809	-0.462617	0.000089
H73	H	0.164583	0.309653	0.000098
H74	H	0.802027	0.132383	0.555862
O75	O	0.171675	0.032659	0.000137
H76	H	0.134526	0.026137	0.060485
H77	H	0.705099	0.028702	0.000092
H78	H	1.031065	0.073136	0.555579
H79	H	1.067729	0.206120	0.444451
O80	O	0.776534	-0.048505	0.000077
H81	H	0.793832	0.014637	0.000072
H82	H	0.688384	0.286042	0.000059
H83	H	0.426863	0.076578	0.000134
O84	O	0.452431	0.281439	0.000098
H85	H	0.434480	0.314117	-0.060249
O86	O	1.071362	-0.067655	0.000114
H87	H	1.104042	-0.085607	0.060459
O88	O	1.093156	-0.613126	0.000108
H89	H	1.075860	-0.676268	0.000098
H90	H	1.027441	-0.322847	0.000079
