data_functionalizedCrystal
_audit_creation_method	'MofGen! by Chris Wilmer'
_symmetry_space_group_name_H-M	'P1'
_symmetry_Int_Tables_number	1
_symmetry_cell_setting	triclinic
loop_
_symmetry_equiv_pos_as_xyz
  x,y,z
_cell_length_a	10.723022
_cell_length_b	10.723024
_cell_length_c	9.130313
_cell_angle_alpha	89.996649
_cell_angle_beta	89.996784
_cell_angle_gamma	84.467548
loop_
_atom_site_label
_atom_site_type_symbol
_atom_site_fract_x
_atom_site_fract_y
_atom_site_fract_z
O1	O	1.657188	0.175018	-0.121786
O2	O	2.157188	0.675018	0.378214
O3	O	1.294035	0.191773	-0.121790
O4	O	1.794035	0.691773	0.378210
O5	O	1.483988	0.001819	-0.121783
O6	O	1.983988	0.501819	0.378217
O7	O	1.467235	0.364972	-0.121794
O8	O	1.967235	0.864972	0.378206
O9	O	1.483975	0.001814	0.121816
O10	O	1.983975	0.501814	0.621816
O11	O	1.294022	0.191767	0.121808
O12	O	1.794022	0.691767	0.621808
O13	O	1.657175	0.175012	0.121813
O14	O	2.157175	0.675012	0.621813
Cu15	Cu	1.475597	0.183389	0.144053
Cu16	Cu	1.975597	0.683389	0.644053
Cu17	Cu	1.475613	0.183396	-0.144031
Cu18	Cu	1.975613	0.683396	0.355969
O19	O	1.467222	0.364966	0.121805
O20	O	1.967222	0.864966	0.621805
C21	C	1.247529	0.190551	0.000008
C22	C	1.747529	0.690551	0.500008
C23	C	1.108975	0.186904	0.000007
C24	C	1.608975	0.686904	0.500007
C25	C	0.890796	0.289421	0.000001
C26	C	1.390796	0.789421	0.500001
C27	C	1.033999	0.293192	0.000002
C28	C	1.533999	0.793192	0.500002
C29	C	1.482763	-0.044683	0.000015
C30	C	1.982763	0.455317	0.500015
C31	C	1.479115	-0.183238	0.000010
C32	C	1.979115	0.316762	0.500010
C33	C	1.585403	-0.258221	0.000009
C34	C	2.085403	0.241779	0.500009
C35	C	1.581635	-0.401424	0.000004
C36	C	2.081635	0.098576	0.500004
C37	C	1.703681	0.176234	0.000011
C38	C	2.203681	0.676234	0.500011
C39	C	1.842235	0.179881	0.000003
C40	C	2.342235	0.679881	0.500003
C41	C	1.468448	0.411468	0.000004
C42	C	1.968448	0.911468	0.500004
C43	C	1.472095	0.550023	-0.000000
C44	C	1.972095	1.050023	0.500000
N45	N	1.475595	0.183384	0.346676
N46	N	1.975595	0.683384	0.846676
N47	N	1.475624	0.183391	-0.346653
N48	N	1.975624	0.683391	0.153347
C49	C	1.559735	0.099308	0.423331
C50	C	2.059735	0.599308	0.923331
C51	C	1.559747	0.099308	0.576668
C52	C	2.059747	0.599308	1.076668
C53	C	1.391476	0.267471	0.576681
C54	C	1.891476	0.767471	1.076681
C55	C	1.391459	0.267464	0.423347
C56	C	1.891459	0.767464	0.923347
H57	H	0.826354	0.380409	-0.000012
H58	H	1.326354	0.880409	0.499988
H59	H	1.672625	-0.465857	0.000010
H60	H	2.172625	0.034143	0.500010
H61	H	1.381100	-0.385552	0.000010
H62	H	1.881100	0.114448	0.500010
F63	F	1.356525	-0.237894	-0.000005
F64	F	1.856525	0.262106	0.499995
H65	H	1.628243	0.030843	0.360909
H66	H	2.128243	0.530843	0.860909
H67	H	1.628260	0.030845	0.639077
H68	H	2.128260	0.530845	1.139077
H69	H	1.679188	-0.216399	0.000019
H70	H	2.179188	0.283601	0.500019
H71	H	1.075811	0.386980	0.000009
H72	H	1.575811	0.886980	0.500009
F73	F	1.301896	0.356948	0.341758
F74	F	1.801896	0.856948	0.841758
H75	H	1.067171	0.093113	-0.000030
H76	H	1.567171	0.593113	0.499970
H77	H	0.906678	0.088892	-0.000003
H78	H	1.406678	0.588892	0.499997
H79	H	1.322975	0.335929	0.639121
H80	H	1.822975	0.835929	1.139121
