data_functionalizedCrystal
_audit_creation_method	'MofGen! by Chris Wilmer'
_symmetry_space_group_name_H-M	'P1'
_symmetry_Int_Tables_number	1
_symmetry_cell_setting	triclinic
loop_
_symmetry_equiv_pos_as_xyz
  x,y,z
_cell_length_a	6.817900
_cell_length_b	14.858329
_cell_length_c	14.125465
_cell_angle_alpha	95.625660
_cell_angle_beta	100.398878
_cell_angle_gamma	104.519616
loop_
_atom_site_label
_atom_site_type_symbol
_atom_site_fract_x
_atom_site_fract_y
_atom_site_fract_z
V1	V	-3.996446	-0.127871	-0.300249
O2	O	-3.979229	0.006967	-0.294251
O3	O	-3.953274	-0.254337	-0.298467
O4	O	-3.932494	-0.125543	-0.431074
O5	O	-4.000152	-0.122719	-0.160726
V6	V	-4.481411	-0.111785	-0.283528
O7	O	-4.254540	-0.163156	-0.336928
O8	O	-4.673514	-0.076500	-0.246849
O9	O	-4.301376	0.014681	-0.285310
O10	O	-4.616025	-0.246623	-0.289526
O11	O	-4.595101	-0.116938	-0.423051
O12	O	-4.322156	-0.114113	-0.152703
C13	C	-3.800050	-0.285178	-0.293800
C14	C	-3.845936	-0.388563	-0.293215
C15	C	-3.883195	-0.472522	-0.292731
C16	C	-3.929957	-0.577854	-0.292128
C17	C	-3.967243	-0.661807	-0.291649
C18	C	-4.014008	-0.767145	-0.291045
C19	C	-3.773542	-0.120887	-0.462953
C20	C	-3.802573	-0.119821	-0.569905
C21	C	-3.855785	-0.117866	-0.765724
C22	C	-4.041440	-0.121788	-0.818053
C23	C	-4.071050	-0.120700	-0.927014
C24	C	-3.826168	-0.118954	-0.656753
C25	C	-4.117942	0.045517	-0.289974
C26	C	-4.051294	0.148901	-0.290565
C27	C	-4.144450	-0.118772	-0.120819
C28	C	-4.094658	-0.119833	-0.013866
H29	H	-4.178151	-0.125973	-0.781024
H30	H	-3.719091	-0.113692	-0.802752
