data_functionalizedCrystal
_audit_creation_method	'MofGen! by Chris Wilmer'
_symmetry_space_group_name_H-M	'P1'
_symmetry_Int_Tables_number	1
_symmetry_cell_setting	triclinic
loop_
_symmetry_equiv_pos_as_xyz
  x,y,z
_cell_length_a	16.992694
_cell_length_b	10.654550
_cell_length_c	15.455313
_cell_angle_alpha	92.692163
_cell_angle_beta	87.142206
_cell_angle_gamma	87.576563
loop_
_atom_site_label
_atom_site_type_symbol
_atom_site_fract_x
_atom_site_fract_y
_atom_site_fract_z
O1	O	1.045244	0.261289	-0.072018
O2	O	0.816944	0.258364	-0.072044
O3	O	0.936343	0.077541	-0.072027
O4	O	0.925845	0.442112	-0.072035
O5	O	0.929515	0.087836	0.072234
O6	O	0.810116	0.268659	0.072217
O7	O	1.038416	0.271584	0.072243
Cu8	Cu	0.923642	0.271061	0.085402
Cu9	Cu	0.931717	0.258886	-0.085203
O10	O	0.919017	0.452406	0.072226
C11	C	0.784297	0.259751	0.000083
C12	C	0.697192	0.248531	0.000074
C13	C	0.647540	0.356782	0.000072
C14	C	0.565696	0.346233	0.000084
C15	C	0.533505	0.227433	0.000092
C16	C	0.583163	0.119174	0.000096
C17	C	0.665006	0.129724	0.000090
C18	C	0.289668	0.183707	0.000116
C19	C	0.207819	0.173165	0.000119
C20	C	0.190358	0.400226	0.000109
C21	C	0.272203	0.410765	0.000098
C22	C	0.321854	0.302507	0.000107
N23	N	0.449847	0.216648	0.000102
N24	N	0.405510	0.313293	0.000103
C25	C	0.932158	0.035824	0.000102
C26	C	0.929852	-0.103819	0.000099
C27	C	1.000152	-0.177229	0.000109
C28	C	0.997980	-0.308438	0.000103
C29	C	0.855203	-0.292815	0.000079
C30	C	0.857375	-0.161609	0.000080
C31	C	1.072629	-0.119439	0.000129
C32	C	1.142934	-0.192850	0.000140
C33	C	1.140763	-0.324059	0.000134
C34	C	1.068286	-0.381857	0.000116
C35	C	1.071063	0.270196	0.000114
C36	C	1.158168	0.281416	0.000118
C37	C	0.923202	0.494124	0.000095
C38	C	0.925508	0.633766	0.000093
N39	N	0.917968	0.279624	0.205397
N40	N	0.937397	0.250314	-0.205198
C41	C	0.968711	0.202836	0.250798
C42	C	0.964428	0.209324	0.341605
C43	C	0.909405	0.292607	0.387010
C44	C	0.858656	0.369399	0.341602
C45	C	0.862937	0.362903	0.250797
C46	C	0.890929	0.320610	0.658589
C47	C	0.886654	0.327102	0.749401
C48	C	0.992425	0.167025	0.749398
C49	C	0.996704	0.160543	0.658590
C50	C	0.945953	0.237329	0.613191
N51	N	0.905027	0.299244	0.479830
N52	N	0.950328	0.230685	0.520373
H53	H	0.556946	0.022445	0.000115
Br54	Br	0.811976	0.440146	0.811016
Br55	Br	1.236176	-0.423686	0.000137
Br56	Br	1.241292	-0.114414	0.000149
H57	H	0.821616	0.425431	0.213832
Br58	Br	1.071381	0.047520	0.596968
H59	H	1.074405	-0.012603	0.000137
Br60	Br	1.061296	0.062818	0.811014
H61	H	1.066524	-0.488698	0.000102
H62	H	0.525272	0.434383	0.000082
Br63	Br	0.822057	0.424819	0.596980
Br64	Br	0.783975	0.482419	0.403219
Br65	Br	0.691220	0.518018	0.000053
Br66	Br	0.315885	0.571999	0.000078
Br67	Br	1.043395	0.089812	0.189187
H68	H	1.005746	0.146796	0.378571
Br69	Br	0.164131	0.011927	0.000148
Br70	Br	0.357041	0.036784	0.000130
Br71	Br	0.122972	0.547139	0.000098
Br72	Br	0.732391	-0.017193	0.000100
H73	H	0.796195	-0.339885	0.000066
H74	H	0.800130	-0.101836	0.000072
