data_functionalizedCrystal
_audit_creation_method	'MofGen! by Chris Wilmer'
_symmetry_space_group_name_H-M	'P1'
_symmetry_Int_Tables_number	1
_symmetry_cell_setting	triclinic
loop_
_symmetry_equiv_pos_as_xyz
  x,y,z
_cell_length_a	19.805405
_cell_length_b	11.169417
_cell_length_c	19.805399
_cell_angle_alpha	89.985031
_cell_angle_beta	89.970699
_cell_angle_gamma	90.027660
loop_
_atom_site_label
_atom_site_type_symbol
_atom_site_fract_x
_atom_site_fract_y
_atom_site_fract_z
Zn1	Zn	-0.269456	1.834774	-0.382628
Zn2	Zn	0.230544	2.334774	0.117372
Zn3	Zn	-0.382645	1.834623	-0.269437
Zn4	Zn	0.117355	2.334623	0.230563
Zn5	Zn	-0.269477	1.634076	-0.269462
Zn6	Zn	0.230523	2.134076	0.230538
Zn7	Zn	-0.382611	1.634012	-0.382593
Zn8	Zn	0.117389	2.134012	0.117407
O9	O	-0.326047	1.734371	-0.326030
O10	O	0.173953	2.234371	0.173970
O11	O	-0.284476	2.002704	-0.367618
O12	O	0.215524	2.502704	0.132382
O13	O	-0.367656	1.807984	-0.174724
O14	O	0.132344	2.307984	0.325276
O15	O	-0.174758	1.660790	-0.284499
O16	O	0.325242	2.160790	0.215501
O17	O	-0.367635	2.002593	-0.284456
O18	O	0.132365	2.502593	0.215544
O19	O	-0.174743	1.808242	-0.367642
O20	O	0.325257	2.308242	0.132358
O21	O	-0.284512	1.660643	-0.174742
O22	O	0.215488	2.160643	0.325258
O23	O	-0.284480	1.466118	-0.284465
O24	O	0.215520	1.966118	0.215535
O25	O	-0.367578	1.660679	-0.477314
O26	O	0.132422	2.160679	0.022686
O27	O	-0.367599	1.466070	-0.367581
O28	O	0.132401	1.966070	0.132419
O29	O	-0.284444	1.808179	-0.477340
O30	O	0.215556	2.308179	0.022660
O31	O	-0.477357	1.807922	-0.284422
O32	O	0.022643	2.307922	0.215578
O33	O	-0.477332	1.660533	-0.367557
O34	O	0.022668	2.160533	0.132443
C35	C	-0.326038	1.422547	-0.326022
C36	C	0.173962	1.922547	0.173978
C37	C	-0.326051	1.289147	-0.326035
C38	C	0.173949	1.789147	0.173965
C39	C	-0.501903	1.734236	-0.325997
C40	C	-0.001903	2.234236	0.174003
C41	C	-0.577135	1.734288	-0.326006
C42	C	-0.077135	2.234288	0.173994
C43	C	-0.612470	1.811108	-0.282763
C44	C	-0.112470	2.311108	0.217237
C45	C	-0.683158	1.811159	-0.282778
C46	C	-0.183158	2.311159	0.217222
C47	C	-0.718511	1.734383	-0.326033
C48	C	-0.218511	2.234383	0.173967
C49	C	-0.683172	1.657560	-0.369281
C50	C	-0.183172	2.157560	0.130719
C51	C	-0.612484	1.657516	-0.369269
C52	C	-0.112484	2.157516	0.130731
C53	C	-0.968245	1.657737	-0.369331
C54	C	-0.468245	2.157737	0.130669
C55	C	-1.038937	1.657785	-0.369338
C56	C	-0.538937	2.157785	0.130662
C57	C	-1.038919	1.811380	-0.282840
C58	C	-0.538919	2.311380	0.217160
C59	C	-0.968232	1.811336	-0.282828
C60	C	-0.468232	2.311336	0.217172
C61	C	-0.932898	1.734518	-0.326078
C62	C	-0.432898	2.234518	0.173922
C63	C	-0.856250	1.734465	-0.326062
C64	C	-0.356250	2.234465	0.173938
C65	C	-0.795158	1.734429	-0.326046
C66	C	-0.295158	2.234429	0.173954
C67	C	-0.149505	1.734540	-0.326078
C68	C	0.350495	2.234540	0.173922
C69	C	-0.074273	1.734611	-0.326098
C70	C	0.425727	2.234611	0.173902
C71	C	-0.326005	1.734439	-0.502573
C72	C	0.173995	2.234439	-0.002573
C73	C	-0.325987	1.734467	-0.577805
C74	C	0.174013	2.234467	-0.077805
C75	C	-0.326057	2.047414	-0.326038
C76	C	0.173943	2.547414	0.173962
C77	C	-0.326061	2.180814	-0.326042
C78	C	0.173939	2.680814	0.173958
C79	C	-0.282696	1.811272	-0.613164
C80	C	0.217304	2.311272	-0.113164
C81	C	-0.282677	1.811285	-0.683852
C82	C	0.217323	2.311285	-0.183852
C83	C	-0.325951	1.734497	-0.719180
C84	C	0.174049	2.234497	-0.219180
C85	C	-0.369243	1.657684	-0.683817
C86	C	0.130757	2.157684	-0.183817
C87	C	-0.369259	1.657666	-0.613129
C88	C	0.130741	2.157666	-0.113129
C89	C	-0.369180	1.657752	-0.968890
C90	C	0.130820	2.157752	-0.468890
C91	C	-0.369163	1.657778	-1.039582
C92	C	0.130837	2.157778	-0.539582
C93	C	-0.282598	1.811370	-1.039613
C94	C	0.217402	2.311370	-0.539613
C95	C	-0.282614	1.811352	-0.968926
C96	C	0.217386	2.311352	-0.468926
C97	C	-0.325903	1.734535	-0.933568
C98	C	0.174097	2.234535	-0.433568
C99	C	-0.325923	1.734521	-0.856919
C100	C	0.174077	2.234521	-0.356919
C101	C	-0.325935	1.734516	-0.795828
C102	C	0.174065	2.234516	-0.295828
C103	C	-0.326041	1.734373	-0.150174
C104	C	0.173959	2.234373	0.349826
C105	C	-0.325869	1.734577	-0.074942
C106	C	0.174131	2.234577	0.425058
H107	H	-0.583690	1.873623	-0.247536
H108	H	-0.083690	2.373623	0.252464
H109	H	-0.247427	1.873830	-0.712638
H110	H	0.252573	2.373830	-0.212638
H111	H	-0.583716	1.594963	-0.404483
H112	H	-0.083716	2.094963	0.095517
H113	H	-0.711925	1.873713	-0.247564
H114	H	-0.211925	2.373713	0.252436
Cl115	Cl	-1.083379	1.561261	-0.423722
Cl116	Cl	-0.583379	2.061261	0.076278
H117	H	-0.939450	1.873850	-0.247603
H118	H	-0.439450	2.373850	0.252397
H119	H	-0.247377	1.873884	-0.940165
H120	H	0.252623	2.373884	-0.440165
Cl121	Cl	-0.923835	1.561163	-0.423701
Cl122	Cl	-0.423835	2.061163	0.076299
H123	H	-0.711961	1.595053	-0.404503
H124	H	-0.211961	2.095053	0.095497
H125	H	-0.404504	1.595112	-0.584341
H126	H	0.095496	2.095112	-0.084341
Cl127	Cl	-0.228173	1.907937	-1.084067
Cl128	Cl	0.271827	2.407937	-0.584067
Cl129	Cl	-1.083342	1.907960	-0.228471
Cl130	Cl	-0.583342	2.407960	0.271529
Cl131	Cl	-0.228294	1.907817	-0.568758
Cl132	Cl	0.271706	2.407817	-0.068758
Cl133	Cl	-0.423569	1.561236	-1.083994
Cl134	Cl	0.076431	2.061236	-0.583994
H135	H	-0.404439	1.595220	-0.940110
H136	H	0.095561	2.095220	-0.440110
Cl137	Cl	-0.423644	1.561146	-0.728229
Cl138	Cl	0.076356	2.061146	-0.228229
