data_functionalizedCrystal
_audit_creation_method	'MofGen! by Chris Wilmer'
_symmetry_space_group_name_H-M	'P1'
_symmetry_Int_Tables_number	1
_symmetry_cell_setting	triclinic
loop_
_symmetry_equiv_pos_as_xyz
  x,y,z
_cell_length_a	8.597340
_cell_length_b	8.559649
_cell_length_c	8.140239
_cell_angle_alpha	89.998339
_cell_angle_beta	97.699378
_cell_angle_gamma	77.625043
loop_
_atom_site_label
_atom_site_type_symbol
_atom_site_fract_x
_atom_site_fract_y
_atom_site_fract_z
O1	O	2.053714	0.238039	0.154094
O2	O	1.594586	0.256300	0.089103
O3	O	1.864599	0.015200	0.127326
O4	O	1.783700	0.479140	0.115871
O5	O	1.864586	0.015197	0.400551
O6	O	1.594573	0.256297	0.362328
O7	O	2.053701	0.238036	0.427319
Zn8	Zn	1.824135	0.247166	0.438204
Zn9	Zn	1.824152	0.247170	0.078218
O10	O	1.783687	0.479137	0.389096
C11	C	1.536345	0.254338	0.217472
C12	C	1.362827	0.248475	0.192910
C13	C	1.870724	-0.044236	0.264803
C14	C	1.888973	-0.221331	0.267377
C15	C	2.111942	0.239999	0.298946
C16	C	2.285459	0.245862	0.323498
C17	C	1.777563	0.538572	0.251615
C18	C	1.759314	0.715667	0.249030
N19	N	1.824135	0.247163	0.683887
N20	N	1.824166	0.247161	-0.167463
H21	H	1.351971	0.248099	0.454097
H22	H	2.013948	-0.302885	0.285081
C23	C	1.112760	0.240043	0.025549
C24	C	1.273044	0.245451	0.016588
H25	H	1.057333	0.238188	-0.083304
H26	H	1.109261	0.146389	0.086269
H27	H	1.062978	0.331906	0.079738
H28	H	1.322830	0.153583	-0.037590
H29	H	1.276552	0.339116	-0.044157
C30	C	1.604572	-0.014245	0.227093
C31	C	1.590604	-0.174260	0.225134
H32	H	1.500414	0.053713	0.212329
H33	H	1.661360	0.006049	0.330407
H34	H	1.661393	0.006027	0.139850
H35	H	1.533793	-0.194535	0.312385
H36	H	1.533792	-0.194562	0.121807
