data_functionalizedCrystal
_audit_creation_method	'MofGen! by Chris Wilmer'
_symmetry_space_group_name_H-M	'P1'
_symmetry_Int_Tables_number	1
_symmetry_cell_setting	triclinic
loop_
_symmetry_equiv_pos_as_xyz
  x,y,z
_cell_length_a	15.944493
_cell_length_b	10.654550
_cell_length_c	9.730223
_cell_angle_alpha	90.000043
_cell_angle_beta	90.001475
_cell_angle_gamma	96.020013
loop_
_atom_site_label
_atom_site_type_symbol
_atom_site_fract_x
_atom_site_fract_y
_atom_site_fract_z
O1	O	0.117979	-1.666276	-0.114168
O2	O	0.129220	-1.300648	-0.114191
O3	O	0.001379	-1.493485	-0.114190
O4	O	0.245820	-1.473440	-0.114168
O5	O	0.001376	-1.493472	0.114390
O6	O	0.129216	-1.300636	0.114389
O7	O	0.117976	-1.666264	0.114412
Zn8	Zn	0.123595	-1.483448	0.150693
Zn9	Zn	0.123600	-1.483464	-0.150471
O10	O	0.245816	-1.473427	0.114411
C11	C	0.128393	-1.253855	0.000096
C12	C	0.125923	-1.114445	0.000086
N13	N	0.123592	-1.483446	0.356229
C14	C	-0.029922	-1.492659	0.000094
C15	C	-0.123185	-1.490203	0.000076
C16	C	-0.358288	-1.603711	0.000110
C17	C	-0.409208	-1.542506	-0.112595
C18	C	-0.293932	-1.485652	0.000093
C19	C	-0.409188	-1.542467	0.112767
C20	C	-0.458867	-1.481264	0.000115
C21	C	-0.343624	-1.424479	-0.112705
C22	C	-0.343601	-1.424457	0.112758
C23	C	-0.394489	-1.363166	0.000025
C24	C	-0.198918	-1.488183	0.000079
C25	C	-0.553879	-1.478724	0.000119
C26	C	0.277117	-1.474253	0.000124
C27	C	0.370380	-1.476709	0.000133
C28	C	0.118803	-1.713057	0.000123
C29	C	0.121272	-1.852467	0.000123
C30	C	0.201194	-1.033962	0.000096
C31	C	0.198869	-0.902972	0.000120
C32	C	0.045996	-0.932960	0.000117
C33	C	0.048322	-1.063948	0.000103
N34	N	0.123597	-1.483476	-0.356008
C35	C	0.067008	-1.568863	0.428155
C36	C	0.067009	-1.568875	0.572038
C37	C	0.180183	-1.398050	0.572056
C38	C	0.180178	-1.398033	0.428176
H39	H	-0.342071	-1.705403	0.000003
H40	H	0.020932	-1.638427	0.630597
H41	H	0.260161	-0.837447	0.000132
H42	H	0.226256	-1.328510	0.630649
N43	N	0.284892	-1.088417	0.000094
H44	H	0.289265	-1.142104	0.084822
H45	H	0.289219	-1.142022	-0.084704
H46	H	-0.017184	-0.891830	0.000139
H47	H	0.226256	-1.328470	0.369609
H48	H	-0.437864	-1.592369	-0.207874
H49	H	-0.410544	-1.261394	-0.000043
N50	N	-0.032866	-1.150767	0.000108
H51	H	-0.082379	-1.098903	0.000113
H52	H	-0.035233	-1.205766	-0.084631
H53	H	-0.315091	-1.374655	-0.208090
H54	H	-0.314930	-1.374637	0.208040
N55	N	0.005976	-1.660964	0.350535
H56	H	0.016200	-1.750093	0.375554
H57	H	-0.053705	-1.646410	0.375606
N58	N	-0.447130	-1.608522	0.238977
H59	H	-0.434231	-1.699328	0.238874
H60	H	-0.422317	-1.564768	0.324028
