data_functionalizedCrystal
_audit_creation_method	'MofGen! by Chris Wilmer'
_symmetry_space_group_name_H-M	'P1'
_symmetry_Int_Tables_number	1
_symmetry_cell_setting	triclinic
loop_
_symmetry_equiv_pos_as_xyz
  x,y,z
_cell_length_a	14.044220
_cell_length_b	11.026607
_cell_length_c	10.065875
_cell_angle_alpha	79.268236
_cell_angle_beta	99.550528
_cell_angle_gamma	100.887447
loop_
_atom_site_label
_atom_site_type_symbol
_atom_site_fract_x
_atom_site_fract_y
_atom_site_fract_z
O1	O	-1.319580	-0.281448	-0.113335
O2	O	-0.819580	0.218552	0.386665
O3	O	-1.041779	-0.270687	-0.113370
O4	O	-0.541779	0.229313	0.386630
O5	O	-1.157655	-0.096922	-0.113350
O6	O	-0.657655	0.403078	0.386650
O7	O	-1.203704	-0.455212	-0.113354
O8	O	-0.703704	0.044788	0.386646
O9	O	-1.135584	-0.130202	0.113635
O10	O	-0.635584	0.369798	0.613635
O11	O	-1.019708	-0.303966	0.113615
O12	O	-0.519708	0.196034	0.613615
O13	O	-1.297509	-0.314727	0.113650
O14	O	-0.797509	0.185273	0.613650
Zn15	Zn	-1.155104	-0.314631	0.149672
Zn16	Zn	-0.655104	0.185369	0.649672
Zn17	Zn	-1.184184	-0.270783	-0.149391
Zn18	Zn	-0.684184	0.229217	0.350609
O19	O	-1.181633	-0.488492	0.113631
O20	O	-0.681633	0.011508	0.613631
C21	C	-0.994626	-0.282618	0.000118
C22	C	-0.494626	0.217382	0.500118
C23	C	-0.887005	-0.268572	0.000105
C24	C	-0.387005	0.231428	0.500105
C25	C	-1.344662	-0.302796	0.000160
C26	C	-0.844662	0.197204	0.500160
C27	C	-1.452284	-0.316840	0.000164
C28	C	-0.952284	0.183160	0.500164
C29	C	-1.138125	-0.067431	0.000140
C30	C	-0.638125	0.432569	0.500140
C31	C	-1.112801	0.070025	0.000132
C32	C	-0.612801	0.570025	0.500132
C33	C	-0.689960	-0.242901	0.000132
C34	C	-0.189960	0.257099	0.500132
C35	C	-0.649322	-0.342506	0.000137
C36	C	-0.149322	0.157494	0.500137
C37	C	-0.539680	-0.328222	0.000152
C38	C	-0.039680	0.171778	0.500152
C39	C	-0.799612	-0.257183	0.000117
C40	C	-0.299612	0.242817	0.500117
C41	C	-1.201163	-0.517982	0.000138
C42	C	-0.701163	-0.017982	0.500138
C43	C	-1.226488	-0.655438	0.000137
C44	C	-0.726488	-0.155438	0.500137
N45	N	-1.135265	-0.344556	0.353774
N46	N	-0.635265	0.155444	0.853774
C47	C	-1.182725	0.136261	0.000139
C48	C	-0.682725	0.636261	0.500139
C49	C	-1.156554	0.278330	0.000130
C50	C	-0.656554	0.778330	0.500130
N51	N	-1.204029	-0.240849	-0.353493
N52	N	-0.704029	0.259151	0.146507
C53	C	-1.177274	-0.281186	0.421560
C54	C	-0.677274	0.218814	0.921560
C55	C	-1.162014	-0.304228	0.578725
C56	C	-0.662014	0.195772	1.078725
H57	H	-0.696875	-0.438508	0.000129
H58	H	-0.196875	0.061492	0.500129
H59	H	-0.642410	-0.146907	0.000141
H60	H	-0.142410	0.353093	0.500141
H61	H	-1.261964	0.087789	0.000157
H62	H	-0.761964	0.587789	0.500157
H63	H	-1.077310	0.326796	0.000111
H64	H	-0.577310	0.826796	0.500111
H65	H	-1.305743	0.296114	0.000045
H66	H	-0.805743	0.796114	0.500045
C67	C	-1.241105	-0.184824	0.342779
C68	C	-0.741105	0.315176	0.842779
N69	N	-1.289178	-0.112235	0.283444
N70	N	-0.789178	0.387765	0.783444
C71	C	-1.098155	-0.400568	0.657500
C72	C	-0.598155	0.099432	1.157500
N73	N	-1.050058	-0.473129	0.716836
N74	N	-0.550058	0.026871	1.216836
H75	H	-1.251291	-0.169529	0.588194
H76	H	-0.751291	0.330471	1.088194
C77	C	-1.005749	0.135500	0.000120
C78	C	-0.505749	0.635500	0.500120
N79	N	-0.925114	0.184814	0.000115
N80	N	-0.425114	0.684814	0.500115
C81	C	-1.071409	-0.440891	0.432554
C82	C	-0.571409	0.059109	0.932554
N83	N	-1.023312	-0.513453	0.491890
N84	N	-0.523312	-0.013453	0.991890
