data_functionalizedCrystal
_audit_creation_method	'MofGen! by Chris Wilmer'
_symmetry_space_group_name_H-M	'P1'
_symmetry_Int_Tables_number	1
_symmetry_cell_setting	triclinic
loop_
_symmetry_equiv_pos_as_xyz
  x,y,z
_cell_length_a	16.956984
_cell_length_b	13.262508
_cell_length_c	15.455313
_cell_angle_alpha	108.573824
_cell_angle_beta	87.518126
_cell_angle_gamma	80.408168
loop_
_atom_site_label
_atom_site_type_symbol
_atom_site_fract_x
_atom_site_fract_y
_atom_site_fract_z
O1	O	1.061216	0.039208	-0.062884
O2	O	0.828754	0.076646	-0.054052
O3	O	0.952597	-0.097860	-0.095218
O4	O	0.937373	0.213715	-0.021719
O5	O	0.945516	-0.087919	0.051389
O6	O	0.821673	0.086587	0.092555
O7	O	1.054134	0.049149	0.083723
Cu8	Cu	0.937257	0.068776	0.101525
Cu9	Cu	0.945632	0.057020	-0.071855
O10	O	0.930291	0.223655	0.124888
C11	C	0.795490	0.083534	0.019704
C12	C	0.706923	0.089233	0.021048
C13	C	0.675613	-0.006063	-0.001430
C14	C	0.592394	-0.000702	-0.000172
C15	C	0.540487	0.099957	0.023572
C16	C	0.571802	0.195261	0.046049
C17	C	0.655019	0.189898	0.044784
C18	C	0.290499	0.126502	0.029827
C19	C	0.207276	0.131858	0.031093
C20	C	0.227874	-0.064105	-0.015130
C21	C	0.311092	-0.069459	-0.016387
C22	C	0.342400	0.025844	0.006086
N23	N	0.455424	0.105440	0.024861
N24	N	0.427462	0.020360	0.004789
C25	C	0.948854	-0.132571	-0.031277
C26	C	0.948242	-0.250808	-0.059174
C27	C	0.931071	-0.562436	0.181861
C28	C	0.931640	-0.451345	0.208073
C29	C	0.935791	-0.401205	0.141263
C30	C	0.939372	-0.462168	0.048237
C31	C	0.938797	-0.573268	0.022023
C32	C	0.943517	-0.412037	-0.018574
C33	C	0.947098	-0.473000	-0.111600
C34	C	0.946524	-0.584089	-0.137810
C35	C	0.942373	-0.634229	-0.071001
C36	C	0.944092	-0.300937	0.007640
C37	C	0.951818	-0.311769	-0.152198
C38	C	0.951249	-0.422860	-0.178410
C39	C	1.087399	0.042261	0.009965
C40	C	1.175966	0.036562	0.008615
C41	C	0.934035	0.258366	0.060946
C42	C	0.934647	0.376603	0.088837
N43	N	0.931372	0.077043	0.223471
N44	N	0.951523	0.048744	-0.193803
C45	C	0.984003	0.002930	0.251382
C46	C	0.979560	0.009192	0.343667
C47	C	0.922490	0.089571	0.408040
C48	C	0.869853	0.163687	0.380124
C49	C	0.874293	0.157420	0.287839
C50	C	0.903326	0.116593	0.685996
C51	C	0.898892	0.122856	0.778286
C52	C	1.008598	-0.031641	0.741823
C53	C	1.013036	-0.037897	0.649539
C54	C	0.960397	0.036215	0.621630
N55	N	0.917948	0.095975	0.502371
N56	N	0.964935	0.029806	0.527299
H57	H	0.353350	-0.151426	-0.035718
Cl58	Cl	0.955753	-0.499511	-0.295353
Cl59	Cl	1.084783	-0.138945	0.568613
H60	H	0.928732	-0.401719	0.283814
H61	H	0.927687	-0.603269	0.236247
H62	H	0.529533	0.277219	0.065376
H63	H	1.030479	-0.062519	0.198974
H64	H	0.941913	-0.724690	-0.092338
H65	H	0.823381	0.229130	0.432541
Cl66	Cl	0.142021	0.258411	0.060953
H67	H	0.949433	-0.633721	-0.213557
H68	H	1.051454	-0.091981	0.764556
H69	H	0.852416	0.188315	0.830698
H70	H	0.860467	0.176940	0.663280
H71	H	0.831435	0.217769	0.265116
H72	H	0.941169	-0.251310	0.083383
Cl73	Cl	0.957020	-0.248740	-0.236191
H74	H	0.680510	0.267499	0.063092
H75	H	0.717871	-0.088030	-0.020761
H76	H	0.566906	-0.078302	-0.018477
Cl77	Cl	0.188510	-0.183907	-0.043384
H78	H	1.022416	-0.051157	0.366390
H79	H	0.936252	-0.310749	0.162611
H80	H	0.315980	0.204104	0.048120
