data_functionalizedCrystal
_audit_creation_method	'MofGen! by Chris Wilmer'
_symmetry_space_group_name_H-M	'P1'
_symmetry_Int_Tables_number	1
_symmetry_cell_setting	triclinic
loop_
_symmetry_equiv_pos_as_xyz
  x,y,z
_cell_length_a	16.109301
_cell_length_b	14.472310
_cell_length_c	15.995350
_cell_angle_alpha	89.998838
_cell_angle_beta	83.476928
_cell_angle_gamma	90.010306
loop_
_atom_site_label
_atom_site_type_symbol
_atom_site_fract_x
_atom_site_fract_y
_atom_site_fract_z
O1	O	1.103172	0.076778	0.107619
O2	O	1.603172	0.576778	0.607619
O3	O	0.861113	0.076792	0.121013
O4	O	1.361113	0.576792	0.621013
O5	O	0.988759	0.076784	-0.007573
O6	O	1.488759	0.576784	0.492427
O7	O	0.975526	0.076786	0.236206
O8	O	1.475526	0.576786	0.736206
O9	O	0.988727	-0.076898	-0.007566
O10	O	1.488727	0.423102	0.492434
O11	O	0.861081	-0.076890	0.121021
O12	O	1.361081	0.423110	0.621021
O13	O	1.103139	-0.076904	0.107627
O14	O	1.603139	0.423096	0.607627
Cu15	Cu	0.982107	-0.090929	0.114324
Cu16	Cu	1.482107	0.409071	0.614324
Cu17	Cu	0.982146	0.090817	0.114316
Cu18	Cu	1.482146	0.590817	0.614316
O19	O	0.975493	-0.076896	0.236213
O20	O	1.475493	0.423104	0.736213
C21	C	0.830122	-0.000047	0.120474
C22	C	1.330122	0.499953	0.620474
C23	C	0.737826	-0.000042	0.118848
C24	C	1.237826	0.499958	0.618848
N25	N	0.982085	-0.218760	0.114330
N26	N	1.482085	0.281240	0.614330
C27	C	0.515573	-0.000052	0.191366
C28	C	1.015573	0.499948	0.691366
C29	C	0.428853	-0.000058	0.189831
C30	C	0.928853	0.499942	0.689831
C31	C	0.448686	-0.000055	0.037268
C32	C	0.948686	0.499945	0.537268
C33	C	0.535405	-0.000056	0.038804
C34	C	1.035405	0.499944	0.538804
C35	C	0.568846	-0.000049	0.115855
C36	C	1.068846	0.499951	0.615855
C37	C	0.395406	-0.000055	0.112785
C38	C	0.895406	0.499945	0.612785
C39	C	0.301380	-0.000061	0.111120
C40	C	0.801380	0.499939	0.611120
C41	C	0.662879	-0.000045	0.117520
C42	C	1.162879	0.499955	0.617520
C43	C	0.982144	-0.592852	0.114312
C44	C	1.482144	-0.092852	0.614312
C45	C	0.913615	-0.553681	0.182885
C46	C	1.413615	-0.053681	0.682885
C47	C	0.913773	-0.446593	0.183135
C48	C	1.413773	0.053407	0.683135
C49	C	0.982114	-0.407261	0.114321
C50	C	1.482114	0.092739	0.614321
C51	C	1.068864	-0.446103	0.133379
C52	C	1.568864	0.053897	0.633379
C53	C	1.068479	-0.553224	0.133867
C54	C	1.568479	-0.053224	0.633867
C55	C	0.964699	-0.553380	0.026477
C56	C	1.464699	-0.053380	0.526477
C57	C	0.962709	-0.446253	0.027064
C58	C	1.462709	0.053747	0.527064
C59	C	0.982103	-0.302372	0.114324
C60	C	1.482103	0.197628	0.614324
C61	C	0.982162	-0.697740	0.114311
C62	C	1.482162	-0.197740	0.614311
C63	C	1.134130	-0.000063	0.108166
C64	C	1.634130	0.499937	0.608166
C65	C	1.226426	-0.000062	0.109792
C66	C	1.726426	0.499938	0.609792
C67	C	0.988196	-0.000056	-0.038764
C68	C	1.488196	0.499944	0.461236
C69	C	0.986556	-0.000050	-0.131714
C70	C	1.486556	0.499950	0.368286
N71	N	0.982173	0.218648	0.114303
N72	N	1.482173	0.718648	0.614303
C73	C	0.980665	-0.000053	-0.469460
C74	C	1.480665	0.499947	0.030540
C75	C	0.889758	0.000297	-0.422001
C76	C	1.389758	0.500297	0.077999
C77	C	0.891399	-0.000049	-0.325311
C78	C	1.391399	0.499951	0.174689
C79	C	0.983587	-0.000051	-0.301900
C80	C	1.483587	0.499949	0.198100
C81	C	1.028407	-0.087812	-0.342986
C82	C	1.528407	0.412188	0.157014
C83	C	1.026123	-0.087885	-0.439621
C84	C	1.526123	0.412115	0.060379
C85	C	1.028039	0.086880	-0.439988
C86	C	1.528039	0.586880	0.060012
C87	C	1.028017	0.088040	-0.343043
C88	C	1.528017	0.588040	0.156957
C89	C	0.985243	-0.000053	-0.207203
C90	C	1.485243	0.499947	0.292797
C91	C	0.979012	-0.000057	-0.564157
C92	C	1.479012	0.499943	-0.064157
C93	C	0.976056	-0.000055	0.267404
C94	C	1.476056	0.499945	0.767404
C95	C	0.977697	-0.000054	0.360354
C96	C	1.477697	0.499946	0.860354
H97	H	0.542798	-0.000053	0.254106
H98	H	1.042798	0.499947	0.754106
H99	H	0.995248	0.152963	-0.315788
H100	H	1.495248	0.652963	0.184212
H101	H	1.095246	0.093337	-0.327699
H102	H	1.595246	0.593337	0.172301
H103	H	0.385481	-0.000061	0.251320
H104	H	0.885481	0.499939	0.751320
H105	H	1.095064	0.087468	-0.471767
H106	H	1.595064	0.587468	0.028233
H107	H	0.578782	-0.000057	-0.022690
H108	H	1.078782	0.499943	0.477310
H109	H	0.855902	-0.063063	-0.297434
H110	H	1.355902	0.436937	0.202566
H111	H	1.083852	-0.578200	0.197923
H112	H	1.583852	-0.078200	0.697923
H113	H	0.421447	-0.000066	-0.025465
H114	H	0.921447	0.499934	0.474535
H115	H	0.849290	-0.420334	0.171784
H116	H	1.349290	0.079666	0.671784
H117	H	0.848923	-0.579465	0.171721
H118	H	1.348923	-0.079465	0.671721
H119	H	0.924601	-0.580591	0.247700
H120	H	1.424601	-0.080591	0.747700
H121	H	0.998331	0.153397	-0.460523
H122	H	1.498331	0.653397	0.039477
H123	H	0.924913	-0.420959	0.248317
H124	H	1.424913	0.079041	0.748317
H125	H	1.121067	-0.579133	0.085889
H126	H	1.621067	-0.079133	0.585889
H127	H	1.121078	-0.420623	0.084761
H128	H	1.621078	0.079377	0.584761
H129	H	1.084604	-0.419266	0.196705
H130	H	1.584604	0.080734	0.696705
H131	H	0.902815	-0.580445	0.008146
H132	H	1.402815	-0.080445	0.508146
H133	H	0.898896	-0.420867	0.012600
H134	H	1.398896	0.079133	0.512600
H135	H	1.014675	-0.578710	-0.024552
H136	H	1.514675	-0.078710	0.475448
H137	H	1.009381	-0.419482	-0.026355
H138	H	1.509381	0.080518	0.473645
H139	H	0.856166	0.062861	-0.296883
H140	H	1.356166	0.562861	0.203117
H141	H	0.853437	0.063232	-0.440526
H142	H	1.353437	0.563232	0.059474
H143	H	0.853571	-0.062283	-0.441582
H144	H	1.353571	0.437717	0.058418
H145	H	0.993413	-0.153487	-0.457910
H146	H	1.493413	0.346513	0.042090
H147	H	1.092865	-0.091868	-0.471887
H148	H	1.592865	0.408132	0.028113
H149	H	1.096135	-0.091077	-0.328878
H150	H	1.596135	0.408923	0.171122
H151	H	0.997250	-0.153119	-0.314593
H152	H	1.497250	0.346881	0.185407
