data_functionalizedCrystal
_audit_creation_method	'MofGen! by Chris Wilmer'
_symmetry_space_group_name_H-M	'P1'
_symmetry_Int_Tables_number	1
_symmetry_cell_setting	triclinic
loop_
_symmetry_equiv_pos_as_xyz
  x,y,z
_cell_length_a	15.944551
_cell_length_b	17.019294
_cell_length_c	14.421503
_cell_angle_alpha	86.125318
_cell_angle_beta	89.996859
_cell_angle_gamma	83.446674
loop_
_atom_site_label
_atom_site_type_symbol
_atom_site_fract_x
_atom_site_fract_y
_atom_site_fract_z
O1	O	1.114402	0.101726	-0.085136
O2	O	1.614402	0.601726	0.414864
O3	O	0.869837	0.114269	-0.086161
O4	O	1.369837	0.614269	0.413839
O5	O	0.998941	-0.006833	-0.076474
O6	O	1.498941	0.493167	0.423526
O7	O	0.985297	0.222829	-0.094823
O8	O	1.485297	0.722829	0.405177
O9	O	0.998920	-0.006815	0.077748
O10	O	1.498920	0.493185	0.577748
O11	O	0.869815	0.114287	0.068061
O12	O	1.369815	0.614287	0.568061
O13	O	1.114381	0.101744	0.069086
O14	O	1.614381	0.601744	0.569086
Cu15	Cu	0.992096	0.108018	0.082655
Cu16	Cu	1.492096	0.608018	0.582655
Cu17	Cu	0.992121	0.107996	-0.099730
Cu18	Cu	1.492121	0.607996	0.400270
O19	O	0.985276	0.222847	0.059399
O20	O	1.485276	0.722847	0.559399
C21	C	0.838533	0.113758	-0.009011
C22	C	1.338533	0.613758	0.490989
C23	C	0.745288	0.112197	-0.008895
C24	C	1.245288	0.612197	0.491105
C25	C	0.530530	0.033400	-0.002582
C26	C	1.030530	0.533400	0.497418
C27	C	0.469475	0.069982	-0.081545
C28	C	0.969475	0.569982	0.418455
C29	C	0.574566	0.109372	-0.008659
C30	C	1.074566	0.609372	0.491341
C31	C	0.469476	0.070017	0.070505
C32	C	0.969476	0.570017	0.570505
C33	C	0.409657	0.106639	-0.008425
C34	C	0.909657	0.606639	0.491575
C35	C	0.514739	0.145975	-0.087686
C36	C	1.014739	0.645975	0.412314
C37	C	0.514746	0.146000	0.064433
C38	C	1.014746	0.646000	0.564433
C39	C	0.453709	0.182637	-0.014553
C40	C	0.953709	0.682637	0.485447
C41	C	0.669566	0.110945	-0.008793
C42	C	1.169566	0.610945	0.491207
C43	C	0.314658	0.105072	-0.008298
C44	C	0.814658	0.605072	0.491702
C45	C	0.998413	-0.036213	0.002983
C46	C	1.498413	0.463787	0.502983
C47	C	0.996860	-0.123783	0.009972
C48	C	1.496860	0.376217	0.509972
C49	C	0.996144	-0.164928	-0.070810
C50	C	1.496144	0.335072	0.429190
C51	C	0.994680	-0.247209	-0.064239
C52	C	1.494680	0.252791	0.435761
C53	C	0.993938	-0.288342	0.023114
C54	C	1.493938	0.211658	0.523114
C55	C	0.994651	-0.247191	0.103902
C56	C	1.494651	0.252809	0.603902
C57	C	0.996109	-0.164911	0.097331
C58	C	1.496109	0.335089	0.597331
C59	C	0.989529	-0.536772	0.047161
C60	C	1.489529	-0.036772	0.547161
C61	C	0.988073	-0.619058	0.053727
C62	C	1.488073	-0.119058	0.553727
C63	C	0.988100	-0.619070	-0.114416
C64	C	1.488100	-0.119070	0.385584
C65	C	0.989564	-0.536790	-0.120979
C66	C	1.489564	-0.036790	0.379021
C67	C	0.990272	-0.495644	-0.040191
C68	C	1.490272	0.004356	0.459809
C69	C	0.992444	-0.372446	0.029832
C70	C	1.492444	0.127554	0.529832
C71	C	0.991760	-0.411541	-0.046910
C72	C	1.491760	0.088459	0.453090
C73	C	1.145685	0.102256	-0.008066
C74	C	1.645685	0.602256	0.491934
C75	C	1.238929	0.103817	-0.008188
C76	C	1.738929	0.603817	0.491812
C77	C	0.985804	0.252227	-0.020060
C78	C	1.485804	0.752227	0.479940
C79	C	0.987357	0.339796	-0.027055
C80	C	1.487357	0.839796	0.472945
N81	N	0.992084	0.108032	0.210935
N82	N	1.492084	0.608032	0.710935
N83	N	0.992140	0.107975	-0.228010
N84	N	1.492140	0.607975	0.271990
C85	C	0.932376	0.164005	0.456112
C86	C	1.432376	0.664005	0.956112
C87	C	1.008257	0.179319	0.516698
C88	C	1.508257	0.679319	1.016698
C89	C	0.992105	0.108013	0.400098
C90	C	1.492105	0.608013	0.900098
C91	C	0.916243	0.092717	0.523604
C92	C	1.416243	0.592717	1.023604
C93	C	0.992118	0.107997	0.582821
C94	C	1.492118	0.607997	1.082821
C95	C	1.068024	0.123363	0.459321
C96	C	1.568024	0.623363	0.959321
C97	C	0.975961	0.036730	0.466224
C98	C	1.475961	0.536730	0.966224
C99	C	1.051896	0.052014	0.526785
C100	C	1.551896	0.552014	1.026785
C101	C	0.992096	0.108025	0.294836
C102	C	1.492096	0.608025	0.794836
C103	C	0.992135	0.107985	0.688081
C104	C	1.492135	0.607985	1.188081
H105	H	0.534829	0.178114	0.126157
H106	H	1.034829	0.678114	0.626157
Cl107	Cl	0.438503	0.020362	-0.176836
Cl108	Cl	0.938503	0.520362	0.323164
Cl109	Cl	1.167105	0.143436	0.415964
Cl110	Cl	1.667105	0.643436	0.915964
H111	H	0.420471	0.245753	-0.019638
H112	H	0.920471	0.745753	0.480362
H113	H	0.563942	-0.029651	0.002362
H114	H	1.063942	0.470349	0.502362
Cl115	Cl	0.545545	0.195537	-0.191009
Cl116	Cl	1.045545	0.695537	0.308991
H117	H	0.992359	-0.378046	-0.118033
H118	H	1.492359	0.121954	0.381967
H119	H	0.991842	-0.405947	0.100956
H120	H	1.491842	0.094053	0.600956
Cl121	Cl	0.987145	-0.670769	0.163551
Cl122	Cl	1.487145	-0.170769	0.663551
Cl123	Cl	0.854472	0.237165	0.408416
Cl124	Cl	1.354472	0.737165	0.908416
Cl125	Cl	0.438515	0.020399	0.173720
Cl126	Cl	0.938515	0.520399	0.673720
H127	H	0.994101	-0.280706	-0.130021
H128	H	1.494101	0.219294	0.369979
Cl129	Cl	0.997083	-0.113226	-0.180631
Cl130	Cl	1.497083	0.386774	0.319369
H131	H	0.990169	-0.503304	-0.192112
H132	H	1.490169	-0.003304	0.307888
Cl133	Cl	1.029359	0.272378	0.551220
Cl134	Cl	1.529359	0.772378	1.051220
H135	H	1.102468	0.004654	0.557501
H136	H	1.602468	0.504654	1.057501
H137	H	0.962270	-0.023526	0.443843
H138	H	1.462270	0.476474	0.943843
Cl139	Cl	0.990407	-0.485056	0.148724
Cl140	Cl	1.490407	0.014944	0.648724
Cl141	Cl	0.993707	-0.298901	0.213719
Cl142	Cl	1.493707	0.201099	0.713719
Cl143	Cl	0.997008	-0.113185	0.198890
Cl144	Cl	1.497008	0.386815	0.698890
Cl145	Cl	0.987207	-0.670800	-0.215971
Cl146	Cl	1.487207	-0.170800	0.284029
Cl147	Cl	0.817187	0.072751	0.567138
Cl148	Cl	1.317187	0.572751	1.067138
