data_functionalizedCrystal
_audit_creation_method	'MofGen! by Chris Wilmer'
_symmetry_space_group_name_H-M	'P1'
_symmetry_Int_Tables_number	1
_symmetry_cell_setting	triclinic
loop_
_symmetry_equiv_pos_as_xyz
  x,y,z
_cell_length_a	8.597340
_cell_length_b	14.853569
_cell_length_c	7.681481
_cell_angle_alpha	84.248589
_cell_angle_beta	103.474906
_cell_angle_gamma	84.489798
loop_
_atom_site_label
_atom_site_type_symbol
_atom_site_fract_x
_atom_site_fract_y
_atom_site_fract_z
O1	O	2.100123	0.124677	0.172192
O2	O	1.636094	0.139041	0.101786
O3	O	1.880504	0.000619	0.138887
O4	O	1.855713	0.263099	0.135092
O5	O	1.910587	-0.016457	0.436311
O6	O	1.666177	0.121965	0.399211
O7	O	2.130206	0.107601	0.469616
Zn8	Zn	1.902967	0.112072	0.481636
Zn9	Zn	1.863332	0.134570	0.089767
O10	O	1.885796	0.246023	0.432516
C11	C	1.591750	0.129912	0.241488
C12	C	1.414802	0.128139	0.214641
C13	C	1.894422	-0.041507	0.287429
C14	C	1.891055	-0.141588	0.286920
C15	C	1.744292	-0.177856	0.264655
C16	C	2.034653	-0.199359	0.308692
C17	C	2.031494	-0.293391	0.308205
C18	C	1.884731	-0.329659	0.285940
C19	C	1.741127	-0.271896	0.264162
C20	C	2.175094	-0.351160	0.329964
C21	C	2.171940	-0.445197	0.329476
C22	C	2.025176	-0.481468	0.307224
C23	C	1.881567	-0.423698	0.285447
C24	C	1.734804	-0.459967	0.263182
C25	C	1.591194	-0.402200	0.241418
C26	C	1.594364	-0.308166	0.241910
C27	C	2.022006	-0.575501	0.306732
C28	C	1.731639	-0.554006	0.262689
C29	C	2.174549	0.116730	0.329911
C30	C	2.351496	0.118504	0.356746
C31	C	1.871878	0.288149	0.283970
C32	C	1.875243	0.388231	0.284467
N33	N	1.930029	0.096717	0.749078
N34	N	1.836283	0.149918	-0.177673
H35	H	1.612127	-0.583529	0.244575
H36	H	2.288876	-0.492224	0.347201
H37	H	2.154145	-0.169826	0.326854
Br38	Br	1.676781	0.240431	0.672786
Br39	Br	2.374257	-0.301933	0.360150
Br40	Br	2.216885	-0.653893	0.336240
H41	H	1.432669	0.111605	0.498954
Br42	Br	1.392019	-0.451431	0.211172
Br43	Br	1.279510	0.139622	-0.022402
Br44	Br	1.399482	-0.229764	0.212364
H45	H	1.627369	-0.130819	0.246942
Br46	Br	2.089564	0.006214	0.898630
