data_functionalizedCrystal
_audit_creation_method	'MofGen! by Chris Wilmer'
_symmetry_space_group_name_H-M	'P1'
_symmetry_Int_Tables_number	1
_symmetry_cell_setting	triclinic
loop_
_symmetry_equiv_pos_as_xyz
  x,y,z
_cell_length_a	16.625546
_cell_length_b	18.215407
_cell_length_c	16.625539
_cell_angle_alpha	89.984837
_cell_angle_beta	90.028532
_cell_angle_gamma	89.981912
loop_
_atom_site_label
_atom_site_type_symbol
_atom_site_fract_x
_atom_site_fract_y
_atom_site_fract_z
Zn1	Zn	-0.321109	-1.125065	0.455857
Zn2	Zn	-0.071109	-0.875065	0.705857
Zn3	Zn	0.178891	-0.625065	0.955857
Zn4	Zn	0.428891	-0.375065	1.205857
Zn5	Zn	-0.455948	-1.124984	0.321019
Zn6	Zn	-0.205948	-0.874984	0.571019
Zn7	Zn	0.044052	-0.624984	0.821019
Zn8	Zn	0.294052	-0.374984	1.071019
Zn9	Zn	-0.321123	-1.002003	0.321042
Zn10	Zn	-0.071123	-0.752003	0.571042
Zn11	Zn	0.178877	-0.502003	0.821042
Zn12	Zn	0.428877	-0.252003	1.071042
Zn13	Zn	-0.455893	-1.001969	0.455813
Zn14	Zn	-0.205893	-0.751969	0.705813
Zn15	Zn	0.044107	-0.501969	0.955813
Zn16	Zn	0.294107	-0.251969	1.205813
O17	O	-0.388518	-1.063506	0.388433
O18	O	-0.138518	-0.813506	0.638433
O19	O	0.111482	-0.563506	0.888433
O20	O	0.361482	-0.313506	1.138433
O21	O	-0.339013	-1.228039	0.437979
O22	O	-0.089013	-0.978039	0.687979
O23	O	0.160987	-0.728039	0.937979
O24	O	0.410987	-0.478039	1.187979
O25	O	-0.438092	-1.108651	0.208190
O26	O	-0.188092	-0.858651	0.458190
O27	O	0.061908	-0.608651	0.708190
O28	O	0.311908	-0.358651	0.958190
O29	O	-0.208289	-1.018376	0.338953
O30	O	0.041711	-0.768376	0.588953
O31	O	0.291711	-0.518376	0.838953
O32	O	0.541711	-0.268376	1.088953
O33	O	-0.438079	-1.227979	0.338914
O34	O	-0.188079	-0.977979	0.588914
O35	O	0.061921	-0.727979	0.838914
O36	O	0.311921	-0.477979	1.088914
O37	O	-0.208279	-1.108789	0.438001
O38	O	0.041721	-0.858789	0.688001
O39	O	0.291721	-0.608789	0.938001
O40	O	0.541721	-0.358789	1.188001
O41	O	-0.339036	-1.018298	0.208206
O42	O	-0.089036	-0.768298	0.458206
O43	O	0.160964	-0.518298	0.708206
O44	O	0.410964	-0.268298	0.958206
O45	O	-0.338983	-0.899015	0.338911
O46	O	-0.088983	-0.649015	0.588911
O47	O	0.161017	-0.399015	0.838911
O48	O	0.411017	-0.149015	1.088911
O49	O	-0.437985	-1.018317	0.568652
O50	O	-0.187985	-0.768317	0.818652
O51	O	0.062015	-0.518317	1.068652
O52	O	0.312015	-0.268317	1.318652
O53	O	-0.437998	-0.898989	0.437927
O54	O	-0.187998	-0.648989	0.687927
O55	O	0.062002	-0.398989	0.937927
O56	O	0.312002	-0.148989	1.187927
O57	O	-0.338960	-1.108756	0.568684
O58	O	-0.088960	-0.858756	0.818684
O59	O	0.161040	-0.608756	1.068684
O60	O	0.411040	-0.358756	1.318684
O61	O	-0.568773	-1.108618	0.338872
O62	O	-0.318773	-0.858618	0.588872
O63	O	-0.068773	-0.608618	0.838872
O64	O	0.181227	-0.358618	1.088872
O65	O	-0.568733	-1.018239	0.437905
O66	O	-0.318733	-0.768239	0.687905
O67	O	-0.068733	-0.518239	0.937905
O68	O	0.181267	-0.268239	1.187905
C69	C	-0.598009	-1.063436	0.388399
C70	C	-0.348009	-0.813436	0.638399
C71	C	-0.098009	-0.563436	0.888399
C72	C	0.151991	-0.313436	1.138399
C73	C	-0.687630	-1.063473	0.388412
C74	C	-0.437630	-0.813473	0.638412
C75	C	-0.187630	-0.563473	0.888412
C76	C	0.062370	-0.313473	1.138412
C77	C	-0.388487	-0.872299	0.388417
C78	C	-0.138487	-0.622299	0.638417
C79	C	0.111513	-0.372299	0.888417
C80	C	0.361513	-0.122299	1.138417
C81	C	-0.388493	-0.790500	0.388430
C82	C	-0.138493	-0.540500	0.638430
C83	C	0.111507	-0.290500	0.888430
C84	C	0.361507	-0.040500	1.138430
C85	C	-0.388465	-1.063542	0.598742
C86	C	-0.138465	-0.813542	0.848742
C87	C	0.111535	-0.563542	1.098742
C88	C	0.361535	-0.313542	1.348742
C89	C	-0.388442	-1.063557	0.688363
C90	C	-0.138442	-0.813557	0.938363
C91	C	0.111558	-0.563557	1.188363
C92	C	0.361558	-0.313557	1.438363
C93	C	-1.015806	-1.063602	0.388496
C94	C	-0.765806	-0.813602	0.638496
C95	C	-0.515806	-0.563602	0.888496
C96	C	-0.265806	-0.313602	1.138496
C97	C	-0.924497	-1.063564	0.388474
C98	C	-0.674497	-0.813564	0.638474
C99	C	-0.424497	-0.563564	0.888474
C100	C	-0.174497	-0.313564	1.138474
C101	C	-0.851721	-1.063537	0.388453
C102	C	-0.601721	-0.813537	0.638453
C103	C	-0.351721	-0.563537	0.888453
C104	C	-0.101721	-0.313537	1.138453
C105	C	-0.760407	-1.063500	0.388433
C106	C	-0.510407	-0.813500	0.638433
C107	C	-0.260407	-0.563500	0.888433
C108	C	-0.010407	-0.313500	1.138433
C109	C	-0.178209	-1.063596	0.388484
C110	C	0.071791	-0.813596	0.638484
C111	C	0.321791	-0.563596	0.888484
C112	C	0.571791	-0.313596	1.138484
C113	C	-0.088588	-1.063634	0.388506
C114	C	0.161412	-0.813634	0.638506
C115	C	0.411412	-0.563634	0.888506
C116	C	0.661412	-0.313634	1.138506
C117	C	-0.337009	-0.602336	0.440093
C118	C	-0.087009	-0.352336	0.690093
C119	C	0.162991	-0.102336	0.940093
C120	C	0.412991	0.147664	1.190093
C121	C	-0.337013	-0.525478	0.440095
C122	C	-0.087013	-0.275478	0.690095
C123	C	0.162987	-0.025478	0.940095
C124	C	0.412987	0.224522	1.190095
C125	C	-0.440015	-0.525427	0.336779
C126	C	-0.190015	-0.275427	0.586779
C127	C	0.059985	-0.025427	0.836779
C128	C	0.309985	0.224573	1.086779
C129	C	-0.440006	-0.602284	0.336774
C130	C	-0.190006	-0.352284	0.586774
C131	C	0.059994	-0.102284	0.836774
C132	C	0.309994	0.147716	1.086774
C133	C	-0.388505	-0.640737	0.388435
C134	C	-0.138505	-0.390737	0.638435
C135	C	0.111495	-0.140737	0.888435
C136	C	0.361495	0.109263	1.138435
C137	C	-0.388518	-0.487021	0.388443
C138	C	-0.138518	-0.237021	0.638443
C139	C	0.111482	0.012979	0.888443
C140	C	0.361482	0.262979	1.138443
C141	C	-0.388523	-0.403687	0.388445
C142	C	-0.138523	-0.153687	0.638445
C143	C	0.111477	0.096313	0.888445
C144	C	0.361477	0.346313	1.138445
C145	C	-0.388498	-0.724076	0.388432
C146	C	-0.138498	-0.474076	0.638432
C147	C	0.111502	-0.224076	0.888432
C148	C	0.361502	0.025924	1.138432
C149	C	-0.388542	-0.255458	0.388447
C150	C	-0.138542	-0.005458	0.638447
C151	C	0.111458	0.244542	0.888447
C152	C	0.361458	0.494542	1.138447
C153	C	-0.388529	-0.337257	0.388448
C154	C	-0.138529	-0.087257	0.638448
C155	C	0.111471	0.162743	0.888448
C156	C	0.361471	0.412743	1.138448
C157	C	-0.388513	-1.063512	0.178942
C158	C	-0.138513	-0.813512	0.428942
C159	C	0.111487	-0.563512	0.678942
C160	C	0.361487	-0.313512	0.928942
C161	C	-0.388309	-1.063639	0.089321
C162	C	-0.138309	-0.813639	0.339321
C163	C	0.111691	-0.563639	0.589321
C164	C	0.361691	-0.313639	0.839321
C165	C	-0.388425	-1.063569	0.761145
C166	C	-0.138425	-0.813569	1.011145
C167	C	0.111575	-0.563569	1.261145
C168	C	0.361575	-0.313569	1.511145
C169	C	-0.388395	-1.063586	0.852454
C170	C	-0.138395	-0.813586	1.102454
C171	C	0.111605	-0.563586	1.352454
C172	C	0.361605	-0.313586	1.602454
C173	C	-0.388366	-1.063603	0.925231
C174	C	-0.138366	-0.813603	1.175231
C175	C	0.111634	-0.563603	1.425231
C176	C	0.361634	-0.313603	1.675231
C177	C	-0.388337	-1.063622	1.016545
C178	C	-0.138337	-0.813622	1.266545
C179	C	0.111663	-0.563622	1.516545
C180	C	0.361663	-0.313622	1.766545
H181	H	-0.295070	-0.633642	0.482156
H182	H	-0.045070	-0.383642	0.732156
H183	H	0.204930	-0.133642	0.982156
H184	H	0.454930	0.116358	1.232156
H185	H	-0.295079	-0.494215	0.482158
H186	H	-0.045079	-0.244215	0.732158
H187	H	0.204921	0.005785	0.982158
H188	H	0.454921	0.255785	1.232158
Cl189	Cl	-0.504760	-0.477081	0.271841
Cl190	Cl	-0.254760	-0.227081	0.521841
Cl191	Cl	-0.004760	0.022919	0.771841
Cl192	Cl	0.245240	0.272919	1.021841
Cl193	Cl	-0.504741	-0.650563	0.271819
Cl194	Cl	-0.254741	-0.400563	0.521819
Cl195	Cl	-0.004741	-0.150563	0.771819
Cl196	Cl	0.245259	0.099437	1.021819
