data_functionalizedCrystal
_audit_creation_method	'MofGen! by Chris Wilmer'
_symmetry_space_group_name_H-M	'P1'
_symmetry_Int_Tables_number	1
_symmetry_cell_setting	triclinic
loop_
_symmetry_equiv_pos_as_xyz
  x,y,z
_cell_length_a	14.908571
_cell_length_b	16.959454
_cell_length_c	14.908694
_cell_angle_alpha	93.271572
_cell_angle_beta	83.592472
_cell_angle_gamma	86.716421
loop_
_atom_site_label
_atom_site_type_symbol
_atom_site_fract_x
_atom_site_fract_y
_atom_site_fract_z
Zn1	Zn	1.413345	-0.416138	-0.591530
Zn2	Zn	1.404514	-0.540230	-0.440172
Zn3	Zn	1.253246	-0.399970	-0.431464
Zn4	Zn	1.261946	-0.540169	-0.582770
O5	O	1.333263	-0.474127	-0.511484
O6	O	1.538840	-0.439390	-0.578762
O7	O	1.377112	-0.514884	-0.312351
O8	O	1.274539	-0.291508	-0.452719
O9	O	1.532352	-0.530561	-0.467560
O10	O	1.392162	-0.303386	-0.570319
O11	O	1.265976	-0.411835	-0.305953
O12	O	1.127733	-0.411776	-0.444225
O13	O	1.289365	-0.530456	-0.710598
O14	O	1.134125	-0.514779	-0.555389
O15	O	1.400598	-0.439331	-0.717034
O16	O	1.385547	-0.650829	-0.459065
O17	O	1.280802	-0.650784	-0.563832
C18	C	1.098086	-0.461517	-0.497912
C19	C	0.997477	-0.456143	-0.492127
C20	C	0.815118	-0.553450	-0.596856
C21	C	0.720587	-0.548404	-0.591424
C22	C	0.713885	-0.440999	-0.475836
C23	C	0.808415	-0.446046	-0.481268
C24	C	0.859028	-0.502274	-0.541780
C25	C	0.953560	-0.507325	-0.547206
C26	C	0.946856	-0.399917	-0.431624
C27	C	0.852326	-0.394870	-0.426192
C28	C	1.333186	-0.679488	-0.511464
C29	C	1.333238	-0.767349	-0.511491
C30	C	1.278806	-1.138836	-0.566034
C31	C	1.387977	-1.138833	-0.457040
C32	C	1.387945	-1.056285	-0.457030
C33	C	1.333341	-1.015008	-0.511522
C34	C	1.278770	-1.056280	-0.566024
C35	C	1.442508	-1.015006	-0.402522
C36	C	1.442477	-0.932453	-0.402509
C37	C	1.387878	-0.891176	-0.457006
C38	C	1.333306	-0.932452	-0.511511
C39	C	1.278702	-0.891176	-0.566003
C40	C	1.224134	-0.932452	-0.620514
C41	C	1.224171	-1.015002	-0.620521
C42	C	1.387841	-0.808625	-0.456999
C43	C	1.278666	-0.808620	-0.565993
C44	C	1.569358	-0.486786	-0.525109
C45	C	1.669968	-0.492181	-0.530916
C46	C	1.346937	-0.486690	-0.747577
C47	C	1.352764	-0.492044	-0.848186
C48	C	1.333365	-0.267966	-0.511525
C49	C	1.333409	-0.180112	-0.511542
C50	C	1.247967	-0.394801	-1.030580
C51	C	1.253439	-0.399829	-1.125110
C52	C	1.369175	-0.507130	-1.131780
C53	C	1.363703	-0.502103	-1.037249
C54	C	1.303098	-0.445935	-0.986652
C55	C	1.297631	-0.440904	-0.892120
C56	C	1.413361	-0.548209	-0.898791
C57	C	1.418833	-0.553237	-0.993322
C58	C	1.319694	-0.461558	-0.276312
C59	C	1.314042	-0.455991	-0.175714
H60	H	0.811104	-0.349089	-0.376928
F61	F	0.673858	-0.602871	-0.650047
H62	H	1.432265	-0.775022	-0.412613
H63	H	1.208546	-0.358190	-1.160872
H64	H	1.179743	-1.048616	-0.664900
F65	F	0.993595	-0.345453	-0.372997
F66	F	1.220553	-0.764698	-0.623997
F67	F	1.446085	-1.182764	-0.399049
H68	H	0.672659	-0.395216	-0.426577
H69	H	1.179671	-0.898834	-0.664877
F70	F	1.220737	-1.182764	-0.624049
H71	H	0.994768	-0.553110	-0.596476
H72	H	1.486956	-1.048619	-0.358151
H73	H	1.418504	-0.552869	-1.172991
F74	F	0.868986	-0.613298	-0.661247
H75	H	1.486910	-0.898852	-0.358125
H76	H	1.248287	-0.395167	-0.850925
F77	F	1.483326	-0.613014	-1.047180
H78	H	1.458256	-0.589844	-0.863015
F79	F	1.183477	-0.335018	-0.976729
