data_functionalizedCrystal
_audit_creation_method	'MofGen! by Chris Wilmer'
_symmetry_space_group_name_H-M	'P1'
_symmetry_Int_Tables_number	1
_symmetry_cell_setting	triclinic
loop_
_symmetry_equiv_pos_as_xyz
  x,y,z
_cell_length_a	15.298708
_cell_length_b	25.639242
_cell_length_c	15.296720
_cell_angle_alpha	99.656660
_cell_angle_beta	107.326883
_cell_angle_gamma	99.698976
loop_
_atom_site_label
_atom_site_type_symbol
_atom_site_fract_x
_atom_site_fract_y
_atom_site_fract_z
Zn1	Zn	1.330665	-0.102608	-0.280192
Zn2	Zn	1.357516	-0.171759	-0.124723
Zn3	Zn	1.202081	-0.102643	-0.151573
Zn4	Zn	1.175176	-0.208323	-0.307039
O5	O	1.266360	-0.146333	-0.215882
O6	O	1.464350	-0.096465	-0.237097
O7	O	1.359394	-0.147303	0.001843
O8	O	1.219161	-0.029471	-0.168636
O9	O	1.484077	-0.147270	-0.122874
O10	O	1.313632	-0.029446	-0.263132
O11	O	1.245197	-0.096523	-0.017884
O12	O	1.068390	-0.131977	-0.194669
O13	O	1.173305	-0.209587	-0.433605
O14	O	1.048622	-0.209620	-0.308889
O15	O	1.287543	-0.131919	-0.413881
O16	O	1.333305	-0.249777	-0.148906
O17	O	1.199341	-0.276640	-0.282853
C18	C	1.024766	-0.174770	-0.257606
C19	C	0.921408	-0.186951	-0.275478
C20	C	1.266403	-0.009956	-0.215885
C21	C	1.266421	0.048160	-0.215886
C22	C	0.671056	-0.059433	-0.088378
C23	C	0.768166	-0.047986	-0.071587
C24	C	0.806481	-0.082726	-0.122558
C25	C	0.747677	-0.128916	-0.190323
C26	C	0.650556	-0.140362	-0.207120
C27	C	0.785982	-0.163655	-0.241301
C28	C	0.727177	-0.209845	-0.309066
C29	C	0.630067	-0.221289	-0.325859
C30	C	0.591751	-0.186549	-0.274888
C31	C	0.883102	-0.152209	-0.224503
C32	C	0.862603	-0.233138	-0.343246
C33	C	0.765493	-0.244585	-0.360036
C34	C	1.266339	-0.282179	-0.215895
C35	C	1.266409	-0.340288	-0.215917
C36	C	1.508896	-0.117785	-0.173995
C37	C	1.612251	-0.105620	-0.156146
C38	C	1.224428	-0.174828	-0.458427
C39	C	1.206559	-0.186970	-0.561786
C40	C	1.217211	0.408510	-0.166714
C41	C	1.217209	0.463114	-0.166719
O42	O	1.175354	0.491339	-0.124908
N43	N	1.266398	0.490437	-0.215916
C44	C	1.315584	0.463152	-0.265119
O45	O	1.357422	0.491406	-0.306966
C46	C	1.315580	0.408548	-0.265119
C47	C	1.266396	0.381229	-0.215911
C48	C	1.168030	0.381191	-0.117511
C49	C	1.168034	0.326592	-0.117505
C50	C	1.217218	0.299311	-0.166702
C51	C	1.266399	0.326630	-0.215905
C52	C	1.364760	0.381263	-0.314328
C53	C	1.364750	0.326655	-0.314324
C54	C	1.315566	0.299337	-0.265116
C55	C	1.315587	0.244749	-0.265097
N56	N	1.266398	0.217426	-0.215900
C57	C	1.217214	0.244707	-0.166703
C58	C	1.315588	0.577823	-0.265116
C59	C	1.315598	0.632427	-0.265111
C60	C	1.217222	0.632385	-0.166712
C61	C	1.217218	0.577781	-0.166712
C62	C	1.266399	0.550500	-0.215919
C63	C	1.217225	0.130044	-0.166693
C64	C	1.217236	0.075440	-0.166688
C65	C	1.315608	0.075486	-0.265091
C66	C	1.315602	0.130086	-0.265092
C67	C	1.266403	0.157363	-0.215891
O68	O	1.357417	0.216489	-0.306889
O69	O	1.175373	0.216444	-0.124873
C70	C	1.394106	-0.059452	-0.812057
C71	C	1.410901	-0.048043	-0.714946
C72	C	1.359817	-0.082774	-0.676651
C73	C	1.291935	-0.128915	-0.735477
C74	C	1.275144	-0.140327	-0.832597
C75	C	1.240854	-0.163649	-0.697191
C76	C	1.172973	-0.209791	-0.756017
C77	C	1.156185	-0.221200	-0.853127
C78	C	1.207269	-0.186470	-0.891422
C79	C	1.257646	-0.152237	-0.600071
C80	C	1.138683	-0.233113	-0.620611
C81	C	1.121889	-0.244521	-0.717722
C82	C	1.308182	-0.117905	0.025729
C83	C	1.326231	-0.105594	0.129118
H84	H	0.885553	-0.073403	-0.108884
H85	H	1.355663	0.152332	-0.305151
H86	H	1.177162	0.152247	-0.126631
H87	H	0.816038	-0.010380	-0.016411
H88	H	1.100919	-0.258775	-0.901020
H89	H	1.404809	0.403498	-0.354398
N90	N	0.943164	-0.105038	-0.155270
N91	N	1.007590	-0.110028	-0.086587
H92	H	1.050009	-0.076712	-0.037685
H93	H	0.717600	-0.282193	-0.415212
N94	N	0.901745	-0.268621	-0.395311
N95	N	0.988455	-0.258397	-0.380304
H96	H	1.016106	-0.283454	-0.417071
N97	N	0.631920	-0.023955	-0.036309
N98	N	0.657574	-0.015989	0.051379
H99	H	0.629935	0.009070	0.088157
H100	H	1.466172	-0.010476	-0.667056
N101	N	0.570016	-0.268473	-0.395080
N102	N	0.581960	-0.314692	-0.386893
H103	H	0.539552	-0.348017	-0.435781
H104	H	1.404792	0.304444	-0.354405
H105	H	1.177185	0.053200	-0.126614
H106	H	1.127980	0.304353	-0.077437
N107	N	1.166951	0.660249	-0.116481
N108	N	1.080080	0.643316	-0.137481
H109	H	1.044575	0.662994	-0.102010
H110	H	1.435697	-0.031182	-0.843246
H111	H	1.127974	0.403398	-0.077450
H112	H	1.193598	-0.195756	-0.970497
N113	N	0.492557	-0.198241	-0.292014
N114	N	0.458367	-0.167223	-0.246483
H115	H	0.388311	-0.175481	-0.258571
N116	N	1.365847	0.047607	-0.315333
N117	N	1.365833	-0.001145	-0.315318
H118	H	1.401310	-0.020838	-0.350806
H119	H	1.312915	-0.114668	-0.552184
N120	N	1.376983	-0.071115	-0.577453
N121	N	1.437591	-0.029916	-0.524941
H122	H	1.449716	-0.021678	-0.454878
H123	H	1.066619	-0.282090	-0.765632
N124	N	1.086507	-0.268588	-0.581489
N125	N	1.101505	-0.258393	-0.494780
H126	H	1.064660	-0.283445	-0.467143
H127	H	1.177166	0.555542	-0.126644
H128	H	1.355643	0.555615	-0.305185
N129	N	1.365861	0.660324	-0.315363
N130	N	1.409774	0.635954	-0.359279
H131	H	1.445271	0.655654	-0.394774
