data_functionalizedCrystal
_audit_creation_method	'MofGen! by Chris Wilmer'
_symmetry_space_group_name_H-M	'P1'
_symmetry_Int_Tables_number	1
_symmetry_cell_setting	triclinic
loop_
_symmetry_equiv_pos_as_xyz
  x,y,z
_cell_length_a	10.654554
_cell_length_b	9.130313
_cell_length_c	9.065218
_cell_angle_alpha	90.001444
_cell_angle_beta	84.751364
_cell_angle_gamma	89.999474
loop_
_atom_site_label
_atom_site_type_symbol
_atom_site_fract_x
_atom_site_fract_y
_atom_site_fract_z
O1	O	1.668652	-0.121799	0.207259
O2	O	1.303252	-0.121800	0.226996
O3	O	1.493505	-0.121797	0.002444
O4	O	1.478399	-0.121803	0.431811
O5	O	1.493502	0.121802	0.002454
O6	O	1.303249	0.121799	0.227006
O7	O	1.668649	0.121800	0.207269
Cu8	Cu	1.485949	0.144042	0.217139
Cu9	Cu	1.485952	-0.144042	0.217127
O10	O	1.478396	0.121796	0.431821
C11	C	1.256447	-0.000001	0.225551
C12	C	1.116987	-0.000001	0.221210
C13	C	0.933869	-0.000012	0.080837
C14	C	1.064907	-0.000001	0.084914
C15	C	1.038022	0.000003	0.353439
C16	C	0.906987	0.000003	0.349361
C17	C	0.881797	-0.000027	-0.055469
C18	C	0.960753	-0.000028	-0.187698
C19	C	1.091791	-0.000018	-0.183621
C20	C	1.143872	-0.000006	-0.047315
N21	N	1.485955	0.346664	0.217146
C22	C	1.570221	0.423318	0.117750
C23	C	1.570217	0.576655	0.117735
C24	C	1.401678	0.576671	0.316525
C25	C	1.401677	0.423337	0.316532
C26	C	1.654500	0.346645	0.018364
C27	C	1.738773	0.423299	-0.081039
C28	C	1.738769	0.576636	-0.081054
C29	C	1.654492	0.653319	0.018334
C30	C	1.715454	-0.000003	0.208715
C31	C	1.854914	-0.000012	0.213055
C32	C	1.492052	0.000000	-0.052529
C33	C	1.487711	-0.000007	-0.216349
N34	N	1.485953	0.653335	0.217124
C35	C	1.479850	-0.000004	0.486795
C36	C	1.484190	-0.000007	0.650614
H37	H	1.250573	0.000017	-0.044006
H38	H	1.156074	-0.000005	-0.291289
H39	H	0.775101	-0.000039	-0.058803
Cl40	Cl	1.654514	0.153880	0.018383
Cl41	Cl	1.103498	0.000008	0.524783
H42	H	1.333064	0.639116	0.397444
Cl43	Cl	0.807722	0.000015	0.515581
H44	H	1.333059	0.360925	0.397468
H45	H	0.918339	-0.000050	-0.298674
H46	H	1.807382	0.360855	-0.161966
Cl47	Cl	1.654482	0.846087	0.018295
Cl48	Cl	1.844700	0.672999	-0.206026
