data_functionalizedCrystal
_audit_creation_method	'MofGen! by Chris Wilmer'
_symmetry_space_group_name_H-M	'P1'
_symmetry_Int_Tables_number	1
_symmetry_cell_setting	triclinic
loop_
_symmetry_equiv_pos_as_xyz
  x,y,z
_cell_length_a	16.109301
_cell_length_b	15.186229
_cell_length_c	16.109301
_cell_angle_alpha	89.986602
_cell_angle_beta	96.538468
_cell_angle_gamma	90.005553
loop_
_atom_site_label
_atom_site_type_symbol
_atom_site_fract_x
_atom_site_fract_y
_atom_site_fract_z
O1	O	1.103135	0.073183	-0.106876
O2	O	1.603135	0.573183	0.393124
O3	O	0.861073	0.073196	-0.120176
O4	O	1.361073	0.573196	0.379824
O5	O	0.988754	0.073180	0.007505
O6	O	1.488754	0.573180	0.507505
O7	O	0.975454	0.073199	-0.234557
O8	O	1.475454	0.573199	0.265443
O9	O	0.988736	-0.073277	0.007526
O10	O	1.488736	0.426723	0.507526
O11	O	0.861056	-0.073262	-0.120155
O12	O	1.361056	0.426738	0.379845
O13	O	1.103118	-0.073274	-0.106856
O14	O	1.603118	0.426726	0.393144
Zn15	Zn	0.982084	-0.096521	-0.113502
Zn16	Zn	1.482084	0.403479	0.386498
Zn17	Zn	0.982107	0.096443	-0.113529
Zn18	Zn	1.482107	0.596443	0.386471
O19	O	0.975437	-0.073259	-0.234536
O20	O	1.475437	0.426741	0.265464
C21	C	0.830089	-0.000031	-0.119627
C22	C	1.330089	0.499969	0.380373
C23	C	0.737794	-0.000027	-0.118011
C24	C	1.237794	0.499973	0.381989
N25	N	0.982074	-0.228214	-0.113483
N26	N	1.482074	0.271786	0.386517
C27	C	0.428796	-0.000037	-0.188494
C28	C	0.928796	0.499963	0.311506
C29	C	0.515516	-0.000032	-0.190020
C30	C	1.015516	0.499968	0.309980
C31	C	0.535389	-0.000031	-0.038531
C32	C	1.035389	0.499969	0.461469
C33	C	0.448671	-0.000030	-0.037007
C34	C	0.948671	0.499970	0.462993
C35	C	0.395376	-0.000037	-0.111991
C36	C	0.895376	0.499963	0.388009
C37	C	0.568815	-0.000033	-0.115041
C38	C	1.068815	0.499967	0.384959
C39	C	0.662841	-0.000028	-0.116694
C40	C	1.162841	0.499972	0.383306
C41	C	0.301344	-0.000041	-0.110338
C42	C	0.801344	0.499959	0.389662
C43	C	0.931693	-0.546167	-0.063080
C44	C	1.431693	-0.046167	0.436920
C45	C	0.931686	-0.453978	-0.063068
C46	C	1.431686	0.046022	0.436932
C47	C	1.032510	-0.453918	-0.163947
C48	C	1.532510	0.046082	0.336053
C49	C	1.032520	-0.546106	-0.163954
C50	C	1.532520	-0.046106	0.336046
C51	C	0.982108	-0.592228	-0.113522
C52	C	1.482108	-0.092228	0.386478
C53	C	0.982090	-0.407850	-0.113503
C54	C	1.482090	0.092150	0.386497
C55	C	0.982082	-0.307894	-0.113490
C56	C	1.482082	0.192106	0.386510
C57	C	0.982116	-0.692191	-0.113533
C58	C	1.482116	-0.192191	0.386467
C59	C	1.134101	-0.000045	-0.107405
C60	C	1.634101	0.499955	0.392595
C61	C	1.226396	-0.000044	-0.109020
C62	C	1.726396	0.499956	0.390980
C63	C	0.988206	-0.000049	0.038490
C64	C	1.488206	0.499951	0.538490
C65	C	0.986591	-0.000050	0.130785
C66	C	1.486591	0.499950	0.630785
N67	N	0.982123	0.228135	-0.113542
N68	N	1.482123	0.728135	0.386458
C69	C	0.975984	-0.000028	-0.265522
C70	C	1.475984	0.499972	0.234478
C71	C	0.977599	-0.000021	-0.357817
C72	C	1.477599	0.499979	0.142183
C73	C	1.058599	-0.000040	0.353058
C74	C	1.558599	0.499960	0.853058
C75	C	1.057075	-0.000033	0.439778
C76	C	1.557075	0.499967	0.939778
C77	C	0.905586	-0.000028	0.419904
C78	C	1.405586	0.499972	0.919904
C79	C	0.907111	-0.000029	0.333185
C80	C	1.407111	0.499971	0.833185
C81	C	0.983620	-0.000040	0.299765
C82	C	1.483620	0.499960	0.799765
C83	C	0.980571	-0.000031	0.473204
C84	C	1.480571	0.499969	0.973204
C85	C	0.978918	-0.000023	0.567230
C86	C	1.478918	0.499977	1.067230
C87	C	0.985273	-0.000046	0.205733
C88	C	1.485273	0.499954	0.705733
H89	H	0.385405	-0.000042	-0.249551
H90	H	0.885405	0.499958	0.250449
C91	C	0.815997	0.075258	0.505890
C92	C	1.315997	0.575258	1.005890
C93	C	0.821492	-0.000027	0.456647
C94	C	1.321492	0.499973	0.956647
H95	H	0.764082	0.075252	0.528575
H96	H	1.264082	0.575252	1.028575
H97	H	0.819739	0.126322	0.472462
H98	H	1.319739	0.626322	0.972462
H99	H	0.860440	0.075248	0.550037
H100	H	1.360440	0.575248	1.050037
H101	H	0.777053	-0.000013	0.412495
H102	H	1.277053	0.499987	0.912495
H103	H	0.817743	-0.051104	0.490077
H104	H	1.317743	0.448896	0.990077
H105	H	0.421461	-0.000028	0.025296
H106	H	0.921461	0.499972	0.525296
C107	C	0.487156	-0.000045	-0.339604
C108	C	0.987156	0.499955	0.160396
C109	C	0.552251	-0.000037	-0.274115
C110	C	1.052251	0.499963	0.225885
H111	H	0.509836	-0.000053	-0.391522
H112	H	1.009836	0.499947	0.108478
H113	H	0.453751	0.051024	-0.335872
H114	H	0.953751	0.551024	0.164128
H115	H	0.453743	-0.051122	-0.335838
H116	H	0.953743	0.448878	0.164162
H117	H	0.585661	0.051044	-0.277878
H118	H	1.085661	0.551044	0.222122
H119	H	0.585671	-0.051111	-0.277849
H120	H	1.085671	0.448889	0.222151
C121	C	0.677148	-0.000044	0.026397
C122	C	1.177148	0.499956	0.526397
C123	C	0.593974	-0.000037	0.043889
C124	C	1.093974	0.499963	0.543889
H125	H	0.713313	-0.000055	0.077282
H126	H	1.213313	0.499945	0.577282
H127	H	0.687280	0.051027	-0.004976
H128	H	1.187280	0.551027	0.495024
H129	H	0.687262	-0.051120	-0.004967
H130	H	1.187262	0.448880	0.495033
H131	H	0.583859	0.051043	0.075247
H132	H	1.083859	0.551043	0.575247
H133	H	0.583838	-0.051113	0.075275
H134	H	1.083838	0.448887	0.575275
C135	C	0.820937	-0.075312	0.224138
C136	C	1.320937	0.424688	0.724138
C137	C	0.824689	-0.000027	0.274595
C138	C	1.324689	0.499973	0.774595
H139	H	0.770058	-0.075302	0.187964
H140	H	1.270058	0.424698	0.687964
H141	H	0.823477	-0.126376	0.258390
H142	H	1.323477	0.373624	0.758390
H143	H	0.866726	-0.075304	0.191830
H144	H	1.366726	0.424696	0.691830
H145	H	0.778904	-0.000038	0.306907
H146	H	1.278904	0.499962	0.806907
H147	H	0.822141	0.051050	0.240339
H148	H	1.322141	0.551050	0.740339
C149	C	1.128204	-0.000049	0.228949
C150	C	1.628204	0.499951	0.728949
C151	C	1.142695	-0.000043	0.316320
C152	C	1.642695	0.499957	0.816320
H153	H	1.180124	-0.000054	0.206273
H154	H	1.680124	0.499946	0.706273
H155	H	1.097341	0.051020	0.210648
H156	H	1.597341	0.551020	0.710648
H157	H	1.097329	-0.051126	0.210674
H158	H	1.597329	0.448874	0.710674
H159	H	1.173565	0.051038	0.334595
H160	H	1.673565	0.551038	0.834595
H161	H	1.173571	-0.051117	0.334629
H162	H	1.673571	0.448883	0.834629
H163	H	0.890645	-0.583717	-0.022015
H164	H	1.390645	-0.083717	0.477985
H165	H	1.118130	-0.000031	0.483167
H166	H	1.618130	0.499969	0.983167
C167	C	0.832020	-0.463303	0.036634
C168	C	1.332020	0.036697	0.536634
C169	C	0.876265	-0.403348	-0.007625
C170	C	1.376265	0.096652	0.492375
H171	H	0.797801	-0.432044	0.070860
H172	H	1.297801	0.067956	0.570860
H173	H	0.870291	-0.499261	0.070690
H174	H	1.370291	0.000739	0.570690
H175	H	0.797951	-0.499255	-0.001634
H176	H	1.297951	0.000745	0.498366
H177	H	0.910339	-0.367400	0.030644
H178	H	1.410339	0.132600	0.530644
H179	H	0.837989	-0.367374	-0.041683
H180	H	1.337989	0.132626	0.458317
H181	H	1.073553	-0.416354	-0.205008
H182	H	1.573553	0.083646	0.294992
C183	C	1.132177	-0.536794	-0.263678
C184	C	1.632177	-0.036794	0.236322
C185	C	1.087938	-0.596743	-0.219406
C186	C	1.587938	-0.096743	0.280594
H187	H	1.166384	-0.568057	-0.297912
H188	H	1.666384	-0.068057	0.202088
H189	H	1.166249	-0.500844	-0.225424
H190	H	1.666249	-0.000844	0.274576
H191	H	1.093896	-0.500833	-0.297735
H192	H	1.593896	-0.000833	0.202265
H193	H	1.126219	-0.632699	-0.185344
H194	H	1.626219	-0.132699	0.314656
H195	H	1.053863	-0.632708	-0.257665
H196	H	1.553863	-0.132708	0.242335
