data_functionalizedCrystal
_audit_creation_method	'MofGen! by Chris Wilmer'
_symmetry_space_group_name_H-M	'P1'
_symmetry_Int_Tables_number	1
_symmetry_cell_setting	triclinic
loop_
_symmetry_equiv_pos_as_xyz
  x,y,z
_cell_length_a	23.532355
_cell_length_b	23.532409
_cell_length_c	22.610064
_cell_angle_alpha	90.007112
_cell_angle_beta	89.997644
_cell_angle_gamma	82.838529
loop_
_atom_site_label
_atom_site_type_symbol
_atom_site_fract_x
_atom_site_fract_y
_atom_site_fract_z
O1	O	0.755283	0.068986	-0.049100
O2	O	1.005283	0.318986	0.200900
O3	O	1.255283	0.568986	0.450900
O4	O	1.505283	0.818986	0.700900
O5	O	0.589416	0.079020	-0.049119
O6	O	0.839416	0.329020	0.200881
O7	O	1.089416	0.579020	0.450881
O8	O	1.339416	0.829020	0.700881
O9	O	0.677351	-0.008929	-0.049110
O10	O	0.927351	0.241071	0.200890
O11	O	1.177351	0.491071	0.450890
O12	O	1.427351	0.741071	0.700890
O13	O	0.667348	0.156936	-0.049109
O14	O	0.917348	0.406936	0.200891
O15	O	1.167348	0.656936	0.450891
O16	O	1.417348	0.906936	0.700891
O17	O	0.677335	-0.008916	0.049259
O18	O	0.927335	0.241084	0.299259
O19	O	1.177335	0.491084	0.549259
O20	O	1.427335	0.741084	0.799259
O21	O	0.589400	0.079033	0.049251
O22	O	0.839400	0.329033	0.299251
O23	O	1.089400	0.579033	0.549251
O24	O	1.339400	0.829033	0.799251
O25	O	0.755268	0.068999	0.049269
O26	O	1.005268	0.318999	0.299269
O27	O	1.255268	0.568999	0.549269
O28	O	1.505268	0.818999	0.799269
Zn29	Zn	0.672331	0.074018	0.064878
Zn30	Zn	0.922331	0.324018	0.314878
Zn31	Zn	1.172331	0.574018	0.564878
Zn32	Zn	1.422331	0.824018	0.814878
Zn33	Zn	0.672352	0.074001	-0.064728
Zn34	Zn	0.922352	0.324001	0.185272
Zn35	Zn	1.172352	0.574001	0.435272
Zn36	Zn	1.422352	0.824001	0.685272
O37	O	0.667333	0.156949	0.049260
O38	O	0.917333	0.406949	0.299260
O39	O	1.167333	0.656949	0.549260
O40	O	1.417333	0.906949	0.799260
C41	C	0.568191	0.078776	0.000064
C42	C	0.818191	0.328776	0.250064
C43	C	1.068191	0.578776	0.500064
C44	C	1.318191	0.828776	0.750064
C45	C	0.504973	0.078022	0.000056
C46	C	0.754973	0.328022	0.250056
C47	C	1.004973	0.578022	0.500056
C48	C	1.254973	0.828022	0.750056
C49	C	0.112950	0.073291	0.053702
C50	C	0.362950	0.323291	0.303702
C51	C	0.612950	0.573291	0.553702
C52	C	0.862950	0.823291	0.803702
C53	C	0.053551	0.072573	0.053704
C54	C	0.303551	0.322573	0.303704
C55	C	0.553551	0.572573	0.553704
C56	C	0.803551	0.822573	0.803704
O57	O	0.022825	0.072189	0.099307
O58	O	0.272825	0.322189	0.349307
O59	O	0.522825	0.572189	0.599307
O60	O	0.772825	0.822189	0.849307
N61	N	0.023851	0.072211	0.000084
N62	N	0.273851	0.322211	0.250084
N63	N	0.523851	0.572211	0.500084
N64	N	0.773851	0.822211	0.750084
C65	C	0.053554	0.072560	-0.053543
C66	C	0.303554	0.322560	0.196457
C67	C	0.553554	0.572560	0.446457
C68	C	0.803554	0.822560	0.696457
O69	O	0.022838	0.072185	-0.099152
O70	O	0.272838	0.322185	0.150848
O71	O	0.522838	0.572185	0.400848
O72	O	0.772838	0.822185	0.650848
C73	C	0.112953	0.073273	-0.053545
C74	C	0.362953	0.323273	0.196455
C75	C	0.612953	0.573273	0.446455
C76	C	0.862953	0.823273	0.696455
C77	C	0.142649	0.073641	0.000080
C78	C	0.392649	0.323641	0.250080
C79	C	0.642649	0.573641	0.500080
C80	C	0.892649	0.823641	0.750080
C81	C	0.142647	0.073659	0.107322
C82	C	0.392647	0.323659	0.357322
C83	C	0.642647	0.573659	0.607322
C84	C	0.892647	0.823659	0.857322
C85	C	0.202042	0.074377	0.107320
C86	C	0.452042	0.324377	0.357320
C87	C	0.702042	0.574377	0.607320
C88	C	0.952042	0.824377	0.857320
C89	C	0.231741	0.074728	0.053697
C90	C	0.481741	0.324728	0.303697
C91	C	0.731741	0.574728	0.553697
C92	C	0.981741	0.824728	0.803697
C93	C	0.202044	0.074360	0.000077
C94	C	0.452044	0.324360	0.250077
C95	C	0.702044	0.574360	0.500077
C96	C	0.952044	0.824360	0.750077
C97	C	0.142656	0.073618	-0.107171
C98	C	0.392656	0.323618	0.142829
C99	C	0.642656	0.573618	0.392829
C100	C	0.892656	0.823618	0.642829
C101	C	0.202059	0.074331	-0.107168
C102	C	0.452059	0.324331	0.142832
C103	C	0.702059	0.574331	0.392832
C104	C	0.952059	0.824331	0.642832
C105	C	0.231755	0.074699	-0.053543
C106	C	0.481755	0.324699	0.196457
C107	C	0.731755	0.574699	0.446457
C108	C	0.981755	0.824699	0.696457
C109	C	0.291139	0.075429	-0.053548
C110	C	0.541139	0.325429	0.196452
C111	C	0.791139	0.575429	0.446452
C112	C	1.041139	0.825429	0.696452
N113	N	0.320839	0.075792	0.000073
N114	N	0.570839	0.325792	0.250073
N115	N	0.820839	0.575792	0.500073
N116	N	1.070839	0.825792	0.750073
C117	C	0.291140	0.075441	0.053696
C118	C	0.541140	0.325441	0.303696
C119	C	0.791140	0.575441	0.553696
C120	C	1.041140	0.825441	0.803696
C121	C	-0.071187	0.071060	-0.053535
C122	C	0.178813	0.321060	0.196465
C123	C	0.428813	0.571060	0.446465
C124	C	0.678813	0.821060	0.696465
C125	C	-0.130586	0.070351	-0.053534
C126	C	0.119414	0.320351	0.196466
C127	C	0.369414	0.570351	0.446466
C128	C	0.619414	0.820351	0.696466
C129	C	-0.130585	0.070364	0.053713
C130	C	0.119415	0.320364	0.303713
C131	C	0.369415	0.570364	0.553713
C132	C	0.619415	0.820364	0.803713
C133	C	-0.071186	0.071077	0.053712
C134	C	0.178814	0.321077	0.303712
C135	C	0.428814	0.571077	0.553712
C136	C	0.678814	0.821077	0.803712
C137	C	-0.041487	0.071423	0.000085
C138	C	0.208513	0.321423	0.250085
C139	C	0.458513	0.571423	0.500085
C140	C	0.708513	0.821423	0.750085
C141	C	0.415874	0.076950	0.053686
C142	C	0.665874	0.326950	0.303686
C143	C	0.915874	0.576950	0.553686
C144	C	1.165874	0.826950	0.803686
C145	C	0.475274	0.077671	0.053679
C146	C	0.725274	0.327671	0.303679
C147	C	0.975274	0.577671	0.553679
C148	C	1.225274	0.827671	0.803679
C149	C	0.475268	0.077655	-0.053568
C150	C	0.725268	0.327655	0.196432
C151	C	0.975268	0.577655	0.446432
C152	C	1.225268	0.827655	0.696432
C153	C	0.415873	0.076938	-0.053562
C154	C	0.665873	0.326938	0.196438
C155	C	0.915873	0.576938	0.446438
C156	C	1.165873	0.826938	0.696438
C157	C	0.386177	0.076583	0.000071
C158	C	0.636177	0.326583	0.250071
C159	C	0.886177	0.576583	0.500071
C160	C	1.136177	0.826583	0.750071
O161	O	0.321902	0.075811	-0.099127
O162	O	0.571902	0.325811	0.150873
O163	O	0.821902	0.575811	0.400873
O164	O	1.071902	0.825811	0.650873
O165	O	0.321864	0.075809	0.099296
O166	O	0.571864	0.325809	0.349296
O167	O	0.821864	0.575809	0.599296
O168	O	1.071864	0.825809	0.849296
C169	C	0.677088	-0.030139	0.000073
C170	C	0.927088	0.219861	0.250073
C171	C	1.177088	0.469861	0.500073
C172	C	1.427088	0.719861	0.750073
C173	C	0.676322	-0.093356	0.000069
C174	C	0.926322	0.156644	0.250069
C175	C	1.176322	0.406644	0.500069
C176	C	1.426322	0.656644	0.750069
C177	C	0.673071	-0.366607	-0.053555
C178	C	0.923071	-0.116607	0.196445
C179	C	1.173071	0.133393	0.446445
C180	C	1.423071	0.383393	0.696445
C181	C	0.673783	-0.307207	-0.053555
C182	C	0.923783	-0.057207	0.196445
C183	C	1.173783	0.192793	0.446445
C184	C	1.423783	0.442793	0.696445
O185	O	0.674178	-0.276488	-0.099156
O186	O	0.924178	-0.026488	0.150844
O187	O	1.174178	0.223512	0.400844
O188	O	1.424178	0.473512	0.650844
N189	N	0.674126	-0.277498	0.000067
N190	N	0.924126	-0.027498	0.250067
N191	N	1.174126	0.222502	0.500067
N192	N	1.424126	0.472502	0.750067
C193	C	0.673764	-0.307193	0.053692
C194	C	0.923764	-0.057193	0.303692
C195	C	1.173764	0.192807	0.553692
C196	C	1.423764	0.442807	0.803692
O197	O	0.674123	-0.276469	0.099302
O198	O	0.924123	-0.026469	0.349302
O199	O	1.174123	0.223531	0.599302
O200	O	1.424123	0.473531	0.849302
C201	C	0.673057	-0.366592	0.053692
C202	C	0.923057	-0.116592	0.303692
C203	C	1.173057	0.133408	0.553692
C204	C	1.423057	0.383408	0.803692
C205	C	0.672707	-0.396297	0.000066
C206	C	0.922707	-0.146297	0.250066
C207	C	1.172707	0.103703	0.500066
C208	C	1.422707	0.353703	0.750066
C209	C	0.672722	-0.396312	-0.107176
C210	C	0.922722	-0.146312	0.142824
C211	C	1.172722	0.103688	0.392824
C212	C	1.422722	0.353688	0.642824
C213	C	0.672009	-0.455708	-0.107176
C214	C	0.922009	-0.205708	0.142824
C215	C	1.172009	0.044292	0.392824
C216	C	1.422009	0.294292	0.642824
C217	C	0.671646	-0.485399	-0.053554
C218	C	0.921646	-0.235399	0.196446
C219	C	1.171646	0.014601	0.446446
C220	C	1.421646	0.264601	0.696446
C221	C	0.671994	-0.455693	0.000067
C222	C	0.921994	-0.205693	0.250067
C223	C	1.171994	0.044307	0.500067
C224	C	1.421994	0.294307	0.750067
C225	C	0.672699	-0.396287	0.107317
C226	C	0.922699	-0.146287	0.357317
C227	C	1.172699	0.103713	0.607317
C228	C	1.422699	0.353713	0.857317
C229	C	0.671992	-0.455690	0.107312
C230	C	0.921992	-0.205690	0.357312
C231	C	1.171992	0.044310	0.607312
C232	C	1.421992	0.294310	0.857312
C233	C	0.671642	-0.485395	0.053686
C234	C	0.921642	-0.235395	0.303686
C235	C	1.171642	0.014605	0.553686
C236	C	1.421642	0.264605	0.803686
C237	C	0.670918	-0.544780	0.053688
C238	C	0.920918	-0.294780	0.303688
C239	C	1.170918	-0.044780	0.553688
C240	C	1.420918	0.205220	0.803688
N241	N	0.670574	-0.574489	0.000066
N242	N	0.920574	-0.324489	0.250066
N243	N	1.170574	-0.074489	0.500066
N244	N	1.420574	0.175511	0.750066
C245	C	0.670938	-0.544798	-0.053555
C246	C	0.920938	-0.294798	0.196445
C247	C	1.170938	-0.044798	0.446445
C248	C	1.420938	0.205202	0.696445
C249	C	0.675251	-0.182450	0.053690
C250	C	0.925251	0.067550	0.303690
C251	C	1.175251	0.317550	0.553690
C252	C	1.425251	0.567550	0.803690
C253	C	0.675955	-0.123051	0.053691
C254	C	0.925955	0.126949	0.303691
C255	C	1.175955	0.376949	0.553691
C256	C	1.425955	0.626949	0.803691
C257	C	0.675974	-0.123069	-0.053557
C258	C	0.925974	0.126931	0.196443
C259	C	1.175974	0.376931	0.446443
C260	C	1.425974	0.626931	0.696443
C261	C	0.675266	-0.182469	-0.053558
C262	C	0.925266	0.067531	0.196442
C263	C	1.175266	0.317531	0.446442
C264	C	1.425266	0.567531	0.696442
C265	C	0.674907	-0.212159	0.000068
C266	C	0.924907	0.037841	0.250068
C267	C	1.174907	0.287841	0.500068
C268	C	1.424907	0.537841	0.750068
C269	C	0.669441	-0.669534	-0.053550
C270	C	0.919441	-0.419534	0.196450
C271	C	1.169441	-0.169534	0.446450
C272	C	1.419441	0.080466	0.696450
C273	C	0.668726	-0.728934	-0.053545
C274	C	0.918726	-0.478934	0.196455
C275	C	1.168726	-0.228934	0.446455
C276	C	1.418726	0.021066	0.696455
C277	C	0.668709	-0.728911	0.053702
C278	C	0.918709	-0.478911	0.303702
C279	C	1.168709	-0.228911	0.553702
C280	C	1.418709	0.021089	0.803702
C281	C	0.669421	-0.669515	0.053697
C282	C	0.919421	-0.419515	0.303697
C283	C	1.169421	-0.169515	0.553697
C284	C	1.419421	0.080485	0.803697
C285	C	0.669789	-0.639828	0.000066
C286	C	0.919789	-0.389828	0.250066
C287	C	1.169789	-0.139828	0.500066
C288	C	1.419789	0.110172	0.750066
O289	O	0.670525	-0.575536	0.099266
O290	O	0.920525	-0.325536	0.349266
O291	O	1.170525	-0.075536	0.599266
O292	O	1.420525	0.174464	0.849266
O293	O	0.670587	-0.575531	-0.099157
O294	O	0.920587	-0.325531	0.150843
O295	O	1.170587	-0.075531	0.400843
O296	O	1.420587	0.174469	0.650843
C297	C	0.776492	0.069243	0.000085
C298	C	1.026492	0.319243	0.250085
C299	C	1.276492	0.569243	0.500085
C300	C	1.526492	0.819243	0.750085
C301	C	0.839711	0.069998	0.000089
C302	C	1.089711	0.319998	0.250089
C303	C	1.339711	0.569998	0.500089
C304	C	1.589711	0.819998	0.750089
C305	C	0.667595	0.178158	0.000075
C306	C	0.917595	0.428158	0.250075
C307	C	1.167595	0.678158	0.500075
C308	C	1.417595	0.928158	0.750075
C309	C	0.668362	0.241375	0.000076
C310	C	0.918362	0.491375	0.250076
C311	C	1.168362	0.741375	0.500076
C312	C	1.418362	0.991375	0.750076
N313	N	0.672322	0.074029	0.153330
N314	N	0.922322	0.324029	0.403330
N315	N	1.172322	0.574029	0.653330
N316	N	1.422322	0.824029	0.903330
N317	N	0.672366	0.073986	-0.153180
N318	N	0.922366	0.323986	0.096820
N319	N	1.172366	0.573986	0.346820
N320	N	1.422366	0.823986	0.596820
C321	C	0.711291	0.035063	0.561976
C322	C	0.961291	0.285063	0.811976
C323	C	1.211291	0.535063	1.061976
C324	C	1.461291	0.785063	1.311976
C325	C	0.711294	0.035059	0.623896
C326	C	0.961294	0.285059	0.873896
C327	C	1.211294	0.535059	1.123896
C328	C	1.461294	0.785059	1.373896
O329	O	0.744403	0.001937	0.655918
O330	O	0.994403	0.251937	0.905918
O331	O	1.244403	0.501937	1.155918
O332	O	1.494403	0.751937	1.405918
N333	N	0.672352	0.073989	0.654867
N334	N	0.922352	0.323989	0.904867
N335	N	1.172352	0.573989	1.154867
N336	N	1.422352	0.823989	1.404867
C337	C	0.633400	0.112923	0.623916
C338	C	0.883400	0.362923	0.873916
C339	C	1.133400	0.612923	1.123916
C340	C	1.383400	0.862923	1.373916
O341	O	0.600276	0.146035	0.655946
O342	O	0.850276	0.396035	0.905946
O343	O	1.100276	0.646035	1.155946
O344	O	1.350276	0.896035	1.405946
C345	C	0.633394	0.112924	0.561997
C346	C	0.883394	0.362924	0.811997
C347	C	1.133394	0.612924	1.061997
C348	C	1.383394	0.862924	1.311997
C349	C	0.672343	0.073995	0.531029
C350	C	0.922343	0.323995	0.781029
C351	C	1.172343	0.573995	1.031029
C352	C	1.422343	0.823995	1.281029
C353	C	0.750237	-0.003863	0.531007
C354	C	1.000237	0.246137	0.781007
C355	C	1.250237	0.496137	1.031007
C356	C	1.500237	0.746137	1.281007
C357	C	0.750234	-0.003858	0.469091
C358	C	1.000234	0.246142	0.719091
C359	C	1.250234	0.496142	0.969091
C360	C	1.500234	0.746142	1.219091
C361	C	0.711286	0.035073	0.438144
C362	C	0.961286	0.285073	0.688144
C363	C	1.211286	0.535073	0.938144
C364	C	1.461286	0.785073	1.188144
C365	C	0.672341	0.074000	0.469113
C366	C	0.922341	0.324000	0.719113
C367	C	1.172341	0.574000	0.969113
C368	C	1.422341	0.824000	1.219113
C369	C	0.594440	0.151854	0.531047
C370	C	0.844440	0.401854	0.781047
C371	C	1.094440	0.651854	1.031047
C372	C	1.344440	0.901854	1.281047
C373	C	0.594438	0.151851	0.469124
C374	C	0.844438	0.401851	0.719124
C375	C	1.094438	0.651851	0.969124
C376	C	1.344438	0.901851	1.219124
C377	C	0.633387	0.112922	0.438156
C378	C	0.883387	0.362922	0.688156
C379	C	1.133387	0.612922	0.938156
C380	C	1.383387	0.862922	1.188156
C381	C	0.633391	0.112936	0.376251
C382	C	0.883391	0.362936	0.626251
C383	C	1.133391	0.612936	0.876251
C384	C	1.383391	0.862936	1.126251
N385	N	0.672334	0.074006	0.345279
N386	N	0.922334	0.324006	0.595279
N387	N	1.172334	0.574006	0.845279
N388	N	1.422334	0.824006	1.095279
C389	C	0.711281	0.035074	0.376226
C390	C	0.961281	0.285074	0.626226
C391	C	1.211281	0.535074	0.876226
C392	C	1.461281	0.785074	1.126226
C393	C	0.633413	0.112917	0.753950
C394	C	0.883413	0.362917	1.003950
C395	C	1.133413	0.612917	1.253950
C396	C	1.383413	0.862917	1.503950
C397	C	0.633420	0.112919	0.815868
C398	C	0.883420	0.362919	1.065868
C399	C	1.133420	0.612919	1.315868
C400	C	1.383420	0.862919	1.565868
C401	C	0.711314	0.035055	0.815843
C402	C	0.961314	0.285055	1.065843
C403	C	1.211314	0.535055	1.315843
C404	C	1.461314	0.785055	1.565843
C405	C	0.711309	0.035056	0.753924
C406	C	0.961309	0.285056	1.003924
C407	C	1.211309	0.535056	1.253924
C408	C	1.461309	0.785056	1.503924
C409	C	0.672355	0.073987	0.722978
C410	C	0.922355	0.323987	0.972978
C411	C	1.172355	0.573987	1.222978
C412	C	1.422355	0.823987	1.472978
C413	C	0.711274	0.035088	0.246198
C414	C	0.961274	0.285088	0.496198
C415	C	1.211274	0.535088	0.746198
C416	C	1.461274	0.785088	0.996198
C417	C	0.711269	0.035098	0.184277
C418	C	0.961269	0.285098	0.434277
C419	C	1.211269	0.535098	0.684277
C420	C	1.461269	0.785098	0.934277
C421	C	0.633374	0.112960	0.184308
C422	C	0.883374	0.362960	0.434308
C423	C	1.133374	0.612960	0.684308
C424	C	1.383374	0.862960	0.934308
C425	C	0.633380	0.112953	0.246223
C426	C	0.883380	0.362953	0.496223
C427	C	1.133380	0.612953	0.746223
C428	C	1.383380	0.862953	0.996223
C429	C	0.672332	0.074012	0.277167
C430	C	0.922332	0.324012	0.527167
C431	C	1.172332	0.574012	0.777167
C432	C	1.422332	0.824012	1.027167
O433	O	0.600297	0.146040	0.344189
O434	O	0.850297	0.396040	0.594189
O435	O	1.100297	0.646040	0.844189
O436	O	1.350297	0.896040	1.094189
O437	O	0.744395	0.001962	0.344188
O438	O	0.994395	0.251962	0.594188
O439	O	1.244395	0.501962	0.844188
O440	O	1.494395	0.751962	1.094188
H441	H	0.118488	0.073317	-0.150837
H442	H	0.368488	0.323317	0.099163
H443	H	0.618488	0.573317	0.349163
H444	H	0.868488	0.823317	0.599163
H445	H	0.562724	0.183553	0.556253
H446	H	0.812724	0.433553	0.806253
H447	H	1.062724	0.683553	1.056253
H448	H	1.312724	0.933553	1.306253
Cl449	Cl	0.239366	0.074836	0.174737
Cl450	Cl	0.489366	0.324836	0.424737
Cl451	Cl	0.739366	0.574836	0.674737
Cl452	Cl	0.989366	0.824836	0.924737
Cl453	Cl	-0.167912	0.069899	-0.120951
Cl454	Cl	0.082088	0.319899	0.129049
Cl455	Cl	0.332088	0.569899	0.379049
Cl456	Cl	0.582088	0.819899	0.629049
Cl457	Cl	0.674793	-0.219768	0.121111
Cl458	Cl	0.924793	0.030232	0.371111
Cl459	Cl	1.174793	0.280232	0.621111
Cl460	Cl	1.424793	0.530232	0.871111
Cl461	Cl	0.671577	-0.493044	-0.174595
Cl462	Cl	0.921577	-0.243044	0.075405
Cl463	Cl	1.171577	0.006956	0.325405
Cl464	Cl	1.421577	0.256956	0.575405
Cl465	Cl	0.669860	-0.632170	0.121113
Cl466	Cl	0.919860	-0.382170	0.371113
Cl467	Cl	1.169860	-0.132170	0.621113
Cl468	Cl	1.419860	0.117830	0.871113
Cl469	Cl	0.584461	0.161868	0.854793
Cl470	Cl	0.834461	0.411868	1.104793
Cl471	Cl	1.084461	0.661868	1.354793
Cl472	Cl	1.334461	0.911868	1.604793
H473	H	0.669741	-0.645370	-0.097222
H474	H	0.919741	-0.395370	0.152778
H475	H	1.169741	-0.145370	0.402778
H476	H	1.419741	0.104630	0.652778
Cl477	Cl	0.760276	-0.013889	0.854760
Cl478	Cl	1.010276	0.236111	1.104760
Cl479	Cl	1.260276	0.486111	1.354760
Cl480	Cl	1.510276	0.736111	1.604760
H481	H	0.668411	-0.753096	0.097359
H482	H	0.918411	-0.503096	0.347359
H483	H	1.168411	-0.253096	0.597359
H484	H	1.418411	-0.003096	0.847359
H485	H	0.601669	0.144658	0.271438
H486	H	0.851669	0.394658	0.521438
H487	H	1.101669	0.644658	0.771438
H488	H	1.351669	0.894658	1.021438
H489	H	0.601693	0.144624	0.728757
H490	H	0.851693	0.394624	0.978757
H491	H	1.101693	0.644624	1.228757
H492	H	1.351693	0.894624	1.478757
H493	H	-0.154776	0.070078	0.097376
H494	H	0.095224	0.320078	0.347376
H495	H	0.345224	0.570078	0.597376
H496	H	0.595224	0.820078	0.847376
H497	H	0.226236	0.074613	-0.150838
H498	H	0.476236	0.324613	0.099162
H499	H	0.726236	0.574613	0.349162
H500	H	0.976236	0.824613	0.599162
H501	H	0.562716	0.183553	0.443931
H502	H	0.812716	0.433553	0.693931
H503	H	1.062716	0.683553	0.943931
H504	H	1.312716	0.933553	1.193931
H505	H	0.672989	-0.372112	0.150984
H506	H	0.922989	-0.122112	0.400984
H507	H	1.172989	0.127888	0.650984
H508	H	1.422989	0.377888	0.900984
H509	H	0.118472	0.073372	0.150991
H510	H	0.368472	0.323372	0.400991
H511	H	0.618472	0.573372	0.650991
H512	H	0.868472	0.823372	0.900991
H513	H	0.668439	-0.753117	-0.097216
H514	H	0.918439	-0.503117	0.152784
H515	H	1.168439	-0.253117	0.402784
H516	H	1.418439	-0.003117	0.652784
Cl517	Cl	0.584413	0.161901	0.145393
Cl518	Cl	0.834413	0.411901	0.395393
Cl519	Cl	1.084413	0.661901	0.645393
Cl520	Cl	1.334413	0.911901	0.895393
H521	H	0.781953	-0.035569	0.556198
H522	H	1.031953	0.214431	0.806198
H523	H	1.281953	0.464431	1.056198
H524	H	1.531953	0.714431	1.306198
Cl525	Cl	0.671542	-0.493012	0.174731
Cl526	Cl	0.921542	-0.243012	0.424731
Cl527	Cl	1.171542	0.006988	0.674731
Cl528	Cl	1.421542	0.256988	0.924731
Cl529	Cl	0.760244	-0.013866	0.285089
Cl530	Cl	1.010244	0.236134	0.535089
Cl531	Cl	1.260244	0.486134	0.785089
Cl532	Cl	1.510244	0.736134	1.035089
H533	H	-0.047011	0.071378	0.097377
H534	H	0.202989	0.321378	0.347377
H535	H	0.452989	0.571378	0.597377
H536	H	0.702989	0.821378	0.847377
H537	H	0.391692	0.076647	-0.097227
H538	H	0.641692	0.326647	0.152773
H539	H	0.891692	0.576647	0.402773
H540	H	1.141692	0.826647	0.652773
H541	H	-0.047011	0.071347	-0.097207
H542	H	0.202989	0.321347	0.152793
H543	H	0.452989	0.571347	0.402793
H544	H	0.702989	0.821347	0.652793
H545	H	0.743024	0.003356	0.728713
H546	H	0.993024	0.253356	0.978713
H547	H	1.243024	0.503356	1.228713
H548	H	1.493024	0.753356	1.478713
H549	H	0.499459	0.077943	-0.097226
H550	H	0.749459	0.327943	0.152774
H551	H	0.999459	0.577943	0.402774
H552	H	1.249459	0.827943	0.652774
H553	H	0.781948	-0.035559	0.443880
H554	H	1.031948	0.214441	0.693880
H555	H	1.281948	0.464441	0.943880
H556	H	1.531948	0.714441	1.193880
H557	H	0.673020	-0.372145	-0.150844
H558	H	0.923020	-0.122145	0.099156
H559	H	1.173020	0.127855	0.349156
H560	H	1.423020	0.377855	0.599156
H561	H	0.499450	0.077973	0.097348
H562	H	0.749450	0.327973	0.347348
H563	H	0.999450	0.577973	0.597348
H564	H	1.249450	0.827973	0.847348
Cl565	Cl	0.674829	-0.219806	-0.120975
Cl566	Cl	0.924829	0.030194	0.129025
Cl567	Cl	1.174829	0.280194	0.379025
Cl568	Cl	1.424829	0.530194	0.629025
Cl569	Cl	0.676420	-0.085731	-0.120967
Cl570	Cl	0.926420	0.164269	0.129033
Cl571	Cl	1.176420	0.414269	0.379033
Cl572	Cl	1.426420	0.664269	0.629033
H573	H	0.742988	0.003397	0.159064
H574	H	0.992988	0.253397	0.409064
H575	H	1.242988	0.503397	0.659064
H576	H	1.492988	0.753397	0.909064
Cl577	Cl	0.378552	0.076505	0.121110
Cl578	Cl	0.628552	0.326505	0.371110
Cl579	Cl	0.878552	0.576505	0.621110
Cl580	Cl	1.128552	0.826505	0.871110
Cl581	Cl	0.676380	-0.085713	0.121109
Cl582	Cl	0.926380	0.164287	0.371109
Cl583	Cl	1.176380	0.414287	0.621109
Cl584	Cl	1.426380	0.664287	0.871109
