data_functionalizedCrystal
_audit_creation_method	'MofGen! by Chris Wilmer'
_symmetry_space_group_name_H-M	'P1'
_symmetry_Int_Tables_number	1
_symmetry_cell_setting	triclinic
loop_
_symmetry_equiv_pos_as_xyz
  x,y,z
_cell_length_a	19.902436
_cell_length_b	20.875641
_cell_length_c	20.875641
_cell_angle_alpha	90.154292
_cell_angle_beta	62.443022
_cell_angle_gamma	57.584284
loop_
_atom_site_label
_atom_site_type_symbol
_atom_site_fract_x
_atom_site_fract_y
_atom_site_fract_z
Zr1	Zr	0.681512	0.643635	-0.058412
O2	O	0.821693	0.541198	-0.160830
O3	O	0.541331	0.675047	-0.027017
O4	O	0.671224	0.679942	-0.155924
O5	O	0.699915	0.532431	0.069763
O6	O	0.663108	0.789376	-0.152053
O7	O	0.691800	0.536303	-0.031923
O8	O	0.430753	0.780620	0.078538
O9	O	0.932270	0.541187	-0.160828
O10	O	0.592932	0.770102	-0.010736
O11	O	0.605045	0.685544	0.062261
O12	O	0.757978	0.691307	-0.089510
O13	O	0.770091	0.606748	-0.016512
Zr14	Zr	0.681511	0.811995	0.109940
Zr15	Zr	0.668568	0.818170	-0.052238
Zr16	Zr	0.694454	0.637461	0.103765
Zr17	Zr	0.857870	0.643619	-0.058409
Zr18	Zr	0.505153	0.812012	0.109937
O19	O	0.821692	0.780583	0.078545
O20	O	0.803289	0.789363	-0.152050
O21	O	0.840096	0.532418	0.069766
O22	O	0.541330	0.914433	0.212358
O23	O	0.522927	0.923213	-0.018238
O24	O	0.559733	0.666267	0.203578
O25	O	0.663108	0.923199	-0.018235
O26	O	0.691799	0.775688	0.207452
O27	O	0.699914	0.666254	0.203581
O28	O	0.671223	0.919328	0.083451
O29	O	0.921982	0.679918	-0.155920
O30	O	0.441041	0.775712	0.207448
O31	O	0.430752	0.914443	0.212356
O32	O	0.420465	0.919351	0.083446
O33	O	0.942558	0.536279	-0.031919
O34	O	0.932270	0.675010	-0.027010
O35	O	0.605045	0.764323	0.141038
O36	O	0.592932	0.848882	0.068040
O37	O	0.757978	0.770087	-0.010734
O38	O	0.770090	0.685528	0.062264
C39	C	0.460914	0.727836	0.025760
C40	C	0.386046	0.727843	0.025759
C41	C	0.114038	0.727806	0.025766
C42	C	0.135137	0.780909	-0.020520
C43	C	0.212746	0.781188	-0.020304
C44	C	0.248985	0.727824	0.025762
C45	C	0.160697	0.762262	0.109548
C46	C	0.082705	0.762649	0.109300
C47	C	0.209873	0.640217	-0.011071
C48	C	0.288468	0.640419	-0.012737
C49	C	0.325249	0.727834	0.025764
C50	C	0.037770	0.727799	0.025770
C51	C	0.697701	0.509499	0.018040
C52	C	0.703196	0.435405	0.015419
C53	C	0.665322	0.735539	-0.177096
C54	C	0.659828	0.738160	-0.245944
C55	C	0.902108	0.727794	0.025768
C56	C	0.976977	0.727787	0.025769
C57	C	0.619628	0.441724	0.055303
C58	C	0.624796	0.372101	0.052838
C59	C	0.713534	0.296161	0.010485
C60	C	0.797109	0.289844	-0.029400
C61	C	0.791940	0.359466	-0.026930
C62	C	0.738232	0.083530	-0.001306
C63	C	0.743395	0.013907	-0.003775
C64	C	0.571082	0.096169	0.078465
C65	C	0.565920	0.165788	0.080927
C66	C	0.649495	0.159465	0.041045
N67	N	0.718819	0.224995	0.007962
N68	N	0.644210	0.230630	0.043573
C69	C	0.665321	0.946131	0.033488
C70	C	0.659827	1.020225	0.036109
C71	C	0.743396	0.698263	-0.319408
C72	C	0.738227	0.700736	-0.384096
C73	C	0.649489	0.743103	-0.375318
C74	C	0.565914	0.783006	-0.301846
C75	C	0.571084	0.780537	-0.237160
C76	C	0.624790	0.754903	-0.564370
C77	C	0.619627	0.757367	-0.629064
C78	C	0.791940	0.675099	-0.711309
C79	C	0.797102	0.672629	-0.646618
C80	C	0.713527	0.712535	-0.573152
N81	N	0.644204	0.745630	-0.441438
N82	N	0.718813	0.710012	-0.507033
C83	C	0.697701	0.720091	0.228623
C84	C	0.703195	0.717470	0.297472
C85	C	0.444724	0.946152	0.033484
C86	C	0.364361	1.020253	0.036104
C87	C	0.477104	0.720112	0.228620
C88	C	0.407730	0.717498	0.297467
C89	C	0.460914	0.938428	0.236343
C90	C	0.386045	1.009908	0.307812
C91	C	0.902109	0.517202	-0.184815
C92	C	0.976978	0.445722	-0.256284
C93	C	0.918298	0.509478	0.018044
C94	C	0.998662	0.435377	0.015424
C95	C	0.885919	0.735518	-0.177092
C96	C	0.955293	0.738132	-0.245939
C97	C	0.326621	1.013930	-0.003793
C98	C	0.251120	1.083550	-0.001347
C99	C	0.213356	1.159493	0.041001
C100	C	0.251103	1.165814	0.080899
C101	C	0.326607	1.096195	0.078448
C102	C	0.375151	0.757392	0.370926
C103	C	0.309978	0.754932	0.435621
C104	C	0.277378	0.712583	0.426856
C105	C	0.309963	0.672683	0.353390
C106	C	0.375141	0.675139	0.288696
C107	C	0.344563	1.087622	0.303270
C108	C	0.274224	1.154792	0.370417
C109	C	0.245365	1.144246	0.442104
C110	C	0.286855	1.066524	0.446644
C111	C	0.357196	0.999356	0.379498
C112	C	1.018469	0.368008	-0.251742
C113	C	1.088829	0.300838	-0.318889
C114	C	1.117692	0.311384	-0.390576
C115	C	1.076198	0.389106	-0.395116
C116	C	1.005844	0.456274	-0.327970
C117	C	1.036408	0.441700	0.055314
C118	C	1.111927	0.372081	0.052850
C119	C	1.149694	0.296139	0.010500
C120	C	1.111943	0.289817	-0.029395
C121	C	1.036430	0.359436	-0.026935
C122	C	0.987871	0.780489	-0.237150
C123	C	1.053046	0.782962	-0.301832
C124	C	1.085646	0.743071	-0.375304
C125	C	1.053060	0.700713	-0.384092
C126	C	0.987882	0.698246	-0.319410
H127	H	0.014131	0.827020	0.138587
H128	H	0.357326	1.101355	0.110942
H129	H	0.390963	0.936080	0.383206
Br130	Br	0.419374	0.814877	0.382842
Br131	Br	0.863832	-0.089158	-0.061269
H132	H	0.972061	0.519551	-0.331677
H133	H	1.099707	0.397683	-0.453491
Br134	Br	0.445486	0.268847	0.138406
H135	H	0.159171	0.758151	-0.082283
H136	H	0.556737	0.787398	-0.504559
H137	H	0.547362	0.791867	-0.621908
Br138	Br	1.174104	0.746426	-0.463080
H139	H	0.859982	0.642610	-0.771131
H140	H	0.220345	1.227656	0.115378
H141	H	0.869361	0.228007	-0.063881
H142	H	0.503040	0.101307	0.110934
H143	H	0.368049	1.096224	0.244905
Br144	Br	0.985208	0.350839	-0.081074
Br145	Br	0.265768	0.809087	0.535316
H146	H	0.236134	0.611097	-0.071974
H147	H	0.224307	0.710590	0.479541
Br148	Br	0.247678	1.052226	0.543940
Br149	Br	0.445482	0.840508	-0.289931
H150	H	1.079613	0.668236	-0.443921
Br151	Br	0.055802	0.702034	0.170220
H152	H	0.961365	0.663751	-0.326577
H153	H	0.503033	0.813025	-0.177342
Br154	Br	0.199907	1.074952	-0.055497
Br155	Br	0.315888	0.743031	-0.122992
H156	H	0.869362	0.638133	-0.653774
Br157	Br	0.419343	0.620994	0.189004
Br158	Br	0.021681	0.888051	0.021907
Br159	Br	0.985174	0.544756	0.112794
H160	H	0.182553	0.845855	0.005385
Br161	Br	0.265711	0.615212	0.341508
Br162	Br	0.217929	1.260262	0.364237
H163	H	0.994973	0.359406	-0.193378
Br164	Br	1.097258	0.840448	-0.289888
Br165	Br	0.863832	0.640759	-0.331331
H166	H	1.174980	0.256684	-0.445244
H167	H	0.188087	1.198946	0.496772
H168	H	0.182467	0.725291	0.145684
Br169	Br	0.109648	0.868503	0.158646
Br170	Br	1.145127	0.195369	-0.312710
H171	H	1.142651	0.377244	0.085341
H172	H	0.151875	1.216175	0.042991
H173	H	0.961339	0.812973	-0.177331
Br174	Br	0.377858	0.910875	-0.061275
Br175	Br	1.252177	0.201663	0.007169
H176	H	1.142704	0.227975	-0.063876
H177	H	0.351386	0.614660	-0.074478
Br178	Br	0.189268	0.574034	0.044780
Br179	Br	0.336631	0.569391	0.037145
H180	H	0.547368	0.503554	0.089795
Br181	Br	0.511377	0.380681	0.106979
H182	H	0.806284	0.078371	-0.033794
H183	H	0.806277	0.668249	-0.443912
Br184	Br	0.905359	0.350889	-0.081054
