data_functionalizedCrystal
_audit_creation_method	'MofGen! by Chris Wilmer'
_symmetry_space_group_name_H-M	'P1'
_symmetry_Int_Tables_number	1
_symmetry_cell_setting	triclinic
loop_
_symmetry_equiv_pos_as_xyz
  x,y,z
_cell_length_a	19.288840
_cell_length_b	18.366186
_cell_length_c	19.288864
_cell_angle_alpha	89.973735
_cell_angle_beta	96.868870
_cell_angle_gamma	90.012747
loop_
_atom_site_label
_atom_site_type_symbol
_atom_site_fract_x
_atom_site_fract_y
_atom_site_fract_z
O1	O	0.921360	0.060706	-0.086564
O2	O	1.421360	0.560706	0.413436
O3	O	0.719097	0.060685	-0.098271
O4	O	1.219097	0.560685	0.401729
O5	O	0.826073	0.060651	0.008713
O6	O	1.326073	0.560651	0.508713
O7	O	0.814384	0.060740	-0.193549
O8	O	1.314384	0.560740	0.306451
O9	O	0.826062	-0.060448	0.008715
O10	O	1.326062	0.439552	0.508715
O11	O	0.719086	-0.060414	-0.098269
O12	O	1.219086	0.439586	0.401731
O13	O	0.921349	-0.060394	-0.086562
O14	O	1.421349	0.439606	0.413438
Zn15	Zn	0.820216	-0.079631	-0.092415
Zn16	Zn	1.320216	0.420369	0.407585
Zn17	Zn	0.820231	0.079923	-0.092418
Zn18	Zn	1.320231	0.579923	0.407582
O19	O	0.814373	-0.060359	-0.193546
O20	O	1.314373	0.439641	0.306454
C21	C	0.693215	0.000132	-0.097896
C22	C	1.193215	0.500132	0.402104
C23	C	0.616110	0.000122	-0.096774
C24	C	1.116110	0.500122	0.403226
N25	N	0.820211	-0.188522	-0.092412
N26	N	1.320211	0.311478	0.407588
C27	C	0.867611	-0.773088	-0.045056
C28	C	1.367611	-0.273088	0.454944
C29	C	0.867612	-0.696860	-0.045057
C30	C	1.367612	-0.196860	0.454943
C31	C	0.820231	-0.658733	-0.092412
C32	C	1.320231	-0.158733	0.407588
C33	C	0.772857	-0.696841	-0.139781
C34	C	1.272857	-0.196841	0.360219
C35	C	0.772863	-0.773068	-0.139782
C36	C	1.272863	-0.273068	0.360218
C37	C	0.756938	-0.537983	-0.101687
C38	C	1.256938	-0.037983	0.398313
C39	C	0.756931	-0.461758	-0.101681
C40	C	1.256931	0.038242	0.398319
C41	C	0.820215	-0.423626	-0.092411
C42	C	1.320215	0.076374	0.407589
C43	C	0.883507	-0.461728	-0.083132
C44	C	1.383507	0.038272	0.416868
C45	C	0.883513	-0.537954	-0.083134
C46	C	1.383513	-0.037954	0.416866
C47	C	0.820220	-0.576079	-0.092416
C48	C	1.320220	-0.076079	0.407584
C49	C	0.867590	-0.302872	-0.045050
C50	C	1.367590	0.197128	0.454950
C51	C	0.867591	-0.226643	-0.045056
C52	C	1.367591	0.273357	0.454944
C53	C	0.772831	-0.226626	-0.139776
C54	C	1.272831	0.273374	0.360224
C55	C	0.772835	-0.302854	-0.139773
C56	C	1.272835	0.197146	0.360227
C57	C	0.820214	-0.340972	-0.092406
C58	C	1.320214	0.159028	0.407594
C59	C	0.579913	0.066135	-0.096237
C60	C	1.079913	0.566135	0.403763
C61	C	0.507466	0.066143	-0.095175
C62	C	1.007466	0.566143	0.404825
C63	C	0.471221	0.000135	-0.094636
C64	C	0.971221	0.500135	0.405364
C65	C	0.507427	-0.065886	-0.095178
C66	C	1.007427	0.434114	0.404822
C67	C	0.579871	-0.065893	-0.096247
C68	C	1.079871	0.434107	0.403753
C69	C	0.361889	-0.050445	-0.052257
C70	C	0.861889	0.449555	0.447743
C71	C	0.289446	-0.050435	-0.051184
C72	C	0.789446	0.449565	0.448816
C73	C	0.247778	0.000153	-0.091342
C74	C	0.747778	0.500153	0.408658
C75	C	0.278562	0.050744	-0.132565
C76	C	0.778562	0.550744	0.367435
C77	C	0.351006	0.050737	-0.133634
C78	C	0.851006	0.550737	0.366366
C79	C	0.392667	0.000135	-0.093477
C80	C	0.892667	0.500135	0.406523
C81	C	0.133025	0.066179	-0.089654
C82	C	0.633025	0.566179	0.410346
C83	C	0.060576	0.066185	-0.088596
C84	C	0.560576	0.566185	0.411404
C85	C	0.060539	-0.065847	-0.088593
C86	C	0.560539	0.434153	0.411407
C87	C	0.132986	-0.065851	-0.089657
C88	C	0.632986	0.434149	0.410343
C89	C	0.169225	0.000164	-0.090185
C90	C	0.669225	0.500164	0.409815
C91	C	0.947232	0.000161	-0.086937
C92	C	1.447232	0.500161	0.413063
C93	C	1.024336	0.000176	-0.088059
C94	C	1.524336	0.500176	0.411941
N95	N	0.820241	0.188814	-0.092415
N96	N	1.320241	0.688814	0.407585
C97	C	0.814755	0.000202	-0.219424
C98	C	1.314755	0.500202	0.280576
C99	C	0.815884	0.000237	-0.296527
C100	C	1.315884	0.500237	0.203473
C101	C	0.753115	0.000216	-0.341229
C102	C	1.253115	0.500216	0.158771
C103	C	0.754176	0.000199	-0.413676
C104	C	1.254176	0.500199	0.086324
C105	C	0.818009	0.000189	-0.441418
C106	C	1.318009	0.500189	0.058582
C107	C	0.880786	0.000215	-0.396706
C108	C	1.380786	0.500215	0.103294
C109	C	0.879723	0.000238	-0.324261
C110	C	1.379723	0.500238	0.175739
C111	C	0.868184	-0.042271	-0.549663
C112	C	1.368184	0.457729	-0.049663
C113	C	0.869244	-0.042299	-0.622107
C114	C	1.369244	0.457701	-0.122107
C115	C	0.821289	0.000120	-0.664863
C116	C	1.321289	0.500120	-0.164863
C117	C	0.772261	0.042557	-0.635168
C118	C	1.272261	0.542557	-0.135168
C119	C	0.771199	0.042580	-0.562723
C120	C	1.271199	0.542580	-0.062723
C121	C	0.819168	0.000164	-0.519972
C122	C	1.319168	0.500164	-0.019972
C123	C	0.759666	0.000082	-0.788121
C124	C	1.259666	0.500082	-0.288121
C125	C	0.760729	0.000070	-0.860569
C126	C	1.260729	0.500070	-0.360569
C127	C	0.887341	0.000078	-0.843598
C128	C	1.387341	0.500078	-0.343598
C129	C	0.886276	0.000097	-0.771151
C130	C	1.386276	0.500097	-0.271151
C131	C	0.822436	0.000096	-0.743418
C132	C	1.322436	0.500096	-0.243418
C133	C	0.825692	0.000091	0.034591
C134	C	1.325692	0.500091	0.534591
C135	C	0.824563	0.000061	0.111694
C136	C	1.324563	0.500061	0.611694
H137	H	0.906191	-0.804122	-0.006488
H138	H	1.406191	-0.304122	0.493512
H139	H	0.609343	-0.119650	-0.096685
H140	H	1.109343	0.380350	0.403315
F141	F	0.719024	0.087747	-0.531121
F142	F	1.219024	0.587747	-0.031121
H143	H	0.906188	-0.665834	-0.006490
H144	H	1.406188	-0.165834	0.493510
H145	H	0.031105	0.119943	-0.088163
H146	H	0.531105	0.619943	0.411837
F147	F	0.918015	-0.186094	0.005349
F148	F	1.418015	0.313906	0.505349
H149	H	0.935039	-0.430683	-0.075589
H150	H	1.435039	0.069317	0.424411
H151	H	0.935047	-0.568974	-0.075581
H152	H	1.435047	-0.068974	0.424419
F153	F	0.918017	-0.343442	0.005359
F154	F	1.418017	0.156558	0.505359
H155	H	0.264388	-0.091626	-0.017615
H156	H	0.764388	0.408374	0.482385
H157	H	0.734255	-0.195584	-0.178336
H158	H	1.234255	0.304416	0.321664
H159	H	0.376068	0.091928	-0.167200
H160	H	0.876068	0.591928	0.332800
H161	H	0.701132	0.000221	-0.318654
H162	H	1.201132	0.500221	0.181346
H163	H	0.734259	-0.333876	-0.178335
H164	H	1.234259	0.166124	0.321665
H165	H	0.733207	0.077093	-0.669980
H166	H	1.233207	0.577093	-0.169980
F167	F	0.691723	0.000084	-0.758603
F168	F	1.191723	0.500084	-0.258603
H169	H	0.709613	0.000058	-0.896966
H170	H	1.209613	0.500058	-0.396966
F171	F	0.687366	0.000175	-0.461260
F172	F	1.187366	0.500175	0.038740
F173	F	0.021969	-0.136098	-0.088025
F174	F	0.521969	0.363902	0.411975
H175	H	0.162531	0.119933	-0.090091
H176	H	0.662531	0.619933	0.409909
H177	H	0.909163	-0.076856	-0.646279
H178	H	1.409163	0.423144	-0.146279
F179	F	0.171511	-0.136112	-0.090226
F180	F	0.671511	0.363888	0.409774
H181	H	0.395810	-0.091643	-0.019554
H182	H	0.895810	0.408357	0.480446
F183	F	0.955277	0.000074	-0.873118
F184	F	1.455277	0.500074	-0.373118
H185	H	0.734288	-0.804088	-0.178349
H186	H	1.234288	-0.304088	0.321651
H187	H	0.907242	-0.076812	-0.514855
H188	H	1.407242	0.423188	-0.014855
H189	H	0.937389	0.000110	-0.734754
H190	H	1.437389	0.500110	-0.234754
H191	H	0.705395	-0.430741	-0.109228
H192	H	1.205395	0.069259	0.390772
F193	F	0.689578	-0.578559	-0.111558
F194	F	1.189578	-0.078559	0.388442
F195	F	0.722433	-0.656264	-0.190181
F196	F	1.222433	-0.156264	0.309819
F197	F	0.468851	-0.136137	-0.094609
F198	F	0.968851	0.363863	0.405391
H199	H	0.932759	0.000220	-0.419298
H200	H	1.432759	0.500220	0.080702
H201	H	0.930839	0.000256	-0.287864
H202	H	1.430839	0.500256	0.212136
H203	H	0.609414	0.119890	-0.096666
H204	H	1.109414	0.619890	0.403334
F205	F	0.468934	0.136406	-0.094602
F206	F	0.968934	0.636406	0.405398
H207	H	0.244636	0.091935	-0.165268
H208	H	0.744636	0.591935	0.334732
