data_functionalizedCrystal
_audit_creation_method	'MofGen! by Chris Wilmer'
_symmetry_space_group_name_H-M	'P1'
_symmetry_Int_Tables_number	1
_symmetry_cell_setting	triclinic
loop_
_symmetry_equiv_pos_as_xyz
  x,y,z
_cell_length_a	14.908571
_cell_length_b	12.759399
_cell_length_c	12.759387
_cell_angle_alpha	90.058924
_cell_angle_beta	86.662358
_cell_angle_gamma	93.287980
loop_
_atom_site_label
_atom_site_type_symbol
_atom_site_fract_x
_atom_site_fract_y
_atom_site_fract_z
Zn1	Zn	1.379496	0.510675	-0.686638
Zn2	Zn	1.379347	0.686478	-0.510958
Zn3	Zn	1.228566	0.500671	-0.500842
Zn4	Zn	1.228610	0.676164	-0.676478
O5	O	1.304004	0.593497	-0.593729
O6	O	1.505725	0.542499	-0.671819
O7	O	1.359265	0.661960	-0.362589
O8	O	1.248631	0.354980	-0.525507
O9	O	1.505615	0.671660	-0.542748
O10	O	1.359518	0.362330	-0.662011
O11	O	1.248486	0.525449	-0.355158
O12	O	1.102323	0.515448	-0.515655
O13	O	1.248706	0.654081	-0.824852
O14	O	1.102355	0.644381	-0.644694
O15	O	1.359561	0.532498	-0.832317
O16	O	1.359307	0.832127	-0.532896
O17	O	1.248561	0.824550	-0.654502
C18	C	1.069604	0.577711	-0.577975
C19	C	0.969326	0.570982	-0.571260
C20	C	0.780976	0.692806	-0.692829
C21	C	0.686756	0.686488	-0.686524
C22	C	0.686666	0.552022	-0.552350
C23	C	0.780885	0.558341	-0.558655
C24	C	0.828037	0.628736	-0.628896
C25	C	0.922259	0.635059	-0.635196
C26	C	0.922166	0.500589	-0.501027
C27	C	0.827946	0.494271	-0.494722
C28	C	1.303947	0.866460	-0.593718
C29	C	1.304006	0.983241	-0.593755
C30	C	1.361734	1.042018	-0.530516
C31	C	1.361788	1.151746	-0.530558
C32	C	1.246377	1.143909	-0.657080
C33	C	1.246328	1.034184	-0.657043
C34	C	1.419412	0.991075	-0.467227
C35	C	1.477144	1.049852	-0.403982
C36	C	1.477198	1.159580	-0.404024
C37	C	1.419520	1.210530	-0.467312
C38	C	1.539320	0.609346	-0.609545
C39	C	1.639598	0.616099	-0.616285
C40	C	1.304155	0.593255	-0.867773
C41	C	1.304219	0.593152	-0.984554
C42	C	1.304083	1.319469	-0.593778
C43	C	1.304108	1.202694	-0.593834
C44	C	1.303907	0.593666	-0.320755
C45	C	1.304017	0.593485	-0.203986
C46	C	1.246871	0.657048	-0.035267
C47	C	1.246772	0.657218	-0.144984
C48	C	1.361371	0.529585	-0.153266
C49	C	1.361474	0.529422	-0.043551
C50	C	1.189616	0.720778	0.023731
C51	C	1.132263	0.784679	-0.026981
C52	C	1.132164	0.784848	-0.136699
C53	C	1.189418	0.721117	-0.195703
H54	H	0.789542	0.436954	-0.437537
H55	H	1.419372	0.901730	-0.467183
H56	H	1.524110	1.008363	-0.352462
H57	H	1.085470	0.836887	-0.177986
H58	H	0.819368	0.750131	-0.750017
H59	H	1.419575	1.299879	-0.467350
H60	H	1.189339	0.721267	-0.285043
H61	H	1.524213	1.207434	-0.352535
H62	H	1.199321	0.986327	-0.708539
H63	H	1.407984	0.477697	-0.201316
H64	H	0.648443	0.738658	-0.738587
H65	H	1.199417	1.185402	-0.708605
H66	H	1.408171	0.477390	-0.002260
H67	H	1.189689	0.720645	0.113068
H68	H	0.960493	0.448421	-0.448966
H69	H	1.085654	0.836572	0.021067
H70	H	0.648258	0.494703	-0.495169
H71	H	0.960648	0.692381	-0.692388
