data_functionalizedCrystal
_audit_creation_method	'MofGen! by Chris Wilmer'
_symmetry_space_group_name_H-M	'P1'
_symmetry_Int_Tables_number	1
_symmetry_cell_setting	triclinic
loop_
_symmetry_equiv_pos_as_xyz
  x,y,z
_cell_length_a	19.805407
_cell_length_b	25.639239
_cell_length_c	19.805399
_cell_angle_alpha	90.028726
_cell_angle_beta	90.019573
_cell_angle_gamma	90.038686
loop_
_atom_site_label
_atom_site_type_symbol
_atom_site_fract_x
_atom_site_fract_y
_atom_site_fract_z
Zn1	Zn	1.034678	-0.208163	0.382714
Zn2	Zn	1.368011	0.125170	0.716048
Zn3	Zn	1.701345	0.458504	1.049381
Zn4	Zn	1.034569	-0.295597	0.269524
Zn5	Zn	1.367902	0.037736	0.602857
Zn6	Zn	1.701235	0.371070	0.936190
Zn7	Zn	0.921493	-0.208177	0.269539
Zn8	Zn	1.254826	0.125156	0.602872
Zn9	Zn	1.588159	0.458489	0.936205
Zn10	Zn	0.921432	-0.295569	0.382670
Zn11	Zn	1.254765	0.037764	0.716004
Zn12	Zn	1.588099	0.371098	1.049337
O13	O	0.978043	-0.251877	0.326112
O14	O	1.311376	0.081457	0.659445
O15	O	1.644709	0.414790	0.992778
O16	O	1.129380	-0.219767	0.367711
O17	O	1.462713	0.113567	0.701045
O18	O	1.796047	0.446900	1.034378
O19	O	1.019548	-0.284018	0.174809
O20	O	1.352882	0.049315	0.508142
O21	O	1.686215	0.382648	0.841476
O22	O	0.936578	-0.135010	0.284576
O23	O	1.269911	0.198323	0.617910
O24	O	1.603245	0.531656	0.951243
O25	O	1.129300	-0.284004	0.284551
O26	O	1.462633	0.049329	0.617884
O27	O	1.795966	0.382662	0.951217
O28	O	1.019735	-0.135000	0.367726
O29	O	1.353068	0.198334	0.701059
O30	O	1.686402	0.531667	1.034393
O31	O	0.936472	-0.219791	0.174820
O32	O	1.269805	0.113542	0.508154
O33	O	1.603139	0.446875	0.841487
O34	O	0.826768	-0.219764	0.284534
O35	O	1.160101	0.113569	0.617867
O36	O	1.493435	0.446902	0.951201
O37	O	0.936475	-0.283957	0.477393
O38	O	1.269808	0.049376	0.810726
O39	O	1.603141	0.382710	1.144060
O40	O	0.826723	-0.283971	0.367651
O41	O	1.160057	0.049362	0.700985
O42	O	1.493390	0.382696	1.034318
O43	O	1.019676	-0.219740	0.477425
O44	O	1.353009	0.113593	0.810758
O45	O	1.686343	0.446927	1.144092
O46	O	1.019489	-0.368758	0.284508
O47	O	1.352823	-0.035425	0.617842
O48	O	1.686156	0.297908	0.951175
O49	O	0.936368	-0.368738	0.367637
O50	O	1.269702	-0.035405	0.700970
O51	O	1.603035	0.297929	1.034303
C52	C	0.802187	-0.251867	0.326090
C53	C	1.135520	0.081467	0.659423
C54	C	1.468853	0.414800	0.992757
C55	C	0.726955	-0.251875	0.326097
C56	C	1.060288	0.081458	0.659430
C57	C	1.393621	0.414792	0.992763
C58	C	0.691605	-0.285357	0.369306
C59	C	1.024938	0.047976	0.702639
C60	C	1.358272	0.381309	1.035972
C61	C	0.620917	-0.285358	0.369315
C62	C	0.954250	0.047975	0.702649
C63	C	1.287583	0.381308	1.035982
C64	C	0.585579	-0.251879	0.326112
C65	C	0.918912	0.081454	0.659445
C66	C	1.252246	0.414788	0.992778
C67	C	0.620934	-0.218393	0.282901
C68	C	0.954267	0.114941	0.616234
C69	C	1.287600	0.448274	0.949567
C70	C	0.691621	-0.218390	0.282895
C71	C	1.024954	0.114944	0.616228
C72	C	1.358288	0.448277	0.949562
C73	C	0.335860	-0.218404	0.282923
C74	C	0.669194	0.114929	0.616256
C75	C	1.002527	0.448262	0.949590
C76	C	0.265168	-0.218411	0.282931
C77	C	0.598502	0.114922	0.616264
C78	C	0.931835	0.448256	0.949597
C79	C	0.265156	-0.285373	0.369343
C80	C	0.598489	0.047960	0.702677
C81	C	0.931823	0.381294	1.036010
C82	C	0.335843	-0.285370	0.369338
C83	C	0.669177	0.047963	0.702671
C84	C	1.002510	0.381297	1.036004
C85	C	0.371192	-0.251882	0.326129
C86	C	0.704525	0.081451	0.659463
C87	C	1.037858	0.414785	0.992796
C88	C	0.447840	-0.251881	0.326121
C89	C	0.781174	0.081453	0.659454
C90	C	1.114507	0.414786	0.992787
C91	C	0.508932	-0.251883	0.326117
C92	C	0.842265	0.081451	0.659450
C93	C	1.175599	0.414784	0.992783
C94	C	0.977929	-0.387719	0.326081
C95	C	1.311262	-0.054386	0.659414
C96	C	1.644596	0.278947	0.992747
C97	C	0.977942	-0.445833	0.326090
C98	C	1.311275	-0.112500	0.659424
C99	C	1.644609	0.220833	0.992757
C100	C	1.021437	-0.806194	0.282901
C101	C	1.354770	-0.472861	0.616234
C102	C	1.688103	-0.139528	0.949567
C103	C	1.021463	-0.860799	0.282910
C104	C	1.354796	-0.527465	0.616243
C105	C	1.688130	-0.194132	0.949576
O106	O	1.058326	-0.889034	0.246154
O107	O	1.391659	-0.555700	0.579488
O108	O	1.724992	-0.222367	0.912821
N109	N	0.978162	-0.888116	0.326157
N110	N	1.311495	-0.554782	0.659490
N111	N	1.644828	-0.221449	0.992823
C112	C	0.934836	-0.860825	0.369402
C113	C	1.268169	-0.527492	0.702736
C114	C	1.601503	-0.194159	1.036069
O115	O	0.898008	-0.889075	0.406189
O116	O	1.231341	-0.555741	0.739522
O117	O	1.564675	-0.222408	1.072855
C118	C	0.934814	-0.806222	0.369396
C119	C	1.268147	-0.472889	0.702729
C120	C	1.601481	-0.139556	1.036063
C121	C	0.978113	-0.778908	0.326141
C122	C	1.311446	-0.445575	0.659475
C123	C	1.644780	-0.112241	0.992808
C124	C	1.064733	-0.778880	0.239650
C125	C	1.398066	-0.445547	0.572983
C126	C	1.731400	-0.112213	0.906317
C127	C	1.064706	-0.724279	0.239640
C128	C	1.398039	-0.390946	0.572974
C129	C	1.731372	-0.057613	0.906307
C130	C	1.021382	-0.696993	0.282881
C131	C	1.354716	-0.363660	0.616214
C132	C	1.688049	-0.030327	0.949548
C133	C	0.978086	-0.724307	0.326132
C134	C	1.311419	-0.390974	0.659465
C135	C	1.644753	-0.057641	0.992798
C136	C	0.891492	-0.778933	0.412645
C137	C	1.224826	-0.445600	0.745978
C138	C	1.558159	-0.112266	1.079311
C139	C	0.891474	-0.724326	0.412635
C140	C	1.224807	-0.390993	0.745969
C141	C	1.558141	-0.057659	1.079302
C142	C	0.934773	-0.697012	0.369381
C143	C	1.268107	-0.363679	0.702714
C144	C	1.601440	-0.030345	1.036047
C145	C	0.934735	-0.642421	0.369363
C146	C	1.268068	-0.309087	0.702696
C147	C	1.601402	0.024246	1.036029
N148	N	0.978036	-0.615104	0.326116
N149	N	1.311370	-0.281770	0.659449
N150	N	1.644703	0.051563	0.992782
C151	C	1.021360	-0.642390	0.282875
C152	C	1.354693	-0.309057	0.616208
C153	C	1.688027	0.024277	0.949542
C154	C	0.934887	-0.975496	0.369413
C155	C	1.268220	-0.642163	0.702746
C156	C	1.601554	-0.308829	1.036079
C157	C	0.934906	-1.030098	0.369416
C158	C	1.268239	-0.696765	0.702749
C159	C	1.601572	-0.363432	1.036083
C160	C	1.021533	-1.030068	0.282924
C161	C	1.354867	-0.696734	0.616257
C162	C	1.688200	-0.363401	0.949591
C163	C	1.021511	-0.975464	0.282918
C164	C	1.354845	-0.642131	0.616251
C165	C	1.688178	-0.308798	0.949585
C166	C	0.978188	-0.948179	0.326166
C167	C	1.311522	-0.614846	0.659499
C168	C	1.644855	-0.281512	0.992832
C169	C	1.021299	-0.527725	0.282857
C170	C	1.354632	-0.194392	0.616191
C171	C	1.687966	0.138942	0.949524
C172	C	1.021266	-0.473119	0.282849
C173	C	1.354599	-0.139786	0.616183
C174	C	1.687932	0.193547	0.949516
C175	C	0.934641	-0.473155	0.369343
C176	C	1.267974	-0.139822	0.702677
C177	C	1.601307	0.193512	1.036010
C178	C	0.934671	-0.527756	0.369349
C179	C	1.268004	-0.194422	0.702683
C180	C	1.601338	0.138911	1.036016
C181	C	0.978006	-0.555039	0.326104
C182	C	1.311339	-0.221706	0.659437
C183	C	1.644672	0.111628	0.992770
O184	O	0.897893	-0.614151	0.406101
O185	O	1.231226	-0.280818	0.739435
O186	O	1.564560	0.052516	1.072768
O187	O	1.058188	-0.614134	0.246101
O188	O	1.391522	-0.280801	0.579434
O189	O	1.724855	0.052533	0.912768
C190	C	1.154585	-0.251887	0.326134
C191	C	1.487919	0.081446	0.659468
C192	C	1.821252	0.414780	0.992801
C193	C	1.229817	-0.251891	0.326144
C194	C	1.563151	0.081442	0.659477
C195	C	1.896484	0.414775	0.992810
C196	C	0.978081	-0.251844	0.502655
C197	C	1.311414	0.081490	0.835988
C198	C	1.644747	0.414823	1.169321
C199	C	0.978097	-0.251830	0.577887
C200	C	1.311430	0.081504	0.911220
C201	C	1.644764	0.414837	1.244553
C202	C	0.978175	-0.115504	0.326158
C203	C	1.311509	0.217830	0.659491
C204	C	1.644842	0.551163	0.992824
C205	C	0.978232	-0.057389	0.326177
C206	C	1.311565	0.275944	0.659511
C207	C	1.644899	0.609277	0.992844
C208	C	0.978044	-0.251872	0.150256
C209	C	1.311377	0.081462	0.483589
C210	C	1.644711	0.414795	0.816922
C211	C	0.978159	-0.251738	0.075024
C212	C	1.311492	0.081595	0.408358
C213	C	1.644826	0.414928	0.741691
C214	C	1.021421	-0.218390	0.613249
C215	C	1.354754	0.114943	0.946582
C216	C	1.688087	0.448276	1.279915
C217	C	1.021428	-0.218375	0.683937
C218	C	1.354761	0.114958	1.017270
C219	C	1.688094	0.448292	1.350604
C220	C	0.978114	-0.251802	0.719262
C221	C	1.311447	0.081531	1.052596
C222	C	1.644780	0.414864	1.385929
C223	C	0.934785	-0.285243	0.683895
C224	C	1.268118	0.048090	1.017229
C225	C	1.601452	0.381423	1.350562
C226	C	0.934775	-0.285255	0.613208
C227	C	1.268108	0.048078	0.946541
C228	C	1.601442	0.381411	1.279875
C229	C	0.934823	-0.285194	0.968969
C230	C	1.268157	0.048139	1.302302
C231	C	1.601490	0.381472	1.635635
C232	C	0.934838	-0.285181	1.039661
C233	C	1.268171	0.048152	1.372994
C234	C	1.601504	0.381486	1.706328
C235	C	1.021476	-0.218314	1.039698
C236	C	1.354809	0.115019	1.373031
C237	C	1.688143	0.448353	1.706364
C238	C	1.021466	-0.218326	0.969011
C239	C	1.354799	0.115007	1.302344
C240	C	1.688133	0.448340	1.635677
C241	C	0.978135	-0.251765	0.933650
C242	C	1.311468	0.081568	1.266983
C243	C	1.644802	0.414902	1.600316
C244	C	0.978127	-0.251780	0.857001
C245	C	1.311460	0.081553	1.190335
C246	C	1.644794	0.414886	1.523668
C247	C	0.978125	-0.251790	0.795909
C248	C	1.311458	0.081543	1.129243
C249	C	1.644791	0.414877	1.462576
H250	H	0.720402	-0.191122	0.247713
H251	H	1.053735	0.142212	0.581047
H252	H	1.387068	0.475545	0.914380
Cl253	Cl	1.075704	-0.438785	0.228468
Cl254	Cl	1.409037	-0.105452	0.561801
Cl255	Cl	1.742370	0.227882	0.895135
Cl256	Cl	0.880381	-0.327207	1.084069
Cl257	Cl	1.213714	0.006127	1.417402
Cl258	Cl	1.547047	0.339460	1.750736
Cl259	Cl	0.380264	-0.327462	0.423650
Cl260	Cl	0.713597	0.005872	0.756984
Cl261	Cl	1.046930	0.339205	1.090317
Cl262	Cl	0.576509	-0.176300	0.228592
Cl263	Cl	0.909843	0.157033	0.561925
Cl264	Cl	1.243176	0.490366	0.895258
Cl265	Cl	0.220714	-0.327473	0.423664
Cl266	Cl	0.554047	0.005861	0.756997
Cl267	Cl	0.887380	0.339194	1.090330
Cl268	Cl	1.075925	-0.176358	0.728389
Cl269	Cl	1.409258	0.156975	1.061723
Cl270	Cl	1.742591	0.490309	1.395056
Cl271	Cl	0.220745	-0.176318	0.228615
Cl272	Cl	0.554078	0.157015	0.561948
Cl273	Cl	0.887412	0.490348	0.895281
H274	H	0.364633	-0.191140	0.247735
H275	H	0.697966	0.142193	0.581069
H276	H	1.031299	0.475526	0.914402
Cl277	Cl	0.576480	-0.327453	0.423638
Cl278	Cl	0.909813	0.005880	0.756971
Cl279	Cl	1.243147	0.339214	1.090305
H280	H	0.720372	-0.312622	0.404485
H281	H	1.053705	0.020711	0.737818
H282	H	1.387038	0.354045	1.071152
H283	H	0.856230	-0.801163	0.447864
H284	H	1.189563	-0.467830	0.781197
H285	H	1.522897	-0.134496	1.114531
H286	H	1.056587	-0.549933	0.247644
H287	H	1.389921	-0.216599	0.580978
H288	H	1.723254	0.116734	0.914311
Cl289	Cl	1.075947	-0.176274	1.084156
Cl290	Cl	1.409281	0.157059	1.417489
Cl291	Cl	1.742614	0.490393	1.750822
H292	H	1.056739	-0.191108	0.940252
H293	H	1.390072	0.142225	1.273586
H294	H	1.723406	0.475559	1.606919
Cl295	Cl	1.075880	-0.176367	0.568847
Cl296	Cl	1.409213	0.156966	0.902180
Cl297	Cl	1.742546	0.490299	1.235513
Cl298	Cl	0.880413	-0.941200	0.423781
Cl299	Cl	1.213746	-0.607867	0.757115
Cl300	Cl	1.547080	-0.274533	1.090448
Cl301	Cl	1.119153	-0.689950	0.185270
Cl302	Cl	1.452486	-0.356616	0.518603
Cl303	Cl	1.785819	-0.023283	0.851937
Cl304	Cl	0.880350	-0.327232	0.924524
Cl305	Cl	1.213684	0.006101	1.257858
Cl306	Cl	1.547017	0.339434	1.591191
Cl307	Cl	1.119205	-0.813173	0.185283
Cl308	Cl	1.452538	-0.479840	0.518616
Cl309	Cl	1.785872	-0.146506	0.851949
Cl310	Cl	0.880330	-0.327265	0.728304
Cl311	Cl	1.213663	0.006069	1.061638
Cl312	Cl	1.546997	0.339402	1.394971
H313	H	1.056769	-0.953228	0.247697
H314	H	1.390103	-0.619895	0.581030
H315	H	1.723436	-0.286562	0.914363
H316	H	0.899489	-0.312480	0.584417
H317	H	1.232823	0.020853	0.917751
H318	H	1.566156	0.354187	1.251084
Cl319	Cl	1.075997	-1.064381	0.228562
Cl320	Cl	1.409330	-0.731047	0.561896
Cl321	Cl	1.742664	-0.397714	0.895229
Cl322	Cl	0.880462	-1.064430	0.423788
Cl323	Cl	1.213795	-0.731096	0.757121
Cl324	Cl	1.547128	-0.397763	1.090454
H325	H	0.856196	-0.702113	0.447855
H326	H	1.189529	-0.368780	0.781188
H327	H	1.522863	-0.035446	1.114522
H328	H	0.899415	-0.549996	0.404573
H329	H	1.232749	-0.216663	0.737906
H330	H	1.566082	0.116671	1.071239
H331	H	0.899365	-0.450930	0.404548
H332	H	1.232698	-0.117597	0.737881
H333	H	1.566032	0.215737	1.071214
