data_functionalizedCrystal
_audit_creation_method	'MofGen! by Chris Wilmer'
_symmetry_space_group_name_H-M	'P1'
_symmetry_Int_Tables_number	1
_symmetry_cell_setting	triclinic
loop_
_symmetry_equiv_pos_as_xyz
  x,y,z
_cell_length_a	14.971506
_cell_length_b	11.026607
_cell_length_c	14.048226
_cell_angle_alpha	90.001318
_cell_angle_beta	90.005155
_cell_angle_gamma	96.104202
loop_
_atom_site_label
_atom_site_type_symbol
_atom_site_fract_x
_atom_site_fract_y
_atom_site_fract_z
O1	O	1.212297	0.158295	0.079165
O2	O	1.712297	0.658295	0.579165
O3	O	0.954930	0.177212	0.079165
O4	O	1.454930	0.677212	0.579165
O5	O	1.062283	-0.008933	0.079161
O6	O	1.562283	0.491067	0.579161
O7	O	1.104944	0.344440	0.079168
O8	O	1.604944	0.844440	0.579168
O9	O	1.062270	-0.008934	-0.079160
O10	O	1.562270	0.491066	0.420840
O11	O	0.954917	0.177210	-0.079156
O12	O	1.454917	0.677210	0.420844
O13	O	1.212284	0.158293	-0.079157
O14	O	1.712284	0.658293	0.420843
Zn15	Zn	1.083598	0.167752	-0.104293
Zn16	Zn	1.583598	0.667752	0.395707
Zn17	Zn	1.083616	0.167754	0.104302
Zn18	Zn	1.583616	0.667754	0.604302
O19	O	1.104931	0.344438	-0.079153
O20	O	1.604931	0.844438	0.420847
C21	C	0.921463	0.176361	0.000004
C22	C	1.421463	0.676361	0.500004
C23	C	0.821759	0.173812	0.000004
C24	C	1.321759	0.673812	0.500004
C25	C	1.054407	-0.054156	0.000002
C26	C	1.554407	0.445844	0.500002
C27	C	1.030945	-0.188907	0.000005
C28	C	1.530945	0.311093	0.500005
C29	C	0.399440	0.273444	0.000016
C30	C	0.899440	0.773444	0.500016
C31	C	0.493122	0.275829	0.000020
C32	C	0.993122	0.775829	0.500020
C33	C	0.532818	0.166462	0.000014
C34	C	1.032818	0.666462	0.500014
C35	C	0.478827	0.054702	0.000013
C36	C	0.978827	0.554702	0.500013
C37	C	0.385147	0.052319	0.000016
C38	C	0.885147	0.552319	0.500016
C39	C	0.674087	0.059678	0.000005
C40	C	1.174087	0.559678	0.500005
C41	C	0.767774	0.062062	0.000001
C42	C	1.267774	0.562062	0.500001
C43	C	0.782063	0.283189	0.000010
C44	C	1.282063	0.783189	0.500010
C45	C	0.688382	0.280805	0.000012
C46	C	1.188382	0.780805	0.500012
C47	C	0.634397	0.169045	0.000010
C48	C	1.134397	0.669045	0.500010
C49	C	1.095726	-0.262612	0.000007
C50	C	1.595726	0.237388	0.500007
C51	C	1.071479	-0.401884	0.000010
C52	C	1.571479	0.098116	0.500010
C53	C	1.245751	0.159145	0.000006
C54	C	1.745751	0.659145	0.500006
C55	C	1.345455	0.161693	0.000012
C56	C	1.845455	0.661693	0.500012
C57	C	1.112807	0.389662	0.000009
C58	C	1.612807	0.889662	0.500009
C59	C	1.136269	0.524412	0.000011
C60	C	1.636269	1.024412	0.500011
N61	N	1.083593	0.167750	-0.246654
N62	N	1.583593	0.667750	0.253346
C63	C	1.149711	0.241498	-0.296466
C64	C	1.649711	0.741498	0.203534
C65	C	1.149722	0.241493	-0.396124
C66	C	1.649722	0.741493	0.103876
C67	C	1.083609	0.167745	-0.445968
C68	C	1.583609	0.667745	0.054032
C69	C	1.017488	0.093988	-0.396148
C70	C	1.517488	0.593988	0.103852
C71	C	1.017481	0.093987	-0.296492
C72	C	1.517481	0.593987	0.203508
C73	C	1.017504	0.093996	-0.603862
C74	C	1.517504	0.593996	-0.103862
C75	C	1.017509	0.093998	-0.703525
C76	C	1.517509	0.593998	-0.203525
C77	C	1.149744	0.241501	-0.703494
C78	C	1.649744	0.741501	-0.203494
C79	C	1.149738	0.241501	-0.603838
C80	C	1.649738	0.741501	-0.103838
C81	C	1.083615	0.167746	-0.554026
C82	C	1.583615	0.667746	-0.054026
N83	N	1.083627	0.167746	0.246662
N84	N	1.583627	0.667746	0.746662
H85	H	0.367126	0.362504	0.000014
H86	H	0.867126	0.862504	0.500014
Br87	Br	0.927778	-0.006126	-0.536260
Br88	Br	1.427778	0.493874	-0.036260
H89	H	0.998063	-0.441883	0.000016
H90	H	1.498063	0.058117	0.500016
Br91	Br	1.258636	-0.408933	0.000020
Br92	Br	1.758636	0.091067	0.500020
H93	H	0.537072	0.366827	0.000032
H94	H	1.037072	0.866827	0.500032
H95	H	0.656064	0.369861	0.000011
H96	H	1.156064	0.869861	0.500011
H97	H	0.963661	0.033935	-0.436739
H98	H	1.463661	0.533935	0.063261
H99	H	0.963641	0.033934	-0.255936
H100	H	1.463641	0.533934	0.244064
H101	H	0.800092	-0.026995	0.000003
H102	H	1.300092	0.473005	0.500003
H103	H	0.957534	-0.228912	0.000012
H104	H	1.457534	0.271088	0.500012
H105	H	0.826022	0.374187	0.000011
H106	H	1.326022	0.874187	0.500011
Br107	Br	1.239437	0.341595	-0.228831
Br108	Br	1.739437	0.841595	0.271169
Br109	Br	0.600823	-0.091997	-0.000003
Br110	Br	1.100823	0.408003	0.499997
H111	H	1.203563	0.301544	-0.436677
H112	H	1.703563	0.801544	0.063323
Br113	Br	0.927787	-0.006095	-0.771170
Br114	Br	1.427787	0.493905	-0.271170
Br115	Br	0.532700	-0.093727	0.000010
Br116	Br	1.032700	0.406273	0.500010
H117	H	0.341193	-0.038680	0.000014
H118	H	0.841193	0.461320	0.500014
H119	H	1.169137	-0.222607	0.000001
H120	H	1.669137	0.277393	0.500001
H121	H	1.203569	0.301559	-0.563259
H122	H	1.703569	0.801559	-0.063259
Br123	Br	1.239484	0.341597	-0.771095
Br124	Br	1.739484	0.841597	-0.271095
