data_functionalizedCrystal
_audit_creation_method	'MofGen! by Chris Wilmer'
_symmetry_space_group_name_H-M	'P1'
_symmetry_Int_Tables_number	1
_symmetry_cell_setting	triclinic
loop_
_symmetry_equiv_pos_as_xyz
  x,y,z
_cell_length_a	18.050591
_cell_length_b	18.050590
_cell_length_c	13.897441
_cell_angle_alpha	89.966994
_cell_angle_beta	89.973262
_cell_angle_gamma	90.015000
loop_
_atom_site_label
_atom_site_type_symbol
_atom_site_fract_x
_atom_site_fract_y
_atom_site_fract_z
Zn1	Zn	1.135394	-0.295706	-0.545520
Zn2	Zn	1.135310	-0.419910	-0.384214
Zn3	Zn	1.011198	-0.295731	-0.384221
Zn4	Zn	1.011182	-0.419851	-0.545450
O5	O	1.073271	-0.357800	-0.464851
O6	O	1.239307	-0.312196	-0.524148
O7	O	1.118818	-0.403473	-0.249233
O8	O	1.027714	-0.191803	-0.405650
O9	O	1.239246	-0.403449	-0.405638
O10	O	1.118960	-0.191785	-0.524155
O11	O	1.027633	-0.312239	-0.249238
O12	O	0.907271	-0.312181	-0.405582
O13	O	1.027687	-0.403348	-0.680441
O14	O	0.907259	-0.403372	-0.524036
O15	O	1.118945	-0.312139	-0.680492
O16	O	1.118803	-0.523827	-0.405570
O17	O	1.027606	-0.523784	-0.524030
C18	C	0.880319	-0.357773	-0.464803
C19	C	0.797773	-0.357780	-0.464805
C20	C	0.548932	-0.308139	-0.400542
C21	C	0.598369	-0.290047	-0.488573
C22	C	0.500652	-0.357818	-0.464884
C23	C	0.598297	-0.375857	-0.376819
C24	C	0.646638	-0.357798	-0.464841
C25	C	0.549002	-0.339691	-0.552962
C26	C	0.548926	-0.425532	-0.441149
C27	C	0.598341	-0.407465	-0.529240
C28	C	0.416554	-0.357828	-0.464908
C29	C	0.730734	-0.357788	-0.464827
C30	C	1.073214	-0.550752	-0.464813
C31	C	1.073257	-0.633298	-0.464828
C32	C	1.122953	-0.832745	-0.400500
C33	C	1.141097	-0.882073	-0.488538
C34	C	1.073299	-0.784428	-0.464867
C35	C	1.055231	-0.882181	-0.376869
C36	C	1.073341	-0.930413	-0.464896
C37	C	1.091478	-0.832669	-0.552951
C38	C	1.005581	-0.832773	-0.441222
C39	C	1.023699	-0.882079	-0.529321
C40	C	1.073277	-0.700330	-0.464849
C41	C	1.073364	-1.014509	-0.464925
C42	C	1.266976	-0.357826	-0.464900
C43	C	1.349522	-0.357838	-0.464921
C44	C	1.073323	-0.357734	-0.716444
C45	C	1.073346	-0.357706	-0.823658
C46	C	1.073348	-0.164094	-0.464911
C47	C	1.073381	-0.081548	-0.464936
C48	C	1.073366	-0.357656	-1.019954
C49	C	1.073353	-0.357686	-0.910721
C50	C	1.073261	-0.357811	-0.214237
C51	C	1.073382	-0.357630	-0.107023
H52	H	0.527192	-0.482789	-0.421060
H53	H	1.164958	-0.811082	-0.346124
C54	C	0.442070	-0.252459	-0.327384
C55	C	0.519636	-0.251399	-0.327207
H56	H	0.423984	-0.217432	-0.282110
H57	H	0.424475	-0.240108	-0.389762
H58	H	0.425148	-0.300556	-0.310384
H59	H	0.536558	-0.203304	-0.344214
H60	H	0.537238	-0.263746	-0.264815
H61	H	0.619953	-0.391122	-0.302363
H62	H	0.981726	-0.903604	-0.583829
H63	H	0.619897	-0.449469	-0.583696
C64	C	0.670407	-0.217779	-0.599534
C65	C	0.627691	-0.212733	-0.515664
H66	H	0.688501	-0.170047	-0.616256
H67	H	0.710956	-0.250259	-0.588747
H68	H	0.640725	-0.236443	-0.650481
H69	H	0.657374	-0.194075	-0.464714
H70	H	0.587136	-0.180242	-0.526446
H71	H	1.198383	-0.903731	-0.508556
H72	H	0.527439	-0.324358	-0.627440
C73	C	1.112052	-0.725872	-0.652520
C74	C	1.112230	-0.803441	-0.653459
H75	H	1.124870	-0.707829	-0.714566
H76	H	1.064087	-0.708588	-0.635619
H77	H	1.147089	-0.708595	-0.606747
H78	H	1.077189	-0.820719	-0.699227
H79	H	1.160202	-0.820733	-0.670372
C80	C	0.909436	-0.828455	-0.321922
C81	C	0.928271	-0.803504	-0.414165
H82	H	0.861710	-0.810380	-0.305210
H83	H	0.908997	-0.881071	-0.321160
H84	H	0.944822	-0.810824	-0.276835
H85	H	0.892887	-0.821140	-0.459253
H86	H	0.928704	-0.750878	-0.414934
C87	C	1.086625	-0.886628	-0.209101
C88	C	1.034570	-0.911536	-0.276392
H89	H	1.073869	-0.904747	-0.147069
H90	H	1.134398	-0.904237	-0.226349
H91	H	1.086899	-0.834007	-0.208237
H92	H	1.034299	-0.964158	-0.277260
H93	H	0.986784	-0.893931	-0.259138
