data_functionalizedCrystal
_audit_creation_method	'MofGen! by Chris Wilmer'
_symmetry_space_group_name_H-M	'P1'
_symmetry_Int_Tables_number	1
_symmetry_cell_setting	triclinic
loop_
_symmetry_equiv_pos_as_xyz
  x,y,z
_cell_length_a	10.654550
_cell_length_b	15.944551
_cell_length_c	9.130313
_cell_angle_alpha	89.994529
_cell_angle_beta	89.999724
_cell_angle_gamma	83.991834
loop_
_atom_site_label
_atom_site_type_symbol
_atom_site_fract_x
_atom_site_fract_y
_atom_site_fract_z
O1	O	1.666313	0.117977	-0.121694
O2	O	1.300689	0.129217	-0.121721
O3	O	1.493485	0.001379	-0.121693
O4	O	1.473517	0.245814	-0.121721
O5	O	1.493472	0.001376	0.121906
O6	O	1.300676	0.129213	0.121878
O7	O	1.666300	0.117973	0.121905
Cu8	Cu	1.483487	0.123592	0.144134
Cu9	Cu	1.483502	0.123597	-0.143950
O10	O	1.473503	0.245810	0.121878
C11	C	1.253895	0.128389	0.000075
C12	C	1.114484	0.125920	0.000065
C13	C	1.034024	0.201189	0.000061
C14	C	0.903034	0.198863	0.000087
C15	C	0.932975	0.045995	0.000115
C16	C	1.063963	0.048321	0.000100
C17	C	1.492650	-0.029921	0.000106
C18	C	1.490165	-0.123182	0.000107
C19	C	1.364720	-0.338764	0.000077
C20	C	1.422966	-0.399446	0.120191
C21	C	1.485668	-0.293933	0.000095
C22	C	1.423007	-0.399426	-0.119979
C23	C	1.481317	-0.458871	0.000078
C24	C	1.543947	-0.353387	0.120308
C25	C	1.543972	-0.353360	-0.119969
C26	C	1.602306	-0.414024	0.000173
C27	C	1.488172	-0.198917	0.000107
C28	C	1.478822	-0.553887	0.000077
C29	C	1.713094	0.118800	0.000106
C30	C	1.852505	0.121269	0.000106
C31	C	1.474339	0.277110	0.000075
C32	C	1.476824	0.370371	0.000065
N33	N	1.483485	0.123589	0.346757
N34	N	1.483514	0.123594	-0.346572
C35	C	1.568884	0.067007	0.423421
C36	C	1.568896	0.067007	0.576758
C37	C	1.398106	0.180179	0.576753
C38	C	1.398089	0.180174	0.423419
H39	H	0.837528	0.260155	0.000086
O40	O	0.883687	-0.029309	0.000072
C41	C	0.750819	-0.015224	0.000117
H42	H	0.720060	0.050146	-0.046010
H43	H	0.710594	-0.064922	-0.070594
H44	H	0.714364	-0.019508	0.116988
H45	H	1.129477	-0.012976	0.000108
O46	O	1.083161	0.276545	-0.000222
C47	C	1.158046	0.282459	-0.126377
H48	H	1.127061	0.238384	-0.214545
H49	H	1.146282	0.350086	-0.168735
H50	H	1.261345	0.263690	-0.097864
O51	O	1.315039	0.235175	0.650998
C52	C	1.239677	0.285127	0.550446
H53	H	1.238251	0.250677	0.441154
H54	H	1.139395	0.297314	0.594761
H55	H	1.280442	0.347783	0.534116
H56	H	1.328541	0.226250	0.360995
H57	H	1.264327	-0.306038	0.000190
O58	O	1.361734	-0.423741	0.241217
C59	C	1.236530	-0.385046	0.240804
H60	H	1.207391	-0.366966	0.123921
H61	H	1.171008	-0.430875	0.286170
H62	H	1.229947	-0.326008	0.311985
H63	H	1.595055	-0.333102	0.221966
H64	H	1.702787	-0.446601	0.000249
O65	O	1.604773	-0.329006	-0.241255
C66	C	1.540701	-0.352230	-0.367650
H67	H	1.438315	-0.359588	-0.338881
H68	H	1.543774	-0.301285	-0.454808
H69	H	1.588202	-0.414594	-0.411468
O70	O	1.361799	-0.423628	-0.241081
C71	C	1.236581	-0.384958	-0.240609
H72	H	1.230558	-0.325595	-0.170294
H73	H	1.206485	-0.367420	-0.357418
H74	H	1.171446	-0.430587	-0.193738
H75	H	1.638416	0.020930	0.361006
O76	O	1.651976	0.012014	0.651001
C77	C	1.727316	-0.037943	0.550451
H78	H	1.728720	-0.003495	0.441142
H79	H	1.827606	-0.050130	0.594742
H80	H	1.686545	-0.100597	0.534161
