data_functionalizedCrystal
_audit_creation_method	'MofGen! by Chris Wilmer'
_symmetry_space_group_name_H-M	'P1'
_symmetry_Int_Tables_number	1
_symmetry_cell_setting	triclinic
loop_
_symmetry_equiv_pos_as_xyz
  x,y,z
_cell_length_a	13.033748
_cell_length_b	13.031981
_cell_length_c	12.759393
_cell_angle_alpha	82.783445
_cell_angle_beta	97.153077
_cell_angle_gamma	105.194673
loop_
_atom_site_label
_atom_site_type_symbol
_atom_site_fract_x
_atom_site_fract_y
_atom_site_fract_z
Zn1	Zn	1.570139	-0.216334	-0.366181
Zn2	Zn	1.547469	-0.394030	-0.170679
Zn3	Zn	1.392510	-0.238980	-0.210268
Zn4	Zn	1.369958	-0.416533	-0.366072
O5	O	1.470019	-0.316469	-0.278300
O6	O	1.715759	-0.221010	-0.323724
O7	O	1.526864	-0.373522	-0.028908
O8	O	1.434998	-0.087303	-0.247564
O9	O	1.699104	-0.351563	-0.180089
O10	O	1.565501	-0.070665	-0.362112
O11	O	1.413016	-0.259608	-0.057994
O12	O	1.240891	-0.281428	-0.247459
O13	O	1.396562	-0.389916	-0.513109
O14	O	1.224322	-0.411875	-0.361927
O15	O	1.543634	-0.242830	-0.513189
O16	O	1.504997	-0.545688	-0.179984
O17	O	1.374580	-0.562220	-0.323539
C18	C	1.194069	-0.351552	-0.308978
C19	C	1.076013	-0.366586	-0.322124
C20	C	1.031563	-0.308650	-0.271462
C21	C	0.909546	-0.324187	-0.285048
C22	C	1.434910	-0.592500	-0.247473
C23	C	1.419988	-0.710574	-0.234310
C24	C	1.477864	-0.754905	-0.285185
C25	C	1.462442	-0.876941	-0.271581
C26	C	1.747046	-0.281250	-0.247503
C27	C	1.865099	-0.266242	-0.234379
C28	C	1.470111	-0.316357	-0.552336
C29	C	1.470151	-0.316309	-0.669114
C30	C	1.505294	-0.039357	-0.309267
C31	C	1.520326	0.078731	-0.322463
C32	C	1.546737	-0.239710	-0.724020
C33	C	1.546761	-0.239662	-0.833747
C34	C	1.393608	-0.392822	-0.833652
C35	C	1.393580	-0.392864	-0.723928
C36	C	1.469998	-0.316496	-0.005332
C37	C	1.470202	-0.316219	0.111435
H38	H	0.857272	-0.385298	-0.338480
H39	H	0.917370	-0.205137	-0.180939
Cl40	Cl	0.995310	-0.460935	-0.404615
Cl41	Cl	1.571983	-0.674024	-0.367996
H42	H	1.083839	-0.247550	-0.218026
Cl43	Cl	1.297358	-0.489061	-0.902567
Cl44	Cl	1.297286	-0.489163	-0.654899
H45	H	1.401466	-0.929332	-0.217956
H46	H	1.581293	-0.868880	-0.376098
Cl47	Cl	1.325851	-0.791458	-0.151517
H48	H	1.609084	-0.177372	-0.679394
H49	H	1.609124	-0.177286	-0.878447
