data_functionalizedCrystal
_audit_creation_method	'MofGen! by Chris Wilmer'
_symmetry_space_group_name_H-M	'P1'
_symmetry_Int_Tables_number	1
_symmetry_cell_setting	triclinic
loop_
_symmetry_equiv_pos_as_xyz
  x,y,z
_cell_length_a	13.101039
_cell_length_b	10.723024
_cell_length_c	10.723024
_cell_angle_alpha	84.467869
_cell_angle_beta	93.395424
_cell_angle_gamma	86.610607
loop_
_atom_site_label
_atom_site_type_symbol
_atom_site_fract_x
_atom_site_fract_y
_atom_site_fract_z
O1	O	0.085205	-1.663994	-0.168199
O2	O	0.085208	-1.300842	-0.184952
O3	O	0.085203	-1.490794	0.005000
O4	O	0.085211	-1.474041	-0.358152
O5	O	-0.085226	-1.477165	-0.008651
O6	O	-0.085221	-1.287213	-0.198604
O7	O	-0.085224	-1.650365	-0.181851
Zn8	Zn	-0.112282	-1.466625	-0.192395
Zn9	Zn	0.112266	-1.484582	-0.174408
O10	O	-0.085219	-1.460413	-0.371803
C11	C	-0.000006	-1.247528	-0.190559
C12	C	-0.000005	-1.108974	-0.186911
N13	N	-0.265530	-1.454380	-0.204669
C14	C	-0.000011	-1.482761	0.044674
C15	C	-0.000007	-1.479113	0.183229
C16	C	-0.474572	-1.437719	-0.221381
C17	C	-0.525450	-1.513494	-0.145416
C18	C	-0.641768	-1.504223	-0.154715
C19	C	-0.358244	-1.446988	-0.212084
N20	N	0.265514	-1.496837	-0.162124
C21	C	-0.000008	-1.703679	-0.176244
C22	C	-0.000002	-1.842234	-0.179891
C23	C	-0.000002	-1.033991	-0.293198
C24	C	-0.000000	-0.890788	-0.289431
C25	C	-0.000003	-1.468446	-0.411477
C26	C	0.000000	-1.472094	-0.550031
C27	C	-0.000006	-1.585401	0.258211
C28	C	-0.000003	-1.581634	0.401415
H29	H	-0.518367	-1.365890	-0.293396
O30	O	-0.473199	-1.598911	-0.059220
C31	C	-0.411311	-1.535937	0.023123
H32	H	-0.395269	-1.440153	-0.024782
H33	H	-0.335850	-1.593738	0.048768
H34	H	-0.452768	-1.522999	0.111968
H35	H	-0.000014	-1.679186	0.216389
O36	O	0.000041	-1.084081	-0.404980
C37	C	0.000009	-1.215910	-0.383858
H38	H	0.032275	-1.248097	-0.284124
H39	H	0.049485	-1.260570	-0.453661
H40	H	-0.081757	-1.245664	-0.396710
O41	O	0.000132	-0.919222	-0.071401
C42	C	0.088413	-1.002390	-0.059598
H43	H	0.117843	-1.012048	-0.156370
H44	H	0.068561	-1.098278	-0.015656
H45	H	0.150219	-0.964096	0.002774
H46	H	-0.000007	-1.381098	0.385543
H47	H	0.000020	-1.067153	-0.093123
O48	O	-0.000040	-0.813748	-0.397874
C49	C	-0.000011	-0.687920	-0.369969
H50	H	-0.032279	-0.679630	-0.274475
H51	H	-0.049486	-0.625523	-0.445088
H52	H	0.081755	-0.656860	-0.367781
O53	O	0.000135	-1.690286	0.478156
C54	C	0.088415	-1.767288	0.461981
H55	H	0.117841	-1.739960	0.365836
H56	H	0.068564	-1.869704	0.468786
H57	H	0.150224	-1.754465	0.538240
O58	O	0.000134	-1.367309	0.233267
C59	C	0.088417	-1.365676	0.314797
H60	H	0.117845	-1.466139	0.348600
H61	H	0.068570	-1.313736	0.398949
H62	H	0.150223	-1.315833	0.262774
