data_functionalizedCrystal
_audit_creation_method	'MofGen! by Chris Wilmer'
_symmetry_space_group_name_H-M	'P1'
_symmetry_Int_Tables_number	1
_symmetry_cell_setting	triclinic
loop_
_symmetry_equiv_pos_as_xyz
  x,y,z
_cell_length_a	25.639239
_cell_length_b	18.101398
_cell_length_c	18.101389
_cell_angle_alpha	89.975673
_cell_angle_beta	90.021003
_cell_angle_gamma	89.965450
loop_
_atom_site_label
_atom_site_type_symbol
_atom_site_fract_x
_atom_site_fract_y
_atom_site_fract_z
Zn1	Zn	-0.208272	-1.132079	0.418825
Zn2	Zn	-0.295693	-1.131957	0.294978
Zn3	Zn	-0.208266	-1.008238	0.294987
Zn4	Zn	-0.295671	-1.008171	0.418767
O5	O	-0.251975	-1.070111	0.356889
O6	O	-0.219880	-1.235696	0.402418
O7	O	-0.284103	-1.115522	0.191346
O8	O	-0.135102	-1.024745	0.311442
O9	O	-0.284108	-1.235606	0.311428
O10	O	-0.135106	-1.115730	0.402426
O11	O	-0.219871	-1.024626	0.191353
O12	O	-0.219849	-0.904596	0.311385
O13	O	-0.284070	-1.024630	0.522408
O14	O	-0.284065	-0.904547	0.402326
O15	O	-0.219858	-1.115665	0.522451
O16	O	-0.368855	-1.115458	0.311371
O17	O	-0.368839	-1.024512	0.402318
C18	C	-0.387818	-1.069985	0.356853
C19	C	-0.445932	-1.069998	0.356863
C20	C	-0.251954	-0.877701	0.356851
C21	C	-0.251958	-0.795387	0.356852
C22	C	-0.251962	-1.070154	0.550051
C23	C	-0.251957	-1.070172	0.632365
C24	C	-0.697129	-1.022747	0.404230
C25	C	-0.642525	-1.022720	0.404222
O26	O	-0.614292	-0.982423	0.444470
N27	N	-0.615206	-1.070091	0.356902
C28	C	-0.642494	-1.117499	0.309593
O29	O	-0.614243	-1.157790	0.269343
C30	C	-0.697097	-1.117530	0.309605
C31	C	-0.724413	-1.070149	0.356923
C32	C	-0.724446	-0.975371	0.451545
C33	C	-0.779046	-0.975398	0.451552
C34	C	-0.806330	-1.022800	0.404245
C35	C	-0.779014	-1.070176	0.356931
C36	C	-0.724384	-1.164940	0.262301
C37	C	-0.778991	-1.164967	0.262318
C38	C	-0.806307	-1.117587	0.309636
C39	C	-0.860899	-1.117605	0.309631
N40	N	-0.888218	-1.070233	0.356951
C41	C	-0.860934	-1.022831	0.404258
C42	C	-0.527823	-1.117432	0.309570
C43	C	-0.473221	-1.117398	0.309553
C44	C	-0.473256	-1.022620	0.404183
C45	C	-0.527859	-1.022650	0.404196
C46	C	-0.555142	-1.070060	0.356890
C47	C	-0.975599	-1.022890	0.404270
C48	C	-1.030204	-1.022919	0.404271
C49	C	-1.030164	-1.117700	0.309643
C50	C	-0.975564	-1.117669	0.309639
C51	C	-0.948282	-1.070261	0.356958
O52	O	-0.889167	-1.157883	0.269405
O53	O	-0.889191	-0.982553	0.444508
C54	C	-0.115602	-1.070258	0.356941
C55	C	-0.057488	-1.070321	0.356964
C56	C	-0.251997	-1.263273	0.356928
C57	C	-0.252006	-1.345587	0.356945
C58	C	-0.251990	-0.496296	0.356914
C59	C	-0.211386	-0.527627	0.299976
C60	C	-0.211495	-0.613245	0.299733
C61	C	-0.251974	-0.644678	0.356883
C62	C	-0.307048	-0.613549	0.335555
C63	C	-0.306822	-0.527904	0.335159
C64	C	-0.238000	-0.527913	0.435314
C65	C	-0.236773	-0.613564	0.434886
C66	C	-0.251968	-0.728538	0.356867
C67	C	-0.252000	-0.412436	0.356928
C68	C	-0.251951	-1.070111	0.164479
C69	C	-0.251809	-1.070236	0.082165
C70	C	-0.251859	-1.070215	0.931457
C71	C	-0.292130	-1.012742	0.900104
C72	C	-0.292317	-1.012897	0.814486
C73	C	-0.251907	-1.070193	0.783074
C74	C	-0.266868	-1.148216	0.814179
C75	C	-0.267132	-1.147895	0.899824
C76	C	-0.196537	-1.050345	0.899884
C77	C	-0.196856	-1.048609	0.814233
C78	C	-0.251934	-1.070186	0.699214
C79	C	-0.251833	-1.070228	1.015316
H80	H	-0.953392	-0.984288	0.442802
N81	N	-1.058114	-0.974519	0.452598
N82	N	-1.088623	-0.927357	0.426499
H83	H	-1.108334	-0.893176	0.460629
H84	H	-0.550097	-0.984073	0.442730
N85	N	-0.280499	-0.939943	0.925927
N86	N	-0.242395	-0.929565	0.967742
H87	H	-0.234180	-0.878149	0.985986
H88	H	-0.185574	-0.991192	0.793902
N89	N	-0.806937	-0.926997	0.499893
N90	N	-0.782560	-0.884683	0.542126
H91	H	-0.802255	-0.850498	0.576272
H92	H	-0.319119	-0.634961	0.278859
H93	H	-0.166532	-1.092207	0.920162
N94	N	-0.222854	-0.500578	0.227526
N95	N	-0.260801	-0.458326	0.217645
H96	H	-0.268903	-0.439220	0.166478
N97	N	-0.343733	-1.029433	0.788735
N98	N	-0.367604	-0.984052	0.749109
H99	H	-0.403912	-0.995753	0.730909
H100	H	-0.318688	-0.507890	0.277845
H101	H	-0.332886	-1.025729	0.921627
H102	H	-0.170421	-0.507065	0.313198
N103	N	-0.188502	-0.500855	0.459652
N104	N	-0.181398	-0.432955	0.467114
H105	H	-0.146439	-0.413844	0.484296
H106	H	-0.550034	-1.156038	0.271041
H107	H	-0.450984	-1.155971	0.271014
H108	H	-0.307573	-1.164742	0.919804
H109	H	-0.702236	-0.936771	0.490071
N110	N	-0.223097	-0.638896	0.226852
N111	N	-0.231143	-0.593546	0.176010
H112	H	-0.239339	-0.611660	0.124535
N113	N	-0.445372	-0.974206	0.452507
N114	N	-0.396619	-0.974196	0.452489
H115	H	-0.376924	-0.940008	0.486616
N116	N	-0.231932	-1.203435	0.925838
N117	N	-0.207251	-1.242313	0.880739
H118	H	-0.182392	-1.281539	0.899108
H119	H	-0.238457	-1.192187	0.793835
H120	H	-0.702151	-1.203522	0.223771
H121	H	-0.801202	-1.203578	0.223797
N122	N	-0.947666	-1.166059	0.261291
N123	N	-0.972036	-1.208374	0.219052
H124	H	-0.952337	-1.242554	0.184908
N125	N	-1.058043	-1.166106	0.261313
N126	N	-1.088547	-1.140088	0.214105
H127	H	-1.108239	-1.174276	0.179973
N128	N	-0.160256	-0.639644	0.316482
N129	N	-0.124165	-0.594816	0.328432
H130	H	-0.087974	-0.613456	0.340251
N131	N	-0.185929	-0.639094	0.455053
N132	N	-0.160952	-0.680054	0.412178
H133	H	-0.125043	-0.698090	0.426418
N134	N	-0.346062	-0.501906	0.384912
N135	N	-0.373530	-0.547018	0.419812
H136	H	-0.401246	-0.528661	0.454945
N137	N	-0.317060	-1.169711	0.787270
N138	N	-0.341900	-1.127704	0.745195
H139	H	-0.377349	-1.142881	0.726190
H140	H	-0.338111	-0.633907	0.375728
N141	N	-0.179432	-0.980219	0.926967
N142	N	-0.174163	-0.970150	0.994872
H143	H	-0.162086	-0.920621	1.014002
N144	N	-0.271202	-0.640361	0.490944
N145	N	-0.307665	-0.683017	0.474244
H146	H	-0.331995	-0.701922	0.513829
H147	H	-0.267575	-0.507650	0.477739
N148	N	-0.157220	-1.097295	0.787404
N149	N	-0.168953	-1.148926	0.744695
H150	H	-0.140961	-1.183317	0.725747
H151	H	-0.282955	-0.955040	0.793454
