data_functionalizedCrystal
_audit_creation_method	'MofGen! by Chris Wilmer'
_symmetry_space_group_name_H-M	'P1'
_symmetry_Int_Tables_number	1
_symmetry_cell_setting	triclinic
loop_
_symmetry_equiv_pos_as_xyz
  x,y,z
_cell_length_a	27.440280
_cell_length_b	14.560438
_cell_length_c	14.560438
_cell_angle_alpha	59.996693
_cell_angle_beta	89.996099
_cell_angle_gamma	59.995393
loop_
_atom_site_label
_atom_site_type_symbol
_atom_site_fract_x
_atom_site_fract_y
_atom_site_fract_z
Zr1	Zr	0.469499	1.005230	-0.120623
O2	O	0.391680	1.196854	-0.267278
O3	O	0.493354	0.813616	-0.075657
O4	O	0.493353	1.005228	-0.267273
O5	O	0.391684	1.005241	0.075479
O6	O	0.573555	1.005213	-0.267279
O7	O	0.391681	1.005243	-0.075662
O8	O	0.573558	0.662455	0.075489
O9	O	0.391680	1.347998	-0.267288
O10	O	0.563383	0.892414	-0.056493
O11	O	0.503531	0.892423	0.056305
O12	O	0.503528	1.118021	-0.169298
O13	O	0.443676	1.118030	-0.056500
Zr14	Zr	0.597415	1.005202	0.120421
Zr15	Zr	0.597412	1.005206	-0.120632
Zr16	Zr	0.469502	1.005226	0.120429
Zr17	Zr	0.469500	1.246287	-0.120638
Zr18	Zr	0.597414	0.764145	0.120436
O19	O	0.573560	1.196815	0.075454
O20	O	0.573555	1.196821	-0.267291
O21	O	0.391684	1.196849	0.075467
O22	O	0.675235	0.813577	0.267076
O23	O	0.675230	0.813583	-0.075669
O24	O	0.493359	0.813611	0.267089
O25	O	0.675231	1.005191	-0.075681
O26	O	0.573562	1.005204	0.267071
O27	O	0.493360	1.005219	0.267076
O28	O	0.675233	1.005189	0.075460
O29	O	0.493354	1.347980	-0.267295
O30	O	0.573560	0.662452	0.267093
O31	O	0.675234	0.662433	0.267086
O32	O	0.675232	0.662437	0.075482
O33	O	0.391683	1.347995	-0.075684
O34	O	0.493357	1.347976	-0.075691
O35	O	0.563386	0.892411	0.169096
O36	O	0.623238	0.892401	0.056297
O37	O	0.563384	1.118008	-0.056508
O38	O	0.503531	1.118017	0.056291
C39	C	0.533456	0.703690	-0.000082
C40	C	0.533456	0.601355	-0.000075
C41	C	0.489270	0.636579	-0.083355
C42	C	0.489272	0.540439	-0.083383
C43	C	0.577649	0.373853	0.083157
C44	C	0.577649	0.469992	0.083180
C45	C	0.373458	1.005245	-0.000090
C46	C	0.319155	1.005255	-0.000086
C47	C	-0.017544	1.005188	-0.083368
C48	C	-0.068561	1.005179	-0.083368
O49	O	-0.094937	1.005132	-0.154158
N50	N	-0.094078	1.005180	-0.000105
C51	C	-0.068571	1.005177	0.083171
O52	O	-0.094959	1.005176	0.153994
C53	C	-0.017551	1.005177	0.083176
C54	C	0.007959	1.005189	-0.000100
C55	C	0.007967	1.005199	-0.166636
C56	C	0.058981	1.005211	-0.166636
C57	C	0.084484	1.005212	-0.083368
C58	C	0.058973	1.005201	-0.000100
C59	C	0.007958	1.005165	0.166455
C60	C	0.058981	1.005164	0.166453
C61	C	0.084491	1.005176	0.083177
C62	C	0.135489	1.005213	0.083167
N63	N	0.161006	1.005212	-0.000096
C64	C	0.135503	1.005212	-0.083364
C65	C	-0.175714	1.005175	0.083157
C66	C	-0.226735	1.005184	0.083149
C67	C	-0.226722	1.005184	-0.083390
C68	C	-0.175702	1.005184	-0.083385
C69	C	-0.150198	1.005174	-0.000106
C70	C	0.242636	1.005237	-0.083359
C71	C	0.293653	1.005254	-0.083354
C72	C	0.293636	1.005248	0.083187
C73	C	0.242622	1.005238	0.083180
C74	C	0.217124	1.005228	-0.000098
O75	O	0.161899	1.005256	0.153924
O76	O	0.161902	1.005196	-0.154166
C77	C	0.693457	1.005186	-0.000112
C78	C	0.747759	1.005176	-0.000116
C79	C	0.533453	1.005221	-0.301621
C80	C	0.533452	1.005223	-0.403954
C81	C	0.533458	1.306741	-0.000121
C82	C	0.533459	1.409076	-0.000127
C83	C	0.502209	1.122985	-0.510913
C84	C	0.502216	1.122979	-0.607062
C85	C	0.564709	0.887438	-0.489278
C86	C	0.564705	0.887445	-0.393132
C87	C	0.533461	1.005211	0.301418
C88	C	0.533463	1.005209	0.403751
C89	C	0.693456	0.703661	-0.000093
C90	C	0.747758	0.601316	-0.000090
C91	C	0.533460	0.703685	0.301438
C92	C	0.533461	0.601349	0.403777
C93	C	0.693460	0.703656	0.301427
C94	C	0.747763	0.601309	0.403763
C95	C	0.373455	1.306776	-0.301629
C96	C	0.319151	1.409122	-0.403965
C97	C	0.373459	1.306771	-0.000110
C98	C	0.319157	1.409116	-0.000112
C99	C	0.533454	1.306746	-0.301640
C100	C	0.533453	1.409083	-0.403980
C101	C	0.742014	0.553260	-0.058974
C102	C	0.793032	0.457110	-0.058994
C103	C	0.849792	0.409010	-0.000122
C104	C	0.855534	0.457075	0.058764
C105	C	0.804517	0.553230	0.058776
C106	C	0.804512	0.553241	0.392941
C107	C	0.855541	0.457089	0.489087
C108	C	0.849819	0.409000	0.596054
C109	C	0.793064	0.457077	0.606873
C110	C	0.742037	0.553234	0.510728
C111	C	0.262402	1.457202	-0.393143
C112	C	0.211374	1.553384	-0.489289
C113	C	0.217095	1.601478	-0.596256
C114	C	0.273850	1.553395	-0.607076
C115	C	0.324878	1.457221	-0.510931
C116	C	0.324900	1.457181	0.058762
C117	C	0.273882	1.553359	0.058755
C118	C	0.217122	1.601462	-0.000120
C119	C	0.211380	1.553392	-0.059002
C120	C	0.262397	1.457223	-0.059001
C121	C	0.564705	0.553262	0.510732
C122	C	0.564699	0.457115	0.606887
C123	C	0.502205	0.457145	0.489119
C124	C	0.502207	0.553297	0.392966
H125	H	0.314421	1.005268	-0.151171
H126	H	0.453281	0.743537	-0.151140
H127	H	0.590151	0.592387	0.519541
H128	H	0.901749	0.417954	0.480257
H129	H	0.476760	1.218887	-0.519731
H130	H	0.788345	0.417987	-0.106946
H131	H	0.695802	0.592422	-0.106928
H132	H	0.613629	0.266889	0.150941
H133	H	0.891329	0.330713	-0.000141
H134	H	0.809202	0.592345	0.106734
H135	H	0.175586	1.679769	-0.000111
H136	H	0.891374	0.330703	0.674332
H137	H	0.278569	1.592481	0.106708
H138	H	0.314407	1.005254	0.150980
H139	H	0.476760	0.418009	0.480330
H140	H	0.257732	1.418049	-0.306054
H141	H	0.901755	0.417898	0.106695
H142	H	0.590140	0.417968	0.693971
H143	H	0.453292	0.569131	-0.151199
H144	H	0.079745	1.005152	0.234272
H145	H	0.221882	1.005227	-0.151170
H146	H	0.221846	1.005247	0.150981
H147	H	0.809182	0.592381	0.305851
H148	H	0.613634	0.441300	0.150998
H149	H	0.476776	1.218873	-0.694150
H150	H	0.079750	1.005215	-0.234443
H151	H	0.695831	0.592359	0.519555
H152	H	0.476762	0.592453	0.305872
H153	H	-0.154934	1.005193	-0.151195
H154	H	0.590154	0.791548	-0.480481
H155	H	0.788414	0.417909	0.693979
H156	H	0.165159	1.592573	-0.106936
H157	H	0.590150	0.791543	-0.306034
H158	H	-0.012791	1.005194	-0.234443
H159	H	0.165166	1.592517	-0.480458
H160	H	0.278502	1.592566	-0.694180
H161	H	-0.247508	1.005195	0.150949
H162	H	-0.247495	1.005180	-0.151189
H163	H	0.175541	1.679789	-0.674534
H164	H	0.371084	1.418075	-0.519755
H165	H	-0.154954	1.005177	0.150971
H166	H	0.371112	1.418023	0.106712
H167	H	-0.012806	1.005154	0.234266
H168	H	0.257713	1.418091	-0.106940
