data_functionalizedCrystal
_audit_creation_method	'MofGen! by Chris Wilmer'
_symmetry_space_group_name_H-M	'P1'
_symmetry_Int_Tables_number	1
_symmetry_cell_setting	triclinic
loop_
_symmetry_equiv_pos_as_xyz
  x,y,z
_cell_length_a	23.532407
_cell_length_b	14.044190
_cell_length_c	22.610064
_cell_angle_alpha	90.008303
_cell_angle_beta	89.987406
_cell_angle_gamma	91.979738
loop_
_atom_site_label
_atom_site_type_symbol
_atom_site_fract_x
_atom_site_fract_y
_atom_site_fract_z
O1	O	-0.761504	0.115008	0.049153
O2	O	-0.596543	0.131649	0.049164
O3	O	-0.676545	-0.014633	0.049147
O4	O	-0.681501	0.261290	0.049170
O5	O	-0.676519	-0.014633	-0.049222
O6	O	-0.596517	0.131649	-0.049205
O7	O	-0.761478	0.115008	-0.049216
Zn8	Zn	-0.678994	0.123328	-0.064829
Zn9	Zn	-0.679027	0.123328	0.064777
O10	O	-0.681476	0.261290	-0.049199
C11	C	-0.575291	0.131225	-0.000020
C12	C	-0.512005	0.129951	-0.000016
C13	C	-0.674364	-0.049927	-0.000039
C14	C	-0.667896	-0.155092	-0.000044
C15	C	-0.782730	0.115432	-0.000031
C16	C	-0.846016	0.116706	-0.000030
C17	C	-0.240859	0.038130	-0.000040
C18	C	-0.300323	0.039314	-0.000040
O19	O	-0.333119	-0.033526	-0.000066
N20	N	-0.327665	0.126278	-0.000029
C21	C	-0.295538	0.212065	-0.000024
O22	O	-0.324254	0.286144	-0.000014
C23	C	-0.236075	0.210880	-0.000028
C24	C	-0.208737	0.123910	-0.000033
C25	C	-0.213521	-0.048833	-0.000046
C26	C	-0.154061	-0.050016	-0.000045
C27	C	-0.121938	0.035764	-0.000038
C28	C	-0.149277	0.122727	-0.000032
C29	C	-0.203949	0.296666	-0.000027
C30	C	-0.144482	0.295474	-0.000032
C31	C	-0.117144	0.208504	-0.000037
C32	C	-0.057694	0.207324	-0.000025
N33	N	-0.030353	0.120360	-0.000036
C34	C	-0.062475	0.034580	-0.000043
C35	C	-0.420415	0.214546	-0.000015
C36	C	-0.479877	0.215732	-0.000006
C37	C	-0.484659	0.042980	-0.000024
C38	C	-0.425195	0.041795	-0.000028
C39	C	-0.393074	0.127581	-0.000026
C40	C	0.062396	0.032102	-0.000041
C41	C	0.121862	0.030926	-0.000037
C42	C	0.126638	0.203677	-0.000023
C43	C	0.067177	0.204853	-0.000023
C44	C	0.035058	0.119058	-0.000034
O45	O	-0.024862	0.280126	-0.000001
O46	O	-0.033752	-0.039487	-0.000060
N47	N	-0.678975	0.123328	-0.153281
C48	C	-0.701942	-0.405699	-0.000023
C49	C	-0.656082	-0.347638	-0.000024
C50	C	-0.662657	-0.240496	-0.000035
C51	C	-0.695367	-0.512852	-0.000012
C52	C	-0.683657	0.296584	-0.000012
C53	C	-0.690124	0.401749	-0.000003
C54	C	-0.716471	0.180489	-0.561920
C55	C	-0.716478	0.180487	-0.623840
O56	O	-0.748336	0.229081	-0.655856
N57	N	-0.679038	0.123318	-0.654818
C58	C	-0.641592	0.066140	-0.623874
O59	O	-0.609747	0.017512	-0.655909
C60	C	-0.641588	0.066138	-0.561955
C61	C	-0.679027	0.123318	-0.530980
C62	C	-0.753907	0.237664	-0.530945
C63	C	-0.753899	0.237667	-0.469029
C64	C	-0.716455	0.180496	-0.438089
C65	C	-0.679019	0.123321	-0.469064
C66	C	-0.604145	0.008956	-0.531012
C67	C	-0.604145	0.008958	-0.469089
C68	C	-0.641584	0.066138	-0.438113
C69	C	-0.641567	0.066154	-0.376208
N70	N	-0.679007	0.123323	-0.345230
C71	C	-0.716451	0.180494	-0.376170
C72	C	-0.641603	0.066147	-0.753907
C73	C	-0.641604	0.066154	-0.815825
C74	C	-0.716491	0.180499	-0.815787
C75	C	-0.716487	0.180497	-0.753868
C76	C	-0.679044	0.123316	-0.722929
C77	C	-0.716432	0.180498	-0.246143
C78	C	-0.716419	0.180499	-0.184221
C79	C	-0.641534	0.066150	-0.184265
C80	C	-0.641544	0.066152	-0.246181
C81	C	-0.678998	0.123328	-0.277118
O82	O	-0.609727	0.017581	-0.344152
O83	O	-0.748296	0.229104	-0.344127
N84	N	-0.679050	0.123322	0.153229
H85	H	0.144117	-0.039899	-0.000040
H86	H	-0.502131	0.286551	0.000006
O87	O	-0.385770	0.307078	-0.000003
H88	H	-0.414777	0.367741	0.000011
O89	O	-0.756882	0.242161	-0.849164
H90	H	-0.801329	0.221162	-0.837265
O91	O	-0.597532	-0.388375	-0.000020
H92	H	-0.574078	-0.363832	-0.040115
H93	H	-0.611107	0.019587	-0.728721
O94	O	-0.760489	-0.364967	-0.000038
H95	H	-0.756530	-0.285984	-0.000051
O96	O	0.027756	-0.060432	-0.000048
H97	H	0.056764	-0.121094	-0.000046
O98	O	-0.756801	0.242173	-0.150811
H99	H	-0.782842	0.281918	-0.182732
H100	H	-0.573659	-0.037608	-0.556221
H101	H	-0.573654	-0.037607	-0.443901
O102	O	-0.756822	0.242172	-0.279507
H103	H	-0.782845	0.281932	-0.247557
H104	H	-0.226197	0.367486	-0.000020
O105	O	-0.794282	0.299335	-0.435622
H106	H	-0.820320	0.339078	-0.467548
H107	H	-0.784402	0.284219	-0.556130
H108	H	-0.611052	0.019603	-0.271402
H109	H	-0.746973	0.227059	-0.728652
O110	O	-0.109834	0.388001	-0.000031
H111	H	-0.120105	0.429646	0.040067
H112	H	0.044918	0.275671	-0.000018
H113	H	-0.611046	0.019605	-0.159062
O114	O	-0.124577	-0.143819	-0.000066
H115	H	-0.156912	-0.203260	-0.000080
O116	O	-0.248163	-0.141360	-0.000052
H117	H	-0.219154	-0.202020	-0.000054
H118	H	0.152802	0.273517	-0.000015
O119	O	-0.601234	0.004464	-0.849233
H120	H	-0.575205	-0.035301	-0.817309
H121	H	-0.402941	-0.029023	-0.000033
H122	H	-0.510823	-0.026867	-0.000029
