data_functionalizedCrystal
_audit_creation_method	'MofGen! by Chris Wilmer'
_symmetry_space_group_name_H-M	'P1'
_symmetry_Int_Tables_number	1
_symmetry_cell_setting	triclinic
loop_
_symmetry_equiv_pos_as_xyz
  x,y,z
_cell_length_a	15.944499
_cell_length_b	12.837942
_cell_length_c	11.295483
_cell_angle_alpha	85.469583
_cell_angle_beta	85.892628
_cell_angle_gamma	90.846725
loop_
_atom_site_label
_atom_site_type_symbol
_atom_site_fract_x
_atom_site_fract_y
_atom_site_fract_z
O1	O	1.130329	-0.126451	-0.099097
O2	O	0.887095	-0.142991	-0.099084
O3	O	1.003318	0.016180	-0.099083
O4	O	1.014106	-0.285623	-0.099098
O5	O	0.993108	0.002221	0.098968
O6	O	0.876886	-0.156950	0.098967
O7	O	1.120119	-0.140410	0.098954
Cu8	Cu	0.997570	-0.149955	0.117044
Cu9	Cu	1.009644	-0.133447	-0.117174
O10	O	1.003896	-0.299582	0.098953
C11	C	0.850642	-0.149294	-0.000056
C12	C	0.757231	-0.147264	-0.000051
C13	C	0.473093	-0.239737	-0.000074
C14	C	0.535311	-0.184784	-0.097723
C15	C	0.421005	-0.139887	-0.000078
C16	C	0.525229	-0.198519	0.097540
C17	C	0.586204	-0.143517	-0.000063
C18	C	0.481997	-0.084900	-0.097808
C19	C	0.471905	-0.098656	0.097542
C20	C	0.534100	-0.043629	-0.000131
C21	C	0.325839	-0.137798	-0.000088
C22	C	0.681369	-0.145597	-0.000062
C23	C	0.994569	0.047821	-0.000058
C24	C	0.983702	0.162896	-0.000059
C25	C	1.156573	-0.134108	-0.000076
C26	C	1.249984	-0.136137	-0.000089
C27	C	1.012645	-0.331222	-0.000075
C28	C	1.023513	-0.446297	-0.000081
N29	N	0.989084	-0.161565	0.281780
C30	C	1.114356	0.403878	-0.000091
C31	C	1.104149	0.512002	-0.000092
C32	C	0.953080	0.487272	-0.000072
C33	C	0.963288	0.379147	-0.000070
C34	C	1.043928	0.337455	-0.000078
C35	C	1.054135	0.229328	-0.000068
C36	C	0.903067	0.204600	-0.000056
C37	C	0.892860	0.312724	-0.000058
N38	N	1.018137	-0.121828	-0.281910
C39	C	1.079221	-0.038194	0.531071
C40	C	1.072815	-0.046975	0.655734
C41	C	0.969860	-0.187903	0.655773
C42	C	0.976266	-0.179122	0.531110
C43	C	1.030950	-0.104266	0.468763
C44	C	1.037361	-0.095490	0.344097
C45	C	0.934402	-0.236412	0.344138
C46	C	0.927995	-0.245194	0.468802
H47	H	0.560645	0.039314	-0.000178
H48	H	0.827204	0.346686	-0.000056
H49	H	0.845719	0.150505	-0.000036
C50	C	1.138610	0.043170	0.463587
C51	C	1.179503	0.099168	0.544837
C52	C	1.234211	0.174138	0.482717
H53	H	1.179128	0.009406	0.414936
H54	H	1.107455	0.089820	0.414994
H55	H	1.210656	0.052525	0.593410
H56	H	1.139006	0.132955	0.593490
H57	H	1.203056	0.220788	0.434124
H58	H	1.274723	0.140365	0.434068
H59	H	1.261958	0.212148	0.537835
C60	C	0.456715	-0.020790	-0.208056
C61	C	0.529054	0.017099	-0.276461
C62	C	0.505796	0.076167	-0.378021
H63	H	0.424726	-0.063485	-0.253838
H64	H	0.423866	0.036289	-0.184760
H65	H	0.561890	-0.039972	-0.299759
H66	H	0.561052	0.059808	-0.230715
H67	H	0.472946	0.133246	-0.354725
H68	H	0.473806	0.033466	-0.423793
H69	H	0.554873	0.101890	-0.424441
H70	H	1.180016	0.369930	-0.000086
H71	H	0.544428	-0.246587	0.180091
C72	C	0.434930	-0.050334	0.207768
C73	C	0.456560	-0.110152	0.309739
C74	C	0.422502	-0.065688	0.411311
H75	H	0.456641	0.018882	0.208638
H76	H	0.375437	-0.048829	0.206635
H77	H	0.516041	-0.111646	0.310873
H78	H	0.434850	-0.179368	0.308909
H79	H	0.363009	-0.064183	0.410177
H80	H	0.444215	0.003527	0.412169
H81	H	0.437166	-0.106273	0.480510
H82	H	0.925332	-0.248842	0.706553
C83	C	0.868545	-0.326490	0.536283
C84	C	0.827627	-0.382457	0.455029
C85	C	0.772847	-0.457347	0.517146
H86	H	0.899623	-0.373180	0.584912
H87	H	0.828050	-0.292630	0.584898
H88	H	0.868117	-0.416316	0.406435
H89	H	0.796533	-0.335796	0.406398
H90	H	0.732352	-0.423487	0.565761
H91	H	0.803932	-0.504030	0.565772
H92	H	0.745072	-0.495323	0.462025
H93	H	1.081889	-0.034542	0.293335
H94	H	0.895098	-0.290215	0.293393
H95	H	1.119796	0.195383	-0.000070
H96	H	1.112121	0.006828	0.706462
C97	C	1.180716	0.583943	-0.000043
C98	C	1.253516	0.524280	-0.000021
C99	C	1.324067	0.590515	0.000039
H100	H	1.183549	0.631522	-0.069089
H101	H	1.176363	0.621755	0.069049
H102	H	1.257869	0.486485	-0.069106
H103	H	1.250711	0.476703	0.069020
H104	H	1.319714	0.628327	0.069131
H105	H	1.326892	0.638091	-0.069009
H106	H	1.373470	0.550043	0.000064
C107	C	0.865600	0.532747	-0.000006
C108	C	0.871739	0.641653	0.000014
C109	C	0.791169	0.683579	0.000091
H110	H	0.839719	0.514924	-0.069046
H111	H	0.832665	0.505146	0.069093
H112	H	0.904662	0.669244	-0.069078
H113	H	0.897606	0.659506	0.069048
H114	H	0.758234	0.655978	0.069190
H115	H	0.765295	0.665748	-0.068949
H116	H	0.795323	0.757475	0.000116
H117	H	0.446397	-0.322595	-0.000172
H118	H	0.563044	-0.221201	-0.180276
