data_functionalizedCrystal
_audit_creation_method	'MofGen! by Chris Wilmer'
_symmetry_space_group_name_H-M	'P1'
_symmetry_Int_Tables_number	1
_symmetry_cell_setting	triclinic
loop_
_symmetry_equiv_pos_as_xyz
  x,y,z
_cell_length_a	18.215407
_cell_length_b	16.625545
_cell_length_c	18.215399
_cell_angle_alpha	89.972987
_cell_angle_beta	90.019833
_cell_angle_gamma	89.975515
loop_
_atom_site_label
_atom_site_type_symbol
_atom_site_fract_x
_atom_site_fract_y
_atom_site_fract_z
Zn1	Zn	1.125076	0.321000	0.416121
Zn2	Zn	1.124987	0.455841	0.293056
Zn3	Zn	1.002009	0.321027	0.293068
Zn4	Zn	1.001977	0.455796	0.416081
O5	O	1.063512	0.388416	0.354582
O6	O	1.228049	0.338895	0.399808
O7	O	1.108649	0.437987	0.190074
O8	O	1.018385	0.208191	0.309413
O9	O	1.227983	0.437961	0.309393
O10	O	1.108802	0.208171	0.399819
O11	O	1.018298	0.338940	0.190082
O12	O	0.899020	0.338896	0.309374
O13	O	1.018330	0.437885	0.519071
O14	O	0.898997	0.437910	0.399752
O15	O	1.108771	0.338851	0.519100
O16	O	1.108618	0.568667	0.309355
O17	O	1.018243	0.568634	0.399740
C18	C	0.872306	0.388402	0.354560
C19	C	0.790507	0.388415	0.354569
C20	C	1.063437	0.597907	0.354558
C21	C	1.063472	0.687528	0.354573
C22	C	0.602320	0.440053	0.401569
C23	C	0.525461	0.440056	0.401578
C24	C	0.525456	0.336793	0.307610
C25	C	0.602314	0.336787	0.307605
C26	C	0.640743	0.388422	0.354584
C27	C	0.487027	0.388430	0.354598
C28	C	0.403694	0.388433	0.354607
C29	C	0.724082	0.388418	0.354575
C30	C	1.063593	1.015703	0.354660
C31	C	1.063557	0.924395	0.354638
C32	C	1.063532	0.851618	0.354616
C33	C	1.063497	0.760304	0.354594
C34	C	1.255465	0.388430	0.354603
C35	C	1.337264	0.388436	0.354612
C36	C	1.063557	0.388360	0.546535
C37	C	1.063576	0.388336	0.628334
C38	C	1.063601	1.178107	0.354630
C39	C	1.063623	1.088486	0.354673
C40	C	1.063510	0.388413	0.163375
C41	C	1.063633	0.388209	0.081577
C42	C	1.110685	0.336721	0.816544
C43	C	1.110694	0.336698	0.893403
C44	C	1.016519	0.439827	0.893361
C45	C	1.016507	0.439846	0.816504
C46	C	1.063594	0.388294	0.778097
C47	C	1.063615	0.388252	0.931813
C48	C	1.063624	0.388227	1.015147
C49	C	1.063584	0.388318	0.694758
H50	H	0.633607	0.482096	0.439824
Cl51	Cl	0.957297	0.504681	0.768167
Cl52	Cl	0.477160	0.504966	0.460650
H53	H	1.149039	0.294701	0.924702
H54	H	1.149025	0.294743	0.785275
H55	H	0.978183	0.481800	0.924641
Cl56	Cl	0.650621	0.271868	0.248537
Cl57	Cl	0.477139	0.271886	0.248553
