data_functionalizedCrystal
_audit_creation_method	'MofGen! by Chris Wilmer'
_symmetry_space_group_name_H-M	'P1'
_symmetry_Int_Tables_number	1
_symmetry_cell_setting	triclinic
loop_
_symmetry_equiv_pos_as_xyz
  x,y,z
_cell_length_a	19.188930
_cell_length_b	19.188930
_cell_length_c	18.266242
_cell_angle_alpha	90.010255
_cell_angle_beta	90.022820
_cell_angle_gamma	83.144779
loop_
_atom_site_label
_atom_site_type_symbol
_atom_site_fract_x
_atom_site_fract_y
_atom_site_fract_z
O1	O	0.926149	0.087167	0.061124
O2	O	0.722838	0.098902	0.061075
O3	O	0.830361	-0.008621	0.061087
O4	O	0.818627	0.194690	0.061113
O5	O	0.830343	-0.008624	-0.060675
O6	O	0.722820	0.098899	-0.060687
O7	O	0.926131	0.087164	-0.060638
Zn8	Zn	0.824473	0.093031	-0.079994
Zn9	Zn	0.824497	0.093035	0.080432
O10	O	0.818608	0.194687	-0.060649
C11	C	0.696818	0.098520	0.000188
C12	C	0.619313	0.097380	0.000169
C13	C	0.829972	-0.034634	0.000204
C14	C	0.828831	-0.112138	0.000197
C15	C	0.574389	0.160470	0.000188
C16	C	0.501566	0.159399	0.000196
C17	C	0.473669	0.095233	0.000199
C18	C	0.518603	0.032133	0.000175
C19	C	0.591425	0.033207	0.000160
N20	N	0.365695	0.046187	0.041663
N21	N	0.296517	0.045171	0.041679
C22	C	0.254260	0.091994	0.000243
N23	N	0.283795	0.139882	-0.041200
N24	N	0.352980	0.140900	-0.041213
C25	C	0.394707	0.094062	0.000215
C26	C	0.130372	0.153928	0.000270
C27	C	0.057547	0.152853	0.000274
C28	C	0.074586	0.025586	0.000261
C29	C	0.147409	0.026662	0.000250
C30	C	0.175298	0.090835	0.000258
C31	C	0.891922	-0.157062	0.000209
C32	C	0.890850	-0.229886	0.000220
C33	C	0.826684	-0.257782	0.000206
C34	C	0.763585	-0.212849	0.000198
C35	C	0.764658	-0.140026	0.000194
N36	N	0.777631	-0.365788	-0.041244
N37	N	0.776615	-0.434967	-0.041242
C38	C	0.823446	-0.477191	0.000220
N39	N	0.871341	-0.447625	0.041669
N40	N	0.872359	-0.378440	0.041664
C41	C	0.825513	-0.336745	0.000210
C42	C	0.885379	-0.601079	0.000245
C43	C	0.884305	-0.673904	0.000261
C44	C	0.757038	-0.656865	0.000231
C45	C	0.758114	-0.584042	0.000222
C46	C	0.822287	-0.556154	0.000226
C47	C	0.952151	0.087546	0.000252
C48	C	1.029656	0.088687	0.000276
C49	C	0.818997	0.220700	0.000236
C50	C	0.820138	0.298204	0.000247
N51	N	0.824461	0.093028	-0.189481
C52	C	0.866670	0.135273	-0.227768
C53	C	0.866682	0.135271	-0.304413
C54	C	0.824471	0.093032	-0.342768
C55	C	0.782260	0.050778	-0.304473
C56	C	0.782254	0.050776	-0.227829
N57	N	0.763324	0.091312	-0.463136
N58	N	0.763330	0.091318	-0.535944
C59	C	0.824485	0.093035	-0.573691
N60	N	0.885634	0.094759	-0.535878
N61	N	0.885626	0.094757	-0.463064
C62	C	0.824472	0.093029	-0.425875
C63	C	0.866711	0.135280	-0.695084
C64	C	0.866724	0.135273	-0.771730
C65	C	0.782295	0.050784	-0.771789
C66	C	0.782288	0.050787	-0.695144
C67	C	0.824495	0.093039	-0.656796
N68	N	0.824513	0.093033	0.189919
H69	H	0.597091	0.212725	0.000196
H70	H	0.020970	0.204232	0.000285
Br71	Br	0.725019	-0.006553	-0.823835
Br72	Br	0.972468	-0.563226	0.000242
H73	H	0.935683	-0.710481	0.000274
H74	H	0.704792	-0.679578	0.000222
H75	H	0.464982	0.210776	0.000210
H76	H	0.051874	-0.026659	0.000309
H77	H	0.183988	-0.024713	0.000238
H78	H	0.747914	0.016389	-0.663971
H79	H	0.901041	0.169676	-0.196549
H80	H	0.944176	-0.134360	0.000214
Br81	Br	0.924018	0.192606	-0.823692
H82	H	0.628003	-0.018171	0.000145
H83	H	0.901078	0.169684	-0.663859
Br84	Br	0.672486	-0.523070	0.000205
H85	H	0.901054	0.169675	-0.335591
Br86	Br	0.976479	-0.290866	0.000240
H87	H	0.495885	-0.020111	0.000188
Br88	Br	0.676502	-0.250706	0.000187
H89	H	0.747892	0.016386	-0.335707
Br90	Br	0.724963	-0.006559	-0.175866
H91	H	0.153080	0.206181	0.000267
H92	H	0.713281	-0.103448	0.000184
