data_functionalizedCrystal
_audit_creation_method	'MofGen! by Chris Wilmer'
_symmetry_space_group_name_H-M	'P1'
_symmetry_Int_Tables_number	1
_symmetry_cell_setting	triclinic
loop_
_symmetry_equiv_pos_as_xyz
  x,y,z
_cell_length_a	9.065218
_cell_length_b	9.065215
_cell_length_c	9.130313
_cell_angle_alpha	89.996437
_cell_angle_beta	89.996409
_cell_angle_gamma	85.015291
loop_
_atom_site_label
_atom_site_type_symbol
_atom_site_fract_x
_atom_site_fract_y
_atom_site_fract_z
O1	O	1.960397	0.216357	-0.121800
O2	O	2.293731	0.549690	0.211533
O3	O	2.627064	0.883023	0.544867
O4	O	1.531112	0.234103	-0.121802
O5	O	1.864446	0.567437	0.211532
O6	O	2.197779	0.900770	0.544865
O7	O	1.754630	0.010587	-0.121794
O8	O	2.087964	0.343921	0.211539
O9	O	2.421297	0.677254	0.544872
O10	O	1.736879	0.439873	-0.121807
O11	O	2.070213	0.773206	0.211526
O12	O	2.403546	1.106539	0.544860
O13	O	1.754615	0.010581	0.121804
O14	O	2.087948	0.343914	0.455138
O15	O	2.421281	0.677247	0.788471
O16	O	1.531097	0.234097	0.121797
O17	O	1.864430	0.567430	0.455130
O18	O	2.197763	0.900763	0.788464
O19	O	1.960382	0.216350	0.121799
O20	O	2.293715	0.549683	0.455132
O21	O	2.627048	0.883017	0.788466
Cu22	Cu	1.745738	0.225223	0.144041
Cu23	Cu	2.079071	0.558556	0.477374
Cu24	Cu	2.412404	0.891889	0.810707
Cu25	Cu	1.745756	0.225231	-0.144043
Cu26	Cu	2.079089	0.558564	0.189290
Cu27	Cu	2.412423	0.891897	0.522623
O28	O	1.736864	0.439866	0.121792
O29	O	2.070197	0.773199	0.455125
O30	O	2.403530	1.106533	0.788458
C31	C	1.476118	0.232394	-0.000002
C32	C	1.809451	0.565728	0.333331
C33	C	2.142785	0.899061	0.666664
C34	C	1.312275	0.227295	-0.000003
C35	C	1.645608	0.560628	0.333330
C36	C	1.978942	0.893961	0.666664
C37	C	1.752917	-0.044403	0.000003
C38	C	2.086251	0.288931	0.333337
C39	C	2.419584	0.622264	0.666670
C40	C	1.747819	-0.208246	-0.000001
C41	C	2.081153	0.125088	0.333332
C42	C	2.414486	0.458421	0.666666
C43	C	2.015376	0.218059	-0.000003
C44	C	2.348709	0.551392	0.333330
C45	C	2.682043	0.884726	0.666663
C46	C	2.179219	0.223159	-0.000012
C47	C	2.512552	0.556492	0.333321
C48	C	2.845886	0.889825	0.666654
C49	C	1.738576	0.494856	-0.000009
C50	C	2.071910	0.828189	0.333324
C51	C	2.405243	1.161523	0.666657
C52	C	1.743674	0.658699	-0.000014
C53	C	2.077008	0.992033	0.333319
C54	C	2.410341	1.325366	0.666652
N55	N	1.745736	0.225216	0.346663
N56	N	2.079069	0.558550	0.679997
N57	N	2.412402	0.891883	1.013330
N58	N	1.745770	0.225225	-0.346666
N59	N	2.079103	0.558559	-0.013333
N60	N	2.412437	0.891892	0.320001
C61	C	1.844743	0.126286	0.423318
C62	C	2.178077	0.459619	0.756652
C63	C	2.511410	0.792953	1.089985
C64	C	1.844758	0.126286	0.576655
C65	C	2.178091	0.459620	0.909988
C66	C	2.511424	0.792953	1.243322
C67	C	1.646751	0.324161	0.576668
C68	C	1.980085	0.657494	0.910002
C69	C	2.313418	0.990827	1.243335
C70	C	1.646731	0.324152	0.423334
C71	C	1.980065	0.657485	0.756668
C72	C	2.313398	0.990819	1.090001
H73	H	1.925377	0.045726	0.639063
H74	H	2.258710	0.379060	0.972397
H75	H	2.592043	0.712393	1.305730
H76	H	1.566146	0.404714	0.639109
H77	H	1.899479	0.738047	0.972443
H78	H	2.232813	1.071381	1.305776
H79	H	1.925357	0.045725	0.360896
H80	H	2.258690	0.379058	0.694230
H81	H	2.592023	0.712391	1.027563
H82	H	1.566100	0.404714	0.360918
H83	H	1.899433	0.738047	0.694251
H84	H	2.232767	1.071380	1.027584
