data_functionalizedCrystal
_audit_creation_method	'MofGen! by Chris Wilmer'
_symmetry_space_group_name_H-M	'P1'
_symmetry_Int_Tables_number	1
_symmetry_cell_setting	triclinic
loop_
_symmetry_equiv_pos_as_xyz
  x,y,z
_cell_length_a	9.065215
_cell_length_b	9.130307
_cell_length_c	9.065218
_cell_angle_alpha	90.003425
_cell_angle_beta	85.015291
_cell_angle_gamma	90.003432
loop_
_atom_site_label
_atom_site_type_symbol
_atom_site_fract_x
_atom_site_fract_y
_atom_site_fract_z
O1	O	1.960403	0.121776	0.216338
O2	O	1.531117	0.121782	0.234089
O3	O	1.754633	0.121776	0.010571
O4	O	1.736887	0.121782	0.439856
O5	O	1.754616	-0.121823	0.010561
O6	O	1.531100	-0.121817	0.234079
O7	O	1.960386	-0.121823	0.216328
Cu8	Cu	1.745741	-0.144063	0.225203
Cu9	Cu	1.745762	0.144021	0.225214
O10	O	1.736870	-0.121817	0.439846
C11	C	1.476122	-0.000017	0.232379
C12	C	1.312279	-0.000014	0.227281
N13	N	1.745738	-0.346685	0.225194
C14	C	1.564390	-0.346745	0.043694
C15	C	1.473732	-0.423442	-0.047058
C16	C	1.473753	-0.576775	-0.047059
C17	C	1.564439	-0.653416	0.043706
C18	C	1.655097	-0.576719	0.134459
C19	C	1.655069	-0.423382	0.134447
C20	C	1.836435	-0.576659	0.315964
C21	C	1.836424	-0.423326	0.315959
C22	C	1.927121	-0.653300	0.406729
C23	C	2.017789	-0.576603	0.497477
C24	C	2.017765	-0.423260	0.497472
C25	C	1.927082	-0.346629	0.406712
C26	C	2.015381	-0.000021	0.218038
C27	C	2.179224	-0.000014	0.223136
C28	C	1.752919	-0.000021	-0.044421
C29	C	1.747819	-0.000014	-0.208264
N30	N	1.745777	0.346644	0.225211
C31	C	1.738584	-0.000017	0.494837
C32	C	1.743683	-0.000014	0.658680
H33	H	1.564374	-0.221893	0.043675
F34	F	1.377217	-0.341866	-0.143647
H35	H	1.399924	-0.639221	-0.120950
H36	H	1.564435	-0.778268	0.043711
H37	H	1.927125	-0.778152	0.406730
F38	F	2.114253	-0.341645	0.594071
H39	H	2.091611	-0.639015	0.571378
H40	H	1.927058	-0.221777	0.406695
