data_functionalizedCrystal
_audit_creation_method	'MofGen! by Chris Wilmer'
_symmetry_space_group_name_H-M	'P1'
_symmetry_Int_Tables_number	1
_symmetry_cell_setting	triclinic
loop_
_symmetry_equiv_pos_as_xyz
  x,y,z
_cell_length_a	14.853566
_cell_length_b	14.853567
_cell_length_c	14.586319
_cell_angle_alpha	90.000002
_cell_angle_beta	89.999342
_cell_angle_gamma	83.634672
loop_
_atom_site_label
_atom_site_type_symbol
_atom_site_fract_x
_atom_site_fract_y
_atom_site_fract_z
O1	O	1.196364	0.117698	-0.076172
O2	O	0.933905	0.131720	-0.076186
O3	O	1.072145	-0.006521	-0.076181
O4	O	1.058124	0.255939	-0.076177
O5	O	1.072136	-0.006523	0.076299
O6	O	0.933895	0.131718	0.076295
O7	O	1.196355	0.117696	0.076309
Cu8	Cu	1.065124	0.124707	0.090225
Cu9	Cu	1.065135	0.124709	-0.090102
O10	O	1.058114	0.255937	0.076304
C11	C	0.900311	0.131084	0.000052
C12	C	0.800227	0.129181	0.000047
C13	C	0.377048	0.121131	-0.083055
C14	C	0.377059	0.121129	0.083186
C15	C	0.471093	0.122917	0.083183
C16	C	0.518108	0.123813	0.000060
C17	C	0.471090	0.122921	-0.083060
C18	C	0.518117	0.123818	0.166302
C19	C	0.612157	0.125606	0.166302
C20	C	0.659175	0.126496	0.083178
C21	C	0.612151	0.125603	0.000055
C22	C	0.659167	0.126499	-0.083068
C23	C	0.612145	0.125600	-0.166193
C24	C	0.518108	0.123811	-0.166184
C25	C	0.753212	0.128285	0.083170
C26	C	0.753209	0.128289	-0.083073
C27	C	1.071505	-0.040111	0.000056
C28	C	1.069601	-0.140194	0.000048
C29	C	0.979435	-0.552728	0.000061
C30	C	1.143668	-0.574009	0.000070
C31	C	1.145458	-0.479976	0.000064
C32	C	1.064236	-0.422313	0.000059
C33	C	0.981223	-0.458685	0.000058
C34	C	1.228470	-0.443597	0.000074
C35	C	1.230263	-0.349558	0.000070
C36	C	1.149040	-0.291894	0.000058
C37	C	1.066023	-0.328271	0.000056
C38	C	0.984801	-0.270608	0.000050
C39	C	0.901784	-0.306984	0.000043
C40	C	0.899999	-0.401021	0.000046
C41	C	1.150824	-0.197856	0.000054
C42	C	0.986588	-0.176566	0.000048
C43	C	1.229948	0.118332	0.000068
C44	C	1.330032	0.120235	0.000068
C45	C	1.058754	0.289526	0.000065
C46	C	1.060658	0.389610	0.000067
N47	N	1.065123	0.124704	0.217056
N48	N	1.065144	0.124704	-0.216933
C49	C	1.126356	0.063512	0.452065
C50	C	1.126358	0.063510	0.548046
C51	C	1.003904	0.185900	0.548051
C52	C	1.003898	0.185897	0.452072
C53	C	1.065129	0.124704	0.404081
C54	C	1.065138	0.124705	0.596042
C55	C	1.065140	0.124703	0.700109
C56	C	1.065126	0.124704	0.300007
H57	H	0.920446	-0.129622	0.000039
H58	H	0.911845	-0.582349	0.000051
H59	H	0.835653	-0.260023	0.000044
O60	O	1.185880	0.004172	0.405384
C61	C	1.241545	0.052514	0.349812
H62	H	1.243219	0.123610	0.378732
H63	H	1.213297	0.057208	0.277088
C64	C	1.336194	-0.084379	0.312762
C65	C	1.338256	0.002940	0.348287
H66	H	1.395849	-0.114959	0.311817
H67	H	1.298690	-0.116949	0.350199
H68	H	1.312650	-0.080455	0.252162
H69	H	1.361789	-0.000985	0.408889
H70	H	1.375766	0.035509	0.310860
O71	O	0.657695	0.126430	0.247127
C72	C	0.596029	0.125280	0.320492
H73	H	0.532689	0.095491	0.296126
H74	H	0.576665	0.197359	0.346053
C75	C	0.718180	0.103486	0.428946
C76	C	0.640389	0.066891	0.399020
H77	H	0.745544	0.067472	0.477388
H78	H	0.759727	0.104264	0.379519
H79	H	0.702033	0.163551	0.450240
H80	H	0.656538	0.006832	0.377716
H81	H	0.598845	0.066101	0.448446
H82	H	0.338759	0.120395	-0.150733
H83	H	1.176214	0.013680	0.587112
O84	O	0.472423	0.122794	0.247015
C85	C	0.428122	0.043753	0.251984
H86	H	0.463536	-0.010243	0.204825
H87	H	0.354570	0.060033	0.229643
C88	C	0.387756	0.074681	0.409214
C89	C	0.431256	0.008359	0.351299
H90	H	0.389685	0.052850	0.470476
H91	H	0.417599	0.127935	0.405866
H92	H	0.326466	0.088241	0.390586
H93	H	0.492548	-0.005191	0.369920
H94	H	0.401423	-0.044897	0.354652
H95	H	1.209796	-0.620963	0.000082
O96	O	0.472367	0.123106	-0.246899
C97	C	0.407848	0.200081	-0.251848
H98	H	0.429131	0.255145	-0.204680
H99	H	0.338867	0.181090	-0.229505
C100	C	0.375665	0.167806	-0.409082
C101	C	0.401808	0.235439	-0.351156
H102	H	0.371935	0.189615	-0.470340
H103	H	0.419130	0.115944	-0.405747
H104	H	0.318183	0.151986	-0.390452
H105	H	0.459294	0.251250	-0.369779
H106	H	0.358353	0.287304	-0.354496
H107	H	0.954053	0.235723	0.587135
H108	H	1.294597	-0.490552	0.000087
H109	H	0.338772	0.120406	0.150861
O110	O	0.944385	0.245431	0.405596
C111	C	0.890333	0.299432	0.468533
H112	H	0.927297	0.300524	0.536949
H113	H	0.823329	0.270037	0.478747
C114	C	0.826469	0.395311	0.347037
C115	C	0.871872	0.396658	0.431064
H116	H	0.815077	0.455284	0.323923
H117	H	0.862882	0.358927	0.304634
H118	H	0.770637	0.370811	0.355560
H119	H	0.927707	0.421147	0.422537
H120	H	0.835467	0.433048	0.473464
H121	H	0.791483	0.129016	-0.150763
O122	O	0.657760	0.126634	-0.246959
C123	C	0.624650	0.204201	-0.297536
H124	H	0.591719	0.258235	-0.248903
H125	H	0.572360	0.185518	-0.349370
C126	C	0.744047	0.174812	-0.408191
C127	C	0.703608	0.241180	-0.348458
H128	H	0.792750	0.197622	-0.439606
H129	H	0.766352	0.122552	-0.374119
H130	H	0.700463	0.159250	-0.451378
H131	H	0.747188	0.256734	-0.305266
H132	H	0.681311	0.293444	-0.382524
O133	O	0.798869	0.128996	0.163929
C134	C	0.785984	0.050556	0.214510
H135	H	0.767196	-0.004467	0.165880
H136	H	0.729117	0.067161	0.266342
C137	C	0.897184	0.084348	0.325166
C138	C	0.874115	0.016765	0.265437
H139	H	0.951545	0.063506	0.356584
H140	H	0.905863	0.137197	0.291091
H141	H	0.849787	0.098180	0.368351
H142	H	0.921506	0.002943	0.222247
H143	H	0.865446	-0.036087	0.299506
O144	O	0.819420	-0.436465	-0.000076
C145	C	0.813469	-0.490214	-0.079053
H146	H	0.884499	-0.513538	-0.105380
H147	H	0.773631	-0.448729	-0.134355
C148	C	0.677591	-0.544812	-0.022720
C149	C	0.764832	-0.573465	-0.055050
H150	H	0.647586	-0.596163	-0.007916
H151	H	0.681598	-0.508598	0.030487
H152	H	0.644405	-0.510241	-0.068810
H153	H	0.798020	-0.608025	-0.008956
H154	H	0.760829	-0.609687	-0.108249
H155	H	1.297861	-0.319950	0.000075
H156	H	1.218415	-0.168244	0.000066
