data_functionalizedCrystal
_audit_creation_method	'MofGen! by Chris Wilmer'
_symmetry_space_group_name_H-M	'P1'
_symmetry_Int_Tables_number	1
_symmetry_cell_setting	triclinic
loop_
_symmetry_equiv_pos_as_xyz
  x,y,z
_cell_length_a	19.851628
_cell_length_b	14.395555
_cell_length_c	14.395555
_cell_angle_alpha	60.000749
_cell_angle_beta	90.004468
_cell_angle_gamma	59.999934
loop_
_atom_site_label
_atom_site_type_symbol
_atom_site_fract_x
_atom_site_fract_y
_atom_site_fract_z
Zr1	Zr	0.649000	1.016681	-0.121809
O2	O	0.541438	1.210488	-0.270154
O3	O	0.681970	0.822882	-0.076332
O4	O	0.681976	1.016669	-0.270128
O5	O	0.541432	1.016708	0.076509
O6	O	0.792837	1.016651	-0.270109
O7	O	0.541433	1.016701	-0.076358
O8	O	0.792828	0.670002	0.076556
O9	O	0.541441	1.363357	-0.270156
O10	O	0.778770	0.902578	-0.056925
O11	O	0.696035	0.902597	0.057145
O12	O	0.696041	1.130756	-0.171025
O13	O	0.613306	1.130775	-0.056956
Zr14	Zr	0.825810	1.016664	0.122026
Zr15	Zr	0.825812	1.016653	-0.121780
Zr16	Zr	0.648999	1.016692	0.121996
Zr17	Zr	0.649005	1.260491	-0.121813
Zr18	Zr	0.825805	0.772854	0.122030
O19	O	0.792840	1.210463	0.076548
O20	O	0.792842	1.210447	-0.270112
O21	O	0.541436	1.210504	0.076506
O22	O	0.933372	0.822857	0.270370
O23	O	0.933374	0.822841	-0.076290
O24	O	0.681969	0.822898	0.270328
O25	O	0.933378	1.016637	-0.076293
O26	O	0.792835	1.016676	0.270344
O27	O	0.681973	1.016694	0.270325
O28	O	0.933377	1.016644	0.076575
O29	O	0.681983	1.363335	-0.270133
O30	O	0.792827	0.670010	0.270349
O31	O	0.933369	0.669988	0.270373
O32	O	0.933370	0.669979	0.076580
O33	O	0.541440	1.363366	-0.076363
O34	O	0.681982	1.363343	-0.076340
O35	O	0.778769	0.902589	0.171242
O36	O	0.861505	0.902570	0.057172
O37	O	0.778775	1.130748	-0.056928
O38	O	0.696040	1.130767	0.057141
C39	C	0.737398	0.711704	0.000113
C40	C	0.737396	0.608201	0.000114
C41	C	0.692288	0.547619	0.062314
C42	C	0.659595	0.561876	-0.044967
C43	C	0.770069	0.409548	0.107362
C44	C	0.704658	0.623884	-0.107229
C45	C	0.815175	0.471494	0.045177
C46	C	0.782502	0.485797	-0.062167
C47	C	0.516241	1.016708	0.000071
C48	C	0.441179	1.016720	0.000059
C49	C	0.214727	1.141103	-0.062116
C50	C	0.192364	1.078910	-0.107191
C51	C	0.303773	1.016686	0.000091
C52	C	0.192394	1.078888	0.045146
C53	C	0.171041	1.016663	0.000122
C54	C	0.282399	0.954493	-0.045047
C55	C	0.282426	0.954488	0.107350
C56	C	0.260117	0.892204	0.062301
C57	C	0.380235	1.016704	0.000071
C58	C	0.094583	1.016636	0.000141
C59	C	0.958570	1.016637	0.000145
C60	C	1.033631	1.016625	0.000158
C61	C	0.737407	1.016659	-0.304855
C62	C	0.737407	1.016654	-0.408357
C63	C	0.737412	1.321641	0.000104
C64	C	0.737414	1.425144	0.000102
C65	C	0.782519	0.892241	-0.406733
C66	C	0.704725	0.954445	-0.499769
C67	C	0.815182	0.954456	-0.499750
C68	C	0.659568	1.078858	-0.500030
C69	C	0.770080	1.078851	-0.499996
C70	C	0.692240	1.141145	-0.593049
C71	C	0.737403	1.016686	0.305072
C72	C	0.737403	1.016691	0.408574
C73	C	0.958563	0.711669	0.000150
C74	C	1.033622	0.608153	0.000164
C75	C	0.737397	0.711718	0.305076
C76	C	0.737394	0.608219	0.408580
C77	C	0.958561	0.711682	0.305113
C78	C	1.033620	0.608171	0.408629
C79	C	0.516249	1.321663	-0.304897
C80	C	0.441190	1.425174	-0.408413
C81	C	0.516247	1.321676	0.000067
C82	C	0.441188	1.425192	0.000052
C83	C	0.737413	1.321627	-0.304860
C84	C	0.737416	1.425126	-0.408363
C85	C	1.025684	0.559545	-0.059397
C86	C	1.096203	0.462295	-0.059406
C87	C	1.174659	0.413647	0.000152
C88	C	1.182596	0.462265	0.059715
C89	C	1.112077	0.559520	0.059717
C90	C	1.112063	0.559552	0.397699
C91	C	1.182595	0.462306	0.494954
C92	C	1.174682	0.413675	0.603138
C93	C	1.096231	0.462304	0.614067
C94	C	1.025701	0.559555	0.516813
C95	C	0.362748	1.473805	-0.397482
C96	C	0.292216	1.571081	-0.494737
C97	C	0.300128	1.619717	-0.602922
C98	C	0.378579	1.571082	-0.613850
C99	C	0.449109	1.473814	-0.516596
C100	C	0.449126	1.473810	0.059603
C101	C	0.378607	1.571087	0.059586
C102	C	0.300151	1.619738	0.000024
C103	C	0.292214	1.571116	-0.059535
C104	C	0.362733	1.473847	-0.059523
C105	C	0.692280	0.547642	0.406959
C106	C	0.770075	0.409532	0.499992
C107	C	0.659622	0.561883	0.499978
C108	C	0.815234	0.471410	0.500250
C109	C	0.704725	0.623834	0.500222
C110	C	0.782566	0.485734	0.593272
H111	H	0.654089	0.574853	0.114835
O112	O	0.828122	0.453630	-0.124914
C113	C	0.909733	0.406959	-0.078198
H114	H	0.910422	0.446202	-0.026560
H115	H	0.934974	0.441948	-0.149758
H116	H	0.949794	0.294989	-0.020502
O117	O	0.646606	1.266829	-0.687942
C118	C	0.614232	1.354570	-0.656032
H119	H	0.611484	1.302911	-0.566490
H120	H	0.549467	1.443328	-0.718132
H121	H	0.655566	1.388422	-0.657670
H122	H	0.278721	0.786918	0.114908
O123	O	1.088444	0.415040	0.719098
C124	C	1.044963	0.358746	0.731584
H125	H	1.006027	0.402683	0.644041
H126	H	1.003052	0.380059	0.782747
H127	H	1.090648	0.247979	0.778061
H128	H	0.593850	0.599066	0.500882
H129	H	0.880930	0.434318	0.083329
H130	H	0.356258	1.434265	-0.108013
O131	O	0.646716	0.579996	0.311879
C132	C	0.565078	0.626683	0.311770
H133	H	0.564325	0.587302	0.402635
H134	H	0.539851	0.591847	0.274973
H135	H	0.525045	0.738648	0.257614
H136	H	0.797740	1.131380	-0.499017
H137	H	0.820604	0.787042	-0.326965
H138	H	0.385085	1.610659	0.108090
H139	H	0.513003	1.434206	0.108114
H140	H	0.797693	0.317939	0.198065
O141	O	0.231738	1.714178	0.000182
C142	C	0.255579	1.746668	0.065500
H143	H	0.320678	1.661356	0.128472
H144	H	0.211031	1.766879	0.113980
H145	H	0.254304	1.838039	0.006868
H146	H	1.246484	0.422642	0.108206
O147	O	0.355090	1.426375	-0.292376
C148	C	0.393302	1.290098	-0.232531
H149	H	0.396554	1.263465	-0.295624
H150	H	0.355895	1.262166	-0.178768
H151	H	0.458354	1.234466	-0.174809
H152	H	0.385012	1.610695	-0.701946
O153	O	0.893697	0.891522	-0.500617
C154	C	0.941028	0.760367	-0.403535
H155	H	0.911546	0.752478	-0.334397
H156	H	1.006267	0.728604	-0.370950
H157	H	0.943547	0.693964	-0.426754
H158	H	0.321233	0.901952	0.198025
H159	H	0.797715	0.317907	0.500924
H160	H	1.118552	0.599084	0.108226
H161	H	0.196278	1.246304	-0.114797
H162	H	1.089725	0.422722	-0.107909
O163	O	0.216061	1.618267	-0.117478
C164	C	0.224163	1.554477	-0.170015
H165	H	0.287088	1.514397	-0.181824
H166	H	0.173567	1.627441	-0.256516
H167	H	0.218387	1.470014	-0.114190
H168	H	0.153556	1.131491	-0.197886
O169	O	0.328634	0.891895	-0.090636
C170	C	0.399369	0.892679	-0.090117
H171	H	0.387294	0.977254	-0.087265
H172	H	0.414247	0.905706	-0.170491
H173	H	0.453763	0.795717	-0.012177
O174	O	0.671492	0.733104	-0.215525
C175	C	0.589725	0.780889	-0.262975
H176	H	0.581578	0.697750	-0.216256
H177	H	0.576218	0.820498	-0.356845
H178	H	0.545261	0.863059	-0.254196
H179	H	1.232073	0.334455	0.000142
O180	O	0.215998	1.618511	-0.484164
C181	C	0.172608	1.754787	-0.536857
H182	H	0.218367	1.781408	-0.541343
H183	H	0.133625	1.782724	-0.485271
H184	H	0.130747	1.810424	-0.626564
O185	O	0.525355	1.426350	-0.527066
C186	C	0.568732	1.290082	-0.474407
H187	H	0.541807	1.248826	-0.408133
H188	H	0.636604	1.239690	-0.431221
H189	H	0.562862	1.271542	-0.541284
H190	H	0.961832	0.599128	0.525729
H191	H	0.881039	0.434024	0.499437
O192	O	0.671595	0.733228	0.498996
C193	C	0.589559	0.781876	0.497546
H194	H	0.564301	0.746220	0.461870
H195	H	0.550116	0.893850	0.441740
H196	H	0.587922	0.744899	0.587850
O197	O	0.231585	1.714032	-0.697354
C198	C	0.184327	1.666509	-0.697147
H199	H	0.225737	1.554535	-0.642156
H200	H	0.155735	1.704721	-0.787868
H201	H	0.133294	1.701845	-0.661251
O202	O	0.828269	0.453359	0.688250
C203	C	0.910184	0.404691	0.689058
H204	H	0.923336	0.366083	0.634036
H205	H	0.954439	0.321599	0.780004
H206	H	0.919018	0.487034	0.653790
H207	H	0.593826	0.599070	-0.083092
H208	H	0.153594	1.131499	0.083237
H209	H	0.677084	0.901871	-0.500705
O210	O	0.581036	1.141423	-0.499118
C211	C	0.546634	1.076114	-0.498788
H212	H	0.580516	1.018156	-0.535203
H213	H	0.478562	1.151364	-0.553059
H214	H	0.553003	1.006015	-0.407839
O215	O	0.949459	0.606673	-0.117079
C216	C	0.906066	0.582945	-0.040646
H217	H	0.951822	0.497701	0.049084
H218	H	0.867068	0.557202	-0.066478
H219	H	0.864220	0.674743	-0.042740
O220	O	1.119827	0.606523	0.292655
C221	C	1.163298	0.502691	0.280246
H222	H	1.202258	0.405436	0.367814
H223	H	1.205185	0.517345	0.229025
H224	H	1.117605	0.501331	0.233866
H225	H	1.246466	0.422722	0.486035
H226	H	1.232119	0.334487	0.682319
