data_functionalizedCrystal
_audit_creation_method	'MofGen! by Chris Wilmer'
_symmetry_space_group_name_H-M	'P1'
_symmetry_Int_Tables_number	1
_symmetry_cell_setting	triclinic
loop_
_symmetry_equiv_pos_as_xyz
  x,y,z
_cell_length_a	17.640280
_cell_length_b	12.759395
_cell_length_c	12.759387
_cell_angle_alpha	90.022274
_cell_angle_beta	78.768503
_cell_angle_gamma	101.199026
loop_
_atom_site_label
_atom_site_type_symbol
_atom_site_fract_x
_atom_site_fract_y
_atom_site_fract_z
Zn1	Zn	-0.314616	-1.690825	-0.509592
Zn2	Zn	0.185384	-1.190825	-0.009592
Zn3	Zn	-0.446810	-1.726245	-0.298423
Zn4	Zn	0.053190	-1.226245	0.201577
Zn5	Zn	-0.314656	-1.515135	-0.333913
Zn6	Zn	0.185344	-1.015135	0.166087
Zn7	Zn	-0.446752	-1.550629	-0.474073
Zn8	Zn	0.053248	-1.050629	0.025927
O9	O	-0.380709	-1.620709	-0.404000
O10	O	0.119291	-1.120709	0.096000
O11	O	-0.332159	-1.842547	-0.481593
O12	O	0.167841	-1.342547	0.018407
O13	O	-0.429322	-1.698209	-0.156099
O14	O	0.070678	-1.198209	0.343901
O15	O	-0.204044	-1.508762	-0.386934
O16	O	0.295956	-1.008762	0.113066
O17	O	-0.429282	-1.868570	-0.326448
O18	O	0.070718	-1.368570	0.173552
O19	O	-0.204014	-1.637842	-0.516005
O20	O	0.295986	-1.137842	-0.016005
O21	O	-0.332228	-1.543107	-0.182173
O22	O	0.167772	-1.043107	0.317827
O23	O	-0.332172	-1.372820	-0.352493
O24	O	0.167828	-0.872820	0.147507
O25	O	-0.429182	-1.569258	-0.625817
O26	O	0.070818	-1.069258	-0.125817
O27	O	-0.429222	-1.398898	-0.455468
O28	O	0.070778	-0.898898	0.044532
O29	O	-0.332102	-1.672259	-0.651913
O30	O	0.167898	-1.172259	-0.151913
O31	O	-0.557409	-1.732627	-0.292006
O32	O	-0.057409	-1.232627	0.207994
O33	O	-0.557366	-1.603603	-0.421055
O34	O	-0.057366	-1.103603	0.078945
C35	C	-0.380696	-1.347738	-0.403977
C36	C	0.119304	-0.847738	0.096023
C37	C	-0.380709	-1.230964	-0.403987
C38	C	0.119291	-0.730964	0.096013
C39	C	-0.586067	-1.675839	-0.348848
C40	C	-0.086067	-1.175839	0.151152
C41	C	-0.673920	-1.699520	-0.325289
C42	C	-0.173920	-1.199520	0.174711
C43	C	-0.481931	-1.258202	-0.510954
C44	C	0.018069	-0.758202	-0.010954
C45	C	-0.532547	-1.216961	-0.564437
C46	C	-0.032547	-0.716961	-0.064437
C47	C	-0.532555	-1.107242	-0.564444
C48	C	-0.032555	-0.607242	-0.064444
C49	C	-0.481940	-1.038759	-0.510965
C50	C	0.018060	-0.538759	-0.010965
C51	C	-0.431324	-1.079999	-0.457482
C52	C	0.068676	-0.579999	0.042518
C53	C	-0.431323	-1.189723	-0.457478
C54	C	0.068677	-0.689723	0.042522
C55	C	-0.330099	-1.052761	-0.350523
C56	C	0.169901	-0.552761	0.149477
C57	C	-0.330094	-1.162481	-0.350508
C58	C	0.169906	-0.662481	0.149492
C59	C	-0.279484	-0.984278	-0.297044
C60	C	0.220516	-0.484278	0.202956
C61	C	-0.228870	-1.025519	-0.243554
C62	C	0.271130	-0.525519	0.256446
C63	C	-0.228865	-1.135246	-0.243548
C64	C	0.271135	-0.635246	0.256452
C65	C	-0.279477	-1.203722	-0.297025
C66	C	0.220523	-0.703722	0.202975
C67	C	-0.962883	-1.441238	-0.583359
C68	C	-0.462883	-0.941238	-0.083359
C69	C	-1.045435	-1.463492	-0.561188
C70	C	-0.545435	-0.963492	-0.061188
C71	C	-1.045414	-1.597928	-0.426945
C72	C	-0.545414	-1.097928	0.073055
C73	C	-0.962861	-1.575689	-0.449109
C74	C	-0.462861	-1.075689	0.050891
C75	C	-0.921602	-1.497342	-0.527316
C76	C	-0.421602	-0.997342	-0.027316
C77	C	-0.921580	-1.631793	-0.393065
C78	C	-0.421580	-1.131793	0.106935
C79	C	-0.839034	-1.609551	-0.415223
C80	C	-0.339034	-1.109551	0.084777
C81	C	-0.797769	-1.531206	-0.493425
C82	C	-0.297769	-1.031206	0.006575
C83	C	-0.839056	-1.475100	-0.549474
C84	C	-0.339056	-0.975100	-0.049474
C85	C	-0.962840	-1.710134	-0.314853
C86	C	-0.462840	-1.210134	0.185147
C87	C	-0.921559	-1.766238	-0.258810
C88	C	-0.421559	-1.266238	0.241190
C89	C	-0.839012	-1.744003	-0.280973
C90	C	-0.339012	-1.244003	0.219027
C91	C	-0.797747	-1.665657	-0.359174
C92	C	-0.297747	-1.165657	0.140826
C93	C	-0.797725	-1.800108	-0.224924
C94	C	-0.297725	-1.300108	0.275076
C95	C	-0.715179	-1.777867	-0.247082
C96	C	-0.215179	-1.277867	0.252918
C97	C	-0.715201	-1.643415	-0.381332
C98	C	-0.215201	-1.143415	0.118668
C99	C	-0.174549	-1.565392	-0.459391
C100	C	0.325451	-1.065392	0.040609
C101	C	-0.086695	-1.541819	-0.482995
C102	C	0.413305	-1.041819	0.017005
C103	C	-0.380631	-1.620767	-0.678055
C104	C	0.119369	-1.120767	-0.178055
C105	C	-0.380598	-1.620792	-0.794840
C106	C	0.119402	-1.120792	-0.294840
C107	C	-0.380719	-0.894745	-0.404017
C108	C	0.119281	-0.394745	0.095983
C109	C	-0.380715	-1.011520	-0.404006
C110	C	0.119285	-0.511520	0.095994
C111	C	-0.279515	-1.728058	-0.822032
C112	C	0.220485	-1.228058	-0.322032
C113	C	-0.228962	-1.781703	-0.890492
C114	C	0.271038	-1.281703	-0.390492
C115	C	-0.228933	-1.781721	-1.000221
C116	C	0.271067	-1.281721	-0.500221
C117	C	-0.279461	-1.728086	-1.041492
C118	C	0.220539	-1.228086	-0.541492
C119	C	-0.330015	-1.674441	-0.973033
C120	C	0.169985	-1.174441	-0.473033
C121	C	-0.330040	-1.674432	-0.863302
C122	C	0.169960	-1.174432	-0.363302
C123	C	-0.431092	-1.567169	-0.945842
C124	C	0.068908	-1.067169	-0.445842
C125	C	-0.431126	-1.567157	-0.836111
C126	C	0.068874	-1.067157	-0.336111
C127	C	-0.481621	-1.513534	-0.987113
C128	C	0.018379	-1.013534	-0.487113
C129	C	-0.532179	-1.459895	-0.918652
C130	C	-0.032179	-0.959895	-0.418652
C131	C	-0.532206	-1.459880	-0.808916
C132	C	-0.032206	-0.959880	-0.308916
C133	C	-0.481680	-1.513512	-0.767651
C134	C	0.018320	-1.013512	-0.267651
C135	C	-0.380729	-1.620695	-0.131027
C136	C	0.119271	-1.120695	0.368973
C137	C	-0.380539	-1.620814	-0.014302
C138	C	0.119461	-1.120814	0.485698
H139	H	-0.481935	-1.347544	-0.510944
H140	H	0.018065	-0.847544	-0.010944
F141	F	-0.795141	-1.391723	-0.632720
F142	F	-0.295141	-0.891723	-0.132720
F143	F	-0.481588	-1.513553	-1.103898
F144	F	0.018412	-1.013553	-0.603898
F145	F	-1.050694	-1.733833	-0.291302
F146	F	-0.550694	-1.233833	0.208698
H147	H	-0.929289	-1.377447	-0.647051
H148	H	-0.429289	-0.877447	-0.147051
F149	F	-0.585944	-1.402812	-0.962583
F150	F	-0.085944	-0.902812	-0.462583
F151	F	-1.089367	-1.403762	-0.620834
F152	F	-0.589367	-0.903762	-0.120834
H153	H	-0.279427	-1.728094	-1.130843
H154	H	0.220573	-1.228094	-0.630843
H155	H	-0.573365	-1.416182	-0.753183
H156	H	-0.073365	-0.916182	-0.253183
H157	H	-1.079018	-1.661715	-0.363266
H158	H	-0.579018	-1.161715	0.136734
H159	H	-0.573756	-1.272732	-0.607980
H160	H	-0.073756	-0.772732	-0.107980
F161	F	-0.965478	-1.849620	-0.175581
F162	F	-0.465478	-1.349620	0.324419
F163	F	-0.586422	-1.063348	-0.621373
F164	F	-0.086422	-0.563348	-0.121373
F165	F	-0.481708	-1.513507	-0.650868
F166	F	0.018292	-1.013507	-0.150868
F167	F	-0.279489	-0.867504	-0.297061
F168	F	0.220511	-0.367504	0.202939
F169	F	-0.481942	-0.921983	-0.510991
F170	F	0.018058	-0.421983	-0.010991
H171	H	-0.831330	-1.863891	-0.161241
H172	H	-0.331330	-1.363891	0.338759
H173	H	-0.187641	-1.168815	-0.200004
H174	H	0.312359	-0.668815	0.299996
F175	F	-0.175003	-0.952630	-0.186652
F176	F	0.324997	-0.452630	0.313348
H177	H	-0.279480	-1.293064	-0.297022
H178	H	0.220520	-0.793064	0.202978
F179	F	-0.671286	-1.560038	-0.464579
F180	F	-0.171286	-1.060038	0.035421
F181	F	-0.709916	-1.507723	-0.517197
F182	F	-0.209916	-1.007723	-0.017197
H183	H	-0.681567	-1.823552	-0.201444
H184	H	-0.181567	-1.323552	0.298556
F185	F	-0.279551	-1.728059	-0.705246
F186	F	0.220449	-1.228059	-0.205246
H187	H	-0.187763	-1.825395	-1.055964
H188	H	0.312237	-1.325395	-0.555964
F189	F	-0.175174	-1.838759	-0.846565
F190	F	0.324826	-1.338759	-0.346565
