data_functionalizedCrystal
_audit_creation_method	'MofGen! by Chris Wilmer'
_symmetry_space_group_name_H-M	'P1'
_symmetry_Int_Tables_number	1
_symmetry_cell_setting	triclinic
loop_
_symmetry_equiv_pos_as_xyz
  x,y,z
_cell_length_a	10.489746
_cell_length_b	15.995350
_cell_length_c	15.072220
_cell_angle_alpha	89.998899
_cell_angle_beta	90.009608
_cell_angle_gamma	84.016838
loop_
_atom_site_label
_atom_site_type_symbol
_atom_site_fract_x
_atom_site_fract_y
_atom_site_fract_z
O1	O	-1.692412	-0.118146	-0.073718
O2	O	-1.321062	-0.129230	-0.073732
O3	O	-1.516888	-0.001862	-0.073724
O4	O	-1.496586	-0.245514	-0.073726
O5	O	-1.516840	-0.001869	0.073841
O6	O	-1.321014	-0.129237	0.073833
O7	O	-1.692364	-0.118153	0.073847
Zn8	Zn	-1.506681	-0.123696	0.097269
Zn9	Zn	-1.506745	-0.123687	-0.097154
O10	O	-1.496538	-0.245521	0.073839
C11	C	-1.516025	0.029335	0.000057
C12	C	-1.513509	0.122300	0.000052
C13	C	-1.273518	-0.128395	0.000048
C14	C	-1.131924	-0.125888	0.000043
C15	C	-1.739908	-0.118988	0.000064
C16	C	-1.881502	-0.121495	0.000064
C17	C	-0.980221	-0.043363	0.000056
C18	C	-1.057014	-0.084626	0.072810
C19	C	-1.057017	-0.084638	-0.072677
C20	C	-0.956429	-0.162725	0.072879
C21	C	-0.956427	-0.162726	-0.072674
C22	C	-1.033170	-0.204046	0.000098
C23	C	-1.497401	-0.276718	0.000056
C24	C	-1.499918	-0.369683	0.000055
N25	N	-1.506647	-0.123702	0.229958
C26	C	-1.504472	0.460102	0.000054
C27	C	-1.365008	0.413511	-0.000282
C28	C	-1.367525	0.316805	0.000051
C29	C	-1.508954	0.292515	0.000053
C30	C	-1.577715	0.333173	0.084321
C31	C	-1.574212	0.429829	0.084391
C32	C	-1.577148	0.430178	-0.083418
C33	C	-1.577115	0.333233	-0.084532
C34	C	-1.511495	0.197802	0.000054
C35	C	-1.501935	0.554815	0.000058
N36	N	-1.506789	-0.123675	-0.229843
C37	C	-1.506742	-0.123684	0.589159
C38	C	-1.401608	-0.191603	0.551548
C39	C	-1.401849	-0.191855	0.448722
C40	C	-1.506694	-0.123693	0.410955
C41	C	-1.639779	-0.143579	0.448252
C42	C	-1.639190	-0.144062	0.551109
C43	C	-1.479978	-0.035683	0.551259
C44	C	-1.476925	-0.036250	0.448396
C45	C	-1.506675	-0.123696	0.310242
C46	C	-1.506770	-0.123682	0.689873
H47	H	-1.100932	-0.051646	0.134321
H48	H	-1.379025	-0.021177	0.424020
H49	H	-0.956451	0.024575	0.000130
O50	O	-1.671764	-0.227666	0.414135
H51	H	-1.675979	-0.226135	0.340562
O52	O	-0.898485	-0.206373	0.154462
H53	H	-0.793086	-0.204139	0.153852
H54	H	-1.679974	0.461318	-0.083983
O55	O	-1.291175	0.438502	-0.080323
H56	H	-1.205022	0.467548	-0.058122
O57	O	-1.713739	0.312071	-0.091276
H58	H	-1.735294	0.272027	-0.034189
O59	O	-1.516823	0.457748	-0.168041
H60	H	-1.415317	0.430217	-0.171040
O61	O	-1.424494	-0.278331	0.416105
H62	H	-1.435329	-0.320132	0.473799
O63	O	-1.423926	-0.277602	0.585760
H64	H	-1.509575	-0.272182	0.629434
H65	H	-1.056695	-0.272036	0.000137
H66	H	-1.548525	0.016723	0.422690
H67	H	-1.313473	0.288713	-0.060356
O68	O	-0.898189	-0.206368	-0.154150
H69	H	-0.938666	-0.173785	-0.214462
O70	O	-1.291465	0.439887	0.079318
H71	H	-1.353812	0.486034	0.119120
O72	O	-1.270140	-0.176017	0.584351
H73	H	-1.278322	-0.119699	0.627817
O74	O	-1.295422	0.280317	0.080206
H75	H	-1.258628	0.331756	0.118887
O76	O	-1.745891	-0.079841	0.415850
H77	H	-1.816419	-0.112341	0.377486
H78	H	-1.100942	-0.051638	-0.134187
H79	H	-1.662775	-0.208265	0.575091
H80	H	-1.524030	0.448431	0.147381
H81	H	-1.719867	-0.096586	0.575988
H82	H	-1.526842	0.306291	-0.146871
H83	H	-1.302924	-0.179888	0.423507
H84	H	-1.529918	0.305077	0.147028
O85	O	-1.354201	-0.010621	0.585645
H86	H	-1.275183	-0.058230	0.565034
H87	H	-1.556648	0.014870	0.575581
O88	O	-1.709830	0.471737	0.089479
H89	H	-1.777624	0.422940	0.091885
H90	H	-1.681619	0.318419	0.087456
