data_functionalizedCrystal
_audit_creation_method	'MofGen! by Chris Wilmer'
_symmetry_space_group_name_H-M	'P1'
_symmetry_Int_Tables_number	1
_symmetry_cell_setting	triclinic
loop_
_symmetry_equiv_pos_as_xyz
  x,y,z
_cell_length_a	18.215407
_cell_length_b	13.897448
_cell_length_c	18.215398
_cell_angle_alpha	90.021215
_cell_angle_beta	89.983001
_cell_angle_gamma	89.982988
loop_
_atom_site_label
_atom_site_type_symbol
_atom_site_fract_x
_atom_site_fract_y
_atom_site_fract_z
Zn1	Zn	1.125096	0.384115	-0.416089
Zn2	Zn	1.458430	0.717448	-0.082756
Zn3	Zn	1.791763	1.050781	0.250578
Zn4	Zn	1.125017	0.545417	-0.293032
Zn5	Zn	1.458350	0.878751	0.040302
Zn6	Zn	1.791684	1.212084	0.373635
Zn7	Zn	1.002030	0.384131	-0.293042
Zn8	Zn	1.335363	0.717464	0.040292
Zn9	Zn	1.668696	1.050797	0.373625
Zn10	Zn	1.002006	0.545362	-0.416062
Zn11	Zn	1.335340	0.878695	-0.082729
Zn12	Zn	1.668673	1.212029	0.250605
O13	O	1.063537	0.464756	-0.354556
O14	O	1.396871	0.798089	-0.021223
O15	O	1.730204	1.131423	0.312111
O16	O	1.228070	0.405528	-0.399772
O17	O	1.561403	0.738861	-0.066439
O18	O	1.894737	1.072195	0.266894
O19	O	1.108679	0.524052	-0.190049
O20	O	1.442012	0.857385	0.143285
O21	O	1.775346	1.190719	0.476618
O22	O	1.018398	0.249147	-0.309380
O23	O	1.351731	0.582480	0.023954
O24	O	1.685065	0.915814	0.357287
O25	O	1.228012	0.524036	-0.309363
O26	O	1.561345	0.857370	0.023971
O27	O	1.894678	1.190703	0.357304
O28	O	1.108814	0.249135	-0.399782
O29	O	1.442148	0.582468	-0.066449
O30	O	1.775481	0.915802	0.266885
O31	O	1.018321	0.405555	-0.190056
O32	O	1.351654	0.738889	0.143277
O33	O	1.684988	1.072222	0.476611
O34	O	0.899042	0.405502	-0.309353
O35	O	1.232376	0.738835	0.023980
O36	O	1.565709	1.072169	0.357313
O37	O	1.018358	0.523943	-0.519050
O38	O	1.351691	0.857276	-0.185716
O39	O	1.685025	1.190609	0.147617
O40	O	0.899025	0.523958	-0.399736
O41	O	1.232358	0.857291	-0.066403
O42	O	1.565692	1.190625	0.266931
O43	O	1.108792	0.405475	-0.519070
O44	O	1.442125	0.738808	-0.185736
O45	O	1.775458	1.072141	0.147597
O46	O	1.108656	0.680392	-0.309336
O47	O	1.441990	1.013725	0.023997
O48	O	1.775323	1.347058	0.357330
O49	O	1.018281	0.680351	-0.399726
O50	O	1.351614	1.013684	-0.066393
O51	O	1.684948	1.347018	0.266940
C52	C	0.872331	0.464727	-0.354543
C53	C	1.205664	0.798060	-0.021210
C54	C	1.538998	1.131393	0.312123
C55	C	0.790532	0.464737	-0.354555
C56	C	1.123866	0.798070	-0.021222
C57	C	1.457199	1.131404	0.312112
C58	C	0.602368	0.403157	-0.401706
C59	C	0.935701	0.736490	-0.068372
C60	C	1.269034	1.069823	0.264961
C61	C	0.525509	0.403165	-0.401708
C62	C	0.858842	0.736498	-0.068375
C63	C	1.192176	1.069832	0.264958
C64	C	0.525459	0.526383	-0.307419
C65	C	0.858792	0.859716	0.025914
C66	C	1.192126	1.193049	0.359247
C67	C	0.602316	0.526369	-0.307414
C68	C	0.935650	0.859702	0.025920
C69	C	1.268983	1.193035	0.359253
C70	C	0.640769	0.464757	-0.354561
C71	C	0.974102	0.798091	-0.021228
C72	C	1.307435	1.131424	0.312106
C73	C	0.487053	0.464779	-0.354569
C74	C	0.820386	0.798113	-0.021236
C75	C	1.153719	1.131446	0.312097
C76	C	0.403719	0.464789	-0.354572
C77	C	0.737052	0.798122	-0.021238
C78	C	1.070386	1.131455	0.312095
C79	C	0.724108	0.464746	-0.354558
C80	C	1.057441	0.798080	-0.021225
C81	C	1.390774	1.131413	0.312109
C82	C	1.063477	0.715371	-0.354543
C83	C	1.396811	1.048704	-0.021210
C84	C	1.730144	1.382037	0.312123
C85	C	1.063519	0.822584	-0.354563
C86	C	1.396852	1.155918	-0.021229
C87	C	1.730186	1.489251	0.312104
C88	C	1.063591	1.018879	-0.354616
C89	C	1.396925	1.352213	-0.021282
C90	C	1.730258	1.685546	0.312051
C91	C	1.063549	0.909647	-0.354588
C92	C	1.396882	1.242980	-0.021255
C93	C	1.730216	1.576314	0.312078
C94	C	1.255490	0.464787	-0.354569
C95	C	1.588824	0.798120	-0.021236
C96	C	1.922157	1.131453	0.312097
C97	C	1.337289	0.464800	-0.354575
C98	C	1.670622	0.798133	-0.021242
C99	C	2.003956	1.131466	0.312092
C100	C	1.063611	1.213163	-0.354594
C101	C	1.396945	1.546497	-0.021260
C102	C	1.730278	1.879830	0.312073
C103	C	1.063627	1.105949	-0.354632
C104	C	1.396960	1.439283	-0.021298
C105	C	1.730294	1.772616	0.312035
C106	C	1.063581	0.464701	-0.546509
C107	C	1.396914	0.798034	-0.213176
C108	C	1.730248	1.131367	0.120158
C109	C	1.063600	0.464677	-0.628308
C110	C	1.396933	0.798010	-0.294975
C111	C	1.730266	1.131344	0.038359
C112	C	1.110683	0.526259	-0.893366
C113	C	1.444016	0.859593	-0.560033
C114	C	1.777349	1.192926	-0.226700
C115	C	1.110671	0.526293	-0.816508
C116	C	1.444005	0.859626	-0.483174
C117	C	1.777338	1.192959	-0.149841
C118	C	1.016572	0.402909	-0.816498
C119	C	1.349905	0.736242	-0.483165
C120	C	1.683239	1.069576	-0.149832
C121	C	1.016580	0.402881	-0.893356
C122	C	1.349913	0.736214	-0.560022
C123	C	1.683247	1.069548	-0.226689
C124	C	1.063640	0.464555	-0.931788
C125	C	1.396973	0.797888	-0.598454
C126	C	1.730306	1.131221	-0.265121
C127	C	1.063620	0.464616	-0.778072
C128	C	1.396954	0.797949	-0.444738
C129	C	1.730287	1.131283	-0.111405
C130	C	1.063608	0.464652	-0.694738
C131	C	1.396941	0.797985	-0.361405
C132	C	1.730274	1.131319	-0.028071
C133	C	1.063651	0.464520	-1.015127
C134	C	1.396985	0.797854	-0.681793
C135	C	1.730318	1.131187	-0.348460
C136	C	1.063536	0.464742	-0.163350
C137	C	1.396870	0.798075	0.169984
C138	C	1.730203	1.131408	0.503317
C139	C	1.063660	0.464494	-0.081551
C140	C	1.396994	0.797827	0.251782
C141	C	1.730327	1.131160	0.585115
H142	H	0.494246	0.353002	-0.440097
H143	H	0.827579	0.686336	-0.106764
H144	H	1.160913	1.019669	0.226570
H145	H	0.494142	0.576545	-0.269034
H146	H	0.827475	0.909879	0.064299
H147	H	1.160809	1.243212	0.397632
H148	H	0.633673	0.352986	-0.440094
H149	H	0.967007	0.686319	-0.106761
H150	H	1.300340	1.019652	0.226573
H151	H	0.633583	0.576532	-0.269019
H152	H	0.966917	0.909865	0.064315
H153	H	1.300250	1.243199	0.397648
H154	H	0.978268	0.352633	-0.924639
H155	H	1.311602	0.685966	-0.591306
H156	H	1.644935	1.019299	-0.257973
C157	C	1.162443	0.594110	-0.935639
C158	C	1.495777	0.927443	-0.602305
C159	C	1.829110	1.260777	-0.268972
N160	N	1.201429	0.645221	-0.967476
N161	N	1.534762	0.978554	-0.634143
N162	N	1.868095	1.311887	-0.300810
C163	C	1.162438	0.594152	-0.774247
C164	C	1.495772	0.927486	-0.440914
C165	C	1.829105	1.260819	-0.107581
N166	N	1.201436	0.645260	-0.742418
N167	N	1.534770	0.978594	-0.409084
N168	N	1.868103	1.311927	-0.075751
C169	C	0.964821	0.335056	-0.774216
C170	C	1.298155	0.668389	-0.440883
C171	C	1.631488	1.001722	-0.107549
N172	N	0.925846	0.283941	-0.742370
N173	N	1.259180	0.617275	-0.409036
N174	N	1.592513	0.950608	-0.075703
