data_functionalizedCrystal
_audit_creation_method	'MofGen! by Chris Wilmer'
_symmetry_space_group_name_H-M	'P1'
_symmetry_Int_Tables_number	1
_symmetry_cell_setting	triclinic
loop_
_symmetry_equiv_pos_as_xyz
  x,y,z
_cell_length_a	10.654545
_cell_length_b	14.971486
_cell_length_c	9.130313
_cell_angle_alpha	89.995272
_cell_angle_beta	89.996934
_cell_angle_gamma	84.048604
loop_
_atom_site_label
_atom_site_type_symbol
_atom_site_fract_x
_atom_site_fract_y
_atom_site_fract_z
O1	O	1.666495	0.125612	-0.121786
O2	O	2.166495	0.625612	0.378214
O3	O	1.300888	0.137585	-0.121792
O4	O	1.800888	0.637585	0.378208
O5	O	1.493491	0.001452	-0.121778
O6	O	1.993491	0.501452	0.378222
O7	O	1.473892	0.261745	-0.121799
O8	O	1.973892	0.761745	0.378201
O9	O	1.493477	0.001448	0.121821
O10	O	1.993477	0.501448	0.621821
O11	O	1.300874	0.137581	0.121807
O12	O	1.800874	0.637581	0.621807
O13	O	1.666482	0.125608	0.121813
O14	O	2.166482	0.625608	0.621813
Cu15	Cu	1.483677	0.131594	0.144053
Cu16	Cu	1.983677	0.631594	0.644053
Cu17	Cu	1.483693	0.131599	-0.144031
Cu18	Cu	1.983693	0.631599	0.355969
O19	O	1.473879	0.261741	0.121800
O20	O	1.973879	0.761741	0.621800
C21	C	1.254092	0.136705	0.000007
C22	C	1.754092	0.636705	0.500007
C23	C	1.114677	0.134077	0.000005
C24	C	1.614677	0.634077	0.500005
C25	C	1.049179	0.132838	0.132791
C26	C	1.549179	0.632838	0.632791
C27	C	0.918186	0.130354	0.132792
C28	C	1.418186	0.630354	0.632792
C29	C	0.918201	0.130353	-0.132793
C30	C	1.418201	0.630353	0.367207
C31	C	1.049192	0.132830	-0.132792
C32	C	1.549192	0.632830	0.367208
C33	C	1.492608	-0.031880	0.000021
C34	C	1.992608	0.468120	0.500021
C35	C	1.489981	-0.131191	0.000020
C36	C	1.989981	0.368809	0.500020
C37	C	1.603130	-0.187802	0.000022
C38	C	2.103130	0.312198	0.500022
C39	C	1.600655	-0.281115	0.000008
C40	C	2.100655	0.218885	0.500008
C41	C	1.485029	-0.317815	0.000000
C42	C	1.985029	0.182185	0.500000
C43	C	1.371871	-0.261197	-0.000007
C44	C	1.871871	0.238803	0.499993
C45	C	1.374348	-0.167886	-0.000003
C46	C	1.874348	0.332114	0.499997
C47	C	1.366717	-0.455687	-0.000012
C48	C	1.866717	0.044313	0.499988
C49	C	1.364240	-0.549005	-0.000014
C50	C	1.864240	-0.049005	0.499986
C51	C	1.593024	-0.568916	-0.000002
C52	C	2.093024	-0.068916	0.499998
C53	C	1.595500	-0.475605	0.000002
C54	C	2.095500	0.024395	0.500002
C55	C	1.482342	-0.418994	-0.000002
C56	C	1.982342	0.081006	0.499998
C57	C	1.713277	0.126488	0.000011
C58	C	2.213277	0.626488	0.500011
C59	C	1.852693	0.129116	0.000004
C60	C	2.352693	0.629116	0.500004
C61	C	1.474762	0.295073	-0.000003
C62	C	1.974762	0.795073	0.499997
C63	C	1.477389	0.394384	-0.000011
C64	C	1.977389	0.894384	0.499989
N65	N	1.483675	0.131590	0.346675
N66	N	1.983675	0.631590	0.846675
N67	N	1.483704	0.131596	-0.346654
N68	N	1.983704	0.631596	0.153346
C69	C	1.568988	0.071336	0.423333
C70	C	2.068988	0.571336	0.923333
C71	C	1.569001	0.071336	0.576670
C72	C	2.069001	0.571336	1.076670
C73	C	1.398382	0.191853	0.576678
C74	C	1.898382	0.691853	1.076678
C75	C	1.398365	0.191848	0.423343
C76	C	1.898365	0.691848	0.923343
H77	H	1.697286	-0.157929	0.000037
H78	H	2.197286	0.342071	0.500037
Br79	Br	1.282565	0.273620	0.319295
Br80	Br	1.782565	0.773620	0.819295
Br81	Br	1.138094	0.134501	-0.313016
Br82	Br	1.638094	0.634501	0.186984
H83	H	1.638452	0.022269	0.360914
H84	H	2.138452	0.522269	0.860914
H85	H	1.692792	-0.327204	0.000013
H86	H	2.192792	0.172796	0.500013
Br87	Br	1.752423	-0.425798	0.000008
Br88	Br	2.252423	0.074202	0.500008
H89	H	1.685161	-0.615015	-0.000003
H90	H	2.185161	-0.115015	0.499997
Br91	Br	1.214948	-0.311003	-0.000041
Br92	Br	1.714948	0.188997	0.499959
H93	H	1.638469	0.022271	0.639081
H94	H	2.138469	0.522271	1.139081
H95	H	1.282210	-0.121793	-0.000005
H96	H	1.782210	0.378207	0.499995
Br97	Br	1.138048	0.134528	0.313014
Br98	Br	1.638048	0.634528	0.813014
Br99	Br	0.829326	0.128633	-0.313008
Br100	Br	1.329326	0.628633	0.186992
H101	H	1.274571	-0.409596	-0.000020
H102	H	1.774571	0.090404	0.499980
H103	H	1.270087	-0.578883	0.000004
H104	H	1.770087	-0.078883	0.500004
H105	H	1.328926	0.240915	0.639116
H106	H	1.828926	0.740915	1.139116
H107	H	0.864863	0.129345	0.240920
H108	H	1.364863	0.629345	0.740920
