data_functionalizedCrystal
_audit_creation_method	'MofGen! by Chris Wilmer'
_symmetry_space_group_name_H-M	'P1'
_symmetry_Int_Tables_number	1
_symmetry_cell_setting	triclinic
loop_
_symmetry_equiv_pos_as_xyz
  x,y,z
_cell_length_a	16.992694
_cell_length_b	11.295483
_cell_length_c	16.974813
_cell_angle_alpha	89.552613
_cell_angle_beta	87.024634
_cell_angle_gamma	94.379711
loop_
_atom_site_label
_atom_site_type_symbol
_atom_site_fract_x
_atom_site_fract_y
_atom_site_fract_z
O1	O	1.046322	0.114472	0.161880
O2	O	1.546322	0.614472	0.661880
O3	O	0.818031	0.114330	0.160048
O4	O	1.318031	0.614330	0.660048
O5	O	0.937953	0.103395	0.046817
O6	O	1.437953	0.603395	0.546817
O7	O	0.926401	0.125407	0.275111
O8	O	1.426401	0.625407	0.775111
O9	O	0.927420	-0.093697	0.056746
O10	O	1.427420	0.406303	0.556746
O11	O	0.807498	-0.082762	0.169977
O12	O	1.307498	0.417238	0.669977
O13	O	1.035789	-0.082620	0.171809
O14	O	1.535789	0.417380	0.671809
Cu15	Cu	0.920682	-0.100687	0.171799
Cu16	Cu	1.420682	0.399313	0.671799
Cu17	Cu	0.933139	0.132397	0.160057
Cu18	Cu	1.433139	0.632397	0.660057
O19	O	0.915868	-0.071684	0.285040
O20	O	1.415868	0.428316	0.785040
C21	C	0.783543	0.015562	0.162657
C22	C	1.283543	0.515562	0.662657
C23	C	0.696471	0.014898	0.155631
C24	C	1.196471	0.514898	0.655631
N25	N	0.911927	-0.264626	0.180058
N26	N	1.411927	0.235374	0.680058
C27	C	0.646506	0.021433	0.223418
C28	C	1.146506	0.521433	0.723418
C29	C	0.564692	0.020780	0.216813
C30	C	1.064692	0.520780	0.716813
C31	C	0.532844	0.013600	0.142420
C32	C	1.032844	0.513600	0.642420
C33	C	0.582816	0.007061	0.074629
C34	C	1.082816	0.507061	0.574629
C35	C	0.664628	0.007706	0.081235
C36	C	1.164628	0.507706	0.581235
C37	C	0.289134	0.010928	0.115040
C38	C	0.789134	0.510928	0.615040
C39	C	0.207315	0.010287	0.108439
C40	C	0.707315	0.510287	0.608439
C41	C	0.189197	0.024004	0.250623
C42	C	0.689197	0.524004	0.750623
C43	C	0.271012	0.024656	0.257223
C44	C	0.771012	0.524656	0.757223
C45	C	0.320976	0.018110	0.189432
C46	C	0.820976	0.518110	0.689432
N47	N	0.449217	0.012936	0.135667
N48	N	0.949217	0.512936	0.635667
N49	N	0.404601	0.018766	0.196186
N50	N	0.904601	0.518766	0.696186
C51	C	1.004928	-0.522391	0.092298
C52	C	1.504928	-0.022391	0.592298
C53	C	0.998317	-0.646451	0.098546
C54	C	1.498317	-0.146451	0.598546
C55	C	0.892090	-0.636809	0.198795
C56	C	1.392090	-0.136809	0.698795
C57	C	0.898701	-0.512749	0.192548
C58	C	1.398701	-0.012749	0.692548
C59	C	0.955123	-0.455544	0.139299
C60	C	1.455123	0.044456	0.639299
C61	C	0.961737	-0.331481	0.133056
C62	C	1.461737	0.168519	0.633056
C63	C	0.855507	-0.321842	0.233301
C64	C	1.355507	0.178158	0.733301
C65	C	0.848896	-0.445902	0.239548
C66	C	1.348896	0.054098	0.739548
C67	C	1.070278	0.016151	0.169199
C68	C	1.570278	0.516151	0.669199
C69	C	1.157350	0.016822	0.176225
C70	C	1.657350	0.516822	0.676225
C71	C	0.932052	0.002022	0.022435
C72	C	1.432052	0.502022	0.522435
C73	C	0.930150	-0.006401	-0.065009
C74	C	1.430150	0.493599	0.434991
N75	N	0.941900	0.296335	0.151793
N76	N	1.441900	0.796335	0.651793
C77	C	0.934999	0.097076	-0.111498
C78	C	1.434999	0.597076	0.388502
C79	C	0.933207	0.089158	-0.193660
C80	C	1.433207	0.589158	0.306340
C81	C	0.926571	-0.022238	-0.229333
C82	C	1.426571	0.477762	0.270667
C83	C	0.921718	-0.125723	-0.182837
C84	C	1.421718	0.374277	0.317163
C85	C	0.923505	-0.117804	-0.100676
C86	C	1.423505	0.382196	0.399324
C87	C	0.920606	-0.057443	-0.474478
C88	C	1.420606	0.442557	0.025522
C89	C	0.918822	-0.065355	-0.556646
C90	C	1.418822	0.434645	-0.056646
C91	C	0.930310	0.149527	-0.567463
C92	C	1.430310	0.649527	-0.067463
C93	C	0.932101	0.157436	-0.485300
C94	C	1.432101	0.657436	0.014700
C95	C	0.927244	0.053952	-0.438812
C96	C	1.427244	0.553952	0.061188
N97	N	0.924741	-0.030335	-0.313316
N98	N	1.424741	0.469665	0.186684
N99	N	0.929068	0.062049	-0.354829
N100	N	1.429068	0.562049	0.145171
C101	C	0.921769	0.029691	0.309422
C102	C	1.421769	0.529691	0.809422
C103	C	0.923672	0.038122	0.396865
C104	C	1.423672	0.538122	0.896865
H105	H	0.672429	0.027281	0.283996
H106	H	1.172429	0.527281	0.783996
N107	N	0.510767	0.027809	0.289902
N108	N	1.010767	0.527809	0.789902
H109	H	0.472534	-0.045230	0.293982
H110	H	0.972534	0.454770	0.793982
H111	H	0.543379	0.032497	0.338012
H112	H	1.043379	0.532497	0.838012
N113	N	0.305356	0.032379	0.337463
N114	N	0.805356	0.532379	0.837463
H115	H	0.364766	0.031796	0.331361
H116	H	0.864766	0.531796	0.831361
H117	H	0.290997	0.108322	0.363674
H118	H	0.790997	0.608322	0.863674
H119	H	0.329805	0.005597	0.059839
H120	H	0.829805	0.505597	0.559839
N121	N	1.052041	-0.718548	0.047858
N122	N	1.552041	-0.218548	0.547858
H123	H	1.084142	-0.766901	0.082724
H124	H	1.584142	-0.266901	0.582724
H125	H	1.019137	-0.773501	0.013718
H126	H	1.519137	-0.273501	0.513718
N127	N	0.135304	0.031022	0.323737
N128	N	0.635304	0.531022	0.823737
H129	H	0.167894	0.035660	0.371866
H130	H	0.667894	0.535660	0.871866
H131	H	0.104853	0.104111	0.320425
H132	H	0.604853	0.604111	0.820425
H133	H	0.556878	0.001198	0.014058
H134	H	1.056878	0.501198	0.514058
N135	N	0.718516	0.000660	0.008119
N136	N	1.218516	0.500660	0.508119
H137	H	0.756764	0.073680	0.004007
H138	H	1.256764	0.573680	0.504007
H139	H	0.748911	-0.072487	0.011418
H140	H	1.248911	0.427513	0.511418
H141	H	0.181389	0.004441	0.047856
H142	H	0.681389	0.504441	0.547856
H143	H	1.007680	-0.284906	0.089700
H144	H	1.507680	0.215094	0.589700
H145	H	0.934262	0.233778	-0.605322
H146	H	1.434262	0.733778	-0.105322
N147	N	0.831231	-0.698520	0.256213
N148	N	1.331231	-0.198520	0.756213
H149	H	0.834600	-0.787255	0.253033
H150	H	1.334600	-0.287255	0.753033
H151	H	0.841667	-0.671410	0.311518
H152	H	1.341667	-0.171410	0.811518
H153	H	0.814955	-0.267401	0.271574
H154	H	1.314955	0.232599	0.771574
N155	N	1.065786	-0.460680	0.034879
N156	N	1.565786	0.039320	0.534879
H157	H	1.096338	-0.521854	0.006054
H158	H	1.596338	-0.021854	0.506054
H159	H	1.038366	-0.412747	-0.004404
H160	H	1.538366	0.087253	0.495596
N161	N	0.788041	-0.507605	0.296974
N162	N	1.288041	-0.007605	0.796974
H163	H	0.791408	-0.596341	0.293800
H164	H	1.291408	-0.096341	0.793800
H165	H	0.798485	-0.480485	0.352275
H166	H	1.298485	0.019515	0.852275
H167	H	0.940408	0.187786	-0.082460
H168	H	1.440408	0.687786	0.417540
N169	N	0.938551	0.200763	-0.243811
N170	N	1.438551	0.700763	0.256189
H171	H	0.943069	0.272532	-0.208748
H172	H	1.443069	0.772532	0.291252
H173	H	0.986654	0.201708	-0.281411
H174	H	1.486654	0.701708	0.218589
N175	N	0.911666	-0.185509	-0.595124
N176	N	1.411666	0.314491	-0.095124
H177	H	0.908860	-0.249865	-0.553207
H178	H	1.408860	0.250135	-0.053207
H179	H	0.862114	-0.193139	-0.625659
H180	H	1.362114	0.306861	-0.125659
H181	H	0.937506	0.248146	-0.456262
H182	H	1.437506	0.748146	0.043738
N183	N	0.915377	-0.169054	-0.424344
N184	N	1.415377	0.330946	0.075656
H185	H	0.910909	-0.240820	-0.459412
H186	H	1.410909	0.259180	0.040588
H187	H	0.964434	-0.170771	-0.393343
H188	H	1.464434	0.329229	0.106657
N189	N	0.914568	-0.245874	-0.221308
N190	N	1.414568	0.254126	0.278692
H191	H	0.914179	-0.235192	-0.280412
H192	H	1.414179	0.264808	0.219588
H193	H	0.960941	-0.291720	-0.207900
H194	H	1.460941	0.208280	0.292100
H195	H	0.919545	-0.202066	-0.062824
H196	H	1.419545	0.297934	0.437176
