data_functionalizedCrystal
_audit_creation_method	'MofGen! by Chris Wilmer'
_symmetry_space_group_name_H-M	'P1'
_symmetry_Int_Tables_number	1
_symmetry_cell_setting	triclinic
loop_
_symmetry_equiv_pos_as_xyz
  x,y,z
_cell_length_a	13.033293
_cell_length_b	13.897447
_cell_length_c	13.032268
_cell_angle_alpha	97.151637
_cell_angle_beta	90.920818
_cell_angle_gamma	82.808639
loop_
_atom_site_label
_atom_site_type_symbol
_atom_site_fract_x
_atom_site_fract_y
_atom_site_fract_z
Zn1	Zn	1.498440	0.300102	0.781500
Zn2	Zn	1.998440	0.800102	1.281500
Zn3	Zn	1.520172	0.438722	0.609536
Zn4	Zn	2.020172	0.938722	1.109536
Zn5	Zn	1.348300	0.295009	0.587676
Zn6	Zn	1.848300	0.795009	1.087676
Zn7	Zn	1.326420	0.478933	0.759578
Zn8	Zn	1.826420	0.978933	1.259578
O9	O	1.423333	0.378192	0.684573
O10	O	1.923333	0.878192	1.184573
O11	O	1.645242	0.303794	0.777012
O12	O	2.145242	0.803794	1.277012
O13	O	1.515625	0.400698	0.462726
O14	O	2.015625	0.900698	0.962726
O15	O	1.368279	0.160699	0.613413
O16	O	1.868279	0.660699	1.113413
O17	O	1.661209	0.405637	0.650670
O18	O	2.161209	0.905637	1.150670
O19	O	1.478585	0.164441	0.755815
O20	O	1.978585	0.664441	1.255815
O21	O	1.389352	0.295112	0.446666
O22	O	1.889352	0.795112	0.946666
O23	O	1.201478	0.334103	0.592156
O24	O	1.701478	0.834103	1.092156
O25	O	1.330986	0.474171	0.906396
O26	O	1.830986	0.974171	1.406396
O27	O	1.185402	0.469232	0.718452
O28	O	1.685402	0.969232	1.218452
O29	O	1.457369	0.342785	0.922502
O30	O	1.957369	0.842785	1.422502
O31	O	1.494408	0.579042	0.629413
O32	O	1.994408	1.079042	1.129413
O33	O	1.352059	0.608585	0.739649
O34	O	1.852059	1.108585	1.239649
C35	C	1.156123	0.405479	0.650554
C36	C	1.656123	0.905479	1.150554
C37	C	1.041807	0.417179	0.636025
C38	C	1.541807	0.917179	1.136025
C39	C	0.982928	0.372109	0.692155
C40	C	1.482928	0.872109	1.192155
C41	C	0.864776	0.384201	0.677140
C42	C	1.364776	0.884201	1.177140
C43	C	1.423243	0.628814	0.684550
C44	C	1.923243	1.128814	1.184550
C45	C	1.423294	0.736026	0.684587
C46	C	1.923294	1.236026	1.184587
C47	C	1.423338	0.823095	0.684621
C48	C	1.923338	1.323095	1.184621
C49	C	1.423402	0.932324	0.684662
C50	C	1.923402	1.432324	1.184662
C51	C	1.691586	0.350798	0.718725
C52	C	2.191586	0.850798	1.218725
C53	C	1.805899	0.339125	0.733279
C54	C	2.305899	0.839125	1.233279
C55	C	1.389313	0.413532	0.952806
C56	C	1.889313	0.913532	1.452806
C57	C	1.374815	0.428592	1.067112
C58	C	1.874815	0.928592	1.567112
C59	C	1.423439	1.126593	0.684633
C60	C	1.923439	1.626593	1.184633
C61	C	1.423460	1.019384	0.684690
C62	C	1.923460	1.519384	1.184690
C63	C	1.457280	0.342913	0.417390
C64	C	1.957280	0.842913	0.917390
C65	C	1.471977	0.327561	0.303110
C66	C	1.971977	0.827561	0.803110
C67	C	1.430883	0.370299	1.126042
C68	C	1.930883	0.870299	1.626042
C69	C	1.415901	0.385862	1.244182
C70	C	1.915901	0.885862	1.744182
H71	H	1.019992	0.324568	0.751323
H72	H	1.519992	0.824568	1.251323
H73	H	1.531069	0.266123	1.266105
H74	H	2.031069	0.766123	1.766105
H75	H	0.827717	0.431740	0.617962
H76	H	1.327717	0.931740	1.117962
H77	H	0.842958	0.291578	0.792449
H78	H	1.342958	0.791578	1.292449
F79	F	0.993368	0.479311	0.558676
F80	F	1.493368	0.979311	1.058676
H81	H	1.489973	0.308867	1.089030
H82	H	1.989973	0.808867	1.589030
F83	F	1.297568	0.508882	1.115481
F84	F	1.797568	1.008882	1.615481
F85	F	1.338650	0.466157	1.292547
F86	F	1.838650	0.966157	1.792547
