data_functionalizedCrystal
_audit_creation_method	'MofGen! by Chris Wilmer'
_symmetry_space_group_name_H-M	'P1'
_symmetry_Int_Tables_number	1
_symmetry_cell_setting	triclinic
loop_
_symmetry_equiv_pos_as_xyz
  x,y,z
_cell_length_a	9.065215
_cell_length_b	7.540329
_cell_length_c	9.065218
_cell_angle_alpha	89.998243
_cell_angle_beta	94.984675
_cell_angle_gamma	90.002218
loop_
_atom_site_label
_atom_site_type_symbol
_atom_site_fract_x
_atom_site_fract_y
_atom_site_fract_z
O1	O	-1.960401	-0.147445	0.216335
O2	O	-1.460401	0.352555	0.716335
O3	O	-1.531115	-0.147455	0.234086
O4	O	-1.031115	0.352545	0.734086
O5	O	-1.754631	-0.147446	0.010568
O6	O	-1.254631	0.352554	0.510568
O7	O	-1.736885	-0.147454	0.439853
O8	O	-1.236885	0.352546	0.939853
O9	O	-1.754618	0.147519	0.010565
O10	O	-1.254618	0.647519	0.510565
O11	O	-1.531102	0.147511	0.234083
O12	O	-1.031102	0.647511	0.734083
O13	O	-1.960387	0.147520	0.216332
O14	O	-1.460387	0.647520	0.716332
Cu15	Cu	-1.745743	0.174448	0.225208
Cu16	Cu	-1.245743	0.674448	0.725208
Cu17	Cu	-1.745759	-0.174383	0.225211
Cu18	Cu	-1.245759	0.325617	0.725211
O19	O	-1.736871	0.147511	0.439850
O20	O	-1.236871	0.647511	0.939850
C21	C	-1.476122	0.000027	0.232380
C22	C	-0.976122	0.500027	0.732380
C23	C	-1.312279	0.000023	0.227282
C24	C	-0.812279	0.500023	0.727282
C25	C	-1.752919	0.000034	-0.044420
C26	C	-1.252919	0.500034	0.455580
C27	C	-1.747819	0.000025	-0.208263
C28	C	-1.247819	0.500025	0.291737
N29	N	-1.745743	0.419796	0.225204
N30	N	-1.245743	0.919796	0.725204
C31	C	-1.015381	0.000033	0.218039
C32	C	-0.515381	0.500033	0.718039
C33	C	-1.179224	0.000022	0.223136
C34	C	-0.679224	0.500022	0.723136
N35	N	-1.745771	-0.419731	0.225203
N36	N	-1.245771	0.080269	0.725203
C37	C	-1.738584	0.000028	0.494838
C38	C	-1.238584	0.500028	0.994838
C39	C	-1.743683	0.000025	0.658681
C40	C	-1.243683	0.500025	1.158681
