data_functionalizedCrystal
_audit_creation_method	'MofGen! by Chris Wilmer'
_symmetry_space_group_name_H-M	'P1'
_symmetry_Int_Tables_number	1
_symmetry_cell_setting	triclinic
loop_
_symmetry_equiv_pos_as_xyz
  x,y,z
_cell_length_a	23.532407
_cell_length_b	15.712078
_cell_length_c	14.750779
_cell_angle_alpha	106.502580
_cell_angle_beta	77.432772
_cell_angle_gamma	101.214909
loop_
_atom_site_label
_atom_site_type_symbol
_atom_site_fract_x
_atom_site_fract_y
_atom_site_fract_z
O1	O	-0.769042	-0.123531	-0.079678
O2	O	-0.606388	-0.138693	-0.079711
O3	O	-0.666077	-0.005470	-0.079694
O4	O	-0.709353	-0.256754	-0.079695
O5	O	-0.682951	0.032187	0.079961
O6	O	-0.623262	-0.101037	0.079944
O7	O	-0.785916	-0.085874	0.079977
Zn8	Zn	-0.707268	-0.087477	0.105309
Zn9	Zn	-0.685036	-0.137091	-0.105043
O10	O	-0.726227	-0.219097	0.079960
C11	C	-0.593527	-0.119480	0.000112
C12	C	-0.530063	-0.118323	0.000100
N13	N	-0.722445	-0.053616	0.248869
C14	C	-0.667444	0.045500	0.000131
C15	C	-0.646371	0.141273	0.000125
C16	C	-0.146135	-0.189875	0.000130
C17	C	-0.086507	-0.188796	0.000134
O18	O	-0.063831	-0.255124	0.000168
N19	N	-0.047088	-0.109597	0.000132
C20	C	-0.067301	-0.031470	0.000136
O21	O	-0.028297	0.035993	0.000135
C22	C	-0.126929	-0.032548	0.000139
C23	C	-0.166345	-0.111754	0.000131
C24	C	-0.185550	-0.269074	0.000124
C25	C	-0.245174	-0.270153	0.000118
C26	C	-0.265383	-0.192032	0.000119
C27	C	-0.225969	-0.112833	0.000125
C28	C	-0.147142	0.045579	0.000149
C29	C	-0.206775	0.044495	0.000153
C30	C	-0.246190	-0.034711	0.000145
C31	C	-0.305802	-0.035792	0.000120
N32	N	-0.345221	-0.114990	0.000122
C33	C	-0.325011	-0.193110	0.000122
C34	C	0.057921	-0.029212	0.000132
C35	C	0.117549	-0.028134	0.000122
C36	C	0.098339	-0.185460	0.000122
C37	C	0.038711	-0.186538	0.000125
C38	C	0.018502	-0.108410	0.000134
C39	C	-0.450225	-0.195370	0.000109
C40	C	-0.509853	-0.196443	0.000099
C41	C	-0.490639	-0.039117	0.000104
C42	C	-0.431015	-0.038045	0.000108
C43	C	-0.410811	-0.116178	0.000114
O44	O	-0.328520	0.030503	0.000091
O45	O	-0.364022	-0.260560	0.000135
C46	C	0.201224	-0.105090	0.000143
C47	C	0.137763	-0.106254	0.000126
C48	C	-0.724860	-0.270068	0.000133
C49	C	-0.745933	-0.365842	0.000133
C50	C	-0.825285	0.509912	0.000151
C51	C	-0.805471	0.599903	0.000147
C52	C	-0.706186	0.578429	0.000127
C53	C	-0.725992	0.488436	0.000135
C54	C	-0.785543	0.454185	0.000146
C55	C	-0.686249	0.432709	0.000131
C56	C	-0.706054	0.342722	0.000134
C57	C	-0.765602	0.308463	0.000142
C58	C	-0.805347	0.364198	0.000150
C59	C	-0.626699	0.466960	0.000113
C60	C	-0.586956	0.411233	0.000108
C61	C	-0.606761	0.321246	0.000118
C62	C	-0.666309	0.286987	0.000126
C63	C	-0.567015	0.265511	0.000110
C64	C	-0.586820	0.175524	0.000114
C65	C	-0.686113	0.197000	0.000129
N66	N	-0.669862	-0.170945	-0.248603
C67	C	-0.627466	-0.265475	0.600661
C68	C	-0.638107	-0.241753	0.701163
C69	C	-0.690986	-0.123827	0.701140
C70	C	-0.680348	-0.147536	0.600636
C71	C	-0.648588	-0.218362	0.550404
C72	C	-0.701469	-0.100423	0.550380
C73	C	-0.690834	-0.124133	0.449884
C74	C	-0.659077	-0.194957	0.399645
C75	C	-0.637953	-0.242072	0.449909
C76	C	-0.733233	-0.029602	0.600614
C77	C	-0.754354	0.017512	0.550357
C78	C	-0.743716	-0.006194	0.449860
C79	C	-0.711959	-0.077019	0.399621
C80	C	-0.764840	0.040920	0.399596
C81	C	-0.754205	0.017210	0.299101
C82	C	-0.701324	-0.100729	0.299126
H83	H	-0.541944	-0.260945	0.000092
H84	H	-0.554458	0.130150	0.000111
F85	F	-0.724788	-0.048454	0.754609
H86	H	-0.433783	-0.258993	0.000116
F87	F	-0.287116	-0.354454	0.000114
F88	F	-0.642809	0.614890	0.000108
H89	H	-0.741893	-0.010302	0.682443
F90	F	-0.667514	-0.176103	0.245662
F91	F	-0.593657	-0.340849	0.547197
F92	F	-0.868731	0.327747	0.000188
H93	H	0.006621	-0.251033	0.000124
F94	F	0.119857	-0.268602	0.000125
H95	H	-0.620905	-0.280126	0.742076
F96	F	-0.605628	0.562748	0.000170
H97	H	-0.734606	0.169114	0.000148
F98	F	-0.786680	0.212689	0.000141
H99	H	-0.873778	0.482025	0.000170
F100	F	-0.788156	0.092885	0.603826
H101	H	-0.538469	0.439132	0.000095
H102	H	-0.837839	0.645273	0.000145
H103	H	-0.518528	0.293410	0.000092
H104	H	0.149638	0.036359	0.000113
H105	H	-0.650421	-0.214264	0.317816
F106	F	-0.798647	0.116288	0.453068
F107	F	-0.604143	-0.317446	0.396446
F108	F	-0.776687	0.067353	0.245614
H109	H	-0.169104	-0.332692	0.000127
F110	F	0.036421	0.053946	0.000132
H111	H	-0.223225	0.108117	0.000161
F112	F	-0.105204	0.129879	0.000144
H113	H	-0.398920	0.026448	0.000101
H114	H	-0.507104	0.024486	0.000101
