data_functionalizedCrystal
_audit_creation_method	'MofGen! by Chris Wilmer'
_symmetry_space_group_name_H-M	'P1'
_symmetry_Int_Tables_number	1
_symmetry_cell_setting	triclinic
loop_
_symmetry_equiv_pos_as_xyz
  x,y,z
_cell_length_a	9.065218
_cell_length_b	11.792254
_cell_length_c	8.140239
_cell_angle_alpha	90.001420
_cell_angle_beta	90.001330
_cell_angle_gamma	84.607241
loop_
_atom_site_label
_atom_site_type_symbol
_atom_site_fract_x
_atom_site_fract_y
_atom_site_fract_z
O1	O	0.202310	1.508017	0.136605
O2	O	0.223132	1.177794	0.136608
O3	O	-0.001985	1.349731	0.136603
O4	O	0.427427	1.336080	0.136610
O5	O	-0.001987	1.349726	-0.136624
O6	O	0.223130	1.177788	-0.136619
O7	O	0.202309	1.508012	-0.136622
Zn8	Zn	0.212719	1.342899	-0.180001
Zn9	Zn	0.212721	1.342906	0.179987
O10	O	0.427425	1.336074	-0.136617
C11	C	0.221819	1.135493	-0.000005
C12	C	0.217894	1.009458	-0.000004
C13	C	0.214704	0.907104	0.000003
C14	C	0.210715	0.778695	0.000004
C15	C	-0.056960	1.348416	-0.000008
C16	C	-0.220767	1.344494	0.000000
C17	C	0.482401	1.337389	-0.000003
C18	C	0.646207	1.341312	0.000000
C19	C	0.203621	1.550313	-0.000005
C20	C	0.207547	1.676347	0.000004
N21	N	0.212717	1.342902	-0.425684
N22	N	0.212712	1.342912	0.425670
