data_functionalizedCrystal
_audit_creation_method	'MofGen! by Chris Wilmer'
_symmetry_space_group_name_H-M	'P1'
_symmetry_Int_Tables_number	1
_symmetry_cell_setting	triclinic
loop_
_symmetry_equiv_pos_as_xyz
  x,y,z
_cell_length_a	25.639242
_cell_length_b	29.839131
_cell_length_c	29.839125
_cell_angle_alpha	89.988394
_cell_angle_beta	89.977328
_cell_angle_gamma	90.036947
loop_
_atom_site_label
_atom_site_type_symbol
_atom_site_fract_x
_atom_site_fract_y
_atom_site_fract_z
Zn1	Zn	0.799218	-0.178997	-0.254114
Zn2	Zn	1.132551	0.154336	0.079220
Zn3	Zn	1.465884	0.487670	0.412553
Zn4	Zn	0.799136	-0.254101	-0.178983
Zn5	Zn	1.132470	0.079232	0.154350
Zn6	Zn	1.465803	0.412566	0.487683
Zn7	Zn	0.711793	-0.178980	-0.178984
Zn8	Zn	1.045127	0.154353	0.154349
Zn9	Zn	1.378460	0.487687	0.487682
Zn10	Zn	0.711735	-0.254095	-0.254073
Zn11	Zn	1.045068	0.079239	0.079260
Zn12	Zn	1.378402	0.412572	0.412594
O13	O	0.755471	-0.216543	-0.216539
O14	O	1.088804	0.116790	0.116795
O15	O	1.422137	0.450123	0.450128
O16	O	0.872372	-0.188969	-0.244164
O17	O	1.205705	0.144364	0.089169
O18	O	1.539039	0.477697	0.422503
O19	O	0.787540	-0.244132	-0.116116
O20	O	1.120874	0.089202	0.217217
O21	O	1.454207	0.422535	0.550550
O22	O	0.723449	-0.116115	-0.188968
O23	O	1.056782	0.217218	0.144366
O24	O	1.390115	0.550552	0.477699
O25	O	0.872312	-0.244148	-0.188966
O26	O	1.205646	0.089185	0.144367
O27	O	1.538979	0.422519	0.477701
O28	O	0.787679	-0.116128	-0.244165
O29	O	1.121012	0.217206	0.089169
O30	O	1.454346	0.550539	0.422502
O31	O	0.723370	-0.188940	-0.116117
O32	O	1.056703	0.144393	0.217216
O33	O	1.390036	0.477726	0.550550
O34	O	0.638620	-0.188934	-0.188928
O35	O	0.971954	0.144399	0.144405
O36	O	1.305287	0.477732	0.477738
O37	O	0.723349	-0.244137	-0.316946
O38	O	1.056683	0.089196	0.016388
O39	O	1.390016	0.422529	0.349721
O40	O	0.638577	-0.244121	-0.244096
O41	O	0.971911	0.089212	0.089237
O42	O	1.305244	0.422546	0.422571
O43	O	0.787623	-0.188963	-0.316975
O44	O	1.120956	0.144370	0.016358
O45	O	1.454289	0.477703	0.349691
O46	O	0.787484	-0.316967	-0.188927
O47	O	1.120817	0.016366	0.144406
O48	O	1.454150	0.349699	0.477740
O49	O	0.723270	-0.316963	-0.244095
O50	O	1.056604	0.016371	0.089238
O51	O	1.389937	0.349704	0.422572
C52	C	0.619628	-0.216525	-0.216508
C53	C	0.952961	0.116808	0.116825
C54	C	1.286295	0.450141	0.450159
C55	C	0.561514	-0.216529	-0.216506
C56	C	0.894847	0.116805	0.116828
C57	C	1.228181	0.450138	0.450161
C58	C	0.201137	-0.245327	-0.245237
C59	C	0.534471	0.088006	0.088096
C60	C	0.867804	0.421340	0.421430
C61	C	0.146533	-0.245330	-0.245244
C62	C	0.479866	0.088004	0.088089
C63	C	0.813200	0.421337	0.421423
O64	O	0.118285	-0.269793	-0.269647
O65	O	0.451618	0.063541	0.063687
O66	O	0.784952	0.396874	0.397020
N67	N	0.119231	-0.216556	-0.216568
N68	N	0.452565	0.116778	0.116765
N69	N	0.785898	0.450111	0.450099
C70	C	0.146537	-0.187774	-0.187886
C71	C	0.479870	0.145560	0.145447
C72	C	0.813204	0.478893	0.478781
O73	O	0.118301	-0.163299	-0.163496
O74	O	0.451634	0.170034	0.169838
O75	O	0.784967	0.503368	0.503171
C76	C	0.201140	-0.187769	-0.187881
C77	C	0.534474	0.145564	0.145452
C78	C	0.867807	0.478898	0.478785
C79	C	0.228439	-0.216548	-0.216556
C80	C	0.561772	0.116785	0.116777
C81	C	0.895106	0.450119	0.450110
C82	C	0.228436	-0.274103	-0.273910
C83	C	0.561770	0.059230	0.059423
C84	C	0.895103	0.392563	0.392757
C85	C	0.283037	-0.274101	-0.273902
C86	C	0.616370	0.059232	0.059431
C87	C	0.949704	0.392566	0.392765
C88	C	0.310339	-0.245322	-0.245221
C89	C	0.643672	0.088011	0.088112
C90	C	0.977005	0.421344	0.421445
C91	C	0.283040	-0.216546	-0.216549
C92	C	0.616373	0.116787	0.116785
C93	C	0.949706	0.450121	0.450118
C94	C	0.228445	-0.158985	-0.159202
C95	C	0.561778	0.174348	0.174131
C96	C	0.895111	0.507681	0.507465
C97	C	0.283052	-0.158983	-0.159200
C98	C	0.616385	0.174351	0.174133
C99	C	0.949718	0.507684	0.507466
C100	C	0.310351	-0.187762	-0.187875
C101	C	0.643684	0.145571	0.145458
C102	C	0.977017	0.478905	0.478791
C103	C	0.364942	-0.187765	-0.187860
C104	C	0.698275	0.145568	0.145473
C105	C	1.031608	0.478902	0.478807
N106	N	0.392243	-0.216539	-0.216536
N107	N	0.725577	0.116794	0.116797
N108	N	1.058910	0.450128	0.450130
C109	C	0.364942	-0.245318	-0.245217
C110	C	0.698275	0.088016	0.088116
C111	C	1.031609	0.421349	0.421450
C112	C	0.031866	-0.187785	-0.187898
C113	C	0.365200	0.145548	0.145435
C114	C	0.698533	0.478881	0.478769
C115	C	-0.022736	-0.187792	-0.187900
C116	C	0.310597	0.145542	0.145433
C117	C	0.643931	0.478875	0.478767
C118	C	-0.022736	-0.245347	-0.245259
C119	C	0.310597	0.087986	0.088074
C120	C	0.643931	0.421319	0.421408
C121	C	0.031867	-0.245343	-0.245254
C122	C	0.365201	0.087991	0.088079
C123	C	0.698534	0.421324	0.421412
C124	C	0.059168	-0.216559	-0.216574
C125	C	0.392501	0.116774	0.116759
C126	C	0.725835	0.450107	0.450092
C127	C	0.479607	-0.245311	-0.245198
C128	C	0.812940	0.088022	0.088135
C129	C	1.146274	0.421356	0.421469
C130	C	0.534212	-0.245307	-0.245186
C131	C	0.867546	0.088026	0.088147
C132	C	1.200879	0.421359	0.421480
C133	C	0.534208	-0.187751	-0.187829
C134	C	0.867541	0.145583	0.145504
C135	C	1.200874	0.478916	0.478837
C136	C	0.479607	-0.187756	-0.187839
C137	C	0.812940	0.145578	0.145494
C138	C	1.146274	0.478911	0.478827
C139	C	0.452308	-0.216537	-0.216527
C140	C	0.785641	0.116796	0.116806
C141	C	1.118975	0.450129	0.450139
O142	O	0.393225	-0.163313	-0.163471
O143	O	0.726558	0.170020	0.169862
O144	O	1.059891	0.503354	0.503195
O145	O	0.393185	-0.269784	-0.269607
O146	O	0.726518	0.063549	0.063726
O147	O	1.059851	0.396883	0.397059
C148	C	0.755376	-0.333266	-0.216516
C149	C	1.088709	0.000068	0.116817
C150	C	1.422043	0.333401	0.450150
C151	C	0.755384	-0.383200	-0.216522
C152	C	1.088717	-0.049867	0.116812
C153	C	1.422050	0.283466	0.450145
C154	C	0.788967	-0.692833	-0.187855
C155	C	1.122301	-0.359500	0.145479
C156	C	1.455634	-0.026167	0.478812
C157	C	0.789032	-0.880506	-0.187872
C158	C	1.122365	-0.547173	0.145461
C159	C	1.455698	-0.213840	0.478795
O160	O	0.817511	-0.904762	-0.163481
O161	O	1.150844	-0.571429	0.169852
O162	O	1.484178	-0.238096	0.503186
N163	N	0.755579	-0.903985	-0.216573
N164	N	1.088912	-0.570652	0.116761
N165	N	1.422246	-0.237319	0.450094
C166	C	0.722110	-0.880543	-0.245273
C167	C	1.055443	-0.547210	0.088061
C168	C	1.388777	-0.213876	0.421394
O169	O	0.693662	-0.904819	-0.269688
O170	O	1.026995	-0.571486	0.063645
O171	O	1.360328	-0.238153	0.396979
C172	C	0.722049	-0.692871	-0.245257
C173	C	1.055382	-0.359537	0.088076
C174	C	1.388715	-0.026204	0.421409
C175	C	0.755500	-0.669394	-0.216552
C176	C	1.088833	-0.336061	0.116782
C177	C	1.422166	-0.002728	0.450115
C178	C	0.822416	-0.669357	-0.159152
C179	C	1.155749	-0.336023	0.174182
C180	C	1.489083	-0.002690	0.507515
C181	C	0.822398	-0.622441	-0.159146
C182	C	1.155731	-0.289108	0.174187
C183	C	1.489064	0.044225	0.507521
C184	C	0.788930	-0.599002	-0.187843
C185	C	1.122264	-0.265669	0.145490
C186	C	1.455597	0.067664	0.478824
C187	C	0.755481	-0.622479	-0.216546
C188	C	1.088815	-0.289146	0.116787
C189	C	1.422148	0.044188	0.450121
C190	C	0.688583	-0.669429	-0.273959
C191	C	1.021916	-0.336096	0.059374
C192	C	1.355249	-0.002763	0.392707
C193	C	0.688571	-0.622508	-0.273954
C194	C	1.021905	-0.289175	0.059380
C195	C	1.355238	0.044158	0.392713
C196	C	0.722022	-0.599032	-0.245248
C197	C	1.055356	-0.265699	0.088085
C198	C	1.388689	0.067635	0.421418
C199	C	0.721995	-0.552124	-0.245237
C200	C	1.055329	-0.218791	0.088096
C201	C	1.388662	0.114542	0.421430
N202	N	0.755448	-0.528646	-0.216537
N203	N	1.088782	-0.195312	0.116797
N204	N	1.422115	0.138021	0.450130
C205	C	0.788916	-0.552085	-0.187840
C206	C	1.122249	-0.218751	0.145494
C207	C	1.455582	0.114582	0.478827
C208	C	0.722144	-0.979074	-0.245278
C209	C	1.055477	-0.645740	0.088055
C210	C	1.388811	-0.312407	0.421388
C211	C	0.722159	-1.025991	-0.245282
C212	C	1.055492	-0.692658	0.088052
C213	C	1.388825	-0.359325	0.421385
C214	C	0.789081	-1.025952	-0.187881
C215	C	1.122414	-0.692618	0.145452
C216	C	1.455748	-0.359285	0.478785
C217	C	0.789063	-0.979033	-0.187876
C218	C	1.122397	-0.645700	0.145457
C219	C	1.455730	-0.312366	0.478791
C220	C	0.755597	-0.955595	-0.216578
C221	C	1.088930	-0.622261	0.116756
C222	C	1.422263	-0.288928	0.450089
C223	C	0.788874	-0.453559	-0.187829
C224	C	1.122207	-0.120225	0.145504
C225	C	1.455541	0.213108	0.478837
C226	C	0.788851	-0.406639	-0.187825
C227	C	1.122184	-0.073306	0.145509
C228	C	1.455518	0.260028	0.478842
C229	C	0.721931	-0.406683	-0.245226
C230	C	1.055264	-0.073350	0.088107
C231	C	1.388597	0.259984	0.421440
C232	C	0.721951	-0.453599	-0.245230
C233	C	1.055285	-0.120265	0.088104
C234	C	1.388618	0.213068	0.421437
C235	C	0.755427	-0.477035	-0.216529
C236	C	1.088761	-0.143702	0.116804
C237	C	1.422094	0.189631	0.450137
O238	O	0.693535	-0.527839	-0.269619
O239	O	1.026869	-0.194506	0.063714
O240	O	1.360202	0.138827	0.397048
O241	O	0.817368	-0.527800	-0.163435
O242	O	1.150701	-0.194467	0.169898
O243	O	1.484035	0.138867	0.503232
C244	C	0.788986	-0.739749	-0.187860
C245	C	1.122319	-0.406415	0.145473
C246	C	1.455652	-0.073082	0.478806
C247	C	0.755537	-0.763225	-0.216563
C248	C	1.088870	-0.429892	0.116770
C249	C	1.422203	-0.096559	0.450103
C250	C	0.722069	-0.739786	-0.245260
C251	C	1.055403	-0.406453	0.088073
C252	C	1.388736	-0.073120	0.421406
C253	C	0.755551	-0.810143	-0.216567
C254	C	1.088885	-0.476810	0.116767
C255	C	1.422218	-0.143476	0.450100
C256	C	0.789019	-0.833582	-0.187870
C257	C	1.122352	-0.500249	0.145464
C258	C	1.455685	-0.166915	0.478797
C259	C	0.822472	-0.810103	-0.159169
C260	C	1.155805	-0.476770	0.174164
C261	C	1.489138	-0.143436	0.507498
C262	C	0.822453	-0.763188	-0.159163
C263	C	1.155786	-0.429854	0.174170
C264	C	1.489120	-0.096521	0.507503
C265	C	0.688617	-0.763265	-0.273961
C266	C	1.021950	-0.429932	0.059373
C267	C	1.355283	-0.096599	0.392706
C268	C	0.688637	-0.810181	-0.273964
C269	C	1.021971	-0.476847	0.059369
C270	C	1.355304	-0.143514	0.392703
C271	C	0.722105	-0.833620	-0.245267
C272	C	1.055438	-0.500286	0.088067
C273	C	1.388771	-0.166953	0.421400
C274	C	0.891844	-0.216561	-0.216569
C275	C	1.225177	0.116772	0.116764
C276	C	1.558510	0.450105	0.450097
C277	C	0.949958	-0.216569	-0.216583
C278	C	1.283291	0.116764	0.116751
C279	C	1.616624	0.450098	0.450084
C280	C	0.755489	-0.216552	-0.333717
C281	C	1.088822	0.116782	-0.000384
C282	C	1.422155	0.450115	0.332950
C283	C	0.755496	-0.216555	-0.383651
C284	C	1.088830	0.116778	-0.050318
C285	C	1.422163	0.450111	0.283015
C286	C	0.755580	-0.099365	-0.216571
C287	C	1.088913	0.233969	0.116763
C288	C	1.422246	0.567302	0.450096
C289	C	0.755626	-0.049430	-0.216585
C290	C	1.088959	0.283903	0.116749
C291	C	1.422293	0.617236	0.450082
C292	C	0.722066	-0.245181	-0.740223
C293	C	1.055399	0.088152	-0.406890
C294	C	1.388732	0.421485	-0.073557
C295	C	0.722047	-0.245233	-0.552550
C296	C	1.055380	0.088100	-0.219217
C297	C	1.388713	0.421434	0.114116
O298	O	0.693571	-0.269657	-0.528272
O299	O	1.026905	0.063677	-0.194939
O300	O	1.360238	0.397010	0.138394
N301	N	0.755508	-0.216514	-0.529097
N302	N	1.088841	0.116820	-0.195763
N303	N	1.422175	0.450153	0.137570
C304	C	0.788974	-0.187777	-0.552564
C305	C	1.122307	0.145556	-0.219231
C306	C	1.455640	0.478890	0.114102
O307	O	0.817430	-0.163347	-0.528309
O308	O	1.150764	0.169986	-0.194976
O309	O	1.484097	0.503319	0.138357
C310	C	0.788989	-0.187723	-0.740237
C311	C	1.122323	0.145610	-0.406903
C312	C	1.455656	0.478943	-0.073570
C313	C	0.755530	-0.216448	-0.763688
C314	C	1.088863	0.116885	-0.430354
C315	C	1.422197	0.450219	-0.097021
C316	C	0.688608	-0.273903	-0.763674
C317	C	1.021942	0.059430	-0.430341
C318	C	1.355275	0.392764	-0.097008
C319	C	0.688615	-0.273892	-0.810590
C320	C	1.021949	0.059442	-0.477257
C321	C	1.355282	0.392775	-0.143923
C322	C	0.722080	-0.245158	-0.834054
C323	C	1.055413	0.088175	-0.500721
C324	C	1.388746	0.421508	-0.167388
C325	C	0.755537	-0.216436	-0.810603
C326	C	1.088870	0.116897	-0.477270
C327	C	1.422204	0.450230	-0.143936
C328	C	0.822452	-0.158985	-0.763703
C329	C	1.155786	0.174348	-0.430370
C330	C	1.489119	0.507682	-0.097037
C331	C	0.822452	-0.158973	-0.810624
C332	C	1.155786	0.174360	-0.477291
C333	C	1.489119	0.507693	-0.143958
C334	C	0.788993	-0.187698	-0.834075
C335	C	1.122326	0.145636	-0.500742
C336	C	1.455659	0.478969	-0.167409
C337	C	0.789008	-0.187692	-0.880983
C338	C	1.122342	0.145642	-0.547650
C339	C	1.455675	0.478975	-0.214316
N340	N	0.755547	-0.216411	-0.904436
N341	N	1.088880	0.116922	-0.571103
N342	N	1.422214	0.450256	-0.237770
C343	C	0.722083	-0.245144	-0.880972
C344	C	1.055416	0.088189	-0.547639
C345	C	1.388749	0.421522	-0.214305
C346	C	0.788964	-0.187808	-0.454034
C347	C	1.122297	0.145525	-0.120700
C348	C	1.455630	0.478859	0.212633
C349	C	0.788961	-0.187822	-0.407116
C350	C	1.122294	0.145511	-0.073782
C351	C	1.455627	0.478845	0.259551
C352	C	0.722033	-0.245277	-0.407105
C353	C	1.055366	0.088056	-0.073772
C354	C	1.388699	0.421389	0.259562
C355	C	0.722039	-0.245265	-0.454024
C356	C	1.055372	0.088068	-0.120690
C357	C	1.388706	0.421401	0.212643
C358	C	0.755503	-0.216527	-0.477487
C359	C	1.088836	0.116806	-0.144154
C360	C	1.422169	0.450139	0.189180
C361	C	0.722100	-0.245118	-0.979498
C362	C	1.055434	0.088215	-0.646165
C363	C	1.388767	0.421548	-0.312831
C364	C	0.722112	-0.245106	-1.026418
C365	C	1.055445	0.088228	-0.693084
C366	C	1.388779	0.421561	-0.359751
C367	C	0.789038	-0.187649	-1.026424
C368	C	1.122371	0.145685	-0.693091
C369	C	1.455704	0.479018	-0.359758
C370	C	0.789028	-0.187663	-0.979509
C371	C	1.122362	0.145671	-0.646176
C372	C	1.455695	0.479004	-0.312842
C373	C	0.755555	-0.216399	-0.956047
C374	C	1.088889	0.116934	-0.622713
C375	C	1.422222	0.450267	-0.289380
O376	O	0.817465	-0.163277	-0.905290
O377	O	1.150798	0.170056	-0.571956
O378	O	1.484131	0.503389	-0.238623
O379	O	0.693622	-0.269563	-0.905235
O380	O	1.026956	0.063770	-0.571902
O381	O	1.360289	0.397103	-0.238568
C382	C	0.722058	-0.245193	-0.693308
C383	C	1.055392	0.088141	-0.359975
C384	C	1.388725	0.421474	-0.026641
C385	C	0.755516	-0.216471	-0.669857
C386	C	1.088849	0.116862	-0.336523
C387	C	1.422182	0.450196	-0.003190
C388	C	0.788980	-0.187738	-0.693321
C389	C	1.122313	0.145596	-0.359988
C390	C	1.455647	0.478929	-0.026654
C391	C	0.755513	-0.216485	-0.622939
C392	C	1.088846	0.116848	-0.289605
C393	C	1.422179	0.450182	0.043728
C394	C	0.722048	-0.245218	-0.599475
C395	C	1.055382	0.088115	-0.266141
C396	C	1.388715	0.421448	0.067192
C397	C	0.688587	-0.273938	-0.622928
C398	C	1.021920	0.059396	-0.289595
C399	C	1.355254	0.392729	0.043739
C400	C	0.688594	-0.273926	-0.669844
C401	C	1.021927	0.059407	-0.336510
C402	C	1.355261	0.392740	-0.003177
C403	C	0.822441	-0.159018	-0.669867
C404	C	1.155775	0.174315	-0.336534
C405	C	1.489108	0.507649	-0.003201
C406	C	0.822432	-0.159032	-0.622952
C407	C	1.155765	0.174301	-0.289619
C408	C	1.489099	0.507634	0.043715
C409	C	0.788968	-0.187766	-0.599488
C410	C	1.122301	0.145568	-0.266154
C411	C	1.455634	0.478901	0.067179
C412	C	0.755483	-0.216502	-0.099816
C413	C	1.088816	0.116831	0.233517
C414	C	1.422149	0.450164	0.566851
C415	C	0.755576	-0.216372	-0.049882
C416	C	1.088910	0.116961	0.283451
C417	C	1.422243	0.450294	0.616785
H418	H	-0.044975	-0.268779	-0.268614
H419	H	0.288358	0.064554	0.064720
H420	H	0.621692	0.397888	0.398053
H421	H	0.694839	-0.268514	-0.960401
H422	H	1.028172	0.064819	-0.627067
H423	H	1.361506	0.398152	-0.293734
H424	H	0.054090	-0.268776	-0.268605
H425	H	0.387424	0.064557	0.064729
H426	H	0.720757	0.397890	0.398062
C427	C	0.859242	-0.127430	-0.597161
C428	C	1.192575	0.205904	-0.263828
C429	C	1.525908	0.539237	0.069506
N430	N	0.886962	-0.103624	-0.577737
N431	N	1.220295	0.229710	-0.244404
N432	N	1.553629	0.563043	0.088930
H433	H	0.457379	-0.164322	-0.164489
H434	H	0.790712	0.169011	0.168844
H435	H	1.124046	0.502345	0.502178
H436	H	0.661341	-0.688536	-0.297332
H437	H	0.994674	-0.355203	0.036001
H438	H	1.328007	-0.021869	0.369334
C439	C	0.859268	-0.127360	-0.836431
C440	C	1.192601	0.205974	-0.503098
C441	C	1.525934	0.539307	-0.169765
N442	N	0.886998	-0.103550	-0.855868
N443	N	1.220332	0.229784	-0.522535
N444	N	1.553665	0.563117	-0.189201
H445	H	0.849692	-0.744077	-0.135789
H446	H	1.183026	-0.410743	0.197545
H447	H	1.516359	-0.077410	0.530878
H448	H	-0.044958	-0.164361	-0.164546
H449	H	0.288375	0.168972	0.168788
H450	H	0.621708	0.502305	0.502121
H451	H	0.556446	-0.164321	-0.164477
H452	H	0.889780	0.169012	0.168856
H453	H	1.223113	0.502346	0.502190
C454	C	0.859285	-0.835895	-0.127602
C455	C	1.192619	-0.502562	0.205732
C456	C	1.525952	-0.169228	0.539065
N457	N	0.887014	-0.855324	-0.103828
N458	N	1.220347	-0.521990	0.229505
N459	N	1.553680	-0.188657	0.562839
C460	C	0.061892	-0.156125	-0.156340
C461	C	0.395226	0.177209	0.176993
C462	C	0.728559	0.510542	0.510326
N463	N	0.084505	-0.132278	-0.132571
N464	N	0.417838	0.201055	0.200763
N465	N	0.751172	0.534389	0.534096
H466	H	0.661368	-0.297281	-0.829680
H467	H	0.994701	0.036052	-0.496346
H468	H	1.328034	0.369386	-0.163013
C469	C	0.685300	-0.276704	-1.052211
C470	C	1.018634	0.056629	-0.718878
C471	C	1.351967	0.389962	-0.385544
N472	N	0.657573	-0.300503	-1.071637
N473	N	0.990906	0.032831	-0.738304
N474	N	1.324240	0.366164	-0.404970
C475	C	0.198428	-0.127320	-0.127662
C476	C	0.531761	0.206013	0.205671
C477	C	0.865095	0.539346	0.539005
N478	N	0.175821	-0.103466	-0.103906
N479	N	0.509154	0.229867	0.229427
N480	N	0.842487	0.563200	0.562761
H481	H	0.661348	-0.297317	-0.688933
H482	H	0.994681	0.036017	-0.355600
H483	H	1.328014	0.369350	-0.022267
C484	C	0.651754	-0.596729	-0.305529
C485	C	0.985088	-0.263396	0.027804
C486	C	1.318421	0.069937	0.361138
N487	N	0.624023	-0.577314	-0.329311
N488	N	0.957356	-0.243980	0.004023
N489	N	1.290690	0.089353	0.337356
C490	C	0.313079	-0.127319	-0.127648
C491	C	0.646412	0.206014	0.205686
C492	C	0.979746	0.539347	0.539019
N493	N	0.335695	-0.103472	-0.103881
N494	N	0.669028	0.229862	0.229452
N495	N	1.002361	0.563195	0.562786
C496	C	0.825649	-0.380818	-0.156243
C497	C	1.158982	-0.047484	0.177090
C498	C	1.492316	0.285849	0.510424
N499	N	0.853364	-0.361371	-0.132456
N500	N	1.186698	-0.028037	0.200878
N501	N	1.520031	0.305296	0.534211
H502	H	0.457387	-0.268747	-0.268560
H503	H	0.790720	0.064587	0.064774
H504	H	1.124053	0.397920	0.398107
C505	C	0.685228	-0.276861	-0.479815
C506	C	1.018561	0.056472	-0.146482
C507	C	1.351894	0.389806	0.186851
N508	N	0.657498	-0.300659	-0.499240
N509	N	0.990831	0.032674	-0.165906
N510	N	1.324165	0.366007	0.167427
H511	H	0.816134	-0.472635	-0.164460
H512	H	1.149468	-0.139302	0.168873
H513	H	1.482801	0.194031	0.502207
C514	C	0.859193	-0.596623	-0.127564
C515	C	1.192526	-0.263290	0.205770
C516	C	1.525860	0.070043	0.539103
N517	N	0.886908	-0.577180	-0.103773
N518	N	1.220241	-0.243847	0.229560
N519	N	1.553574	0.089486	0.562894
C520	C	0.313058	-0.305758	-0.305449
C521	C	0.646392	0.027575	0.027884
C522	C	0.979725	0.360908	0.361217
N523	N	0.335667	-0.329603	-0.329213
N524	N	0.669001	0.003730	0.004120
N525	N	1.002334	0.337063	0.337453
H526	H	0.849672	-0.688436	-0.135783
H527	H	1.183006	-0.355102	0.197550
H528	H	1.516339	-0.021769	0.530884
C529	C	0.825841	-0.156039	-1.052244
C530	C	1.159175	0.177295	-0.718911
C531	C	1.492508	0.510628	-0.385577
N532	N	0.853558	-0.132226	-1.071693
N533	N	1.186891	0.201107	-0.738360
N534	N	1.520224	0.534440	-0.405026
H535	H	0.206213	-0.297538	-0.297268
H536	H	0.539546	0.035795	0.036066
H537	H	0.872880	0.369128	0.369399
C538	C	0.825864	-0.953213	-0.156299
C539	C	1.159197	-0.619880	0.177034
C540	C	1.492530	-0.286546	0.510367
N541	N	0.853584	-0.933768	-0.132515
N542	N	1.186917	-0.600435	0.200818
N543	N	1.520251	-0.267101	0.534152
H544	H	0.661364	-0.744185	-0.297330
H545	H	0.994697	-0.410851	0.036003
H546	H	1.328031	-0.077518	0.369337
H547	H	0.816332	-1.045043	-0.164515
H548	H	1.149665	-0.711710	0.168818
H549	H	1.482998	-0.378377	0.502151
H550	H	0.849692	-0.135619	-0.688967
H551	H	1.183026	0.197714	-0.355634
H552	H	1.516359	0.531047	-0.022301
C553	C	0.685355	-1.051810	-0.276856
C554	C	1.018688	-0.718477	0.056478
C555	C	1.352021	-0.385144	0.389811
N556	N	0.657635	-1.071255	-0.300640
N557	N	0.990968	-0.737922	0.032693
N558	N	1.324301	-0.404589	0.366026
C559	C	0.825782	-0.156195	-0.479838
C560	C	1.159115	0.177139	-0.146504
C561	C	1.492449	0.510472	0.186829
N562	N	0.853516	-0.132385	-0.499271
N563	N	1.186850	0.200949	-0.165938
N564	N	1.520183	0.534282	0.167396
H565	H	0.661354	-0.297301	-0.744575
H566	H	0.994688	0.036032	-0.411241
H567	H	1.328021	0.369366	-0.077908
C568	C	0.859256	-0.127380	-0.737917
C569	C	1.192589	0.205953	-0.404584
C570	C	1.525922	0.539286	-0.071251
N571	N	0.886976	-0.103571	-0.718496
N572	N	1.220309	0.229762	-0.385163
N573	N	1.553642	0.563095	-0.051830
C574	C	0.564238	-0.276968	-0.276733
C575	C	0.897571	0.056366	0.056601
C576	C	1.230904	0.389699	0.389934
N577	N	0.586851	-0.300813	-0.300494
N578	N	0.920184	0.032521	0.032840
N579	N	1.253518	0.365854	0.366173
C580	C	0.651835	-0.835999	-0.305544
C581	C	0.985168	-0.502666	0.027789
C582	C	1.318501	-0.169333	0.361123
N583	N	0.624119	-0.855445	-0.329332
N584	N	0.957452	-0.522111	0.004001
N585	N	1.290786	-0.188778	0.337335
C586	C	0.825839	-0.156068	-0.953712
C587	C	1.159172	0.177265	-0.620379
C588	C	1.492506	0.510599	-0.287045
N589	N	0.853563	-0.132267	-0.934285
N590	N	1.186896	0.201066	-0.600951
N591	N	1.520229	0.534400	-0.267618
H592	H	0.694890	-0.959993	-0.268651
H593	H	1.028223	-0.626660	0.064682
H594	H	1.361557	-0.293327	0.398015
H595	H	0.694785	-0.268674	-0.387992
H596	H	1.028119	0.064660	-0.054659
H597	H	1.361452	0.397993	0.278674
H598	H	0.661341	-0.297335	-0.603815
H599	H	0.994674	0.035998	-0.270482
H600	H	1.328008	0.369332	0.062851
C601	C	0.685152	-0.479423	-0.276805
C602	C	1.018485	-0.146090	0.056528
C603	C	1.351818	0.187243	0.389861
N604	N	0.657438	-0.498872	-0.300592
N605	N	0.990771	-0.165538	0.032741
N606	N	1.324104	0.167795	0.366074
H607	H	0.694680	-0.387592	-0.268590
H608	H	1.028014	-0.054258	0.064743
H609	H	1.361347	0.279075	0.398077
H610	H	0.816212	-0.164436	-0.388026
H611	H	1.149546	0.168897	-0.054692
H612	H	1.482879	0.502230	0.278641
