data_functionalizedCrystal
_audit_creation_method	'MofGen! by Chris Wilmer'
_symmetry_space_group_name_H-M	'P1'
_symmetry_Int_Tables_number	1
_symmetry_cell_setting	triclinic
loop_
_symmetry_equiv_pos_as_xyz
  x,y,z
_cell_length_a	14.044220
_cell_length_b	9.798715
_cell_length_c	10.723024
_cell_angle_alpha	90.004017
_cell_angle_beta	91.171627
_cell_angle_gamma	89.995876
loop_
_atom_site_label
_atom_site_type_symbol
_atom_site_fract_x
_atom_site_fract_y
_atom_site_fract_z
O1	O	0.133040	-0.113506	-1.670498
O2	O	0.145774	-0.113507	-1.308619
O3	O	0.001387	-0.113493	-1.484127
O4	O	0.277427	-0.113520	-1.494990
O5	O	0.001387	0.113489	-1.484112
O6	O	0.145774	0.113475	-1.308605
O7	O	0.133039	0.113476	-1.670483
Zn8	Zn	0.139407	0.149514	-1.489542
Zn9	Zn	0.139407	-0.149545	-1.489561
O10	O	0.277427	0.113462	-1.494976
C11	C	-0.033958	-0.000002	-1.479364
C12	C	-0.139276	0.000000	-1.465180
C13	C	0.144847	-0.000016	-1.262020
C14	C	0.142075	-0.000016	-1.123188
N15	N	0.139406	0.353613	-1.489538
C16	C	-0.332106	-0.000020	-1.439248
C17	C	-0.389085	-0.000024	-1.539849
C18	C	-0.496383	-0.000035	-1.525420
C19	C	-0.224799	-0.000009	-1.453675
C20	C	0.312772	-0.000033	-1.499738
C21	C	0.418090	-0.000043	-1.513923
N22	N	0.139401	-0.353645	-1.489573
C23	C	0.078514	0.421396	-1.563202
C24	C	0.078511	0.578559	-1.563222
C25	C	0.222866	-0.000024	-1.056288
C26	C	0.220002	-0.000024	-0.912798
C27	C	0.133966	-0.000015	-0.717083
C28	C	0.136739	-0.000016	-0.855914
H29	H	-0.357284	-0.000115	-1.636814
O30	O	0.047636	0.000003	-1.058363
H31	H	0.042371	-0.092514	-0.999184
H32	H	-0.363906	-0.000023	-1.342291
O33	O	0.208475	0.430837	-1.406022
H34	H	0.168233	0.495968	-1.340795
O35	O	0.009430	0.344164	-1.646690
H36	H	0.020264	0.232842	-1.633559
H37	H	0.294155	-0.000023	-1.105243
O38	O	0.009449	0.655754	-1.646766
H39	H	0.020279	0.767081	-1.633665
H40	H	0.191538	0.588074	-1.426508
H41	H	0.289166	-0.000036	-0.855286
H42	H	0.067571	-0.000017	-0.913420
