data_functionalizedCrystal
_audit_creation_method	'MofGen! by Chris Wilmer'
_symmetry_space_group_name_H-M	'P1'
_symmetry_Int_Tables_number	1
_symmetry_cell_setting	triclinic
loop_
_symmetry_equiv_pos_as_xyz
  x,y,z
_cell_length_a	8.597366
_cell_length_b	8.597304
_cell_length_c	14.048226
_cell_angle_alpha	82.293729
_cell_angle_beta	97.695537
_cell_angle_gamma	86.359176
loop_
_atom_site_label
_atom_site_type_symbol
_atom_site_fract_x
_atom_site_fract_y
_atom_site_fract_z
O1	O	2.085987	0.234282	0.072718
O2	O	1.629340	0.252263	0.033789
O3	O	1.866648	0.014942	0.072719
O4	O	1.848679	0.471603	0.033788
O5	O	1.866619	0.014928	0.231039
O6	O	1.629311	0.252248	0.192109
O7	O	2.085958	0.234268	0.231038
Zn8	Zn	1.857630	0.243256	0.236710
Zn9	Zn	1.857668	0.243275	0.028117
O10	O	1.848650	0.471588	0.192108
C11	C	1.570826	0.250326	0.108309
C12	C	1.396515	0.244558	0.094484
C13	C	1.864703	-0.043566	0.156517
C14	C	1.858931	-0.217883	0.170336
C15	C	2.144472	0.236205	0.156516
C16	C	2.318783	0.241973	0.170334
C17	C	1.850595	0.530097	0.108308
C18	C	1.856368	0.704413	0.094483
N19	N	1.857615	0.243242	0.379071
N20	N	1.857695	0.243277	-0.114242
C21	C	1.962729	0.138201	0.446127
C22	C	1.962740	0.138200	0.545785
C23	C	1.857643	0.243249	0.578386
C24	C	1.752517	0.348295	0.511322
C25	C	1.752500	0.348287	0.411666
C26	C	1.752563	0.348307	0.719039
C27	C	1.752581	0.348318	0.818703
C28	C	1.962802	0.138220	0.853159
C29	C	1.962785	0.138212	0.753502
C30	C	1.857661	0.243260	0.686445
H31	H	1.329713	0.242345	0.018965
H32	H	1.385594	0.244175	0.245860
Cl33	Cl	1.855475	-0.321064	0.286938
H34	H	1.858585	-0.228755	0.018964
H35	H	2.048318	0.052664	0.419591
Cl36	Cl	2.094884	0.006145	0.630086
Cl37	Cl	1.620385	0.480352	0.552304
Cl38	Cl	1.620399	0.480368	0.634742
Cl39	Cl	2.094917	0.006160	0.712516
H40	H	2.048397	0.052686	0.907763
Cl41	Cl	1.620449	0.480382	0.859678
H42	H	1.666904	0.433820	0.357068
