data_functionalizedCrystal
_audit_creation_method	'MofGen! by Chris Wilmer'
_symmetry_space_group_name_H-M	'P1'
_symmetry_Int_Tables_number	1
_symmetry_cell_setting	triclinic
loop_
_symmetry_equiv_pos_as_xyz
  x,y,z
_cell_length_a	14.560438
_cell_length_b	21.606444
_cell_length_c	14.560438
_cell_angle_alpha	90.000130
_cell_angle_beta	60.000905
_cell_angle_gamma	60.000721
loop_
_atom_site_label
_atom_site_type_symbol
_atom_site_fract_x
_atom_site_fract_y
_atom_site_fract_z
Zr1	Zr	1.005315	0.596220	-0.120539
O2	O	1.196912	0.497396	-0.267179
O3	O	0.813715	0.626515	-0.075589
O4	O	1.005319	0.626512	-0.267189
O5	O	1.005305	0.497401	0.075563
O6	O	1.005326	0.728362	-0.267195
O7	O	1.005308	0.497399	-0.075578
O8	O	0.662581	0.728367	0.075544
O9	O	1.348050	0.497396	-0.267176
O10	O	0.892529	0.715445	-0.056419
O11	O	0.892522	0.639438	0.056380
O12	O	1.118111	0.639434	-0.169205
O13	O	1.118104	0.563427	-0.056407
Zr14	Zr	1.005321	0.758663	0.120504
Zr15	Zr	1.005325	0.758659	-0.120548
Zr16	Zr	1.005311	0.596225	0.120513
Zr17	Zr	1.246362	0.596221	-0.120535
Zr18	Zr	0.764274	0.758663	0.120500
O19	O	1.196921	0.728368	0.075554
O20	O	1.196926	0.728362	-0.267191
O21	O	1.196906	0.497401	0.075566
O22	O	0.813724	0.857488	0.267144
O23	O	0.813730	0.857482	-0.075601
O24	O	0.813710	0.626521	0.267156
O25	O	1.005331	0.857482	-0.075598
O26	O	1.005317	0.728371	0.267154
O27	O	1.005310	0.626521	0.267160
O28	O	1.005328	0.857485	0.075543
O29	O	1.348058	0.626513	-0.267183
O30	O	0.662578	0.728371	0.267148
O31	O	0.662586	0.857488	0.267141
O32	O	0.662590	0.857484	0.075537
O33	O	1.348046	0.497399	-0.075572
O34	O	1.348055	0.626516	-0.075579
O35	O	0.892525	0.715449	0.169170
O36	O	0.892532	0.791457	0.056372
O37	O	1.118114	0.715446	-0.056415
O38	O	1.118107	0.639438	0.056384
C39	C	0.703804	0.677441	-0.000023
C40	C	0.601473	0.677441	-0.000025
C41	C	1.005305	0.474256	-0.000007
C42	C	1.005301	0.405296	-0.000003
C43	C	0.553401	0.717115	-0.058905
C44	C	0.457241	0.717118	-0.058895
C45	C	0.457239	0.637768	0.058877
C46	C	0.553390	0.637769	0.058873
C47	C	0.887550	0.412574	0.058866
C48	C	0.887554	0.347777	0.058867
C49	C	1.005309	0.275703	-0.000008
C50	C	1.123069	0.268426	-0.058879
C51	C	1.123064	0.333223	-0.058873
C52	C	1.123092	0.007108	-0.058904
C53	C	1.123087	-0.057690	-0.058909
C54	C	0.887581	0.021662	0.058836
C55	C	0.887576	0.086459	0.058842
C56	C	1.005335	0.079177	-0.000023
C57	C	1.005330	0.149438	-0.000022
C58	C	1.005316	0.205442	-0.000017
C59	C	1.306832	0.677442	-0.000012
C60	C	1.409163	0.677442	-0.000010
C61	C	1.005323	0.677437	-0.301537
C62	C	1.005325	0.677435	-0.403870
C63	C	1.005331	0.880628	-0.000028
C64	C	1.005335	0.949587	-0.000032
C65	C	1.123074	0.637759	-0.510819
C66	C	1.123068	0.637768	-0.606968
C67	C	0.887553	0.717130	-0.489204
C68	C	0.887560	0.717125	-0.393058
C69	C	1.005313	0.677447	0.301502
C70	C	1.005311	0.677449	0.403835
C71	C	0.703817	0.880627	-0.000034
C72	C	0.601491	0.949587	-0.000040
C73	C	0.703799	0.677447	0.301496
C74	C	0.601466	0.677448	0.403827
C75	C	0.703812	0.880632	0.301485
C76	C	0.601484	0.949593	0.403813
C77	C	1.306824	0.474251	-0.301520
C78	C	1.409152	0.405290	-0.403848
C79	C	1.306819	0.474256	-0.000001
C80	C	1.409145	0.405297	0.000005
C81	C	1.306837	0.677437	-0.301531
C82	C	1.409170	0.677435	-0.403862
C83	C	0.553435	0.942293	-0.058928
C84	C	0.457302	1.007082	-0.058956
C85	C	0.409219	1.079163	-0.000088
C86	C	0.457284	1.086454	0.058802
C87	C	0.553422	1.021666	0.058822
C88	C	0.553433	1.021660	0.392987
C89	C	0.457298	1.086463	0.489125
C90	C	0.409209	1.079197	0.596088
C91	C	0.457269	1.007122	0.606912
C92	C	0.553409	0.942322	0.510774
C93	C	1.457215	0.333223	-0.393022
C94	C	1.553380	0.268421	-0.489160
C95	C	1.601474	0.275687	-0.596123
C96	C	1.553407	0.347761	-0.606947
C97	C	1.457250	0.412562	-0.510810
C98	C	1.457211	0.412590	0.058883
C99	C	1.553371	0.347802	0.058884
C100	C	1.601457	0.275721	0.000013
C101	C	1.553388	0.268429	-0.058872
C102	C	1.457236	0.333217	-0.058880
C103	C	0.553390	0.717125	0.510778
C104	C	0.457246	0.717118	0.606925
C105	C	0.457261	0.637756	0.489157
C106	C	0.553409	0.637759	0.393012
H107	H	0.592545	0.749419	-0.106861
H108	H	1.218966	0.605441	-0.519629
C109	C	1.404374	0.491835	-0.522729
C110	C	1.298600	0.563123	-0.416997
C111	C	1.245729	0.642395	-0.428927
C112	C	1.298632	0.650377	-0.546588
C113	C	1.404412	0.579087	-0.652328
C114	C	1.457283	0.499815	-0.640399
H115	H	1.259433	0.557216	-0.329890
H116	H	1.167423	0.695169	-0.350650
H117	H	1.259494	0.709059	-0.555419
H118	H	1.443580	0.584994	-0.739436
H119	H	1.535589	0.447041	-0.718675
C120	C	0.404368	1.165747	0.123569
C121	C	0.298604	1.237004	0.123553
C122	C	0.245675	1.316298	0.188330
C123	C	0.298510	1.324335	0.253124
C124	C	0.404280	1.253075	0.253143
C125	C	0.457210	1.173781	0.188365
H126	H	0.259487	1.231056	0.075586
H127	H	0.167376	1.369049	0.188316
H128	H	0.259329	1.383033	0.301076
H129	H	0.443398	1.259022	0.301109
H130	H	0.535508	1.121030	0.188380
C131	C	0.606247	0.863049	0.522694
C132	C	0.711992	0.791760	0.416962
C133	C	0.764824	0.712489	0.428892
C134	C	0.711911	0.704506	0.546553
C135	C	0.606159	0.775797	0.652293
C136	C	0.553327	0.855068	0.640364
H137	H	0.751167	0.797668	0.329855
H138	H	0.843108	0.659715	0.350615
H139	H	0.751020	0.645825	0.555384
H140	H	0.566984	0.769890	0.739401
H141	H	0.475043	0.907842	0.718640
C142	C	1.606276	0.189137	-0.123612
C143	C	1.712022	0.117880	-0.123578
C144	C	1.764902	0.038586	-0.188306
C145	C	1.712035	0.030549	-0.253068
C146	C	1.606282	0.101808	-0.253105
C147	C	1.553402	0.181102	-0.188377
H148	H	1.751163	0.123827	-0.075635
H149	H	1.843188	-0.014165	-0.188279
H150	H	1.751180	-0.028149	-0.300984
H151	H	1.567142	0.095861	-0.301048
H152	H	1.475117	0.233853	-0.188404
H153	H	0.592584	0.883608	-0.106879
C154	C	1.606227	0.189146	-0.477236
C155	C	1.672281	0.165337	-0.415402
C156	C	1.725123	0.086065	-0.403474
C157	C	1.711911	0.030602	-0.453380
C158	C	1.645854	0.054411	-0.515219
C159	C	1.593012	0.133683	-0.527146
H160	H	1.682065	0.206394	-0.378454
H161	H	1.774023	0.068441	-0.357697
H162	H	1.751027	-0.028079	-0.444551
H163	H	1.636071	0.013353	-0.552166
H164	H	1.544112	0.151307	-0.572923
C165	C	0.404439	1.165737	0.477200
C166	C	0.338340	1.189548	0.415403
C167	C	0.285485	1.268819	0.403473
C168	C	0.298728	1.324280	0.453341
C169	C	0.364829	1.300470	0.515142
C170	C	0.417684	1.221199	0.527072
H171	H	0.328535	1.148492	0.378484
H172	H	0.236552	1.286444	0.357724
H173	H	0.259601	1.382961	0.444510
H174	H	0.374635	1.341527	0.552061
H175	H	0.466617	1.203574	0.572821
H176	H	0.418102	0.749425	-0.106838
H177	H	1.679750	0.222973	0.000028
H178	H	0.418080	0.605467	0.106828
H179	H	0.592536	1.027615	0.106783
H180	H	1.218978	0.001169	-0.106857
H181	H	0.592530	0.605462	0.106825
H182	H	0.791659	0.471257	0.106815
H183	H	0.791669	0.353709	0.106807
H184	H	0.791673	0.749443	-0.480415
H185	H	1.418104	0.327268	-0.106822
H186	H	0.418101	1.001218	0.694014
H187	H	0.418108	0.749426	0.694006
H188	H	1.592578	0.353668	-0.694047
H189	H	0.791687	0.145142	0.106781
H190	H	0.791696	0.027585	0.106770
H191	H	1.418066	0.471276	0.106830
H192	H	0.330926	1.131968	0.674360
H193	H	0.592573	1.027591	0.305901
H194	H	1.218984	-0.116378	-0.106854
H195	H	0.791669	0.749438	-0.305969
H196	H	1.218948	0.209738	-0.106810
H197	H	0.418179	1.001130	-0.106911
H198	H	1.418062	0.327293	-0.305936
H199	H	1.218949	0.327293	-0.106796
H200	H	1.218952	0.605460	-0.694048
H201	H	0.592520	0.749440	0.519590
H202	H	0.330936	1.131911	-0.000113
H203	H	1.679770	0.222916	-0.674395
H204	H	1.592492	0.353753	0.106840
H205	H	0.418119	0.605443	0.480365
H206	H	0.592557	0.605445	0.305922
