data_functionalizedCrystal
_audit_creation_method	'MofGen! by Chris Wilmer'
_symmetry_space_group_name_H-M	'P1'
_symmetry_Int_Tables_number	1
_symmetry_cell_setting	triclinic
loop_
_symmetry_equiv_pos_as_xyz
  x,y,z
_cell_length_a	16.120530
_cell_length_b	12.645330
_cell_length_c	12.645323
_cell_angle_alpha	89.975130
_cell_angle_beta	87.080466
_cell_angle_gamma	87.113442
loop_
_atom_site_label
_atom_site_type_symbol
_atom_site_fract_x
_atom_site_fract_y
_atom_site_fract_z
Zn1	Zn	1.274613	-0.504324	-0.681531
Zn2	Zn	1.274520	-0.681606	-0.504265
Zn3	Zn	1.135188	-0.495361	-0.495296
Zn4	Zn	1.135173	-0.672543	-0.672507
O5	O	1.204873	-0.588458	-0.588400
O6	O	1.391267	-0.535384	-0.665546
O7	O	1.256004	-0.656942	-0.354726
O8	O	1.153728	-0.348206	-0.520024
O9	O	1.391199	-0.665632	-0.535310
O10	O	1.256163	-0.354790	-0.656850
O11	O	1.153638	-0.520109	-0.348137
O12	O	1.018519	-0.511321	-0.511274
O13	O	1.153703	-0.650186	-0.822053
O14	O	1.018509	-0.641496	-0.641469
O15	O	1.256149	-0.526596	-0.828683
O16	O	1.255990	-0.828748	-0.526559
O17	O	1.153613	-0.822089	-0.650166
C18	C	0.988264	-0.574453	-0.574420
C19	C	0.895597	-0.568487	-0.568464
C20	C	0.725934	-0.557570	-0.557600
C21	C	0.684653	-0.619425	-0.619278
C22	C	0.590247	-0.613350	-0.613233
C23	C	0.820349	-0.563643	-0.563643
C24	C	1.204813	-0.863884	-0.588381
C25	C	1.204863	-0.981717	-0.588413
C26	C	1.140723	-1.145154	-0.666444
C27	C	1.140395	-1.022573	-0.666159
C28	C	1.181077	-1.024776	-0.475160
C29	C	1.180685	-1.147349	-0.475633
C30	C	1.293181	-1.154509	-0.622756
C31	C	1.292640	-1.031867	-0.625164
C32	C	1.422329	-0.602519	-0.602435
C33	C	1.514996	-0.608511	-0.608416
C34	C	1.204935	-0.588380	-0.864909
C35	C	1.204961	-0.588347	-0.982741
C36	C	1.204957	-0.311958	-0.588443
C37	C	1.204993	-0.194131	-0.588462
C38	C	1.140314	-0.665699	-1.146121
C39	C	1.140483	-0.666113	-1.023572
C40	C	1.292806	-0.624337	-1.032918
C41	C	1.292452	-0.624825	-1.155494
C42	C	1.182593	-0.474603	-1.148498
C43	C	1.180634	-0.475149	-1.025766
C44	C	1.204860	-0.588463	-0.312969
C45	C	1.204996	-0.588208	-0.195148
H46	H	0.720213	-0.676941	-0.676623
H47	H	1.343046	-1.004471	-0.572953
C48	C	1.160085	-0.778597	-1.189036
H49	H	1.207590	-0.778714	-1.236697
H50	H	1.113923	-0.801600	-1.225064
H51	H	1.170954	-0.825126	-1.131820
C52	C	0.677906	-0.479878	-0.480131
H53	H	0.716219	-0.441861	-0.442227
H54	H	0.643907	-0.518234	-0.431745
H55	H	0.643963	-0.431593	-0.518635
C56	C	1.160470	-0.983128	-0.779368
H57	H	1.168898	-1.042048	-0.825948
H58	H	1.209459	-0.944343	-0.780364
H59	H	1.115414	-0.938672	-0.801646
C60	C	1.318898	-0.735625	-0.993155
H61	H	1.276382	-0.760309	-0.945996
H62	H	1.369065	-0.732570	-0.957238
H63	H	1.327327	-0.782662	-1.051710
H64	H	1.311440	-0.708041	-1.185327
H65	H	1.115987	-0.448111	-0.992503
C66	C	1.160561	-1.186296	-0.779977
H67	H	1.208222	-1.233703	-0.780844
H68	H	1.171167	-1.128359	-0.825693
H69	H	1.114511	-1.222272	-0.803423
C70	C	1.052952	-1.181217	-0.635508
H71	H	1.055304	-1.225988	-0.575272
H72	H	1.032479	-1.218893	-0.692859
H73	H	1.016924	-1.121009	-0.619283
H74	H	1.075016	-0.989117	-0.642991
C75	C	1.093597	-1.180492	-0.437289
H76	H	1.058789	-1.119066	-0.421575
H77	H	1.097868	-1.222643	-0.375419
H78	H	1.070398	-1.220197	-0.491235
H79	H	1.225465	-1.179897	-0.415244
C80	C	1.097568	-0.431775	-1.184770
H81	H	1.074933	-0.482786	-1.228706
H82	H	1.104402	-0.368084	-1.223388
H83	H	1.060905	-0.418057	-1.124589
C84	C	1.242301	-0.989335	-0.394180
H85	H	1.283007	-0.947860	-0.428803
H86	H	1.268815	-1.049896	-0.363594
H87	H	1.212847	-0.948362	-0.340190
H88	H	1.117282	-0.990046	-0.446373
C89	C	1.359773	-0.552327	-1.199928
H90	H	1.387222	-0.522714	-1.143056
H91	H	1.334599	-0.497064	-1.240037
H92	H	1.399046	-0.592494	-1.244091
H93	H	1.314879	-1.186754	-0.704236
H94	H	1.310578	-1.003875	-0.708541
C95	C	1.357850	-1.197738	-0.546051
H96	H	1.331282	-1.239745	-0.493392
H97	H	1.382412	-1.140302	-0.513242
H98	H	1.399736	-1.239828	-0.584177
H99	H	1.342291	-0.569931	-1.006970
H100	H	1.075343	-0.642935	-0.989275
H101	H	1.224303	-0.413905	-0.997957
C102	C	1.052050	-0.634616	-1.180241
H103	H	1.053853	-0.574107	-1.224698
H104	H	1.016712	-0.618810	-1.119295
H105	H	1.031138	-0.691756	-1.217805
H106	H	1.155272	-0.750216	-0.995211
H107	H	1.229704	-0.416800	-1.180546
