data_functionalizedCrystal
_audit_creation_method	'MofGen! by Chris Wilmer'
_symmetry_space_group_name_H-M	'P1'
_symmetry_Int_Tables_number	1
_symmetry_cell_setting	triclinic
loop_
_symmetry_equiv_pos_as_xyz
  x,y,z
_cell_length_a	10.654541
_cell_length_b	18.366186
_cell_length_c	19.288865
_cell_angle_alpha	90.011479
_cell_angle_beta	96.189912
_cell_angle_gamma	89.992314
loop_
_atom_site_label
_atom_site_type_symbol
_atom_site_fract_x
_atom_site_fract_y
_atom_site_fract_z
O1	O	1.665764	-0.060537	-0.097548
O2	O	1.300086	-0.060544	-0.106844
O3	O	1.493491	-0.060526	-0.001135
O4	O	1.472359	-0.060555	-0.203257
O5	O	1.493458	0.060574	-0.001129
O6	O	1.300053	0.060555	-0.106838
O7	O	1.665731	0.060563	-0.097542
Zn8	Zn	1.482887	0.079786	-0.102189
Zn9	Zn	1.482930	-0.079767	-0.102197
O10	O	1.472326	0.060544	-0.203252
C11	C	1.253286	0.000005	-0.106159
C12	C	1.113886	0.000003	-0.104118
N13	N	1.482867	0.188677	-0.102184
N14	N	1.482960	-0.188659	-0.102196
C15	C	1.083210	-0.000024	-0.230522
C16	C	1.002383	-0.000041	-0.292762
C17	C	0.871406	-0.000041	-0.290840
C18	C	0.821254	-0.000023	-0.226671
C19	C	0.902081	-0.000007	-0.164431
C20	C	1.033059	-0.000008	-0.166360
C21	C	0.932757	0.000026	-0.038028
C22	C	1.063735	0.000021	-0.039949
C23	C	0.882606	0.000044	0.026141
C24	C	0.963433	0.000056	0.088383
C25	C	1.094417	0.000055	0.086458
C26	C	1.144561	0.000038	0.022292
C27	C	1.712531	0.000012	-0.098227
C28	C	1.851931	0.000009	-0.100268
C29	C	1.492795	0.000026	0.024749
C30	C	1.490754	0.000033	0.101866
C31	C	1.568534	0.226786	-0.055400
C32	C	1.568542	0.303014	-0.055396
C33	C	1.482894	0.341130	-0.102190
C34	C	1.397211	0.303012	-0.148978
C35	C	1.397197	0.226786	-0.148975
C36	C	1.466084	0.461881	-0.165368
C37	C	1.466106	0.538106	-0.165372
C38	C	1.482930	0.576238	-0.102199
C39	C	1.499758	0.538135	-0.039020
C40	C	1.499744	0.461908	-0.039017
C41	C	1.482900	0.423785	-0.102198
C42	C	1.568611	0.697001	-0.055407
C43	C	1.568611	0.773230	-0.055403
C44	C	1.397285	0.773228	-0.148991
C45	C	1.397280	0.697000	-0.148989
C46	C	1.482949	0.658891	-0.102198
C47	C	1.473022	-0.000009	-0.229135
C48	C	1.475063	-0.000020	-0.306252
C49	C	1.604235	0.000038	0.145820
C50	C	1.602318	0.000027	0.218279
C51	C	1.486912	0.000024	0.246782
C52	C	1.373415	0.000014	0.202818
C53	C	1.375336	0.000018	0.130360
C54	C	1.396178	0.042441	0.355665
C55	C	1.394262	0.042441	0.428122
C56	C	1.480982	0.000008	0.470266
C57	C	1.569640	-0.042417	0.439946
C58	C	1.571561	-0.042412	0.367488
C59	C	1.484816	0.000019	0.325350
C60	C	1.592392	-0.000000	0.592790
C61	C	1.590470	-0.000016	0.665250
C62	C	1.361565	-0.000022	0.649788
C63	C	1.363490	-0.000013	0.577329
C64	C	1.478908	0.000001	0.548834
H65	H	1.189856	-0.000040	-0.232093
C66	C	1.727161	0.000038	0.266637
N67	N	1.821193	0.000048	0.303059
C68	C	1.288637	0.000039	0.020168
N69	N	1.397156	0.000044	0.018566
H70	H	0.805596	-0.000050	-0.341522
H71	H	0.775956	0.000048	0.027702
C72	C	1.731198	0.000048	0.114480
N73	N	1.826828	0.000053	0.090874
H74	H	1.638306	0.334047	-0.017297
H75	H	1.322066	0.076981	0.452802
H76	H	1.160220	0.000071	0.137142
H77	H	1.327473	0.334051	-0.187077
C78	C	0.908256	0.000077	0.158961
N79	N	0.866692	0.000092	0.212122
C80	C	1.662762	0.184871	-0.003921
N81	N	1.733731	0.153299	0.034855
C82	C	1.234616	-0.000027	0.681136
N83	N	1.138996	-0.000033	0.704751
C84	C	1.518237	0.419998	0.030479
N85	N	1.532159	0.388432	0.082825
C86	C	1.238650	-0.000015	0.528977
N87	N	1.144614	-0.000020	0.492559
C88	C	1.662837	0.655079	-0.003930
N89	N	1.733807	0.623505	0.034844
H90	H	1.325557	0.076999	0.321356
H91	H	1.327526	0.665970	-0.187088
C92	C	1.246469	0.000016	0.234173
N93	N	1.150849	0.000018	0.257789
C94	C	1.057560	-0.000060	-0.363345
N95	N	1.099116	-0.000074	-0.416508
H96	H	1.640256	-0.076970	0.474259
H97	H	1.513457	0.569180	0.012422
H98	H	1.638368	0.804259	-0.017302
H99	H	1.643747	-0.076957	0.342805
H100	H	1.282923	0.000014	0.094573
C101	C	1.303071	0.815151	-0.200465
N102	N	1.232107	0.846732	-0.239237
H103	H	0.714605	-0.000015	-0.225111
H104	H	1.452412	0.569123	-0.216816
H105	H	1.452362	0.430841	-0.216814
H106	H	1.682884	-0.000016	0.701037
C107	C	1.303006	0.184865	-0.200475
N108	N	1.232080	0.153290	-0.239277
H109	H	1.686372	0.000008	0.569588
