data_functionalizedCrystal
_audit_creation_method	'MofGen! by Chris Wilmer'
_symmetry_space_group_name_H-M	'P1'
_symmetry_Int_Tables_number	1
_symmetry_cell_setting	triclinic
loop_
_symmetry_equiv_pos_as_xyz
  x,y,z
_cell_length_a	17.640112
_cell_length_b	19.121063
_cell_length_c	17.639306
_cell_angle_alpha	104.052388
_cell_angle_beta	87.804122
_cell_angle_gamma	103.148881
loop_
_atom_site_label
_atom_site_type_symbol
_atom_site_fract_x
_atom_site_fract_y
_atom_site_fract_z
Zn1	Zn	1.244351	-0.091800	-0.200150
Zn2	Zn	1.744351	0.408200	0.299850
Zn3	Zn	1.214879	-0.192751	-0.078766
Zn4	Zn	1.714879	0.307249	0.421234
Zn5	Zn	1.091355	-0.101224	-0.099325
Zn6	Zn	1.591355	0.398776	0.400675
Zn7	Zn	1.111880	-0.239101	-0.233905
Zn8	Zn	1.611880	0.260899	0.266095
O9	O	1.165616	-0.156219	-0.153036
O10	O	1.665616	0.343781	0.346964
O11	O	1.347577	-0.081849	-0.161318
O12	O	1.847577	0.418151	0.338682
O13	O	1.177570	-0.165156	0.025629
O14	O	1.677570	0.334844	0.525629
O15	O	1.115395	-0.000024	-0.107177
O16	O	1.615395	0.499976	0.392823
O17	O	1.325924	-0.156017	-0.072138
O18	O	1.825924	0.343983	0.427862
O19	O	1.227801	0.006900	-0.181253
O20	O	1.727801	0.506900	0.318747
O21	O	1.086817	-0.097912	0.010524
O22	O	1.586817	0.402088	0.510524
O23	O	0.986943	-0.142856	-0.139907
O24	O	1.486943	0.357144	0.360093
O25	O	1.150376	-0.235014	-0.336549
O26	O	1.650376	0.264986	0.163451
O27	O	1.002022	-0.244153	-0.238783
O28	O	1.502022	0.255847	0.261217
O29	O	1.247703	-0.126793	-0.311750
O30	O	1.747703	0.373207	0.188250
O31	O	1.197471	-0.298849	-0.104868
O32	O	1.697471	0.201151	0.395132
O33	O	1.121798	-0.332902	-0.218847
O34	O	1.621798	0.167098	0.281153
C35	C	0.966703	-0.199557	-0.195239
C36	C	1.466703	0.300443	0.304761
C37	C	0.881610	-0.218117	-0.213313
C38	C	1.381610	0.281883	0.286687
C39	C	0.562475	-0.015208	-0.015739
C40	C	1.062475	0.484792	0.484261
C41	C	0.482518	-0.032664	-0.032733
C42	C	0.982518	0.467336	0.467267
C43	C	0.498237	-0.138246	-0.135530
C44	C	0.998237	0.361754	0.364470
C45	C	0.578197	-0.120797	-0.118547
C46	C	1.078197	0.379203	0.381453
C47	C	0.610309	-0.059277	-0.058650
C48	C	1.110309	0.440723	0.441350
C49	C	0.626031	-0.164866	-0.161458
C50	C	1.126031	0.335134	0.338542
C51	C	0.705984	-0.147420	-0.144474
C52	C	1.205984	0.352580	0.355526
C53	C	0.738101	-0.085905	-0.084578
C54	C	1.238101	0.414095	0.415422
C55	C	0.690261	-0.041831	-0.041666
C56	C	1.190261	0.458169	0.458334
C57	C	0.593917	-0.226388	-0.221351
C58	C	1.093917	0.273612	0.278649
C59	C	0.641751	-0.270458	-0.264262
C60	C	1.141751	0.229542	0.235738
C61	C	0.721706	-0.253009	-0.247282
C62	C	1.221706	0.246991	0.252718
C63	C	0.753824	-0.191494	-0.187386
C64	C	1.253824	0.308506	0.312614
C65	C	0.769546	-0.297082	-0.290194
C66	C	1.269546	0.202918	0.209806
C67	C	0.849498	-0.279637	-0.273210
C68	C	1.349498	0.220363	0.226790
C69	C	0.833776	-0.174048	-0.170402
C70	C	1.333776	0.325952	0.329598
C71	C	1.158688	-0.341789	-0.163302
C72	C	1.658688	0.158211	0.336698
C73	C	1.155799	-0.421166	-0.167704
C74	C	1.655799	0.078834	0.332296
C75	C	1.193887	-0.440702	-0.110462
C76	C	1.693887	0.059298	0.389538
C77	C	1.191175	-0.515285	-0.114605
C78	C	1.691175	-0.015285	0.385395
C79	C	1.150370	-0.570331	-0.175989
C80	C	1.650370	-0.070331	0.324011
C81	C	1.112282	-0.550792	-0.233237
C82	C	1.612282	-0.050792	0.266763
C83	C	1.114998	-0.476209	-0.229096
C84	C	1.614998	0.023791	0.270904
C85	C	1.140198	-0.796410	-0.191464
C86	C	1.640198	-0.296410	0.308536
C87	C	1.137483	-0.870997	-0.195600
C88	C	1.637483	-0.370997	0.304400
C89	C	1.216377	-0.835485	-0.076968
C90	C	1.716377	-0.335485	0.423032
C91	C	1.219087	-0.760903	-0.072830
C92	C	1.719087	-0.260903	0.427170
C93	C	1.181001	-0.741369	-0.130080
C94	C	1.681001	-0.241369	0.369920
C95	C	1.147596	-0.646568	-0.180225
C96	C	1.647596	-0.146568	0.319775
C97	C	1.183781	-0.665133	-0.125846
C98	C	1.683781	-0.165133	0.374154
C99	C	1.365306	-0.112712	-0.110670
C100	C	1.865306	0.387288	0.389330
C101	C	1.450402	-0.094172	-0.092615
C102	C	1.950402	0.405828	0.407385
C103	C	1.204616	-0.185022	-0.352702
C104	C	1.704616	0.314978	0.147298
C105	C	1.221236	-0.197297	-0.437787
C106	C	1.721236	0.302703	0.062213
C107	C	1.172596	0.030079	-0.142743
C108	C	1.672596	0.530079	0.357257
C109	C	1.175570	0.109467	-0.138357
C110	C	1.675570	0.609467	0.361643
C111	C	1.039668	-0.062640	-0.756963
C112	C	1.539668	0.437360	-0.256963
C113	C	1.055301	-0.074185	-0.836910
C114	C	1.555301	0.425815	-0.336910
C115	C	1.149792	-0.144199	-0.821164
C116	C	1.649792	0.355801	-0.321164
C117	C	1.134169	-0.132657	-0.741212
C118	C	1.634169	0.367343	-0.241212
C119	C	1.079106	-0.091878	-0.709119
C120	C	1.579106	0.408122	-0.209119
C121	C	1.173608	-0.161894	-0.693368
C122	C	1.673608	0.338106	-0.193368
C123	C	1.157983	-0.150356	-0.613425
C124	C	1.657983	0.349644	-0.113425
C125	C	1.102921	-0.109581	-0.581325
C126	C	1.602921	0.390419	-0.081325
C127	C	1.063482	-0.080340	-0.629175
C128	C	1.563482	0.419660	-0.129175
C129	C	1.228667	-0.202678	-0.725465
C130	C	1.728667	0.297322	-0.225465
C131	C	1.268105	-0.231915	-0.677620
C132	C	1.768105	0.268085	-0.177620
C133	C	1.252485	-0.220373	-0.597674
C134	C	1.752485	0.279627	-0.097674
C135	C	1.197422	-0.179598	-0.565575
C136	C	1.697422	0.320402	-0.065575
C137	C	1.291924	-0.249614	-0.549824
C138	C	1.791924	0.250386	-0.049824
C139	C	1.276299	-0.238076	-0.469881
C140	C	1.776299	0.261924	0.030119
C141	C	1.181798	-0.168059	-0.485631
C142	C	1.681798	0.331941	0.014369
C143	C	1.126814	-0.127466	0.045864
C144	C	1.626814	0.372534	0.545864
C145	C	1.110351	-0.114958	0.130991
C146	C	1.610351	0.385042	0.630991
H147	H	0.803204	-0.071703	-0.070749
H148	H	1.303204	0.428297	0.429251
O149	O	1.327488	-0.275901	-0.712244
O150	O	1.827488	0.224099	-0.212244
H151	H	1.352282	-0.294298	-0.665543
H152	H	1.852282	0.205702	-0.165543
O153	O	0.980285	-0.018647	-0.722341
O154	O	1.480285	0.481353	-0.222341
H155	H	0.976053	-0.015533	-0.658712
H156	H	1.476053	0.484467	-0.158712
H157	H	1.252313	-0.716084	-0.022846
H158	H	1.752313	-0.216084	0.477154
H159	H	1.217008	-0.620312	-0.075870
H160	H	1.717008	-0.120312	0.424130
O161	O	1.099118	-0.775338	-0.253201
O162	O	1.599118	-0.275338	0.246799
H163	H	1.054741	-0.744930	-0.225273
H164	H	1.554741	-0.244930	0.274727
O165	O	1.068259	-0.610160	-0.299440
O166	O	1.568259	-0.110160	0.200560
H167	H	1.072757	-0.665305	-0.292697
H168	H	1.572757	-0.165305	0.207303
O169	O	1.257456	-0.856558	-0.015227
O170	O	1.757456	-0.356558	0.484773
H171	H	1.286281	-0.805751	0.028154
H172	H	1.786281	-0.305751	0.528154
H173	H	1.241388	-0.212069	-0.790560
H174	H	1.741388	0.287931	-0.290560
O175	O	0.597114	0.051148	0.048864
O176	O	1.097114	0.551148	0.548864
H177	H	0.641597	0.090434	0.024281
H178	H	1.141597	0.590434	0.524281
H179	H	0.615594	-0.320548	-0.313028
H180	H	1.115594	0.179452	0.186972
H181	H	1.083984	-0.460306	-0.275709
H182	H	1.583984	0.039694	0.224291
H183	H	0.716411	0.008273	0.007097
H184	H	1.216411	0.508273	0.507097
H185	H	0.859926	-0.123944	-0.121638
H186	H	1.359926	0.376056	0.378362
H187	H	0.443574	0.003232	0.002210
H188	H	0.943574	0.503232	0.502210
H189	H	1.336750	-0.282823	-0.575969
H190	H	1.836750	0.217177	-0.075969
O191	O	1.012771	-0.042622	-0.888500
O192	O	1.512771	0.457378	-0.388500
H193	H	1.055528	-0.004074	-0.915634
H194	H	1.555528	0.495926	-0.415634
H195	H	0.472080	-0.188337	-0.184296
H196	H	0.972080	0.311663	0.315704
O197	O	1.086068	-0.097132	-0.495099
O198	O	1.586068	0.402868	0.004901
H199	H	1.099435	-0.036846	-0.467772
H200	H	1.599435	0.463154	0.032228
H201	H	0.743387	-0.347176	-0.338957
H202	H	1.243387	0.152824	0.161043
H203	H	0.528814	-0.240591	-0.235178
H204	H	1.028814	0.259409	0.264822
O205	O	1.237911	-0.381330	-0.044263
O206	O	1.737911	0.118670	0.455737
H207	H	1.197309	-0.349226	-0.010658
H208	H	1.697309	0.150774	0.489342
H209	H	0.888447	-0.315522	-0.308153
H210	H	1.388447	0.184478	0.191847
O211	O	1.318839	-0.269601	-0.418267
O212	O	1.818839	0.230399	0.081733
H213	H	1.359759	-0.299888	-0.454012
H214	H	1.859759	0.200112	0.045988
H215	H	1.018652	-0.047124	-0.603041
H216	H	1.518652	0.452876	-0.103041
O217	O	1.209180	-0.188183	-0.855778
O218	O	1.709180	0.311817	-0.355778
H219	H	1.256449	-0.152983	-0.882164
H220	H	1.756449	0.347017	-0.382164
O221	O	1.232249	-0.536359	-0.052863
O222	O	1.732249	-0.036359	0.447137
H223	H	1.261070	-0.485552	-0.009477
H224	H	1.761070	0.014448	0.490523
H225	H	1.104266	-0.915816	-0.245597
H226	H	1.604266	-0.415816	0.254403
H227	H	1.114371	-0.691396	-0.230203
H228	H	1.614371	-0.191396	0.269797
H229	H	1.136968	-0.134844	-0.459497
H230	H	1.636968	0.365156	0.040503
