data_functionalizedCrystal
_audit_creation_method	'MofGen! by Chris Wilmer'
_symmetry_space_group_name_H-M	'P1'
_symmetry_Int_Tables_number	1
_symmetry_cell_setting	triclinic
loop_
_symmetry_equiv_pos_as_xyz
  x,y,z
_cell_length_a	12.827893
_cell_length_b	12.827892
_cell_length_c	19.077579
_cell_angle_alpha	87.678907
_cell_angle_beta	87.688646
_cell_angle_gamma	90.015362
loop_
_atom_site_label
_atom_site_type_symbol
_atom_site_fract_x
_atom_site_fract_y
_atom_site_fract_z
Zn1	Zn	1.621345	-0.392316	-0.397941
Zn2	Zn	2.121345	0.107684	0.102059
Zn3	Zn	1.614237	-0.574093	-0.280253
Zn4	Zn	2.114237	-0.074093	0.219747
Zn5	Zn	1.439585	-0.399366	-0.280261
Zn6	Zn	1.939585	0.100634	0.219739
Zn7	Zn	1.446570	-0.567017	-0.397914
Zn8	Zn	1.946570	-0.067017	0.102086
O9	O	1.530434	-0.483198	-0.339092
O10	O	2.030434	0.016802	0.160908
O11	O	1.766639	-0.416440	-0.382337
O12	O	2.266639	0.083560	0.117663
O13	O	1.585171	-0.556826	-0.181763
O14	O	2.085171	-0.056826	0.318237
O15	O	1.463747	-0.252193	-0.295887
O16	O	1.963747	0.247807	0.204113
O17	O	1.761417	-0.549990	-0.295872
O18	O	2.261417	-0.049990	0.204128
O19	O	1.597286	-0.247014	-0.382346
O20	O	2.097286	0.252986	0.117654
O21	O	1.456855	-0.428455	-0.181769
O22	O	1.956855	0.071545	0.318231
O23	O	1.294275	-0.421594	-0.295861
O24	O	1.794275	0.078406	0.204139
O25	O	1.475652	-0.537931	-0.496409
O26	O	1.975652	-0.037931	0.003591
O27	O	1.299407	-0.544767	-0.382300
O28	O	1.799407	-0.044767	0.117700
O29	O	1.604059	-0.409579	-0.496429
O30	O	2.104059	0.090421	0.003571
O31	O	1.591945	-0.719391	-0.295846
O32	O	2.091945	-0.219391	0.204154
O33	O	1.468760	-0.714192	-0.382291
O34	O	1.968760	-0.214192	0.117709
C35	C	1.258924	-0.483178	-0.339079
C36	C	1.758924	0.016822	0.160921
C37	C	1.142771	-0.483194	-0.339090
C38	C	1.642771	0.016806	0.160910
C39	C	0.968380	-0.422174	-0.296405
C40	C	1.468380	0.077826	0.203595
C41	C	1.088430	-0.422156	-0.296393
C42	C	1.588430	0.077844	0.203607
C43	C	1.530368	-0.754708	-0.339080
C44	C	2.030368	-0.254708	0.160920
C45	C	1.530437	-0.870860	-0.339098
C46	C	2.030437	-0.370860	0.160902
C47	C	1.469537	-1.040152	-0.381861
C48	C	1.969537	-0.540152	0.118139
C49	C	1.469465	-0.920103	-0.381843
C50	C	1.969465	-0.420103	0.118157
C51	C	1.803005	-0.483218	-0.339106
C52	C	2.303005	0.016782	0.160894
C53	C	1.919159	-0.483226	-0.339112
C54	C	2.419159	0.016774	0.160888
C55	C	1.541427	-0.472179	-0.522670
C56	C	2.041427	0.027821	-0.022670
C57	C	1.546112	-0.467484	-0.600901
C58	C	2.046112	0.032516	-0.100901
C59	C	1.530530	-0.210626	-0.339120
C60	C	2.030530	0.289374	0.160880
C61	C	1.530571	-0.094472	-0.339132
C62	C	2.030571	0.405528	0.160868
C63	C	1.579712	-0.433883	-1.041254
C64	C	2.079712	0.066117	-0.541254
C65	C	1.575303	-0.438300	-0.967749
C66	C	2.075303	0.061700	-0.467749
C67	C	1.506240	-0.507328	-0.930989
C68	C	2.006240	-0.007328	-0.430989
C69	C	1.441588	-0.571952	-0.967739
C70	C	1.941588	-0.071952	-0.467739
C71	C	1.446002	-0.567539	-1.041243
C72	C	1.946002	-0.067539	-0.541243
C73	C	1.485874	-0.527695	-0.711154
C74	C	1.985874	-0.027695	-0.211154
C75	C	1.481463	-0.532100	-0.637645
C76	C	1.981463	-0.032100	-0.137645
C77	C	1.615180	-0.398449	-0.637660
C78	C	2.115180	0.101551	-0.137660
C79	C	1.619584	-0.394038	-0.711165
C80	C	2.119584	0.105962	-0.211165
C81	C	1.554936	-0.458665	-0.747909
C82	C	2.054936	0.041335	-0.247909
N83	N	1.501730	-0.511842	-0.855855
N84	N	2.001730	-0.011842	-0.355855
N85	N	1.559451	-0.454156	-0.823042
N86	N	2.059451	0.045844	-0.323042
C87	C	1.519544	-0.494098	-0.156228
C88	C	2.019544	0.005902	0.343772
C89	C	1.515062	-0.498499	-0.077999
C90	C	2.015062	0.001501	0.422001
H91	H	0.965895	-0.535478	-0.375669
H92	H	1.465895	-0.035478	0.124331
C93	C	1.085583	-0.553814	-0.388489
C94	C	1.585583	-0.053814	0.111511
N95	N	1.042501	-0.607003	-0.425697
N96	N	1.542501	-0.107003	0.074303
C97	C	1.399012	-1.097388	-0.431298
C98	C	1.899012	-0.597388	0.068702
N99	N	1.345887	-1.140497	-0.468534
N100	N	1.845887	-0.640497	0.031466
H101	H	1.417207	-0.873400	-0.418422
H102	H	1.917207	-0.373400	0.081578
H103	H	0.921645	-0.369913	-0.259854
H104	H	1.421645	0.130087	0.240146
C105	C	1.601032	-0.933946	-0.289673
C106	C	2.101032	-0.433946	0.210327
N107	N	1.654205	-0.981469	-0.252446
N108	N	2.154205	-0.481469	0.247554
H109	H	1.582775	-1.052102	-0.302540
H110	H	2.082775	-0.552102	0.197460
C111	C	1.405494	-0.608050	-0.597211
C112	C	1.905494	-0.108050	-0.097211
N113	N	1.348279	-0.665255	-0.566756
N114	N	1.848279	-0.165255	-0.066756
C115	C	1.145625	-0.351536	-0.246998
C116	C	1.645625	0.148464	0.253002
N117	N	1.188708	-0.298340	-0.209794
N118	N	1.688708	0.201660	0.290206
H119	H	1.635944	-0.377666	-1.071178
H120	H	2.135944	0.122334	-0.571178
C121	C	1.646414	-0.367207	-0.927333
C122	C	2.146414	0.132793	-0.427333
N123	N	1.699975	-0.313654	-0.896892
N124	N	2.199975	0.186346	-0.396892
C125	C	1.695560	-0.318103	-0.751595
C126	C	2.195560	0.181897	-0.251595
N127	N	1.752785	-0.260905	-0.782047
N128	N	2.252785	0.239095	-0.282047
H129	H	1.667814	-0.345834	-0.607736
H130	H	2.167814	0.154166	-0.107736
H131	H	1.433232	-0.580317	-0.741062
H132	H	1.933232	-0.080317	-0.241062
C133	C	1.365615	-0.647882	-0.927301
C134	C	1.865615	-0.147882	-0.427301
N135	N	1.308387	-0.705071	-0.896844
N136	N	1.808387	-0.205071	-0.396844
C137	C	1.374880	-0.638620	-1.081662
C138	C	1.874880	-0.138620	-0.581662
N139	N	1.321310	-0.692162	-1.112104
N140	N	1.821310	-0.192162	-0.612104
