data_functionalizedCrystal
_audit_creation_method	'MofGen! by Chris Wilmer'
_symmetry_space_group_name_H-M	'P1'
_symmetry_Int_Tables_number	1
_symmetry_cell_setting	triclinic
loop_
_symmetry_equiv_pos_as_xyz
  x,y,z
_cell_length_a	14.971486
_cell_length_b	17.666332
_cell_length_c	14.971486
_cell_angle_alpha	89.993323
_cell_angle_beta	96.385871
_cell_angle_gamma	90.004393
loop_
_atom_site_label
_atom_site_type_symbol
_atom_site_fract_x
_atom_site_fract_y
_atom_site_fract_z
O1	O	1.186951	0.062862	-0.116564
O2	O	0.926551	0.062882	-0.130523
O3	O	1.063730	0.062866	0.006656
O4	O	1.049771	0.062878	-0.253744
O5	O	1.063706	-0.063031	0.006664
O6	O	0.926527	-0.063014	-0.130516
O7	O	1.186927	-0.063035	-0.116557
Cu8	Cu	1.056724	-0.074520	-0.123536
Cu9	Cu	1.056753	0.074367	-0.123544
O10	O	1.049747	-0.063019	-0.253736
C11	C	0.893214	-0.000063	-0.129895
C12	C	0.793917	-0.000056	-0.128024
N13	N	1.056711	-0.179240	-0.123529
C14	C	0.736691	-0.000053	-0.208614
C15	C	0.643392	-0.000064	-0.206850
C16	C	0.607320	-0.000073	-0.124497
C17	C	0.664552	-0.000078	-0.043902
C18	C	0.757850	-0.000072	-0.045666
C19	C	0.470090	-0.000089	-0.040231
C20	C	0.376786	-0.000093	-0.038466
C21	C	0.355632	-0.000081	-0.201415
C22	C	0.448930	-0.000075	-0.203179
C23	C	0.506156	-0.000079	-0.122584
C24	C	1.117474	-0.218857	-0.062816
C25	C	1.117479	-0.298104	-0.062811
C26	C	1.056730	-0.337732	-0.123536
C27	C	0.995956	-0.298105	-0.184254
C28	C	0.995946	-0.218859	-0.184250
N29	N	1.045429	-0.462146	-0.202669
N30	N	1.045443	-0.537427	-0.202670
C31	C	1.056753	-0.576496	-0.123548
N32	N	1.068066	-0.537440	-0.044424
N33	N	1.068057	-0.462153	-0.044424
C34	C	1.056733	-0.423661	-0.123546
C35	C	1.117525	-0.702042	-0.062825
C36	C	1.117524	-0.781291	-0.062820
C37	C	0.996005	-0.781291	-0.184270
C38	C	0.996002	-0.702043	-0.184268
C39	C	1.056767	-0.662424	-0.123546
C40	C	1.220263	-0.000088	-0.117185
C41	C	1.319561	-0.000090	-0.119056
C42	C	1.063094	-0.000082	0.039985
C43	C	1.061223	-0.000081	0.139282
N44	N	1.056774	0.179087	-0.123544
C45	C	1.050384	-0.000069	-0.287065
C46	C	1.052254	-0.000065	-0.386362
C47	C	1.141812	-0.000088	0.196507
C48	C	1.140049	-0.000080	0.289807
C49	C	1.057696	-0.000071	0.325879
C50	C	0.977101	-0.000062	0.268646
C51	C	0.978865	-0.000064	0.175349
C52	C	0.973430	-0.000059	0.463109
C53	C	0.971665	-0.000058	0.556413
C54	C	1.134614	-0.000075	0.577567
C55	C	1.136378	-0.000077	0.484269
C56	C	1.055782	-0.000070	0.427043
H57	H	0.766054	-0.000046	-0.275675
H58	H	0.596802	-0.000061	-0.272474
Cl59	Cl	1.193910	-0.652233	0.013514
H60	H	0.516682	-0.000092	0.025399
Cl61	Cl	0.494276	-0.000056	-0.306711
Cl62	Cl	0.829791	-0.000079	0.055651
H63	H	0.907800	-0.000051	0.416517
Cl64	Cl	0.331439	-0.000129	0.065065
Cl65	Cl	0.919581	-0.347921	-0.260590
Cl66	Cl	0.868134	-0.000047	0.601760
Cl67	Cl	0.619204	-0.000093	0.059629
H68	H	0.913240	-0.000058	0.128756
H69	H	0.309033	-0.000082	-0.267039
H70	H	0.946465	-0.186602	-0.233691
Cl71	Cl	1.193913	-0.831098	0.013517
H72	H	1.203437	-0.000090	0.454903
Cl73	Cl	0.919628	-0.831103	-0.260603
H74	H	0.946527	-0.669785	-0.233710
H75	H	0.910047	-0.000050	0.298024
H76	H	1.208874	-0.000100	0.167145
Cl77	Cl	1.193857	-0.169050	0.013522
H78	H	1.205673	-0.000088	0.336396
Cl79	Cl	1.193874	-0.347917	0.013520
H80	H	1.200238	-0.000079	0.624165
