data_functionalizedCrystal
_audit_creation_method	'MofGen! by Chris Wilmer'
_symmetry_space_group_name_H-M	'P1'
_symmetry_Int_Tables_number	1
_symmetry_cell_setting	triclinic
loop_
_symmetry_equiv_pos_as_xyz
  x,y,z
_cell_length_a	12.594517
_cell_length_b	19.121063
_cell_length_c	12.594509
_cell_angle_alpha	92.407369
_cell_angle_beta	89.978379
_cell_angle_gamma	92.468805
loop_
_atom_site_label
_atom_site_type_symbol
_atom_site_fract_x
_atom_site_fract_y
_atom_site_fract_z
Zn1	Zn	1.609109	-0.279607	-0.619881
Zn2	Zn	1.601369	-0.397067	-0.449473
Zn3	Zn	1.431110	-0.279634	-0.441912
Zn4	Zn	1.423468	-0.397021	-0.627400
O5	O	1.516264	-0.338332	-0.534667
O6	O	1.757027	-0.295196	-0.597294
O7	O	1.578743	-0.381519	-0.299526
O8	O	1.461159	-0.181346	-0.459209
O9	O	1.751341	-0.381493	-0.472096
O10	O	1.591934	-0.181326	-0.589962
O11	O	1.453654	-0.295242	-0.293971
O12	O	1.281151	-0.295198	-0.466500
O13	O	1.448135	-0.381416	-0.775347
O14	O	1.275537	-0.381442	-0.602777
O15	O	1.584524	-0.295152	-0.769823
O16	O	1.571333	-0.495345	-0.479387
O17	O	1.440630	-0.495312	-0.610109
C18	C	1.239724	-0.338318	-0.534635
C19	C	1.121418	-0.338329	-0.534647
C20	C	1.055191	-0.291357	-0.460657
C21	C	0.980219	-0.355422	-0.438606
C22	C	0.985589	-0.274295	-0.556718
C23	C	1.048001	-0.402428	-0.512548
C24	C	1.053380	-0.321258	-0.630702
C25	C	0.978437	-0.385367	-0.608691
C26	C	1.504341	-0.520812	-0.546408
C27	C	1.499338	-0.598878	-0.551466
C28	C	1.565091	-0.635548	-0.485839
C29	C	1.560392	-0.708899	-0.490603
C30	C	1.489934	-0.745579	-0.560989
C31	C	1.424179	-0.708905	-0.626623
C32	C	1.428884	-0.635555	-0.621864
C33	C	1.472325	-0.967049	-0.578766
C34	C	1.467622	-1.040404	-0.583517
C35	C	1.603837	-1.040393	-0.447498
C36	C	1.608532	-0.967042	-0.442740
C37	C	1.542781	-0.930374	-0.508378
C38	C	1.485127	-0.820556	-0.565858
C39	C	1.547594	-0.855398	-0.503515
C40	C	1.793884	-0.338347	-0.534700
C41	C	1.912189	-0.338353	-0.534714
C42	C	1.516340	-0.338276	-0.812284
C43	C	1.516373	-0.338251	-0.930588
C44	C	1.528262	-0.155139	-0.522903
C45	C	1.533375	-0.077073	-0.517890
C46	C	1.442239	-0.385112	-1.073606
C47	C	1.420377	-0.321062	-0.998676
C48	C	1.538188	-0.402295	-1.003946
C49	C	1.494529	-0.274079	-1.066436
C50	C	1.612382	-0.355356	-1.071715
C51	C	1.590559	-0.291262	-0.996814
C52	C	1.516252	-0.338338	-0.258126
C53	C	1.516439	-0.338164	-0.139810
H54	H	1.622460	-0.605688	-0.428518
H55	H	0.957980	-0.220140	-0.575322
H56	H	1.476013	-0.219866	-1.093891
F57	F	1.099110	-0.239486	-0.378783
F58	F	0.938262	-0.374315	-0.332470
H59	H	0.945028	-0.425146	-0.671293
F60	F	1.718439	-0.374344	-1.113639
H61	H	1.665904	-0.937178	-0.385426
F62	F	1.358904	-0.596528	-0.691717
F63	F	1.402345	-0.928033	-0.648623
F64	F	1.083840	-0.473243	-0.488060
H65	H	1.085505	-0.306784	-0.711878
F66	F	1.630378	-0.747923	-0.420756
F67	F	1.673814	-1.079423	-0.377650
H68	H	1.366815	-0.738775	-0.683938
H69	H	1.653283	-0.251551	-0.963390
H70	H	1.604965	-0.825531	-0.446210
F71	F	1.562264	-0.473134	-0.967877
F72	F	1.410141	-0.859600	-0.640765
F73	F	1.360207	-0.436891	-1.117548
H74	H	1.410260	-1.070267	-0.640853
F75	F	1.314289	-0.302096	-0.956789
