data_functionalizedCrystal
_audit_creation_method	'MofGen! by Chris Wilmer'
_symmetry_space_group_name_H-M	'P1'
_symmetry_Int_Tables_number	1
_symmetry_cell_setting	triclinic
loop_
_symmetry_equiv_pos_as_xyz
  x,y,z
_cell_length_a	21.295419
_cell_length_b	21.295418
_cell_length_c	16.120297
_cell_angle_alpha	87.131155
_cell_angle_beta	87.122483
_cell_angle_gamma	90.042201
loop_
_atom_site_label
_atom_site_type_symbol
_atom_site_fract_x
_atom_site_fract_y
_atom_site_fract_z
Zn1	Zn	0.944291	-0.268428	0.471366
Zn2	Zn	1.444291	0.231572	0.971366
Zn3	Zn	0.949546	-0.368357	0.331948
Zn4	Zn	1.449546	0.131643	0.831948
Zn5	Zn	0.844360	-0.263134	0.331970
Zn6	Zn	1.344360	0.236866	0.831970
Zn7	Zn	0.838991	-0.373689	0.471313
Zn8	Zn	1.338991	0.126311	0.971313
O9	O	0.894297	-0.318402	0.401649
O10	O	1.394297	0.181598	0.901649
O11	O	1.033077	-0.281669	0.452885
O12	O	1.533077	0.218331	0.952885
O13	O	0.940039	-0.349952	0.215288
O14	O	1.440039	0.150048	0.715288
O15	O	0.857664	-0.175748	0.350492
O16	O	1.357664	0.324252	0.850492
O17	O	1.036938	-0.355086	0.350455
O18	O	1.536938	0.144914	0.850455
O19	O	0.931083	-0.179638	0.452906
O20	O	1.431083	0.320362	0.952906
O21	O	0.862760	-0.272645	0.215305
O22	O	1.362760	0.227355	0.715305
O23	O	0.755559	-0.277815	0.350441
O24	O	1.255559	0.222185	0.850441
O25	O	0.848513	-0.364172	0.587983
O26	O	1.348513	0.135828	1.087983
O27	O	0.751615	-0.359039	0.452816
O28	O	1.251615	0.140961	0.952816
O29	O	0.925876	-0.286838	0.588022
O30	O	1.425876	0.213162	1.088022
O31	O	0.934833	-0.457153	0.350404
O32	O	1.434833	0.042847	0.850404
O33	O	0.853609	-0.461070	0.452795
O34	O	1.353609	0.038930	0.952795
C35	C	0.730746	-0.318431	0.401626
C36	C	1.230746	0.181569	0.901626
C37	C	0.660778	-0.318460	0.401636
C38	C	1.160778	0.181540	0.901636
C39	C	0.625920	-0.280300	0.455053
C40	C	1.125920	0.219700	0.955053
C41	C	0.560177	-0.280284	0.455057
C42	C	1.060177	0.219716	0.955057
C43	C	0.529295	-0.318438	0.401651
C44	C	1.029295	0.181562	0.901651
C45	C	0.564161	-0.356600	0.348223
C46	C	1.064161	0.143400	0.848223
C47	C	0.629902	-0.356611	0.348215
C48	C	1.129902	0.143389	0.848215
N49	N	0.426272	-0.373266	0.395138
N50	N	0.926272	0.126734	0.895138
N51	N	0.363820	-0.373254	0.395150
N52	N	0.863820	0.126746	0.895150
C53	C	0.331219	-0.318406	0.401669
C54	C	0.831219	0.181594	0.901669
N55	N	0.363429	-0.263569	0.408193
N56	N	0.863429	0.236431	0.908193
N57	N	0.425887	-0.263582	0.408185
N58	N	0.925887	0.236418	0.908185
C59	C	0.458009	-0.318430	0.401653
C60	C	0.958009	0.181570	0.901653
C61	C	0.225076	-0.280225	0.455093
C62	C	0.725076	0.219775	0.955093
C63	C	0.159332	-0.280207	0.455091
C64	C	0.659332	0.219793	0.955091
C65	C	0.163317	-0.356529	0.348261
C66	C	0.663317	0.143471	0.848261
C67	C	0.229059	-0.356541	0.348260
C68	C	0.729059	0.143459	0.848260
C69	C	0.259935	-0.318390	0.401680
C70	C	0.759935	0.181610	0.901680
C71	C	0.894225	-0.481952	0.401610
C72	C	1.394225	0.018048	0.901610
C73	C	0.894251	-0.551921	0.401620
C74	C	1.394251	-0.051921	0.901620
C75	C	0.936736	-1.049324	0.348469
C76	C	1.436736	-0.549324	0.848469
C77	C	0.936713	-0.983581	0.348449
C78	C	1.436713	-0.483581	0.848449
C79	C	0.894383	-0.952763	0.401708
C80	C	1.394383	-0.452763	0.901708
C81	C	0.852063	-0.987694	0.454975
C82	C	1.352063	-0.487694	0.954975
C83	C	0.852083	-1.053436	0.454987
C84	C	1.352083	-0.553436	0.954987
N85	N	0.886697	-0.852307	0.474658
N86	N	1.386697	-0.352307	0.974658
N87	N	0.886681	-0.789855	0.474644
N88	N	1.386681	-0.289855	0.974644
C89	C	0.894319	-0.754687	0.401673
C90	C	1.394319	-0.254687	0.901673
N91	N	0.901986	-0.784331	0.328715
N92	N	1.401986	-0.284331	0.828715
N93	N	0.902004	-0.846789	0.328730
N94	N	1.402004	-0.346789	0.828730
C95	C	0.894357	-0.881478	0.401700
C96	C	1.394357	-0.381478	0.901700
C97	C	0.936609	-0.648478	0.348383
C98	C	1.436609	-0.148478	0.848383
C99	C	0.936582	-0.582734	0.348362
C100	C	1.436582	-0.082734	0.848362
C101	C	0.851934	-0.586848	0.454896
C102	C	1.351934	-0.086848	0.954896
C103	C	0.851959	-0.652591	0.454909
C104	C	1.351959	-0.152591	0.954909
C105	C	0.894299	-0.683402	0.401654
C106	C	1.394299	-0.183402	0.901654
C107	C	1.058486	-0.318373	0.401673
C108	C	1.558486	0.181627	0.901673
C109	C	1.128454	-0.318361	0.401684
C110	C	1.628454	0.181639	0.901684
C111	C	0.886010	-0.326691	0.619097
C112	C	1.386010	0.173309	1.119097
C113	C	0.882478	-0.330223	0.711761
C114	C	1.382478	0.169777	1.211761
C115	C	0.894386	-0.154214	0.401708
C116	C	1.394386	0.345786	0.901708
C117	C	0.894424	-0.084247	0.401732
C118	C	1.394424	0.415753	0.901732
C119	C	0.902589	-0.310100	0.185047
C120	C	1.402589	0.189900	0.685047
C121	C	0.906242	-0.306391	0.092385
C122	C	1.406242	0.193609	0.592385
C123	C	0.876007	-0.336657	0.881418
C124	C	1.376007	0.163343	1.381418
C125	C	0.912711	-0.299958	0.922733
C126	C	1.412711	0.200042	1.422733
C127	C	0.909111	-0.303539	1.017136
C128	C	1.409111	0.196461	1.517136
C129	C	0.879607	-0.333078	0.787006
C130	C	1.379607	0.166922	1.287006
H131	H	0.531791	-0.249206	0.498554
H132	H	1.031791	0.250794	0.998554
O133	O	0.835387	-0.377418	0.923832
O134	O	1.335387	0.122582	1.423832
C135	C	0.869327	-0.419925	0.974220
C136	C	1.369327	0.080075	1.474220
H137	H	0.919885	-0.422823	0.947925
H138	H	1.419885	0.077177	1.447925
H139	H	0.846498	-0.468417	0.975303
H140	H	1.346498	0.031583	1.475303
H141	H	0.869043	-0.402911	1.040176
H142	H	1.369043	0.097089	1.540176
O143	O	0.977638	-0.678471	0.296586
O144	O	1.477638	-0.178471	0.796586
C145	C	0.943885	-0.714478	0.242693
C146	C	1.443885	-0.214478	0.742693
H147	H	0.895055	-0.725496	0.272058
H148	H	1.395055	-0.225496	0.772058
H149	H	0.969973	-0.760254	0.231531
H150	H	1.469973	-0.260254	0.731531
H151	H	0.939335	-0.686800	0.180911
H152	H	1.439335	-0.186800	0.680911
O153	O	0.655836	-0.243270	0.507053
O154	O	1.155836	0.256730	1.007053
C155	C	0.636619	-0.260298	0.590113
C156	C	1.136619	0.239702	1.090113
H157	H	0.588803	-0.284559	0.591788
H158	H	1.088803	0.215441	1.091788
H159	H	0.632982	-0.216338	0.627602
H160	H	1.132982	0.283662	1.127602
H161	H	0.672529	-0.293764	0.618112
H162	H	1.172529	0.206236	1.118112
O163	O	0.254975	-0.243107	0.507007
O164	O	0.754975	0.256893	1.007007
C165	C	0.210107	-0.209429	0.554167
C166	C	0.710107	0.290571	1.054167
H167	H	0.164544	-0.205895	0.520027
H168	H	0.664544	0.294105	1.020027
H169	H	0.228807	-0.160191	0.563183
H170	H	0.728807	0.339809	1.063183
H171	H	0.200687	-0.234967	0.617427
H172	H	0.700687	0.265033	1.117427
O173	O	0.953341	-0.259226	0.880272
O174	O	1.453341	0.240774	1.380272
C175	C	0.919403	-0.216690	0.829920
C176	C	1.419403	0.283310	1.329920
H177	H	0.872174	-0.238422	0.816951
H178	H	1.372174	0.261578	1.316951
H179	H	0.947340	-0.205961	0.768659
H180	H	1.447340	0.294039	1.268659
H181	H	0.911253	-0.171293	0.863432
H182	H	1.411253	0.328707	1.363432
H183	H	0.971170	-0.955142	0.305074
H184	H	1.471170	-0.455142	0.805074
O185	O	0.810920	-1.087387	0.506616
O186	O	1.310920	-0.587387	1.006616
C187	C	0.772128	-1.123677	0.459111
C188	C	1.272128	-0.623677	0.959111
H189	H	0.770776	-1.101389	0.393441
H190	H	1.270776	-0.601389	0.893441
H191	H	0.722519	-1.125616	0.489203
H192	H	1.222519	-0.625616	0.989203
H193	H	0.791722	-1.173372	0.456275
H194	H	1.291722	-0.673372	0.956275
H195	H	0.138173	-0.387595	0.304777
H196	H	0.638173	0.112405	0.804777
H197	H	0.539012	-0.387665	0.304739
H198	H	1.039012	0.112335	0.804739
O199	O	0.663831	-0.393720	0.296443
O200	O	1.163831	0.106280	0.796443
C201	C	0.700007	-0.436257	0.343810
C202	C	1.200007	0.063743	0.843810
H203	H	0.707473	-0.416541	0.407042
H204	H	1.207473	0.083459	0.907042
H205	H	0.747521	-0.443367	0.309831
H206	H	1.247521	0.056633	0.809831
H207	H	0.674283	-0.483257	0.352858
H208	H	1.174283	0.016743	0.852858
O209	O	0.125445	-0.243066	0.506865
O210	O	0.625445	0.256934	1.006865
C211	C	0.089242	-0.200546	0.459509
C212	C	0.589242	0.299454	0.959509
H213	H	0.111552	-0.194075	0.393858
H214	H	0.611552	0.305925	0.893858
H215	H	0.087390	-0.153295	0.489787
H216	H	0.587390	0.346705	0.989787
H217	H	0.039511	-0.219886	0.456590
H218	H	0.539511	0.280114	0.956590
O219	O	0.262827	-0.393673	0.296349
O220	O	0.762827	0.106327	0.796349
C221	C	0.221475	-0.427335	0.249196
C222	C	0.721475	0.072665	0.749196
H223	H	0.173314	-0.430848	0.283342
H224	H	0.673314	0.069152	0.783342
H225	H	0.240767	-0.476581	0.240181
H226	H	0.740767	0.023419	0.740181
H227	H	0.216907	-0.401796	0.185936
H228	H	0.716907	0.098204	0.685936
H229	H	0.971212	-1.074406	0.305102
H230	H	1.471212	-0.574406	0.805102
H231	H	0.971036	-0.554299	0.304984
H232	H	1.471036	-0.054299	0.804984
H233	H	0.817596	-0.962599	0.498338
H234	H	1.317596	-0.462599	0.998338
H235	H	0.817466	-0.561757	0.498256
H236	H	1.317466	-0.061757	0.998256
H237	H	0.817505	-0.681026	0.498285
H238	H	1.317505	-0.181026	0.998285
