data_functionalizedCrystal
_audit_creation_method	'MofGen! by Chris Wilmer'
_symmetry_space_group_name_H-M	'P1'
_symmetry_Int_Tables_number	1
_symmetry_cell_setting	triclinic
loop_
_symmetry_equiv_pos_as_xyz
  x,y,z
_cell_length_a	13.635800
_cell_length_b	10.992421
_cell_length_c	11.102228
_cell_angle_alpha	91.887512
_cell_angle_beta	71.395435
_cell_angle_gamma	71.235237
loop_
_atom_site_label
_atom_site_type_symbol
_atom_site_fract_x
_atom_site_fract_y
_atom_site_fract_z
V1	V	2.056173	-0.177763	-0.396239
O2	O	2.035255	0.008539	-0.388714
O3	O	2.044969	-0.352472	-0.393511
O4	O	2.044554	-0.175030	-0.569060
O5	O	2.035672	-0.170131	-0.211950
V6	V	2.294673	-0.155479	-0.374198
O7	O	2.193957	-0.226645	-0.444586
O8	O	2.381987	-0.106597	-0.325851
O9	O	2.194273	0.019230	-0.376926
O10	O	2.374289	-0.341782	-0.381723
O11	O	2.373871	-0.163112	-0.558487
O12	O	2.194688	-0.158212	-0.201377
V13	V	2.556173	-0.177763	-0.396239
O14	O	2.535255	0.008539	-0.388714
O15	O	2.544969	-0.352472	-0.393511
O16	O	2.544554	-0.175030	-0.569060
O17	O	2.535672	-0.170131	-0.211950
V18	V	2.794673	-0.155479	-0.374198
O19	O	2.693957	-0.226645	-0.444586
O20	O	2.881987	-0.106597	-0.325851
O21	O	2.694273	0.019230	-0.376926
O22	O	2.874289	-0.341782	-0.381723
O23	O	2.873871	-0.163112	-0.558487
O24	O	2.694688	-0.158212	-0.201377
C25	C	1.970224	-0.395062	-0.387256
C26	C	2.001790	-0.537889	-0.386178
C27	C	1.935643	-0.733176	-0.377487
C28	C	1.902601	-0.584532	-0.378104
C29	C	2.037379	-0.576524	-0.267659
C30	C	2.069500	-0.725067	-0.266404
C31	C	2.134670	-0.763650	-0.509361
C32	C	2.100137	-0.615137	-0.511932
C33	C	2.100690	0.061813	-0.383178
C34	C	2.058743	0.204639	-0.384264
C35	C	1.969694	-0.168716	-0.611184
C36	C	2.000922	-0.167637	-0.752467
C37	C	2.045950	-0.284787	-0.836979
C38	C	2.075298	-0.283771	-0.969729
C39	C	2.014581	-0.048444	-0.933439
C40	C	1.985241	-0.049462	-0.800693
C41	C	2.101219	-0.164531	-0.159246
C42	C	2.059610	-0.165603	-0.017963
C43	C	2.470224	-0.395062	-0.387256
C44	C	2.501790	-0.537889	-0.386178
C45	C	2.469694	-0.168716	-0.611184
C46	C	2.500922	-0.167637	-0.752467
C47	C	2.600690	0.061813	-0.383178
C48	C	2.558743	0.204639	-0.384264
C49	C	2.601219	-0.164531	-0.159246
C50	C	2.559610	-0.165603	-0.017963
C51	C	2.608639	-0.611534	-0.392011
C52	C	2.638296	-0.745736	-0.391008
C53	C	2.454243	-0.732636	-0.378333
C54	C	2.424590	-0.598438	-0.379345
C55	C	2.607613	-0.173547	-0.825315
C56	C	2.636948	-0.172529	-0.958063
C57	C	2.452891	-0.159696	-0.945104
C58	C	2.423555	-0.160705	-0.812357
H59	H	1.922530	-0.779597	-0.461648
N60	N	2.308472	-0.154333	-0.733785
H61	H	2.312840	-0.234477	-0.690749
H62	H	2.271618	-0.074399	-0.666158
H63	H	2.670612	-0.179190	-0.776556
H64	H	2.389907	-0.154055	-0.993884
N65	N	1.864491	-0.550390	-0.490273
H66	H	1.869054	-0.631988	-0.539761
H67	H	1.785583	-0.487922	-0.457350
H68	H	1.877963	-0.753735	-0.287271
N69	N	2.253765	-0.818111	-0.517595
H70	H	2.302153	-0.797441	-0.598147
H71	H	2.261840	-0.777902	-0.439815
N72	N	2.752023	-0.178894	-1.036623
H73	H	2.807795	-0.261890	-1.028690
H74	H	2.758775	-0.177141	-1.129771
N75	N	1.804391	-0.515052	-0.258531
H76	H	1.782427	-0.580977	-0.205208
H77	H	1.824552	-0.455998	-0.206647
H78	H	2.337579	-0.538475	-0.374599
H79	H	2.157606	-0.765950	-0.266217
N80	N	1.996422	-0.748279	-0.141759
H81	H	1.944026	-0.662101	-0.087895
H82	H	1.952685	-0.800317	-0.160855
N83	N	2.133823	-0.536476	-0.269443
H84	H	2.198615	-0.581147	-0.350806
H85	H	2.112076	-0.439173	-0.266273
N86	N	1.944568	-0.504681	-0.144336
H87	H	1.877286	-0.527757	-0.137867
H88	H	1.968362	-0.530224	-0.068700
H89	H	2.131285	-0.813168	-0.599041
N90	N	2.067410	-0.583512	-0.628089
H91	H	1.989209	-0.519412	-0.599386
H92	H	2.119120	-0.544327	-0.685954
N93	N	2.691904	-0.546226	-0.399406
H94	H	2.663223	-0.478363	-0.320962
H95	H	2.764067	-0.613333	-0.402999
N96	N	2.199296	-0.575125	-0.529461
H97	H	2.224644	-0.592979	-0.453610
H98	H	2.261022	-0.626336	-0.610982
N99	N	2.062870	-0.412241	-0.784960
H100	H	2.095853	-0.486301	-0.858648
H101	H	2.114602	-0.422145	-0.735076
H102	H	2.111962	-0.379167	-1.038535
H103	H	2.001816	0.047770	-0.972722
H104	H	1.948577	0.045941	-0.731878
H105	H	2.725301	-0.805692	-0.395761
H106	H	2.391393	-0.781951	-0.372767
