data_functionalizedCrystal
_audit_creation_method	'MofGen! by Chris Wilmer'
_symmetry_space_group_name_H-M	'P1'
_symmetry_Int_Tables_number	1
_symmetry_cell_setting	triclinic
loop_
_symmetry_equiv_pos_as_xyz
  x,y,z
_cell_length_a	14.971486
_cell_length_b	14.048226
_cell_length_c	14.971486
_cell_angle_alpha	90.003819
_cell_angle_beta	83.614129
_cell_angle_gamma	89.999893
loop_
_atom_site_label
_atom_site_type_symbol
_atom_site_fract_x
_atom_site_fract_y
_atom_site_fract_z
O1	O	1.186945	0.079052	0.116561
O2	O	1.520279	0.412385	0.449894
O3	O	1.853612	0.745718	0.783228
O4	O	0.926545	0.079078	0.130520
O5	O	1.259878	0.412411	0.463853
O6	O	1.593212	0.745744	0.797187
O7	O	1.063725	0.079057	-0.006660
O8	O	1.397058	0.412390	0.326674
O9	O	1.730391	0.745724	0.660007
O10	O	1.049766	0.079072	0.253741
O11	O	1.383099	0.412405	0.587074
O12	O	1.716433	0.745739	0.920407
O13	O	1.063712	-0.079264	-0.006661
O14	O	1.397045	0.254069	0.326673
O15	O	1.730378	0.587402	0.660006
O16	O	0.926532	-0.079244	0.130519
O17	O	1.259865	0.254090	0.463852
O18	O	1.593199	0.587423	0.797185
O19	O	1.186932	-0.079270	0.116560
O20	O	1.520266	0.254064	0.449893
O21	O	1.853599	0.587397	0.783227
Zn22	Zn	1.056730	-0.104394	0.123539
Zn23	Zn	1.390063	0.228940	0.456873
Zn24	Zn	1.723397	0.562273	0.790206
Zn25	Zn	1.056747	0.104202	0.123541
Zn26	Zn	1.390081	0.437535	0.456874
Zn27	Zn	1.723414	0.770868	0.790207
O28	O	1.049753	-0.079249	0.253739
O29	O	1.383086	0.254084	0.587073
O30	O	1.716419	0.587417	0.920406
C31	C	0.893214	-0.000080	0.129895
C32	C	1.226547	0.333254	0.463228
C33	C	1.559881	0.666587	0.796562
C34	C	0.793917	-0.000070	0.128024
C35	C	1.127250	0.333263	0.461358
C36	C	1.460583	0.666597	0.794691
C37	C	0.736692	-0.000067	0.208614
C38	C	1.070025	0.333267	0.541947
C39	C	1.403358	0.666600	0.875280
C40	C	0.643392	-0.000081	0.206850
C41	C	0.976725	0.333252	0.540184
C42	C	1.310059	0.666586	0.873517
C43	C	0.607320	-0.000092	0.124497
C44	C	0.940653	0.333241	0.457831
C45	C	1.273986	0.666575	0.791164
C46	C	0.664552	-0.000098	0.043902
C47	C	0.997886	0.333235	0.377235
C48	C	1.331219	0.666569	0.710569
C49	C	0.757850	-0.000090	0.045666
C50	C	1.091183	0.333243	0.378999
C51	C	1.424517	0.666576	0.712333
C52	C	0.470090	-0.000111	0.040231
C53	C	0.803423	0.333222	0.373564
C54	C	1.136757	0.666555	0.706897
C55	C	0.376786	-0.000117	0.038466
C56	C	0.710119	0.333216	0.371800
C57	C	1.043453	0.666550	0.705133
C58	C	0.355632	-0.000102	0.201415
C59	C	0.688965	0.333231	0.534749
C60	C	1.022299	0.666565	0.868082
C61	C	0.448930	-0.000094	0.203179
C62	C	0.782263	0.333239	0.536513
C63	C	1.115596	0.666572	0.869846
C64	C	0.506156	-0.000099	0.122584
C65	C	0.839489	0.333235	0.455917
C66	C	1.172822	0.666568	0.789250
N67	N	1.056725	-0.246754	0.123538
N68	N	1.390058	0.086579	0.456871
N69	N	1.723391	0.419912	0.790204
C70	C	1.111027	-0.296571	0.177879
C71	C	1.444361	0.036763	0.511212
C72	C	1.777694	0.370096	0.844545
C73	C	1.111039	-0.396228	0.177875
C74	C	1.444372	-0.062895	0.511208
C75	C	1.777705	0.270438	0.844542
C76	C	1.056742	-0.446068	0.123534
C77	C	1.390076	-0.112734	0.456867
C78	C	1.723409	0.220599	0.790201
C79	C	1.002438	-0.396245	0.069187
C80	C	1.335771	-0.062911	0.402520
C81	C	1.669104	0.270422	0.735853
C82	C	1.002432	-0.296589	0.069186
C83	C	1.335765	0.036745	0.402520
C84	C	1.669098	0.370078	0.735853
C85	C	1.002453	-0.603959	0.069193
C86	C	1.335786	-0.270625	0.402526
C87	C	1.669119	0.062708	0.735859
C88	C	1.002457	-0.703621	0.069194
C89	C	1.335791	-0.370288	0.402527
C90	C	1.669124	-0.036955	0.735861
C91	C	1.111060	-0.703598	0.177881
C92	C	1.444393	-0.370265	0.511215
C93	C	1.777726	-0.036932	0.844548
C94	C	1.111054	-0.603943	0.177881
C95	C	1.444387	-0.270609	0.511214
C96	C	1.777720	0.062724	0.844548
C97	C	1.056748	-0.554126	0.123535
C98	C	1.390081	-0.220793	0.456868
C99	C	1.723414	0.112541	0.790201
C100	C	1.220263	-0.000110	0.117185
C101	C	1.553597	0.333223	0.450518
C102	C	1.886930	0.666556	0.783851
C103	C	1.319561	-0.000114	0.119056
C104	C	1.652894	0.333220	0.452389
C105	C	1.986227	0.666553	0.785722
C106	C	1.063094	-0.000103	-0.039985
C107	C	1.396427	0.333230	0.293348
C108	C	1.729761	0.666563	0.626682
C109	C	1.061223	-0.000102	-0.139282
C110	C	1.394556	0.333231	0.194051
C111	C	1.727890	0.666565	0.527385
N112	N	1.056760	0.246562	0.123535
N113	N	1.390093	0.579896	0.456869
N114	N	1.723426	0.913229	0.790202
C115	C	1.141812	-0.000111	-0.196507
C116	C	1.475146	0.333222	0.136826
C117	C	1.808479	0.666556	0.470159
C118	C	1.140049	-0.000101	-0.289807
C119	C	1.473383	0.333232	0.043527
C120	C	1.806716	0.666566	0.376860
C121	C	1.057696	-0.000089	-0.325879
C122	C	1.391029	0.333244	0.007454
C123	C	1.724363	0.666577	0.340788
C124	C	0.977101	-0.000078	-0.268646
C125	C	1.310434	0.333255	0.064687
C126	C	1.643767	0.666589	0.398020
C127	C	0.978865	-0.000081	-0.175349
C128	C	1.312198	0.333253	0.157985
C129	C	1.645531	0.666586	0.491318
C130	C	0.973430	-0.000074	-0.463109
C131	C	1.306763	0.333259	-0.129776
C132	C	1.640096	0.666593	0.203558
C133	C	0.971665	-0.000073	-0.556413
C134	C	1.304998	0.333260	-0.223080
C135	C	1.638332	0.666594	0.110254
C136	C	1.134614	-0.000094	-0.577567
C137	C	1.467947	0.333239	-0.244233
C138	C	1.801281	0.666572	0.089100
C139	C	1.136378	-0.000097	-0.484269
C140	C	1.469712	0.333236	-0.150936
C141	C	1.803045	0.666569	0.182397
C142	C	1.055782	-0.000088	-0.427043
C143	C	1.389116	0.333246	-0.093710
C144	C	1.722449	0.666579	0.239624
C145	C	1.050384	-0.000087	0.287065
C146	C	1.383717	0.333246	0.620398
C147	C	1.717050	0.666580	0.953731
C148	C	1.052254	-0.000082	0.386362
C149	C	1.385588	0.333252	0.719695
C150	C	1.718921	0.666585	1.053028
H151	H	0.516682	-0.000116	-0.025399
H152	H	0.850015	0.333217	0.307934
H153	H	1.183348	0.666550	0.641268
H154	H	0.635175	-0.000120	-0.023152
H155	H	0.968508	0.333213	0.310182
H156	H	1.301842	0.666546	0.643515
H157	H	0.804443	-0.000093	-0.019958
H158	H	1.137776	0.333241	0.313375
H159	H	1.471109	0.666574	0.646708
H160	H	0.913240	-0.000074	-0.128756
H161	H	1.246574	0.333260	0.204577
H162	H	1.579907	0.666593	0.537911
H163	H	1.155236	-0.255998	0.222135
H164	H	1.488570	0.077335	0.555468
H165	H	1.821903	0.410668	0.888802
H166	H	1.203437	-0.000114	-0.454903
H167	H	1.536771	0.333220	-0.121569
H168	H	1.870104	0.666553	0.211764
H169	H	0.958232	-0.563401	0.024937
H170	H	1.291565	-0.230068	0.358270
H171	H	1.624899	0.103265	0.691604
Cl172	Cl	0.868134	-0.000059	-0.601760
Cl173	Cl	1.201467	0.333274	-0.268426
Cl174	Cl	1.534800	0.666608	0.064907
H175	H	0.958243	-0.744198	0.024946
H176	H	1.291576	-0.410865	0.358279
H177	H	1.624910	-0.077531	0.691613
Cl178	Cl	0.331439	-0.000162	-0.065065
Cl179	Cl	0.664772	0.333171	0.268268
Cl180	Cl	0.998106	0.666504	0.601602
H181	H	1.155259	-0.436784	0.222123
H182	H	1.488592	-0.103451	0.555457
H183	H	1.821926	0.229882	0.888790
Cl184	Cl	0.934180	-0.458900	0.000870
Cl185	Cl	1.267514	-0.125567	0.334204
Cl186	Cl	1.600847	0.207767	0.667537
H187	H	0.907800	-0.000064	-0.416517
H188	H	1.241133	0.333270	-0.083184
H189	H	1.574466	0.666603	0.250150
H190	H	0.910047	-0.000062	-0.298024
H191	H	1.243380	0.333271	0.035310
H192	H	1.576714	0.666604	0.368643
H193	H	1.155262	-0.563366	0.222134
H194	H	1.488596	-0.230033	0.555468
H195	H	1.821929	0.103301	0.888801
Cl196	Cl	1.179334	-0.766224	0.246199
Cl197	Cl	1.512667	-0.432891	0.579532
Cl198	Cl	1.846001	-0.099557	0.912865
Cl199	Cl	0.571455	-0.000071	0.308168
Cl200	Cl	0.904788	0.333262	0.641501
Cl201	Cl	1.238122	0.666596	0.974834
Cl202	Cl	0.934172	-0.233962	0.000859
Cl203	Cl	1.267505	0.099371	0.334193
Cl204	Cl	1.600839	0.432705	0.667526
Cl205	Cl	1.245348	-0.000135	-0.151169
Cl206	Cl	1.578682	0.333198	0.182164
Cl207	Cl	1.912015	0.666531	0.515497
H208	H	1.205673	-0.000110	-0.336396
H209	H	1.539007	0.333223	-0.003063
H210	H	1.872340	0.666556	0.330270
H211	H	0.478296	-0.000077	0.270239
H212	H	0.811630	0.333257	0.603572
H213	H	1.144963	0.666590	0.936905
H214	H	0.766054	-0.000057	0.275675
H215	H	1.099387	0.333276	0.609008
H216	H	1.432720	0.666609	0.942342
Cl217	Cl	0.283691	-0.000099	0.302736
Cl218	Cl	0.617024	0.333235	0.636069
Cl219	Cl	0.950358	0.666568	0.969403
H220	H	1.200238	-0.000099	-0.624165
H221	H	1.533572	0.333234	-0.290832
H222	H	1.866905	0.666567	0.042501
