data_functionalizedCrystal
_audit_creation_method	'MofGen! by Chris Wilmer'
_symmetry_space_group_name_H-M	'P1'
_symmetry_Int_Tables_number	1
_symmetry_cell_setting	triclinic
loop_
_symmetry_equiv_pos_as_xyz
  x,y,z
_cell_length_a	16.625546
_cell_length_b	19.805407
_cell_length_c	19.805399
_cell_angle_alpha	89.982197
_cell_angle_beta	89.972133
_cell_angle_gamma	90.019784
loop_
_atom_site_label
_atom_site_type_symbol
_atom_site_fract_x
_atom_site_fract_y
_atom_site_fract_z
Zn1	Zn	-0.321078	1.034754	-0.382686
Zn2	Zn	0.178922	1.534754	0.117314
Zn3	Zn	-0.455915	1.034677	-0.269498
Zn4	Zn	0.044085	1.534677	0.230502
Zn5	Zn	-0.321094	0.921569	-0.269514
Zn6	Zn	0.178906	1.421569	0.230486
Zn7	Zn	-0.455866	0.921540	-0.382648
Zn8	Zn	0.044134	1.421540	0.117352
O9	O	-0.388488	0.978135	-0.326086
O10	O	0.111512	1.478135	0.173914
O11	O	-0.338978	1.129460	-0.367681
O12	O	0.161022	1.629460	0.132319
O13	O	-0.438058	1.019652	-0.174783
O14	O	0.061942	1.519652	0.325217
O15	O	-0.208259	0.936628	-0.284550
O16	O	0.291741	1.436628	0.215450
O17	O	-0.438043	1.129404	-0.284521
O18	O	0.061957	1.629404	0.215479
O19	O	-0.208248	1.019784	-0.367697
O20	O	0.291752	1.519784	0.132303
O21	O	-0.339006	0.936552	-0.174796
O22	O	0.160994	1.436552	0.325204
O23	O	-0.338958	0.826848	-0.284513
O24	O	0.161042	1.326848	0.215487
O25	O	-0.437959	0.936579	-0.477369
O26	O	0.062041	1.436579	0.022631
O27	O	-0.437974	0.826827	-0.367631
O28	O	0.062026	1.326827	0.132369
O29	O	-0.338931	1.019756	-0.477398
O30	O	0.161069	1.519756	0.022602
O31	O	-0.568741	1.019625	-0.284484
O32	O	-0.068741	1.519625	0.215516
O33	O	-0.568705	0.936504	-0.367615
O34	O	-0.068705	1.436504	0.132385
C35	C	-0.388463	0.802279	-0.326070
C36	C	0.111537	1.302279	0.173930
C37	C	-0.388472	0.727047	-0.326079
C38	C	0.111528	1.227047	0.173921
C39	C	-0.336980	0.691733	-0.369446
C40	C	0.163020	1.191733	0.130554
C41	C	-0.336984	0.621045	-0.369449
C42	C	0.163016	1.121045	0.130551
C43	C	-0.388485	0.585671	-0.326087
C44	C	0.111515	1.085671	0.173913
C45	C	-0.439979	0.620990	-0.282716
C46	C	0.060021	1.120990	0.217284
C47	C	-0.439970	0.691677	-0.282710
C48	C	0.060030	1.191677	0.217290
C49	C	-0.440015	0.335917	-0.282736
C50	C	0.059985	0.835917	0.217264
C51	C	-0.440022	0.265225	-0.282747
C52	C	0.059978	0.765225	0.217253
C53	C	-0.337030	0.265284	-0.369475
C54	C	0.162970	0.765284	0.130525
C55	C	-0.337021	0.335971	-0.369469
C56	C	0.162979	0.835971	0.130531
C57	C	-0.388511	0.371284	-0.326095
C58	C	0.111489	0.871284	0.173905
C59	C	-0.388505	0.447932	-0.326092
C60	C	0.111495	0.947932	0.173908
C61	C	-0.388496	0.509024	-0.326093
C62	C	0.111504	1.009024	0.173907
C63	C	-0.597979	0.978071	-0.326058
C64	C	-0.097979	1.478071	0.173942
C65	C	-0.687600	0.978105	-0.326069
C66	C	-0.187600	1.478105	0.173931
C67	C	-1.015776	0.978224	-0.326139
C68	C	-0.515776	1.478224	0.173861
C69	C	-0.924467	0.978189	-0.326121
C70	C	-0.424467	1.478189	0.173879
C71	C	-0.851691	0.978164	-0.326104
C72	C	-0.351691	1.478164	0.173896
C73	C	-0.760377	0.978130	-0.326087
C74	C	-0.260377	1.478130	0.173913
C75	C	-0.178179	0.978218	-0.326130
C76	C	0.321821	1.478218	0.173870
C77	C	-0.088558	0.978253	-0.326148
C78	C	0.411442	1.478253	0.173852
C79	C	-0.388438	0.978173	-0.502629
C80	C	0.111562	1.478173	-0.002629
C81	C	-0.388416	0.978189	-0.577861
C82	C	0.111584	1.478189	-0.077861
C83	C	-0.388514	1.154678	-0.326103
C84	C	0.111486	1.654678	0.173897
C85	C	-0.388525	1.229910	-0.326111
C86	C	0.111475	1.729910	0.173889
C87	C	-0.336849	1.021501	-0.613221
C88	C	0.163151	1.521501	-0.113221
C89	C	-0.336826	1.021508	-0.683910
C90	C	0.163174	1.521508	-0.183910
C91	C	-0.388374	0.978206	-0.719237
C92	C	0.111626	1.478206	-0.219237
C93	C	-0.439943	0.934889	-0.683872
C94	C	0.060057	1.434889	-0.183872
C95	C	-0.439961	0.934880	-0.613185
C96	C	0.060039	1.434880	-0.113185
C97	C	-0.439867	0.934928	-0.968945
C98	C	0.060133	1.434928	-0.468945
C99	C	-0.439846	0.934942	-1.039638
C100	C	0.060154	1.434942	-0.539638
C101	C	-0.336732	1.021556	-1.039670
C102	C	0.163268	1.521556	-0.539670
C103	C	-0.336751	1.021546	-0.968983
C104	C	0.163249	1.521546	-0.468983
C105	C	-0.388316	0.978227	-0.933624
C106	C	0.111684	1.478227	-0.433624
C107	C	-0.388340	0.978219	-0.856976
C108	C	0.111660	1.478219	-0.356976
C109	C	-0.388355	0.978217	-0.795884
C110	C	0.111645	1.478217	-0.295884
C111	C	-0.388481	0.978136	-0.150231
C112	C	0.111519	1.478136	0.349769
C113	C	-0.388275	0.978251	-0.074999
C114	C	0.111725	1.478251	0.425001
H115	H	-0.295056	0.592295	-0.404764
H116	H	0.204944	1.092295	0.095236
Cl117	Cl	-0.272295	0.220887	-0.424001
Cl118	Cl	0.227705	0.720887	0.075999
Cl119	Cl	-0.271948	1.075987	-0.924576
Cl120	Cl	0.228052	1.575987	-0.424576
Cl121	Cl	-0.272032	1.075989	-0.728359
Cl122	Cl	0.227968	1.575989	-0.228359
H123	H	-0.294742	1.056826	-1.068468
H124	H	0.205258	1.556826	-0.568468
H125	H	-0.481961	0.236426	-0.247434
H126	H	0.018039	0.736426	0.252566
H127	H	-0.481899	0.720429	-0.247396
H128	H	0.018101	1.220429	0.252604
H129	H	-0.481824	0.899678	-1.068399
H130	H	0.018176	1.399678	-0.568399
H131	H	-0.295086	0.364769	-0.404781
H132	H	0.204914	0.864769	0.095219
H133	H	-0.481942	0.364660	-0.247419
H134	H	0.018058	0.864660	0.252581
H135	H	-0.481907	0.592184	-0.247407
H136	H	0.018093	1.092184	0.252593
H137	H	-0.481911	0.899630	-0.712641
H138	H	0.018089	1.399630	-0.212641
H139	H	-0.481944	0.899604	-0.584396
H140	H	0.018056	1.399604	-0.084396
H141	H	-0.481867	0.899665	-0.940165
H142	H	0.018133	1.399665	-0.440165
H143	H	-0.295045	0.720529	-0.404758
H144	H	0.204955	1.220529	0.095242
H145	H	-0.294876	1.056764	-0.584463
H146	H	0.205124	1.556764	-0.084463
