data_functionalizedCrystal
_audit_creation_method	'MofGen! by Chris Wilmer'
_symmetry_space_group_name_H-M	'P1'
_symmetry_Int_Tables_number	1
_symmetry_cell_setting	triclinic
loop_
_symmetry_equiv_pos_as_xyz
  x,y,z
_cell_length_a	10.654562
_cell_length_b	9.065215
_cell_length_c	7.540329
_cell_angle_alpha	90.002642
_cell_angle_beta	89.996598
_cell_angle_gamma	95.247620
loop_
_atom_site_label
_atom_site_type_symbol
_atom_site_fract_x
_atom_site_fract_y
_atom_site_fract_z
O1	O	-1.668649	0.207321	0.147498
O2	O	-1.303250	0.227046	0.147497
O3	O	-1.493504	0.002500	0.147490
O4	O	-1.478395	0.431867	0.147505
O5	O	-1.493493	0.002497	-0.147476
O6	O	-1.303239	0.227043	-0.147468
O7	O	-1.668637	0.207319	-0.147467
Cu8	Cu	-1.485937	0.217181	-0.174401
Cu9	Cu	-1.485950	0.217184	0.174430
O10	O	-1.478383	0.431865	-0.147460
C11	C	-1.256441	0.225593	0.000014
C12	C	-1.116981	0.221248	0.000014
C13	C	-1.064903	0.084955	0.000004
C14	C	-0.933865	0.080881	0.000016
C15	C	-0.906994	0.349407	0.000041
C16	C	-1.038030	0.353478	0.000041
C17	C	-1.143855	-0.047276	-0.000024
C18	C	-1.091777	-0.183580	-0.000035
C19	C	-0.960739	-0.187653	-0.000023
C20	C	-0.881778	-0.055423	0.000001
C21	C	-1.492047	-0.052480	0.000009
C22	C	-1.487708	-0.216300	0.000014
C23	C	-0.715447	0.208769	0.000018
C24	C	-0.854907	0.213103	0.000026
C25	C	-1.479840	0.486845	0.000024
C26	C	-1.484180	0.650664	0.000030
N27	N	-1.485936	0.217177	-0.419749
N28	N	-1.485961	0.217176	0.419778
H29	H	-1.080432	0.464460	0.000033
H30	H	-0.842694	0.457062	0.000057
H31	H	-1.156075	-0.291237	-0.000039
Br32	Br	-1.321692	-0.041755	-0.000002
H33	H	-0.775079	-0.058750	0.000027
Br34	Br	-0.890064	-0.372632	0.000002
