data_functionalizedCrystal
_audit_creation_method	'MofGen! by Chris Wilmer'
_symmetry_space_group_name_H-M	'P1'
_symmetry_Int_Tables_number	1
_symmetry_cell_setting	triclinic
loop_
_symmetry_equiv_pos_as_xyz
  x,y,z
_cell_length_a	19.121063
_cell_length_b	12.759401
_cell_length_c	12.759393
_cell_angle_alpha	89.979105
_cell_angle_beta	87.597083
_cell_angle_gamma	87.532418
loop_
_atom_site_label
_atom_site_type_symbol
_atom_site_fract_x
_atom_site_fract_y
_atom_site_fract_z
Zn1	Zn	-0.279597	-1.588319	0.611840
Zn2	Zn	0.220403	-1.088319	1.111840
Zn3	Zn	-0.397065	-1.580678	0.443634
Zn4	Zn	0.102935	-1.080678	0.943634
Zn5	Zn	-0.279630	-1.412619	0.436174
Zn6	Zn	0.220370	-0.912619	0.936174
Zn7	Zn	-0.397008	-1.405078	0.619265
Zn8	Zn	0.102992	-0.905078	1.119265
O9	O	-0.338325	-1.496674	0.527728
O10	O	0.161675	-0.996674	1.027728
O11	O	-0.295189	-1.734326	0.589542
O12	O	0.204811	-1.234326	1.089542
O13	O	-0.381525	-1.558343	0.295626
O14	O	0.118475	-1.058343	0.795626
O15	O	-0.181342	-1.442280	0.453247
O16	O	0.318658	-0.942280	0.953247
O17	O	-0.381493	-1.728712	0.465962
O18	O	0.118507	-1.228712	0.965962
O19	O	-0.181317	-1.571366	0.582307
O20	O	0.318683	-1.071366	1.082307
O21	O	-0.295246	-1.434871	0.290145
O22	O	0.204754	-0.934871	0.790145
O23	O	-0.295191	-1.264599	0.460446
O24	O	0.204809	-0.764599	0.960446
O25	O	-0.381395	-1.429427	0.765299
O26	O	0.118605	-0.929427	1.265299
O27	O	-0.381428	-1.259058	0.594963
O28	O	0.118572	-0.759058	1.094963
O29	O	-0.295134	-1.564054	0.759843
O30	O	0.204866	-1.064054	1.259843
O31	O	-0.495342	-1.551031	0.473162
O32	O	0.004658	-1.051031	0.973162
O33	O	-0.495300	-1.422018	0.602197
O34	O	0.004700	-0.922018	1.102197
C35	C	-0.338307	-1.223708	0.527701
C36	C	0.161693	-0.723708	1.027701
C37	C	-0.338317	-1.106930	0.527716
C38	C	0.161683	-0.606930	1.027716
C39	C	-0.383199	-0.939425	0.463289
C40	C	0.116801	-0.439425	0.963289
C41	C	-0.383186	-1.049150	0.463273
C42	C	0.116814	-0.549150	0.963273
C43	C	-0.293452	-1.054980	0.592172
C44	C	0.206548	-0.554980	1.092172
C45	C	-0.293462	-0.945258	0.592182
C46	C	0.206538	-0.445258	1.092182
C47	C	-0.428076	-0.881651	0.398849
C48	C	0.071924	-0.381651	0.898849
C49	C	-0.472939	-0.933593	0.334391
C50	C	0.027061	-0.433593	0.834391
C51	C	-0.472926	-1.043318	0.334375
C52	C	0.027074	-0.543318	0.834375
C53	C	-0.428050	-1.101100	0.398817
C54	C	0.071950	-0.601100	0.898817
C55	C	-0.520805	-1.484905	0.539318
C56	C	-0.020805	-0.984905	1.039318
C57	C	-0.598870	-1.479967	0.544311
C58	C	-0.098870	-0.979967	1.044311
C59	C	-0.635544	-1.544869	0.479531
C60	C	-0.135544	-1.044869	0.979531
C61	C	-0.708895	-1.540231	0.484233
C62	C	-0.208895	-1.040231	0.984233
C63	C	-0.745571	-1.470684	0.553711
C64	C	-0.245571	-0.970684	1.053711
C65	C	-0.708892	-1.405780	0.618498
C66	C	-0.208892	-0.905780	1.118498
C67	C	-0.635542	-1.410424	0.613800
C68	C	-0.135542	-0.910424	1.113800
C69	C	-0.967039	-1.453303	0.571258
C70	C	-0.467039	-0.953303	1.071258
C71	C	-1.040394	-1.448661	0.575948
C72	C	-0.540394	-0.948661	1.075948
C73	C	-1.040392	-1.583115	0.441684
C74	C	-0.540392	-1.083115	0.941684
C75	C	-0.967041	-1.587748	0.436988
C76	C	-0.467041	-1.087748	0.936988
C77	C	-0.930368	-1.522848	0.501779
C78	C	-0.430368	-1.022848	1.001779
C79	C	-0.820547	-1.465939	0.558517
C80	C	-0.320547	-0.965939	1.058517
C81	C	-0.855393	-1.527599	0.496978
C82	C	-0.355393	-1.027599	0.996978
C83	C	-0.155133	-1.508517	0.516116
C84	C	0.344867	-1.008517	1.016116
C85	C	-0.077067	-1.513563	0.511168
C86	C	0.422933	-1.013563	1.011168
C87	C	-0.338254	-1.496752	0.801757
C88	C	0.161746	-0.996752	1.301757
C89	C	-0.338224	-1.496785	0.918532
C90	C	0.161776	-0.996785	1.418532
C91	C	-0.338340	-0.770706	0.527749
C92	C	0.161660	-0.270706	1.027749
C93	C	-0.338339	-0.887483	0.527742
C94	C	0.161661	-0.387483	1.027742
C95	C	-0.338345	-1.496660	0.254762
C96	C	0.161655	-0.996660	0.754762
C97	C	-0.338177	-1.496843	0.137975
C98	C	0.161823	-0.996843	0.637975
C99	C	-0.293303	-1.566895	0.970555
C100	C	0.206697	-1.066895	1.470555
C101	C	-0.293278	-1.566921	1.080277
C102	C	0.206722	-1.066921	1.580277
C103	C	-0.383100	-1.426726	1.085945
C104	C	0.116900	-0.926726	1.585945
C105	C	-0.383121	-1.426695	0.976224
C106	C	0.116879	-0.926695	1.476224
C107	C	-0.248406	-1.636985	0.912863
C108	C	0.251594	-1.136985	1.412863
C109	C	-0.203482	-1.707101	0.964886
C110	C	0.296518	-1.207101	1.464886
C111	C	-0.203457	-1.707128	1.074608
C112	C	0.296543	-1.207128	1.574608
C113	C	-0.248355	-1.637039	1.132308
C114	C	0.251645	-1.137039	1.632308
H115	H	-0.256917	-1.102035	0.644638
H116	H	0.243083	-0.602035	1.144638
H117	H	-0.256931	-0.902965	0.644660
H118	H	0.243069	-0.402965	1.144660
F119	F	-0.596518	-1.618884	0.405576
F120	F	-0.096518	-1.118884	0.905576
H121	H	-0.738752	-1.593080	0.431481
H122	H	-0.238752	-1.093080	0.931481
F123	F	-1.079427	-1.652186	0.372739
F124	F	-0.579427	-1.152186	0.872739
H125	H	-0.825530	-1.584228	0.440413
H126	H	-0.325530	-1.084228	0.940413
F127	F	-0.928013	-1.661781	0.363052
F128	F	-0.428013	-1.161781	0.863052
F129	F	-1.079425	-1.374626	0.649889
F130	F	-0.579425	-0.874626	1.149889
F131	F	-0.520691	-0.872097	0.265803
F132	F	-0.020691	-0.372097	0.765803
F133	F	-0.430930	-1.352075	0.920854
F134	F	0.069070	-0.852075	1.420854
H135	H	-0.428038	-1.190446	0.398790
H136	H	0.071962	-0.690446	0.898790
H137	H	-0.419654	-1.369662	1.132933
H138	H	0.080346	-0.869662	1.632933
F139	F	-0.928018	-1.384228	0.640214
F140	F	-0.428018	-0.884228	1.140214
F141	F	-0.747926	-1.331769	0.692448
F142	F	-0.247926	-0.831769	1.192448
H143	H	-0.605683	-1.357575	0.666552
H144	H	-0.105683	-0.857575	1.166552
H145	H	-0.850416	-1.409312	0.615083
H146	H	-0.350416	-0.909312	1.115083
F147	F	-0.520664	-1.098597	0.265762
F148	F	-0.020664	-0.598597	0.765762
F149	F	-0.248431	-1.636966	0.796087
F150	F	0.251569	-1.136966	1.296087
F151	F	-0.155692	-1.781678	0.903476
F152	F	0.344308	-1.281678	1.403476
H153	H	-0.166873	-1.764212	1.116962
H154	H	0.333127	-1.264212	1.616962
F155	F	-0.428097	-0.764872	0.398866
F156	F	0.071903	-0.264872	0.898866
F157	F	-0.248317	-1.637058	1.249085
F158	F	0.251683	-1.137058	1.749085
