data_functionalizedCrystal
_audit_creation_method	'MofGen! by Chris Wilmer'
_symmetry_space_group_name_H-M	'P1'
_symmetry_Int_Tables_number	1
_symmetry_cell_setting	triclinic
loop_
_symmetry_equiv_pos_as_xyz
  x,y,z
_cell_length_a	6.394989
_cell_length_b	11.026607
_cell_length_c	10.065875
_cell_angle_alpha	79.302338
_cell_angle_beta	80.951547
_cell_angle_gamma	82.458136
loop_
_atom_site_label
_atom_site_type_symbol
_atom_site_fract_x
_atom_site_fract_y
_atom_site_fract_z
O1	O	-0.855566	1.641000	-0.113474
O2	O	-0.755391	1.286163	-0.113478
O3	O	-0.503308	1.468618	-0.113477
O4	O	-1.107649	1.458545	-0.113475
O5	O	-0.551624	1.433830	0.113511
O6	O	-0.803707	1.251375	0.113510
O7	O	-0.903882	1.606212	0.113514
Zn8	Zn	-0.861465	1.423270	0.149552
Zn9	Zn	-0.797807	1.469105	-0.149516
O10	O	-1.155965	1.423757	0.113513
C11	C	-0.761068	1.223275	0.000015
C12	C	-0.705977	1.087719	0.000013
N13	N	-0.904912	1.391998	0.353657
C14	C	-0.858092	1.016240	0.000013
C15	C	-0.801156	0.876135	0.000011
C16	C	-0.448894	1.449233	0.000012
C17	C	-0.210370	1.443147	0.000011
C18	C	-0.898204	1.669100	0.000018
C19	C	-0.953293	1.804658	0.000011
N20	N	-0.754347	1.500386	-0.353621
C21	C	-0.812908	1.458216	0.421436
C22	C	-0.846365	1.434158	0.578603
H23	H	-1.030475	1.058766	0.000021
C24	C	-1.186192	0.862096	0.000010
N25	N	-1.361608	0.905361	0.000007
H26	H	-1.008441	1.317490	0.411983
C27	C	-0.986242	1.333496	0.657389
N28	N	-1.091595	1.257679	0.716732
C29	C	-0.672986	1.558848	0.342646
N30	N	-0.567581	1.634639	0.283302
C31	C	-0.614472	1.601050	0.567597
N32	N	-0.509127	1.676872	0.508256
H33	H	-0.628756	0.833618	-0.000024
H34	H	-0.533588	1.045197	-0.000022
