data_functionalizedCrystal
_audit_creation_method	'MofGen! by Chris Wilmer'
_symmetry_space_group_name_H-M	'P1'
_symmetry_Int_Tables_number	1
_symmetry_cell_setting	triclinic
loop_
_symmetry_equiv_pos_as_xyz
  x,y,z
_cell_length_a	14.908783
_cell_length_b	14.908178
_cell_length_c	12.759393
_cell_angle_alpha	93.332682
_cell_angle_beta	93.320336
_cell_angle_gamma	96.402596
loop_
_atom_site_label
_atom_site_type_symbol
_atom_site_fract_x
_atom_site_fract_y
_atom_site_fract_z
Zn1	Zn	1.363084	-0.280571	0.666915
Zn2	Zn	1.863084	0.219429	1.166915
Zn3	Zn	1.354250	-0.431980	0.480451
Zn4	Zn	1.854250	0.068020	0.980451
Zn5	Zn	1.211707	-0.289343	0.480468
Zn6	Zn	1.711707	0.210657	0.980468
Zn7	Zn	1.202956	-0.440630	0.645319
Zn8	Zn	1.702956	0.059370	1.145319
O9	O	1.282999	-0.360631	0.568288
O10	O	1.782999	0.139369	1.068288
O11	O	1.488581	-0.293364	0.651211
O12	O	1.988581	0.206636	1.151211
O13	O	1.335307	-0.413110	0.333426
O14	O	1.835307	0.086890	0.833426
O15	O	1.239147	-0.161500	0.514246
O16	O	1.739147	0.338500	1.014246
O17	O	1.482091	-0.404604	0.514217
O18	O	1.982091	0.095396	1.014217
O19	O	1.350363	-0.155055	0.651228
O20	O	1.850363	0.344945	1.151228
O21	O	1.230582	-0.308315	0.333439
O22	O	1.730582	0.191685	0.833439
O23	O	1.083878	-0.316702	0.493305
O24	O	1.583878	0.183298	0.993305
O25	O	1.224232	-0.419346	0.795211
O26	O	1.724232	0.080654	1.295211
O27	O	1.077448	-0.427852	0.614420
O28	O	1.577448	0.072148	1.114420
O29	O	1.341877	-0.301752	0.811077
O30	O	1.841877	0.198248	1.311077
O31	O	1.326822	-0.559807	0.493276
O32	O	1.826822	-0.059807	0.993276
O33	O	1.215666	-0.566162	0.614404
O34	O	1.715666	-0.066162	1.114404
C35	C	1.047819	-0.374169	0.551521
C36	C	1.547819	0.125831	1.051521
C37	C	0.947206	-0.379982	0.544372
C38	C	1.447206	0.120018	1.044372
C39	C	0.764892	-0.275230	0.673784
C40	C	1.264892	0.224770	1.173784
C41	C	0.670357	-0.280689	0.667070
C42	C	1.170357	0.219311	1.167070
C43	C	0.663602	-0.396354	0.524226
C44	C	1.163602	0.103646	1.024226
C45	C	0.758137	-0.390895	0.530940
C46	C	1.258137	0.109105	1.030940
C47	C	0.808778	-0.330332	0.605722
C48	C	1.308778	0.169668	1.105722
C49	C	0.903314	-0.324878	0.612441
C50	C	1.403314	0.175122	1.112441
C51	C	0.896557	-0.440537	0.469592
C52	C	1.396557	0.059463	0.969592
C53	C	0.802023	-0.445996	0.462878
C54	C	1.302023	0.054004	0.962878
C55	C	1.269360	-0.595830	0.551519
C56	C	1.769360	-0.095830	1.051519
C57	C	1.263608	-0.696444	0.544386
C58	C	1.763608	-0.196444	1.044386
C59	C	1.368521	-0.878653	0.673760
C60	C	1.868521	-0.378653	1.173760
C61	C	1.363119	-0.973189	0.667062
C62	C	1.863119	-0.473189	1.167062
C63	C	1.247400	-0.980054	0.524297
C64	C	1.747400	-0.480054	1.024297
C65	C	1.252801	-0.885518	0.530996
C66	C	1.752801	-0.385518	1.030996
C67	C	1.313365	-0.834821	0.605729
C68	C	1.813365	-0.334821	1.105729
C69	C	1.318770	-0.740283	0.612421
C70	C	1.818770	-0.240283	1.112421
C71	C	1.203047	-0.747149	0.469662
C72	C	1.703047	-0.247149	0.969662
C73	C	1.197645	-0.841685	0.462964
C74	C	1.697645	-0.341685	0.962964
C75	C	1.519098	-0.347041	0.585121
C76	C	2.019098	0.152959	1.085121
C77	C	1.619710	-0.341250	0.592294
C78	C	2.119710	0.158750	1.092294
C79	C	1.283064	-0.360535	0.842333
C80	C	1.783064	0.139465	1.342333
C81	C	1.283091	-0.360495	0.959114
C82	C	1.783091	0.139505	1.459114
C83	C	1.296717	-0.124512	0.585148
C84	C	1.796717	0.375488	1.085148
C85	C	1.302562	-0.023892	0.592332
C86	C	1.802562	0.476108	1.092332
C87	C	1.282991	-0.360658	0.295319
C88	C	1.782991	0.139342	0.795319
C89	C	1.283154	-0.360433	0.178569
C90	C	1.783154	0.139567	0.678569
C91	C	1.228585	-0.305916	1.013991
C92	C	1.728585	0.194084	1.513991
C93	C	1.228614	-0.305887	1.123719
C94	C	1.728614	0.194113	1.623719
C95	C	1.337662	-0.415018	1.123684
C96	C	1.837662	0.084982	1.623684
C97	C	1.337628	-0.415051	1.013957
C98	C	1.837628	0.084949	1.513957
C99	C	1.165630	-0.242907	1.014013
C100	C	1.665630	0.257093	1.514013
C101	C	1.165659	-0.242878	1.123741
C102	C	1.665659	0.257122	1.623741
H103	H	0.622354	-0.445651	0.463331
H104	H	1.122354	0.054349	0.963331
H105	H	0.944545	-0.275565	0.673333
H106	H	1.444545	0.224435	1.173333
Cl107	Cl	1.200805	-0.132922	1.179521
Cl108	Cl	1.700805	0.367078	1.679521
Cl109	Cl	1.121507	-0.905428	0.369027
Cl110	Cl	1.621507	-0.405428	0.869027
Cl111	Cl	1.406140	-0.483679	0.944970
Cl112	Cl	1.906140	0.016321	1.444970
H113	H	1.097612	-0.271812	1.151236
H114	H	1.597612	0.228188	1.651236
Cl115	Cl	0.828558	-0.199105	0.767802
Cl116	Cl	1.328558	0.300895	1.267802
H117	H	1.368086	-0.699006	0.673270
H118	H	1.868086	-0.199006	1.173270
Cl119	Cl	1.133711	-0.692040	0.384124
Cl120	Cl	1.633711	-0.192040	0.884124
Cl121	Cl	1.406218	-0.483601	1.192636
Cl122	Cl	1.906218	0.016399	1.692636
Cl123	Cl	1.432459	-1.028290	0.752594
Cl124	Cl	1.932459	-0.528290	1.252594
H125	H	0.760778	-0.495302	0.401990
H126	H	1.260778	0.004698	0.901990
Cl127	Cl	0.615189	-0.211413	0.752635
Cl128	Cl	1.115189	0.288587	1.252635
Cl129	Cl	0.951733	-0.509819	0.384031
Cl130	Cl	1.451733	-0.009819	0.884031
H131	H	1.094423	-0.265722	0.977903
H132	H	1.594423	0.234278	1.477903
Cl133	Cl	1.444665	-0.814916	0.767696
Cl134	Cl	1.944665	-0.314916	1.267696
H135	H	1.198088	-1.021348	0.463458
H136	H	1.698088	-0.521348	0.963458
H137	H	1.194603	-0.174873	0.986527
H138	H	1.694603	0.325127	1.486527
