data_functionalizedCrystal
_audit_creation_method	'MofGen! by Chris Wilmer'
_symmetry_space_group_name_H-M	'P1'
_symmetry_Int_Tables_number	1
_symmetry_cell_setting	triclinic
loop_
_symmetry_equiv_pos_as_xyz
  x,y,z
_cell_length_a	18.101395
_cell_length_b	16.959455
_cell_length_c	16.959447
_cell_angle_alpha	89.985678
_cell_angle_beta	89.970532
_cell_angle_gamma	90.028051
loop_
_atom_site_label
_atom_site_type_symbol
_atom_site_fract_x
_atom_site_fract_y
_atom_site_fract_z
Zn1	Zn	-0.294875	1.208323	-0.446913
Zn2	Zn	-0.418728	1.208220	-0.314737
Zn3	Zn	-0.294899	1.076152	-0.314751
Zn4	Zn	-0.418673	1.076091	-0.446875
O5	O	-0.356794	1.142196	-0.380819
O6	O	-0.311318	1.318920	-0.429390
O7	O	-0.402335	1.190683	-0.204128
O8	O	-0.191263	1.093753	-0.332304
O9	O	-0.402312	1.318845	-0.332280
O10	O	-0.191246	1.190859	-0.429404
O11	O	-0.311358	1.093653	-0.204138
O12	O	-0.311304	0.965533	-0.332267
O13	O	-0.402218	1.093649	-0.557491
O14	O	-0.402241	0.965488	-0.429339
O15	O	-0.311264	1.190800	-0.557519
O16	O	-0.522354	1.190624	-0.332243
O17	O	-0.522313	1.093550	-0.429325
C18	C	-0.356769	0.936830	-0.380801
C19	C	-0.356777	0.848974	-0.380812
C20	C	-0.309404	0.477497	-0.330380
C21	C	-0.404244	0.477499	-0.431304
C22	C	-0.404234	0.560045	-0.431299
C23	C	-0.356808	0.601321	-0.380833
C24	C	-0.309394	0.560050	-0.330372
C25	C	-0.451653	0.601321	-0.481754
C26	C	-0.451644	0.683872	-0.481750
C27	C	-0.404215	0.725150	-0.431287
C28	C	-0.356798	0.683874	-0.380825
C29	C	-0.309373	0.725150	-0.330359
C30	C	-0.261951	0.683876	-0.279899
C31	C	-0.261964	0.601327	-0.279909
C32	C	-0.404202	0.807698	-0.431278
C33	C	-0.309362	0.807703	-0.330351
C34	C	-0.549204	1.142091	-0.380796
C35	C	-0.631518	1.142118	-0.380812
C36	C	-0.930609	1.142291	-0.380855
C37	C	-0.899289	1.081356	-0.442088
C38	C	-0.813671	1.081066	-0.441896
C39	C	-0.782227	1.142205	-0.380834
C40	C	-0.813380	1.119658	-0.297530
C41	C	-0.899025	1.119266	-0.297896
C42	C	-0.898956	1.225907	-0.402193
C43	C	-0.813305	1.225415	-0.404020
C44	C	-0.698367	1.142158	-0.380818
C45	C	-1.014469	1.142337	-0.380866
C46	C	-0.163632	1.142324	-0.380860
C47	C	-0.081318	1.142379	-0.380877
C48	C	-0.356732	1.142229	-0.586987
C49	C	-0.356706	1.142243	-0.674844
C50	C	-0.356819	1.348365	-0.380838
C51	C	-0.356830	1.436221	-0.380846
C52	C	-0.403984	1.091756	-1.046308
C53	C	-0.309273	1.192920	-1.046332
C54	C	-0.309289	1.192899	-0.963786
C55	C	-0.356653	1.142306	-0.922497
C56	C	-0.404002	1.091735	-0.963754
C57	C	-0.261946	1.243475	-0.922523
C58	C	-0.261960	1.243456	-0.839972
C59	C	-0.309322	1.192859	-0.798681
C60	C	-0.356672	1.142285	-0.839944
C61	C	-0.404037	1.091693	-0.798655
C62	C	-0.451384	1.041115	-0.839915
C63	C	-0.451364	1.041138	-0.922464
C64	C	-0.309342	1.192836	-0.716133
C65	C	-0.404055	1.091672	-0.716101
C66	C	-0.356801	1.142209	-0.175453
C67	C	-0.356619	1.142348	-0.087597
H68	H	-0.270738	0.841304	-0.289259
O69	O	-0.258190	1.247473	-1.090877
H70	H	-0.270897	1.309502	-1.075045
H71	H	-0.792606	1.095172	-0.503666
O72	O	-0.502468	0.986544	-0.795381
H73	H	-0.494521	0.995029	-0.731049
O74	O	-0.258276	0.432989	-0.275936
H75	H	-0.266256	0.368653	-0.284408
O76	O	-0.210802	0.728393	-0.225463
H77	H	-0.173159	0.766029	-0.260906
H78	H	-0.791993	1.059184	-0.279130
O79	O	-0.210835	1.298011	-0.967051
H80	H	-0.218760	1.289510	-1.031384
H81	H	-0.270794	1.234018	-0.682542
H82	H	-0.489914	0.999962	-0.956066
H83	H	-0.920503	1.246464	-0.461904
H84	H	-0.919066	1.058143	-0.279821
O85	O	-0.455393	0.432987	-0.485735
H86	H	-0.447431	0.368652	-0.477267
O87	O	-0.786604	0.998977	-0.423154
H88	H	-0.834687	0.959333	-0.414185
H89	H	-0.919210	1.271306	-0.357595
O90	O	-0.502778	0.728387	-0.536182
H91	H	-0.560889	0.712518	-0.522529
H92	H	-0.791897	1.273216	-0.362672
H93	H	-0.223357	0.567715	-0.238827
O94	O	-0.786321	1.247941	-0.485225
H95	H	-0.834416	1.256925	-0.524787
O96	O	-0.455339	0.852218	-0.485696
H97	H	-0.488317	0.809648	-0.520791
O98	O	-0.786409	1.176596	-0.235443
H99	H	-0.754537	1.143942	-0.190080
O100	O	-0.502801	0.556807	-0.536185
H101	H	-0.494833	0.492472	-0.527720
H102	H	-0.919836	1.095322	-0.504057
O103	O	-0.927867	0.999754	-0.423596
H104	H	-0.989117	0.999714	-0.426643
O105	O	-0.926483	1.175490	-0.235395
H106	H	-0.878587	1.202835	-0.205038
H107	H	-0.442530	1.050574	-1.079906
H108	H	-0.442619	1.050466	-0.682489
O109	O	-0.210894	1.298002	-0.795470
H110	H	-0.177954	1.333182	-0.838050
