data_functionalizedCrystal
_audit_creation_method	'MofGen! by Chris Wilmer'
_symmetry_space_group_name_H-M	'P1'
_symmetry_Int_Tables_number	1
_symmetry_cell_setting	triclinic
loop_
_symmetry_equiv_pos_as_xyz
  x,y,z
_cell_length_a	6.817900
_cell_length_b	11.102244
_cell_length_c	12.200875
_cell_angle_alpha	92.492141
_cell_angle_beta	107.143593
_cell_angle_gamma	108.604870
loop_
_atom_site_label
_atom_site_type_symbol
_atom_site_fract_x
_atom_site_fract_y
_atom_site_fract_z
V1	V	-4.094463	-0.176127	-0.357658
O2	O	-4.053827	0.008167	-0.350853
O3	O	-4.071351	-0.348945	-0.355209
O4	O	-4.063804	-0.173548	-0.513646
O5	O	-4.061427	-0.168444	-0.191318
V6	V	-4.572516	-0.154068	-0.337763
O7	O	-4.367722	-0.224515	-0.401300
O8	O	-4.749455	-0.105680	-0.294121
O9	O	-4.372422	0.018750	-0.340212
O10	O	-4.730549	-0.338362	-0.344568
O11	O	-4.722949	-0.161751	-0.504102
O12	O	-4.379969	-0.156647	-0.181774
C13	C	-3.921929	-0.391070	-0.349566
C14	C	-3.984437	-0.532351	-0.348603
C15	C	-3.958643	-0.580501	-0.243107
C16	C	-4.017390	-0.713253	-0.242216
C17	C	-4.127717	-0.749694	-0.452326
C18	C	-4.068985	-0.616946	-0.453217
C19	C	-3.874095	-0.495907	-0.138494
C20	C	-3.848294	-0.544055	-0.032989
C21	C	-3.907041	-0.676807	-0.032098
C22	C	-3.991590	-0.761410	-0.136711
C23	C	-3.912301	-0.167333	-0.551667
C24	C	-3.968684	-0.166368	-0.679188
C25	C	-4.071873	-0.164602	-0.912663
C26	C	-4.014443	-0.165584	-0.782741
C27	C	-4.185186	0.060868	-0.345852
C28	C	-4.101917	0.202148	-0.346822
C29	C	-4.194814	-0.162867	-0.143748
C30	C	-4.117668	-0.163825	-0.016225
H31	H	-3.826242	-0.387811	-0.139207
N32	N	-4.095329	-0.567733	-0.560967
N33	N	-4.216948	-0.502732	-0.589321
H34	H	-4.235563	-0.467975	-0.665423
N35	N	-3.761963	-0.457626	0.073854
N36	N	-3.709523	-0.339103	0.073047
H37	H	-3.648554	-0.278062	0.148507
H38	H	-3.886050	-0.716005	0.053809
H39	H	-4.039435	-0.869504	-0.135978
N40	N	-4.214082	-0.836127	-0.559169
N41	N	-4.266513	-0.954649	-0.558358
H42	H	-4.327506	-1.015693	-0.633817
