data_functionalizedCrystal
_audit_creation_method	'MofGen! by Chris Wilmer'
_symmetry_space_group_name_H-M	'P1'
_symmetry_Int_Tables_number	1
_symmetry_cell_setting	triclinic
loop_
_symmetry_equiv_pos_as_xyz
  x,y,z
_cell_length_a	17.077404
_cell_length_b	12.759399
_cell_length_c	12.759393
_cell_angle_alpha	90.027544
_cell_angle_beta	90.023628
_cell_angle_gamma	90.007823
loop_
_atom_site_label
_atom_site_type_symbol
_atom_site_fract_x
_atom_site_fract_y
_atom_site_fract_z
Zn1	Zn	-1.200122	0.418392	-0.594134
Zn2	Zn	-0.700122	0.918392	-0.094134
Zn3	Zn	-1.200043	0.594110	-0.418465
Zn4	Zn	-0.700043	1.094110	0.081535
Zn5	Zn	-1.068848	0.418425	-0.418460
Zn6	Zn	-0.568848	0.918425	0.081540
Zn7	Zn	-1.068841	0.594010	-0.594092
Zn8	Zn	-0.568841	1.094010	-0.094092
O9	O	-1.134463	0.506234	-0.506288
O10	O	-0.634463	1.006234	-0.006288
O11	O	-1.309958	0.441730	-0.570851
O12	O	-0.809958	0.941730	-0.070851
O13	O	-1.182609	0.570860	-0.271443
O14	O	-0.682609	1.070860	0.228557
O15	O	-1.086297	0.271400	-0.441778
O16	O	-0.586297	0.771400	0.058222
O17	O	-1.309900	0.570828	-0.441787
O18	O	-0.809900	1.070828	0.058213
O19	O	-1.182744	0.271376	-0.570846
O20	O	-0.682744	0.771376	-0.070846
O21	O	-1.086220	0.441786	-0.271439
O22	O	-0.586220	0.941786	0.228561
O23	O	-0.959000	0.441689	-0.441738
O24	O	-0.459000	0.941689	0.058262
O25	O	-1.086287	0.570658	-0.741119
O26	O	-0.586287	1.070658	-0.241119
O27	O	-0.958995	0.570690	-0.570775
O28	O	-0.458995	1.070690	-0.070775
O29	O	-1.182738	0.441633	-0.741150
O30	O	-0.682738	0.941633	-0.241150
O31	O	-1.182603	0.741118	-0.441747
O32	O	-0.682603	1.241118	0.058253
O33	O	-1.086210	0.741044	-0.570780
O34	O	-0.586210	1.241044	-0.070780
C35	C	-0.930516	0.506183	-0.506252
C36	C	-0.430516	1.006183	-0.006252
C37	C	-0.843266	0.506187	-0.506261
C38	C	-0.343266	1.006187	-0.006261
C39	C	-0.467470	0.573526	-0.573384
C40	C	0.032530	1.073526	-0.073384
C41	C	-0.549450	0.573516	-0.573370
C42	C	-0.049450	1.073516	-0.073370
C43	C	-0.590417	0.506238	-0.506290
C44	C	-0.090417	1.006238	-0.006290
C45	C	-0.549399	0.438973	-0.439212
C46	C	-0.049399	0.938973	0.060788
C47	C	-0.467420	0.438989	-0.439221
C48	C	0.032580	0.938989	0.060779
C49	C	-0.720269	0.438943	-0.439199
C50	C	-0.220269	0.938943	0.060801
C51	C	-0.802254	0.438925	-0.439191
C52	C	-0.302254	0.938925	0.060809
C53	C	-0.802299	0.573469	-0.573348
C54	C	-0.302299	1.073469	-0.073348
C55	C	-0.720320	0.573485	-0.573357
C56	C	-0.220320	1.073485	-0.073357
C57	C	-0.679308	0.506219	-0.506280
C58	C	-0.179308	1.006219	-0.006280
C59	C	-1.134418	0.779202	-0.506283
C60	C	-0.634418	1.279202	-0.006283
C61	C	-1.134470	0.895978	-0.506315
C62	C	-0.634470	1.395978	-0.006315
C63	C	-0.339208	0.506275	-0.506318
C64	C	0.160792	1.006275	-0.006318
C65	C	-0.426457	0.506264	-0.506313
C66	C	0.073543	1.006264	-0.006313
C67	C	-1.184766	1.060575	-0.439246
C68	C	-0.684766	1.560575	0.060754
C69	C	-1.184719	0.950851	-0.439206
C70	C	-0.684719	1.450851	0.060794
C71	C	-1.084260	0.950836	-0.573461
C72	C	-0.584260	1.450836	-0.073461
C73	C	-1.084304	1.060558	-0.573495
C74	C	-0.584304	1.560558	-0.073495
C75	C	-1.134520	0.506131	-0.780321
C76	C	-0.634520	1.006131	-0.280321
C77	C	-1.134545	0.506087	-0.897098
C78	C	-0.634545	1.006087	-0.397098
C79	C	-1.134531	1.232201	-0.506331
C80	C	-0.634531	1.732201	-0.006331
C81	C	-1.134562	1.115424	-0.506389
C82	C	-0.634562	1.615424	-0.006389
C83	C	-1.184787	0.438853	-1.061709
C84	C	-0.684787	0.938853	-0.561709
C85	C	-1.184772	0.438894	-0.951985
C86	C	-0.684772	0.938894	-0.451985
C87	C	-1.084335	0.573251	-0.951941
C88	C	-0.584335	1.073251	-0.451941
C89	C	-1.084355	0.573215	-1.061663
C90	C	-0.584355	1.073215	-0.561663
C91	C	-1.134452	0.506262	-0.233320
C92	C	-0.634452	1.006262	0.266680
C93	C	-1.134579	0.506010	-0.116544
C94	C	-0.634579	1.006010	0.383456
H95	H	-0.686967	0.628264	-0.627984
H96	H	-0.186967	1.128264	-0.127984
H97	H	-0.686880	0.384165	-0.384580
H98	H	-0.186880	0.884165	0.115420
H99	H	-1.225683	0.384129	-1.106390
H100	H	-0.725683	0.884129	-0.606390
H101	H	-1.225657	0.384209	-0.907342
H102	H	-0.725657	0.884209	-0.407342
H103	H	-1.043443	0.627966	-0.907244
H104	H	-0.543443	1.127966	-0.407244
H105	H	-0.582761	0.384199	-0.384589
H106	H	-0.082761	0.884199	0.115411
H107	H	-1.043469	0.627908	-1.106312
H108	H	-0.543469	1.127908	-0.606312
H109	H	-1.043343	0.906152	-0.628099
H110	H	-0.543343	1.406152	-0.128099
H111	H	-1.043419	1.105218	-0.628172
H112	H	-0.543419	1.605218	-0.128172
H113	H	-0.434120	0.628306	-0.628014
H114	H	0.065880	1.128306	-0.128014
H115	H	-0.835695	0.628237	-0.627967
H116	H	-0.335695	1.128237	-0.127967
H117	H	-0.582838	0.628290	-0.627983
H118	H	-0.082838	1.128290	-0.127983
H119	H	-0.835607	0.384131	-0.384578
H120	H	-0.335607	0.884131	0.115422
H121	H	-1.225689	1.105244	-0.384603
H122	H	-0.725689	1.605244	0.115397
H123	H	-0.434029	0.384215	-0.384608
H124	H	0.065971	0.884215	0.115392
H125	H	-1.225599	0.906195	-0.384531
H126	H	-0.725599	1.406195	0.115469
