data_functionalizedCrystal
_audit_creation_method	'MofGen! by Chris Wilmer'
_symmetry_space_group_name_H-M	'P1'
_symmetry_Int_Tables_number	1
_symmetry_cell_setting	triclinic
loop_
_symmetry_equiv_pos_as_xyz
  x,y,z
_cell_length_a	10.908937
_cell_length_b	6.394989
_cell_length_c	10.065875
_cell_angle_alpha	80.951547
_cell_angle_beta	83.441416
_cell_angle_gamma	106.708167
loop_
_atom_site_label
_atom_site_type_symbol
_atom_site_fract_x
_atom_site_fract_y
_atom_site_fract_z
O1	O	1.716845	0.357816	-0.113544
O2	O	1.345608	0.195618	-0.113533
O3	O	1.536496	0.582612	-0.113539
O4	O	1.525957	-0.029178	-0.113537
O5	O	1.500100	0.508573	0.113451
O6	O	1.309212	0.121580	0.113457
O7	O	1.680449	0.283777	0.113446
Zn8	Zn	1.489052	0.190923	0.149491
Zn9	Zn	1.537005	0.288472	-0.149578
O10	O	1.489561	-0.103216	0.113453
C11	C	1.279814	0.143441	-0.000036
C12	C	1.137992	0.098300	-0.000033
C13	C	0.939743	0.216385	-0.000058
C14	C	1.086320	0.263038	-0.000041
C15	C	1.746244	0.335956	-0.000053
C16	C	1.888067	0.381100	-0.000066
C17	C	1.516215	0.622692	-0.000049
C18	C	1.509847	0.856715	-0.000051
N19	N	1.456334	0.124353	0.353598
N20	N	1.569732	0.355062	-0.353684
C21	C	1.525613	0.265321	0.421375
C22	C	1.500443	0.214074	0.578543
H23	H	1.150590	0.438610	-0.000044
H24	H	1.378383	-0.034268	0.411927
Br25	Br	1.370507	-0.050322	0.675744
H26	H	0.952341	0.556659	-0.000069
Br27	Br	0.832633	-0.076228	-0.000087
Br28	Br	1.699967	0.619090	0.549119
Br29	Br	1.030888	-0.194330	-0.000054
H30	H	1.603556	0.423955	0.363048
