data_functionalizedCrystal
_audit_creation_method	'MofGen! by Chris Wilmer'
_symmetry_space_group_name_H-M	'P1'
_symmetry_Int_Tables_number	1
_symmetry_cell_setting	triclinic
loop_
_symmetry_equiv_pos_as_xyz
  x,y,z
_cell_length_a	13.032831
_cell_length_b	16.120531
_cell_length_c	13.032268
_cell_angle_alpha	80.361611
_cell_angle_beta	90.886977
_cell_angle_gamma	93.915245
loop_
_atom_site_label
_atom_site_type_symbol
_atom_site_fract_x
_atom_site_fract_y
_atom_site_fract_z
Zn1	Zn	1.458690	0.562090	-0.811406
Zn2	Zn	1.958690	1.062090	-0.311406
Zn3	Zn	1.471654	0.686096	-0.646171
Zn4	Zn	1.971654	1.186096	-0.146171
Zn5	Zn	1.311010	0.527321	-0.615756
Zn6	Zn	1.811010	1.027321	-0.115756
Zn7	Zn	1.278221	0.681596	-0.796051
Zn8	Zn	1.778221	1.181596	-0.296051
O9	O	1.379894	0.614276	-0.717346
O10	O	1.879894	1.114276	-0.217346
O11	O	1.603167	0.594974	-0.808642
O12	O	2.103167	1.094974	-0.308642
O13	O	1.469492	0.652367	-0.497530
O14	O	1.969492	1.152367	0.002470
O15	O	1.338897	0.415471	-0.635407
O16	O	1.838897	0.915471	-0.135407
O17	O	1.612692	0.686081	-0.687244
O18	O	2.112692	1.186081	-0.187244
O19	O	1.447397	0.441015	-0.779150
O20	O	1.947397	0.941015	-0.279150
O21	O	1.351467	0.535715	-0.475185
O22	O	1.851467	1.035715	0.024815
O23	O	1.163903	0.531351	-0.620518
O24	O	1.663903	1.031351	-0.120518
O25	O	1.283013	0.678411	-0.942694
O26	O	1.783013	1.178411	-0.442694
O27	O	1.139813	0.644697	-0.752980
O28	O	1.639813	1.144697	-0.252980
O29	O	1.415603	0.590610	-0.953975
O30	O	1.915603	1.090610	-0.453975
O31	O	1.437698	0.801962	-0.672355
O32	O	1.937698	1.301962	-0.172355
O33	O	1.295584	0.798655	-0.782472
O34	O	1.795584	1.298655	-0.282472
C35	C	1.114843	0.583763	-0.681783
C36	C	1.614843	1.083763	-0.181783
C37	C	1.001448	0.570732	-0.666594
C38	C	1.501448	1.070732	-0.166594
C39	C	0.939008	0.621077	-0.725273
C40	C	1.439008	1.121077	-0.225273
C41	C	0.821808	0.607610	-0.709576
C42	C	1.321808	1.107610	-0.209576
C43	C	1.364514	0.830511	-0.729074
C44	C	1.864514	1.330511	-0.229074
C45	C	1.358024	0.923031	-0.734138
C46	C	1.858024	1.423031	-0.234138
C47	C	1.346177	1.092429	-0.743406
C48	C	1.846177	1.592429	-0.243406
C49	C	1.413657	1.135281	-0.691233
C50	C	1.913657	1.635281	-0.191233
C51	C	1.407065	1.229540	-0.696389
C52	C	1.907065	1.729540	-0.196389
C53	C	1.352767	0.998162	-0.738250
C54	C	1.852767	1.498162	-0.238250
C55	C	1.645980	0.644908	-0.753049
C56	C	2.145980	1.144908	-0.253049
C57	C	1.759370	0.657961	-0.768263
C58	C	2.259370	1.157961	-0.268263
C59	C	1.344204	0.637887	-0.986877
C60	C	1.844204	1.137887	-0.486877
C61	C	1.328995	0.647949	-1.101735
C62	C	1.828995	1.147949	-0.601735
C63	C	1.395324	1.397195	-0.705575
C64	C	1.895324	1.897195	-0.205575
C65	C	1.401814	1.304674	-0.700498
C66	C	1.901814	1.804674	-0.200498
C67	C	1.387818	0.608993	-1.158525
C68	C	1.887818	1.108993	-0.658525
C69	C	1.372100	0.619391	-1.277237
C70	C	1.872100	1.119391	-0.777237
C71	C	1.415508	0.590703	-0.448868
C72	C	1.915508	1.090703	0.051132
C73	C	1.430931	0.580429	-0.334024
C74	C	1.930931	1.080429	0.165976
H75	H	0.788504	0.554531	-0.647719
H76	H	1.288504	1.054531	-0.147719
O77	O	1.255167	0.697036	-1.148639
O78	O	1.755167	1.197036	-0.648639
C79	C	1.217403	0.818402	-1.274915
C80	C	1.717403	1.318402	-0.774915
C81	C	1.301119	0.762890	-1.221867
C82	C	1.801119	1.262890	-0.721867
H83	H	1.254521	0.871647	-1.334147
H84	H	1.754521	1.371647	-0.834147
H85	H	1.175570	0.846183	-1.213745
H86	H	1.675570	1.346183	-0.713745
H87	H	1.160124	0.778425	-1.316176
H88	H	1.660124	1.278425	-0.816176
H89	H	1.358465	0.802809	-1.180610
H90	H	1.858465	1.302809	-0.680610
H91	H	1.342874	0.735103	-1.283084
H92	H	1.842874	1.235103	-0.783084
O93	O	1.488574	1.094738	-0.633303
O94	O	1.988574	1.594738	-0.133303
C95	C	1.634789	1.107047	-0.520100
C96	C	2.134789	1.607047	-0.020100
C97	C	1.550021	1.153075	-0.585684
C98	C	2.050021	1.653075	-0.085684
H99	H	1.684479	1.154189	-0.481564
H100	H	2.184479	1.654189	0.018436
H101	H	1.684679	1.076600	-0.572506
H102	H	2.184679	1.576600	-0.072506
H103	H	1.597912	1.056255	-0.457614
H104	H	2.097912	1.556255	0.042386
H105	H	1.586811	1.203904	-0.648176
H106	H	2.086811	1.703904	-0.148176
H107	H	1.500141	1.183464	-0.533211
H108	H	2.000141	1.683464	-0.033211
O109	O	0.978908	0.684376	-0.798993
O110	O	1.478908	1.184376	-0.298993
C111	C	1.132091	0.755460	-0.881924
C112	C	1.632091	1.255460	-0.381924
C113	C	1.087048	0.683752	-0.798381
C114	C	1.587048	1.183752	-0.298381
H115	H	1.219526	0.754967	-0.881473
H116	H	1.719526	1.254967	-0.381473
H117	H	1.108930	0.818589	-0.864511
H118	H	1.608930	1.318589	-0.364511
H119	H	1.101147	0.745872	-0.961697
H120	H	1.601147	1.245872	-0.461697
H121	H	1.117969	0.693259	-0.718577
H122	H	1.617969	1.193259	-0.218577
H123	H	1.110201	0.620648	-0.815885
H124	H	1.610201	1.120648	-0.315885
O125	O	1.271311	1.132982	-0.801392
O126	O	1.771311	1.632982	-0.301392
C127	C	1.124996	1.120664	-0.914466
C128	C	1.624996	1.620664	-0.414466
C129	C	1.209743	1.074624	-0.848862
C130	C	1.709743	1.574624	-0.348862
H131	H	1.075181	1.073498	-0.952845
H132	H	1.575181	1.573498	-0.452845
H133	H	1.161783	1.171416	-0.977058
H134	H	1.661783	1.671416	-0.477058
H135	H	1.075238	1.151159	-0.861995
H136	H	1.575238	1.651159	-0.361995
H137	H	1.259529	1.044077	-0.901249
H138	H	1.759529	1.544077	-0.401249
H139	H	1.172889	1.023917	-0.786261
H140	H	1.672889	1.523917	-0.286261
H141	H	1.449810	0.567939	-1.119257
H142	H	1.949810	1.067939	-0.619257
O143	O	0.799262	0.721262	-0.841991
O144	O	1.299262	1.221262	-0.341991
C145	C	0.952442	0.792342	-0.924935
C146	C	1.452442	1.292342	-0.424935
C147	C	0.907402	0.720638	-0.841385
C148	C	1.407402	1.220638	-0.341385
H149	H	1.039877	0.791851	-0.924487
H150	H	1.539877	1.291851	-0.424487
H151	H	0.929281	0.855473	-0.907527
H152	H	1.429281	1.355473	-0.407527
H153	H	0.921494	0.782749	-1.004704
H154	H	1.421494	1.282749	-0.504704
H155	H	0.938327	0.730151	-0.761583
H156	H	1.438327	1.230151	-0.261583
H157	H	0.930555	0.657533	-0.858883
H158	H	1.430555	1.157533	-0.358883
O159	O	1.504766	0.531371	-1.287068
O160	O	2.004766	1.031371	-0.787068
C161	C	1.542491	0.409921	-1.160910
C162	C	2.042491	0.909921	-0.660910
C163	C	1.458782	0.465428	-1.213981
C164	C	1.958782	0.965428	-0.713981
H165	H	1.505343	0.356584	-1.101824
H166	H	2.005343	0.856584	-0.601824
H167	H	1.599765	0.449804	-1.119515
H168	H	2.099765	0.949804	-0.619515
H169	H	1.584338	0.382252	-1.222167
H170	H	2.084338	0.882252	-0.722167
H171	H	1.416858	0.493109	-1.152791
H172	H	1.916858	0.993109	-0.652791
H173	H	1.401576	0.425507	-1.255398
H174	H	1.901576	0.925507	-0.755398
H175	H	0.968138	0.517658	-0.604741
H176	H	1.468138	1.017658	-0.104741
O177	O	1.298212	0.668370	-1.324239
O178	O	1.798212	1.168370	-0.824239
C179	C	1.215117	0.723324	-1.485402
C180	C	1.715117	1.223324	-0.985402
C181	C	1.298843	0.667846	-1.432308
C182	C	1.798843	1.167846	-0.932308
H183	H	1.215585	0.722905	-1.572782
H184	H	1.715585	1.222905	-1.072782
H185	H	1.231029	0.790678	-1.470355
H186	H	1.731029	1.290678	-0.970355
H187	H	1.136697	0.697409	-1.452355
H188	H	1.636697	1.197409	-0.952355
H189	H	1.377297	0.693686	-1.465323
H190	H	1.877297	1.193686	-0.965323
H191	H	1.282842	0.600500	-1.447350
H192	H	1.782842	1.100500	-0.947350
