data_functionalizedCrystal
_audit_creation_method	'MofGen! by Chris Wilmer'
_symmetry_space_group_name_H-M	'P1'
_symmetry_Int_Tables_number	1
_symmetry_cell_setting	triclinic
loop_
_symmetry_equiv_pos_as_xyz
  x,y,z
_cell_length_a	6.817900
_cell_length_b	19.551823
_cell_length_c	14.858572
_cell_angle_alpha	95.601378
_cell_angle_beta	104.524003
_cell_angle_gamma	101.663376
loop_
_atom_site_label
_atom_site_type_symbol
_atom_site_fract_x
_atom_site_fract_y
_atom_site_fract_z
V1	V	-4.029316	-0.097115	-0.290397
O2	O	-4.026003	0.004214	-0.284422
O3	O	-3.971945	-0.192128	-0.288841
O4	O	-3.986076	-0.095820	-0.416853
O5	O	-4.011775	-0.092761	-0.155524
V6	V	-4.513437	-0.084972	-0.274213
O7	O	-4.289261	-0.123753	-0.325898
O8	O	-4.703689	-0.058334	-0.238711
O9	O	-4.347601	0.010041	-0.275769
O10	O	-4.634147	-0.186301	-0.280188
O11	O	-4.648375	-0.089326	-0.409086
O12	O	-4.333471	-0.086267	-0.147757
C13	C	-3.814596	-0.215284	-0.284371
C14	C	-3.849010	-0.292959	-0.283942
C15	C	-4.047133	-0.333012	-0.288391
C16	C	-4.079474	-0.405997	-0.287997
C17	C	-3.913671	-0.438925	-0.283136
C18	C	-3.715522	-0.398864	-0.278691
C19	C	-3.683192	-0.325881	-0.279095
C20	C	-3.798036	-0.545324	-0.224164
C21	C	-3.830370	-0.618305	-0.223755
C22	C	-4.013382	-0.664029	-0.281896
C23	C	-4.164084	-0.636763	-0.340435
C24	C	-4.131754	-0.563780	-0.340838
C25	C	-3.948707	-0.518063	-0.282698
C26	C	-4.246586	-0.783221	-0.285920
C27	C	-4.278923	-0.856209	-0.285531
C28	C	-3.914960	-0.849073	-0.276216
C29	C	-3.882634	-0.776088	-0.276614
C30	C	-4.048452	-0.743166	-0.281461
C31	C	-3.832621	-0.092433	-0.447661
C32	C	-3.878491	-0.092002	-0.551043
C33	C	-4.046379	-0.090429	-0.929604
C34	C	-3.999659	-0.090867	-0.824276
C35	C	-3.962437	-0.091216	-0.740327
C36	C	-3.915714	-0.091653	-0.634992
C37	C	-4.168291	0.033193	-0.280236
C38	C	-4.113116	0.110868	-0.280671
C39	C	-4.150267	-0.089657	-0.116943
C40	C	-4.083635	-0.090083	-0.013561
H41	H	-4.381604	-0.756415	-0.289865
H42	H	-3.580527	-0.425679	-0.274735
O43	O	-3.684213	-0.644808	-0.166781
C44	C	-3.772981	-0.681301	-0.103888
H45	H	-3.913871	-0.660925	-0.095757
H46	H	-3.652639	-0.672222	-0.032422
H47	H	-3.824209	-0.740266	-0.132626
O48	O	-3.620178	-0.501006	-0.167587
C49	C	-3.494095	-0.540720	-0.115842
H50	H	-3.595316	-0.593559	-0.111034
H51	H	-3.412953	-0.510277	-0.041980
H52	H	-3.372061	-0.550436	-0.152668
O53	O	-3.690015	-0.737276	-0.272234
C54	C	-3.550613	-0.781989	-0.267882
H55	H	-3.612175	-0.831549	-0.239366
H56	H	-3.391257	-0.753024	-0.219357
H57	H	-3.535681	-0.797548	-0.341403
H58	H	-4.440265	-0.888820	-0.289161
O59	O	-3.490570	-0.287070	-0.274720
C60	C	-3.351167	-0.331782	-0.270373
H61	H	-3.412727	-0.381345	-0.241860
H62	H	-3.191810	-0.302818	-0.221847
H63	H	-3.336236	-0.347339	-0.343894
H64	H	-4.312934	-0.674002	-0.387907
H65	H	-4.240815	-0.438614	-0.291620
H66	H	-3.779962	-0.875883	-0.272263
H67	H	-4.182162	-0.306212	-0.292344
H68	H	-4.254460	-0.541583	-0.388503
