data_functionalizedCrystal
_audit_creation_method	'MofGen! by Chris Wilmer'
_symmetry_space_group_name_H-M	'P1'
_symmetry_Int_Tables_number	1
_symmetry_cell_setting	triclinic
loop_
_symmetry_equiv_pos_as_xyz
  x,y,z
_cell_length_a	16.959454
_cell_length_b	19.077105
_cell_length_c	19.077174
_cell_angle_alpha	94.516248
_cell_angle_beta	92.276377
_cell_angle_gamma	92.283412
loop_
_atom_site_label
_atom_site_type_symbol
_atom_site_fract_x
_atom_site_fract_y
_atom_site_fract_z
Zn1	Zn	-0.384059	-1.093734	-0.441867
Zn2	Zn	-0.510707	-1.088928	-0.323986
Zn3	Zn	-0.373009	-0.971118	-0.319263
Zn4	Zn	-0.510655	-0.975822	-0.437104
O5	O	-0.444608	-1.032400	-0.380555
O6	O	-0.405505	-1.191747	-0.430199
O7	O	-0.487839	-1.069320	-0.224710
O8	O	-0.263867	-0.987426	-0.335543
O9	O	-0.498553	-1.188216	-0.343593
O10	O	-0.271985	-1.077511	-0.425619
O11	O	-0.386673	-0.982766	-0.221240
O12	O	-0.386623	-0.873091	-0.330926
O13	O	-0.498465	-0.995443	-0.536386
O14	O	-0.487751	-0.876547	-0.417503
O15	O	-0.405455	-1.082072	-0.539885
O16	O	-0.621309	-1.073881	-0.338975
O17	O	-0.621271	-0.990783	-0.422082
C18	C	-0.435983	-0.849240	-0.373185
C19	C	-0.432312	-0.770884	-0.370049
C20	C	-0.649971	-1.032341	-0.380541
C21	C	-0.737830	-1.032381	-0.380561
C22	C	-0.453186	-1.039818	-0.564429
C23	C	-0.456842	-1.042979	-0.642786
C24	C	-1.109319	-0.989196	-0.423827
C25	C	-1.109306	-1.075804	-0.337363
C26	C	-1.026758	-1.075779	-0.337356
C27	C	-0.985487	-1.032461	-0.380584
C28	C	-1.026764	-0.989168	-0.423819
C29	C	-0.985475	-1.119066	-0.294116
C30	C	-0.902923	-1.119042	-0.294106
C31	C	-0.861651	-1.075727	-0.337338
C32	C	-0.902932	-1.032433	-0.380576
C33	C	-0.861662	-0.989116	-0.423804
C34	C	-0.902942	-0.945825	-0.467046
C35	C	-0.985492	-0.945854	-0.467051
C36	C	-0.779101	-1.075698	-0.337333
C37	C	-0.779106	-0.989088	-0.423796
C38	C	-0.238444	-1.032480	-0.380586
C39	C	-0.150590	-1.032514	-0.380599
C40	C	-0.453267	-1.216275	-0.387954
C41	C	-0.456957	-1.294632	-0.391107
C42	C	-0.483313	-0.735888	-0.413581
C43	C	-0.479854	-0.662264	-0.410638
C44	C	-0.425398	-0.623638	-0.364158
C45	C	-0.374392	-0.658640	-0.320625
C46	C	-0.377848	-0.732263	-0.323572
C47	C	-0.409407	-0.403256	-0.350521
C48	C	-0.405957	-0.329629	-0.347575
C49	C	-0.511418	-0.333258	-0.437590
C50	C	-0.514872	-0.406881	-0.440530
C51	C	-0.463863	-0.441877	-0.396999
N52	N	-0.421864	-0.548383	-0.361147
N53	N	-0.467395	-0.517131	-0.400014
C54	C	-0.405889	-0.999402	-0.677791
C55	C	-0.409330	-1.002370	-0.751415
C56	C	-0.463722	-1.048919	-0.790032
C57	C	-0.514680	-1.092497	-0.755023
C58	C	-0.511242	-1.089526	-0.681400
C59	C	-0.479656	-1.062635	-1.010415
C60	C	-0.483088	-1.065604	-1.084043
C61	C	-0.377739	-0.975475	-1.080429
C62	C	-0.374303	-0.972511	-1.006806
C63	C	-0.425264	-1.016087	-0.971802
N64	N	-0.467239	-1.051954	-0.865288
N65	N	-0.421750	-1.013047	-0.896548
C66	C	-0.436007	-1.025052	-0.197398
C67	C	-0.432135	-1.022027	-0.119047
H68	H	-0.745509	-0.953816	-0.459001
H69	H	-1.142933	-0.953952	-0.459035
H70	H	-0.869329	-0.910552	-0.502239
O71	O	-0.347216	-0.949200	-0.636143
H72	H	-0.379332	-0.911967	-0.601145
H73	H	-0.869317	-1.154292	-0.258897
H74	H	-0.367877	-0.431741	-0.315070
O75	O	-0.566197	-1.136534	-0.643647
H76	H	-0.603366	-1.103613	-0.608833
H77	H	-0.558971	-1.130395	-0.786471
H78	H	-1.019110	-0.910608	-0.502256
H79	H	-0.336314	-0.760756	-0.288128
O80	O	-1.153815	-1.122544	-0.290760
H81	H	-1.218153	-1.115300	-0.298038
O82	O	-0.541763	-1.115808	-1.125697
H83	H	-0.530164	-1.170572	-1.113790
O84	O	-1.029972	-1.165791	-0.247490
H85	H	-1.017227	-1.221589	-0.261851
O86	O	-0.734574	-1.122386	-0.290702
H87	H	-0.777141	-1.152513	-0.260646
O88	O	-0.542039	-0.777551	-0.463719
H89	H	-0.602825	-0.762913	-0.450979
O90	O	-0.535006	-0.624509	-0.457454
H91	H	-0.573512	-0.663734	-0.490213
H92	H	-0.559218	-0.438325	-0.478377
H93	H	-0.552946	-0.304756	-0.473031
H94	H	-0.361603	-0.298182	-0.309731
H95	H	-0.521160	-1.098110	-0.981923
O96	O	-0.315674	-0.616985	-0.270474
H97	H	-0.321851	-0.559910	-0.275725
H98	H	-0.330013	-0.934604	-0.975368
H99	H	-0.367842	-0.966882	-0.779912
H100	H	-0.336250	-0.939997	-1.108937
