data_functionalizedCrystal
_audit_creation_method	'MofGen! by Chris Wilmer'
_symmetry_space_group_name_H-M	'P1'
_symmetry_Int_Tables_number	1
_symmetry_cell_setting	triclinic
loop_
_symmetry_equiv_pos_as_xyz
  x,y,z
_cell_length_a	12.759401
_cell_length_b	19.077068
_cell_length_c	12.759393
_cell_angle_alpha	92.260983
_cell_angle_beta	89.982620
_cell_angle_gamma	92.327081
loop_
_atom_site_label
_atom_site_type_symbol
_atom_site_fract_x
_atom_site_fract_y
_atom_site_fract_z
Zn1	Zn	1.589350	-0.280154	-0.610733
Zn2	Zn	1.582149	-0.397870	-0.442092
Zn3	Zn	1.413653	-0.280191	-0.435075
Zn4	Zn	1.406545	-0.397816	-0.617730
O5	O	1.497924	-0.339008	-0.526407
O6	O	1.735415	-0.295777	-0.588371
O7	O	1.559758	-0.382298	-0.294142
O8	O	1.442948	-0.181696	-0.452511
O9	O	1.730124	-0.382262	-0.464471
O10	O	1.572031	-0.181668	-0.581567
O11	O	1.435965	-0.295840	-0.288987
O12	O	1.265689	-0.295787	-0.459296
O13	O	1.430833	-0.382169	-0.763821
O14	O	1.260467	-0.382205	-0.593492
O15	O	1.565139	-0.295724	-0.758680
O16	O	1.552866	-0.496353	-0.471256
O17	O	1.423851	-0.496313	-0.600296
C18	C	1.224957	-0.338995	-0.526392
C19	C	1.108180	-0.339006	-0.526412
C20	C	1.486834	-0.521871	-0.537320
C21	C	1.482186	-0.600101	-0.542023
C22	C	1.050622	-0.384076	-0.596181
C23	C	0.940897	-0.384085	-0.596193
C24	C	0.946299	-0.293952	-0.456658
C25	C	1.056021	-0.293940	-0.456652
C26	C	1.047503	-0.436116	-0.676738
C27	C	0.937778	-0.436125	-0.676750
C28	C	1.547226	-0.636851	-0.477104
C29	C	1.542860	-0.710356	-0.481534
C30	C	1.473449	-0.747109	-0.550879
C31	C	1.408407	-0.710354	-0.615805
C32	C	1.412778	-0.636850	-0.611380
C33	C	1.453171	-0.966942	-0.571318
C34	C	1.448802	-1.040451	-0.575736
C35	C	1.583258	-1.040447	-0.441466
C36	C	1.587619	-0.966942	-0.437042
C37	C	1.522580	-0.930193	-0.501972
N38	N	1.468983	-0.822243	-0.555406
N39	N	1.527053	-0.855061	-0.497449
C40	C	1.771956	-0.339021	-0.526423
C41	C	1.888733	-0.339027	-0.526430
C42	C	1.497996	-0.338936	-0.800437
C43	C	1.498027	-0.338906	-0.917212
C44	C	1.509086	-0.155431	-0.515476
C45	C	1.513842	-0.077201	-0.510817
C46	C	1.433597	-0.293879	-0.969395
C47	C	1.433630	-0.293858	-1.079118
C48	C	1.562533	-0.383893	-1.084465
C49	C	1.562493	-0.383917	-0.974744
C50	C	1.359180	-0.241895	-0.966308
C51	C	1.359213	-0.241874	-1.076031
C52	C	1.497915	-0.339028	-0.253441
C53	C	1.498100	-0.338861	-0.136655
H54	H	1.102882	-0.257235	-0.399845
H55	H	1.595822	-0.740274	-0.428669
C56	C	0.888926	-0.244384	-0.379923
H57	H	0.938923	-0.217537	-0.338375
H58	H	0.844476	-0.271272	-0.335687
H59	H	0.847995	-0.213751	-0.418374
H60	H	1.351895	-0.740285	-0.672271
C61	C	1.663929	-0.926515	-0.360724
H62	H	1.657197	-0.877475	-0.367367
H63	H	1.733814	-0.938497	-0.376837
H64	H	1.647822	-0.938624	-0.290861
H65	H	1.078186	-0.421579	-0.757275
C66	C	1.089246	-0.506027	-0.641367
H67	H	1.031908	-0.537169	-0.625625
H68	H	1.131640	-0.497611	-0.580628
H69	H	1.129932	-0.526437	-0.696041
H70	H	1.359817	-0.606929	-0.664245
C71	C	1.393206	-0.168245	-1.111895
H72	H	1.393232	-0.168236	-1.186353
H73	H	1.461744	-0.156107	-1.086353
H74	H	1.345610	-0.134972	-1.085119
C75	C	1.253215	-0.268241	-1.123588
H76	H	1.256860	-0.267337	-1.197894
H77	H	1.199560	-0.238730	-1.098854
H78	H	1.237847	-0.314937	-1.103368
C79	C	0.893424	-0.409841	-0.779668
H80	H	0.949599	-0.398135	-0.825495
H81	H	0.853958	-0.369468	-0.764879
H82	H	0.849363	-0.445715	-0.812130
C83	C	0.893080	-0.509739	-0.651518
H84	H	0.949155	-0.540006	-0.641121
H85	H	0.850645	-0.527899	-0.708249
H86	H	0.851875	-0.506726	-0.589599
C87	C	1.623581	-0.596428	-0.400826
H88	H	1.661698	-0.628845	-0.362805
H89	H	1.585124	-0.567800	-0.353289
H90	H	1.671047	-0.567709	-0.439335
C91	C	1.654801	-1.080872	-0.370058
H92	H	1.642266	-1.129912	-0.382628
H93	H	1.640183	-1.068873	-0.298731
H94	H	1.726105	-1.068777	-0.384778
C95	C	1.633362	-0.433448	-0.917346
H96	H	1.671767	-0.460245	-0.967327
H97	H	1.591292	-0.464119	-0.876366
H98	H	1.680769	-0.406534	-0.872945
C99	C	1.372455	-1.080879	-0.652027
H100	H	1.334354	-1.048466	-0.690072
H101	H	1.324990	-1.109601	-0.613533
H102	H	1.410933	-1.109505	-0.699558
C103	C	1.381613	-0.926528	-0.642720
H104	H	1.339638	-0.958946	-0.684638
H105	H	1.423471	-0.897803	-0.686809
H106	H	1.337560	-0.897906	-0.600752
H107	H	1.615019	-0.420538	-1.131321
C108	C	1.248052	-0.261627	-0.927253
H109	H	1.202376	-0.269733	-0.985648
H110	H	1.223266	-0.224332	-0.883674
H111	H	1.249957	-0.303005	-0.888355
C112	C	1.402788	-0.171961	-0.916165
H113	H	1.422229	-0.140800	-0.969761
H114	H	1.462520	-0.180339	-0.874755
H115	H	1.350506	-0.151594	-0.873055
