data_functionalizedCrystal
_audit_creation_method	'MofGen! by Chris Wilmer'
_symmetry_space_group_name_H-M	'P1'
_symmetry_Int_Tables_number	1
_symmetry_cell_setting	triclinic
loop_
_symmetry_equiv_pos_as_xyz
  x,y,z
_cell_length_a	13.897449
_cell_length_b	11.169416
_cell_length_c	11.169409
_cell_angle_alpha	89.969126
_cell_angle_beta	90.024677
_cell_angle_gamma	89.988833
loop_
_atom_site_label
_atom_site_type_symbol
_atom_site_fract_x
_atom_site_fract_y
_atom_site_fract_z
Zn1	Zn	1.474764	0.477683	0.678710
Zn2	Zn	1.974764	0.977683	1.178710
Zn3	Zn	1.474675	0.678424	0.478032
Zn4	Zn	1.974675	1.178424	0.978032
Zn5	Zn	1.313450	0.477756	0.478028
Zn6	Zn	1.813450	0.977756	0.978028
Zn7	Zn	1.313456	0.678326	0.678660
Zn8	Zn	1.813456	1.178326	1.178660
O9	O	1.394086	0.578047	0.578358
O10	O	1.894086	1.078047	1.078358
O11	O	1.609734	0.504322	0.652113
O12	O	2.109734	1.004322	1.152113
O13	O	1.453249	0.651876	0.310082
O14	O	1.953249	1.151876	0.810082
O15	O	1.334883	0.309797	0.504668
O16	O	1.834883	0.809797	1.004668
O17	O	1.609669	0.651806	0.504676
O18	O	2.109669	1.151806	1.004676
O19	O	1.453400	0.309743	0.652108
O20	O	1.953400	0.809743	1.152108
O21	O	1.334797	0.504447	0.310079
O22	O	1.834797	1.004447	0.810079
O23	O	1.178469	0.504352	0.504619
O24	O	1.678469	1.004352	1.004619
O25	O	1.334893	0.651639	0.846617
O26	O	1.834893	1.151639	1.346617
O27	O	1.178473	0.651710	0.652023
O28	O	1.678473	1.151710	1.152023
O29	O	1.453406	0.504228	0.846654
O30	O	1.953406	1.004228	1.346654
O31	O	1.453254	0.846361	0.504627
O32	O	1.953254	1.346361	1.004627
O33	O	1.334807	0.846289	0.652028
O34	O	1.834807	1.346289	1.152028
C35	C	1.143472	0.578029	0.578316
C36	C	1.643472	1.078029	1.078316
C37	C	1.036258	0.578050	0.578326
C38	C	1.536258	1.078050	1.078326
C39	C	0.949188	0.578054	0.578346
C40	C	1.449188	1.078054	1.078346
C41	C	0.839956	0.578062	0.578383
C42	C	1.339956	1.078062	1.078383
C43	C	1.394048	0.889872	0.578349
C44	C	1.894048	1.389872	1.078349
C45	C	1.394120	1.023272	0.578385
C46	C	1.894120	1.523272	1.078385
C47	C	1.394160	0.577914	0.891400
C48	C	1.894160	1.077914	1.391400
C49	C	1.394192	0.577857	1.024800
C50	C	1.894192	1.077857	1.524800
C51	C	1.645679	0.578067	0.578400
C52	C	2.145679	1.078067	1.078400
C53	C	1.752893	0.578075	0.578419
C54	C	2.252893	1.078075	1.078419
C55	C	1.394151	0.265005	0.578393
C56	C	1.894151	0.765005	1.078393
C57	C	1.394178	0.131605	0.578408
C58	C	1.894178	0.631605	1.078408
C59	C	1.394068	0.578094	0.266533
C60	C	1.894068	1.078094	0.766533
C61	C	1.394223	0.577812	0.133134
C62	C	1.894223	1.077812	0.633134
