data_functionalizedCrystal
_audit_creation_method	'MofGen! by Chris Wilmer'
_symmetry_space_group_name_H-M	'P1'
_symmetry_Int_Tables_number	1
_symmetry_cell_setting	triclinic
loop_
_symmetry_equiv_pos_as_xyz
  x,y,z
_cell_length_a	14.971486
_cell_length_b	16.109301
_cell_length_c	13.448316
_cell_angle_alpha	90.008027
_cell_angle_beta	90.001801
_cell_angle_gamma	83.537805
loop_
_atom_site_label
_atom_site_type_symbol
_atom_site_fract_x
_atom_site_fract_y
_atom_site_fract_z
O1	O	1.186791	0.108348	0.082581
O2	O	0.926372	0.121323	0.082608
O3	O	1.063736	-0.006187	0.082584
O4	O	1.049428	0.235857	0.082605
O5	O	1.063718	-0.006195	-0.082800
O6	O	0.926355	0.121315	-0.082776
O7	O	1.186774	0.108340	-0.082803
Cu8	Cu	1.056563	0.114827	-0.097890
Cu9	Cu	1.056583	0.114836	0.097695
O10	O	1.049410	0.235850	-0.082778
C11	C	0.893040	0.120739	-0.000080
C12	C	0.793745	0.119000	-0.000070
C13	C	1.063147	-0.037166	-0.000109
C14	C	1.061410	-0.129464	-0.000110
C15	C	0.736412	0.193908	-0.000065
C16	C	0.643115	0.192269	-0.000080
C17	C	0.607153	0.115721	-0.000093
C18	C	0.664494	0.040807	-0.000101
C19	C	0.757789	0.042447	-0.000093
C20	C	0.470036	0.037395	-0.000115
C21	C	0.376734	0.035755	-0.000121
C22	C	0.355362	0.187217	-0.000102
C23	C	0.448657	0.188857	-0.000094
C24	C	0.505991	0.113942	-0.000100
C25	C	1.138878	-0.351640	-0.000102
C26	C	1.137239	-0.438362	-0.000094
C27	C	0.974262	-0.418691	-0.000081
C28	C	0.975902	-0.331970	-0.000082
C29	C	1.058213	-0.298447	-0.000098
C30	C	1.054933	-0.471890	-0.000088
C31	C	1.053155	-0.565918	-0.000079
C32	C	1.059992	-0.204413	-0.000105
C33	C	1.220106	0.108924	-0.000112
C34	C	1.319401	0.110663	-0.000116
C35	C	1.049999	0.266829	-0.000084
C36	C	1.051736	0.359127	-0.000076
N37	N	1.056555	0.114820	-0.235454
C38	C	1.117398	0.058382	-0.287506
C39	C	1.117404	0.058381	-0.391609
C40	C	1.056570	0.114823	-0.443659
C41	C	0.995720	0.171264	-0.391601
C42	C	0.995711	0.171260	-0.287499
C43	C	0.995745	0.171269	-0.608581
C44	C	0.995755	0.171275	-0.712689
C45	C	1.117438	0.058391	-0.712690
C46	C	1.117429	0.058387	-0.608589
C47	C	1.056580	0.114829	-0.556538
N48	N	1.056598	0.114837	0.235260
H49	H	0.765684	0.256242	-0.000053
O50	O	0.936658	0.226204	-0.442047
C51	C	0.951175	0.308530	-0.416603
H52	H	0.985647	0.308478	-0.341015
H53	H	0.995688	0.334316	-0.475181
C54	C	0.817999	0.363760	-0.504627
C55	C	0.860332	0.363697	-0.411784
H56	H	0.761964	0.397792	-0.501659
H57	H	0.808220	0.308296	-0.521772
H58	H	0.855102	0.385247	-0.553432
H59	H	0.823234	0.342201	-0.362984
H60	H	0.870103	0.419159	-0.394631
H61	H	1.166969	0.012432	-0.566210
O62	O	0.341752	-0.038580	0.000031
C63	C	0.288404	-0.044052	0.085666
H64	H	0.310460	-0.000594	0.145549
H65	H	0.214828	-0.024937	0.066301
C66	C	0.272636	-0.187934	0.050927
C67	C	0.299731	-0.134563	0.124479
H68	H	0.279618	-0.243765	0.074867
H69	H	0.308574	-0.184246	-0.006769
H70	H	0.211324	-0.171994	0.034796
H71	H	0.361044	-0.150496	0.140600
H72	H	0.263802	-0.138255	0.182179
O73	O	1.176604	0.003535	-0.442017
C74	C	1.230288	-0.046288	-0.373754
H75	H	1.231267	-0.012202	-0.299537
H76	H	1.201284	-0.108105	-0.362705
C77	C	1.325586	-0.105117	-0.505519
C78	C	1.326795	-0.063249	-0.414368
H79	H	1.385115	-0.115584	-0.530573
H80	H	1.289416	-0.071553	-0.551511
H81	H	1.301412	-0.156627	-0.496300
H82	H	1.350958	-0.011736	-0.423591
H83	H	1.362971	-0.096805	-0.368379
H84	H	0.910211	-0.288658	-0.000075
O85	O	0.587334	0.264982	0.000068
C86	C	0.532742	0.268574	0.085730
H87	H	0.528038	0.202576	0.114268
H88	H	0.563425	0.306569	0.145722
C89	C	0.443790	0.391383	0.024666
C90	C	0.438007	0.310322	0.059711
H91	H	0.385355	0.417139	0.008619
H92	H	0.480572	0.388966	-0.033045
H93	H	0.469364	0.423035	0.074665
H94	H	0.412445	0.278669	0.009709
H95	H	0.401219	0.312735	0.117414
O96	O	0.936563	0.226120	-0.763098
C97	C	0.882859	0.275941	-0.694837
H98	H	0.881864	0.241855	-0.620633
H99	H	0.911855	0.337761	-0.683755
C100	C	0.787589	0.334765	-0.826616
C101	C	0.786362	0.292896	-0.735480
H102	H	0.728066	0.345227	-0.851688
H103	H	0.823772	0.301202	-0.872607
H104	H	0.811758	0.386276	-0.817369
H105	H	0.762205	0.241382	-0.744731
H106	H	0.750172	0.326451	-0.689492
O107	O	0.894387	-0.451395	-0.000119
C108	C	0.910234	-0.539344	-0.000097
H109	H	0.980040	-0.559644	-0.031411
H110	H	0.905909	-0.563480	0.079245
C111	C	0.753353	-0.550455	-0.026493
C112	C	0.839087	-0.575388	-0.064961
H113	H	0.709465	-0.572690	-0.066500
H114	H	0.742676	-0.491202	-0.026504
H115	H	0.749762	-0.570570	0.039625
H116	H	0.842680	-0.555264	-0.131073
H117	H	0.849764	-0.634638	-0.064963
H118	H	0.477934	0.251189	-0.000074
H119	H	0.635206	-0.021520	-0.000126
O120	O	1.176353	0.003485	-0.236862
C121	C	1.128434	-0.047894	-0.176715
H122	H	1.058451	-0.014858	-0.161099
H123	H	1.122337	-0.109323	-0.216891
C124	C	1.264812	-0.106240	-0.097020
C125	C	1.178861	-0.065661	-0.077832
H126	H	1.295919	-0.117203	-0.036026
H127	H	1.297098	-0.071627	-0.137544
H128	H	1.259720	-0.157426	-0.130502
H129	H	1.183955	-0.014471	-0.044363
H130	H	1.146577	-0.100265	-0.037300
H131	H	0.946165	0.217216	-0.245120
H132	H	0.308675	0.248215	-0.000101
H133	H	1.166983	0.012434	-0.755077
O134	O	0.525604	-0.035454	-0.000072
C135	C	0.473860	-0.103370	-0.000104
H136	H	0.404219	-0.082334	0.031197
H137	H	0.467233	-0.126839	-0.079448
C138	C	0.605899	-0.200106	0.026316
C139	C	0.520366	-0.174271	0.064768
H140	H	0.634587	-0.243843	0.066328
H141	H	0.640761	-0.154350	0.026333
H142	H	0.600364	-0.219658	-0.039804
H143	H	0.525903	-0.154709	0.130881
H144	H	0.485506	-0.220025	0.064763
H145	H	0.804470	-0.018551	-0.000097
H146	H	1.205901	-0.324348	-0.000113
H147	H	1.202924	-0.481669	-0.000096
H148	H	0.946192	0.217228	-0.566204
