data_functionalizedCrystal
_audit_creation_method	'MofGen! by Chris Wilmer'
_symmetry_space_group_name_H-M	'P1'
_symmetry_Int_Tables_number	1
_symmetry_cell_setting	triclinic
loop_
_symmetry_equiv_pos_as_xyz
  x,y,z
_cell_length_a	10.654550
_cell_length_b	19.188930
_cell_length_c	9.730223
_cell_angle_alpha	89.993564
_cell_angle_beta	89.996251
_cell_angle_gamma	83.814841
loop_
_atom_site_label
_atom_site_type_symbol
_atom_site_fract_x
_atom_site_fract_y
_atom_site_fract_z
O1	O	1.665759	0.098059	-0.114420
O2	O	1.300083	0.107401	-0.114400
O3	O	1.493474	0.001144	-0.114384
O4	O	1.472368	0.204317	-0.114436
O5	O	1.493471	0.001146	0.114196
O6	O	1.300081	0.107404	0.114180
O7	O	1.665757	0.098061	0.114160
Zn8	Zn	1.482918	0.102733	0.150462
Zn9	Zn	1.482921	0.102730	-0.150702
O10	O	1.472366	0.204319	0.114144
C11	C	1.253298	0.106717	-0.000107
C12	C	1.113898	0.104664	-0.000098
C13	C	1.033089	0.167227	-0.000134
C14	C	0.902109	0.165295	-0.000157
C15	C	0.932761	0.038231	-0.000114
C16	C	1.063738	0.040164	-0.000081
C17	C	1.083249	0.231728	-0.000151
C18	C	1.002438	0.294296	-0.000189
C19	C	0.871458	0.292363	-0.000212
C20	C	0.821289	0.227863	-0.000198
C21	C	1.492789	-0.024871	-0.000090
C22	C	1.490737	-0.102389	-0.000078
C23	C	1.604213	-0.146570	-0.000078
C24	C	1.602285	-0.219407	-0.000099
C25	C	1.486876	-0.248058	-0.000094
C26	C	1.373386	-0.203867	-0.000102
C27	C	1.375316	-0.131032	-0.000094
N28	N	1.398658	-0.356639	0.077701
N29	N	1.396832	-0.425830	0.077696
C30	C	1.481052	-0.467505	-0.000121
N31	N	1.567186	-0.437377	-0.077917
N32	N	1.569016	-0.368180	-0.077906
C33	C	1.484770	-0.327034	-0.000104
C34	C	1.592445	-0.590665	-0.000147
C35	C	1.590513	-0.663502	-0.000177
C36	C	1.361610	-0.647960	-0.000166
C37	C	1.363545	-0.575125	-0.000149
C38	C	1.478966	-0.546481	-0.000133
C39	C	1.712541	0.098746	-0.000136
C40	C	1.851941	0.100798	-0.000154
C41	C	1.473051	0.230334	-0.000153
C42	C	1.475102	0.307852	-0.000174
N43	N	1.482925	0.102735	0.355998
N44	N	1.482924	0.102722	-0.356238
C45	C	1.568581	0.055700	0.427932
C46	C	1.568577	0.055692	0.571815
C47	C	1.397260	0.149759	0.571818
C48	C	1.397258	0.149764	0.427938
C49	C	1.654248	0.008672	0.355992
C50	C	1.739911	-0.038367	0.427925
C51	C	1.739908	-0.038375	0.571808
C52	C	1.654242	0.008655	0.643758
H53	H	1.694693	-0.255386	-0.000105
H54	H	1.682922	-0.699475	-0.000185
O55	O	1.314006	0.195348	0.641860
C56	C	1.236730	0.157553	0.725073
H57	H	1.287050	0.103176	0.746624
H58	H	1.216709	0.186587	0.826251
H59	H	1.143947	0.152332	0.669636
H60	H	0.891902	-0.014283	-0.000125
O61	O	1.142066	-0.020674	-0.000118
C62	C	1.069711	-0.078018	-0.000092
H63	H	0.971862	-0.060775	-0.043392
H64	H	1.118294	-0.121891	-0.066438
H65	H	1.060469	-0.097759	0.109570
O66	O	1.716439	-0.118863	-0.000132
C67	C	1.816183	-0.173484	-0.000100
H68	H	1.781255	-0.223121	-0.043381
H69	H	1.896790	-0.157870	-0.066459
H70	H	1.851159	-0.183628	0.109562
O71	O	0.694077	0.225894	-0.000397
C72	C	0.658748	0.190413	-0.118798
H73	H	0.743185	0.154432	-0.158244
H74	H	0.578652	0.157886	-0.092181
H75	H	0.625837	0.230230	-0.201708
H76	H	1.686428	-0.567342	-0.000140
O77	O	1.210503	0.233516	0.000054
C78	C	1.262641	0.199336	0.118477
H79	H	1.196100	0.161129	0.157953
H80	H	1.357803	0.169393	0.091877
H81	H	1.276180	0.239844	0.201357
H82	H	0.805665	0.343309	-0.000229
O83	O	1.253198	-0.532302	-0.000071
C84	C	1.150918	-0.573206	-0.000105
H85	H	1.183093	-0.627407	0.043159
H86	H	1.071433	-0.546734	0.066266
H87	H	1.115522	-0.578552	-0.109765
H88	H	1.327509	0.188064	0.369370
H89	H	1.043295	0.346810	-0.000189
O90	O	1.261356	-0.231778	-0.000278
C91	C	1.253382	-0.273422	-0.118680
H92	H	1.352462	-0.291075	-0.158150
H93	H	1.203587	-0.321353	-0.092056
H94	H	1.197650	-0.241512	-0.201575
O95	O	1.265114	-0.088081	-0.000330
C96	C	1.259401	-0.045460	-0.118687
H97	H	1.323767	-0.071810	-0.201437
H98	H	1.158202	-0.037756	-0.158421
H99	H	1.291613	0.007649	-0.091910
H100	H	1.267641	-0.671287	-0.000168
H101	H	1.654261	0.008676	0.238835
O102	O	1.823028	-0.084008	0.357827
C103	C	1.804623	-0.073941	0.215409
H104	H	1.757439	-0.018663	0.195740
H105	H	1.899748	-0.081257	0.160697
H106	H	1.741801	-0.113762	0.174624
H107	H	1.809649	-0.076680	0.630375
O108	O	1.654434	0.008570	0.783526
C109	C	1.748376	-0.043046	0.831594
H110	H	1.823255	-0.054830	0.748681
H111	H	1.794009	-0.023149	0.927856
H112	H	1.703831	-0.092896	0.857114
