data_functionalizedCrystal
_audit_creation_method	'MofGen! by Chris Wilmer'
_symmetry_space_group_name_H-M	'P1'
_symmetry_Int_Tables_number	1
_symmetry_cell_setting	triclinic
loop_
_symmetry_equiv_pos_as_xyz
  x,y,z
_cell_length_a	9.065218
_cell_length_b	9.482900
_cell_length_c	9.065218
_cell_angle_alpha	80.524781
_cell_angle_beta	85.015885
_cell_angle_gamma	99.429133
loop_
_atom_site_label
_atom_site_type_symbol
_atom_site_fract_x
_atom_site_fract_y
_atom_site_fract_z
O1	O	1.983090	0.120893	0.193561
O2	O	2.316424	0.454226	0.526894
O3	O	2.649757	0.787560	0.860228
O4	O	1.553806	0.120895	0.211307
O5	O	1.887139	0.454228	0.544640
O6	O	2.220473	0.787561	0.877974
O7	O	1.777321	0.120891	-0.012208
O8	O	2.110654	0.454224	0.321126
O9	O	2.443987	0.787557	0.654459
O10	O	1.759575	0.120897	0.417076
O11	O	2.092909	0.454230	0.750409
O12	O	2.426242	0.787563	1.083743
O13	O	1.731922	-0.120901	0.033378
O14	O	2.065256	0.212432	0.366711
O15	O	2.398589	0.545766	0.700044
O16	O	1.508407	-0.120897	0.256893
O17	O	1.841741	0.212436	0.590226
O18	O	2.175074	0.545769	0.923559
O19	O	1.937692	-0.120899	0.239147
O20	O	2.271025	0.212435	0.572480
O21	O	2.604359	0.545768	0.905813
Cu22	Cu	1.718904	-0.142975	0.252182
Cu23	Cu	2.052238	0.190358	0.585515
Cu24	Cu	2.385571	0.523691	0.918849
Cu25	Cu	1.772593	0.142971	0.198272
Cu26	Cu	2.105927	0.476305	0.531605
Cu27	Cu	2.439260	0.809638	0.864938
O28	O	1.714177	-0.120895	0.462661
O29	O	2.047510	0.212438	0.795995
O30	O	2.380844	0.545772	1.129328
C31	C	1.476120	-0.000001	0.232394
C32	C	1.809453	0.333332	0.565728
C33	C	2.142787	0.666666	0.899061
C34	C	1.312277	-0.000000	0.227295
C35	C	1.645611	0.333333	0.560628
C36	C	1.978944	0.666666	0.893961
N37	N	1.681153	-0.344095	0.290099
N38	N	2.014487	-0.010762	0.623432
N39	N	2.347820	0.322572	0.956765
C40	C	1.761448	-0.416296	0.209448
C41	C	2.094781	-0.082962	0.542781
C42	C	2.428115	0.250371	0.876114
C43	C	1.730049	-0.583712	0.241007
C44	C	2.063383	-0.250379	0.574340
C45	C	2.396716	0.082954	0.907673
C46	C	2.015378	0.000000	0.218059
C47	C	2.348712	0.333333	0.551392
C48	C	2.682045	0.666667	0.884725
C49	C	2.179223	0.000009	0.223157
C50	C	2.512556	0.333342	0.556490
C51	C	2.845890	0.666676	0.889823
C52	C	1.752916	-0.000003	-0.044402
C53	C	2.086250	0.333331	0.288931
C54	C	2.419583	0.666664	0.622265
C55	C	1.747818	0.000004	-0.208246
C56	C	2.081151	0.333338	0.125087
C57	C	2.414485	0.666671	0.458420
N58	N	1.810356	0.344091	0.160343
N59	N	2.143689	0.677424	0.493677
N60	N	2.477023	1.010757	0.827010
C61	C	1.738582	0.000002	0.494855
C62	C	2.071915	0.333335	0.828188
C63	C	2.405249	0.666668	1.161522
C64	C	1.743682	0.000004	0.658698
C65	C	2.077015	0.333338	0.992031
C66	C	2.410349	0.666671	1.325364
H67	H	1.853432	-0.354169	0.117029
H68	H	2.186765	-0.020836	0.450362
H69	H	2.520099	0.312498	0.783696
Cl70	Cl	1.588008	-0.679618	0.383687
Cl71	Cl	1.921341	-0.346285	0.717020
Cl72	Cl	2.254675	-0.012952	1.050353
Cl73	Cl	1.952710	-0.560007	0.017973
Cl74	Cl	2.286043	-0.226674	0.351306
Cl75	Cl	2.619377	0.106659	0.684639
Cl76	Cl	1.539118	-0.440006	0.432773
Cl77	Cl	1.872451	-0.106673	0.766106
Cl78	Cl	2.205784	0.226660	1.099440
