data_functionalizedCrystal
_audit_creation_method	'MofGen! by Chris Wilmer'
_symmetry_space_group_name_H-M	'P1'
_symmetry_Int_Tables_number	1
_symmetry_cell_setting	triclinic
loop_
_symmetry_equiv_pos_as_xyz
  x,y,z
_cell_length_a	18.215407
_cell_length_b	16.959453
_cell_length_c	18.215407
_cell_angle_alpha	90.012290
_cell_angle_beta	90.007771
_cell_angle_gamma	90.017431
loop_
_atom_site_label
_atom_site_type_symbol
_atom_site_fract_x
_atom_site_fract_y
_atom_site_fract_z
Zn1	Zn	1.125027	-0.314866	0.416067
Zn2	Zn	1.124967	-0.447015	0.293000
Zn3	Zn	1.001980	-0.314849	0.293020
Zn4	Zn	1.001936	-0.447001	0.416031
O5	O	1.063478	-0.380933	0.354529
O6	O	1.228003	-0.332410	0.399749
O7	O	1.108646	-0.429482	0.190019
O8	O	1.018347	-0.204240	0.309365
O9	O	1.227959	-0.429499	0.309333
O10	O	1.108749	-0.204253	0.399768
O11	O	1.018288	-0.332380	0.190033
O12	O	0.898990	-0.332366	0.309330
O13	O	1.018271	-0.429474	0.519020
O14	O	0.898958	-0.429457	0.399706
O15	O	1.108706	-0.332395	0.519046
O16	O	1.108603	-0.557624	0.309297
O17	O	1.018213	-0.557614	0.399687
C18	C	0.872271	-0.380909	0.354516
C19	C	0.790473	-0.380917	0.354528
C20	C	0.602301	-0.330467	0.401683
C21	C	0.525442	-0.330474	0.401685
C22	C	0.525407	-0.431421	0.307389
C23	C	0.602264	-0.431410	0.307383
C24	C	0.640709	-0.380934	0.354534
C25	C	0.486993	-0.380952	0.354542
C26	C	0.403659	-0.380960	0.354545
C27	C	0.724048	-0.380925	0.354531
C28	C	1.063416	-0.586299	0.354502
C29	C	1.063457	-0.674156	0.354515
C30	C	1.110610	-1.045579	0.401691
C31	C	1.016551	-1.045683	0.307477
C32	C	1.016523	-0.963137	0.307460
C33	C	1.063539	-0.921809	0.354560
C34	C	1.110583	-0.963026	0.401677
C35	C	0.969476	-0.921914	0.260350
C36	C	0.969446	-0.839363	0.260332
C37	C	1.016466	-0.798033	0.307428
C38	C	1.063512	-0.839255	0.354546
C39	C	1.110528	-0.797927	0.401646
C40	C	1.157578	-0.839147	0.448761
C41	C	1.157603	-0.921696	0.448773
C42	C	1.016441	-0.715484	0.307416
C43	C	1.110501	-0.715373	0.401632
C44	C	1.255431	-0.380958	0.354543
C45	C	1.337229	-0.380969	0.354548
C46	C	1.063490	-0.380935	0.546482
C47	C	1.063496	-0.380936	0.628281
C48	C	1.063559	-0.174765	0.354573
C49	C	1.063594	-0.086908	0.354591
C50	C	1.110570	-0.330395	0.816490
C51	C	1.110566	-0.330395	0.893349
C52	C	1.016397	-0.431488	0.893310
C53	C	1.016398	-0.431484	0.816453
C54	C	1.063489	-0.380939	0.778045
C55	C	1.063484	-0.380942	0.931761
C56	C	1.063479	-0.380942	1.015094
C57	C	1.063493	-0.380937	0.694706
C58	C	1.063465	-0.380948	1.163323
C59	C	1.063477	-0.380945	1.081524
H60	H	1.148790	-0.681728	0.439984
H61	H	1.195856	-0.805488	0.487113
F62	F	0.966281	-0.485278	0.775534
F63	F	0.643214	-0.276744	0.451862
F64	F	0.484568	-0.276759	0.451866
H65	H	1.148903	-0.289236	0.924648
F66	F	1.160684	-1.089449	0.451829
H67	H	0.978269	-1.079338	0.269134
F68	F	0.919429	-0.965902	0.210239
F69	F	0.484484	-0.485140	0.257212
F70	F	0.919370	-0.795500	0.210190
H71	H	0.978059	-0.472642	0.924591
H72	H	0.633537	-0.472507	0.268986
F73	F	0.966369	-0.671618	0.257278
F74	F	1.207670	-0.965571	0.498914
F75	F	1.160686	-0.276599	0.775616
