data_functionalizedCrystal
_audit_creation_method	'MofGen! by Chris Wilmer'
_symmetry_space_group_name_H-M	'P1'
_symmetry_Int_Tables_number	1
_symmetry_cell_setting	triclinic
loop_
_symmetry_equiv_pos_as_xyz
  x,y,z
_cell_length_a	16.109301
_cell_length_b	17.699083
_cell_length_c	15.186229
_cell_angle_alpha	89.995368
_cell_angle_beta	89.999362
_cell_angle_gamma	83.372248
loop_
_atom_site_label
_atom_site_type_symbol
_atom_site_fract_x
_atom_site_fract_y
_atom_site_fract_z
O1	O	1.102963	0.097285	-0.073175
O2	O	1.602963	0.597285	0.426825
O3	O	0.860880	0.109391	-0.073189
O4	O	1.360880	0.609391	0.426811
O5	O	0.988761	-0.006841	-0.073174
O6	O	1.488761	0.493159	0.426826
O7	O	0.975082	0.213517	-0.073190
O8	O	1.475082	0.713517	0.426810
O9	O	0.988753	-0.006843	0.073284
O10	O	1.488753	0.493157	0.573284
O11	O	0.860872	0.109390	0.073268
O12	O	1.360872	0.609390	0.573268
O13	O	1.102955	0.097283	0.073283
O14	O	1.602955	0.597283	0.573283
Zn15	Zn	0.981912	0.103336	0.096529
Zn16	Zn	1.481912	0.603336	0.596529
Zn17	Zn	0.981923	0.103338	-0.096435
Zn18	Zn	1.481923	0.603338	0.403565
O19	O	0.975074	0.213516	0.073267
O20	O	1.475074	0.713516	0.573267
C21	C	0.829902	0.108900	0.000038
C22	C	1.329902	0.608900	0.500038
C23	C	0.737609	0.107430	0.000033
C24	C	1.237609	0.607430	0.500033
C25	C	0.515224	0.172981	0.000038
C26	C	1.015224	0.672981	0.500038
C27	C	0.428506	0.171594	0.000044
C28	C	0.928506	0.671594	0.500044
C29	C	0.448618	0.033688	0.000050
C30	C	0.948618	0.533688	0.500050
C31	C	0.535334	0.035076	0.000051
C32	C	1.035334	0.535076	0.500051
C33	C	0.568635	0.104725	0.000040
C34	C	1.068635	0.604725	0.500040
C35	C	0.395200	0.101949	0.000046
C36	C	0.895200	0.601949	0.500046
C37	C	0.301177	0.100445	0.000052
C38	C	0.801177	0.600445	0.500052
C39	C	0.662664	0.106230	0.000036
C40	C	1.162664	0.606230	0.500036
C41	C	0.988267	-0.035040	0.000055
C42	C	1.488267	0.464960	0.500055
C43	C	0.986796	-0.119060	0.000055
C44	C	1.486796	0.380940	0.500055
C45	C	1.061860	-0.167574	0.000061
C46	C	1.561860	0.332426	0.500061
C47	C	1.060473	-0.246519	0.000053
C48	C	1.560473	0.253481	0.500053
C49	C	0.984022	-0.276949	0.000046
C50	C	1.484022	0.223051	0.500046
C51	C	0.908953	-0.228429	0.000038
C52	C	1.408953	0.271571	0.500038
C53	C	0.910341	-0.149485	0.000039
C54	C	1.410341	0.350515	0.500039
C55	C	0.903356	-0.546800	0.000030
C56	C	1.403356	-0.046800	0.500030
C57	C	0.901974	-0.625750	0.000031
C58	C	1.401974	-0.125750	0.500031
C59	C	1.053488	-0.643834	0.000044
C60	C	1.553488	-0.143834	0.500044
C61	C	1.054876	-0.564890	0.000046
C62	C	1.554876	-0.064890	0.500046
C63	C	0.979807	-0.516377	0.000033
C64	C	1.479807	-0.016377	0.500033
C65	C	0.981312	-0.430776	0.000040
C66	C	1.481312	0.069224	0.500040
C67	C	0.982517	-0.362549	0.000045
C68	C	1.482517	0.137451	0.500045
C69	C	1.133933	0.097774	0.000054
C70	C	1.633933	0.597774	0.500054
C71	C	1.226226	0.099244	0.000053
C72	C	1.726226	0.599244	0.500053
C73	C	0.975568	0.241714	0.000037
C74	C	1.475568	0.741714	0.500037
C75	C	0.977039	0.325734	0.000031
C76	C	1.477039	0.825734	0.500031
N77	N	0.981910	0.103334	0.228221
N78	N	1.481910	0.603334	0.728221
N79	N	0.981931	0.103334	-0.228128
N80	N	1.481931	0.603334	0.271872
C81	C	1.038555	0.051884	0.453951
C82	C	1.538555	0.551884	0.953951
C83	C	1.038558	0.051882	0.546141
C84	C	1.538558	0.551882	1.046141
C85	C	0.925280	0.154787	0.546136
C86	C	1.425280	0.654787	1.046136
C87	C	0.925274	0.154785	0.453948
C88	C	1.425274	0.654785	0.953948
C89	C	0.981916	0.103334	0.407858
C90	C	1.481916	0.603334	0.907858
C91	C	0.981925	0.103334	0.592236
C92	C	1.481925	0.603334	1.092236
C93	C	0.981927	0.103333	0.692192
C94	C	1.481927	0.603333	1.192192
C95	C	0.981913	0.103334	0.307896
C96	C	1.481913	0.603334	0.807896
H97	H	0.542334	0.229694	0.000036
H98	H	1.042334	0.729694	0.500036
H99	H	0.839715	-0.650523	0.000027
H100	H	1.339715	-0.150523	0.500027
Cl101	Cl	0.808983	-0.485823	0.000012
Cl102	Cl	1.308983	0.014177	0.500012
H103	H	1.084677	0.009985	0.583667
H104	H	1.584677	0.509985	1.083667
Cl105	Cl	0.854080	0.219468	0.604082
Cl106	Cl	1.354080	0.719468	1.104082
Cl107	Cl	1.154843	-0.307505	0.000063
Cl108	Cl	1.654843	0.192495	0.500063
H109	H	0.385022	0.227175	0.000044
H110	H	0.885022	0.727175	0.500044
Cl111	Cl	0.854062	0.219467	0.395997
Cl112	Cl	1.354062	0.719467	0.895997
Cl113	Cl	0.406748	-0.053866	0.000058
Cl114	Cl	0.906748	0.446134	0.500058
Cl115	Cl	0.602484	-0.050740	0.000061
Cl116	Cl	1.102484	0.449260	0.500061
Cl117	Cl	1.157975	-0.129328	0.000079
Cl118	Cl	1.657975	0.370672	0.500079
H119	H	1.117130	-0.540119	0.000056
H120	H	1.617130	-0.040119	0.500056
H121	H	0.846705	-0.253211	0.000026
H122	H	1.346705	0.246789	0.500026
H123	H	1.114613	-0.683343	0.000050
H124	H	1.614613	-0.183343	0.500050
Cl125	Cl	0.815971	-0.088496	0.000029
Cl126	Cl	1.315971	0.411504	0.500029
H127	H	1.084675	0.009988	0.416427
H128	H	1.584675	0.509988	0.916427
