data_functionalizedCrystal
_audit_creation_method	'MofGen! by Chris Wilmer'
_symmetry_space_group_name_H-M	'P1'
_symmetry_Int_Tables_number	1
_symmetry_cell_setting	triclinic
loop_
_symmetry_equiv_pos_as_xyz
  x,y,z
_cell_length_a	12.759401
_cell_length_b	18.101397
_cell_length_c	12.759393
_cell_angle_alpha	90.036577
_cell_angle_beta	90.020938
_cell_angle_gamma	90.021990
loop_
_atom_site_label
_atom_site_type_symbol
_atom_site_fract_x
_atom_site_fract_y
_atom_site_fract_z
Zn1	Zn	1.606224	-0.294764	0.593976
Zn2	Zn	1.606098	-0.418623	0.418277
Zn3	Zn	1.430523	-0.294803	0.418311
Zn4	Zn	1.430497	-0.418571	0.593914
O5	O	1.518336	-0.356690	0.506120
O6	O	1.753228	-0.311199	0.570681
O7	O	1.582765	-0.402236	0.271261
O8	O	1.453894	-0.191165	0.441653
O9	O	1.753135	-0.402198	0.441596
O10	O	1.582981	-0.191136	0.570713
O11	O	1.453771	-0.311266	0.271285
O12	O	1.283499	-0.311216	0.441594
O13	O	1.453850	-0.402110	0.740944
O14	O	1.283480	-0.402148	0.570609
O15	O	1.582956	-0.311149	0.740989
O16	O	1.582740	-0.522249	0.441536
O17	O	1.453727	-0.522211	0.570576
C18	C	1.245368	-0.356681	0.506099
C19	C	1.128592	-0.356695	0.506115
C20	C	1.073747	-0.404115	0.573187
C21	C	0.964023	-0.404118	0.573208
C22	C	0.963997	-0.309278	0.439075
C23	C	1.073719	-0.309272	0.439060
C24	C	0.814123	-0.430691	0.697064
C25	C	0.759275	-0.478123	0.764128
C26	C	0.794863	-0.550396	0.780065
C27	C	0.885296	-0.575251	0.728923
C28	C	0.940139	-0.527823	0.661852
C29	C	0.904553	-0.455540	0.645935
C30	C	1.223621	-0.282707	0.315202
C31	C	1.278466	-0.235282	0.248125
C32	C	1.242880	-0.163008	0.232177
C33	C	1.152443	-0.138156	0.283301
C34	C	1.097599	-0.185581	0.350378
C35	C	1.133192	-0.257853	0.366327
C36	C	1.518246	-0.549101	0.506069
C37	C	1.518303	-0.631415	0.506082
C38	C	1.518437	-0.930506	0.506178
C39	C	1.599382	-0.899174	0.424772
C40	C	1.599663	-0.813555	0.424983
C41	C	1.518371	-0.782123	0.506129
C42	C	1.548391	-0.813122	0.616871
C43	C	1.549018	-0.898767	0.616428
C44	C	1.407256	-0.899019	0.477801
C45	C	1.407805	-0.813370	0.475329
C46	C	1.518332	-0.698264	0.506109
C47	C	1.518479	-1.014365	0.506206
C48	C	1.792369	-0.356700	0.506141
C49	C	1.909145	-0.356704	0.506150
C50	C	1.518414	-0.356619	0.780153
C51	C	1.518448	-0.356589	0.896930
C52	C	1.518454	-0.163528	0.506194
C53	C	1.518505	-0.081214	0.506225
C54	C	1.518318	-0.356708	0.233152
C55	C	1.518488	-0.356529	0.116376
C56	C	1.585678	-0.309218	0.951817
C57	C	1.585696	-0.309186	1.061541
C58	C	1.451250	-0.403902	1.061481
C59	C	1.451228	-0.403930	0.951759
C60	C	1.623320	-0.221811	1.211532
C61	C	1.690567	-0.174447	1.266423
C62	C	1.793082	-0.163090	1.230833
C63	C	1.828370	-0.199109	1.140355
C64	C	1.761129	-0.246479	1.085469
C65	C	1.658600	-0.257821	1.121058
C66	C	1.413614	-0.491306	0.801766
C67	C	1.346377	-0.538680	0.746879
C68	C	1.243861	-0.550044	0.782466
C69	C	1.208576	-0.514038	0.872948
C70	C	1.275813	-0.466664	0.927836
C71	C	1.378328	-0.455299	0.892241
H72	H	1.287540	-0.124398	0.177548
Br73	Br	1.484181	-0.237207	1.259828
H74	H	1.789862	-0.275808	1.011806
H75	H	1.118421	-0.442728	0.627790
H76	H	1.640410	-0.270668	0.907178
Br77	Br	0.889522	-0.244922	0.348077
H78	H	1.023965	-0.165337	0.392012
Br79	Br	1.884345	-0.098813	1.305333
Br80	Br	1.642679	-0.125568	1.389213
Br81	Br	1.301869	-0.777723	0.566915
Br82	Br	1.306734	-0.932790	0.576621
Br83	Br	1.360031	-0.468150	1.135899
H84	H	0.685644	-0.457879	0.805768
Br85	Br	1.394269	-0.587557	0.624089
H86	H	0.750198	-0.589015	0.834670
H87	H	1.911852	-0.189865	1.111390
H88	H	0.785146	-0.371839	0.684105
Br89	Br	1.568465	-0.933593	0.287495
Br90	Br	1.453124	-0.779197	0.720686
H91	H	1.247076	-0.437346	1.001512
Br92	Br	1.104133	-0.040071	0.261648
Br93	Br	1.062860	-0.561548	0.592444
Br94	Br	1.069445	-0.529462	0.921257
Br95	Br	1.401190	-0.269017	0.178722
Br96	Br	1.271817	-0.380839	0.336698
Br97	Br	1.152620	-0.614356	0.707992
Br98	Br	1.552734	-0.475858	0.753434
H99	H	0.914258	-0.634106	0.741896
H100	H	1.385169	-0.793117	0.393832
Br101	Br	1.735903	-0.934946	0.455700
Br102	Br	1.568279	-0.778624	0.288140
Br103	Br	1.736929	-0.779303	0.456281
H104	H	1.630287	-0.918682	0.640466
Br105	Br	1.455009	-0.933311	0.720954
H106	H	1.628750	-0.791611	0.641315
Br107	Br	1.361735	-0.935133	0.345543
