data_functionalizedCrystal
_audit_creation_method	'MofGen! by Chris Wilmer'
_symmetry_space_group_name_H-M	'P1'
_symmetry_Int_Tables_number	1
_symmetry_cell_setting	triclinic
loop_
_symmetry_equiv_pos_as_xyz
  x,y,z
_cell_length_a	15.711784
_cell_length_b	23.532357
_cell_length_c	14.185197
_cell_angle_alpha	75.149714
_cell_angle_beta	80.102551
_cell_angle_gamma	101.208546
loop_
_atom_site_label
_atom_site_type_symbol
_atom_site_fract_x
_atom_site_fract_y
_atom_site_fract_z
O1	O	1.126792	0.296617	0.083517
O2	O	1.626792	0.796617	0.583517
O3	O	0.875515	0.253333	0.083501
O4	O	1.375515	0.753333	0.583501
O5	O	1.008758	0.193657	0.083489
O6	O	1.508758	0.693657	0.583489
O7	O	0.993550	0.356293	0.083529
O8	O	1.493550	0.856293	0.583529
O9	O	1.043470	0.223950	-0.083346
O10	O	1.543470	0.723950	0.416654
O11	O	0.910227	0.283627	-0.083334
O12	O	1.410227	0.783627	0.416666
O13	O	1.161504	0.326910	-0.083319
O14	O	1.661504	0.826910	0.416681
Cu15	Cu	1.039035	0.308034	-0.098560
Cu16	Cu	1.539035	0.808034	0.401440
Cu17	Cu	0.997984	0.272209	0.098743
Cu18	Cu	1.497984	0.772209	0.598743
O19	O	1.028262	0.386587	-0.083306
O20	O	1.528262	0.886587	0.416694
C21	C	0.860730	0.261409	0.000081
C22	C	1.360730	0.761409	0.500081
C23	C	0.764960	0.240334	0.000075
C24	C	1.264960	0.740334	0.500075
C25	C	0.640719	0.160993	0.000054
C26	C	1.140719	0.660993	0.500054
C27	C	0.730709	0.180802	0.000060
C28	C	1.230709	0.680802	0.500060
C29	C	0.709226	0.280080	0.000089
C30	C	1.209226	0.780080	0.500089
C31	C	0.619232	0.260278	0.000087
C32	C	1.119232	0.760278	0.500087
C33	C	0.584986	0.200734	0.000069
C34	C	1.084986	0.700734	0.500069
C35	C	0.563500	0.300020	0.000103
C36	C	1.063500	0.800020	0.500103
C37	C	0.473514	0.280221	0.000096
C38	C	0.973514	0.780221	0.500096
C39	C	0.439262	0.220680	0.000075
C40	C	0.939262	0.720680	0.500075
C41	C	0.495001	0.180935	0.000063
C42	C	0.995001	0.680935	0.500063
C43	C	0.597749	0.359565	0.000114
C44	C	1.097749	0.859565	0.500114
C45	C	0.542016	0.399307	0.000129
C46	C	1.042016	0.899307	0.500129
C47	C	0.452028	0.379506	0.000130
C48	C	0.952028	0.879506	0.500130
C49	C	0.417775	0.319965	0.000108
C50	C	0.917775	0.819965	0.500108
C51	C	0.396288	0.419251	0.000142
C52	C	0.896288	0.919251	0.500142
C53	C	0.306303	0.399451	0.000135
C54	C	0.806303	0.899451	0.500135
C55	C	0.327790	0.300166	0.000102
C56	C	0.827790	0.800166	0.500102
C57	C	1.025734	0.187507	0.000068
C58	C	1.525734	0.687507	0.500068
C59	C	1.024593	0.124047	0.000059
C60	C	1.524593	0.624047	0.500059
C61	C	0.998484	-0.286008	0.091054
C62	C	1.498484	0.213992	0.591054
C63	C	0.997397	-0.345639	0.091060
C64	C	1.497397	0.154361	0.591060
O65	O	0.980713	-0.390525	0.168403
O66	O	1.480713	0.109475	0.668403
N67	N	1.015779	-0.358952	0.000119
N68	N	1.515779	0.141048	0.500119
C69	C	1.035242	-0.312631	-0.090833
C70	C	1.535242	0.187369	0.409167
O71	O	1.050777	-0.329430	-0.168185
O72	O	1.550777	0.170570	0.331815
C73	C	1.036323	-0.253002	-0.090838
C74	C	1.536323	0.246998	0.409162
C75	C	1.017948	-0.239692	0.000109
C76	C	1.517948	0.260308	0.500109
C77	C	0.980110	-0.272697	0.181994
C78	C	1.480110	0.227303	0.681994
C79	C	0.981199	-0.213070	0.181988
C80	C	1.481199	0.286930	0.681988
C81	C	1.000663	-0.166754	0.091042
C82	C	1.500663	0.333246	0.591042
C83	C	1.019037	-0.180065	0.000103
C84	C	1.519037	0.319935	0.500103
C85	C	1.055779	-0.206683	-0.181789
C86	C	1.555779	0.293317	0.318211
C87	C	1.056858	-0.147052	-0.181786
C88	C	1.556858	0.352948	0.318214
C89	C	1.038483	-0.133742	-0.090839
C90	C	1.538483	0.366258	0.409161
C91	C	1.039591	-0.074122	-0.090849
C92	C	1.539591	0.425878	0.409151
N93	N	1.021208	-0.060809	0.000092
N94	N	1.521208	0.439191	0.500092
C95	C	1.001744	-0.107125	0.091038
C96	C	1.501744	0.392875	0.591038
C97	C	1.032968	-0.437857	-0.090817
C98	C	1.532968	0.062143	0.409183
C99	C	1.031893	-0.497484	-0.090813
C100	C	1.531893	0.002516	0.409187
C101	C	0.994046	-0.530488	0.091081
C102	C	1.494046	-0.030488	0.591081
C103	C	0.995127	-0.470859	0.091076
C104	C	1.495127	0.029141	0.591076
C105	C	1.014585	-0.424544	0.000124
C106	C	1.514585	0.075456	0.500124
C107	C	1.004034	0.018097	0.091018
C108	C	1.504034	0.518097	0.591018
C109	C	1.005129	0.077731	0.091004
C110	C	1.505129	0.577731	0.591004
C111	C	1.042971	0.110730	-0.090889
C112	C	1.542971	0.610730	0.409111
C113	C	1.041881	0.051102	-0.090875
C114	C	1.541881	0.551102	0.409125
C115	C	1.022408	0.004785	0.000086
C116	C	1.522408	0.504785	0.500086
O117	O	1.056263	-0.029207	-0.168152
O118	O	1.556263	0.470793	0.331848
O119	O	0.986201	-0.090318	0.168376
O120	O	1.486201	0.409682	0.668376
C121	C	1.176289	0.318833	0.000104
C122	C	1.676289	0.818833	0.500104
C123	C	1.272057	0.339907	0.000117
C124	C	1.772057	0.839907	0.500117
C125	C	1.011285	0.392736	0.000117
C126	C	1.511285	0.892736	0.500117
C127	C	1.012424	0.456194	0.000133
C128	C	1.512424	0.956194	0.500133
N129	N	1.067914	0.333233	-0.237332
N130	N	1.567914	0.833233	0.262668
C131	C	0.884318	0.173002	-0.604977
C132	C	1.384318	0.673002	-0.104977
C133	C	0.906183	0.192083	-0.709999
C134	C	1.406183	0.692083	-0.209999
C135	C	1.010205	0.282871	-0.709963
C136	C	1.510205	0.782871	-0.209963
C137	C	0.988353	0.263796	-0.604938
C138	C	1.488353	0.763796	-0.104938
C139	C	0.925408	0.208861	-0.552454
C140	C	1.425408	0.708861	-0.052454
C141	C	1.029443	0.299655	-0.552415
C142	C	1.529443	0.799655	-0.052415
C143	C	1.007588	0.280583	-0.447400
C144	C	1.507588	0.780583	0.052600
C145	C	0.944644	0.225652	-0.394908
C146	C	1.444644	0.725652	0.105092
C147	C	0.903554	0.189789	-0.447438
C148	C	1.403554	0.689789	0.052562
C149	C	1.092382	0.354591	-0.604902
C150	C	1.592382	0.854591	-0.104902
C151	C	1.133472	0.390451	-0.552379
C152	C	1.633472	0.890451	-0.052379
C153	C	1.111623	0.371377	-0.447362
C154	C	1.611623	0.871377	0.052638
C155	C	1.048679	0.316445	-0.394870
C156	C	1.548679	0.816445	0.105130
C157	C	1.152713	0.407239	-0.394831
C158	C	1.652713	0.907239	0.105169
C159	C	1.130859	0.388167	-0.289816
C160	C	1.630859	0.888167	0.210184
C161	C	1.026824	0.297373	-0.289855
C162	C	1.526824	0.797373	0.210145
N163	N	0.969112	0.247007	0.237514
N164	N	1.469112	0.747007	0.737514
H165	H	0.299903	0.251677	0.000098
H166	H	0.799903	0.751677	0.500098
O167	O	0.983027	-0.031851	0.189129
O168	O	1.483027	0.468149	0.689129
H169	H	1.040433	-0.052642	0.193495
H170	H	1.540433	0.447358	0.693495
H171	H	0.612832	0.112504	0.000050
H172	H	1.112832	0.612504	0.500050
O173	O	0.958976	0.238096	-0.233276
O174	O	1.458976	0.738096	0.266724
H175	H	0.990701	0.207503	-0.185476
H176	H	1.490701	0.707503	0.314524
O177	O	0.961358	-0.198720	0.280080
O178	O	1.461358	0.301280	0.780080
H179	H	0.947629	-0.240953	0.343312
H180	H	1.447629	0.259047	0.843312
H181	H	0.424187	0.467734	0.000147
H182	H	0.924187	0.967734	0.500147
H183	H	0.980164	-0.460028	0.165133
H184	H	1.480164	0.039972	0.665133
H185	H	1.056851	0.040266	-0.164932
H186	H	1.556851	0.540266	0.335068
H187	H	0.978195	-0.568211	0.165133
H188	H	1.478195	-0.068211	0.665133
H189	H	0.467115	0.132446	0.000058
H190	H	0.967115	0.632446	0.500058
O191	O	0.985298	0.092086	0.189099
O192	O	1.485298	0.592086	0.689099
H193	H	0.971569	0.049857	0.252338
H194	H	1.471569	0.549857	0.752338
H195	H	0.833067	0.128267	-0.562240
H196	H	1.333067	0.628267	-0.062240
H197	H	0.872715	0.162879	-0.752759
H198	H	1.372715	0.662879	-0.252759
O199	O	0.790824	0.137934	0.000053
O200	O	1.290824	0.637934	0.500053
H201	H	0.751887	0.093203	0.000047
H202	H	1.251887	0.593203	0.500047
H203	H	0.365992	0.204561	0.000060
H204	H	0.865992	0.704561	0.500060
O205	O	0.746163	0.344300	0.000112
O206	O	1.246163	0.844300	0.500112
H207	H	0.818098	0.351392	0.000119
H208	H	1.318098	0.851392	0.500119
H209	H	1.061453	0.327600	-0.752710
H210	H	1.561453	0.827600	-0.252710
O211	O	1.115961	0.375160	-0.718169
O212	O	1.615961	0.875160	-0.218169
H213	H	1.055145	0.380330	-0.745868
H214	H	1.555145	0.880330	-0.245868
O215	O	0.246184	0.442313	0.000143
O216	O	0.746184	0.942313	0.500143
H217	H	0.190518	0.423316	0.068133
H218	H	0.690518	0.923316	0.568133
H219	H	0.964256	-0.310405	0.256056
H220	H	1.464256	0.189595	0.756056
O221	O	1.051719	-0.511837	-0.188904
O222	O	1.551719	-0.011837	0.311096
H223	H	1.065429	-0.469608	-0.252140
H224	H	1.565429	0.030392	0.247860
H225	H	0.852303	0.145055	-0.404702
H226	H	1.352303	0.645055	0.095298
O227	O	1.063968	0.160692	-0.188976
O228	O	1.563968	0.660692	0.311024
H229	H	1.014021	0.149989	-0.232590
H230	H	1.514021	0.649989	0.267410
O231	O	0.694804	0.380927	0.000118
O232	O	1.194804	0.880927	0.500118
H233	H	0.709021	0.352377	0.068120
H234	H	1.209021	0.852377	0.568120
H235	H	0.569912	0.447788	0.000140
H236	H	1.069912	0.947788	0.500140
H237	H	1.048816	-0.400148	-0.164885
H238	H	1.548816	0.099852	0.335115
H239	H	1.070743	-0.217508	-0.255848
H240	H	1.570743	0.282492	0.244152
O241	O	1.077856	-0.097094	-0.279886
O242	O	1.577856	0.402906	0.220114
H243	H	1.090458	-0.116372	-0.343118
H244	H	1.590458	0.383628	0.156882
O245	O	1.201373	0.449694	-0.608988
O246	O	1.701373	0.949694	-0.108988
H247	H	1.209676	0.456930	-0.690836
H248	H	1.709676	0.956930	-0.190836
O249	O	0.921046	0.205108	-0.281640
O250	O	1.421046	0.705108	0.218360
H251	H	0.981845	0.199929	-0.253909
H252	H	1.481845	0.699929	0.246091
O253	O	1.220607	0.466485	-0.451442
O254	O	1.720607	0.966485	0.048558
H255	H	1.228905	0.473721	-0.533290
H256	H	1.728905	0.973721	-0.033290
H257	H	1.164315	0.417369	-0.247051
H258	H	1.664315	0.917369	0.252949
