data_functionalizedCrystal
_audit_creation_method	'MofGen! by Chris Wilmer'
_symmetry_space_group_name_H-M	'P1'
_symmetry_Int_Tables_number	1
_symmetry_cell_setting	triclinic
loop_
_symmetry_equiv_pos_as_xyz
  x,y,z
_cell_length_a	15.297327
_cell_length_b	14.908610
_cell_length_c	14.908308
_cell_angle_alpha	89.826017
_cell_angle_beta	102.308214
_cell_angle_gamma	83.011110
loop_
_atom_site_label
_atom_site_type_symbol
_atom_site_fract_x
_atom_site_fract_y
_atom_site_fract_z
Zn1	Zn	-0.470313	-1.259444	-0.663997
Zn2	Zn	-0.612841	-1.242007	-0.536787
Zn3	Zn	-0.452998	-1.120920	-0.502180
Zn4	Zn	-0.611763	-1.083232	-0.678260
O5	O	-0.536979	-1.176401	-0.595306
O6	O	-0.496917	-1.381552	-0.655637
O7	O	-0.584843	-1.234420	-0.405268
O8	O	-0.329203	-1.162366	-0.503193
O9	O	-0.601632	-1.368741	-0.562176
O10	O	-0.341924	-1.264139	-0.622080
O11	O	-0.467407	-1.145458	-0.379843
O12	O	-0.466361	-0.991500	-0.517023
O13	O	-0.599794	-1.098131	-0.803296
O14	O	-0.583005	-0.963810	-0.646388
O15	O	-0.495871	-1.227594	-0.792818
O16	O	-0.738791	-1.197875	-0.576006
O17	O	-0.737998	-1.081223	-0.679945
C18	C	-0.522688	-0.945394	-0.579499
C19	C	-0.516597	-0.846563	-0.572761
C20	C	-0.771091	-1.133590	-0.633300
C21	C	-0.871252	-1.115355	-0.649590
C22	C	-0.447203	-0.721664	-0.495994
C23	C	-0.452921	-0.814525	-0.502319
C24	C	-0.574557	-0.785730	-0.636884
C25	C	-0.568839	-0.692869	-0.630558
C26	C	-0.505161	-0.660839	-0.560110
C27	C	-0.499447	-0.567975	-0.553781
C28	C	-0.621079	-0.539182	-0.688348
C29	C	-0.626797	-0.632044	-0.694674
C30	C	-1.155135	-1.307076	-0.479215
C31	C	-1.061028	-1.324209	-0.463905
C32	C	-1.013580	-1.271997	-0.510325
C33	C	-1.060247	-1.202649	-0.572057
C34	C	-1.154362	-1.185510	-0.587363
C35	C	-1.012807	-1.150431	-0.618473
C36	C	-1.059474	-1.081083	-0.680205
C37	C	-1.153580	-1.063948	-0.695509
C38	C	-1.201029	-1.116159	-0.649089
C39	C	-0.918692	-1.167570	-0.603167
C40	C	-0.917919	-1.046004	-0.711316
C41	C	-1.012025	-1.028871	-0.726625
C42	C	-0.301955	-1.219401	-0.557185
C43	C	-0.201801	-1.237726	-0.540941
C44	C	-0.549644	-1.160604	-0.831888
C45	C	-0.555041	-1.153872	-0.932705
C46	C	-0.551318	-0.408311	-0.611167
C47	C	-0.557407	-0.507143	-0.617903
C48	C	-0.456947	-1.276033	-1.111238
C49	C	-0.462015	-1.269711	-1.205965
C50	C	-0.570240	-1.134904	-1.216885
C51	C	-0.565172	-1.141225	-1.122159
C52	C	-0.508525	-1.211793	-1.069339
C53	C	-0.503462	-1.218118	-0.974612
C54	C	-0.611681	-1.083307	-0.985533
C55	C	-0.616750	-1.076986	-1.080259
C56	C	-0.524301	-1.192199	-0.359637
C57	C	-0.518661	-1.199150	-0.258791
H58	H	-0.447596	-0.541899	-0.496418
F59	F	-0.379442	-0.687572	-0.421010
F60	F	-0.443176	-1.293223	-0.918398
F61	F	-1.301155	-1.097665	-0.665072
H62	H	-0.405723	-0.864047	-0.450112
H63	H	-0.410827	-1.333495	-1.068232
H64	H	-0.616359	-1.077451	-1.259907
F65	F	-1.061703	-0.955068	-0.792323
H66	H	-0.420013	-1.322020	-1.240075
H67	H	-1.193775	-1.349575	-0.441421
H68	H	-0.879287	-1.003487	-0.749113
F69	F	-0.913445	-1.290411	-0.494237
H70	H	-0.626397	-0.811827	-0.694243
H71	H	-0.678640	-0.658136	-0.752033
F72	F	-1.203244	-0.990137	-0.761205
H73	H	-1.023035	-1.380671	-0.413643
F74	F	-0.682761	-0.474441	-0.756594
H75	H	-0.880704	-1.224034	-0.552904
F76	F	-0.677033	-1.001886	-1.136483
F77	F	-0.666586	-1.014941	-0.940936
