data_functionalizedCrystal
_audit_creation_method	'MofGen! by Chris Wilmer'
_symmetry_space_group_name_H-M	'P1'
_symmetry_Int_Tables_number	1
_symmetry_cell_setting	triclinic
loop_
_symmetry_equiv_pos_as_xyz
  x,y,z
_cell_length_a	15.712078
_cell_length_b	14.971486
_cell_length_c	14.048226
_cell_angle_alpha	90.006640
_cell_angle_beta	89.985465
_cell_angle_gamma	78.402362
loop_
_atom_site_label
_atom_site_type_symbol
_atom_site_fract_x
_atom_site_fract_y
_atom_site_fract_z
O1	O	1.147409	-0.490664	-0.079390
O2	O	0.895683	-0.422551	-0.079342
O3	O	1.028293	-0.328607	-0.079361
O4	O	1.014799	-0.584608	-0.079372
O5	O	1.028277	-0.328594	0.078961
O6	O	0.895667	-0.422537	0.078979
O7	O	1.147393	-0.490651	0.078931
Zn8	Zn	1.021527	-0.456592	0.104092
Zn9	Zn	1.021548	-0.456610	-0.104503
O10	O	1.014783	-0.584595	0.078950
C11	C	0.863460	-0.411417	-0.000175
C12	C	0.767471	-0.378250	-0.000156
C13	C	0.400665	-0.659845	-0.000234
C14	C	0.310471	-0.628659	-0.000256
C15	C	0.330926	-0.472394	-0.000252
C16	C	0.421123	-0.503567	-0.000234
C17	C	0.455986	-0.597294	-0.000224
C18	C	0.476444	-0.441015	-0.000224
C19	C	0.566633	-0.472186	-0.000202
C20	C	0.601503	-0.565909	-0.000189
C21	C	0.546175	-0.628465	-0.000202
C22	C	0.441580	-0.347289	-0.000227
C23	C	0.496900	-0.284737	-0.000218
C24	C	0.587091	-0.315908	-0.000202
C25	C	0.621961	-0.409630	-0.000189
C26	C	0.642419	-0.253352	-0.000189
C27	C	0.732608	-0.284523	-0.000166
C28	C	0.712150	-0.440801	-0.000166
C29	C	1.027681	-0.295079	-0.000200
C30	C	1.025873	-0.195192	-0.000201
C31	C	1.179615	-0.501785	-0.000238
C32	C	1.275605	-0.534952	-0.000263
C33	C	1.015394	-0.618123	-0.000213
C34	C	1.017203	-0.718009	-0.000219
N35	N	1.021519	-0.456582	0.246453
C36	C	1.103777	-0.163367	-0.000215
C37	C	1.102073	-0.069512	-0.000224
C38	C	1.022463	-0.007484	-0.000212
C39	C	0.944552	-0.039314	-0.000201
C40	C	0.946258	-0.133168	-0.000198
C41	C	0.941004	0.156305	-0.000204
C42	C	0.939298	0.250165	-0.000204
C43	C	1.096819	0.219961	-0.000229
C44	C	1.098524	0.126108	-0.000227
C45	C	1.020613	0.094283	-0.000214
N46	N	1.021563	-0.456615	-0.246864
C47	C	1.080257	-0.415015	0.296263
C48	C	1.080263	-0.415016	0.395920
C49	C	1.021534	-0.456591	0.445766
C50	C	0.962790	-0.498158	0.395950
C51	C	0.962781	-0.498151	0.296294
C52	C	0.962815	-0.498173	0.603664
C53	C	0.962825	-0.498182	0.703327
C54	C	1.080297	-0.415038	0.703290
C55	C	1.080288	-0.415031	0.603635
C56	C	1.021544	-0.456600	0.553825
H57	H	0.740537	-0.517123	-0.000157
H58	H	1.128085	-0.381165	0.255685
F59	F	0.697492	-0.599084	-0.000130
H60	H	0.777652	-0.233587	-0.000161
H61	H	1.163350	0.075605	-0.000230
F62	F	1.179738	0.253831	-0.000248
H63	H	0.879732	0.011197	-0.000197
H64	H	0.914949	-0.531998	0.255740
F65	F	0.858081	0.122438	-0.000192
F66	F	0.251597	-0.695244	-0.000260
H67	H	0.302528	-0.396081	-0.000249
H68	H	0.914967	-0.532005	0.436540
H69	H	0.574562	-0.704786	-0.000192
F70	F	1.188511	-0.229375	-0.000218
F71	F	0.863341	-0.167037	-0.000186
F72	F	0.605304	-0.153604	-0.000187
H73	H	0.915001	-0.532035	0.743906
H74	H	1.128091	-0.381168	0.436475
F75	F	0.854568	0.316179	-0.000191
F76	F	1.184990	-0.035646	-0.000238
H77	H	1.128113	-0.381183	0.563050
H78	H	0.368141	-0.321912	-0.000234
H79	H	0.429052	-0.736167	-0.000224
F80	F	0.459787	-0.184989	-0.000225
F81	F	1.142817	-0.370799	0.756306
H82	H	0.914977	-0.532020	0.563112
