data_functionalizedCrystal
_audit_creation_method	'MofGen! by Chris Wilmer'
_symmetry_space_group_name_H-M	'P1'
_symmetry_Int_Tables_number	1
_symmetry_cell_setting	triclinic
loop_
_symmetry_equiv_pos_as_xyz
  x,y,z
_cell_length_a	11.026660
_cell_length_b	17.019294
_cell_length_c	10.065875
_cell_angle_alpha	94.957055
_cell_angle_beta	79.302288
_cell_angle_gamma	95.960539
loop_
_atom_site_label
_atom_site_type_symbol
_atom_site_fract_x
_atom_site_fract_y
_atom_site_fract_z
O1	O	1.633209	0.318174	-0.150892
O2	O	1.279285	0.280921	-0.146515
O3	O	1.464032	0.187170	-0.135490
O4	O	1.448462	0.411925	-0.161917
O5	O	1.428805	0.205139	0.089385
O6	O	1.244058	0.298890	0.078361
O7	O	1.597982	0.336143	0.073983
Zn8	Zn	1.415427	0.320369	0.111876
Zn9	Zn	1.461840	0.296695	-0.184408
O10	O	1.413235	0.429894	0.062958
C11	C	1.216346	0.283033	-0.033270
C12	C	1.081292	0.262546	-0.030862
C13	C	0.868842	0.297947	-0.035029
C14	C	1.008428	0.319124	-0.037516
C15	C	1.445133	0.166934	-0.019620
C16	C	1.441290	0.079863	-0.009390
C17	C	1.458689	0.029167	-0.127164
C18	C	1.455069	-0.052646	-0.117548
C19	C	1.434059	-0.083761	0.009842
C20	C	1.416654	-0.033058	0.127624
C21	C	1.420266	0.048752	0.118007
C22	C	1.422186	-0.330287	0.045012
C23	C	1.418579	-0.412103	0.054620
C24	C	1.456992	-0.431686	-0.190553
C25	C	1.460609	-0.349872	-0.200159
C26	C	1.443199	-0.299177	-0.082377
C27	C	1.430362	-0.167386	0.019674
C28	C	1.446887	-0.215554	-0.092210
C29	C	1.660921	0.334031	-0.039265
C30	C	1.795977	0.354518	-0.041682
C31	C	1.432134	0.450130	-0.052915
C32	C	1.435979	0.537201	-0.063153
N33	N	1.383760	0.336528	0.314081
N34	N	1.493517	0.280532	-0.386612
C35	C	1.450814	0.302311	0.385884
C36	C	1.426452	0.314754	0.541588
H37	H	1.049377	0.383238	-0.045046
C38	C	1.324523	0.366778	0.614246
C39	C	1.331434	0.454522	0.584416
C40	C	1.229507	0.506544	0.657076
C41	C	1.120670	0.470823	0.759566
C42	C	1.113754	0.383075	0.789401
C43	C	1.215681	0.331052	0.716741
H44	H	1.412006	0.480969	0.508543
H45	H	1.234627	0.571502	0.634990
H46	H	1.045217	0.509334	0.813353
H47	H	1.033182	0.356628	0.865274
H48	H	1.210561	0.266095	0.738827
H49	H	1.040357	0.198425	-0.023413
H50	H	1.568962	0.242019	0.559596
C51	C	1.481802	0.063389	-0.267296
C52	C	1.602553	0.049997	-0.367805
C53	C	1.625662	0.084217	-0.507941
C54	C	1.528021	0.131828	-0.547569
C55	C	1.407263	0.145222	-0.447059
C56	C	1.384153	0.111002	-0.306922
H57	H	1.674840	0.014751	-0.338472
H58	H	1.715056	0.074301	-0.582346
H59	H	1.545128	0.157159	-0.651307
H60	H	1.334976	0.180469	-0.476392
H61	H	1.294759	0.120918	-0.232518
C62	C	1.470001	-0.181330	-0.232336
C63	C	1.590761	-0.194711	-0.332835
C64	C	1.613883	-0.160478	-0.472961
C65	C	1.516245	-0.112865	-0.512589
C66	C	1.395476	-0.099482	-0.412088
C67	C	1.372355	-0.133714	-0.271961
H68	H	1.663046	-0.229960	-0.303503
H69	H	1.703284	-0.170386	-0.547359
H70	H	1.533361	-0.087523	-0.616319
H71	H	1.323191	-0.064233	-0.441420
H72	H	1.282954	-0.123807	-0.197564
H73	H	1.413259	-0.192728	0.123396
H74	H	1.406080	0.090028	0.213911
H75	H	1.308311	0.375031	0.367880
H76	H	1.401463	-0.437433	0.158361
H77	H	0.827883	0.233840	-0.027471
H78	H	0.836932	0.418627	-0.049211
C79	C	1.483704	-0.315655	-0.340296
C80	C	1.604450	-0.329047	-0.440813
C81	C	1.627545	-0.294832	-0.580952
C82	C	1.529896	-0.247226	-0.620575
C83	C	1.409142	-0.233832	-0.520055
C84	C	1.386047	-0.268047	-0.379916
H85	H	1.676743	-0.364290	-0.411484
H86	H	1.716936	-0.304748	-0.655363
H87	H	1.546992	-0.221898	-0.724315
H88	H	1.336849	-0.198589	-0.549384
H89	H	1.296656	-0.258132	-0.305505
H90	H	1.471165	-0.472970	-0.286445
H91	H	1.469243	-0.093920	-0.213452
H92	H	1.408033	-0.289019	0.140918
H93	H	1.526255	0.263800	0.332088
H94	H	1.399540	-0.058399	0.231348
