data_functionalizedCrystal
_audit_creation_method	'MofGen! by Chris Wilmer'
_symmetry_space_group_name_H-M	'P1'
_symmetry_Int_Tables_number	1
_symmetry_cell_setting	triclinic
loop_
_symmetry_equiv_pos_as_xyz
  x,y,z
_cell_length_a	11.792241
_cell_length_b	16.109301
_cell_length_c	14.586319
_cell_angle_alpha	89.994230
_cell_angle_beta	90.000068
_cell_angle_gamma	83.827448
loop_
_atom_site_label
_atom_site_type_symbol
_atom_site_fract_x
_atom_site_fract_y
_atom_site_fract_z
O1	O	-1.505909	-0.113954	0.076154
O2	O	-1.175465	-0.125698	0.076176
O3	O	-1.349764	0.001162	0.076155
O4	O	-1.331609	-0.240814	0.076175
O5	O	-1.349750	0.001166	-0.076325
O6	O	-1.175451	-0.125695	-0.076305
O7	O	-1.505895	-0.113951	-0.076326
Cu8	Cu	-1.340671	-0.119822	-0.090238
Cu9	Cu	-1.340688	-0.119826	0.090088
O10	O	-1.331595	-0.240811	-0.076306
C11	C	-1.133173	-0.124959	-0.000062
C12	C	-1.007179	-0.122751	-0.000054
C13	C	-1.548186	-0.114690	-0.000087
C14	C	-1.674181	-0.116898	-0.000088
C15	C	-1.349022	0.032142	-0.000085
C16	C	-1.346817	0.124448	-0.000087
C17	C	-0.776502	-0.118690	-0.000080
C18	C	-0.904868	-0.120946	-0.000066
C19	C	-1.332338	-0.271791	-0.000063
C20	C	-1.334542	-0.364097	-0.000055
N21	N	-1.340668	-0.119819	-0.217070
C22	C	-1.445116	0.346258	-0.000078
C23	C	-1.443036	0.432988	-0.000071
C24	C	-1.236235	0.414087	-0.000061
C25	C	-1.238317	0.327358	-0.000062
C26	C	-1.342761	0.293446	-0.000075
C27	C	-1.338599	0.466905	-0.000067
C28	C	-1.336342	0.560942	-0.000058
C29	C	-1.345018	0.199404	-0.000082
C30	C	-1.417878	-0.063664	-0.548073
C31	C	-1.417875	-0.063665	-0.452092
C32	C	-1.263487	-0.175984	-0.452084
C33	C	-1.263496	-0.175987	-0.548063
C34	C	-1.340690	-0.119822	-0.596055
C35	C	-1.340678	-0.119820	-0.404095
C36	C	-1.340675	-0.119821	-0.300028
C37	C	-1.340696	-0.119822	-0.700129
N38	N	-1.340700	-0.119823	0.216920
H39	H	-1.530161	0.318650	-0.000088
F40	F	-1.551977	0.489191	-0.000072
H41	H	-1.151201	0.441709	-0.000052
H42	H	-1.200640	-0.221721	-0.587133
H43	H	-1.154962	0.284357	-0.000057
F44	F	-1.500038	-0.003891	-0.599146
H45	H	-1.200635	-0.221711	-0.412999
H46	H	-1.480730	-0.017937	-0.413027
