data_functionalizedCrystal
_audit_creation_method	'MofGen! by Chris Wilmer'
_symmetry_space_group_name_H-M	'P1'
_symmetry_Int_Tables_number	1
_symmetry_cell_setting	triclinic
loop_
_symmetry_equiv_pos_as_xyz
  x,y,z
_cell_length_a	29.839131
_cell_length_b	19.121102
_cell_length_c	19.120904
_cell_angle_alpha	90.088173
_cell_angle_beta	87.590850
_cell_angle_gamma	92.404422
loop_
_atom_site_label
_atom_site_type_symbol
_atom_site_fract_x
_atom_site_fract_y
_atom_site_fract_z
Zn1	Zn	-0.219753	-1.054749	0.442036
Zn2	Zn	-0.291816	-1.059636	0.324791
Zn3	Zn	-0.213364	-0.942520	0.319821
Zn4	Zn	-0.291514	-0.937448	0.436994
O5	O	-0.254112	-0.998588	0.380911
O6	O	-0.232113	-1.153501	0.430674
O7	O	-0.278861	-1.048269	0.226027
O8	O	-0.151347	-0.957485	0.336063
O9	O	-0.285057	-1.157092	0.344535
O10	O	-0.156042	-1.039939	0.425855
O11	O	-0.221223	-0.962224	0.222376
O12	O	-0.220930	-0.843743	0.331174
O13	O	-0.284542	-0.948840	0.535767
O14	O	-0.278346	-0.840017	0.417260
O15	O	-0.231820	-1.035020	0.539472
O16	O	-0.354640	-1.043351	0.339645
O17	O	-0.354418	-0.953579	0.422080
C18	C	-0.248912	-0.816443	0.373131
C19	C	-0.246699	-0.738519	0.369819
C20	C	-0.370830	-0.998463	0.380870
C21	C	-0.420765	-0.998473	0.380879
C22	C	-0.258860	-0.990819	0.563768
C23	C	-0.260884	-0.987508	0.641691
C24	C	-0.730519	-1.045411	0.338056
C25	C	-0.918195	-1.045496	0.338087
O26	O	-0.942551	-1.085306	0.301646
N27	N	-0.941559	-0.998731	0.380970
C28	C	-0.918001	-0.951945	0.423851
O29	O	-0.942181	-0.912175	0.460332
C30	C	-0.730326	-0.951864	0.423824
C31	C	-0.706964	-0.998627	0.380933
C32	C	-0.707157	-1.092171	0.295169
C33	C	-0.660241	-1.092146	0.295159
C34	C	-0.636686	-1.045362	0.338036
C35	C	-0.660048	-0.998602	0.380923
C36	C	-0.706770	-0.905081	0.466708
C37	C	-0.659848	-0.905066	0.466699
C38	C	-0.636486	-0.951829	0.423808
C39	C	-0.589577	-0.951794	0.423789
N40	N	-0.566213	-0.998559	0.380906
C41	C	-0.589768	-1.045343	0.338030
C42	C	-1.016534	-0.951990	0.423862
C43	C	-1.063452	-0.952010	0.423868
C44	C	-1.063642	-1.045562	0.338104
C45	C	-1.016723	-1.045539	0.338095
C46	C	-0.993169	-0.998755	0.380979
C47	C	-0.491240	-1.045288	0.338011
C48	C	-0.444319	-1.045257	0.338003
C49	C	-0.444133	-0.951708	0.423769
C50	C	-0.491049	-0.951735	0.423775
C51	C	-0.514602	-0.998531	0.380894
O52	O	-0.565193	-0.912011	0.460217
O53	O	-0.565581	-1.085117	0.301566
C54	C	-0.777435	-1.045435	0.338066
C55	C	-0.800797	-0.998676	0.380953
C56	C	-0.777243	-0.951891	0.423830
C57	C	-0.847716	-0.998695	0.380959
C58	C	-0.871270	-1.045479	0.338082
C59	C	-0.847906	-1.092244	0.295199
C60	C	-0.800990	-1.092220	0.295189
C61	C	-0.800607	-0.905126	0.466712
C62	C	-0.847523	-0.905154	0.466718
C63	C	-0.871078	-0.951938	0.423842
C64	C	-0.136939	-0.998732	0.380967
C65	C	-0.087007	-0.998794	0.380991
C66	C	-0.259331	-1.181445	0.388721
C67	C	-0.261556	-1.259368	0.392050
C68	C	-0.275595	-0.699992	0.413013
C69	C	-0.273510	-0.626774	0.409905
C70	C	-0.242531	-0.592086	0.363599
C71	C	-0.213632	-0.630619	0.320403
C72	C	-0.215716	-0.703835	0.323515
C73	C	-0.234741	-0.371117	0.351966
C74	C	-0.232660	-0.297896	0.348855
C75	C	-0.292537	-0.294056	0.438359
C76	C	-0.294620	-0.367274	0.441464
C77	C	-0.265720	-0.405800	0.398271
C78	C	-0.240400	-0.517246	0.360419
C79	C	-0.267849	-0.480639	0.401455
C80	C	-0.249350	-1.006368	0.198766
C81	C	-0.247204	-1.009815	0.120849
C82	C	-0.234387	-1.030820	0.680230
C83	C	-0.236286	-1.027700	0.753446
C84	C	-0.264686	-0.981272	0.788123
C85	C	-0.291184	-0.937956	0.749580
C86	C	-0.289282	-0.941072	0.676364
C87	C	-0.271800	-0.969615	1.009090
C88	C	-0.273701	-0.966503	1.082311
C89	C	-0.218802	-1.056247	1.086172
C90	C	-0.216905	-1.059362	1.012955
C91	C	-0.243401	-1.016043	0.974418
C92	C	-0.266629	-0.978084	0.862963
C93	C	-0.241455	-1.019228	0.899580
H94	H	-0.425299	-1.083337	0.303073
Br95	Br	-0.325241	-0.882285	0.624061
Br96	Br	-0.202908	-1.082227	0.852517
H97	H	-0.293382	-0.934351	0.977722
H98	H	-0.316066	-0.262680	0.473526
Br99	Br	-0.190620	-0.250819	0.285999
H100	H	-0.510411	-1.083395	0.303095
H101	H	-0.297040	-0.595408	0.445078
H102	H	-0.296828	-0.928693	1.110543
H103	H	-0.997359	-0.913892	0.458784
H104	H	-0.781972	-1.130299	0.260264
Br105	Br	-1.095151	-0.888533	0.482068
Br106	Br	-0.317643	-0.747062	0.475856
H107	H	-0.197230	-1.091514	1.117557
H108	H	-0.641222	-1.130227	0.260236
H109	H	-0.314306	-0.900150	0.777819
Br110	Br	-0.739115	-1.155674	0.236973
H111	H	-0.289754	-0.940285	0.891205
Br112	Br	-0.412157	-0.888220	0.481959
Br113	Br	-0.738463	-0.841620	0.524929
Br114	Br	-0.198357	-0.470163	0.297578
H115	H	-0.211262	-1.068629	0.652001
H116	H	-0.781432	-0.867030	0.501629
H117	H	-0.293070	-0.508885	0.439160
H118	H	-0.192183	-0.735203	0.288345
Br119	Br	-0.171585	-0.583542	0.257564
Br120	Br	-0.985022	-1.109004	0.279883
Br121	Br	-0.178362	-1.122376	0.965899
H122	H	-0.640673	-0.866970	0.501623
Br123	Br	-1.095618	-1.109052	0.279912
Br124	Br	-0.879882	-1.155734	0.237007
Br125	Br	-0.522755	-0.888254	0.481966
H126	H	-0.211211	-0.402476	0.316789
H127	H	-0.866540	-0.867068	0.501645
H128	H	-0.319847	-0.395512	0.479171
H129	H	-0.214710	-1.062971	0.784821
