data_functionalizedCrystal
_audit_creation_method	'MofGen! by Chris Wilmer'
_symmetry_space_group_name_H-M	'P1'
_symmetry_Int_Tables_number	1
_symmetry_cell_setting	triclinic
loop_
_symmetry_equiv_pos_as_xyz
  x,y,z
_cell_length_a	12.827893
_cell_length_b	16.625546
_cell_length_c	12.827885
_cell_angle_alpha	89.964876
_cell_angle_beta	89.980538
_cell_angle_gamma	90.022439
loop_
_atom_site_label
_atom_site_type_symbol
_atom_site_fract_x
_atom_site_fract_y
_atom_site_fract_z
Zn1	Zn	1.597620	-0.320963	-0.590810
Zn2	Zn	2.097620	0.179037	-0.090810
Zn3	Zn	1.597492	-0.455817	-0.416054
Zn4	Zn	2.097492	0.044183	0.083946
Zn5	Zn	1.422861	-0.321002	-0.416084
Zn6	Zn	1.922861	0.178998	0.083916
Zn7	Zn	1.422825	-0.455757	-0.590754
Zn8	Zn	1.922825	0.044243	-0.090754
O9	O	1.510200	-0.388385	-0.503425
O10	O	2.010200	0.111615	-0.003425
O11	O	1.743839	-0.338861	-0.567639
O12	O	2.243839	0.161139	-0.067639
O13	O	1.574288	-0.437976	-0.269822
O14	O	2.074288	0.062024	0.230178
O15	O	1.446112	-0.208165	-0.439297
O16	O	1.946112	0.291835	0.060703
O17	O	1.743745	-0.437937	-0.439247
O18	O	2.243745	0.062063	0.060753
O19	O	1.574507	-0.208136	-0.567668
O20	O	2.074507	0.291864	-0.067668
O21	O	1.445988	-0.338928	-0.269843
O22	O	1.945988	0.161072	0.230157
O23	O	1.276620	-0.338869	-0.439243
O24	O	1.776620	0.161131	0.060757
O25	O	1.446051	-0.437835	-0.736997
O26	O	1.946051	0.062165	-0.236997
O27	O	1.276594	-0.437873	-0.567572
O28	O	1.776594	0.062127	-0.067572
O29	O	1.574472	-0.338802	-0.737039
O30	O	2.074472	0.161198	-0.237039
O31	O	1.574254	-0.568642	-0.439192
O32	O	2.074254	-0.068642	0.060808
O33	O	1.445927	-0.568598	-0.567544
O34	O	1.945927	-0.068598	-0.067544
C35	C	1.238690	-0.388370	-0.503405
C36	C	1.738690	0.111630	-0.003405
C37	C	1.122537	-0.388382	-0.503422
C38	C	1.622537	0.111618	-0.003422
C39	C	1.070766	-0.437449	-0.566825
C40	C	1.570766	0.062551	-0.066825
C41	C	0.950716	-0.437464	-0.566844
C42	C	1.450716	0.062536	-0.066844
C43	C	1.510101	-0.597876	-0.503382
C44	C	2.010101	-0.097876	-0.003382
C45	C	1.510154	-0.687497	-0.503398
C46	C	2.010154	-0.187497	-0.003398
C47	C	1.510336	-1.015673	-0.503507
C48	C	2.010336	-0.515673	-0.003507
C49	C	1.510282	-0.924364	-0.503479
C50	C	2.010282	-0.424364	-0.003479
C51	C	1.510244	-0.851588	-0.503452
C52	C	2.010244	-0.351588	-0.003452
C53	C	1.510192	-0.760274	-0.503425
C54	C	2.010192	-0.260274	-0.003425
C55	C	1.782770	-0.388401	-0.503446
C56	C	2.282770	0.111599	-0.003446
C57	C	1.898923	-0.388408	-0.503455
C58	C	2.398923	0.111592	-0.003455
C59	C	1.510272	-0.388308	-0.775996
C60	C	2.010272	0.111692	-0.275996
C61	C	1.510302	-0.388275	-0.892149
C62	C	2.010302	0.111725	-0.392149
C63	C	1.510327	-0.178076	-0.503492
C64	C	2.010327	0.321924	-0.003492
C65	C	1.510382	-0.088455	-0.503521
C66	C	2.010382	0.411545	-0.003521
C67	C	1.446835	-0.339253	-0.943944
C68	C	1.946835	0.160747	-0.443944
C69	C	1.446866	-0.339218	-1.063995
C70	C	1.946866	0.160782	-0.563995
C71	C	1.510188	-0.388404	-0.231915
C72	C	2.010188	0.111596	0.268085
C73	C	1.510360	-0.388210	-0.115763
C74	C	2.010360	0.111790	0.384237
H75	H	1.115321	-0.479444	-0.621098
H76	H	1.615321	0.020556	-0.121098
C77	C	0.783329	-0.483210	-0.625965
C78	C	1.283329	0.016790	-0.125965
C79	C	0.890623	-0.494175	-0.640130
C80	C	1.390623	0.005825	-0.140130
H81	H	0.746231	-0.518220	-0.671216
H82	H	1.246231	-0.018220	-0.171216
H83	H	0.765462	-0.494940	-0.555719
H84	H	1.265462	0.005060	-0.055719
H85	H	0.765528	-0.429036	-0.641371
H86	H	1.265528	0.070964	-0.141371
H87	H	0.908426	-0.548348	-0.624716
H88	H	1.408426	-0.048348	-0.124716
H89	H	0.908498	-0.482450	-0.710391
H90	H	1.408498	0.017550	-0.210391
H91	H	1.392534	-0.297245	-1.108538
H92	H	1.892534	0.202755	-0.608538
C93	C	1.524669	-0.496623	-0.992872
C94	C	2.024669	0.003377	-0.492872
C95	C	1.583718	-0.444875	-1.055649
C96	C	2.083718	0.055125	-0.555649
H97	H	1.569958	-0.531609	-0.955760
H98	H	2.069958	-0.031609	-0.455760
H99	H	1.484843	-0.465890	-0.944836
H100	H	1.984843	0.034110	-0.444836
H101	H	1.479171	-0.527476	-1.035450
H102	H	1.979171	-0.027476	-0.535450
H103	H	1.629210	-0.414018	-1.013069
H104	H	2.129210	0.085982	-0.513069
H105	H	1.623562	-0.475612	-1.103690
H106	H	2.123562	0.024388	-0.603690
C107	C	1.021724	-0.377150	-0.363007
C108	C	1.521724	0.122850	0.136993
C109	C	0.959012	-0.331695	-0.430169
C110	C	1.459012	0.168305	0.069831
H111	H	1.058830	-0.342136	-0.317769
H112	H	1.558830	0.157864	0.182231
H113	H	0.979111	-0.412209	-0.322923
H114	H	1.479111	0.087791	0.177077
H115	H	1.069774	-0.407922	-0.402786
H116	H	1.569774	0.092078	0.097214
H117	H	0.910957	-0.300927	-0.390390
H118	H	1.410957	0.199073	0.109610
H119	H	1.001629	-0.296621	-0.470257
H120	H	1.501629	0.203379	0.029743
C121	C	1.387627	-0.293620	-0.776545
C122	C	1.887627	0.206380	-0.276545
C123	C	1.373451	-0.282626	-0.883838
C124	C	1.873451	0.217374	-0.383838
H125	H	1.342325	-0.258655	-0.739442
H126	H	1.842325	0.241345	-0.239442
H127	H	1.372307	-0.347805	-0.758698
H128	H	1.872307	0.152195	-0.258698
H129	H	1.457863	-0.281842	-0.758730
H130	H	1.957863	0.218158	-0.258730
H131	H	1.303216	-0.294409	-0.901654
H132	H	1.803216	0.205591	-0.401654
H133	H	1.388763	-0.228428	-0.901692
H134	H	1.888763	0.271572	-0.401692
H135	H	1.077982	-0.346382	-0.449157
H136	H	1.577982	0.153618	0.050843
H137	H	1.564660	-0.430219	-0.936682
H138	H	2.064660	0.069781	-0.436682
