data_functionalizedCrystal
_audit_creation_method	'MofGen! by Chris Wilmer'
_symmetry_space_group_name_H-M	'P1'
_symmetry_Int_Tables_number	1
_symmetry_cell_setting	triclinic
loop_
_symmetry_equiv_pos_as_xyz
  x,y,z
_cell_length_a	15.944545
_cell_length_b	10.489741
_cell_length_c	9.565339
_cell_angle_alpha	90.000516
_cell_angle_beta	89.999231
_cell_angle_gamma	84.017673
loop_
_atom_site_label
_atom_site_type_symbol
_atom_site_fract_x
_atom_site_fract_y
_atom_site_fract_z
O1	O	1.115516	0.164455	-0.116169
O2	O	0.871087	0.184745	-0.116191
O3	O	0.998863	-0.011075	-0.116171
O4	O	0.987740	0.360276	-0.116189
O5	O	0.998853	-0.011063	0.116349
O6	O	0.871077	0.184758	0.116329
O7	O	1.115506	0.164468	0.116351
Zn8	Zn	0.993290	0.174615	0.153258
Zn9	Zn	0.993303	0.174598	-0.153097
O10	O	0.987729	0.360288	0.116331
C11	C	0.998018	-0.058589	0.000088
C12	C	0.995505	-0.200183	0.000085
C13	C	0.839783	0.183911	0.000066
C14	C	0.746522	0.181390	0.000058
C15	C	0.914204	-0.267193	0.000068
C16	C	0.952605	-0.359844	0.114716
C17	C	0.952634	-0.359831	-0.114531
C18	C	1.033938	-0.290968	0.114828
C19	C	1.033956	-0.290946	-0.114522
C20	C	1.072416	-0.383569	0.000154
C21	C	0.475114	0.052478	0.000078
C22	C	0.526064	0.114635	0.114724
C23	C	0.410824	0.172399	0.000082
C24	C	0.526055	0.114655	-0.114523
C25	C	0.575764	0.176810	0.000068
C26	C	0.460546	0.234524	0.114822
C27	C	0.460533	0.234526	-0.114528
C28	C	0.511451	0.296771	0.000145
C29	C	0.315806	0.169855	0.000091
C30	C	0.670779	0.179364	0.000068
C31	C	1.146810	0.165303	0.000091
C32	C	1.240071	0.167823	0.000090
C33	C	0.988575	0.407802	0.000069
C34	C	0.991088	0.549396	0.000063
N35	N	0.993287	0.174625	0.362337
N36	N	0.993313	0.174578	-0.362177
C37	C	0.934176	0.265155	0.453531
C38	C	1.010230	0.289908	0.546716
C39	C	0.917266	0.149881	0.546708
C40	C	1.069379	0.199436	0.453470
C41	C	0.976365	0.059358	0.453454
C42	C	1.052473	0.084063	0.546597
H43	H	0.847360	-0.216613	0.000177
H44	H	1.068331	-0.260384	-0.211447
H45	H	0.527564	0.400128	0.000207
C46	C	1.120082	-0.019400	0.601460
H47	H	1.093931	-0.079717	0.656123
H48	H	1.159470	0.019693	0.657379
H49	H	1.148547	-0.062022	0.524712
C50	C	0.906158	-0.401047	-0.245470
H51	H	0.943246	-0.458259	-0.299459
H52	H	0.887858	-0.327579	-0.299811
H53	H	0.858699	-0.442751	-0.217908
H54	H	0.852966	0.128973	0.587667
C55	C	0.906131	-0.401094	0.245642
H56	H	0.849922	-0.360851	0.245501
H57	H	0.934471	-0.376365	0.327056
H58	H	0.905314	-0.491520	0.245121
C59	C	1.080357	-0.249965	0.245921
H60	H	1.081643	-0.159624	0.245155
H61	H	1.136391	-0.290859	0.246263
H62	H	1.051655	-0.274095	0.327228
C63	C	0.421837	0.302882	-0.245465
H64	H	0.383392	0.373738	-0.217935
H65	H	0.392858	0.244688	-0.298509
H66	H	0.465394	0.332406	-0.300729
H67	H	1.139321	-0.433923	0.000224
H68	H	0.962011	-0.038069	0.412457
H69	H	0.884235	0.341784	0.412668
H70	H	0.458840	-0.050799	0.000195
H71	H	1.024560	0.387367	0.587680
H72	H	0.554686	0.063994	0.211652
H73	H	0.554672	0.063984	-0.211440
C74	C	0.422038	0.302904	0.245894
H75	H	0.362612	0.300856	0.245121
H76	H	0.434700	0.389409	0.246210
H77	H	0.445038	0.260611	0.327217
H78	H	1.133694	0.220461	0.412687
