data_functionalizedCrystal
_audit_creation_method	'MofGen! by Chris Wilmer'
_symmetry_space_group_name_H-M	'P1'
_symmetry_Int_Tables_number	1
_symmetry_cell_setting	triclinic
loop_
_symmetry_equiv_pos_as_xyz
  x,y,z
_cell_length_a	10.685901
_cell_length_b	10.685194
_cell_length_c	10.685314
_cell_angle_alpha	89.632195
_cell_angle_beta	99.041183
_cell_angle_gamma	90.347428
loop_
_atom_site_label
_atom_site_type_symbol
_atom_site_fract_x
_atom_site_fract_y
_atom_site_fract_z
Zn1	Zn	1.836977	-0.682854	-0.519873
Zn2	Zn	2.336977	-0.182854	-0.019873
Zn3	Zn	1.839339	-0.876783	-0.293823
Zn4	Zn	2.339339	-0.376783	0.206177
Zn5	Zn	1.643092	-0.653220	-0.326071
Zn6	Zn	2.143092	-0.153220	0.173929
Zn7	Zn	1.610929	-0.876703	-0.522327
Zn8	Zn	2.110929	-0.376703	-0.022327
O9	O	1.732584	-0.772390	-0.415524
O10	O	2.232584	-0.272390	0.084476
O11	O	2.014023	-0.721014	-0.475365
O12	O	2.514023	-0.221014	0.024635
O13	O	1.827756	-0.834758	-0.121364
O14	O	2.327756	-0.334758	0.378636
O15	O	1.681283	-0.482463	-0.364248
O16	O	2.181283	0.017537	0.135752
O17	O	2.015758	-0.863493	-0.309287
O18	O	2.515758	-0.363493	0.190713
O19	O	1.823730	-0.504234	-0.506634
O20	O	2.323730	-0.004234	-0.006634
O21	O	1.683574	-0.670508	-0.145057
O22	O	2.183574	-0.170508	0.354943
O23	O	1.462093	-0.670431	-0.366627
O24	O	1.962093	-0.170431	0.133373
O25	O	1.626465	-0.863357	-0.698738
O26	O	2.126465	-0.363357	-0.198738
O27	O	1.438463	-0.834623	-0.510816
O28	O	1.938463	-0.334623	-0.010816
O29	O	1.792542	-0.720937	-0.696935
O30	O	2.292542	-0.220937	-0.196935
O31	O	1.796568	-1.051461	-0.311666
O32	O	2.296568	-0.551461	0.188334
O33	O	1.628756	-1.051402	-0.479547
O34	O	2.128756	-0.551402	0.020453
C35	C	1.404453	-0.749304	-0.442488
C36	C	1.904453	-0.249304	0.057512
C37	C	1.264073	-0.739459	-0.454051
C38	C	1.764073	-0.239459	0.045949
C39	C	1.709460	-1.096731	-0.392398
C40	C	2.209460	-0.596731	0.107602
C41	C	1.699680	-1.235496	-0.382538
C42	C	2.199680	-0.735496	0.117462
C43	C	2.061996	-0.795568	-0.388455
C44	C	2.561996	-0.295568	0.111545
C45	C	2.202372	-0.805444	-0.376920
C46	C	2.702372	-0.305444	0.123080
C47	C	1.705653	-0.795444	-0.744944
C48	C	2.205653	-0.295444	-0.244944
C49	C	1.694176	-0.805268	-0.885323
C50	C	2.194176	-0.305268	-0.385323
C51	C	1.755830	-0.446788	-0.438764
C52	C	2.255830	0.053212	0.061236
C53	C	1.765737	-0.308035	-0.448668
C54	C	2.265737	0.191965	0.051332
C55	C	1.759490	-0.749341	-0.087385
C56	C	2.259490	-0.249341	0.412615
C57	C	1.771236	-0.739183	0.052988
C58	C	2.271236	-0.239183	0.552988
H59	H	1.256942	-0.869472	-0.302047
H60	H	1.756942	-0.369472	0.197953
H61	H	1.209495	-0.675439	-0.528939
H62	H	1.709495	-0.175439	-0.028939
C63	C	1.872221	-0.652575	-0.873289
C64	C	2.372221	-0.152575	-0.373289
H65	H	1.919020	-0.612428	-0.930814
H66	H	2.419020	-0.112428	-0.430814
H67	H	1.927997	-0.700629	-0.813889
H68	H	2.427997	-0.200629	-0.313889
H69	H	1.831936	-0.591216	-0.829696
H70	H	2.331936	-0.091216	-0.329696
C71	C	1.852256	-1.248529	-0.535343
C72	C	2.352256	-0.748529	-0.035343
H73	H	1.847714	-1.159942	-0.530817
H74	H	2.347714	-0.659942	-0.030817
H75	H	1.825289	-1.274458	-0.620216
H76	H	2.325289	-0.774458	-0.120216
H77	H	1.937157	-1.274456	-0.508451
H78	H	2.437157	-0.774456	-0.008451
H79	H	1.635627	-1.279557	-0.318380
H80	H	2.135627	-0.779557	0.181620
H81	H	1.619419	-0.869360	-0.939904
H82	H	2.119419	-0.369360	-0.439904
