data_functionalizedCrystal
_audit_creation_method	'MofGen! by Chris Wilmer'
_symmetry_space_group_name_H-M	'P1'
_symmetry_Int_Tables_number	1
_symmetry_cell_setting	triclinic
loop_
_symmetry_equiv_pos_as_xyz
  x,y,z
_cell_length_a	29.839135
_cell_length_b	29.839131
_cell_length_c	29.839125
_cell_angle_alpha	89.974637
_cell_angle_beta	89.984512
_cell_angle_gamma	90.037758
loop_
_atom_site_label
_atom_site_type_symbol
_atom_site_fract_x
_atom_site_fract_y
_atom_site_fract_z
Zn1	Zn	0.686739	-0.178886	-0.254023
Zn2	Zn	1.186739	0.321114	0.245977
Zn3	Zn	0.686679	-0.253998	-0.178883
Zn4	Zn	1.186679	0.246002	0.321117
Zn5	Zn	0.611622	-0.178886	-0.178901
Zn6	Zn	1.111622	0.321114	0.321099
Zn7	Zn	0.611578	-0.253993	-0.253980
Zn8	Zn	1.111578	0.246007	0.246020
O9	O	0.649154	-0.216441	-0.216447
O10	O	1.149154	0.283559	0.283553
O11	O	0.749598	-0.188852	-0.244066
O12	O	1.249598	0.311148	0.255934
O13	O	0.676716	-0.244036	-0.116019
O14	O	1.176716	0.255964	0.383981
O15	O	0.621630	-0.116019	-0.188892
O16	O	1.121630	0.383981	0.311108
O17	O	0.749554	-0.244036	-0.188861
O18	O	1.249554	0.255964	0.311139
O19	O	0.676818	-0.116019	-0.244084
O20	O	1.176818	0.383981	0.255916
O21	O	0.621572	-0.188852	-0.116032
O22	O	1.121572	0.311148	0.383968
O23	O	0.548749	-0.188847	-0.188850
O24	O	1.048749	0.311153	0.311150
O25	O	0.621554	-0.244028	-0.316853
O26	O	1.121554	0.255972	0.183147
O27	O	0.548716	-0.244028	-0.244010
O28	O	1.048716	0.255972	0.255990
O29	O	0.676775	-0.188847	-0.316885
O30	O	1.176775	0.311153	0.183115
O31	O	0.676673	-0.316864	-0.188819
O32	O	1.176673	0.183136	0.311181
O33	O	0.621497	-0.316861	-0.243993
O34	O	1.121497	0.183139	0.256007
C35	C	0.532432	-0.216437	-0.216428
C36	C	1.032432	0.283563	0.283572
C37	C	0.482497	-0.216447	-0.216430
C38	C	0.982497	0.283553	0.283570
C39	C	0.172874	-0.187750	-0.245235
C40	C	0.672874	0.312250	0.254765
C41	C	-0.014799	-0.187753	-0.245247
C42	C	0.485201	0.312247	0.254753
O43	O	-0.039047	-0.163344	-0.269717
O44	O	0.460953	0.336656	0.230283
N45	N	-0.038288	-0.216441	-0.216464
N46	N	0.461712	0.283559	0.283536
C47	C	-0.014855	-0.245129	-0.187672
C48	C	0.485145	0.254871	0.312328
O49	O	-0.039140	-0.269527	-0.163187
O50	O	0.460860	0.230473	0.336813
C51	C	0.172817	-0.245123	-0.187658
C52	C	0.672817	0.254877	0.312342
C53	C	0.196303	-0.216436	-0.216447
C54	C	0.696303	0.283564	0.283553
C55	C	0.196360	-0.159065	-0.274021
C56	C	0.696360	0.340935	0.225979
C57	C	0.243275	-0.159066	-0.274019
C58	C	0.743275	0.340934	0.225981
C59	C	0.266705	-0.187752	-0.245231
C60	C	0.766705	0.312248	0.254769
C61	C	0.243219	-0.216437	-0.216445
C62	C	0.743219	0.283563	0.283555
C63	C	0.196249	-0.273808	-0.158864
C64	C	0.696249	0.226192	0.341136
C65	C	0.243170	-0.273803	-0.158862
C66	C	0.743170	0.226197	0.341138
C67	C	0.266656	-0.245116	-0.187651
C68	C	0.766656	0.254884	0.312349
C69	C	0.313563	-0.245125	-0.187655
C70	C	0.813563	0.254875	0.312345
N71	N	0.337052	-0.216437	-0.216439
N72	N	0.837052	0.283563	0.283561
C73	C	0.313623	-0.187750	-0.245227
C74	C	0.813623	0.312250	0.254773
C75	C	-0.113386	-0.245130	-0.187683
C76	C	0.386614	0.254870	0.312317
C77	C	-0.160304	-0.245133	-0.187687
C78	C	0.339696	0.254867	0.312313
C79	C	-0.160244	-0.187756	-0.245262
C80	C	0.339756	0.312244	0.254738
C81	C	-0.113326	-0.187756	-0.245259
C82	C	0.386674	0.312244	0.254741
C83	C	-0.089897	-0.216442	-0.216467
C84	C	0.410103	0.283558	0.283533
C85	C	0.412148	-0.187755	-0.245221
C86	C	0.912148	0.312245	0.254779
C87	C	0.459068	-0.187760	-0.245218
C88	C	0.959068	0.312240	0.254782
C89	C	0.459005	-0.245135	-0.187642
C90	C	0.959005	0.254865	0.312358
C91	C	0.412089	-0.245132	-0.187647
C92	C	0.912089	0.254868	0.312353
C93	C	0.388662	-0.216438	-0.216438
C94	C	0.888662	0.283562	0.283562
O95	O	0.337840	-0.269518	-0.163195
O96	O	0.837840	0.230482	0.336805
O97	O	0.337915	-0.163349	-0.269702
O98	O	0.837915	0.336651	0.230298
C99	C	0.125958	-0.187749	-0.245236
C100	C	0.625958	0.312251	0.254764
C101	C	0.102472	-0.216434	-0.216450
C102	C	0.602472	0.283566	0.283550
C103	C	0.125902	-0.245120	-0.187662
C104	C	0.625902	0.254880	0.312338
C105	C	0.055554	-0.216436	-0.216454
C106	C	0.555554	0.283564	0.283546
C107	C	0.032125	-0.187749	-0.245242
C108	C	0.532125	0.312251	0.254758
C109	C	0.055614	-0.159061	-0.274026
C110	C	0.555614	0.340939	0.225974
C111	C	0.102529	-0.159062	-0.274025
C112	C	0.602529	0.340938	0.225975
C113	C	0.102413	-0.273808	-0.158878
C114	C	0.602413	0.226192	0.341122
C115	C	0.055498	-0.273805	-0.158883
C116	C	0.555498	0.226195	0.341117
C117	C	0.032068	-0.245119	-0.187671
C118	C	0.532068	0.254881	0.312329
C119	C	0.649086	-0.333163	-0.216409
C120	C	1.149086	0.166837	0.283591
C121	C	0.649098	-0.383098	-0.216408
C122	C	1.149098	0.116902	0.283592
C123	C	0.677885	-0.692706	-0.245226
C124	C	1.177885	-0.192706	0.254774
C125	C	0.677933	-0.880379	-0.245253
C126	C	1.177933	-0.380379	0.254747
O127	O	0.702342	-0.904614	-0.269728
O128	O	1.202342	-0.404614	0.230272
N129	N	0.649231	-0.903883	-0.216497
N130	N	1.149231	-0.403883	0.283503
C131	C	0.620512	-0.880465	-0.187734
C132	C	1.120512	-0.380465	0.312266
O133	O	0.596096	-0.904763	-0.163279
O134	O	1.096096	-0.404763	0.336721
C135	C	0.620461	-0.692793	-0.187709
C136	C	1.120461	-0.192793	0.312291
C137	C	0.649169	-0.669292	-0.216464
C138	C	1.149169	-0.169292	0.283536
C139	C	0.706590	-0.669205	-0.273979
C140	C	1.206590	-0.169205	0.226021
C141	C	0.706579	-0.622290	-0.273971
C142	C	1.206579	-0.122290	0.226029
C143	C	0.677863	-0.598875	-0.245209
C144	C	1.177863	-0.098875	0.254791
C145	C	0.649158	-0.622377	-0.216456
C146	C	1.149158	-0.122377	0.283544
C147	C	0.591740	-0.669376	-0.158949
C148	C	1.091740	-0.169376	0.341051
C149	C	0.591729	-0.622455	-0.158946
C150	C	1.091729	-0.122455	0.341054
C151	C	0.620437	-0.598954	-0.187701
C152	C	1.120437	-0.098954	0.312299
C153	C	0.620431	-0.552047	-0.187685
C154	C	1.120431	-0.052047	0.312315
N155	N	0.649134	-0.528543	-0.216441
N156	N	1.149134	-0.028543	0.283559
C157	C	0.677850	-0.551957	-0.245203
C158	C	1.177850	-0.051957	0.254797
C159	C	0.620541	-0.978996	-0.187748
C160	C	1.120541	-0.478996	0.312252
C161	C	0.620554	-1.025914	-0.187753
C162	C	1.120554	-0.525914	0.312247
C163	C	0.677975	-1.025824	-0.245274
C164	C	1.177975	-0.525824	0.254726
C165	C	0.677964	-0.978906	-0.245266
C166	C	1.177964	-0.478906	0.254734
C167	C	0.649244	-0.955492	-0.216504
C168	C	1.149244	-0.455492	0.283496
C169	C	0.677826	-0.453432	-0.245183
C170	C	1.177826	0.046568	0.254817
C171	C	0.677814	-0.406512	-0.245170
C172	C	1.177814	0.093488	0.254830
C173	C	0.620391	-0.406605	-0.187651
C174	C	1.120391	0.093395	0.312349
C175	C	0.620404	-0.453521	-0.187662
C176	C	1.120404	0.046479	0.312338
C177	C	0.649123	-0.476933	-0.216431
C178	C	1.149123	0.023067	0.283569
O179	O	0.596032	-0.527783	-0.163227
O180	O	1.096032	-0.027783	0.336773
O181	O	0.702255	-0.527652	-0.269662
O182	O	1.202255	-0.027652	0.230338
C183	C	0.677895	-0.739622	-0.245235
C184	C	1.177895	-0.239622	0.254765
C185	C	0.649190	-0.763123	-0.216482
C186	C	1.149190	-0.263123	0.283518
C187	C	0.620474	-0.739709	-0.187720
C188	C	1.120474	-0.239709	0.312280
C189	C	0.649203	-0.810041	-0.216487
C190	C	1.149203	-0.310041	0.283513
C191	C	0.677919	-0.833455	-0.245249
C192	C	1.177919	-0.333455	0.254751
C193	C	0.706622	-0.809951	-0.274006
C194	C	1.206622	-0.309951	0.225994
C195	C	0.706611	-0.763036	-0.273997
C196	C	1.206611	-0.263036	0.226003
C197	C	0.591772	-0.763212	-0.158964
C198	C	1.091772	-0.263212	0.341036
C199	C	0.591785	-0.810128	-0.158974
C200	C	1.091785	-0.310128	0.341026
C201	C	0.620501	-0.833542	-0.187736
C202	C	1.120501	-0.333542	0.312264
C203	C	0.766333	-0.216445	-0.216467
C204	C	1.266333	0.283555	0.283533
C205	C	0.816267	-0.216446	-0.216475
C206	C	1.316267	0.283554	0.283525
C207	C	0.649167	-0.216437	-0.333625
C208	C	1.149167	0.283563	0.166375
C209	C	0.649172	-0.216435	-0.383560
C210	C	1.149172	0.283565	0.116440
C211	C	0.649235	-0.099262	-0.216495
C212	C	1.149235	0.400738	0.283505
C213	C	0.649270	-0.049328	-0.216515
C214	C	1.149270	0.450672	0.283485
C215	C	0.677955	-0.187627	-0.693223
C216	C	1.177955	0.312373	-0.193223
C217	C	0.677978	-0.187589	-0.880896
C218	C	1.177978	0.312411	-0.380896
O219	O	0.702417	-0.163138	-0.905177
O220	O	1.202417	0.336862	-0.405177
N221	N	0.649231	-0.216315	-0.904345
N222	N	1.149231	0.283685	-0.404345
C223	C	0.620475	-0.245050	-0.880873
C224	C	1.120475	0.254950	-0.380873
O225	O	0.596022	-0.269479	-0.905124
O226	O	1.096022	0.230521	-0.405124
C227	C	0.620451	-0.245086	-0.693201
C228	C	1.120451	0.254914	-0.193201
C229	C	0.649202	-0.216361	-0.669754
C230	C	1.149202	0.283639	-0.169754
C231	C	0.706704	-0.158905	-0.669776
C232	C	1.206704	0.341095	-0.169776
C233	C	0.706700	-0.158916	-0.622861
C234	C	1.206700	0.341084	-0.122861
C235	C	0.677947	-0.187650	-0.599392
C236	C	1.177947	0.312350	-0.099392
C237	C	0.649198	-0.216373	-0.622839
C238	C	1.149198	0.283627	-0.122839
C239	C	0.591693	-0.273819	-0.669730
C240	C	1.091693	0.226181	-0.169730
C241	C	0.591689	-0.273824	-0.622809
C242	C	1.091689	0.226176	-0.122809
C243	C	0.620440	-0.245100	-0.599362
C244	C	1.120440	0.254900	-0.099362
C245	C	0.620441	-0.245119	-0.552455
C246	C	1.120441	0.254881	-0.052455
N247	N	0.649188	-0.216393	-0.529005
N248	N	1.149188	0.283607	-0.029005
C249	C	0.677941	-0.187659	-0.552474
C250	C	1.177941	0.312341	-0.052474
C251	C	0.620491	-0.245030	-0.979404
C252	C	1.120491	0.254970	-0.479404
C253	C	0.620497	-0.245022	-1.026322
C254	C	1.120497	0.254978	-0.526322
C255	C	0.677999	-0.187560	-1.026341
C256	C	1.177999	0.312440	-0.526341
C257	C	0.677994	-0.187571	-0.979423
C258	C	1.177994	0.312429	-0.479423
C259	C	0.649237	-0.216304	-0.955955
C260	C	1.149237	0.283696	-0.455955
C261	C	0.677930	-0.187685	-0.453948
C262	C	1.177930	0.312315	0.046052
C263	C	0.677925	-0.187701	-0.407029
C264	C	1.177925	0.312299	0.092971
C265	C	0.620421	-0.245161	-0.407013
C266	C	1.120421	0.254839	0.092987
C267	C	0.620428	-0.245147	-0.453929
C268	C	1.120428	0.254853	0.046071
C269	C	0.649184	-0.216406	-0.477395
C270	C	1.149184	0.283594	0.022605
O271	O	0.596011	-0.269553	-0.528144
O272	O	1.096011	0.230447	-0.028144
O273	O	0.702383	-0.163226	-0.528215
O274	O	1.202383	0.336774	-0.028215
C275	C	0.677960	-0.187616	-0.740138
C276	C	1.177960	0.312384	-0.240138
C277	C	0.649211	-0.216338	-0.763585
C278	C	1.149211	0.283662	-0.263585
C279	C	0.620458	-0.245072	-0.740116
C280	C	1.120458	0.254928	-0.240116
C281	C	0.649217	-0.216330	-0.810503
C282	C	1.149217	0.283670	-0.310503
C283	C	0.677970	-0.187596	-0.833972
C284	C	1.177970	0.312404	-0.333972
C285	C	0.706717	-0.158870	-0.810523
C286	C	1.206717	0.341130	-0.310523
C287	C	0.706712	-0.158881	-0.763607
C288	C	1.206712	0.341119	-0.263607
C289	C	0.591711	-0.273798	-0.763566
C290	C	1.091711	0.226202	-0.263566
C291	C	0.591718	-0.273785	-0.810481
C292	C	1.091718	0.226215	-0.310481
C293	C	0.620471	-0.245050	-0.833950
C294	C	1.120471	0.254950	-0.333950
C295	C	0.649168	-0.216412	-0.099725
C296	C	1.149168	0.283588	0.400275
C297	C	0.649250	-0.216288	-0.049790
C298	C	1.149250	0.283712	0.450210
H299	H	0.121485	-0.297168	-0.135434
H300	H	0.621485	0.202832	0.364566
H301	H	0.729954	-0.603158	-0.297387
H302	H	1.229954	-0.103158	0.202613
Cl303	Cl	0.555666	-0.733784	-0.122804
Cl304	Cl	1.055666	-0.233784	0.377196
Cl305	Cl	0.272620	-0.309869	-0.122665
Cl306	Cl	0.772620	0.190131	0.377335
Cl307	Cl	0.742702	-0.733499	-0.310149
Cl308	Cl	1.242702	-0.233499	0.189851
H309	H	0.597182	-1.045044	-0.164333
H310	H	1.097182	-0.545044	0.335667
H311	H	0.730125	-0.135491	-0.744521
H312	H	1.230125	0.364509	-0.244521
Cl313	Cl	-0.083939	-0.281193	-0.151479
Cl314	Cl	0.416061	0.218807	0.348521
Cl315	Cl	0.382563	-0.281209	-0.151467
Cl316	Cl	0.882563	0.218791	0.348533
Cl317	Cl	0.584430	-0.949568	-0.151588
Cl318	Cl	1.084430	-0.449568	0.348412
Cl319	Cl	0.488468	-0.281196	-0.151454
Cl320	Cl	0.988468	0.218804	0.348546
H321	H	0.701208	-0.472488	-0.268612
H322	H	1.201208	0.027512	0.231388
H323	H	0.701358	-1.044896	-0.268692
H324	H	1.201358	-0.544896	0.231308
H325	H	0.701339	-0.164310	-0.387940
H326	H	1.201339	0.335690	0.112060
H327	H	0.568408	-0.829258	-0.135554
H328	H	1.068408	-0.329258	0.364446
Cl329	Cl	0.555646	-0.698909	-0.122799
Cl330	Cl	1.055646	-0.198909	0.377201
Cl331	Cl	0.555547	-0.309933	-0.699194
Cl332	Cl	1.055547	0.190067	-0.199194
Cl333	Cl	0.555621	-0.593024	-0.122786
Cl334	Cl	1.055621	-0.093024	0.377214
H335	H	0.701406	-0.164180	-0.960335
H336	H	1.201406	0.335820	-0.460335
H337	H	0.701192	-0.387379	-0.268586
H338	H	1.201192	0.112621	0.231414
H339	H	0.597032	-0.472657	-0.164244
H340	H	1.097032	0.027343	0.335756
H341	H	0.729974	-0.688264	-0.297404
H342	H	1.229974	-0.188264	0.202596
H343	H	0.730112	-0.135525	-0.603775
H344	H	1.230112	0.364475	-0.103775
Cl345	Cl	0.555561	-0.309925	-0.734069
Cl346	Cl	1.055561	0.190075	-0.234069
H347	H	0.036529	-0.135705	-0.297468
H348	H	0.536529	0.364295	0.202532
H349	H	0.730118	-0.135503	-0.688879
H350	H	1.230118	0.364497	-0.188879
Cl351	Cl	0.714145	-0.151436	-1.055853
Cl352	Cl	1.214145	0.348564	-0.555853
Cl353	Cl	-0.189707	-0.151692	-0.281451
Cl354	Cl	0.310293	0.348308	0.218549
H355	H	-0.094206	-0.164396	-0.268701
H356	H	0.405794	0.335604	0.231299
Cl357	Cl	0.555533	-0.309948	-0.593309
Cl358	Cl	1.055533	0.190052	-0.093309
Cl359	Cl	0.584293	-0.377162	-0.151496
Cl360	Cl	1.084293	0.122838	0.348504
H361	H	0.701340	-0.959774	-0.268681
H362	H	1.201340	-0.459774	0.231319
H363	H	0.036379	-0.297170	-0.135440
H364	H	0.536379	0.202830	0.364560
Cl365	Cl	0.584358	-0.281141	-1.055792
Cl366	Cl	1.084358	0.218859	-0.555792
H367	H	0.730005	-0.829023	-0.297423
H368	H	1.230005	-0.329023	0.202577
Cl369	Cl	0.584285	-0.281261	-0.483405
Cl370	Cl	1.084285	0.218739	0.016595
H371	H	0.730130	-0.135475	-0.829639
H372	H	1.230130	0.364525	-0.329639
Cl373	Cl	0.584335	-0.281157	-0.949908
Cl374	Cl	1.084335	0.218843	-0.449908
Cl375	Cl	0.714079	-0.151551	-0.483442
Cl376	Cl	1.214079	0.348449	0.016558
Cl377	Cl	0.382705	-0.151683	-0.281417
Cl378	Cl	0.882705	0.348317	0.218583
Cl379	Cl	0.584275	-0.281281	-0.377501
Cl380	Cl	1.084275	0.218719	0.122499
Cl381	Cl	0.555572	-0.309902	-0.839951
Cl382	Cl	1.055572	0.190098	-0.339951
H383	H	0.478188	-0.164399	-0.268663
H384	H	0.978188	0.335601	0.231337
H385	H	0.177135	-0.297168	-0.135421
H386	H	0.677135	0.202832	0.364579
H387	H	0.177289	-0.135702	-0.297464
H388	H	0.677289	0.364298	0.202536
Cl389	Cl	-0.189823	-0.281202	-0.151498
Cl390	Cl	0.310177	0.218798	0.348502
Cl391	Cl	0.272794	-0.122998	-0.310211
Cl392	Cl	0.772794	0.377002	0.189789
H393	H	0.121647	-0.135702	-0.297467
H394	H	0.621647	0.364298	0.202533
