data_functionalizedCrystal
_audit_creation_method	'MofGen! by Chris Wilmer'
_symmetry_space_group_name_H-M	'P1'
_symmetry_Int_Tables_number	1
_symmetry_cell_setting	triclinic
loop_
_symmetry_equiv_pos_as_xyz
  x,y,z
_cell_length_a	15.995292
_cell_length_b	17.019294
_cell_length_c	14.472310
_cell_angle_alpha	86.119952
_cell_angle_beta	89.985801
_cell_angle_gamma	83.431263
loop_
_atom_site_label
_atom_site_type_symbol
_atom_site_fract_x
_atom_site_fract_y
_atom_site_fract_z
O1	O	1.110907	0.101455	-0.084937
O2	O	0.867110	0.114059	-0.085936
O3	O	0.995808	-0.007076	-0.076295
O4	O	0.982209	0.222591	-0.094578
O5	O	0.995775	-0.007069	0.077386
O6	O	0.867077	0.114066	0.067745
O7	O	1.110874	0.101463	0.068744
Cu8	Cu	0.988972	0.107765	0.082277
Cu9	Cu	0.989011	0.107757	-0.099469
O10	O	0.982176	0.222598	0.059103
C11	C	0.835899	0.113550	-0.009054
C12	C	0.742947	0.112012	-0.008930
C13	C	0.405216	0.106358	-0.008491
C14	C	0.428425	0.193791	-0.015794
C15	C	0.525098	0.195452	-0.015576
C16	C	0.572768	0.109164	-0.008709
C17	C	0.543699	0.065456	0.082527
C18	C	0.446910	0.064403	0.082680
C19	C	0.447094	0.062610	-0.091942
C20	C	0.543583	0.065850	-0.093356
C21	C	0.667462	0.110745	-0.008830
C22	C	0.310522	0.104775	-0.008364
C23	C	0.995275	-0.036461	0.002883
C24	C	0.993727	-0.124031	0.009848
C25	C	0.993020	-0.165171	-0.070650
C26	C	0.991560	-0.247451	-0.064103
C27	C	0.990813	-0.288591	0.022945
C28	C	0.991518	-0.247445	0.103449
C29	C	0.992972	-0.165166	0.096901
C30	C	0.986416	-0.537022	0.046908
C31	C	0.984964	-0.619307	0.053450
C32	C	0.985004	-0.619307	-0.114103
C33	C	0.986464	-0.537027	-0.120643
C34	C	0.987164	-0.495888	-0.040139
C35	C	0.989323	-0.372695	0.029639
C36	C	0.988648	-0.411784	-0.046834
C37	C	1.142085	0.101972	-0.008140
C38	C	1.235036	0.103510	-0.008270
C39	C	0.982708	0.251983	-0.020077
C40	C	0.984257	0.339553	-0.027049
N41	N	0.988951	0.107770	0.210108
N42	N	0.989040	0.107745	-0.227299
C43	C	0.989010	0.107754	0.584200
C44	C	0.919916	0.172354	0.539893
C45	C	0.920075	0.172589	0.432786
C46	C	0.988980	0.107762	0.398608
C47	C	1.076326	0.125722	0.436014
C48	C	1.075938	0.126181	0.543099
C49	C	0.971539	0.025002	0.551317
C50	C	0.969534	0.025554	0.444146
C51	C	0.988969	0.107765	0.293720
C52	C	0.989028	0.107752	0.689088
H53	H	0.399353	0.227307	0.044119
Cl54	Cl	0.870334	0.004506	0.406636
Cl55	Cl	0.988380	-0.424420	0.139067
Cl56	Cl	0.405425	0.111151	0.180240
Cl57	Cl	0.553435	0.248623	0.077487
H58	H	0.984352	-0.652800	0.124338
H59	H	0.987073	-0.503536	-0.191527
H60	H	0.562129	0.097674	-0.160811
H61	H	1.016598	-0.024769	0.421377
Cl62	Cl	0.990672	-0.299167	-0.165307
Cl63	Cl	0.574587	0.112325	0.179633
Cl64	Cl	0.984122	-0.671029	-0.215302
Cl65	Cl	1.157601	0.055010	0.402304
Cl66	Cl	0.424556	-0.034565	0.096766
Cl67	Cl	0.937252	0.267409	0.385653
Cl68	Cl	0.593006	-0.032582	0.095366
H69	H	0.987003	-0.503538	0.112461
H70	H	0.418749	0.089935	-0.160632
Cl71	Cl	0.594595	-0.031395	-0.093799
Cl72	Cl	0.819339	0.156099	0.580980
H73	H	1.021927	-0.023071	0.580470
H74	H	0.993632	-0.131681	-0.141534
H75	H	0.990905	-0.280947	0.174325
Cl76	Cl	0.554435	0.248300	-0.116907
Cl77	Cl	0.993860	-0.113447	0.198104
Cl78	Cl	0.936896	0.266635	0.573911
H79	H	0.989250	-0.378284	-0.117708
Cl80	Cl	0.819814	0.156124	0.393557
Cl81	Cl	1.099729	0.219356	0.574246
H82	H	1.128953	0.080984	0.572602
H83	H	1.092108	0.185384	0.404427
H84	H	0.400402	0.227488	-0.081411
Cl85	Cl	0.425613	-0.036752	-0.084950
H86	H	0.909234	0.007728	0.579761
