data_functionalizedCrystal
_audit_creation_method	'MofGen! by Chris Wilmer'
_symmetry_space_group_name_H-M	'P1'
_symmetry_Int_Tables_number	1
_symmetry_cell_setting	triclinic
loop_
_symmetry_equiv_pos_as_xyz
  x,y,z
_cell_length_a	9.065215
_cell_length_b	9.730223
_cell_length_c	10.654550
_cell_angle_alpha	89.998861
_cell_angle_beta	84.749800
_cell_angle_gamma	90.002334
loop_
_atom_site_label
_atom_site_type_symbol
_atom_site_fract_x
_atom_site_fract_y
_atom_site_fract_z
O1	O	1.959395	0.114270	0.184134
O2	O	1.530027	0.114276	0.199243
O3	O	1.754583	0.114268	0.008988
O4	O	1.734839	0.114278	0.374389
O5	O	1.754568	-0.114312	0.008999
O6	O	1.530012	-0.114304	0.199254
O7	O	1.959380	-0.114310	0.184144
Zn8	Zn	1.744694	-0.150599	0.191701
Zn9	Zn	1.744713	0.150565	0.191687
O10	O	1.734824	-0.114302	0.374399
C11	C	1.475041	-0.000013	0.197797
C12	C	1.311221	-0.000011	0.193458
N13	N	1.744692	-0.356135	0.191709
C14	C	1.834952	-0.428073	0.268941
C15	C	1.834974	-0.571956	0.268917
C16	C	1.654463	-0.571950	0.114428
C17	C	1.654450	-0.428070	0.114446
C18	C	1.925194	-0.356139	0.346205
C19	C	2.015460	-0.428077	0.423443
C20	C	2.015482	-0.571960	0.423420
C21	C	1.925238	-0.643905	0.346157
C22	C	2.014366	-0.000018	0.185590
C23	C	2.178186	-0.000011	0.189930
C24	C	1.753126	-0.000020	-0.037810
C25	C	1.748789	-0.000016	-0.177271
N26	N	1.744727	0.356101	0.191668
C27	C	1.881003	-0.000022	-0.256234
C28	C	1.876919	-0.000012	-0.387271
C29	C	1.608393	0.000004	-0.360369
C30	C	1.612479	0.000004	-0.229334
C31	C	2.017313	-0.000041	-0.204170
C32	C	2.149539	-0.000049	-0.283135
C33	C	2.145454	-0.000039	-0.414172
C34	C	2.009144	-0.000022	-0.466244
C35	C	1.736281	-0.000010	0.421198
C36	C	1.740618	-0.000006	0.560658
H37	H	1.925182	-0.238982	0.346236
H38	H	2.260517	-0.000028	-0.240728
H39	H	2.253119	-0.000031	-0.478462
H40	H	2.020654	-0.000053	-0.097475
C41	C	2.113182	-0.349901	0.507487
C42	C	2.024570	-0.267358	0.591516
C43	C	2.114541	-0.195341	0.668969
H44	H	2.180576	-0.293639	0.456982
H45	H	2.166914	-0.413313	0.553552
H46	H	1.970864	-0.203954	0.545455
H47	H	1.957179	-0.323586	0.642049
H48	H	2.168273	-0.258753	0.715034
H49	H	2.181930	-0.139087	0.618454
H50	H	2.054431	-0.139338	0.725999
C51	C	1.469045	-0.000208	-0.143446
C52	C	1.463553	-0.117787	-0.067405
C53	C	1.331451	-0.118014	0.011741
H54	H	1.387162	-0.000277	-0.193064
H55	H	1.465058	0.079463	-0.091700
H56	H	1.467526	-0.197438	-0.119145
H57	H	1.545406	-0.117744	-0.017761
H58	H	1.327464	-0.038342	0.063487
H59	H	1.249578	-0.118078	-0.037887
H60	H	1.327713	-0.197782	0.063352
H61	H	2.005829	0.000001	-0.572945
H62	H	1.580988	-0.630539	0.051527
H63	H	1.580950	-0.369496	0.051559
H64	H	1.497416	0.000016	-0.402777
H65	H	2.088992	-0.630528	0.486302
H66	H	1.925277	-0.761064	0.346133
