data_functionalizedCrystal
_audit_creation_method	'MofGen! by Chris Wilmer'
_symmetry_space_group_name_H-M	'P1'
_symmetry_Int_Tables_number	1
_symmetry_cell_setting	triclinic
loop_
_symmetry_equiv_pos_as_xyz
  x,y,z
_cell_length_a	6.817900
_cell_length_b	19.453114
_cell_length_c	19.453067
_cell_angle_alpha	96.315275
_cell_angle_beta	101.708464
_cell_angle_gamma	101.709288
loop_
_atom_site_label
_atom_site_type_symbol
_atom_site_fract_x
_atom_site_fract_y
_atom_site_fract_z
V1	V	-3.997992	-0.219326	-0.097913
O2	O	-3.995098	-0.214817	0.003953
O3	O	-3.941006	-0.218146	-0.193422
O4	O	-3.941013	-0.314835	-0.096737
O5	O	-3.995092	-0.117459	-0.093401
V6	V	-4.483844	-0.207103	-0.085690
O7	O	-4.254141	-0.246138	-0.124726
O8	O	-4.677892	-0.180290	-0.058877
O9	O	-4.317623	-0.208282	0.009819
O10	O	-4.604135	-0.211611	-0.187556
O11	O	-4.604141	-0.308969	-0.090202
O12	O	-4.317617	-0.111593	-0.086866
C13	C	-3.784196	-0.214769	-0.216694
C14	C	-3.818833	-0.214442	-0.294776
C15	C	-4.034529	-0.147825	-0.841951
C16	C	-4.001966	-0.148126	-0.768584
C17	C	-4.017292	-0.212595	-0.742101
C18	C	-4.065135	-0.276767	-0.788992
C19	C	-4.097677	-0.276464	-0.862357
N20	N	-4.103240	-0.263556	-0.636813
N21	N	-4.072329	-0.263839	-0.567119
C22	C	-3.919243	-0.213511	-0.521056
N23	N	-3.798256	-0.162879	-0.547320
N24	N	-3.829178	-0.162594	-0.617021
C25	C	-3.982008	-0.212931	-0.662550
C26	C	-3.836083	-0.149669	-0.394622
C27	C	-3.803508	-0.149972	-0.321253
C28	C	-3.866699	-0.278616	-0.341663
C29	C	-3.899252	-0.278310	-0.415030
C30	C	-3.883951	-0.213835	-0.441504
C31	C	-3.784203	-0.338104	-0.093363
C32	C	-3.818843	-0.416185	-0.093033
C33	C	-4.016582	-0.456453	-0.096404
C34	C	-4.049131	-0.529819	-0.096095
C35	C	-3.883936	-0.562916	-0.092428
C36	C	-3.686167	-0.522637	-0.089053
C37	C	-3.653621	-0.449272	-0.089356
N38	N	-3.820858	-0.681829	-0.129522
N39	N	-3.851789	-0.751523	-0.129237
C40	C	-3.981984	-0.783961	-0.091515
N41	N	-4.080115	-0.744074	-0.054100
N42	N	-4.049189	-0.674373	-0.054389
C43	C	-3.919206	-0.642468	-0.092100
C44	C	-4.215028	-0.903781	-0.094550
C45	C	-4.247567	-0.977147	-0.094236
C46	C	-3.884601	-0.969965	-0.087201
C47	C	-3.852064	-0.896599	-0.087508
C48	C	-4.017287	-0.863512	-0.091186
C49	C	-4.137775	-0.211657	0.033088
C50	C	-4.082376	-0.211989	0.111168
C51	C	-4.137768	-0.088321	-0.090243
C52	C	-4.082367	-0.010239	-0.090568
H53	H	-3.879168	-0.331107	-0.320102
H54	H	-4.022062	-0.095324	-0.863501
O55	O	-3.955142	-0.085803	-0.723001
C56	C	-3.709047	-0.007521	-0.624782
C57	C	-3.761784	-0.078113	-0.676364
H58	H	-3.552736	-0.001288	-0.587053
H59	H	-3.703548	0.038640	-0.656272
H60	H	-3.831910	-0.007678	-0.592801
H61	H	-3.638979	-0.078026	-0.708358
H62	H	-3.767354	-0.124243	-0.644832
O63	O	-3.945827	-0.340706	-0.460477
C64	C	-4.004944	-0.468330	-0.472974
C65	C	-3.952241	-0.397716	-0.421427
H66	H	-4.010104	-0.514440	-0.441421
H67	H	-4.161389	-0.474664	-0.510658
H68	H	-3.882201	-0.468155	-0.505008
H69	H	-4.074849	-0.397842	-0.389345
H70	H	-3.795738	-0.391410	-0.383790
H71	H	-3.492592	-0.416485	-0.086605
O72	O	-4.375505	-0.871620	-0.098238
C73	C	-4.581135	-0.802652	-0.163806
C74	C	-4.399383	-0.839055	-0.159726
H75	H	-4.600471	-0.776302	-0.213507
H76	H	-4.728151	-0.844014	-0.166202
H77	H	-4.549242	-0.760646	-0.114691
H78	H	-4.431077	-0.881057	-0.208828
H79	H	-4.252426	-0.797652	-0.157295
H80	H	-3.750092	-0.996911	-0.084210
O81	O	-4.144104	-0.338731	-0.907998
C82	C	-4.222390	-0.395277	-1.030069
C83	C	-4.169769	-0.324708	-0.978458
H84	H	-4.243199	-0.383965	-1.087048
H85	H	-4.091987	-0.423854	-1.017897
H86	H	-4.371098	-0.430264	-1.023467
H87	H	-4.021118	-0.289666	-0.985031
H88	H	-4.300292	-0.296187	-0.990644
H89	H	-3.551665	-0.549589	-0.086066
H90	H	-4.077607	-0.329258	-0.767425
O91	O	-3.821034	-0.086976	-0.420224
C92	C	-3.755038	0.040584	-0.392241
C93	C	-3.771971	-0.030363	-0.363154
H94	H	-3.715412	0.086373	-0.346115
H95	H	-3.629055	0.047201	-0.423217
H96	H	-3.908274	0.040694	-0.428938
H97	H	-3.618836	-0.030523	-0.326428
H98	H	-3.898051	-0.036952	-0.332219
H99	H	-4.408590	-1.009932	-0.096976
O100	O	-3.757281	-0.087690	-0.275647
C101	C	-3.856734	-0.017335	-0.184515
C102	C	-3.909304	-0.087907	-0.236117
H103	H	-3.979637	-0.017481	-0.152552
H104	H	-3.700400	-0.011035	-0.146774
H105	H	-3.851311	0.028785	-0.216058
H106	H	-3.914840	-0.134068	-0.204632
H107	H	-4.065600	-0.094145	-0.273858
H108	H	-3.691049	-0.863813	-0.084771
H109	H	-4.151122	-0.429518	-0.099396
H110	H	-4.210161	-0.562613	-0.098843
