data_functionalizedCrystal
_audit_creation_method	'MofGen! by Chris Wilmer'
_symmetry_space_group_name_H-M	'P1'
_symmetry_Int_Tables_number	1
_symmetry_cell_setting	triclinic
loop_
_symmetry_equiv_pos_as_xyz
  x,y,z
_cell_length_a	17.038272
_cell_length_b	17.038272
_cell_length_c	15.186229
_cell_angle_alpha	90.000406
_cell_angle_beta	90.000221
_cell_angle_gamma	91.111556
loop_
_atom_site_label
_atom_site_type_symbol
_atom_site_fract_x
_atom_site_fract_y
_atom_site_fract_z
O1	O	1.048756	0.170532	0.073119
O2	O	1.298756	0.420532	0.323119
O3	O	1.548756	0.670532	0.573119
O4	O	1.798756	0.920532	0.823119
O5	O	0.820945	0.167824	0.073145
O6	O	1.070945	0.417824	0.323145
O7	O	1.320945	0.667824	0.573145
O8	O	1.570945	0.917824	0.823145
O9	O	0.933496	0.055272	0.073125
O10	O	1.183496	0.305272	0.323125
O11	O	1.433496	0.555272	0.573125
O12	O	1.683496	0.805272	0.823125
O13	O	0.936204	0.283083	0.073139
O14	O	1.186204	0.533083	0.323139
O15	O	1.436204	0.783083	0.573139
O16	O	1.686204	1.033083	0.823139
O17	O	0.933483	0.055278	-0.073332
O18	O	1.183483	0.305278	0.176668
O19	O	1.433483	0.555278	0.426668
O20	O	1.683483	0.805278	0.676668
O21	O	0.820931	0.167830	-0.073312
O22	O	1.070931	0.417830	0.176688
O23	O	1.320931	0.667830	0.426688
O24	O	1.570931	0.917830	0.676688
O25	O	1.048742	0.170538	-0.073338
O26	O	1.298742	0.420538	0.176662
O27	O	1.548742	0.670538	0.426662
O28	O	1.798742	0.920538	0.676662
Zn29	Zn	0.934834	0.169185	-0.096578
Zn30	Zn	1.184834	0.419185	0.153422
Zn31	Zn	1.434834	0.669185	0.403422
Zn32	Zn	1.684834	0.919185	0.653422
Zn33	Zn	0.934852	0.169177	0.096385
Zn34	Zn	1.184852	0.419177	0.346385
Zn35	Zn	1.434852	0.669177	0.596385
Zn36	Zn	1.684852	0.919177	0.846385
O37	O	0.936191	0.283089	-0.073318
O38	O	1.186191	0.533089	0.176682
O39	O	1.436191	0.783089	0.426682
O40	O	1.686191	1.033089	0.676682
C41	C	0.791645	0.165364	-0.000080
C42	C	1.041645	0.415364	0.249920
C43	C	1.291645	0.665364	0.499920
C44	C	1.541645	0.915364	0.749920
C45	C	0.704361	0.158016	-0.000071
C46	C	0.954361	0.408016	0.249929
C47	C	1.204361	0.658016	0.499929
C48	C	1.454361	0.908016	0.749929
C49	C	0.658752	0.225479	-0.000067
C50	C	0.908752	0.475479	0.249933
C51	C	1.158752	0.725479	0.499933
C52	C	1.408752	0.975479	0.749933
C53	C	0.576740	0.218570	-0.000080
C54	C	0.826740	0.468570	0.249920
C55	C	1.076740	0.718570	0.499920
C56	C	1.326740	0.968570	0.749920
C57	C	0.540339	0.144197	-0.000089
C58	C	0.790339	0.394197	0.249911
C59	C	1.040339	0.644197	0.499911
C60	C	1.290339	0.894197	0.749911
C61	C	0.585954	0.076728	-0.000095
C62	C	0.835954	0.326728	0.249905
C63	C	1.085954	0.576728	0.499905
C64	C	1.335954	0.826728	0.749905
C65	C	0.667965	0.083638	-0.000089
C66	C	0.917965	0.333638	0.249911
C67	C	1.167965	0.583638	0.499911
C68	C	1.417965	0.833638	0.749911
C69	C	0.292951	0.119787	-0.000114
C70	C	0.542951	0.369787	0.249886
C71	C	0.792951	0.619787	0.499886
C72	C	1.042951	0.869787	0.749886
C73	C	0.210935	0.112882	-0.000118
C74	C	0.460935	0.362882	0.249882
C75	C	0.710935	0.612882	0.499882
C76	C	0.960935	0.862882	0.749882
C77	C	0.201726	0.254725	-0.000104
C78	C	0.451726	0.504725	0.249896
C79	C	0.701726	0.754725	0.499896
C80	C	0.951726	1.004725	0.749896
C81	C	0.283739	0.261628	-0.000093
C82	C	0.533739	0.511628	0.249907
C83	C	0.783739	0.761628	0.499907
C84	C	1.033739	1.011628	0.749907
C85	C	0.329347	0.194159	-0.000103
C86	C	0.579347	0.444159	0.249897
C87	C	0.829347	0.694159	0.499897
C88	C	1.079347	0.944159	0.749897
C89	C	0.456510	0.137133	-0.000099
C90	C	0.706510	0.387133	0.249901
C91	C	0.956510	0.637133	0.499901
C92	C	1.206510	0.887133	0.749901
C93	C	0.413174	0.201224	-0.000099
C94	C	0.663174	0.451224	0.249901
C95	C	0.913174	0.701224	0.499901
C96	C	1.163174	0.951224	0.749901
C97	C	0.931027	0.025982	-0.000103
C98	C	1.181027	0.275982	0.249897
C99	C	1.431027	0.525982	0.499897
C100	C	1.681027	0.775982	0.749897
C101	C	0.923679	-0.061301	-0.000102
C102	C	1.173679	0.188699	0.249898
C103	C	1.423679	0.438699	0.499898
C104	C	1.673679	0.688699	0.749898
C105	C	0.991142	-0.106911	-0.000110
C106	C	1.241142	0.143089	0.249890
C107	C	1.491142	0.393089	0.499890
C108	C	1.741142	0.643089	0.749890
C109	C	0.984233	-0.188923	-0.000101
C110	C	1.234233	0.061077	0.249899
C111	C	1.484233	0.311077	0.499899
C112	C	1.734233	0.561077	0.749899
C113	C	0.909860	-0.225324	-0.000090
C114	C	1.159860	0.024676	0.249910
C115	C	1.409860	0.274676	0.499910
C116	C	1.659860	0.524676	0.749910
C117	C	0.842391	-0.179708	-0.000079
C118	C	1.092391	0.070292	0.249921
C119	C	1.342391	0.320292	0.499921
C120	C	1.592391	0.570292	0.749921
C121	C	0.849301	-0.097698	-0.000081
C122	C	1.099301	0.152302	0.249919
C123	C	1.349301	0.402302	0.499919
C124	C	1.599301	0.652302	0.749919
C125	C	0.885449	-0.472712	-0.000075
C126	C	1.135449	-0.222712	0.249925
C127	C	1.385449	0.027288	0.499925
C128	C	1.635449	0.277288	0.749925
C129	C	0.878545	-0.554728	-0.000075
C130	C	1.128545	-0.304728	0.249925
C131	C	1.378545	-0.054728	0.499925
C132	C	1.628545	0.195272	0.749925
C133	C	1.020387	-0.563937	-0.000096
C134	C	1.270387	-0.313937	0.249904
C135	C	1.520387	-0.063937	0.499904
C136	C	1.770387	0.186063	0.749904
C137	C	1.027291	-0.481924	-0.000104
C138	C	1.277291	-0.231924	0.249896
C139	C	1.527291	0.018076	0.499896
C140	C	1.777291	0.268076	0.749896
C141	C	0.959822	-0.436316	-0.000088
C142	C	1.209822	-0.186316	0.249912
C143	C	1.459822	0.063684	0.499912
C144	C	1.709822	0.313684	0.749912
C145	C	0.902796	-0.309153	-0.000083
C146	C	1.152796	-0.059153	0.249917
C147	C	1.402796	0.190847	0.499917
C148	C	1.652796	0.440847	0.749917
C149	C	0.966886	-0.352488	-0.000088
C150	C	1.216886	-0.102488	0.249912
C151	C	1.466886	0.147512	0.499912
C152	C	1.716886	0.397512	0.749912
C153	C	1.078042	0.172997	-0.000111
C154	C	1.328042	0.422997	0.249889
C155	C	1.578042	0.672997	0.499889
C156	C	1.828042	0.922997	0.749889
C157	C	1.165326	0.180346	-0.000115
C158	C	1.415326	0.430346	0.249885
C159	C	1.665326	0.680346	0.499885
C160	C	1.915326	0.930346	0.749885
C161	C	0.938660	0.312379	-0.000088
C162	C	1.188660	0.562379	0.249912
C163	C	1.438660	0.812379	0.499912
C164	C	1.688660	1.062379	0.749912
C165	C	0.946008	0.399663	-0.000083
C166	C	1.196008	0.649663	0.249917
C167	C	1.446008	0.899663	0.499917
C168	C	1.696008	1.149663	0.749917
N169	N	0.934828	0.169190	-0.228271
N170	N	1.184828	0.419190	0.021729
N171	N	1.434828	0.669190	0.271729
N172	N	1.684828	0.919190	0.521729
C173	C	0.985639	0.220005	-0.453997
C174	C	1.235639	0.470005	-0.203997
C175	C	1.485639	0.720005	0.046003
C176	C	1.735639	0.970005	0.296003
C177	C	0.985647	0.220000	-0.546186
C178	C	1.235647	0.470000	-0.296186
C179	C	1.485647	0.720000	-0.046186
C180	C	1.735647	0.970000	0.203814
C181	C	0.884051	0.118345	-0.546190
C182	C	1.134051	0.368345	-0.296190
C183	C	1.384051	0.618345	-0.046190
C184	C	1.634051	0.868345	0.203810
C185	C	0.884048	0.118347	-0.454002
C186	C	1.134048	0.368347	-0.204002
C187	C	1.384048	0.618347	0.045998
C188	C	1.634048	0.868347	0.295998
C189	C	0.934840	0.169181	-0.407908
C190	C	1.184840	0.419181	-0.157908
C191	C	1.434840	0.669181	0.092092
C192	C	1.684840	0.919181	0.342092
C193	C	0.934852	0.169174	-0.592285
C194	C	1.184852	0.419174	-0.342285
C195	C	1.434852	0.669174	-0.092285
C196	C	1.684852	0.919174	0.157715
C197	C	0.934861	0.169168	-0.692241
C198	C	1.184861	0.419168	-0.442241
C199	C	1.434861	0.669168	-0.192241
C200	C	1.684861	0.919168	0.057759
C201	C	0.934833	0.169186	-0.307945
C202	C	1.184833	0.419186	-0.057945
C203	C	1.434833	0.669186	0.192055
C204	C	1.684833	0.919186	0.442055
N205	N	0.934865	0.169166	0.228078
N206	N	1.184865	0.419166	0.478078
N207	N	1.434865	0.669166	0.728078
N208	N	1.684865	0.919166	0.978078
H209	H	0.164583	0.309653	-0.000097
H210	H	0.414583	0.559653	0.249903
H211	H	0.664583	0.809653	0.499903
H212	H	0.914583	1.059653	0.749903
F213	F	0.829977	0.064251	-0.404948
F214	F	1.079977	0.314251	-0.154948
F215	F	1.329977	0.564251	0.095052
F216	F	1.579977	0.814251	0.345052
H217	H	1.026998	0.261397	-0.416469
H218	H	1.276998	0.511397	-0.166469
H219	H	1.526998	0.761397	0.083531
H220	H	1.776998	1.011397	0.333531
H221	H	1.051705	-0.077279	-0.000125
H222	H	1.301705	0.172721	0.249875
H223	H	1.551705	0.422721	0.499875
H224	H	1.801705	0.672721	0.749875
H225	H	0.830511	-0.435587	-0.000062
H226	H	1.080511	-0.185587	0.249938
H227	H	1.330511	0.064413	0.499938
H228	H	1.580511	0.314413	0.749938
H229	H	1.087853	-0.452293	-0.000113
H230	H	1.337853	-0.202293	0.249887
H231	H	1.587853	0.047707	0.499887
H232	H	1.837853	0.297707	0.749887
F233	F	0.697485	0.304638	-0.000051
F234	F	0.947485	0.554638	0.249949
F235	F	1.197485	0.804638	0.499949
F236	F	1.447485	1.054638	0.749949
H237	H	0.313370	0.322190	-0.000075
H238	H	0.563370	0.572190	0.249925
H239	H	0.813370	0.822190	0.499925
H240	H	1.063370	1.072190	0.749925
F241	F	0.172196	0.033720	-0.000144
F242	F	0.422196	0.283720	0.249856
F243	F	0.672196	0.533720	0.499856
F244	F	0.922196	0.783720	0.749856
H245	H	1.027441	-0.322847	-0.000078
H246	H	1.277441	-0.072847	0.249922
H247	H	1.527441	0.177153	0.499922
H248	H	1.777441	0.427153	0.749922
F249	F	0.823644	-0.347901	-0.000067
F250	F	1.073644	-0.097901	0.249933
F251	F	1.323644	0.152099	0.499933
F252	F	1.573644	0.402099	0.749933
H253	H	0.781835	-0.209353	-0.000064
H254	H	1.031835	0.040647	0.249936
H255	H	1.281835	0.290647	0.499936
H256	H	1.531835	0.540647	0.749936
H257	H	0.539608	0.273507	-0.000076
H258	H	0.789608	0.523507	0.249924
H259	H	1.039608	0.773507	0.499924
H260	H	1.289608	1.023507	0.749924
F261	F	0.829993	0.064251	-0.595255
F262	F	1.079993	0.314251	-0.345255
F263	F	1.329993	0.564251	-0.095255
F264	F	1.579993	0.814251	0.154745
F265	F	0.777497	-0.049157	-0.000070
F266	F	1.027497	0.200843	0.249930
F267	F	1.277497	0.450843	0.499930
F268	F	1.527497	0.700843	0.749930
H269	H	1.075316	-0.601079	-0.000107
H270	H	1.325316	-0.351079	0.249893
H271	H	1.575316	-0.101079	0.499893
H272	H	1.825316	0.148921	0.749893
F273	F	0.341480	0.047979	-0.000126
F274	F	0.591480	0.297979	0.249874
F275	F	0.841480	0.547979	0.499874
F276	F	1.091480	0.797979	0.749874
H277	H	1.027014	0.261385	-0.583708
H278	H	1.277014	0.511385	-0.333708
H279	H	1.527014	0.761385	-0.083708
H280	H	1.777014	1.011385	0.166292
H281	H	0.817978	-0.584363	-0.000080
H282	H	1.067978	-0.334363	0.249920
H283	H	1.317978	-0.084363	0.499920
H284	H	1.567978	0.165637	0.749920
F285	F	0.547212	-0.002426	-0.000111
F286	F	0.797212	0.247574	0.249889
F287	F	1.047212	0.497574	0.499889
F288	F	1.297212	0.747574	0.749889
F289	F	0.451917	0.280375	-0.000093
F290	F	0.701917	0.530375	0.249907
F291	F	0.951917	0.780375	0.499907
F292	F	1.201917	1.030375	0.749907
F293	F	0.716505	0.011834	-0.000096
F294	F	0.966505	0.261834	0.249904
F295	F	1.216505	0.511834	0.499904
F296	F	1.466505	0.761834	0.749904
H297	H	0.426863	0.076578	-0.000132
H298	H	0.676863	0.326578	0.249868
H299	H	0.926863	0.576578	0.499868
H300	H	1.176863	0.826578	0.749868
H301	H	1.039170	-0.226054	-0.000110
H302	H	1.289170	0.023946	0.249890
H303	H	1.539170	0.273946	0.499890
H304	H	1.789170	0.523946	0.749890
