data_functionalizedCrystal
_audit_creation_method	'MofGen! by Chris Wilmer'
_symmetry_space_group_name_H-M	'P1'
_symmetry_Int_Tables_number	1
_symmetry_cell_setting	triclinic
loop_
_symmetry_equiv_pos_as_xyz
  x,y,z
_cell_length_a	18.101395
_cell_length_b	15.298183
_cell_length_c	15.296720
_cell_angle_alpha	69.223470
_cell_angle_beta	99.643705
_cell_angle_gamma	99.632174
loop_
_atom_site_label
_atom_site_type_symbol
_atom_site_fract_x
_atom_site_fract_y
_atom_site_fract_z
Zn1	Zn	-0.523352	-1.330519	-0.279432
Zn2	Zn	-0.023352	-0.830519	0.220568
Zn3	Zn	-0.628919	-1.357318	-0.123938
Zn4	Zn	-0.128919	-0.857318	0.376062
Zn5	Zn	-0.486871	-1.201942	-0.150885
Zn6	Zn	0.013129	-0.701942	0.349115
Zn7	Zn	-0.628902	-1.174962	-0.306351
Zn8	Zn	-0.128902	-0.674962	0.193649
O9	O	-0.567011	-1.266185	-0.215152
O10	O	-0.067011	-0.766185	0.284848
O11	O	-0.552630	-1.464201	-0.236262
O12	O	-0.052630	-0.964201	0.263738
O13	O	-0.594815	-1.359214	0.002625
O14	O	-0.094815	-0.859214	0.502625
O15	O	-0.388090	-1.219074	-0.167949
O16	O	0.111910	-0.719074	0.332051
O17	O	-0.630189	-1.483890	-0.122021
O18	O	-0.130189	-0.983890	0.377979
O19	O	-0.414892	-1.313539	-0.262392
O20	O	0.085108	-0.813539	0.237608
O21	O	-0.490453	-1.245060	-0.017172
O22	O	0.009547	-0.745060	0.482828
O23	O	-0.490438	-1.068236	-0.194051
O24	O	0.009562	-0.568236	0.305949
O25	O	-0.630162	-1.173090	-0.432918
O26	O	-0.130162	-0.673090	0.067082
O27	O	-0.594787	-1.048414	-0.308271
O28	O	-0.094787	-0.548414	0.191729
O29	O	-0.552614	-1.287378	-0.413141
O30	O	-0.052614	-0.787378	0.086859
O31	O	-0.732537	-1.333052	-0.148124
O32	O	-0.232537	-0.833052	0.351876
O33	O	-0.732525	-1.199075	-0.282142
O34	O	-0.232525	-0.699075	0.217858
C35	C	-0.538653	-1.024584	-0.257007
C36	C	-0.038653	-0.524584	0.242993
C37	C	-0.526541	-0.921223	-0.274935
C38	C	-0.026541	-0.421223	0.225065
C39	C	-0.480555	-0.862402	-0.342934
C40	C	0.019445	-0.362402	0.157066
C41	C	-0.469169	-0.765288	-0.359780
C42	C	0.030831	-0.265288	0.140220
C43	C	-0.503773	-0.726985	-0.308635
C44	C	-0.003773	-0.226985	0.191365
C45	C	-0.549764	-0.785805	-0.240639
C46	C	-0.049764	-0.285805	0.259361
C47	C	-0.561147	-0.882929	-0.223786
C48	C	-0.061147	-0.382929	0.276214
C49	C	-0.584364	-0.747511	-0.189487
C50	C	-0.084364	-0.247511	0.310513
C51	C	-0.630356	-0.806332	-0.121491
C52	C	-0.130356	-0.306332	0.378509
C53	C	-0.641737	-0.903446	-0.104642
C54	C	-0.141737	-0.403446	0.395358
C55	C	-0.607133	-0.941750	-0.155787
C56	C	-0.107133	-0.441750	0.344213
C57	C	-0.572982	-0.650387	-0.206340
C58	C	-0.072982	-0.150387	0.293660
C59	C	-0.653573	-0.670914	-0.087193
C60	C	-0.153573	-0.170914	0.412807
C61	C	-0.664959	-0.768028	-0.070346
C62	C	-0.164959	-0.268028	0.429654
C63	C	-0.759404	-1.266066	-0.215146
C64	C	-0.259404	-0.766066	0.284854
C65	C	-0.841724	-1.266094	-0.215160
C66	C	-0.341724	-0.766094	0.284840
C67	C	-1.140845	-1.266289	-0.215174
C68	C	-0.640845	-0.766289	0.284826
C69	C	-1.109583	-1.182131	-0.299644
C70	C	-0.609583	-0.682131	0.200356
C71	C	-1.023899	-1.181829	-0.299478
C72	C	-0.523899	-0.681829	0.200522
C73	C	-0.992447	-1.266192	-0.215168
C74	C	-0.492447	-0.766192	0.284832
C75	C	-1.008974	-1.256633	-0.121752
C76	C	-0.508974	-0.756633	0.378248
C77	C	-1.094616	-1.256096	-0.122263
C78	C	-0.594616	-0.756096	0.377737
C79	C	-1.123677	-1.360313	-0.223230
C80	C	-0.623677	-0.860313	0.276770
C81	C	-1.038210	-1.359363	-0.225480
C82	C	-0.538210	-0.859363	0.274520
C83	C	-0.908579	-1.266140	-0.215158
C84	C	-0.408579	-0.766140	0.284842
C85	C	-1.224712	-1.266341	-0.215178
C86	C	-0.724712	-0.766341	0.284822
C87	C	-0.373872	-1.266327	-0.215173
C88	C	0.126128	-0.766327	0.284827
C89	C	-0.291568	-1.266388	-0.215183
C90	C	0.208432	-0.766388	0.284817
C91	C	-0.595456	-1.224235	-0.457716
C92	C	-0.095456	-0.724235	0.042284
C93	C	-0.607577	-1.206358	-0.561083
C94	C	-0.107577	-0.706358	-0.061083
C95	C	-0.595474	-0.508731	-0.173124
C96	C	-0.095474	-0.008731	0.326876
C97	C	-0.607587	-0.612093	-0.155191
C98	C	-0.107587	-0.112093	0.344809
C99	C	-0.480252	-1.393988	-0.811267
C100	C	0.019748	-0.893988	-0.311267
C101	C	-0.468866	-1.410790	-0.714148
C102	C	0.031134	-0.910790	-0.214148
C103	C	-0.503542	-1.359683	-0.675877
C104	C	-0.003542	-0.859683	-0.175877
C105	C	-0.549608	-1.291772	-0.734735
C106	C	-0.049608	-0.791772	-0.234735
C107	C	-0.561000	-1.274974	-0.831862
C108	C	-0.061000	-0.774974	-0.331862
C109	C	-0.584290	-1.240669	-0.696472
C110	C	-0.084290	-0.740669	-0.196472
C111	C	-0.630356	-1.172758	-0.755330
C112	C	-0.130356	-0.672758	-0.255330
C113	C	-0.641746	-1.155962	-0.852448
C114	C	-0.141746	-0.655962	-0.352448
C115	C	-0.607069	-1.207068	-0.890719
C116	C	-0.107069	-0.707068	-0.390719
C117	C	-0.572898	-1.257467	-0.599344
C118	C	-0.072898	-0.757467	-0.099344
C119	C	-0.653646	-1.138453	-0.619940
C120	C	-0.153646	-0.638453	-0.119940
C121	C	-0.665032	-1.121651	-0.717059
C122	C	-0.165032	-0.621651	-0.217059
C123	C	-0.538630	-1.308026	0.026479
C124	C	-0.038630	-0.808026	0.526479
C125	C	-0.526321	-1.326083	0.129876
C126	C	-0.026321	-0.826083	0.629876
H127	H	-0.494497	-0.647910	-0.322353
H128	H	0.005503	-0.147910	0.177647
F129	F	-0.690558	-1.084062	-0.579214
F130	F	-0.190558	-0.584062	-0.079214
H131	H	-0.431724	-0.717404	-0.415144
H132	H	0.068276	-0.217404	0.084856
H133	H	-0.431361	-1.466086	-0.666232
H134	H	0.068639	-0.966086	-0.166232
F135	F	-0.524036	-0.587798	-0.278704
F136	F	-0.024036	-0.087798	0.221296
F137	F	-0.690666	-0.966048	-0.032254
F138	F	-0.190666	-0.466048	0.467746
F139	F	-0.713905	-0.830639	0.002019
F140	F	-0.213905	-0.330639	0.502019
H141	H	-0.452382	-0.893600	-0.384565
H142	H	0.047618	-0.393600	0.115435
F143	F	-0.491421	-1.377566	-0.572513
F144	F	0.008579	-0.877566	-0.072513
H145	H	-1.017680	-1.424020	-0.167084
H146	H	-0.517680	-0.924020	0.332916
H147	H	-0.679263	-1.100671	-0.900367
H148	H	-0.179263	-0.600671	-0.400367
H149	H	-0.616412	-1.020825	-0.142086
H150	H	-0.116412	-0.520825	0.357914
H151	H	-0.616338	-1.193392	-0.969801
H152	H	-0.116338	-0.693392	-0.469801
F153	F	-1.150155	-1.187104	-0.391226
F154	F	-0.650155	-0.687104	0.108774
F155	F	-0.714058	-1.049377	-0.779710
F156	F	-0.214058	-0.549377	-0.279710
H157	H	-0.681751	-0.639728	-0.045546
H158	H	-0.181751	-0.139728	0.454454
F159	F	-1.010067	-1.187074	-0.390712
F160	F	-0.510067	-0.687074	0.109288
H161	H	-1.120740	-1.112502	-0.295785
H162	H	-0.620740	-0.612502	0.204215
H163	H	-1.144028	-1.422806	-0.161500
H164	H	-0.644028	-0.922806	0.338500
F165	F	-0.983468	-1.090286	-0.294265
F166	F	-0.483468	-0.590286	0.205735
F167	F	-1.106525	-1.166920	-0.110756
F168	F	-0.606525	-0.666920	0.389244
F169	F	-1.120831	-1.333936	-0.038389
F170	F	-0.620831	-0.833936	0.461611
H171	H	-0.976700	-1.189235	-0.112435
H172	H	-0.476700	-0.689235	0.387565
F173	F	-0.981638	-1.335209	-0.038217
F174	F	-0.481638	-0.835209	0.461783
F175	F	-1.166335	-1.376030	-0.309577
F176	F	-0.666335	-0.876030	0.190423
F177	F	-1.025738	-1.369190	-0.315231
F178	F	-0.525738	-0.869190	0.184769
F179	F	-0.443359	-1.448378	-0.852003
F180	F	0.056641	-0.948378	-0.352003
H181	H	-0.535390	-1.312761	-0.551432
H182	H	-0.035390	-0.812761	-0.051432
