data_functionalizedCrystal
_audit_creation_method	'MofGen! by Chris Wilmer'
_symmetry_space_group_name_H-M	'P1'
_symmetry_Int_Tables_number	1
_symmetry_cell_setting	triclinic
loop_
_symmetry_equiv_pos_as_xyz
  x,y,z
_cell_length_a	14.044220
_cell_length_b	17.699103
_cell_length_c	16.776229
_cell_angle_alpha	89.988386
_cell_angle_beta	89.997978
_cell_angle_gamma	88.239969
loop_
_atom_site_label
_atom_site_type_symbol
_atom_site_fract_x
_atom_site_fract_y
_atom_site_fract_z
O1	O	1.257306	0.182443	-0.066220
O2	O	1.590639	0.515776	0.267113
O3	O	1.923973	0.849110	0.600446
O4	O	0.981351	0.175860	-0.066240
O5	O	1.314685	0.509193	0.267093
O6	O	1.648018	0.842526	0.600427
O7	O	1.127115	0.069500	-0.066214
O8	O	1.460449	0.402834	0.267119
O9	O	1.793782	0.736167	0.600452
O10	O	1.111542	0.288802	-0.066246
O11	O	1.444875	0.622136	0.267087
O12	O	1.778209	0.955469	0.600421
O13	O	1.127096	0.069492	0.066362
O14	O	1.460429	0.402825	0.399696
O15	O	1.793763	0.736158	0.733029
O16	O	0.981332	0.175851	0.066337
O17	O	1.314665	0.509184	0.399670
O18	O	1.647999	0.842518	0.733003
O19	O	1.257287	0.182435	0.066356
O20	O	1.590620	0.515768	0.399690
O21	O	1.923953	0.849101	0.733023
Zn22	Zn	1.119306	0.179141	0.087396
Zn23	Zn	1.452640	0.512475	0.420729
Zn24	Zn	1.785973	0.845808	0.754062
Zn25	Zn	1.119332	0.179153	-0.087279
Zn26	Zn	1.452665	0.512486	0.246054
Zn27	Zn	1.785998	0.845819	0.579387
O28	O	1.111523	0.288794	0.066331
O29	O	1.444856	0.622127	0.399664
O30	O	1.778189	0.955460	0.732997
C31	C	1.126545	0.041261	0.000076
C32	C	1.459878	0.374594	0.333410
C33	C	1.793211	0.707927	0.666743
C34	C	1.124861	-0.042873	0.000083
C35	C	1.458194	0.290460	0.333416
C36	C	1.791528	0.623794	0.666749
C37	C	0.946034	0.172974	0.000046
C38	C	1.279367	0.506307	0.333379
C39	C	1.612700	0.839640	0.666713
C40	C	0.840827	0.164378	0.000039
C41	C	1.174160	0.497711	0.333373
C42	C	1.507494	0.831044	0.666706
C43	C	1.114573	-0.559290	-0.072238
C44	C	1.447907	-0.225957	0.261096
C45	C	1.781240	0.107377	0.594429
C46	C	1.116154	-0.480238	-0.072230
C47	C	1.449487	-0.146904	0.261103
C48	C	1.782821	0.186429	0.594436
C49	C	1.116932	-0.440730	0.000042
C50	C	1.450265	-0.107396	0.333375
C51	C	1.783598	0.225937	0.666708
C52	C	1.116139	-0.480278	0.072312
C53	C	1.449472	-0.146945	0.405645
C54	C	1.782805	0.186388	0.738978
C55	C	1.114565	-0.559329	0.072304
C56	C	1.447898	-0.225996	0.405637
C57	C	1.781231	0.107337	0.738970
C58	C	1.122487	-0.161474	0.072345
C59	C	1.455820	0.171859	0.405679
C60	C	1.789154	0.505193	0.739012
C61	C	1.124058	-0.082417	0.072348
C62	C	1.457391	0.250916	0.405681
C63	C	1.790725	0.584250	0.739015
C64	C	1.124076	-0.082382	-0.072189
C65	C	1.457409	0.250951	0.261145
C66	C	1.790743	0.584284	0.594478
C67	C	1.122502	-0.161433	-0.072197
C68	C	1.455836	0.171900	0.261137
C69	C	1.789169	0.505233	0.594470
C70	C	1.121714	-0.200975	0.000073
C71	C	1.455048	0.132358	0.333406
C72	C	1.788381	0.465691	0.666739
C73	C	1.120002	-0.286693	0.000064
C74	C	1.453335	0.046640	0.333397
C75	C	1.786669	0.379974	0.666731
C76	C	1.118637	-0.355013	0.000051
C77	C	1.451970	-0.021680	0.333385
C78	C	1.785304	0.311653	0.666718
C79	C	0.648200	0.148662	0.000057
C80	C	0.981534	0.481996	0.333391
C81	C	1.314867	0.815329	0.666724
C82	C	0.590432	0.209628	0.000052
C83	C	0.923765	0.542962	0.333385
C84	C	1.257099	0.876295	0.666719
C85	C	0.483248	0.200884	0.000062
C86	C	0.816581	0.534217	0.333395
C87	C	1.149915	0.867551	0.666729
C88	C	0.755394	0.157405	0.000047
C89	C	1.088728	0.490739	0.333381
C90	C	1.422061	0.824072	0.666714
C91	C	1.292604	0.185321	0.000068
C92	C	1.625938	0.518654	0.333402
C93	C	1.959271	0.851987	0.666735
C94	C	1.397811	0.193916	0.000070
C95	C	1.731145	0.527250	0.333403
C96	C	2.064478	0.860583	0.666737
C97	C	1.112094	0.317033	0.000038
C98	C	1.445427	0.650367	0.333372
C99	C	1.778760	0.983700	0.666705
C100	C	1.113777	0.401167	0.000027
C101	C	1.447111	0.734500	0.333360
C102	C	1.780444	1.067834	0.666693
N103	N	1.119296	0.179134	0.206607
N104	N	1.452629	0.512467	0.539940
N105	N	1.785963	0.845801	0.873274
N106	N	1.119350	0.179155	-0.206491
N107	N	1.452683	0.512488	0.126843
N108	N	1.786016	0.845821	0.460176
C109	C	1.183860	0.132060	0.248335
C110	C	1.517193	0.465394	0.581669
C111	C	1.850526	0.798727	0.915002
C112	C	1.183865	0.132060	0.331788
C113	C	1.517198	0.465393	0.665121
C114	C	1.850532	0.798727	0.998454
C115	C	1.119310	0.179138	0.373510
C116	C	1.452644	0.512471	0.706843
C117	C	1.785977	0.845804	1.040177
C118	C	1.054739	0.226213	0.331776
C119	C	1.388073	0.559547	0.665109
C120	C	1.721406	0.892880	0.998442
C121	C	1.054730	0.226209	0.248325
C122	C	1.388064	0.559542	0.581658
C123	C	1.721397	0.892876	0.914992
C124	C	1.054774	0.226230	0.668323
C125	C	1.388107	0.559564	1.001656
C126	C	1.721440	0.892897	1.334990
C127	C	1.054790	0.226233	0.751779
C128	C	1.388123	0.559566	1.085113
C129	C	1.721456	0.892899	1.418446
C130	C	1.183908	0.132082	0.751786
C131	C	1.517242	0.465415	1.085119
C132	C	1.850575	0.798748	1.418452
C133	C	1.183899	0.132077	0.668335
C134	C	1.517233	0.465411	1.001668
C135	C	1.850566	0.798744	1.335002
C136	C	1.119326	0.179150	0.626608
C137	C	1.452659	0.512483	0.959941
C138	C	1.785992	0.845816	1.293275
C139	C	1.119320	0.179148	0.536120
C140	C	1.452653	0.512482	0.869453
C141	C	1.785986	0.845815	1.202786
C142	C	1.119320	0.179144	0.463997
C143	C	1.452653	0.512477	0.797330
C144	C	1.785987	0.845810	1.130663
H145	H	1.113931	-0.591452	-0.131090
H146	H	1.447264	-0.258118	0.202243
H147	H	1.780598	0.075215	0.535576
H148	H	0.621473	0.268390	0.000040
H149	H	0.954806	0.601723	0.333373
H150	H	1.288140	0.935056	0.666706
Cl151	Cl	0.973579	0.285394	0.384225
Cl152	Cl	1.306912	0.618727	0.717558
Cl153	Cl	1.640245	0.952061	1.050891
H154	H	1.124721	-0.050178	-0.131034
H155	H	1.458054	0.283155	0.202299
H156	H	1.791387	0.616489	0.535633
Cl157	Cl	1.125037	-0.032751	0.163212
Cl158	Cl	1.458370	0.300583	0.496545
Cl159	Cl	1.791704	0.633916	0.829878
H160	H	0.617161	0.089906	0.000070
H161	H	0.950495	0.423239	0.333404
H162	H	1.283828	0.756572	0.666737
H163	H	1.236432	0.093728	0.214371
H164	H	1.569765	0.427061	0.547704
H165	H	1.903098	0.760394	0.881037
Cl166	Cl	1.265031	0.072880	0.384248
Cl167	Cl	1.598365	0.406214	0.717581
Cl168	Cl	1.931698	0.739547	1.050914
Cl169	Cl	1.121487	-0.211173	0.163199
Cl170	Cl	1.454820	0.122160	0.496532
Cl171	Cl	1.788153	0.455494	0.829865
H172	H	1.236469	0.093745	0.634367
H173	H	1.569802	0.427078	0.967700
H174	H	1.903136	0.760412	1.301034
Cl175	Cl	1.265085	0.072901	0.804247
Cl176	Cl	1.598418	0.406234	1.137580
Cl177	Cl	1.931752	0.739567	1.470913
H178	H	1.121864	-0.193597	-0.131048
H179	H	1.455197	0.139736	0.202285
H180	H	1.788531	0.473070	0.535618
Cl181	Cl	0.973627	0.285419	0.804230
Cl182	Cl	1.306961	0.618753	1.137563
Cl183	Cl	1.640294	0.952086	1.470896
H184	H	1.002197	0.264560	0.634355
H185	H	1.335531	0.597893	0.967689
H186	H	1.668864	0.931226	1.301022
H187	H	1.002155	0.264540	0.214350
H188	H	1.335488	0.597873	0.547684
H189	H	1.668821	0.931207	0.881017
H190	H	1.116804	-0.448045	-0.131075
H191	H	1.450137	-0.114712	0.202258
H192	H	1.783470	0.218621	0.535591
Cl193	Cl	1.113570	-0.609041	0.163154
Cl194	Cl	1.446903	-0.275708	0.496488
Cl195	Cl	1.780237	0.057626	0.829821
Cl196	Cl	1.117122	-0.430611	0.163169
Cl197	Cl	1.450455	-0.097277	0.496502
Cl198	Cl	1.783789	0.236056	0.829836
