data_functionalizedCrystal
_audit_creation_method	'MofGen! by Chris Wilmer'
_symmetry_space_group_name_H-M	'P1'
_symmetry_Int_Tables_number	1
_symmetry_cell_setting	triclinic
loop_
_symmetry_equiv_pos_as_xyz
  x,y,z
_cell_length_a	14.908783
_cell_length_b	18.101397
_cell_length_c	18.101390
_cell_angle_alpha	89.964458
_cell_angle_beta	86.680743
_cell_angle_gamma	93.311144
loop_
_atom_site_label
_atom_site_type_symbol
_atom_site_fract_x
_atom_site_fract_y
_atom_site_fract_z
Zn1	Zn	1.379250	-0.229553	-0.484151
Zn2	Zn	1.712583	0.103781	-0.150818
Zn3	Zn	2.045916	0.437114	0.182515
Zn4	Zn	1.379150	-0.353414	-0.360299
Zn5	Zn	1.712483	-0.020081	-0.026966
Zn6	Zn	2.045817	0.313252	0.306367
Zn7	Zn	1.228382	-0.236724	-0.353167
Zn8	Zn	1.561716	0.096610	-0.019833
Zn9	Zn	1.895049	0.429943	0.313500
Zn10	Zn	1.228351	-0.360495	-0.476945
Zn11	Zn	1.561684	-0.027162	-0.143612
Zn12	Zn	1.895018	0.306171	0.189721
O13	O	1.303783	-0.295046	-0.418641
O14	O	1.637117	0.038287	-0.085307
O15	O	1.970450	0.371620	0.248026
O16	O	1.505485	-0.240019	-0.473723
O17	O	1.838818	0.093315	-0.140389
O18	O	2.172151	0.426648	0.192944
O19	O	1.359121	-0.337973	-0.255719
O20	O	1.692455	-0.004639	0.077615
O21	O	2.025788	0.328694	0.410948
O22	O	1.248450	-0.132137	-0.370573
O23	O	1.581783	0.201196	-0.037239
O24	O	1.915117	0.534530	0.296094
O25	O	1.505411	-0.331019	-0.382729
O26	O	1.838745	0.002314	-0.049396
O27	O	2.172078	0.335647	0.283938
O28	O	1.359292	-0.126868	-0.466806
O29	O	1.692625	0.206465	-0.133473
O30	O	2.025958	0.539798	0.199860
O31	O	1.248353	-0.252241	-0.250479
O32	O	1.581686	0.081093	0.082855
O33	O	1.915020	0.414426	0.416188
O34	O	1.102130	-0.259107	-0.363586
O35	O	1.435463	0.074227	-0.030252
O36	O	1.768796	0.407560	0.303081
O37	O	1.248397	-0.343088	-0.581536
O38	O	1.581730	-0.009755	-0.248202
O39	O	1.915064	0.323579	0.085131
O40	O	1.102107	-0.350041	-0.454525
O41	O	1.435440	-0.016708	-0.121192
O42	O	1.768774	0.316625	0.212141
O43	O	1.359261	-0.246885	-0.586830
O44	O	1.692595	0.086449	-0.253496
O45	O	2.025928	0.419782	0.079837
O46	O	1.359091	-0.457989	-0.375742
O47	O	1.692425	-0.124656	-0.042409
O48	O	2.025758	0.208678	0.290925
O49	O	1.248300	-0.463192	-0.461441
O50	O	1.581633	-0.129858	-0.128108
O51	O	1.914967	0.203475	0.205225
C52	C	1.069384	-0.306121	-0.407500
C53	C	1.402717	0.027212	-0.074167
C54	C	1.736050	0.360546	0.259167
C55	C	0.969106	-0.310877	-0.402752
C56	C	1.302440	0.022457	-0.069418
C57	C	1.635773	0.355790	0.263915
C58	C	0.780749	-0.225184	-0.488725
C59	C	1.114083	0.108150	-0.155392
C60	C	1.447416	0.441483	0.177942
C61	C	0.686530	-0.229649	-0.484266
C62	C	1.019863	0.103684	-0.150933
C63	C	1.353197	0.437017	0.182401
C64	C	0.686447	-0.324270	-0.389371
C65	C	1.019780	0.009064	-0.056038
C66	C	1.353113	0.342397	0.277296
C67	C	0.780666	-0.319804	-0.393830
C68	C	1.113999	0.013529	-0.060497
C69	C	1.447333	0.346863	0.272837
C70	C	0.827814	-0.270260	-0.443510
C71	C	1.161147	0.063073	-0.110176
C72	C	1.494481	0.396407	0.223157
C73	C	0.922035	-0.265799	-0.447972
C74	C	1.255368	0.067535	-0.114639
C75	C	1.588702	0.400868	0.218695
C76	C	0.921950	-0.360415	-0.353074
C77	C	1.255283	-0.027081	-0.019740
C78	C	1.588617	0.306252	0.313593
C79	C	0.827731	-0.364880	-0.348615
C80	C	1.161064	-0.031547	-0.015281
C81	C	1.494397	0.301786	0.318052
C82	C	1.303706	-0.487461	-0.418601
C83	C	1.637039	-0.154127	-0.085268
C84	C	1.970373	0.179206	0.248066
C85	C	1.303756	-0.569772	-0.418613
C86	C	1.637089	-0.236439	-0.085280
C87	C	1.970422	0.096894	0.248054
C88	C	1.303871	-0.868858	-0.418686
C89	C	1.637204	-0.535525	-0.085353
C90	C	1.970537	-0.202191	0.247981
C91	C	1.373383	-0.834238	-0.364604
C92	C	1.706716	-0.500905	-0.031270
C93	C	2.040050	-0.167571	0.302063
C94	C	1.373624	-0.748608	-0.364764
C95	C	1.706957	-0.415275	-0.031430
C96	C	2.040291	-0.081941	0.301903
C97	C	1.303814	-0.720478	-0.418649
C98	C	1.637147	-0.387145	-0.085316
C99	C	1.970480	-0.053811	0.248018
C100	C	1.329587	-0.750259	-0.497932
C101	C	1.662920	-0.416926	-0.164599
C102	C	1.996254	-0.083593	0.168734
C103	C	1.330125	-0.835879	-0.497645
C104	C	1.663458	-0.502546	-0.164312
C105	C	1.996791	-0.169212	0.169021
C106	C	1.208400	-0.841885	-0.394152
C107	C	1.541733	-0.508552	-0.060818
C108	C	1.875066	-0.175218	0.272515
C109	C	1.208871	-0.756213	-0.392432
C110	C	1.542204	-0.422880	-0.059098
C111	C	1.875538	-0.089547	0.274235
C112	C	1.303780	-0.636620	-0.418633
C113	C	1.637113	-0.303287	-0.085300
C114	C	1.970446	0.030046	0.248034
C115	C	1.303907	-0.952716	-0.418707
C116	C	1.637240	-0.619382	-0.085374
C117	C	1.970573	-0.286049	0.247959
C118	C	1.539098	-0.283929	-0.429825
C119	C	1.872431	0.049404	-0.096492
C120	C	2.205765	0.382738	0.236841
C121	C	1.639375	-0.279192	-0.434591
C122	C	1.972709	0.054142	-0.101258
C123	C	2.306042	0.387475	0.232075
C124	C	1.303837	-0.294976	-0.611805
C125	C	1.637170	0.038357	-0.278472
C126	C	1.970503	0.371690	0.054861
C127	C	1.303860	-0.294946	-0.694120
C128	C	1.637193	0.038387	-0.360787
C129	C	1.970526	0.371720	-0.027454
C130	C	1.303885	-0.101880	-0.418698
C131	C	1.637219	0.231454	-0.085364
C132	C	1.970552	0.564787	0.247969
C133	C	1.303929	-0.019564	-0.418722
C134	C	1.637262	0.313770	-0.085389
C135	C	1.970595	0.647103	0.247945
C136	C	1.303908	-0.294898	-0.993214
C137	C	1.637242	0.038435	-0.659881
C138	C	1.970575	0.371769	-0.326547
C139	C	1.373891	-0.234560	-0.965230
C140	C	1.707224	0.098773	-0.631897
C141	C	2.040558	0.432107	-0.298564
C142	C	1.373673	-0.234359	-0.879602
C143	C	1.707006	0.098975	-0.546268
C144	C	2.040339	0.432308	-0.212935
C145	C	1.303885	-0.294922	-0.844830
C146	C	1.637218	0.038411	-0.511497
C147	C	1.970552	0.371745	-0.178163
C148	C	1.208838	-0.278215	-0.871396
C149	C	1.542171	0.055118	-0.538063
C150	C	1.875505	0.388452	-0.204729
C151	C	1.209257	-0.277768	-0.957061
C152	C	1.542590	0.055566	-0.623728
C153	C	1.875924	0.388899	-0.290394
C154	C	1.328135	-0.372129	-0.962772
C155	C	1.661469	-0.038796	-0.629438
C156	C	1.994802	0.294538	-0.296105
C157	C	1.330221	-0.371631	-0.877221
C158	C	1.663555	-0.038297	-0.543887
C159	C	1.996888	0.295036	-0.210554
C160	C	1.303866	-0.294937	-0.760970
C161	C	1.637199	0.038396	-0.427636
C162	C	1.970533	0.371730	-0.094303
C163	C	1.303921	-0.294881	-1.077074
C164	C	1.637254	0.038452	-0.743741
C165	C	1.970588	0.371785	-0.410407
C166	C	1.303782	-0.295060	-0.226230
C167	C	1.637115	0.038273	0.107103
C168	C	1.970448	0.371606	0.440437
C169	C	1.303934	-0.294873	-0.143924
C170	C	1.637267	0.038460	0.189410
C171	C	1.970600	0.371793	0.522743
H172	H	1.357453	-0.855640	-0.305794
H173	H	1.690787	-0.522306	0.027540
H174	H	2.024120	-0.188973	0.360873
O175	O	1.267613	-0.433905	-0.845892
O176	O	1.600946	-0.100572	-0.512558
O177	O	1.934280	0.232761	-0.179225
H178	H	1.216515	-0.411052	-0.806574
H179	H	1.549848	-0.077719	-0.473241
H180	H	1.883182	0.255614	-0.139908
O181	O	0.972710	-0.409036	-0.304297
O182	O	1.306043	-0.075702	0.029036
O183	O	1.639377	0.257631	0.362370
H184	H	1.046148	-0.397606	-0.315739
H185	H	1.379482	-0.064273	0.017594
H186	H	1.712815	0.269061	0.350928
H187	H	0.648213	-0.192942	-0.521083
H188	H	0.981547	0.140392	-0.187750
H189	H	1.314880	0.473725	0.145583
O190	O	1.467555	-0.247478	-0.996976
O191	O	1.800889	0.085855	-0.663643
O192	O	2.134222	0.419189	-0.330310
H193	H	1.465234	-0.297039	-1.033042
H194	H	1.798567	0.036294	-0.699708
H195	H	2.131901	0.369628	-0.366375
H196	H	1.280505	-0.732218	-0.539506
H197	H	1.613839	-0.398885	-0.206173
H198	H	1.947172	-0.065551	0.127160
O199	O	1.467034	-0.247509	-0.856196
O200	O	1.800367	0.085825	-0.522863
O201	O	2.133701	0.419158	-0.189530
H202	H	1.464727	-0.298504	-0.821893
H203	H	1.798060	0.034829	-0.488560
H204	H	2.131393	0.368163	-0.155227
H205	H	1.357635	-0.177054	-0.858371
H206	H	1.690968	0.156279	-0.525038
H207	H	2.024301	0.489612	-0.191704
H208	H	1.357499	-0.728414	-0.306118
H209	H	1.690833	-0.395081	0.027215
H210	H	2.024166	-0.061747	0.360549
O211	O	1.420995	-0.717459	-0.525099
O212	O	1.754329	-0.384126	-0.191766
O213	O	2.087662	-0.050792	0.141568
H214	H	1.448216	-0.679949	-0.482271
H215	H	1.781549	-0.346615	-0.148938
H216	H	2.114882	-0.013282	0.184396
O217	O	1.137890	-0.334892	-0.841032
O218	O	1.471223	-0.001558	-0.507699
O219	O	1.804556	0.331775	-0.174366
H220	H	1.071396	-0.321832	-0.860618
H221	H	1.404730	0.011501	-0.527285
H222	H	1.738063	0.344834	-0.193951
O223	O	0.635581	-0.377693	-0.335785
O224	O	0.968914	-0.044359	-0.002452
O225	O	1.302247	0.288974	0.330882
H226	H	0.653646	-0.434977	-0.349229
H227	H	0.986980	-0.101644	-0.015896
H228	H	1.320313	0.231689	0.317438
O229	O	1.136573	-0.731303	-0.440305
O230	O	1.469906	-0.397969	-0.106972
O231	O	1.803240	-0.064636	0.226361
H232	H	1.070479	-0.757529	-0.420292
H233	H	1.403813	-0.424195	-0.086959
H234	H	1.737146	-0.090862	0.246374
O235	O	0.972891	-0.212364	-0.501552
O236	O	1.306225	0.120970	-0.168218
O237	O	1.639558	0.454303	0.165115
H238	H	1.015815	-0.172620	-0.470500
H239	H	1.349148	0.160713	-0.137167
H240	H	1.682481	0.494047	0.196166
H241	H	0.819138	-0.184846	-0.529179
H242	H	1.152471	0.148487	-0.195846
H243	H	1.485805	0.481820	0.137487
O244	O	1.181122	-0.204482	-0.841691
O245	O	1.514455	0.128851	-0.508357
O246	O	1.847788	0.462185	-0.175024
H247	H	1.170476	-0.167033	-0.888566
H248	H	1.503809	0.166300	-0.555233
H249	H	1.837143	0.499634	-0.221899
H250	H	1.156608	-0.864597	-0.433487
H251	H	1.489941	-0.531264	-0.100154
H252	H	1.823274	-0.197931	0.233180
H253	H	1.443716	-0.852378	-0.381024
H254	H	1.777050	-0.519044	-0.047691
H255	H	2.110383	-0.185711	0.285642
O256	O	0.776878	-0.418315	-0.295033
O257	O	1.110211	-0.084982	0.038301
O258	O	1.443545	0.248352	0.371634
H259	H	0.703454	-0.413851	-0.299529
H260	H	1.036787	-0.080517	0.033804
H261	H	1.370120	0.252816	0.367138
O262	O	1.467297	-0.716952	-0.386740
O263	O	1.800630	-0.383618	-0.053407
O264	O	2.133963	-0.050285	0.279927
H265	H	1.512599	-0.762816	-0.397303
H266	H	1.845932	-0.429482	-0.063970
H267	H	2.179266	-0.096149	0.269364
H268	H	1.399910	-0.852495	-0.517902
H269	H	1.733243	-0.519162	-0.184568
H270	H	2.066576	-0.185828	0.148765
H271	H	1.281713	-0.858892	-0.539575
H272	H	1.615046	-0.525559	-0.206241
H273	H	1.948379	-0.192225	0.127092
O274	O	1.352907	-0.159062	-0.992741
O275	O	1.686240	0.174271	-0.659408
O276	O	2.019574	0.507605	-0.326074
H277	H	1.292851	-0.164326	-1.026258
H278	H	1.626184	0.169008	-0.692925
H279	H	1.959518	0.502341	-0.359592
H280	H	1.188721	-0.221446	-0.976080
H281	H	1.522054	0.111887	-0.642747
H282	H	1.855387	0.445220	-0.309414
H283	H	1.184953	-0.864660	-0.337105
H284	H	1.518286	-0.531326	-0.003771
H285	H	1.851619	-0.197993	0.329562
O286	O	1.183113	-0.730602	-0.315119
O287	O	1.516446	-0.397268	0.018214
O288	O	1.849779	-0.063935	0.351547
H289	H	1.237694	-0.692576	-0.295443
H290	H	1.571027	-0.359242	0.037890
H291	H	1.904360	-0.025909	0.371224
O292	O	1.137834	-0.333762	-0.981110
O293	O	1.471168	-0.000429	-0.647777
O294	O	1.804501	0.332904	-0.314444
H295	H	1.103144	-0.361036	-0.931559
H296	H	1.436477	-0.027703	-0.598226
H297	H	1.769811	0.305631	-0.264892
H298	H	1.396229	-0.388215	-0.987645
H299	H	1.729562	-0.054881	-0.654312
H300	H	2.062896	0.278452	-0.320979
O301	O	1.422876	-0.388429	-0.854721
O302	O	1.756209	-0.055095	-0.521387
O303	O	2.089543	0.278238	-0.188054
H304	H	1.423043	-0.390366	-0.793440
H305	H	1.756376	-0.057032	-0.460107
H306	H	2.089710	0.276301	-0.126774
O307	O	1.260628	-0.431613	-0.986383
O308	O	1.593961	-0.098280	-0.653050
O309	O	1.927294	0.235054	-0.319717
H310	H	1.210062	-0.406342	-1.019639
H311	H	1.543396	-0.073009	-0.686305
H312	H	1.876729	0.260324	-0.352972
