data_functionalizedCrystal
_audit_creation_method	'MofGen! by Chris Wilmer'
_symmetry_space_group_name_H-M	'P1'
_symmetry_Int_Tables_number	1
_symmetry_cell_setting	triclinic
loop_
_symmetry_equiv_pos_as_xyz
  x,y,z
_cell_length_a	13.033293
_cell_length_b	13.031981
_cell_length_c	19.805399
_cell_angle_alpha	82.788388
_cell_angle_beta	82.794612
_cell_angle_gamma	103.320033
loop_
_atom_site_label
_atom_site_type_symbol
_atom_site_fract_x
_atom_site_fract_y
_atom_site_fract_z
Zn1	Zn	1.570180	-0.216878	-0.494238
Zn2	Zn	1.547535	-0.394544	-0.364562
Zn3	Zn	1.392561	-0.239450	-0.364571
Zn4	Zn	1.369988	-0.417013	-0.461232
O5	O	1.470066	-0.316971	-0.421151
O6	O	1.715814	-0.221596	-0.490846
O7	O	1.526947	-0.374013	-0.269841
O8	O	1.435046	-0.087791	-0.395588
O9	O	1.699176	-0.352126	-0.395574
O10	O	1.565542	-0.071208	-0.490854
O11	O	1.413088	-0.260066	-0.269847
O12	O	1.240928	-0.281854	-0.363584
O13	O	1.396573	-0.390422	-0.560333
O14	O	1.224344	-0.412309	-0.434600
O15	O	1.543654	-0.243384	-0.584582
O16	O	1.505059	-0.546189	-0.363569
O17	O	1.374616	-0.562697	-0.434592
C18	C	1.194096	-0.351969	-0.395511
C19	C	1.076032	-0.366967	-0.384556
C20	C	1.031614	-0.309170	-0.426866
C21	C	0.909588	-0.324670	-0.415544
C22	C	1.434959	-0.592987	-0.395515
C23	C	1.420038	-0.711055	-0.384580
C24	C	1.477910	-0.755411	-0.426877
C25	C	1.462489	-0.877440	-0.415575
C26	C	1.747113	-0.281837	-0.446890
C27	C	1.865174	-0.266865	-0.457859
C28	C	1.470122	-0.316892	-0.597705
C29	C	1.470145	-0.316858	-0.672941
C30	C	1.505338	-0.039874	-0.446904
C31	C	1.520369	0.078208	-0.457878
C32	C	1.410879	-0.257517	-0.708291
C33	C	1.410897	-0.257494	-0.778982
C34	C	1.470187	-0.316807	-0.814325
C35	C	1.529455	-0.376156	-0.778970
C36	C	1.529431	-0.376183	-0.708278
C37	C	1.529551	-0.376045	-1.064060
C38	C	1.529573	-0.376010	-1.134757
C39	C	1.411017	-0.257356	-1.134764
C40	C	1.410994	-0.257384	-1.064073
C41	C	1.470257	-0.316736	-1.028724
C42	C	1.470236	-0.316762	-0.952071
C43	C	1.470214	-0.316777	-0.890977
C44	C	1.470081	-0.316966	-0.245296
C45	C	1.470301	-0.316675	-0.170107
H46	H	0.917481	-0.205898	-0.502463
H47	H	1.083925	-0.248210	-0.471467
H48	H	1.577723	-0.424456	-0.807750
C49	C	1.593669	-0.440584	-0.669768
C50	C	1.580935	-0.427939	-0.600291
C51	C	1.640081	-0.487265	-0.564793
H52	H	1.667055	-0.416046	-0.689342
H53	H	1.569026	-0.513955	-0.673232
H54	H	1.605583	-0.354583	-0.596831
H55	H	1.507562	-0.452483	-0.580697
H56	H	1.615437	-0.560636	-0.568257
H57	H	1.713463	-0.462722	-0.584373
H58	H	1.631441	-0.478702	-0.517648
H59	H	0.857281	-0.385629	-0.370936
H60	H	1.362759	-0.209032	-1.163554
H61	H	1.023721	-0.427922	-0.339951
H62	H	1.538869	-0.703046	-0.471458
C63	C	1.381113	-0.947395	-0.356222
C64	C	1.305014	-1.019760	-0.382324
C65	C	1.230044	-1.084228	-0.327669
H66	H	1.346688	-0.903876	-0.331115
H67	H	1.416306	-0.985574	-0.326552
H68	H	1.269824	-0.981584	-0.411981
H69	H	1.339408	-1.063302	-0.407425
H70	H	1.265237	-1.122407	-0.298000
H71	H	1.195627	-1.040701	-0.302566
H72	H	1.178408	-1.133342	-0.345371
H73	H	1.581333	-0.869429	-0.502462
H74	H	1.359070	-0.763423	-0.340004
C75	C	1.346392	-0.193094	-0.670037
C76	C	1.294468	-0.141147	-0.716125
C77	C	1.235036	-0.081806	-0.680910
H78	H	1.392795	-0.141583	-0.650532
H79	H	1.294875	-0.239600	-0.634395
H80	H	1.345978	-0.094645	-0.751754
H81	H	1.248046	-0.192633	-0.735632
H82	H	1.183519	-0.128312	-0.645268
H83	H	1.281447	-0.030300	-0.661406
H84	H	1.199791	-0.046561	-0.712173
C85	C	1.346379	-0.193267	-0.817359
C86	C	1.270629	-0.262051	-0.846000
C87	C	1.211155	-0.202929	-0.881345
H88	H	1.392775	-0.141806	-0.853065
H89	H	1.311006	-0.157979	-0.786194
H90	H	1.306001	-0.297322	-0.877163
H91	H	1.224211	-0.313513	-0.810310
H92	H	1.175781	-0.167640	-0.850180
H93	H	1.257559	-0.151470	-0.917047
H94	H	1.159745	-0.249591	-0.900777
C95	C	1.346508	-0.192962	-1.025817
C96	C	1.294584	-0.141010	-1.071902
C97	C	1.235155	-0.081670	-1.036684
H98	H	1.392915	-0.141453	-1.006312
H99	H	1.294993	-0.239468	-0.990175
H100	H	1.346094	-0.094508	-1.107531
H101	H	1.248160	-0.192494	-1.091409
H102	H	1.183639	-0.128176	-1.001042
H103	H	1.281569	-0.030166	-1.017180
H104	H	1.199910	-0.046421	-1.067945
H105	H	1.577856	-0.424314	-1.163531
C106	C	1.594022	-0.440490	-1.025819
C107	C	1.645979	-0.492394	-1.071909
C108	C	1.705398	-0.551756	-1.036706
H109	H	1.547606	-0.492028	-0.990163
H110	H	1.645519	-0.394003	-1.006340
H111	H	1.594488	-0.538878	-1.091377
H112	H	1.692413	-0.440883	-1.107566
H113	H	1.756895	-0.505269	-1.017227
H114	H	1.658974	-0.603287	-1.001050
H115	H	1.740665	-0.586972	-1.067973
