data_functionalizedCrystal
_audit_creation_method	'MofGen! by Chris Wilmer'
_symmetry_space_group_name_H-M	'P1'
_symmetry_Int_Tables_number	1
_symmetry_cell_setting	triclinic
loop_
_symmetry_equiv_pos_as_xyz
  x,y,z
_cell_length_a	10.654550
_cell_length_b	9.065218
_cell_length_c	9.130313
_cell_angle_alpha	90.000552
_cell_angle_beta	89.996220
_cell_angle_gamma	84.750394
loop_
_atom_site_label
_atom_site_type_symbol
_atom_site_fract_x
_atom_site_fract_y
_atom_site_fract_z
O1	O	1.668655	0.207228	-0.121914
O2	O	1.303255	0.226972	-0.121889
O3	O	1.493507	0.002416	-0.121899
O4	O	1.478402	0.431784	-0.121904
O5	O	1.493505	0.002422	0.121700
O6	O	1.303252	0.226978	0.121709
O7	O	1.668653	0.207234	0.121685
Cu8	Cu	1.485952	0.217107	0.143940
Cu9	Cu	1.485955	0.217100	-0.144144
O10	O	1.478400	0.431790	0.121695
C11	C	1.256450	0.225525	-0.000087
C12	C	1.116989	0.221188	-0.000078
C13	C	1.038027	0.353403	-0.000101
C14	C	0.906990	0.349319	-0.000126
C15	C	0.933890	0.080793	-0.000112
C16	C	1.064925	0.084879	-0.000076
C17	C	1.022496	0.508434	-0.000115
C18	C	0.891459	0.504350	-0.000141
C19	C	1.492055	-0.052559	-0.000102
C20	C	1.487714	-0.216378	-0.000109
C21	C	1.715457	0.208681	-0.000120
C22	C	1.854918	0.213018	-0.000139
C23	C	1.479852	0.486766	-0.000106
C24	C	1.484193	0.650585	-0.000108
N25	N	1.485959	0.217111	0.346563
N26	N	1.485957	0.217084	-0.346767
C27	C	1.570225	0.117712	0.423210
C28	C	1.570222	0.117694	0.576547
C29	C	1.401682	0.316488	0.576575
C30	C	1.401681	0.316497	0.423241
C31	C	1.667534	0.002944	0.423195
C32	C	1.667531	0.002926	0.576532
H33	H	0.849958	0.562761	-0.102095
O34	O	1.065407	0.567488	-0.125430
C35	C	1.127138	0.694220	-0.091288
H36	H	1.160363	0.687631	0.027410
H37	H	1.211835	0.699888	-0.166712
H38	H	1.059138	0.797617	-0.106953
O39	O	0.883371	-0.051647	0.000139
C40	C	0.923570	-0.132339	0.126291
H41	H	0.951701	-0.052656	0.214478
H42	H	0.843489	-0.195926	0.168620
H43	H	1.008024	-0.213682	0.097786
O44	O	1.319700	0.413082	0.650836
C45	C	1.245346	0.500843	0.550299
H46	H	1.243250	0.440346	0.440989
H47	H	1.145300	0.522243	0.594606
H48	H	1.287359	0.610905	0.534004
H49	H	1.645642	-0.110463	0.381578
H50	H	1.129212	-0.022783	-0.000036
O51	O	0.836987	0.560113	0.125263
C52	C	0.705545	0.552628	0.117803
H53	H	0.683790	0.463214	0.036250
H54	H	0.668448	0.524457	0.230553
H55	H	0.658110	0.664159	0.080576
H56	H	1.636593	-0.104243	0.624083
H57	H	1.764142	0.028206	0.618142
H58	H	1.758860	0.038879	0.375630
O59	O	1.057746	0.580549	0.121659
C60	C	1.020987	0.505427	0.247590
H61	H	1.009703	0.384976	0.218860
H62	H	1.096068	0.509955	0.336022
H63	H	0.927469	0.560604	0.289720
O64	O	1.319993	0.413115	0.348628
C65	C	1.388275	0.504921	0.259967
H66	H	1.485887	0.447239	0.236976
H67	H	1.336114	0.527701	0.152152
H68	H	1.398039	0.614056	0.319076
