data_functionalizedCrystal
_audit_creation_method	'MofGen! by Chris Wilmer'
_symmetry_space_group_name_H-M	'P1'
_symmetry_Int_Tables_number	1
_symmetry_cell_setting	triclinic
loop_
_symmetry_equiv_pos_as_xyz
  x,y,z
_cell_length_a	14.044190
_cell_length_b	10.908878
_cell_length_c	10.065875
_cell_angle_alpha	83.443480
_cell_angle_beta	99.589132
_cell_angle_gamma	76.638284
loop_
_atom_site_label
_atom_site_type_symbol
_atom_site_fract_x
_atom_site_fract_y
_atom_site_fract_z
O1	O	-0.160393	1.704257	-0.113445
O2	O	0.339607	2.204257	0.386555
O3	O	-0.087688	1.338726	-0.113463
O4	O	0.412312	1.838726	0.386537
O5	O	-0.261156	1.515996	-0.113428
O6	O	0.238844	2.015996	0.386572
O7	O	0.013075	1.526987	-0.113481
O8	O	0.513075	2.026987	0.386519
O9	O	-0.227968	1.482206	0.113554
O10	O	0.272032	1.982206	0.613554
O11	O	-0.054501	1.304936	0.113519
O12	O	0.445499	1.804936	0.613519
O13	O	-0.127205	1.670466	0.113537
O14	O	0.372795	2.170466	0.613537
Zn15	Zn	-0.085584	1.482336	0.149566
Zn16	Zn	0.414416	1.982336	0.649566
Zn17	Zn	-0.129310	1.526857	-0.149492
Zn18	Zn	0.370690	2.026857	0.350508
O19	O	0.046262	1.493196	0.113501
O20	O	0.546262	1.993196	0.613501
C21	C	-0.064300	1.274768	0.000026
C22	C	0.435700	1.774768	0.500026
C23	C	-0.044065	1.134535	0.000020
C24	C	0.455935	1.634535	0.500020
C25	C	-0.117898	1.077064	0.000034
C26	C	0.382102	1.577064	0.500034
C27	C	-0.096987	0.932126	0.000028
C28	C	0.403013	1.432126	0.500028
C29	C	-0.279119	1.494296	0.000067
C30	C	0.220881	1.994296	0.500067
C31	C	-0.382084	1.479963	0.000078
C32	C	0.117916	1.979963	0.500078
C33	C	-0.644269	1.555410	0.000029
C34	C	-0.144269	2.055410	0.500029
C35	C	-0.570621	1.453790	0.000033
C36	C	-0.070621	1.953790	0.500033
C37	C	-0.465710	1.468356	0.000058
C38	C	0.034290	1.968356	0.500058
C39	C	-0.749191	1.540846	0.000003
C40	C	-0.249191	2.040846	0.500003
C41	C	0.064225	1.514897	0.000003
C42	C	0.564225	2.014897	0.500003
C43	C	0.167189	1.529231	-0.000017
C44	C	0.667189	2.029231	0.499983
C45	C	-0.150594	1.734425	0.000045
C46	C	0.349406	2.234425	0.500045
C47	C	-0.170830	1.874659	0.000041
C48	C	0.329170	2.374659	0.500041
N49	N	-0.055744	1.451961	0.353666
N50	N	0.444256	1.951961	0.853666
N51	N	-0.159158	1.557241	-0.353592
N52	N	0.340842	2.057241	0.146408
C53	C	-0.118932	1.516280	0.421457
C54	C	0.381068	2.016280	0.921457
C55	C	-0.095961	1.492913	0.578620
C56	C	0.404039	1.992913	1.078620
H57	H	-0.249530	0.932754	0.000047
H58	H	0.250470	1.432754	0.500047
O59	O	0.060177	1.057592	-0.000004
O60	O	0.560177	1.557592	0.499996
H61	H	0.111896	1.066497	0.092500
H62	H	0.611896	1.566497	0.592500
H63	H	-0.586359	1.355849	0.000020
H64	H	-0.086359	1.855849	0.500020
H65	H	0.015357	1.379592	0.411977
H66	H	0.515357	1.879592	0.911977
O67	O	-0.001753	1.397073	0.655833
O68	O	0.498247	1.897073	1.155833
H69	H	-0.001898	1.301366	0.628520
H70	H	0.498102	1.801366	1.128520
H71	H	-0.190039	1.588639	0.363148
H72	H	0.309961	2.088639	0.863148
O73	O	-0.623431	1.685139	0.000062
O74	O	-0.123431	2.185139	0.500062
H75	H	-0.543099	1.676362	0.000092
H76	H	-0.043099	2.176362	0.500092
O77	O	-0.253358	1.653094	0.569191
O78	O	0.246642	2.153094	1.069191
H79	H	-0.233440	1.728676	0.504073
H80	H	0.266560	2.228676	1.004073
O81	O	-0.222140	1.154003	0.000068
O82	O	0.277860	1.654003	0.500068
H83	H	-0.222204	1.255767	0.000083
H84	H	0.277796	1.755767	0.500083
H85	H	-0.018289	0.874032	0.000006
H86	H	0.481711	1.374032	0.500006
