data_functionalizedCrystal
_audit_creation_method	'MofGen! by Chris Wilmer'
_symmetry_space_group_name_H-M	'P1'
_symmetry_Int_Tables_number	1
_symmetry_cell_setting	triclinic
loop_
_symmetry_equiv_pos_as_xyz
  x,y,z
_cell_length_a	19.805407
_cell_length_b	19.077391
_cell_length_c	19.805407
_cell_angle_alpha	87.689496
_cell_angle_beta	90.010162
_cell_angle_gamma	92.268720
loop_
_atom_site_label
_atom_site_type_symbol
_atom_site_fract_x
_atom_site_fract_y
_atom_site_fract_z
Zn1	Zn	1.045450	0.280335	0.371973
Zn2	Zn	1.049929	0.397998	0.254240
Zn3	Zn	0.932292	0.280320	0.258789
Zn4	Zn	0.936765	0.397992	0.367378
O5	O	0.991109	0.339161	0.313095
O6	O	1.140761	0.295952	0.356375
O7	O	1.034327	0.382384	0.160127
O8	O	0.943556	0.181834	0.277631
O9	O	1.144052	0.382398	0.269877
O10	O	1.026693	0.181845	0.360787
O11	O	0.947900	0.295927	0.163470
O12	O	0.838168	0.295921	0.273175
O13	O	0.951179	0.382388	0.462704
O14	O	0.841454	0.382373	0.352954
O15	O	1.031030	0.295946	0.466080
O16	O	1.038664	0.496485	0.265420
O17	O	0.955522	0.496481	0.348542
C18	C	0.815252	0.339145	0.313060
C19	C	0.740021	0.339155	0.313060
C20	C	0.279962	0.384262	0.354608
C21	C	0.350650	0.384261	0.354594
C22	C	0.384260	0.339178	0.313121
C23	C	0.347177	0.294099	0.271654
C24	C	0.276491	0.294104	0.271666
C25	C	0.632250	0.294077	0.271608
C26	C	0.702942	0.294074	0.271601
C27	C	0.706410	0.384234	0.354536
C28	C	0.635723	0.384239	0.354547
C29	C	0.598647	0.339163	0.313078
C30	C	0.521998	0.339166	0.313093
C31	C	0.460907	0.339171	0.313109
C32	C	0.998083	0.522020	0.306004
C33	C	1.001128	0.600248	0.302992
C34	C	0.959242	0.637023	0.344819
C35	C	0.962107	0.710526	0.341987
C36	C	1.006861	0.747253	0.297331
C37	C	1.048749	0.710473	0.255500
C38	C	1.045881	0.636971	0.258329
C39	C	1.020082	0.967078	0.284230
C40	C	1.022948	1.040585	0.281406
C41	C	0.936304	1.040633	0.367892
C42	C	0.933443	0.967130	0.370720
C43	C	0.975328	0.930356	0.328887
N44	N	1.009792	0.822386	0.294437
N45	N	0.972394	0.855225	0.331778
C46	C	1.167652	0.339178	0.313131
C47	C	1.242885	0.339185	0.313146
C48	C	0.991104	0.339168	0.489637
C49	C	0.991102	0.339171	0.564869
C50	C	0.984104	1.155588	0.320220
C51	C	0.981062	1.077360	0.323233
C52	C	1.032678	0.294156	1.028420
C53	C	1.032680	0.294159	0.957731
C54	C	0.991107	0.339165	0.920631
C55	C	0.949533	0.384176	0.954223
C56	C	0.949535	0.384176	1.024910
C57	C	0.949526	0.384179	0.669150
C58	C	0.949526	0.384174	0.598458
C59	C	1.032671	0.294162	0.601971
C60	C	1.032673	0.294161	0.672658
C61	C	0.991102	0.339175	0.706244
C62	C	0.991101	0.339172	0.782892
C63	C	0.991104	0.339165	0.843984
C64	C	0.991108	0.339169	1.137239
C65	C	0.991106	0.339162	1.062007
H66	H	0.730305	0.257360	0.237827
O67	O	0.247424	0.428118	0.394919
C68	C	0.258331	0.517512	0.477215
C69	C	0.295264	0.467891	0.431584
H70	H	0.296993	0.549671	0.506882
H71	H	0.226648	0.554313	0.444698
H72	H	0.224001	0.485245	0.513884
H73	H	0.329628	0.500102	0.394907
H74	H	0.326904	0.431088	0.464144
H75	H	0.927992	0.740465	0.376041
O76	O	1.066493	1.076213	0.238056
C77	C	1.182507	1.098727	0.204440
C78	C	1.133283	1.058306	0.253564
H79	H	1.236518	1.084275	0.216970
H80	H	1.170146	1.084310	0.150393
H81	H	1.177294	1.157566	0.209620
H82	H	1.138469	0.999457	0.248445
H83	H	1.145658	1.072781	0.307591
O84	O	0.379743	0.250210	0.231400
C85	C	0.396811	0.130437	0.203389
C86	C	0.359878	0.180063	0.249014
H87	H	0.380775	0.073712	0.217623
H88	H	0.383345	0.142655	0.148312
H89	H	0.453701	0.138208	0.210487
H90	H	0.302980	0.172319	0.241974
H91	H	0.373400	0.167833	0.304074
O92	O	0.603002	0.428067	0.394738
C93	C	0.526858	0.523137	0.400013
C94	C	0.563860	0.473532	0.354422
H95	H	0.495214	0.559918	0.367435
H96	H	0.492499	0.490924	0.436699
H97	H	0.565513	0.555324	0.429661
H98	H	0.525253	0.441334	0.324730
H99	H	0.598230	0.505785	0.317779
O100	O	0.889899	0.931564	0.414108
C101	C	0.804275	0.939371	0.499604
C102	C	0.853548	0.979736	0.450489
H103	H	0.774882	0.978300	0.529042
H104	H	0.767528	0.905029	0.469837
H105	H	0.833978	0.904892	0.536327
H106	H	0.823901	1.014253	0.413755
H107	H	0.890295	1.014034	0.480299
O108	O	1.073038	0.250503	0.569237
C109	C	1.109856	0.210570	0.461899
C110	C	1.064126	0.260062	0.498881
H111	H	1.102656	0.218270	0.405010
H112	H	1.164920	0.222929	0.475277
H113	H	1.095812	0.153828	0.478041
H114	H	1.078109	0.316820	0.482759
H115	H	1.009074	0.247642	0.485502
H116	H	1.066534	0.257512	0.930388
H117	H	1.054188	0.937143	0.250169
O118	O	1.092288	0.746185	0.212211
C119	C	1.186874	0.829132	0.199988
C120	C	1.137623	0.788720	0.249091
H121	H	1.223531	0.863542	0.229784
H122	H	1.216369	0.790258	0.170581
H123	H	1.157145	0.863552	0.163234
H124	H	1.167300	0.754299	0.285885
H125	H	1.108127	0.827632	0.278448
O126	O	0.596147	0.250288	0.231407
C127	C	0.512685	0.155284	0.226085
C128	C	0.553531	0.204824	0.271703
H129	H	0.478230	0.118505	0.258646
H130	H	0.480785	0.187548	0.189428
H131	H	0.548844	0.123092	0.196405
H132	H	0.517421	0.237027	0.301426
H133	H	0.585439	0.172520	0.308317
H134	H	0.915667	0.420823	0.568253
O135	O	0.742531	0.428005	0.394753
C136	C	0.852963	0.467931	0.431527
C137	C	0.812142	0.418341	0.385937
H138	H	0.909251	0.460125	0.424426
H139	H	0.841275	0.524679	0.417356
H140	H	0.838573	0.455666	0.486593
H141	H	0.826509	0.430543	0.330857
H142	H	0.823834	0.361609	0.400166
O143	O	0.240548	0.250349	0.231295
C144	C	0.217543	0.216030	0.117545
C145	C	0.258301	0.265614	0.163193
H146	H	0.231871	0.228364	0.062475
H147	H	0.229290	0.159286	0.131661
H148	H	0.161251	0.223766	0.124709
H149	H	0.314604	0.257940	0.156052
H150	H	0.246497	0.322340	0.149066
O151	O	0.915710	0.601458	0.388219
C152	C	0.830106	0.609272	0.473734
C153	C	0.879365	0.649633	0.424603
H154	H	0.800718	0.648204	0.503174
H155	H	0.793354	0.574923	0.443981
H156	H	0.859820	0.574800	0.510455
H157	H	0.849707	0.684143	0.387871
H158	H	0.916118	0.683938	0.454399
O159	O	0.895641	1.076464	0.408455
C160	C	0.861683	1.189719	0.442456
C161	C	0.907765	1.149229	0.396470
H162	H	0.871479	1.248556	0.432793
H163	H	0.806542	1.175376	0.431063
H164	H	0.872948	1.175193	0.497597
H165	H	0.896561	1.163734	0.341314
H166	H	0.962892	1.163576	0.407921
O167	O	1.086637	0.601355	0.217672
C168	C	1.172844	0.609060	0.131558
C169	C	1.126740	0.649482	0.177580
H170	H	1.205270	0.647953	0.099121
H171	H	1.206912	0.574619	0.163958
H172	H	1.140441	0.574675	0.097489
H173	H	1.159090	0.683905	0.211657
H174	H	1.092669	0.683878	0.145140
H175	H	0.380836	0.420969	0.388355
H176	H	1.066528	0.257502	1.058622
H177	H	1.066524	0.257510	0.702861
H178	H	0.915676	0.420830	0.696487
O179	O	0.909167	0.427830	0.918084
C180	C	0.872340	0.467752	0.807632
C181	C	0.918078	0.418268	0.848474
H182	H	0.879539	0.460049	0.751344
H183	H	0.817278	0.455387	0.821953
H184	H	0.886378	0.524496	0.819368
H185	H	0.904101	0.361507	0.836759
H186	H	0.973129	0.430693	0.834147
H187	H	0.915683	0.420825	1.052256
