data_functionalizedCrystal
_audit_creation_method	'MofGen! by Chris Wilmer'
_symmetry_space_group_name_H-M	'P1'
_symmetry_Int_Tables_number	1
_symmetry_cell_setting	triclinic
loop_
_symmetry_equiv_pos_as_xyz
  x,y,z
_cell_length_a	12.759401
_cell_length_b	18.050589
_cell_length_c	12.759393
_cell_angle_alpha	90.040320
_cell_angle_beta	89.981433
_cell_angle_gamma	89.976052
loop_
_atom_site_label
_atom_site_type_symbol
_atom_site_fract_x
_atom_site_fract_y
_atom_site_fract_z
Zn1	Zn	1.606181	0.295635	-0.593919
Zn2	Zn	2.106181	0.795635	-0.093919
Zn3	Zn	1.606044	0.419845	-0.418213
Zn4	Zn	2.106044	0.919845	0.081787
Zn5	Zn	1.430483	0.295671	-0.418259
Zn6	Zn	1.930483	0.795671	0.081741
Zn7	Zn	1.430440	0.419785	-0.593854
Zn8	Zn	1.930440	0.919785	-0.093854
O9	O	1.518287	0.357734	-0.506061
O10	O	2.018287	0.857734	-0.006061
O11	O	1.753184	0.312121	-0.570620
O12	O	2.253184	0.812121	-0.070620
O13	O	1.582716	0.403413	-0.271198
O14	O	2.082716	0.903413	0.228802
O15	O	1.453865	0.191742	-0.441607
O16	O	1.953865	0.691742	0.058393
O17	O	1.753083	0.403378	-0.441529
O18	O	2.253083	0.903378	0.058471
O19	O	1.582949	0.191715	-0.570664
O20	O	2.082949	0.691715	-0.070664
O21	O	1.453732	0.312183	-0.271231
O22	O	1.953732	0.812183	0.228769
O23	O	1.283456	0.312125	-0.441543
O24	O	1.783456	0.812125	0.058457
O25	O	1.453792	0.403276	-0.740884
O26	O	1.953792	0.903276	-0.240884
O27	O	1.283425	0.403312	-0.570553
O28	O	1.783425	0.903312	-0.070553
O29	O	1.582908	0.312063	-0.740932
O30	O	2.082908	0.812063	-0.240932
O31	O	1.582675	0.523762	-0.441465
O32	O	2.082675	1.023762	0.058535
O33	O	1.453659	0.523718	-0.570508
O34	O	1.953659	1.023718	-0.070508
C35	C	1.245320	0.357717	-0.506047
C36	C	1.745320	0.857717	-0.006047
C37	C	1.128543	0.357727	-0.506065
C38	C	1.628543	0.857727	-0.006065
C39	C	1.073726	0.310299	-0.573387
C40	C	1.573726	0.810299	-0.073387
C41	C	0.964002	0.310313	-0.573394
C42	C	1.464002	0.810313	-0.073394
C43	C	0.963921	0.405189	-0.438754
C44	C	1.463921	0.905189	0.061246
C45	C	1.073643	0.405171	-0.438743
C46	C	1.573643	0.905171	0.061257
C47	C	1.128626	0.262855	-0.640710
C48	C	1.628626	0.762855	-0.140710
C49	C	1.073809	0.215424	-0.708038
C50	C	1.573809	0.715424	-0.208038
C51	C	0.964085	0.215438	-0.708044
C52	C	1.464085	0.715438	-0.208044
C53	C	0.909178	0.262884	-0.640723
C54	C	1.409178	0.762884	-0.140723
C55	C	1.518176	0.550686	-0.505997
C56	C	2.018176	1.050686	-0.005997
C57	C	1.518225	0.633232	-0.506005
C58	C	2.018225	1.133232	-0.006005
C59	C	1.588539	0.882054	-0.435922
C60	C	2.088539	1.382054	0.064078
C61	C	1.492685	0.832724	-0.410128
C62	C	1.992685	1.332724	0.089872
C63	C	1.518324	0.930352	-0.506056
C64	C	2.018324	1.430352	-0.006056
C65	C	1.614123	0.832600	-0.531776
C66	C	2.114123	1.332600	-0.031776
C67	C	1.518280	0.784367	-0.506028
C68	C	2.018280	1.284367	-0.006028
C69	C	1.422421	0.882110	-0.480212
C70	C	1.922421	1.382110	0.019788
C71	C	1.543923	0.881990	-0.601904
C72	C	2.043923	1.381990	-0.101904
C73	C	1.448003	0.832682	-0.576146
C74	C	1.948003	1.332682	-0.076146
C75	C	1.518351	1.014451	-0.506069
C76	C	2.018351	1.514451	-0.006069
C77	C	1.518243	0.700271	-0.506015
C78	C	2.018243	1.200271	-0.006015
C79	C	1.792320	0.357752	-0.506076
C80	C	2.292320	0.857752	-0.006076
C81	C	1.909097	0.357760	-0.506083
C82	C	2.409097	0.857760	-0.006083
C83	C	1.518400	1.164028	-0.506122
C84	C	2.018400	1.664028	-0.006122
C85	C	1.518379	1.081483	-0.506082
C86	C	2.018379	1.581483	-0.006082
C87	C	1.518361	0.357659	-0.780095
C88	C	2.018361	0.857659	-0.280095
C89	C	1.518392	0.357627	-0.896871
C90	C	2.018392	0.857627	-0.396871
C91	C	1.585632	0.310128	-0.951760
C92	C	2.085632	0.810128	-0.451760
C93	C	1.585657	0.310101	-1.061484
C94	C	2.085657	0.810101	-0.561484
C95	C	1.451199	0.405079	-1.061421
C96	C	1.951199	0.905079	-0.561421
C97	C	1.451170	0.405101	-0.951699
C98	C	1.951170	0.905101	-0.451699
C99	C	1.652854	0.262654	-0.896932
C100	C	2.152854	0.762654	-0.396932
C101	C	1.720100	0.215151	-0.951821
C102	C	2.220100	0.715151	-0.451821
C103	C	1.720125	0.215124	-1.061545
C104	C	2.220125	0.715124	-0.561545
C105	C	1.652904	0.262600	-1.116381
C106	C	2.152904	0.762600	-0.616381
C107	C	1.518274	0.357755	-0.233094
C108	C	2.018274	0.857755	0.266906
C109	C	1.518446	0.357578	-0.116318
C110	C	2.018446	0.857578	0.383682
H111	H	0.919207	0.443818	-0.383946
H112	H	1.419207	0.943818	0.116054
H113	H	1.652844	0.262672	-0.807590
H114	H	2.152844	0.762672	-0.307590
Cl115	Cl	1.142561	0.464803	-0.354118
Cl116	Cl	1.642561	0.964803	0.145882
Cl117	Cl	0.771238	0.262893	-0.640724
Cl118	Cl	1.271238	0.762893	-0.140724
Cl119	Cl	0.895176	0.155807	-0.792676
Cl120	Cl	1.395176	0.655807	-0.292676
Cl121	Cl	1.680129	0.915527	-0.344307
Cl122	Cl	2.180129	1.415527	0.155693
Cl123	Cl	1.804586	0.155460	-0.882888
Cl124	Cl	2.304586	0.655460	-0.382888
Cl125	Cl	1.459220	0.799304	-0.284968
Cl126	Cl	1.959220	1.299304	0.215032
Cl127	Cl	1.577436	0.915435	-0.727031
Cl128	Cl	2.077436	1.415435	-0.227031
Cl129	Cl	1.356198	0.799423	-0.667700
Cl130	Cl	1.856198	1.299423	-0.167700
Cl131	Cl	1.297274	0.915538	-0.446458
Cl132	Cl	1.797274	1.415538	0.053542
H133	H	1.695157	0.810854	-0.553540
H134	H	2.195157	1.310854	-0.053540
Cl135	Cl	1.804664	0.155411	-1.130546
Cl136	Cl	2.304664	0.655411	-0.630546
Cl137	Cl	1.652924	0.262554	-1.254321
Cl138	Cl	2.152924	0.762554	-0.754321
H139	H	1.396470	0.443731	-1.106077
H140	H	1.896470	0.943731	-0.606077
H141	H	1.217969	0.262838	-0.640712
H142	H	1.717969	0.762838	-0.140712
Cl143	Cl	1.142834	0.155776	-0.792657
Cl144	Cl	1.642834	0.655776	-0.292657
Cl145	Cl	1.366636	0.464815	-0.882691
Cl146	Cl	1.866636	0.964815	-0.382691
