data_functionalizedCrystal
_audit_creation_method	'MofGen! by Chris Wilmer'
_symmetry_space_group_name_H-M	'P1'
_symmetry_Int_Tables_number	1
_symmetry_cell_setting	triclinic
loop_
_symmetry_equiv_pos_as_xyz
  x,y,z
_cell_length_a	14.044220
_cell_length_b	14.044220
_cell_length_c	12.503572
_cell_angle_alpha	93.835250
_cell_angle_beta	93.843168
_cell_angle_gamma	86.811122
loop_
_atom_site_label
_atom_site_type_symbol
_atom_site_fract_x
_atom_site_fract_y
_atom_site_fract_z
O1	O	0.225116	-1.282200	-0.089210
O2	O	0.216809	-1.005530	-0.089237
O3	O	0.082627	-1.139712	-0.089213
O4	O	0.359298	-1.148019	-0.089234
O5	O	0.092737	-1.129622	0.089427
O6	O	0.226918	-0.995440	0.089403
O7	O	0.235226	-1.272110	0.089430
Cu8	Cu	0.231995	-1.132854	0.105728
Cu9	Cu	0.220040	-1.144786	-0.105535
O10	O	0.369407	-1.137929	0.089406
C11	C	0.052060	-1.131031	0.000107
C12	C	-0.054082	-1.120187	0.000107
C13	C	0.218228	-0.964864	0.000080
C14	C	0.207383	-0.858721	0.000070
C15	C	0.233807	-1.312777	0.000111
C16	C	0.244651	-1.418920	0.000114
C17	C	-0.248421	-1.100361	0.000090
C18	C	-0.299551	-1.177275	0.000094
C19	C	-0.407687	-1.166244	0.000084
C20	C	-0.140274	-1.111391	0.000099
C21	C	0.399974	-1.146609	0.000084
C22	C	0.506117	-1.157454	0.000077
N23	N	0.240404	-1.124469	0.254319
C24	C	0.187558	-0.664382	0.000092
C25	C	0.264472	-0.613253	0.000091
C26	C	0.253441	-0.505116	0.000104
C27	C	0.198587	-0.772529	0.000080
N28	N	0.211624	-1.153179	-0.254126
C29	C	0.252782	-1.112134	0.473432
C30	C	0.199249	-1.165511	0.526768
C31	C	0.206136	-1.158648	0.648690
C32	C	0.245896	-1.118996	0.351499
H33	H	-0.285859	-1.026234	0.000080
C34	C	0.369805	-0.995456	0.462434
C35	C	0.321634	-1.043488	0.535390
H36	H	0.412306	-0.953075	0.500696
H37	H	0.405020	-1.040589	0.418570
H38	H	0.324754	-0.960117	0.418570
H39	H	0.366684	-1.078833	0.579249
H40	H	0.286417	-0.998349	0.579272
H41	H	0.338605	-0.650692	0.000081
C42	C	0.032630	-0.645487	-0.091741
C43	C	0.087484	-0.613850	0.000094
H44	H	-0.029152	-0.614285	-0.091739
H45	H	0.062815	-0.631051	-0.154022
H46	H	0.027014	-0.712581	-0.091734
H47	H	0.093106	-0.546757	0.000082
H48	H	0.057292	-0.628279	0.062390
C49	C	-0.150119	-1.269056	0.000133
C50	C	-0.249015	-1.277354	0.000120
H51	H	-0.118919	-1.330838	0.000158
H52	H	-0.135697	-1.238887	-0.062165
H53	H	-0.128669	-1.231827	0.062427
H54	H	-0.270466	-1.314578	-0.062178
H55	H	-0.263444	-1.307537	0.062425
C56	C	0.136488	-1.227440	0.354271
C57	C	0.130172	-1.233939	0.464809
H58	H	0.093782	-1.269622	0.316019
H59	H	0.119991	-1.163777	0.336044
H60	H	0.199972	-1.244532	0.335782
H61	H	0.066688	-1.216841	0.483299
H62	H	0.146662	-1.297616	0.483042
