data_functionalizedCrystal
_audit_creation_method	'MofGen! by Chris Wilmer'
_symmetry_space_group_name_H-M	'P1'
_symmetry_Int_Tables_number	1
_symmetry_cell_setting	triclinic
loop_
_symmetry_equiv_pos_as_xyz
  x,y,z
_cell_length_a	19.188930
_cell_length_b	15.995350
_cell_length_c	14.472310
_cell_angle_alpha	89.998838
_cell_angle_beta	90.026891
_cell_angle_gamma	83.318578
loop_
_atom_site_label
_atom_site_type_symbol
_atom_site_fract_x
_atom_site_fract_y
_atom_site_fract_z
O1	O	-0.926420	-0.104528	-0.077134
O2	O	-0.723145	-0.118600	-0.077070
O3	O	-0.830339	0.010344	-0.077103
O4	O	-0.819226	-0.233472	-0.077101
O5	O	-0.830312	0.010337	0.076580
O6	O	-0.723117	-0.118607	0.076612
O7	O	-0.926393	-0.104535	0.076548
Cu8	Cu	-0.824752	-0.111572	0.090613
Cu9	Cu	-0.824785	-0.111563	-0.091134
O10	O	-0.819198	-0.233479	0.076581
C11	C	-0.697119	-0.118148	-0.000221
C12	C	-0.619611	-0.116780	-0.000196
C13	C	-0.829866	0.041533	-0.000263
C14	C	-0.828489	0.134479	-0.000268
C15	C	-0.952419	-0.104987	-0.000303
C16	C	-1.029927	-0.106355	-0.000333
C17	C	-0.574880	-0.192440	-0.000210
C18	C	-0.502052	-0.191155	-0.000220
C19	C	-0.473960	-0.114205	-0.000235
C20	C	-0.518701	-0.038535	-0.000216
C21	C	-0.591526	-0.039823	-0.000197
N22	N	-0.365839	-0.055384	-0.052577
N23	N	-0.296658	-0.054167	-0.052598
C24	C	-0.254541	-0.110322	-0.000292
N25	N	-0.284219	-0.167754	0.052024
N26	N	-0.353407	-0.168974	0.052040
C27	C	-0.394994	-0.112801	-0.000256
C28	C	-0.130842	-0.184594	-0.000315
C29	C	-0.058014	-0.183306	-0.000320
C30	C	-0.074664	-0.030684	-0.000325
C31	C	-0.147491	-0.031974	-0.000311
C32	C	-0.175575	-0.108932	-0.000311
C33	C	-0.819671	-0.264669	-0.000260
C34	C	-0.821049	-0.357614	-0.000261
N35	N	-0.824735	-0.111578	0.218444
C36	C	-0.823542	0.472208	-0.000263
C37	C	-0.747200	0.424495	-0.000584
C38	C	-0.748578	0.327809	-0.000238
C39	C	-0.825996	0.304657	-0.000266
C40	C	-0.863634	0.345868	0.087480
C41	C	-0.861717	0.442496	0.087555
C42	C	-0.863325	0.442869	-0.087211
C43	C	-0.863307	0.345924	-0.088371
C44	C	-0.827386	0.209964	-0.000265
C45	C	-0.822153	0.566901	-0.000259
N46	N	-0.824808	-0.111551	-0.218965
C47	C	-0.824784	-0.111560	0.592535
C48	C	-0.767234	-0.180325	0.553387
C49	C	-0.767367	-0.180575	0.446299
C50	C	-0.824759	-0.111569	0.406944
C51	C	-0.897609	-0.130384	0.445758
C52	C	-0.897286	-0.130872	0.552880
C53	C	-0.810134	-0.023774	0.553069
C54	C	-0.808463	-0.024366	0.445943
C55	C	-0.824749	-0.111572	0.302056
C56	C	-0.824799	-0.111558	0.697423
H57	H	-0.465625	-0.252768	-0.000229
H58	H	-0.835788	0.318577	-0.153284
C59	C	-0.914471	-0.216294	0.586001
C60	C	-0.925052	-0.266976	0.509562
C61	C	-0.940874	-0.345678	0.540032
H62	H	-0.955866	-0.209198	0.622501
H63	H	-0.876620	-0.242404	0.622011
H64	H	-0.962900	-0.240872	0.473567
H65	H	-0.883665	-0.274096	0.473054
H66	H	-0.903023	-0.371788	0.576042
H67	H	-0.982268	-0.338574	0.576533
H68	H	-0.948049	-0.380078	0.488174
C69	C	-0.860710	0.046971	0.410050
C70	C	-0.857282	0.049390	0.313466
C71	C	-0.905417	0.115083	0.280372
H72	H	-0.849663	0.098908	0.434605
H73	H	-0.906741	0.037945	0.428552
H74	H	-0.811262	0.058422	0.294973
H75	H	-0.868337	-0.002531	0.288887
H76	H	-0.951447	0.106057	0.298873
H77	H	-0.894365	0.167015	0.304933
H78	H	-0.903102	0.116728	0.214836
H79	H	-0.837470	0.317387	0.152798
H80	H	-0.917765	0.474950	0.091516
H81	H	-0.495823	0.024118	-0.000241
H82	H	-0.910828	-0.193666	0.418916
C83	C	-0.779744	-0.267518	0.412236
C84	C	-0.726169	-0.327084	0.444945
C85	C	-0.737556	-0.407189	0.413598
H86	H	-0.779849	-0.268102	0.346605
H87	H	-0.823705	-0.280873	0.434433
H88	H	-0.682220	-0.313733	0.422743
H89	H	-0.726054	-0.326527	0.510573
H90	H	-0.781517	-0.420545	0.435795
H91	H	-0.737663	-0.407764	0.347967
H92	H	-0.701212	-0.447615	0.435793
C93	C	-0.865980	0.044564	0.586874
C94	C	-0.834156	0.104269	0.637653
C95	C	-0.885580	0.167231	0.668804
H96	H	-0.898451	0.020208	0.625065
H97	H	-0.889974	0.071142	0.535361
H98	H	-0.810174	0.077695	0.689159
H99	H	-0.801690	0.128647	0.599481
H100	H	-0.909573	0.193809	0.617291
H101	H	-0.918048	0.142868	0.706991
H102	H	-0.863993	0.207753	0.703253
C103	C	-0.640131	0.042301	0.000000
C104	C	-0.682378	0.046027	0.079085
C105	C	-0.727156	0.121671	0.079300
H106	H	-0.668976	0.045053	-0.053525
H107	H	-0.612997	0.088340	0.000042
H108	H	-0.709509	0.000000	0.079034
H109	H	-0.653552	0.043289	0.132622
H110	H	-0.700022	0.167710	0.079342
H111	H	-0.755996	0.124416	0.025772
H112	H	-0.755821	0.124213	0.132962
H113	H	-0.758165	-0.005616	0.580154
H114	H	-0.597741	-0.255105	-0.000212
C115	C	-0.161205	-0.268229	-0.000257
C116	C	-0.106439	-0.334217	-0.000237
C117	C	-0.134379	-0.411273	-0.000171
H118	H	-0.189282	-0.272023	-0.053829
H119	H	-0.189223	-0.271950	0.053363
H120	H	-0.078432	-0.330498	-0.053852
H121	H	-0.078357	-0.330451	0.053331
H122	H	-0.162398	-0.414994	0.053449
H123	H	-0.162457	-0.415058	-0.053744
H124	H	-0.097225	-0.456055	-0.000149
H125	H	-0.718990	0.299282	-0.063137
H126	H	-0.021594	-0.244920	-0.000326
C127	C	-0.938583	0.325666	-0.095281
C128	C	-0.953342	0.275386	-0.020219
C129	C	-1.022685	0.256719	-0.026539
H130	H	-0.944586	0.296303	-0.151242
H131	H	-0.969610	0.376479	-0.094506
H132	H	-0.922325	0.224581	-0.021003
H133	H	-0.947355	0.304732	0.035753
H134	H	-1.053712	0.307533	-0.025764
H135	H	-1.028682	0.227360	-0.082503
H136	H	-1.032711	0.222609	0.024393
C137	C	-0.044038	0.052778	-0.000390
C138	C	0.029314	0.037714	-0.000431
C139	C	0.057554	0.114581	-0.000501
H140	H	-0.059289	0.083985	0.053189
H141	H	-0.059381	0.083929	-0.054003
H142	H	0.044651	0.006577	0.053177
H143	H	0.044585	0.006520	-0.054006
H144	H	0.042212	0.145731	-0.054114
H145	H	0.042298	0.145782	0.053078
H146	H	0.107326	0.104370	-0.000538
H147	H	-0.183912	0.029637	-0.000305
C148	C	-0.938326	0.485651	-0.088089
C149	C	-0.937734	0.573046	-0.091437
C150	C	-1.006808	0.612487	-0.092252
H151	H	-0.961796	0.471053	-0.033675
H152	H	-0.962112	0.467728	-0.140801
H153	H	-0.913958	0.590962	-0.038730
H154	H	-0.914278	0.587668	-0.145848
H155	H	-1.030594	0.594565	-0.144964
H156	H	-1.030272	0.597883	-0.037837
H157	H	-1.006415	0.671788	-0.094532
C158	C	-0.706625	0.449202	-0.084511
C159	C	-0.749472	0.507738	-0.137472
C160	C	-0.712114	0.530534	-0.214787
H161	H	-0.692583	0.400647	-0.120749
H162	H	-0.666265	0.473530	-0.064791
H163	H	-0.789820	0.483410	-0.157193
H164	H	-0.763516	0.556306	-0.101262
H165	H	-0.671754	0.554861	-0.195067
H166	H	-0.698073	0.481974	-0.251016
H167	H	-0.741178	0.570258	-0.250725
H168	H	-0.920511	0.331950	0.090723
C169	C	-0.706727	0.450633	0.082842
C170	C	-0.703061	0.537496	0.079593
C171	C	-0.665794	0.561608	0.156437
H172	H	-0.660637	0.421607	0.082209
H173	H	-0.730035	0.437104	0.137813
H174	H	-0.679752	0.551017	0.024637
H175	H	-0.749140	0.566542	0.080239
H176	H	-0.689102	0.548079	0.211408
H177	H	-0.619707	0.532577	0.155797
H178	H	-0.663308	0.620548	0.154248
C179	C	-0.708724	0.290434	0.083688
C180	C	-0.652453	0.232850	0.054615
C181	C	-0.615718	0.198415	0.131906
H182	H	-0.739268	0.262424	0.121320
H183	H	-0.691419	0.334151	0.118200
H184	H	-0.669757	0.189140	0.020117
H185	H	-0.621892	0.260841	0.016993
H186	H	-0.598414	0.242132	0.166419
H187	H	-0.646268	0.170408	0.169534
H188	H	-0.577531	0.159346	0.112191
C189	C	-0.736952	-0.005340	0.412306
C190	C	-0.693320	0.003532	0.488390
C191	C	-0.627437	0.021047	0.457435
H192	H	-0.742110	0.045404	0.377589
H193	H	-0.716693	-0.050235	0.374425
H194	H	-0.713575	0.048423	0.526256
H195	H	-0.688141	-0.047203	0.523116
H196	H	-0.607178	-0.023847	0.419554
H197	H	-0.632603	0.071790	0.422717
H198	H	-0.597823	0.027061	0.509052
C199	C	-0.825032	0.466594	0.175065
C200	C	-0.804806	0.394184	0.227377
C201	C	-0.771000	0.416343	0.307992
H202	H	-0.856164	0.504646	0.210249
H203	H	-0.784678	0.492680	0.159078
H204	H	-0.845154	0.368110	0.243366
H205	H	-0.773667	0.356123	0.192221
H206	H	-0.730646	0.442429	0.292004
H207	H	-0.802135	0.454396	0.343167
H208	H	-0.757266	0.367216	0.343491
H209	H	-0.838377	0.463320	-0.153719
C210	C	-0.695104	-0.165726	0.411486
C211	C	-0.650931	-0.156440	0.486905
C212	C	-0.584351	-0.142775	0.454877
H213	H	-0.698839	-0.116092	0.374913
H214	H	-0.676164	-0.212402	0.375183
H215	H	-0.669867	-0.109767	0.523193
H216	H	-0.647175	-0.206065	0.523486
H217	H	-0.565411	-0.189452	0.418573
H218	H	-0.588094	-0.093142	0.418303
H219	H	-0.554370	-0.136481	0.506043
C220	C	-0.956151	-0.066590	0.587231
C221	C	-0.991850	-0.027483	0.511530
C222	C	-1.046082	0.031732	0.543134
H223	H	-0.937027	-0.025445	0.623693
H224	H	-0.987856	-0.094101	0.623547
H225	H	-0.960150	0.000028	0.475230
H226	H	-1.010989	-0.068606	0.475060
H227	H	-1.077788	0.004220	0.579450
H228	H	-1.026953	0.072871	0.579597
H229	H	-1.070315	0.058267	0.491777
H230	H	-0.712908	-0.169342	0.579192
C231	C	-0.779417	-0.266709	0.589378
C232	C	-0.720589	-0.301077	0.639638
C233	C	-0.731793	-0.380645	0.672819
H234	H	-0.786822	-0.302525	0.538836
H235	H	-0.819514	-0.261550	0.628353
H236	H	-0.680504	-0.306241	0.600665
H237	H	-0.713174	-0.265285	0.690192
H238	H	-0.771890	-0.375486	0.711793
H239	H	-0.739200	-0.416454	0.622271
H240	H	-0.691884	-0.403971	0.706930
H241	H	-0.941457	-0.081620	0.420261
