data_functionalizedCrystal
_audit_creation_method	'MofGen! by Chris Wilmer'
_symmetry_space_group_name_H-M	'P1'
_symmetry_Int_Tables_number	1
_symmetry_cell_setting	triclinic
loop_
_symmetry_equiv_pos_as_xyz
  x,y,z
_cell_length_a	14.908571
_cell_length_b	14.908520
_cell_length_c	14.908308
_cell_angle_alpha	96.360765
_cell_angle_beta	89.824947
_cell_angle_gamma	89.794039
loop_
_atom_site_label
_atom_site_type_symbol
_atom_site_fract_x
_atom_site_fract_y
_atom_site_fract_z
Zn1	Zn	1.316651	0.470613	0.613065
Zn2	Zn	1.316549	0.613252	0.470429
Zn3	Zn	1.176020	0.453291	0.453125
Zn4	Zn	1.157642	0.612180	0.612023
O5	O	1.241715	0.537334	0.537161
O6	O	1.441995	0.497231	0.601822
O7	O	1.305556	0.585232	0.341941
O8	O	1.202409	0.329399	0.467536
O9	O	1.441920	0.602028	0.497029
O10	O	1.305730	0.342124	0.585043
O11	O	1.202310	0.467710	0.329228
O12	O	1.048225	0.466671	0.466525
O13	O	1.171086	0.600202	0.738354
O14	O	1.034722	0.583406	0.583267
O15	O	1.287909	0.496192	0.739120
O16	O	1.287736	0.739300	0.496018
O17	O	1.170987	0.738513	0.600046
C18	C	1.008970	0.523043	0.522906
C19	C	0.909397	0.516953	0.516830
C20	C	1.227379	0.771629	0.549818
C21	C	1.221326	0.871868	0.555268
C22	C	0.708277	0.627234	0.626831
C23	C	0.614720	0.621514	0.621125
C24	C	0.628723	0.499789	0.499719
C25	C	0.722281	0.505509	0.505424
C26	C	0.762054	0.569235	0.568981
C27	C	0.855613	0.574958	0.574682
C28	C	0.869615	0.453230	0.453280
C29	C	0.776058	0.447510	0.447575
C30	C	1.227459	0.550010	0.772372
C31	C	1.221383	0.555411	0.872606
C32	C	1.475370	0.551681	0.551472
C33	C	1.574939	0.557795	0.557571
C34	C	1.256131	0.302127	0.524476
C35	C	1.262274	0.201896	0.519070
C36	C	1.331634	1.060998	0.457284
C37	C	1.325950	1.155181	0.462402
C38	C	1.204279	1.154420	0.570626
C39	C	1.209963	1.060237	0.565508
C40	C	1.273642	1.013529	0.508834
C41	C	1.279321	0.919343	0.503712
C42	C	1.157655	0.918584	0.611940
C43	C	1.151970	1.012768	0.617058
C44	C	1.255972	0.524646	0.302864
C45	C	1.262236	0.519001	0.202628
C46	C	1.331614	0.457236	1.061752
C47	C	1.325908	0.462308	1.155930
C48	C	1.204264	0.570623	1.155141
C49	C	1.209969	0.565551	1.060963
C50	C	1.273647	0.508856	1.014272
C51	C	1.279356	0.503789	0.920093
C52	C	1.157708	0.612099	0.919305
C53	C	1.152002	0.617171	1.013483
H54	H	0.887995	0.626848	0.626432
H55	H	1.373175	1.193828	0.420427
H56	H	1.152440	1.192467	0.616773
H57	H	1.373109	0.420271	1.194585
H58	H	1.331169	0.881314	0.457563
O59	O	0.590167	0.437931	0.437883
C60	C	0.617212	0.454047	0.350408
H61	H	0.683148	0.492748	0.354465
H62	H	0.626799	0.386917	0.306758
H63	H	0.563562	0.495507	0.319265
O64	O	1.101344	0.872582	0.662152
C65	C	1.114020	0.901567	0.754492
H66	H	1.144221	0.972131	0.762220
H67	H	1.046685	0.903046	0.791081
H68	H	1.161401	0.852964	0.784843
H69	H	1.383478	1.022967	0.411132
H70	H	1.100127	1.050810	0.663202
O71	O	1.142452	0.625806	1.200420
C72	C	1.157924	0.715654	1.183493
H73	H	1.196383	0.715971	1.117321
H74	H	1.090988	0.751947	1.178508
H75	H	1.198911	0.751699	1.240959
O76	O	1.341295	0.448847	0.874705
C77	C	1.399302	0.500793	0.826521
H78	H	1.398776	0.573684	0.859073
H79	H	1.470300	0.472340	0.827910
H80	H	1.375736	0.498357	0.753618
O81	O	1.090194	0.672365	1.058753
C82	C	1.105682	0.762205	1.041810
H83	H	1.144147	0.762504	0.975640
H84	H	1.038751	0.798506	1.036814
H85	H	1.146669	0.798254	1.099274
O86	O	0.921723	0.396840	0.396989
C87	C	0.866552	0.339355	0.339688
H88	H	0.797797	0.372037	0.334437
H89	H	0.898463	0.327451	0.269774
H90	H	0.858781	0.272094	0.368517
O91	O	1.393495	0.402094	1.016528
C92	C	1.443456	0.357641	1.078634
H93	H	1.402890	0.355879	1.143354
H94	H	1.459017	0.285714	1.048173
H95	H	1.508860	0.395383	1.094597
H96	H	0.743661	0.395624	0.395831
O97	O	1.101264	0.662194	0.873267
C98	C	1.011795	0.638228	0.889729
H99	H	1.007916	0.607134	0.956125
H100	H	0.967443	0.701017	0.894000
H101	H	0.987677	0.587157	0.832375
O102	O	0.746878	0.689043	0.688685
C103	C	0.719768	0.672940	0.776144
H104	H	0.698161	0.599586	0.775356
H105	H	0.778130	0.686937	0.824858
H106	H	0.661092	0.719273	0.798941
O107	O	0.562441	0.677730	0.677405
C108	C	0.507916	0.626309	0.729643
H109	H	0.540103	0.557323	0.733208
H110	H	0.500669	0.662700	0.800696
H111	H	0.438886	0.617323	0.697271
