data_functionalizedCrystal
_audit_creation_method	'MofGen! by Chris Wilmer'
_symmetry_space_group_name_H-M	'P1'
_symmetry_Int_Tables_number	1
_symmetry_cell_setting	triclinic
loop_
_symmetry_equiv_pos_as_xyz
  x,y,z
_cell_length_a	19.288859
_cell_length_b	9.065215
_cell_length_c	17.766277
_cell_angle_alpha	90.004179
_cell_angle_beta	90.010268
_cell_angle_gamma	84.074212
loop_
_atom_site_label
_atom_site_type_symbol
_atom_site_fract_x
_atom_site_fract_y
_atom_site_fract_z
O1	O	0.922784	0.183986	0.062608
O2	O	1.422784	0.683986	0.562608
O3	O	0.720715	0.208821	0.062606
O4	O	1.220715	0.708821	0.562606
O5	O	0.825927	-0.018386	0.062603
O6	O	1.325927	0.481614	0.562603
O7	O	0.817571	0.411193	0.062610
O8	O	1.317571	0.911193	0.562610
O9	O	0.825908	-0.018392	-0.062585
O10	O	1.325908	0.481608	0.437415
O11	O	0.720696	0.208814	-0.062583
O12	O	1.220696	0.708814	0.437417
O13	O	0.922764	0.183979	-0.062581
O14	O	1.422764	0.683979	0.437419
Cu15	Cu	0.821728	0.196396	-0.074013
Cu16	Cu	1.321728	0.696396	0.425987
Cu17	Cu	0.821751	0.196404	0.074037
Cu18	Cu	1.321751	0.696404	0.574037
O19	O	0.817552	0.411186	-0.062579
O20	O	1.317552	0.911186	0.437421
C21	C	0.694823	0.208020	0.000011
C22	C	1.194823	0.708020	0.500011
C23	C	0.617700	0.205626	0.000010
C24	C	1.117700	0.705626	0.500010
C25	C	0.054568	0.322744	0.000013
C26	C	0.554568	0.822744	0.500013
C27	C	0.127032	0.325006	0.000017
C28	C	0.627032	0.825006	0.500017
C29	C	0.170705	0.191692	0.000014
C30	C	0.670705	0.691692	0.500014
C31	C	0.141908	0.056104	0.000026
C32	C	0.641908	0.556104	0.500026
C33	C	0.069445	0.053846	0.000029
C34	C	0.569445	0.553846	0.500029
C35	C	0.291197	0.092264	-0.043850
C36	C	0.791197	0.592264	0.456150
C37	C	0.363658	0.094528	-0.043858
C38	C	0.863658	0.594528	0.456142
C39	C	0.394205	0.198653	0.000006
C40	C	0.894205	0.698653	0.500006
C41	C	0.352280	0.300538	0.043869
C42	C	0.852280	0.800538	0.543869
C43	C	0.279817	0.298279	0.043872
C44	C	0.779817	0.798279	0.543872
C45	C	0.249279	0.194126	0.000010
C46	C	0.749279	0.694126	0.500010
C47	C	0.501567	0.336685	0.000004
C48	C	1.001567	0.836685	0.500004
C49	C	0.574033	0.338942	0.000013
C50	C	1.074033	0.838942	0.500013
C51	C	0.588907	0.070036	0.000013
C52	C	1.088907	0.570036	0.500013
C53	C	0.516442	0.067783	0.000012
C54	C	1.016442	0.567783	0.500012
C55	C	0.472777	0.201112	0.000004
C56	C	0.972777	0.701112	0.500004
C57	C	0.825115	-0.073348	0.000010
C58	C	1.325115	0.426652	0.500010
C59	C	0.822715	-0.237107	0.000012
C60	C	1.322715	0.262893	0.500012
C61	C	0.948657	0.184780	0.000015
C62	C	1.448657	0.684780	0.500015
C63	C	1.025779	0.187174	0.000021
C64	C	1.525779	0.687174	0.500021
C65	C	0.818364	0.466148	0.000016
C66	C	1.318364	0.966148	0.500016
C67	C	0.820764	0.629907	0.000019
C68	C	1.320764	1.129907	0.500019
N69	N	0.821718	0.196390	-0.178143
N70	N	1.321718	0.696390	0.321857
C71	C	0.864398	0.285642	-0.217522
C72	C	1.364398	0.785642	0.282478
C73	C	0.864408	0.285637	-0.296324
C74	C	1.364408	0.785637	0.203676
C75	C	0.821727	0.196399	-0.335744
C76	C	1.321727	0.696399	0.164256
C77	C	0.779044	0.107129	-0.296355
C78	C	1.279044	0.607129	0.203645
C79	C	0.779039	0.107125	-0.217555
C80	C	1.279039	0.607125	0.282445
C81	C	0.759085	0.192670	-0.460604
C82	C	1.259085	0.692670	0.039396
C83	C	0.759088	0.192685	-0.539402
C84	C	1.259088	0.692685	-0.039402
C85	C	0.821741	0.196403	-0.578790
C86	C	1.321741	0.696403	-0.078790
C87	C	0.884392	0.200138	-0.539369
C88	C	1.384392	0.700138	-0.039369
C89	C	0.884387	0.200133	-0.460569
C90	C	1.384387	0.700133	0.039431
C91	C	0.821727	0.196393	-0.421189
C92	C	1.321727	0.696393	0.078811
C93	C	0.864437	0.285655	-0.703615
C94	C	1.364437	0.785655	-0.203615
C95	C	0.864449	0.285640	-0.782418
C96	C	1.364449	0.785640	-0.282418
C97	C	0.779078	0.107140	-0.782448
C98	C	1.279078	0.607140	-0.282448
C99	C	0.779072	0.107146	-0.703646
C100	C	1.279072	0.607146	-0.203646
C101	C	0.821750	0.196412	-0.664234
C102	C	1.321750	0.696412	-0.164234
N103	N	0.821767	0.196399	0.178168
N104	N	1.321767	0.696399	0.678168
H105	H	0.245684	0.381235	0.079588
H106	H	0.745684	0.881235	0.579588
Cl107	Cl	0.643803	-0.097562	0.000021
Cl108	Cl	1.143803	0.402438	0.500021
Cl109	Cl	0.390671	0.431461	0.099007
Cl110	Cl	0.890671	0.931461	0.599007
Cl111	Cl	0.480248	-0.102657	0.000025
Cl112	Cl	0.980248	0.397343	0.500025
Cl113	Cl	0.416355	-0.033542	-0.099005
Cl114	Cl	0.916355	0.466458	0.400995
Cl115	Cl	0.163234	0.495450	0.000005
Cl116	Cl	0.663234	0.995450	0.500005
Cl117	Cl	-0.000322	0.490357	0.000013
Cl118	Cl	0.499678	0.990357	0.500013
Cl119	Cl	0.033251	-0.116599	0.000041
Cl120	Cl	0.533251	0.383401	0.500041
H121	H	0.744326	0.034478	-0.814543
H122	H	1.244326	0.534478	-0.314543
Cl123	Cl	0.725400	-0.005033	-0.654139
Cl124	Cl	1.225400	0.494967	-0.154139
Cl125	Cl	0.252808	-0.038721	-0.098954
Cl126	Cl	0.752808	0.461279	0.401046
Cl127	Cl	0.680321	0.187873	-0.411096
Cl128	Cl	1.180321	0.687873	0.088904
Cl129	Cl	0.963145	0.204824	-0.411013
Cl130	Cl	1.463145	0.704824	0.088987
Cl131	Cl	0.196809	-0.111491	0.000025
Cl132	Cl	0.696809	0.388509	0.500025
H133	H	0.744292	0.034469	-0.328456
H134	H	1.244292	0.534469	0.171544
Cl135	Cl	0.918037	0.397890	-0.167979
Cl136	Cl	1.418037	0.897890	0.332021
H137	H	0.899164	0.358321	-0.328392
H138	H	1.399164	0.858321	0.171608
Cl139	Cl	0.963161	0.204812	-0.588875
Cl140	Cl	1.463161	0.704812	-0.088875
Cl141	Cl	0.680327	0.188006	-0.588952
Cl142	Cl	1.180327	0.688006	-0.088952
H143	H	0.899188	0.358339	-0.671524
H144	H	1.399188	0.858339	-0.171524
H145	H	0.597471	0.449343	0.000012
H146	H	1.097471	0.949343	0.500012
H147	H	0.744283	0.034443	-0.185493
H148	H	1.244283	0.534443	0.314507
Cl149	Cl	0.446670	0.504294	-0.000004
Cl150	Cl	0.946670	1.004294	0.499996
Cl151	Cl	0.918112	0.397846	-0.831923
Cl152	Cl	1.418112	0.897846	-0.331923
