data_functionalizedCrystal
_audit_creation_method	'MofGen! by Chris Wilmer'
_symmetry_space_group_name_H-M	'P1'
_symmetry_Int_Tables_number	1
_symmetry_cell_setting	triclinic
loop_
_symmetry_equiv_pos_as_xyz
  x,y,z
_cell_length_a	6.817900
_cell_length_b	16.306099
_cell_length_c	19.453114
_cell_angle_alpha	95.867742
_cell_angle_beta	101.709288
_cell_angle_gamma	103.465342
loop_
_atom_site_label
_atom_site_type_symbol
_atom_site_fract_x
_atom_site_fract_y
_atom_site_fract_z
V1	V	-4.006751	-0.117599	-0.219256
O2	O	-3.994744	0.004747	-0.214820
O3	O	-3.958310	-0.232310	-0.218008
O4	O	-3.949667	-0.116187	-0.314766
O5	O	-4.003447	-0.112180	-0.117393
V6	V	-4.491510	-0.102918	-0.207041
O7	O	-4.265299	-0.149803	-0.246049
O8	O	-4.683159	-0.070715	-0.180248
O9	O	-4.316745	0.011793	-0.208289
O10	O	-4.620914	-0.225265	-0.211477
O11	O	-4.612211	-0.108338	-0.308905
O12	O	-4.325388	-0.104331	-0.111532
C13	C	-3.803582	-0.260262	-0.214615
C14	C	-3.845204	-0.354042	-0.214231
C15	C	-3.921337	-0.525738	-0.213506
C16	C	-4.156860	-0.566667	-0.217606
C17	C	-4.200077	-0.664160	-0.216929
C18	C	-3.996298	-0.694785	-0.212793
C19	C	-3.834901	-0.643890	-0.143540
C20	C	-3.793037	-0.546341	-0.143922
C21	C	-3.861504	-0.571848	-0.278111
C22	C	-3.909355	-0.669693	-0.278664
C23	C	-4.038649	-0.790322	-0.212388
C24	C	-3.878976	-0.430200	-0.213907
C25	C	-3.792556	-0.112134	-0.338037
C26	C	-3.827166	-0.111738	-0.416119
C27	C	-4.025207	-0.115787	-0.456385
C28	C	-4.057727	-0.115415	-0.529751
C29	C	-3.892205	-0.111012	-0.562850
C30	C	-3.694134	-0.106958	-0.522574
C31	C	-3.661614	-0.107321	-0.449208
N32	N	-3.832445	-0.155564	-0.681736
N33	N	-3.863350	-0.155221	-0.751431
C34	C	-3.990171	-0.109915	-0.783896
N35	N	-4.084955	-0.064977	-0.744035
N36	N	-4.054055	-0.065324	-0.674334
C37	C	-3.927446	-0.110617	-0.642402
C38	C	-4.223486	-0.113560	-0.903714
C39	C	-4.255997	-0.113183	-0.977080
C40	C	-3.892402	-0.104734	-0.969903
C41	C	-3.859892	-0.105102	-0.896537
C42	C	-4.025444	-0.109520	-0.863447
C43	C	-4.134815	0.039740	-0.211681
C44	C	-4.072430	0.133519	-0.212068
C45	C	-4.145841	-0.108386	-0.088256
C46	C	-4.090470	-0.108778	-0.010174
H47	H	-4.322521	-0.699376	-0.266712
C48	C	-3.710330	-0.099907	-1.006310
N49	N	-3.573193	-0.096277	-1.033736
C50	C	-3.979259	-0.554069	-0.349014
N51	N	-4.067973	-0.540678	-0.402415
C52	C	-4.207314	-0.120631	-0.419989
N53	N	-4.344476	-0.124275	-0.392573
H54	H	-3.894167	-0.660503	-0.094635
H55	H	-4.026245	-0.704262	-0.329889
C56	C	-4.405588	-0.118408	-0.867311
N57	N	-4.542749	-0.122057	-0.839895
C58	C	-4.294772	-0.550218	-0.285170
N59	N	-4.398647	-0.537822	-0.336061
H60	H	-4.205596	-0.534961	-0.171185
H61	H	-4.270179	-0.680260	-0.169978
C62	C	-3.710435	-0.698558	-0.280096
N63	N	-3.560593	-0.720294	-0.281168
H64	H	-4.417266	-0.116473	-1.009863
H65	H	-3.833026	-0.515758	-0.095023
H66	H	-4.219003	-0.118717	-0.562542
H67	H	-3.698632	-0.101815	-0.863753
H68	H	-3.619819	-0.518339	-0.138038
H69	H	-3.682316	-0.662792	-0.138005
H70	H	-3.559364	-0.103370	-0.549528
C71	C	-3.629512	-0.535616	-0.274896
N72	N	-3.454778	-0.508320	-0.272469
H73	H	-3.500340	-0.104018	-0.416423
