data_functionalizedCrystal
_audit_creation_method	'MofGen! by Chris Wilmer'
_symmetry_space_group_name_H-M	'P1'
_symmetry_Int_Tables_number	1
_symmetry_cell_setting	triclinic
loop_
_symmetry_equiv_pos_as_xyz
  x,y,z
_cell_length_a	19.805407
_cell_length_b	19.120786
_cell_length_c	19.805399
_cell_angle_alpha	92.468930
_cell_angle_beta	90.019573
_cell_angle_gamma	92.465080
loop_
_atom_site_label
_atom_site_type_symbol
_atom_site_fract_x
_atom_site_fract_y
_atom_site_fract_z
Zn1	Zn	1.023244	-0.279646	0.371215
Zn2	Zn	1.523244	0.220354	0.871215
Zn3	Zn	1.018332	-0.397105	0.253195
Zn4	Zn	1.518332	0.102895	0.753195
Zn5	Zn	0.910058	-0.279666	0.258039
Zn6	Zn	1.410058	0.220334	0.758039
Zn7	Zn	0.905197	-0.397068	0.366343
Zn8	Zn	1.405197	0.102932	0.866343
O9	O	0.964208	-0.338371	0.312198
O10	O	1.464208	0.161629	0.812198
O11	O	1.117309	-0.295235	0.355571
O12	O	1.617309	0.204765	0.855571
O13	O	1.003948	-0.381550	0.159120
O14	O	1.503948	0.118450	0.659120
O15	O	0.929162	-0.181373	0.277118
O16	O	1.429162	0.318627	0.777118
O17	O	1.113700	-0.381532	0.268862
O18	O	1.613700	0.118468	0.768862
O19	O	1.012320	-0.181359	0.360269
O20	O	1.512320	0.318641	0.860269
O21	O	0.924399	-0.295268	0.162679
O22	O	1.424399	0.204732	0.662679
O23	O	0.814697	-0.295232	0.272394
O24	O	1.314697	0.204768	0.772394
O25	O	0.920877	-0.381468	0.461707
O26	O	1.420877	0.118532	0.961707
O27	O	0.811125	-0.381487	0.351965
O28	O	1.311125	0.118513	0.851965
O29	O	1.007606	-0.295199	0.465287
O30	O	1.507606	0.204801	0.965287
O31	O	0.999234	-0.495390	0.264138
O32	O	1.499234	0.004610	0.764138
O33	O	0.916114	-0.495363	0.347268
O34	O	1.416114	0.004637	0.847268
C35	C	0.788352	-0.338358	0.312177
C36	C	1.288352	0.161642	0.812177
C37	C	0.713120	-0.338369	0.312183
C38	C	1.213120	0.161631	0.812183
C39	C	0.675931	-0.383350	0.353543
C40	C	1.175931	0.116650	0.853543
C41	C	0.605242	-0.383351	0.353552
C42	C	1.105242	0.116649	0.853552
C43	C	0.571744	-0.338374	0.312198
C44	C	1.071744	0.161626	0.812198
C45	C	0.608938	-0.293389	0.270837
C46	C	1.108938	0.206611	0.770837
C47	C	0.679625	-0.293385	0.270831
C48	C	1.179625	0.206615	0.770831
C49	C	0.323864	-0.293404	0.270859
C50	C	0.823864	0.206596	0.770859
C51	C	0.253172	-0.293414	0.270866
C52	C	0.753172	0.206586	0.770866
C53	C	0.249481	-0.383371	0.353579
C54	C	0.749481	0.116629	0.853579
C55	C	0.320169	-0.383366	0.353574
C56	C	0.820169	0.116634	0.853574
C57	C	0.357356	-0.338378	0.312216
C58	C	0.857356	0.161622	0.812216
C59	C	0.434005	-0.338377	0.312207
C60	C	0.934005	0.161623	0.812207
C61	C	0.495097	-0.338379	0.312203
C62	C	0.995097	0.161621	0.812203
C63	C	0.956632	-0.520862	0.304663
C64	C	1.456632	-0.020862	0.804663
C65	C	0.953453	-0.598933	0.301462
C66	C	1.453453	-0.098933	0.801462
C67	C	0.995223	-0.635543	0.343286
C68	C	1.495223	-0.135543	0.843286
C69	C	0.992234	-0.708898	0.340279
C70	C	1.492234	-0.208898	0.840279
C71	C	0.947477	-0.745642	0.295446
C72	C	1.447477	-0.245642	0.795446
C73	C	0.905703	-0.709027	0.253621
C74	C	1.405703	-0.209027	0.753621
C75	C	0.908689	-0.635673	0.256631
C76	C	1.408689	-0.135673	0.756631
C77	C	0.936292	-0.967128	0.284192
C78	C	1.436292	-0.467128	0.784192
C79	C	0.933310	-1.040487	0.281184
C80	C	1.433310	-0.540487	0.781184
C81	C	1.019840	-1.040353	0.367844
C82	C	1.519840	-0.540353	0.867844
C83	C	1.022826	-0.966997	0.370847
C84	C	1.522826	-0.466997	0.870847
C85	C	0.981049	-0.930389	0.329025
C86	C	1.481049	-0.430389	0.829025
C87	C	0.944422	-0.820624	0.292370
C88	C	1.444422	-0.320624	0.792370
C89	C	0.984101	-0.855409	0.332104
C90	C	1.484101	-0.355409	0.832104
C91	C	1.140750	-0.338385	0.312220
C92	C	1.640750	0.161615	0.812220
C93	C	1.215982	-0.338391	0.312229
C94	C	1.715982	0.161609	0.812229
C95	C	0.964247	-0.338327	0.488743
C96	C	1.464247	0.161673	0.988743
C97	C	0.964264	-0.338308	0.563976
C98	C	1.464264	0.161692	1.063976
C99	C	0.971831	-0.155168	0.319777
C100	C	1.471831	0.344832	0.819777
C101	C	0.975080	-0.077097	0.323007
C102	C	1.475080	0.422903	0.823007
C103	C	0.964209	-0.338365	0.136342
C104	C	1.464209	0.161635	0.636342
C105	C	0.964331	-0.338186	0.061118
C106	C	1.464331	0.161814	0.561118
C107	C	1.009425	-0.293386	0.601185
C108	C	1.509425	0.206614	1.101185
C109	C	1.009433	-0.293365	0.671874
C110	C	1.509433	0.206635	1.171874
C111	C	0.964283	-0.338271	0.705353
C112	C	1.464283	0.161729	1.205353
C113	C	0.919117	-0.383196	0.668139
C114	C	1.419117	0.116804	1.168139
C115	C	0.919107	-0.383212	0.597451
C116	C	1.419107	0.116788	1.097451
C117	C	0.919158	-0.383131	0.953215
C118	C	1.419158	0.116869	1.453215
C119	C	0.919173	-0.383112	1.023908
C120	C	1.419173	0.116888	1.523908
C121	C	1.009484	-0.293283	1.027638
C122	C	1.509484	0.206717	1.527638
C123	C	1.009474	-0.293300	0.956950
C124	C	1.509474	0.206700	1.456950
C125	C	0.964306	-0.338221	0.919742
C126	C	1.464306	0.161779	1.419742
C127	C	0.964297	-0.338242	0.843093
C128	C	1.464297	0.161758	1.343093
C129	C	0.964294	-0.338255	0.782001
C130	C	1.464294	0.161745	1.282001
H131	H	0.354134	-0.256778	0.237177
H132	H	0.854134	0.243222	0.737177
H133	H	1.053852	-1.070167	0.401894
H134	H	1.553852	-0.570167	0.901894
H135	H	0.581658	-0.256765	0.237169
H136	H	1.081658	0.243235	0.737169
H137	H	0.219194	-0.419999	0.387258
H138	H	0.719194	0.080001	0.887258
H139	H	0.882326	-0.419786	0.567156
H140	H	1.382326	0.080214	1.067156
H141	H	0.896860	-1.070402	0.244675
H142	H	1.396860	-0.570402	0.744675
H143	H	0.347439	-0.419993	0.387246
H144	H	0.847439	0.080007	0.887246
H145	H	1.020540	-0.825490	0.368610
H146	H	1.520540	-0.325490	0.868610
H147	H	1.046242	-0.256735	0.929695
H148	H	1.546242	0.243265	1.429695
H149	H	1.046194	-0.256820	0.573932
H150	H	1.546194	0.243180	1.073932
H151	H	0.709904	-0.256753	0.237156
H152	H	1.209904	0.243247	0.737156
H153	H	0.882353	-0.419757	0.695403
H154	H	1.382353	0.080243	1.195403
H155	H	1.031672	-0.605630	0.379791
H156	H	1.531672	-0.105630	0.879791
H157	H	1.026252	-0.738703	0.374331
H158	H	1.526252	-0.238703	0.874331
H159	H	0.225899	-0.256784	0.237190
H160	H	0.725899	0.243216	0.737190
H161	H	0.703200	-0.419977	0.387216
H162	H	1.203200	0.080023	0.887216
H163	H	0.574966	-0.419979	0.387231
H164	H	1.074966	0.080021	0.887231
H165	H	1.059270	-0.937082	0.407354
H166	H	1.559270	-0.437082	0.907354
H167	H	0.882404	-0.419682	1.051164
H168	H	1.382404	0.080318	1.551164
H169	H	0.902277	-0.937327	0.250138
H170	H	1.402277	-0.437327	0.750138
H171	H	0.869258	-0.738950	0.217119
H172	H	1.369258	-0.238950	0.717119
H173	H	0.874675	-0.605866	0.222575
H174	H	1.374675	-0.105866	0.722575
H175	H	0.907983	-0.850549	0.255865
H176	H	1.407983	-0.350549	0.755865
H177	H	1.046209	-0.256786	0.702167
H178	H	1.546209	0.243214	1.202167
H179	H	1.046260	-0.256704	1.057941
H180	H	1.546260	0.243296	1.557941
H181	H	0.882389	-0.419719	0.922928
H182	H	1.382389	0.080281	1.422928
