data_functionalizedCrystal
_audit_creation_method	'MofGen! by Chris Wilmer'
_symmetry_space_group_name_H-M	'P1'
_symmetry_Int_Tables_number	1
_symmetry_cell_setting	triclinic
loop_
_symmetry_equiv_pos_as_xyz
  x,y,z
_cell_length_a	10.685980
_cell_length_b	16.120444
_cell_length_c	10.686551
_cell_angle_alpha	88.708632
_cell_angle_beta	81.591741
_cell_angle_gamma	97.501748
loop_
_atom_site_label
_atom_site_type_symbol
_atom_site_fract_x
_atom_site_fract_y
_atom_site_fract_z
Zn1	Zn	1.982410	-0.186868	-0.879994
Zn2	Zn	1.955174	-0.337904	-0.678472
Zn3	Zn	1.752175	-0.210072	-0.653109
Zn4	Zn	1.759303	-0.337823	-0.874377
O5	O	1.862265	-0.268167	-0.771488
O6	O	2.157123	-0.197226	-0.866227
O7	O	1.913864	-0.330691	-0.498169
O8	O	1.791132	-0.090322	-0.674942
O9	O	2.137113	-0.308191	-0.718170
O10	O	1.960284	-0.073274	-0.841633
O11	O	1.764722	-0.236774	-0.479534
O12	O	1.574794	-0.236696	-0.669495
O13	O	1.803280	-0.308053	-1.052061
O14	O	1.580031	-0.330553	-0.832060
O15	O	1.967195	-0.197148	-1.056188
O16	O	1.920776	-0.454566	-0.712723
O17	O	1.776871	-0.454506	-0.856654
C18	C	1.531175	-0.286134	-0.747416
C19	C	1.389534	-0.293839	-0.737150
C20	C	1.846678	-0.484784	-0.786861
C21	C	1.840130	-0.577446	-0.793489
C22	C	1.896569	-0.788377	-0.737402
C23	C	1.828199	-0.747091	-0.805604
C24	C	1.834839	-0.652692	-0.798861
C25	C	1.889930	-0.882785	-0.744144
C26	C	2.194649	-0.250129	-0.795655
C27	C	2.336291	-0.242443	-0.805953
C28	C	1.889071	-0.250003	-1.101286
C29	C	1.900494	-0.242263	-1.241826
C30	C	1.877951	-0.050700	-0.756085
C31	C	1.884635	0.041972	-0.749521
C32	C	1.835642	-0.286196	-0.442975
C33	C	1.824483	-0.293688	-0.302436
H34	H	1.326751	-0.343740	-0.670380
F35	F	1.745168	-0.793557	-0.888540
H36	H	1.974319	-0.192314	-1.297459
F37	F	1.418341	-0.177216	-0.893212
F38	F	1.728003	-0.358979	-1.229733
F39	F	1.979588	-0.741913	-0.654467
