data_functionalizedCrystal
_audit_creation_method	'MofGen! by Chris Wilmer'
_symmetry_space_group_name_H-M	'P1'
_symmetry_Int_Tables_number	1
_symmetry_cell_setting	triclinic
loop_
_symmetry_equiv_pos_as_xyz
  x,y,z
_cell_length_a	15.944493
_cell_length_b	12.811487
_cell_length_c	11.295483
_cell_angle_alpha	99.530033
_cell_angle_beta	85.895877
_cell_angle_gamma	83.761681
loop_
_atom_site_label
_atom_site_type_symbol
_atom_site_fract_x
_atom_site_fract_y
_atom_site_fract_z
O1	O	1.119862	0.129003	-0.085076
O2	O	0.875260	0.145886	-0.083259
O3	O	1.004656	-0.016533	-0.100790
O4	O	0.990465	0.291422	-0.067545
O5	O	0.993291	-0.002289	0.098799
O6	O	0.863895	0.160130	0.116330
O7	O	1.108496	0.143247	0.114512
Cu8	Cu	0.985158	0.152989	0.133645
Cu9	Cu	0.998598	0.136144	-0.102391
O10	O	0.979100	0.305666	0.132043
C11	C	0.838284	0.152318	0.016460
C12	C	0.745041	0.150249	0.016235
C13	C	0.998526	-0.048818	-0.005252
C14	C	0.997182	-0.166239	-0.017936
C15	C	0.982280	-0.371372	0.175843
C16	C	0.981017	-0.481699	0.163931
C17	C	0.993399	-0.497224	-0.053670
C18	C	0.994662	-0.386897	-0.041758
C19	C	0.989101	-0.323974	0.073002
C20	C	0.990358	-0.213644	0.084913
C21	C	1.002746	-0.229172	-0.132688
C22	C	1.001483	-0.339499	-0.144599
C23	C	0.509023	0.245852	0.026554
C24	C	0.453000	0.201320	0.119402
C25	C	0.574331	0.146416	0.015823
C26	C	0.464210	0.187254	-0.077379
C27	C	0.409431	0.142720	0.015421
C28	C	0.519532	0.101916	0.108754
C29	C	0.530750	0.087858	-0.088113
C30	C	0.474759	0.043255	0.004750
C31	C	0.669325	0.148548	0.016056
C32	C	0.314440	0.140581	0.015196
C33	C	1.145472	0.136815	0.014790
C34	C	1.238715	0.138884	0.015008
C35	C	0.985231	0.337951	0.036503
C36	C	0.986575	0.455372	0.049179
N37	N	0.975711	0.164836	0.299660
N38	N	1.008052	0.124289	-0.268407
C39	C	1.076059	0.038948	0.535361
C40	C	1.068925	0.047909	0.660992
C41	C	0.954307	0.191711	0.676554
C42	C	0.961440	0.182751	0.550923
C43	C	1.022319	0.106368	0.480331
C44	C	1.029456	0.097413	0.354699
C45	C	0.914834	0.241211	0.370262
C46	C	0.907701	0.250171	0.495893
H47	H	0.985818	-0.162411	0.178357
C48	C	0.407781	0.265142	0.236318
C49	C	0.320402	0.261491	0.234999
C50	C	0.278721	0.320269	0.342680
H51	H	0.419140	0.337105	0.244080
H52	H	0.427413	0.235510	0.302502
H53	H	0.300777	0.291126	0.168835
H54	H	0.309019	0.189542	0.227257
H55	H	0.298353	0.290637	0.408864
H56	H	0.290086	0.392229	0.350432
H57	H	0.219431	0.317791	0.341804
C58	C	0.529669	0.360024	0.039185
C59	C	0.571522	0.384598	0.143204
C60	C	0.590566	0.489755	0.154876
H61	H	0.478721	0.407239	0.045110
H62	H	0.565160	0.367467	-0.029381
H63	H	0.536031	0.377166	0.211753
H64	H	0.622478	0.337411	0.137304
H65	H	0.626058	0.497197	0.086310
H66	H	0.539614	0.536961	0.160796
H67	H	0.618972	0.506439	0.225446
H68	H	0.997935	-0.548476	-0.147103
H69	H	0.975463	-0.520285	0.247675
C70	C	1.127240	-0.025469	0.720571
C71	C	1.115642	-0.131597	0.678768
C72	C	1.169355	-0.199227	0.733613
H73	H	1.114332	-0.009343	0.805505
H74	H	1.184457	-0.015494	0.701176
H75	H	1.058439	-0.141567	0.698171
H76	H	1.128556	-0.147757	0.593841
H77	H	1.226572	-0.189252	0.714218
H78	H	1.156443	-0.183091	0.818545
H79	H	1.161499	-0.271242	0.705250
H80	H	0.564547	0.039958	-0.175846
H81	H	0.543731	0.065892	0.187507
H82	H	1.006013	-0.390746	-0.238034
H83	H	1.008290	-0.190568	-0.216428
H84	H	0.439895	0.223331	-0.156032
C85	C	0.841523	0.333126	0.572328
C86	C	0.795973	0.390235	0.497239
C87	C	0.734994	0.466653	0.567604
H88	H	0.868736	0.380767	0.626104
H89	H	0.803830	0.298577	0.617209
H90	H	0.833660	0.424783	0.452379
H91	H	0.768741	0.342623	0.443464
H92	H	0.697302	0.432104	0.612485
H93	H	0.762215	0.514286	0.621377
H94	H	0.704076	0.505404	0.516666
C95	C	0.454466	-0.071034	-0.007272
C96	C	0.482566	-0.115231	0.090377
C97	C	0.463874	-0.220504	0.079358
H98	H	0.482194	-0.111666	-0.080289
H99	H	0.394989	-0.071830	-0.007947
H100	H	0.542032	-0.114442	0.091040
H101	H	0.454842	-0.074631	0.163407
H102	H	0.404397	-0.221300	0.078683
H103	H	0.491604	-0.261125	0.006337
H104	H	0.482930	-0.250502	0.145615
H105	H	1.079028	0.035221	0.297224
C106	C	1.142042	-0.044011	0.458538
C107	C	1.101589	-0.113917	0.379391
C108	C	1.162352	-0.190333	0.308588
H109	H	1.173073	-0.082994	0.509144
H110	H	1.179664	-0.009439	0.413572
H111	H	1.063982	-0.148486	0.424353
H112	H	1.070562	-0.074965	0.328760
H113	H	1.199974	-0.155761	0.263622
H114	H	1.193380	-0.229308	0.359203
H115	H	1.134914	-0.237767	0.254870
H116	H	0.977731	-0.320135	0.269286
H117	H	0.904735	0.253894	0.734045
H118	H	0.871078	0.296111	0.325443
