data_functionalizedCrystal
_audit_creation_method	'MofGen! by Chris Wilmer'
_symmetry_space_group_name_H-M	'P1'
_symmetry_Int_Tables_number	1
_symmetry_cell_setting	triclinic
loop_
_symmetry_equiv_pos_as_xyz
  x,y,z
_cell_length_a	17.038272
_cell_length_b	13.101039
_cell_length_c	14.044220
_cell_angle_alpha	93.667477
_cell_angle_beta	92.150217
_cell_angle_gamma	86.404528
loop_
_atom_site_label
_atom_site_type_symbol
_atom_site_fract_x
_atom_site_fract_y
_atom_site_fract_z
O1	O	1.055801	-0.085089	0.202095
O2	O	0.827941	-0.085119	0.198806
O3	O	0.938450	-0.085095	0.062191
O4	O	0.945292	-0.085114	0.338710
O5	O	0.930523	0.085333	0.072010
O6	O	0.820014	0.085309	0.208625
O7	O	1.047873	0.085339	0.211914
Zn8	Zn	0.932685	0.112383	0.211829
Zn9	Zn	0.943130	-0.112163	0.198891
O10	O	0.937364	0.085314	0.348530
C11	C	0.794640	0.000091	0.200726
C12	C	0.707224	0.000080	0.191806
C13	C	0.931492	0.000119	0.031544
C14	C	0.922561	0.000119	-0.074402
C15	C	0.662839	0.000075	0.273694
C16	C	0.580701	0.000090	0.265309
C17	C	0.542950	0.000102	0.175034
C18	C	0.587341	0.000110	0.093140
C19	C	0.669477	0.000102	0.101527
C20	C	0.295118	0.000131	0.145406
C21	C	0.212976	0.000136	0.137025
C22	C	0.206341	0.000117	0.309195
C23	C	0.288480	0.000104	0.317573
C24	C	0.332863	0.000117	0.235680
C25	C	0.458992	0.000114	0.166461
C26	C	0.416819	0.000113	0.244254
C27	C	1.081174	0.000126	0.209994
C28	C	1.168591	0.000131	0.218913
N29	N	0.925562	0.265630	0.220658
N30	N	0.950258	-0.265410	0.190055
C31	C	0.915872	0.474670	0.232680
C32	C	0.959946	0.525556	0.178037
C33	C	0.954554	0.641873	0.184725
C34	C	0.921263	0.358342	0.225992
C35	C	0.906233	0.000103	-0.268381
C36	C	0.969578	0.000108	-0.320905
C37	C	0.960493	0.000098	-0.428842
C38	C	0.915317	0.000112	-0.160434
C39	C	0.944322	0.000098	0.379176
C40	C	0.953254	0.000091	0.485121
H41	H	0.693569	0.000064	0.347205
O42	O	1.042443	-0.000050	-0.277908
C43	C	1.087646	-0.088293	-0.310640
H44	H	1.046798	-0.150004	-0.338362
H45	H	1.126599	-0.117901	-0.249343
H46	H	1.126093	-0.068331	-0.370681
H47	H	0.319211	0.000082	0.391084
O48	O	0.537631	-0.000101	0.344875
C49	C	0.559793	-0.088366	0.394211
H50	H	0.587171	-0.150054	0.342585
H51	H	0.505647	-0.117992	0.426040
H52	H	0.604478	-0.068425	0.453900
O53	O	0.833447	-0.000039	-0.311550
C54	C	0.828524	-0.088321	-0.373872
H55	H	0.890167	-0.117750	-0.395203
H56	H	0.791813	-0.068471	-0.440435
H57	H	0.799612	-0.150126	-0.336373
O58	O	0.163106	0.000158	0.388647
C59	C	0.082517	0.000141	0.361891
H60	H	0.072653	0.032412	0.288624
H61	H	0.046887	0.049621	0.416533
H62	H	0.062843	-0.081620	0.358883
H63	H	0.182242	0.000145	0.063509
H64	H	0.331245	0.000143	0.078722
O65	O	0.866076	0.526789	0.294610
C66	C	0.886777	0.500680	0.388503
H67	H	0.920630	0.422747	0.386378
H68	H	0.831174	0.497145	0.430564
H69	H	0.925264	0.561033	0.424492
H70	H	1.001729	0.481763	0.126232
H71	H	0.556597	0.000135	0.019637
H72	H	0.705615	0.000106	0.034845
H73	H	0.447559	0.000108	0.317756
H74	H	0.428245	0.000153	0.092960
