data_functionalizedCrystal
_audit_creation_method	'MofGen! by Chris Wilmer'
_symmetry_space_group_name_H-M	'P1'
_symmetry_Int_Tables_number	1
_symmetry_cell_setting	triclinic
loop_
_symmetry_equiv_pos_as_xyz
  x,y,z
_cell_length_a	13.339070
_cell_length_b	23.532407
_cell_length_c	12.376457
_cell_angle_alpha	101.199798
_cell_angle_beta	75.589755
_cell_angle_gamma	99.238986
loop_
_atom_site_label
_atom_site_type_symbol
_atom_site_fract_x
_atom_site_fract_y
_atom_site_fract_z
O1	O	1.358915	0.277209	-0.094091
O2	O	1.064762	0.239795	-0.094078
O3	O	1.220704	0.177002	-0.094064
O4	O	1.202972	0.340002	-0.094105
O5	O	1.181733	0.192673	0.093944
O6	O	1.025790	0.255466	0.093930
O7	O	1.319944	0.292880	0.093918
Zn8	Zn	1.166679	0.276661	0.123774
Zn9	Zn	1.218026	0.256014	-0.123935
O10	O	1.164001	0.355673	0.093904
C11	C	1.007650	0.241311	-0.000072
C12	C	0.895536	0.222472	-0.000066
C13	C	1.200766	0.163549	-0.000057
C14	C	1.199406	0.100114	-0.000048
C15	C	0.529282	0.368949	-0.000121
C16	C	0.634619	0.386650	-0.000130
C17	C	0.699853	0.345607	-0.000113
C18	C	0.659741	0.286860	-0.000089
C19	C	0.554396	0.269156	-0.000089
C20	C	0.724966	0.245815	-0.000082
C21	C	0.684854	0.187068	-0.000057
C22	C	0.579519	0.169367	-0.000056
C23	C	0.514285	0.210410	-0.000073
C24	C	0.830312	0.263518	-0.000082
C25	C	0.855425	0.163726	-0.000050
C26	C	0.750088	0.146025	-0.000041
C27	C	1.283186	-0.285491	-0.000114
C28	C	1.281926	-0.345096	-0.000122
O29	O	1.359588	-0.369326	-0.000168
N30	N	1.189215	-0.382667	-0.000118
C31	C	1.097761	-0.360632	-0.000116
O32	O	1.018788	-0.398062	-0.000114
C33	C	1.099024	-0.301029	-0.000115
C34	C	1.191738	-0.263460	-0.000109
C35	C	1.375893	-0.247923	-0.000109
C36	C	1.377152	-0.188322	-0.000098
C37	C	1.285704	-0.166291	-0.000093
C38	C	1.192997	-0.203859	-0.000098
C39	C	1.007572	-0.278996	-0.000122
C40	C	1.008843	-0.219388	-0.000122
C41	C	1.101558	-0.181819	-0.000115
C42	C	1.102808	-0.122227	-0.000082
N43	N	1.195519	-0.084656	-0.000087
C44	C	1.286967	-0.106688	-0.000092
C45	C	1.095117	-0.485801	-0.000119
C46	C	1.093851	-0.545402	-0.000111
C47	C	1.278017	-0.529862	-0.000120
C48	C	1.279280	-0.470259	-0.000119
C49	C	1.187828	-0.448230	-0.000124
C50	C	1.289604	0.018477	-0.000069
C51	C	1.290854	0.078082	-0.000054
C52	C	1.106690	0.062536	-0.000051
C53	C	1.105438	0.002937	-0.000060
C54	C	1.196904	-0.019091	-0.000073
O55	O	1.025189	-0.097956	-0.000042
O56	O	1.365930	-0.069253	-0.000109
C57	C	1.377056	0.291365	-0.000091
C58	C	1.489171	0.310202	-0.000104
C59	C	1.183940	0.369126	-0.000106
C60	C	1.185301	0.432561	-0.000122
N61	N	1.131644	0.290753	0.292830
N62	N	1.253069	0.241919	-0.292990
C63	C	1.334398	0.209197	0.647833
C64	C	1.358914	0.199333	0.529495
C65	C	1.302098	0.222187	0.470323
C66	C	1.220763	0.254907	0.529500
C67	C	1.196250	0.264775	0.647849
C68	C	1.163950	0.277766	0.470339
C69	C	1.082615	0.310485	0.529516
C70	C	1.058106	0.320352	0.647854
C71	C	1.114922	0.297498	0.707026
C72	C	1.188463	0.267897	0.351990
C73	C	1.050315	0.323476	0.352007
C74	C	1.025800	0.333339	0.470344
H75	H	0.785623	0.360023	-0.000123
N76	N	1.388254	-0.005277	-0.000083
H77	H	1.447166	0.027573	-0.000075
H78	H	1.377297	-0.023865	0.069612
N79	N	0.706809	0.082665	-0.000024
H80	H	0.745076	0.058120	-0.069712
H81	H	0.716179	0.069791	0.069724
N82	N	0.925773	0.119452	-0.000039
H83	H	0.998590	0.139581	-0.000039
H84	H	0.898395	0.100378	0.069663
N85	N	0.989022	0.348130	0.288209
H86	H	1.037532	0.375320	0.239088
H87	H	0.954693	0.315195	0.239195
N88	N	0.458925	0.413209	-0.000143
H89	H	0.500315	0.453112	-0.000157
H90	H	0.429130	0.402223	-0.069845
N91	N	1.390855	0.118604	-0.000040
H92	H	1.448594	0.095598	-0.000048
H93	H	1.409841	0.137871	-0.069732
N94	N	1.477152	-0.147806	-0.000095
H95	H	1.534885	-0.170815	-0.000102
H96	H	1.496139	-0.128542	-0.069792
H97	H	0.428510	0.196001	-0.000065
N98	N	0.677875	0.450009	-0.000137
H99	H	0.754505	0.454996	-0.000137
H100	H	0.668427	0.462895	-0.069839
H101	H	1.425137	0.172693	0.481317
H102	H	1.450366	-0.265854	-0.000117
H103	H	1.380655	0.190596	0.696018
H104	H	0.546866	0.121531	-0.000049
N105	N	1.379277	-0.429740	-0.000112
H106	H	1.437011	-0.452747	-0.000112
H107	H	1.398267	-0.410478	-0.069810
H108	H	1.352480	-0.547811	-0.000128
N109	N	1.088477	0.308137	0.834666
H110	H	1.136809	0.288692	0.863166
H111	H	1.096862	0.351479	0.863067
N112	N	0.993847	-0.585917	-0.000087
H113	H	0.936111	-0.562910	-0.000078
H114	H	1.003747	-0.616790	-0.069785
N115	N	1.005440	-0.037587	-0.000052
H116	H	0.947699	-0.014583	-0.000043
H117	H	1.015355	-0.068454	-0.069758
N118	N	0.996471	-0.462042	-0.000113
H119	H	0.937554	-0.494890	-0.000108
H120	H	0.978532	-0.431847	0.069586
H121	H	0.932076	-0.309576	-0.000134
H122	H	0.862960	0.311351	-0.000097
N123	N	0.938083	0.368632	0.534185
H124	H	0.953567	0.409112	0.513580
H125	H	0.870768	0.348970	0.513589
H126	H	1.322062	0.214154	0.373967
N127	N	0.910204	-0.195629	-0.000132
H128	H	0.851286	-0.228476	-0.000137
H129	H	0.892261	-0.165436	0.069568
H130	H	1.032235	0.080486	-0.000042
N131	N	1.276174	0.232606	0.288157
H132	H	1.343528	0.252219	0.308728
H133	H	1.260590	0.192133	0.308792
H134	H	0.991886	0.347000	0.696036
