data_functionalizedCrystal
_audit_creation_method	'MofGen! by Chris Wilmer'
_symmetry_space_group_name_H-M	'P1'
_symmetry_Int_Tables_number	1
_symmetry_cell_setting	triclinic
loop_
_symmetry_equiv_pos_as_xyz
  x,y,z
_cell_length_a	8.559649
_cell_length_b	15.500215
_cell_length_c	8.559649
_cell_angle_alpha	93.497506
_cell_angle_beta	69.778664
_cell_angle_gamma	93.499060
loop_
_atom_site_label
_atom_site_type_symbol
_atom_site_fract_x
_atom_site_fract_y
_atom_site_fract_z
O1	O	2.132782	0.071931	-0.049135
O2	O	1.657298	0.071934	0.034646
O3	O	1.936931	0.071931	-0.244987
O4	O	1.853150	0.071934	0.230498
O5	O	1.925106	-0.071958	-0.256794
O6	O	1.645473	-0.071955	0.022839
O7	O	2.120958	-0.071958	-0.060942
Cu8	Cu	1.882136	-0.085095	-0.020129
Cu9	Cu	1.896120	0.085071	-0.006167
O10	O	1.841325	-0.071955	0.218691
C11	C	1.591077	-0.000010	0.035092
C12	C	1.411377	-0.000008	0.053991
N13	N	1.872312	-0.204780	-0.029952
C14	C	1.954901	-0.250053	0.052713
C15	C	1.947494	-0.340626	0.045271
C16	C	1.857488	-0.385925	-0.044827
C17	C	1.774897	-0.340645	-0.127503
C18	C	1.782315	-0.250074	-0.120070
C19	C	1.830784	-0.659393	-0.071601
C20	C	1.823369	-0.749971	-0.079024
C21	C	1.995969	-0.749946	0.093749
C22	C	2.003371	-0.659372	0.101183
C23	C	1.920787	-0.614101	0.018500
C24	C	1.849911	-0.478505	-0.052432
C25	C	1.928375	-0.521522	0.026095
C26	C	2.187179	-0.000012	-0.061388
C27	C	2.366879	-0.000008	-0.080287
C28	C	1.937368	-0.000012	-0.311199
C29	C	1.956267	-0.000007	-0.490898
N30	N	1.905958	0.204756	0.003642
C31	C	1.840888	-0.000010	0.284904
C32	C	1.821989	-0.000009	0.464603
H33	H	1.311990	-0.000003	0.183420
N34	N	2.051971	-0.201199	0.149900
H35	H	2.103170	-0.243627	0.201134
H36	H	2.143029	-0.163616	0.072564
H37	H	1.466257	-0.000004	-0.209706
H38	H	2.014750	-0.377484	0.112583
N39	N	1.741686	-0.610562	-0.160733
H40	H	1.825123	-0.572978	-0.245685
H41	H	1.683524	-0.653052	-0.218827
N42	N	2.100467	-0.610520	0.198345
H43	H	2.092631	-0.546273	0.190512
H44	H	2.052636	-0.626351	0.318950
H45	H	2.085694	-0.000015	-0.590287
H46	H	2.063205	-0.786816	0.161063
N47	N	1.726262	-0.798831	-0.176180
H48	H	1.675065	-0.756409	-0.227428
H49	H	1.803631	-0.836416	-0.267203
H50	H	1.701622	-0.377534	-0.200873
N51	N	1.693247	-0.201239	-0.209239
H52	H	1.635101	-0.243677	-0.267443
H53	H	1.608344	-0.163662	-0.125742
N54	N	2.025444	-0.472662	0.123269
H55	H	1.977659	-0.488419	0.243923
H56	H	2.146083	-0.488430	0.075439
N57	N	1.752834	-0.527372	-0.149598
H58	H	1.661703	-0.564956	-0.072342
H59	H	1.701733	-0.484902	-0.200836
H60	H	1.692569	-0.000011	-0.436019
