data_functionalizedCrystal
_audit_creation_method	'MofGen! by Chris Wilmer'
_symmetry_space_group_name_H-M	'P1'
_symmetry_Int_Tables_number	1
_symmetry_cell_setting	triclinic
loop_
_symmetry_equiv_pos_as_xyz
  x,y,z
_cell_length_a	10.723024
_cell_length_b	9.198806
_cell_length_c	12.811435
_cell_angle_alpha	84.566476
_cell_angle_beta	95.744812
_cell_angle_gamma	90.003648
loop_
_atom_site_label
_atom_site_type_symbol
_atom_site_fract_x
_atom_site_fract_y
_atom_site_fract_z
O1	O	-1.656456	-0.140286	0.147215
O2	O	-1.293234	-0.142149	0.161307
O3	O	-1.483981	-0.121078	0.001535
O4	O	-1.465709	-0.161357	0.306987
O5	O	-1.483965	0.120707	0.001535
O6	O	-1.293218	0.099637	0.161306
O7	O	-1.656441	0.101499	0.147215
Cu8	Cu	-1.474828	0.122645	0.154260
Cu9	Cu	-1.474846	-0.163294	0.154261
O10	O	-1.465694	0.080428	0.306987
C11	C	-1.246731	-0.021121	0.160281
C12	C	-1.108192	-0.020719	0.157213
C13	C	-1.482948	0.004969	-0.037577
C14	C	-1.479880	0.020327	-0.154116
N15	N	-1.474825	0.323759	0.154260
C16	C	-1.702943	-0.019532	0.148241
C17	C	-1.841482	-0.019944	0.151309
C18	C	-1.032765	-0.032508	0.246613
C19	C	-0.889578	-0.032093	0.243444
N20	N	-1.474860	-0.364407	0.154254
C21	C	-1.554915	0.404841	0.086880
C22	C	-1.554935	0.572254	0.086876
C23	C	-1.466726	-0.045622	0.346098
C24	C	-1.469794	-0.060989	0.462638
C25	C	-1.474125	-0.214430	0.626899
C26	C	-1.471243	-0.200003	0.517399
C27	C	-1.471225	0.063606	0.517384
C28	C	-1.474107	0.049179	0.626883
C29	C	-1.475558	-0.089843	0.681637
C30	C	-1.478450	-0.104269	0.791138
C31	C	-1.478423	0.159339	0.791121
C32	C	-1.475541	0.173766	0.681622
H33	H	-1.074195	-0.042902	0.325497
H34	H	-1.406291	0.565907	0.211947
H35	H	-1.479595	0.260787	0.835700
C36	C	-1.469600	0.216519	0.457139
N37	N	-1.468371	0.331694	0.411762
H38	H	-0.824765	-0.042191	0.319977
H39	H	-1.470070	-0.301455	0.472836
H40	H	-1.623466	0.350323	0.029192
C41	C	-1.473939	0.326683	0.621381
N42	N	-1.472735	0.441863	0.576008
C43	C	-1.475728	-0.367354	0.687129
N44	N	-1.476935	-0.482539	0.732494
H45	H	-1.406266	0.378280	0.211939
H46	H	-0.906288	-0.009860	0.074771
H47	H	-1.066762	-0.010354	0.078328
H48	H	-1.623508	0.641948	0.029194
H49	H	-1.479635	-0.217468	0.835716
