data_functionalizedCrystal
_audit_creation_method	'MofGen! by Chris Wilmer'
_symmetry_space_group_name_H-M	'P1'
_symmetry_Int_Tables_number	1
_symmetry_cell_setting	triclinic
loop_
_symmetry_equiv_pos_as_xyz
  x,y,z
_cell_length_a	17.038272
_cell_length_b	14.586319
_cell_length_c	16.109301
_cell_angle_alpha	90.003802
_cell_angle_beta	92.713430
_cell_angle_gamma	90.002130
loop_
_atom_site_label
_atom_site_type_symbol
_atom_site_fract_x
_atom_site_fract_y
_atom_site_fract_z
O1	O	1.037364	-0.076126	-0.180538
O2	O	1.537364	0.423874	0.319462
O3	O	0.809734	-0.076153	-0.177672
O4	O	1.309734	0.423847	0.322328
O5	O	0.929802	-0.076133	-0.058518
O6	O	1.429802	0.423867	0.441482
O7	O	0.917296	-0.076146	-0.299692
O8	O	1.417296	0.423854	0.200308
O9	O	0.929794	0.076348	-0.058516
O10	O	1.429794	0.576348	0.441484
O11	O	0.809725	0.076328	-0.177669
O12	O	1.309725	0.576328	0.322331
O13	O	1.037356	0.076355	-0.180536
O14	O	1.537356	0.576355	0.319464
Cu15	Cu	0.923540	0.090264	-0.179102
Cu16	Cu	1.423540	0.590264	0.320898
Cu17	Cu	0.923550	-0.090062	-0.179105
Cu18	Cu	1.423550	0.409938	0.320895
O19	O	0.917288	0.076335	-0.299689
O20	O	1.417288	0.576335	0.200311
C21	C	0.780601	0.000084	-0.175063
C22	C	1.280601	0.500084	0.324937
C23	C	0.693808	0.000074	-0.167284
C24	C	1.193808	0.500074	0.332716
N25	N	0.923539	0.217096	-0.179100
N26	N	1.423539	0.717096	0.320900
N27	N	0.923557	-0.216894	-0.179101
N28	N	1.423557	0.283106	0.320899
C29	C	0.643694	0.000071	-0.238705
C30	C	1.143694	0.500071	0.261295
C31	C	0.562143	0.000084	-0.231391
C32	C	1.062143	0.500084	0.268609
C33	C	0.530709	0.000093	-0.152655
C34	C	1.030709	0.500093	0.347345
C35	C	0.580830	0.000100	-0.081229
C36	C	1.080830	0.500100	0.418771
C37	C	0.662379	0.000093	-0.088544
C38	C	1.162379	0.500093	0.411456
C39	C	0.284951	0.000119	-0.126813
C40	C	0.784951	0.500119	0.373187
C41	C	0.203396	0.000123	-0.119503
C42	C	0.703396	0.500123	0.380497
C43	C	0.184715	0.000109	-0.269665
C44	C	0.684715	0.500109	0.230335
C45	C	0.266266	0.000097	-0.276973
C46	C	0.766266	0.500097	0.223027
C47	C	0.316380	0.000108	-0.205547
C48	C	0.816380	0.500108	0.294453
C49	C	0.447352	0.000104	-0.145177
C50	C	0.947352	0.500104	0.354823
C51	C	0.399736	0.000104	-0.213026
C52	C	0.899736	0.500104	0.286974
C53	C	1.066488	0.000116	-0.183145
C54	C	1.566488	0.500116	0.316855
C55	C	1.153281	0.000120	-0.190924
C56	C	1.653281	0.500120	0.309076
C57	C	0.929291	0.000107	-0.027506
C58	C	1.429291	0.500107	0.472494
C59	C	0.927773	0.000106	0.064897
C60	C	1.427773	0.500106	0.564897
C61	C	0.976723	0.452111	-0.126359
C62	C	1.476723	0.952111	0.373641
C63	C	0.976725	0.548092	-0.126357
C64	C	1.476725	1.048092	0.373643
C65	C	0.870368	0.548084	-0.231845
C66	C	1.370368	1.048084	0.268155
C67	C	0.870362	0.452104	-0.231842
C68	C	1.370362	0.952104	0.268158
C69	C	0.923544	0.404121	-0.179100
C70	C	1.423544	0.904121	0.320900
C71	C	0.923552	0.596081	-0.179101
C72	C	1.423552	1.096081	0.320899
C73	C	0.923554	0.700148	-0.179100
C74	C	1.423554	1.200148	0.320900
C75	C	0.923541	0.300047	-0.179100
C76	C	1.423541	0.800047	0.320900
C77	C	0.917798	0.000093	-0.330702
C78	C	1.417798	0.500093	0.169298
C79	C	0.919317	0.000088	-0.423105
C80	C	1.419317	0.500088	0.076895
C81	C	0.994054	0.000098	0.369188
C82	C	1.494054	0.500098	0.869188
C83	C	0.995488	0.000103	0.282366
C84	C	1.495488	0.500103	0.782366
C85	C	0.853031	0.000099	0.272610
C86	C	1.353031	0.500099	0.772610
C87	C	0.851597	0.000100	0.359430
C88	C	1.351597	0.500100	0.859430
C89	C	0.922111	0.000095	0.407717
C90	C	1.422111	0.500095	0.907717
C91	C	0.924979	0.000099	0.234075
C92	C	1.424979	0.500099	0.734075
C93	C	0.926534	0.000105	0.139938
C94	C	1.426534	0.500105	0.639938
C95	C	0.920556	0.000091	0.501860
C96	C	1.420556	0.500091	1.001860
H97	H	0.669281	0.000062	-0.302820
H98	H	1.169281	0.500062	0.197180
H99	H	0.827069	0.587162	-0.274787
H100	H	1.327069	1.087162	0.225213
H101	H	0.521343	0.000080	-0.289549
H102	H	1.021343	0.500080	0.210451
H103	H	0.555230	0.000121	-0.017121
H104	H	1.055230	0.500121	0.482879
C105	C	0.811863	0.399306	-0.289861
C106	C	1.311863	0.899306	0.210139
C107	C	0.753393	0.452081	-0.347908
C108	C	1.253393	0.952081	0.152092
C109	C	0.694895	0.399281	-0.405922
C110	C	1.194895	0.899281	0.094078
C111	C	0.694866	0.293708	-0.405887
C112	C	1.194866	0.793708	0.094113
C113	C	0.753338	0.240927	-0.347838
C114	C	1.253338	0.740927	0.152162
C115	C	0.811837	0.293727	-0.289825
C116	C	1.311837	0.793727	0.210175
H117	H	0.753413	0.530238	-0.347935
H118	H	1.253413	1.030238	0.152065
H119	H	0.651611	0.438353	-0.448894
H120	H	1.151611	0.938353	0.051106
H121	H	0.651563	0.254622	-0.448832
H122	H	1.151563	0.754622	0.051168
H123	H	0.753319	0.162770	-0.347811
H124	H	1.253319	0.662770	0.152189
H125	H	0.855121	0.254654	-0.246853
H126	H	1.355121	0.754654	0.253147
H127	H	1.054071	0.000107	0.251000
H128	H	1.554071	0.500107	0.751000
H129	H	0.325745	0.000129	-0.068652
H130	H	0.825745	0.500129	0.431348
C131	C	0.775470	0.000092	0.219491
C132	C	1.275470	0.500092	0.719491
C133	C	0.716513	-0.079092	0.227403
C134	C	1.216513	0.420908	0.727403
C135	C	0.638950	-0.079104	0.174285
C136	C	1.138950	0.420896	0.674285
C137	C	0.620344	0.000068	0.113255
C138	C	1.120344	0.500068	0.613255
C139	C	0.679303	0.079258	0.105339
C140	C	1.179303	0.579258	0.605339
C141	C	0.756865	0.079269	0.158457
C142	C	1.256865	0.579269	0.658457
H143	H	0.730284	-0.137705	0.272584
H144	H	1.230284	0.362295	0.772584
H145	H	0.595305	-0.137725	0.180145
H146	H	1.095305	0.362275	0.680145
H147	H	0.562927	0.000059	0.073933
H148	H	1.062927	0.500059	0.573933
H149	H	0.665531	0.137871	0.060158
H150	H	1.165531	0.637871	0.560158
H151	H	0.800510	0.137891	0.152598
H152	H	1.300510	0.637891	0.652598
H153	H	0.177806	0.000130	-0.055384
H154	H	0.677806	0.500130	0.444616
H155	H	0.703182	0.000095	-0.030385
H156	H	1.203182	0.500095	0.469615
H157	H	0.291853	0.000078	-0.341088
H158	H	0.791853	0.500078	0.158912
C159	C	0.772455	0.000095	0.401819
C160	C	1.272455	0.500095	0.901819
C161	C	0.694892	0.000089	0.348709
C162	C	1.194892	0.500089	0.848709
C163	C	0.615754	0.000088	0.391099
C164	C	1.115754	0.500088	0.891099
C165	C	0.614179	0.000093	0.486598
C166	C	1.114179	0.500093	0.986598
C167	C	0.691744	0.000100	0.539714
C168	C	1.191744	0.500100	1.039714
C169	C	0.770882	0.000100	0.497324
C170	C	1.270882	0.500100	0.997324
H171	H	0.696056	0.000085	0.278010
H172	H	1.196056	0.500085	0.778010
H173	H	0.558335	0.000083	0.351779
H174	H	1.058335	0.500083	0.851779
H175	H	0.555596	0.000093	0.517977
H176	H	1.055596	0.500093	1.017977
H177	H	0.690581	0.000104	0.610413
H178	H	1.190581	0.500104	1.110413
H179	H	0.828301	0.000105	0.536644
H180	H	1.328301	0.500105	1.036644
H181	H	1.051471	0.000094	0.408501
H182	H	1.551471	0.500094	0.908501
H183	H	1.020025	0.413045	-0.083413
H184	H	1.520025	0.913045	0.416587
H185	H	1.020027	0.587164	-0.083410
H186	H	1.520027	1.087164	0.416590
H187	H	0.425333	0.000101	-0.277132
H188	H	0.925333	0.500101	0.222868
C189	C	0.129588	0.000107	-0.348230
C190	C	0.629588	0.500107	0.151770
C191	C	0.070946	-0.079066	-0.363854
C192	C	0.570946	0.420934	0.136146
C193	C	0.015820	-0.079063	-0.442422
C194	C	0.515820	0.420937	0.057578
C195	C	0.019334	0.000112	-0.505366
C196	C	0.519334	0.500112	-0.005366
C197	C	0.077978	0.079291	-0.489743
C198	C	0.577978	0.579291	0.010257
C199	C	0.133105	0.079289	-0.411175
C200	C	0.633105	0.579289	0.088825
H201	H	0.068342	-0.137682	-0.317258
H202	H	0.568342	0.362318	0.182742
H203	H	-0.027593	-0.137677	-0.453987
H204	H	0.472407	0.362323	0.046013
H205	H	-0.021474	0.000114	-0.563526
H206	H	0.478526	0.500114	-0.063526
H207	H	0.080583	0.137907	-0.536339
H208	H	0.580583	0.637907	-0.036339
H209	H	0.176518	0.137903	-0.399611
H210	H	0.676518	0.637903	0.100389
H211	H	0.421749	0.000138	-0.081070
H212	H	0.921749	0.500138	0.418930
