data_functionalizedCrystal
_audit_creation_method	'MofGen! by Chris Wilmer'
_symmetry_space_group_name_H-M	'P1'
_symmetry_Int_Tables_number	1
_symmetry_cell_setting	triclinic
loop_
_symmetry_equiv_pos_as_xyz
  x,y,z
_cell_length_a	11.169417
_cell_length_b	12.827892
_cell_length_c	12.827885
_cell_angle_alpha	89.970024
_cell_angle_beta	89.982092
_cell_angle_gamma	90.016270
loop_
_atom_site_label
_atom_site_type_symbol
_atom_site_fract_x
_atom_site_fract_y
_atom_site_fract_z
Zn1	Zn	1.834897	-0.415958	-0.590809
Zn2	Zn	1.834776	-0.590735	-0.416069
Zn3	Zn	1.634190	-0.416012	-0.416087
Zn4	Zn	1.634173	-0.590660	-0.590773
O5	O	1.734509	-0.503341	-0.503435
O6	O	2.002831	-0.439151	-0.567637
O7	O	1.808124	-0.567612	-0.269835
O8	O	1.660872	-0.269768	-0.439287
O9	O	2.002742	-0.567560	-0.439256
O10	O	1.808331	-0.269729	-0.567655
O11	O	1.660754	-0.439243	-0.269849
O12	O	1.466238	-0.439170	-0.439252
O13	O	1.660844	-0.567432	-0.737014
O14	O	1.466226	-0.567484	-0.567593
O15	O	1.808315	-0.439079	-0.737041
O16	O	1.808108	-0.736961	-0.439221
O17	O	1.660726	-0.736906	-0.567576
C18	C	1.422684	-0.503325	-0.503421
C19	C	1.289284	-0.503344	-0.503440
C20	C	1.734434	-0.774851	-0.503415
C21	C	1.734512	-0.891004	-0.503442
C22	C	1.807447	-0.942686	-0.567019
C23	C	1.807529	-1.062736	-0.567048
C24	C	2.047551	-0.503358	-0.503449
C25	C	2.180951	-0.503365	-0.503455
C26	C	1.734591	-0.503241	-0.776005
C27	C	1.734626	-0.503198	-0.892158
C28	C	1.734617	-0.230771	-0.503477
C29	C	1.734663	-0.114618	-0.503495
C30	C	1.807607	-0.439673	-0.943956
C31	C	1.807645	-0.439627	-1.064006
C32	C	1.734497	-0.503366	-0.231925
C33	C	1.734695	-0.503114	-0.115772
H34	H	1.869825	-0.898059	-0.621434
Cl35	Cl	1.903947	-1.131351	-0.651085
H36	H	1.672222	-1.070180	-0.449057
Cl37	Cl	1.638188	-0.959901	-0.419439
Cl38	Cl	1.904007	-0.355725	-0.875213
Cl39	Cl	1.904124	-0.355659	-1.132774
H40	H	1.672214	-0.557508	-1.071234
H41	H	1.672164	-0.557544	-0.936689
