data_functionalizedCrystal
_audit_creation_method	'MofGen! by Chris Wilmer'
_symmetry_space_group_name_H-M	'P1'
_symmetry_Int_Tables_number	1
_symmetry_cell_setting	triclinic
loop_
_symmetry_equiv_pos_as_xyz
  x,y,z
_cell_length_a	16.974800
_cell_length_b	16.992695
_cell_length_c	15.455313
_cell_angle_alpha	92.847427
_cell_angle_beta	90.973911
_cell_angle_gamma	87.021674
loop_
_atom_site_label
_atom_site_type_symbol
_atom_site_fract_x
_atom_site_fract_y
_atom_site_fract_z
O1	O	1.055370	0.099968	0.001980
O2	O	0.826692	0.111944	-0.014081
O3	O	0.940114	-0.008189	-0.006108
O4	O	0.941948	0.220100	-0.005993
O5	O	0.933626	-0.001347	0.137698
O6	O	0.820204	0.118785	0.129725
O7	O	1.048882	0.106809	0.145786
Cu8	Cu	0.933951	0.113422	0.150886
Cu9	Cu	0.941623	0.105331	-0.019181
O10	O	0.935460	0.226941	0.137813
C11	C	0.794052	0.114783	0.055758
C12	C	0.706461	0.113043	0.049607
C13	C	0.661778	0.115953	0.125107
C14	C	0.579478	0.114306	0.119330
C15	C	0.541861	0.109754	0.038051
C16	C	0.586550	0.106842	-0.037456
C17	C	0.668849	0.108483	-0.031677
C18	C	0.296102	0.104438	0.012363
C19	C	0.213796	0.102799	0.006591
C20	C	0.206730	0.110262	0.163377
C21	C	0.289031	0.111908	0.169148
C22	C	0.333713	0.108991	0.093642
N23	N	0.457736	0.108072	0.032143
N24	N	0.417836	0.110667	0.099550
C25	C	0.934511	-0.033986	0.065629
C26	C	0.927474	-0.121046	0.065135
C27	C	0.995375	-0.171136	0.069905
C28	C	0.988758	-0.252938	0.069432
C29	C	0.914240	-0.284647	0.064195
C30	C	0.846334	-0.234550	0.059423
C31	C	0.852952	-0.152750	0.059889
C32	C	0.886813	-0.528306	0.062257
C33	C	0.880200	-0.610112	0.061793
C34	C	1.022624	-0.628494	0.071801
C35	C	1.029235	-0.546692	0.072272
C36	C	0.961330	-0.496602	0.067495
N37	N	0.907475	-0.368261	0.063714
N38	N	0.968096	-0.412990	0.067970
C39	C	1.081522	0.103969	0.075945
C40	C	1.169114	0.105709	0.082091
C41	C	0.941063	0.252738	0.066074
C42	C	0.948100	0.339798	0.066563
N43	N	0.928560	0.119112	0.270503
N44	N	0.947020	0.099635	-0.138797
C45	C	0.976765	0.068094	0.319285
C46	C	0.972696	0.072404	0.409807
C47	C	0.920425	0.127737	0.451545
C48	C	0.872215	0.178757	0.402756
C49	C	0.876281	0.174442	0.312236
C50	C	0.902875	0.146340	0.721893
C51	C	0.898815	0.150652	0.812420
C52	C	0.999295	0.044298	0.819465
C53	C	1.003359	0.039992	0.728943
C54	C	0.955146	0.091009	0.680161
N55	N	0.916267	0.132146	0.544073
N56	N	0.959302	0.086596	0.587635
H57	H	0.555916	0.103130	-0.103635
H58	H	0.332472	0.102061	-0.049119
C59	C	1.034268	0.007235	0.273378
H60	H	1.029794	0.011977	0.212480
H61	H	1.021755	-0.044422	0.287390
H62	H	1.086738	0.016616	0.291934
C63	C	0.530295	0.117982	0.202374
H64	H	0.475884	0.116487	0.187294
H65	H	0.539375	0.165604	0.234981
H66	H	0.545268	0.074249	0.236076
H67	H	0.183171	0.099095	-0.059600
C68	C	0.717999	0.105288	-0.114728
H69	H	0.683810	0.102350	-0.163963
H70	H	0.753387	0.060085	-0.115511
H71	H	0.747114	0.151468	-0.115954
C72	C	0.703151	0.120946	0.214515
H73	H	0.664750	0.122431	0.258652
H74	H	0.731979	0.167426	0.219818
H75	H	0.738238	0.076041	0.220240
C76	C	0.823259	0.230561	0.258571
H77	H	0.833161	0.220062	0.198683
H78	H	0.834443	0.283631	0.274224
H79	H	0.769454	0.222598	0.269690
H80	H	0.819515	-0.635925	0.057543
C81	C	0.330403	0.116934	0.258555
H82	H	0.292004	0.118432	0.302694
H83	H	0.359218	0.163423	0.263827
H84	H	0.365503	0.072042	0.264306
C85	C	0.157578	0.113498	0.246425
H86	H	0.103175	0.111873	0.231347
H87	H	0.166492	0.160996	0.279337
H88	H	0.172735	0.069615	0.279825
H89	H	0.797660	-0.111967	0.056005
C90	C	1.077345	-0.136263	0.075665
H91	H	1.116836	-0.177815	0.078429
H92	H	1.080627	-0.102353	0.126202
H93	H	1.085149	-0.107120	0.025899
C94	C	0.849866	0.202475	0.668242
H95	H	0.859769	0.191983	0.608353
H96	H	0.861068	0.255538	0.683908
H97	H	0.796057	0.194529	0.679355
H98	H	1.011947	0.030861	0.449526
C99	C	1.060852	-0.020878	0.683037
H100	H	1.088974	-0.050651	0.725055
H101	H	1.097021	0.005738	0.650138
H102	H	1.032024	-0.055287	0.645605
H103	H	0.785660	-0.260374	0.055154
H104	H	1.038547	0.002762	0.859191
C105	C	0.812119	-0.473217	0.057018
H106	H	0.766792	-0.503820	0.053844
H107	H	0.813994	-0.443304	0.006845
H108	H	0.809480	-0.438545	0.107148
C109	C	1.063449	-0.308034	0.074687
H110	H	1.108775	-0.277433	0.077885
H111	H	1.066098	-0.342710	0.024566
H112	H	1.061558	-0.337941	0.124868
C113	C	1.111206	-0.511818	0.078021
H114	H	1.150699	-0.553367	0.080785
H115	H	1.114489	-0.477905	0.128557
H116	H	1.119005	-0.482675	0.028253
H117	H	0.856248	0.195714	0.846399
H118	H	0.829652	0.223807	0.436744
C119	C	1.097313	-0.683593	0.077043
H120	H	1.082703	-0.736852	0.076007
H121	H	1.125399	-0.671584	0.129320
H122	H	1.129915	-0.676344	0.029016
