data_functionalizedCrystal
_audit_creation_method	'MofGen! by Chris Wilmer'
_symmetry_space_group_name_H-M	'P1'
_symmetry_Int_Tables_number	1
_symmetry_cell_setting	triclinic
loop_
_symmetry_equiv_pos_as_xyz
  x,y,z
_cell_length_a	8.497374
_cell_length_b	8.497374
_cell_length_c	19.121102
_cell_angle_alpha	92.443878
_cell_angle_beta	92.441575
_cell_angle_gamma	90.005237
loop_
_atom_site_label
_atom_site_type_symbol
_atom_site_fract_x
_atom_site_fract_y
_atom_site_fract_z
Zn1	Zn	0.994973	0.731412	1.073738
Zn2	Zn	0.731238	0.995157	1.073733
Zn3	Zn	0.719952	0.720113	0.956320
Zn4	Zn	0.983720	0.983870	0.956303
O5	O	0.857471	0.857638	1.015023
O6	O	0.969421	0.775851	1.172022
O7	O	0.508979	0.958667	1.058162
O8	O	0.756420	0.500850	0.971905
O9	O	0.775657	0.969623	1.172018
O10	O	0.958477	0.509152	1.058172
O11	O	0.500687	0.756593	0.971899
O12	O	0.745508	0.745648	0.858032
O13	O	1.205974	0.950386	0.971876
O14	O	0.939297	0.939429	0.858020
O15	O	1.214242	0.764906	1.058155
O16	O	0.764745	1.214421	1.058146
O17	O	0.950241	1.206129	0.971871
C18	C	0.839957	0.840089	0.832542
C19	C	0.832503	0.832619	0.754476
C20	C	1.268951	0.857640	1.015018
C21	C	1.447595	0.857657	1.015020
C22	C	0.857493	1.267517	1.015014
C23	C	0.857469	1.446163	1.015033
C24	C	0.929738	0.930154	0.717812
C25	C	0.922740	0.923115	0.644460
C26	C	0.818499	0.818548	0.607774
C27	C	0.721261	0.721003	0.644443
C28	C	0.728267	0.728035	0.717793
C29	C	0.792313	0.792252	0.386303
C30	C	0.785311	0.785230	0.312947
C31	C	0.986794	0.987341	0.312970
C32	C	0.993784	0.994371	0.386322
C33	C	0.896551	0.896820	0.422984
C34	C	0.811341	0.811354	0.532797
C35	C	0.903718	0.904007	0.497960
C36	C	0.875053	0.875257	1.198217
C37	C	0.882546	0.882765	1.276284
H38	H	1.014617	1.015309	0.747677
O39	O	1.005060	1.005369	0.533671
C40	C	1.225977	1.034861	0.616477
C41	C	1.111295	0.919893	0.576082
H42	H	1.311918	0.965797	0.650765
H43	H	1.156784	1.120494	0.650862
H44	H	1.294200	1.103410	0.577663
H45	H	1.043043	0.851236	0.614846
H46	H	1.180577	0.834363	0.541686
H47	H	0.636392	0.635856	0.614567
O48	O	1.016957	1.017933	0.608764
C49	C	1.029924	1.223076	0.525981
C50	C	0.923040	1.115761	0.566352
H51	H	0.954035	1.302220	0.491693
H52	H	1.109217	1.147571	0.491599
H53	H	1.105664	1.298962	0.564811
H54	H	0.847202	1.039856	0.527573
H55	H	0.843852	1.191357	0.600745
O56	O	1.095184	1.095986	0.421848
C57	C	1.294215	1.295783	0.414127
C58	C	1.179485	1.180742	0.373807
H59	H	1.362379	1.364362	0.375303
H60	H	1.380197	1.226857	0.448455
H61	H	1.224910	1.381380	0.448482
H62	H	1.248659	1.095119	0.339414
H63	H	1.093503	1.249770	0.339523
O64	O	0.709923	0.710000	0.497121
C65	C	0.489164	0.680478	0.414232
C66	C	0.603875	0.795446	0.454608
H67	H	0.403417	0.749513	0.379839
H68	H	0.420736	0.611981	0.452995
H69	H	0.558505	0.594799	0.379932
H70	H	0.534656	0.881220	0.488909
H71	H	0.672306	0.863828	0.415807
H72	H	0.649096	0.648604	0.747644
H73	H	1.065958	1.066759	0.283111
H74	H	0.700435	0.700061	0.283079
H75	H	0.713127	0.712831	0.416144
