data_functionalizedCrystal
_audit_creation_method	'MofGen! by Chris Wilmer'
_symmetry_space_group_name_H-M	'P1'
_symmetry_Int_Tables_number	1
_symmetry_cell_setting	triclinic
loop_
_symmetry_equiv_pos_as_xyz
  x,y,z
_cell_length_a	19.077105
_cell_length_b	18.101395
_cell_length_c	19.075868
_cell_angle_alpha	87.593339
_cell_angle_beta	85.264809
_cell_angle_gamma	87.727498
loop_
_atom_site_label
_atom_site_type_symbol
_atom_site_fract_x
_atom_site_fract_y
_atom_site_fract_z
Zn1	Zn	1.093925	-0.321803	-0.441940
Zn2	Zn	1.593925	0.178197	0.058060
Zn3	Zn	1.089028	-0.450605	-0.324029
Zn4	Zn	1.589028	0.049395	0.175971
Zn5	Zn	0.971239	-0.322001	-0.319312
Zn6	Zn	1.471239	0.177999	0.180688
Zn7	Zn	0.975988	-0.440822	-0.437171
Zn8	Zn	1.475988	0.059178	0.062829
O9	O	1.032545	-0.383808	-0.380613
O10	O	1.532545	0.116192	0.119387
O11	O	1.191927	-0.342900	-0.430269
O12	O	1.691927	0.157100	0.069731
O13	O	1.069367	-0.437723	-0.224733
O14	O	1.569367	0.062277	0.275267
O15	O	0.987576	-0.218344	-0.335601
O16	O	1.487576	0.281656	0.164399
O17	O	1.188330	-0.437530	-0.343641
O18	O	1.688330	0.062470	0.156359
O19	O	1.077712	-0.218198	-0.425695
O20	O	1.577712	0.281802	0.074305
O21	O	0.982828	-0.343238	-0.221267
O22	O	1.482828	0.156762	0.278733
O23	O	0.873217	-0.333752	-0.330976
O24	O	1.373217	0.166248	0.169024
O25	O	0.995669	-0.420857	-0.536474
O26	O	1.495669	0.079143	-0.036474
O27	O	0.876706	-0.421049	-0.417566
O28	O	1.376706	0.078951	0.082434
O29	O	1.082317	-0.333414	-0.539978
O30	O	1.582317	0.166586	-0.039978
O31	O	1.073971	-0.552939	-0.339016
O32	O	1.573971	-0.052939	0.160984
O33	O	0.990921	-0.545751	-0.422140
O34	O	1.490921	-0.045751	0.077860
C35	C	0.849382	-0.376361	-0.373242
C36	C	1.349382	0.123639	0.126758
C37	C	0.771025	-0.373192	-0.370106
C38	C	1.271025	0.126808	0.129894
C39	C	1.032450	-0.576215	-0.380589
C40	C	1.532450	-0.076215	0.119411
C41	C	1.032475	-0.658530	-0.380604
C42	C	1.532475	-0.158530	0.119396
C43	C	0.736045	-0.417229	-0.413644
C44	C	1.236045	0.082771	0.086356
C45	C	0.662420	-0.414242	-0.410700
C46	C	1.162420	0.085758	0.089300
C47	C	0.623777	-0.367222	-0.364214
C48	C	1.123777	0.132778	0.135786
C49	C	0.658762	-0.323180	-0.320674
C50	C	1.158762	0.176820	0.179326
C51	C	0.732386	-0.326164	-0.323622
C52	C	1.232386	0.173836	0.176378
C53	C	0.403390	-0.353412	-0.350574
C54	C	0.903390	0.146588	0.149426
C55	C	0.329761	-0.350433	-0.347628
C56	C	0.829761	0.149567	0.152372
C57	C	0.333424	-0.441495	-0.437656
C58	C	0.833424	0.058505	0.062344
C59	C	0.407048	-0.444478	-0.440597
C60	C	0.907048	0.055522	0.059403
C61	C	0.442028	-0.400433	-0.397059
C62	C	0.942028	0.099567	0.102941
N63	N	0.548521	-0.364169	-0.361202
N64	N	1.048521	0.135831	0.138798
N65	N	0.517283	-0.403483	-0.400075
N66	N	1.017283	0.096517	0.099925
C67	C	1.032631	-0.957625	-0.380648
C68	C	1.532631	-0.457625	0.119352
C69	C	0.980510	-0.921808	-0.433089
C70	C	1.480510	-0.421808	0.066911
C71	C	0.980244	-0.836187	-0.432907
C72	C	1.480244	-0.336187	0.067093
C73	C	1.032553	-0.809241	-0.380627
C74	C	1.532553	-0.309241	0.119373
C75	C	1.009416	-0.842701	-0.305508
C76	C	1.509416	-0.342701	0.194492
C77	C	1.009079	-0.928318	-0.305821
C78	C	1.509079	-0.428318	0.194179
C79	C	1.107981	-0.928195	-0.402678
C80	C	1.607981	-0.428195	0.097322
C81	C	1.107609	-0.842458	-0.404290
C82	C	1.607609	-0.342458	0.095710
C83	C	1.032510	-0.725380	-0.380611
C84	C	1.532510	-0.225380	0.119389
C85	C	1.032672	-1.041486	-0.380660
C86	C	1.532672	-0.541486	0.119340
C87	C	1.216423	-0.391284	-0.388013
C88	C	1.716423	0.108716	0.111987
C89	C	1.294781	-0.394470	-0.391167
C90	C	1.794781	0.105530	0.108833
C91	C	1.040069	-0.376022	-0.564526
C92	C	1.540069	0.123978	-0.064526
C93	C	1.043275	-0.372704	-0.642898
C94	C	1.543275	0.127296	-0.142898
C95	C	1.032660	-0.190649	-0.380654
C96	C	1.532660	0.309351	0.119346
C97	C	1.032709	-0.108336	-0.380671
C98	C	1.532709	0.391664	0.119329
C99	C	1.025091	-0.391512	-0.197418
C100	C	1.525091	0.108488	0.302582
C101	C	1.022022	-0.394627	-0.119051
C102	C	1.522022	0.105373	0.380949
C103	C	1.065368	-0.350203	-0.084235
C104	C	1.565368	0.149797	0.415765
C105	C	1.062485	-0.353140	-0.010601
C106	C	1.562485	0.146860	0.489399
C107	C	1.016250	-0.400499	0.028215
C108	C	1.516250	0.099501	0.528215
C109	C	0.972902	-0.444928	-0.006606
C110	C	1.472902	0.055072	0.493394
C111	C	0.975789	-0.441993	-0.080238
C112	C	1.475789	0.058007	0.419762
C113	C	1.002814	-0.414199	0.248648
C114	C	1.502814	0.085801	0.748648
C115	C	0.999928	-0.417128	0.322286
C116	C	1.499928	0.082872	0.822286
C117	C	1.089512	-0.325341	0.318285
C118	C	1.589512	0.174659	0.818285
C119	C	1.092393	-0.322408	0.244652
C120	C	1.592393	0.177592	0.744652
C121	C	1.049047	-0.366840	0.209837
C122	C	1.549047	0.133160	0.709837
N123	N	1.013300	-0.403501	0.103481
N124	N	1.513300	0.096499	0.603481
N125	N	1.052002	-0.363841	0.134572
N126	N	1.552002	0.136159	0.634572
H127	H	0.767503	-0.455521	-0.451496
H128	H	1.267503	0.044479	0.048504
H129	H	0.760866	-0.290300	-0.288172
H130	H	1.260866	0.209700	0.211828
H131	H	0.995070	-0.813317	-0.488514
H132	H	1.495070	-0.313317	0.011486
H133	H	1.097784	-0.316967	0.017743
H134	H	1.597784	0.183033	0.517743
H135	H	1.125002	-0.820411	-0.459588
H136	H	1.625002	-0.320411	0.040412
H137	H	0.304936	-0.477352	-0.473103
H138	H	0.804936	0.022648	0.026897
H139	H	0.995218	-0.940537	-0.488868
H140	H	1.495218	-0.440537	0.011132
H141	H	0.962261	-0.455678	0.353889
H142	H	1.462261	0.044322	0.853889
H143	H	0.954811	-0.819817	-0.286929
H144	H	1.454811	-0.319817	0.213071
H145	H	1.124803	-0.289168	0.346640
H146	H	1.624803	0.210832	0.846640
H147	H	0.967518	-0.450377	0.220311
H148	H	1.467518	0.049623	0.720311
H149	H	1.148739	-0.824326	-0.369117
H150	H	1.648739	-0.324326	0.130883
H151	H	0.953908	-0.946826	-0.287508
H152	H	1.453908	-0.446826	0.212492
H153	H	0.935260	-0.483491	0.025004
H154	H	1.435260	0.016509	0.525004
H155	H	0.940492	-0.478169	-0.108585
H156	H	1.440492	0.021831	0.391415
H157	H	1.130045	-0.283847	0.213052
H158	H	1.630045	0.216153	0.713052
H159	H	1.103013	-0.311633	-0.115834
H160	H	1.603013	0.188367	0.384166
H161	H	1.128486	-0.948248	-0.456678
H162	H	1.628486	-0.448248	0.043322
H163	H	0.431861	-0.317554	-0.315118
H164	H	0.931861	0.182446	0.184882
H165	H	0.438507	-0.482769	-0.478449
H166	H	0.938507	0.017231	0.021551
H167	H	1.146850	-0.951761	-0.364520
H168	H	1.646850	-0.451761	0.135480
H169	H	0.627293	-0.284891	-0.282827
H170	H	1.127293	0.215109	0.217173
H171	H	0.633942	-0.450102	-0.446153
H172	H	1.133942	0.049898	0.053847
H173	H	1.046051	-0.825644	-0.265240
H174	H	1.546051	-0.325644	0.234760
H175	H	0.298300	-0.312135	-0.309778
H176	H	0.798300	0.187865	0.190222
H177	H	0.924454	-0.814051	-0.418079
H178	H	1.424454	-0.314051	0.081921
H179	H	0.925062	-0.941689	-0.418433
H180	H	1.425062	-0.441689	0.081567
H181	H	1.045231	-0.952342	-0.265256
H182	H	1.545231	-0.452342	0.234744
