data_functionalizedCrystal
_audit_creation_method	'MofGen! by Chris Wilmer'
_symmetry_space_group_name_H-M	'P1'
_symmetry_Int_Tables_number	1
_symmetry_cell_setting	triclinic
loop_
_symmetry_equiv_pos_as_xyz
  x,y,z
_cell_length_a	12.594517
_cell_length_b	12.594516
_cell_length_c	12.827885
_cell_angle_alpha	90.029730
_cell_angle_beta	90.022454
_cell_angle_gamma	90.011248
loop_
_atom_site_label
_atom_site_type_symbol
_atom_site_fract_x
_atom_site_fract_y
_atom_site_fract_z
Zn1	Zn	1.627301	-0.423707	0.590938
Zn2	Zn	1.627204	-0.601723	0.416198
Zn3	Zn	1.449304	-0.423757	0.416202
Zn4	Zn	1.449300	-0.601642	0.590889
O5	O	1.538277	-0.512707	0.503557
O6	O	1.776234	-0.447334	0.567777
O7	O	1.603566	-0.578170	0.269963
O8	O	1.472958	-0.274804	0.439403
O9	O	1.776163	-0.578121	0.439397
O10	O	1.603731	-0.274767	0.567781
O11	O	1.472864	-0.447419	0.269965
O12	O	1.300358	-0.447341	0.439355
O13	O	1.472951	-0.577983	0.737131
O14	O	1.300355	-0.578032	0.567697
O15	O	1.603728	-0.447255	0.737167
O16	O	1.603563	-0.750658	0.439349
O17	O	1.472857	-0.750598	0.567693
C18	C	1.261736	-0.512684	0.503522
C19	C	1.143431	-0.512700	0.503531
C20	C	1.538228	-0.789248	0.503538
C21	C	1.538304	-0.907553	0.503566
C22	C	1.003385	-0.441539	0.433886
C23	C	1.074242	-0.415602	0.529245
C24	C	1.074145	-0.538588	0.408183
C25	C	1.003502	-0.486755	0.599017
C26	C	1.003400	-0.609786	0.477891
C27	C	1.074225	-0.583887	0.573316
C28	C	1.609477	-0.976800	0.433834
C29	C	1.635488	-1.047494	0.529216
C30	C	1.512426	-1.047659	0.408244
C31	C	1.564365	-0.976689	0.598998
C32	C	1.441258	-0.976847	0.477962
C33	C	1.467232	-1.047509	0.573410
C34	C	1.815898	-0.512731	0.503592
C35	C	1.934204	-0.512741	0.503608
C36	C	1.538350	-0.512605	0.776127
C37	C	1.538381	-0.512561	0.892280
C38	C	1.538356	-0.235086	0.503598
C39	C	1.538389	-0.116781	0.503615
C40	C	1.538266	-0.512732	0.232047
C41	C	1.538442	-0.512476	0.115894
C42	C	1.603100	-0.447860	0.944083
C43	C	1.603133	-0.447814	1.064133
H44	H	0.972284	-0.381297	0.375030
H45	H	1.407079	-1.078361	0.632469
H46	H	1.658480	-0.392498	0.899556
H47	H	1.105341	-0.333512	0.550983
C48	C	1.676900	-0.373985	1.123713
C49	C	1.662240	-0.388589	1.230940
C50	C	1.730166	-0.320583	1.285859
H51	H	1.748466	-0.389486	1.106010
H52	H	1.661339	-0.302437	1.105944
H53	H	1.677809	-0.460120	1.248701
H54	H	1.590688	-0.373080	1.248674
H55	H	1.714604	-0.249035	1.268090
H56	H	1.801728	-0.336089	1.268147
H57	H	1.720221	-0.330475	1.358617
C58	C	1.464411	-0.586422	0.951452
C59	C	1.404679	-0.646104	0.880395
C60	C	1.336515	-0.714148	0.934862
H61	H	1.505046	-0.632839	0.994035
H62	H	1.418039	-0.545669	0.994007
H63	H	1.451045	-0.686854	0.837857
H64	H	1.364022	-0.599716	0.837810
H65	H	1.290143	-0.673395	0.977418
H66	H	1.377159	-0.760558	0.977443
H67	H	1.295972	-0.754643	0.886659
H68	H	1.105131	-0.644083	0.632312
C69	C	0.962161	-0.457621	0.706602
C70	C	0.900263	-0.541074	0.745376
C71	C	0.862149	-0.514266	0.844469
H72	H	1.020322	-0.445267	0.752190
H73	H	0.920112	-0.395184	0.701927
H74	H	0.942310	-0.603493	0.750057
H75	H	0.842087	-0.553440	0.699817
H76	H	0.820100	-0.451829	0.839794
H77	H	0.920316	-0.501911	0.890048
H78	H	0.820139	-0.570879	0.870786
H79	H	0.972259	-0.691849	0.456137
H80	H	1.483034	-0.567875	1.071352
H81	H	1.105179	-0.560467	0.327515
C82	C	1.331847	-0.935482	0.448800
C83	C	1.305117	-0.971359	0.348852
C84	C	1.204343	-0.933261	0.321936
H85	H	1.281033	-0.960721	0.497559
H86	H	1.332443	-0.860054	0.449564
H87	H	1.304513	-1.046771	0.348097
H88	H	1.355904	-0.946123	0.300071
H89	H	1.204938	-0.857832	0.322699
H90	H	1.153537	-0.958502	0.370701
H91	H	1.186197	-0.957589	0.254116
C92	C	1.689908	-0.935448	0.355411
C93	C	1.791415	-0.971223	0.382739
C94	C	1.865537	-0.933138	0.310535
H95	H	1.672314	-0.960765	0.287811
H96	H	1.688936	-0.860021	0.355511
H97	H	1.792384	-1.046635	0.382629
H98	H	1.809043	-0.945909	0.450327
H99	H	1.864565	-0.857710	0.310634
H100	H	1.847933	-0.958457	0.242939
H101	H	1.934419	-0.957397	0.329072
C102	C	1.744891	-1.088917	0.558352
C103	C	1.737464	-1.149925	0.649270
C104	C	1.838229	-1.188074	0.676149
H105	H	1.771729	-1.131574	0.503255
H106	H	1.791443	-1.030746	0.570030
H107	H	1.690928	-1.208089	0.637588
H108	H	1.710644	-1.107292	0.704388
H109	H	1.884781	-1.129903	0.687827
H110	H	1.865059	-1.230726	0.621046
H111	H	1.833205	-1.229464	0.737844
C112	C	1.593765	-0.935102	0.706459
C113	C	1.593446	-0.823941	0.705160
C114	C	1.620542	-0.785593	0.804126
H115	H	1.543597	-0.959764	0.756140
H116	H	1.662546	-0.959819	0.724786
H117	H	1.524676	-0.799234	0.686846
H118	H	1.643616	-0.799251	0.655501
H119	H	1.689323	-0.810310	0.822453
H120	H	1.570371	-0.810262	0.853799
H121	H	1.620339	-0.710168	0.803256
C122	C	1.483332	-1.089076	0.300639
C123	C	1.558054	-1.053225	0.227933
C124	C	1.531288	-1.091342	0.128794
H125	H	1.482955	-1.164491	0.301442
H126	H	1.414865	-1.063816	0.281897
H127	H	1.626503	-1.078490	0.246670
H128	H	1.558441	-0.977814	0.227097
H129	H	1.462821	-1.066082	0.110052
H130	H	1.530912	-1.166756	0.129608
H131	H	1.581977	-1.067014	0.079449
