data_functionalizedCrystal
_audit_creation_method	'MofGen! by Chris Wilmer'
_symmetry_space_group_name_H-M	'P1'
_symmetry_Int_Tables_number	1
_symmetry_cell_setting	triclinic
loop_
_symmetry_equiv_pos_as_xyz
  x,y,z
_cell_length_a	17.699082
_cell_length_b	9.065215
_cell_length_c	8.140239
_cell_angle_alpha	89.997810
_cell_angle_beta	90.001578
_cell_angle_gamma	95.851410
loop_
_atom_site_label
_atom_site_type_symbol
_atom_site_fract_x
_atom_site_fract_y
_atom_site_fract_z
O1	O	-0.110962	1.957111	-0.136586
O2	O	-0.120067	1.527556	-0.136593
O3	O	-0.005420	1.754470	-0.136587
O4	O	-0.225609	1.730196	-0.136593
O5	O	-0.005419	1.754458	0.136640
O6	O	-0.120066	1.527543	0.136634
O7	O	-0.110961	1.957098	0.136641
Zn8	Zn	-0.115513	1.742319	0.180018
Zn9	Zn	-0.115515	1.742335	-0.179971
O10	O	-0.225608	1.730184	0.136634
C11	C	-0.119192	1.472589	0.000019
C12	C	-0.116577	1.308823	0.000017
C13	C	-0.253813	1.731059	0.000020
C14	C	-0.337851	1.733668	0.000018
C15	C	-0.377330	1.734901	-0.148920
C16	C	-0.456292	1.737371	-0.148922
C17	C	-0.495774	1.738597	0.000015
C18	C	-0.456289	1.737368	0.148965
C19	C	-0.377328	1.734908	0.148965
C20	C	-0.774730	1.747287	0.148967
C21	C	-0.853697	1.749742	0.148955
C22	C	-0.853695	1.749750	-0.148921
C23	C	-0.774734	1.747291	-0.148920
C24	C	-0.735255	1.746070	0.000028
C25	C	-0.649635	1.743394	0.000029
C26	C	-0.581393	1.741261	0.000017
C27	C	0.022784	1.753595	0.000024
C28	C	0.106823	1.750986	0.000015
C29	C	-0.111836	2.012065	0.000024
C30	C	-0.114451	2.175831	0.000016
N31	N	-0.115512	1.742318	0.425701
N32	N	-0.115511	1.742347	-0.425653
H33	H	-0.345191	1.733890	-0.270203
O34	O	-0.896283	1.751073	0.309604
H35	H	-0.926205	1.852698	0.316700
O36	O	-0.732158	1.745930	-0.309569
H37	H	-0.741246	1.846910	-0.381005
H38	H	-0.742596	1.746294	0.270250
O39	O	-0.498867	1.738693	0.309612
H40	H	-0.560407	1.740595	0.284594
H41	H	-0.345185	1.733903	0.270246
O42	O	-0.498878	1.738674	-0.309561
H43	H	-0.458161	1.737380	-0.413125
O44	O	-0.896280	1.751082	-0.309574
H45	H	-0.887190	1.650089	-0.380977
