data_functionalizedCrystal
_audit_creation_method	'MofGen! by Chris Wilmer'
_symmetry_space_group_name_H-M	'P1'
_symmetry_Int_Tables_number	1
_symmetry_cell_setting	triclinic
loop_
_symmetry_equiv_pos_as_xyz
  x,y,z
_cell_length_a	16.974800
_cell_length_b	16.956995
_cell_length_c	15.186229
_cell_angle_alpha	89.997115
_cell_angle_beta	93.653458
_cell_angle_gamma	79.729798
loop_
_atom_site_label
_atom_site_type_symbol
_atom_site_fract_x
_atom_site_fract_y
_atom_site_fract_z
O1	O	1.042510	0.101582	0.001096
O2	O	0.811456	0.114540	-0.015378
O3	O	0.940863	-0.008033	-0.006148
O4	O	0.913102	0.224156	-0.008134
O5	O	0.940855	-0.008035	0.140309
O6	O	0.811448	0.114539	0.131079
O7	O	1.042502	0.101580	0.147553
Zn8	Zn	0.926973	0.108059	0.162569
Zn9	Zn	0.926984	0.108062	-0.030394
O10	O	0.913094	0.224154	0.138323
C11	C	0.782025	0.114049	0.055753
C12	C	0.694344	0.112576	0.049501
C13	C	0.942280	-0.037744	0.067181
C14	C	0.946506	-0.126269	0.067479
C15	C	0.653152	0.111882	0.126400
C16	C	0.570770	0.110486	0.120528
C17	C	0.529579	0.109790	0.037758
C18	C	0.570777	0.110482	-0.039147
C19	C	0.653160	0.111873	-0.033275
C20	C	0.283193	0.105627	0.011634
C21	C	0.200805	0.104239	0.005768
C22	C	0.200803	0.104241	0.165444
C23	C	0.283186	0.105636	0.171309
C24	C	0.324378	0.106324	0.094404
N25	N	0.445370	0.108366	0.031754
N26	N	0.408586	0.107743	0.100409
C27	C	0.978119	-0.625606	0.069730
C28	C	0.974143	-0.542426	0.069452
C29	C	0.899497	-0.491252	0.064125
C30	C	0.828823	-0.523261	0.059086
C31	C	0.832801	-0.606440	0.059371
C32	C	0.879810	-0.241457	0.062724
C33	C	0.875838	-0.158273	0.062438
C34	C	1.021158	-0.177444	0.072805
C35	C	1.025129	-0.260623	0.073084
C36	C	0.954455	-0.292625	0.068049
N37	N	0.895430	-0.406229	0.063838
N38	N	0.958523	-0.377647	0.068343
C39	C	1.071932	0.102072	0.076421
C40	C	1.159613	0.103544	0.082666
C41	C	0.911677	0.253865	0.064992
C42	C	0.907451	0.342390	0.064688
N43	N	0.926972	0.108057	0.294262
N44	N	0.926992	0.108057	-0.162086
C45	C	0.984291	0.053800	0.524073
C46	C	0.984293	0.053798	0.616263
C47	C	0.869667	0.162317	0.608096
C48	C	0.869662	0.162315	0.515908
C49	C	0.926978	0.108057	0.473899
C50	C	0.926986	0.108058	0.658277
C51	C	0.926988	0.108056	0.758233
C52	C	0.926975	0.108057	0.373936
H53	H	0.537237	0.109907	0.183148
H54	H	0.822987	0.206498	0.475053
H55	H	0.823003	0.206494	0.642309
H56	H	0.537235	0.109910	-0.106541
O57	O	0.327612	0.106373	-0.071311
H58	H	0.354551	0.161329	-0.073212
O59	O	0.697570	0.112642	0.215678
H60	H	0.745712	0.058954	0.222936
O61	O	1.097378	-0.142921	0.078242
H62	H	1.132984	-0.163475	0.021086
H63	H	0.686697	0.112440	-0.095894
H64	H	0.167256	0.103679	0.228055
O65	O	0.327606	0.106424	0.260582
H66	H	0.285120	0.105715	0.313070
H67	H	1.038904	-0.667267	0.074060
H68	H	0.167269	0.103675	-0.061638
H69	H	1.031688	-0.516373	0.073558
O70	O	1.105644	-0.315811	0.078843
H71	H	1.139733	-0.304436	0.021588
O72	O	0.795323	-0.103073	0.056701
H73	H	0.746847	-0.139299	0.053257
H74	H	0.822262	-0.267502	0.058614
O75	O	0.748309	-0.468072	0.053343
H76	H	0.757414	-0.404855	0.053984
O77	O	1.046109	-0.004721	0.670383
H78	H	1.082337	0.028830	0.714965
O79	O	0.756581	-0.640965	0.053929
H80	H	0.704006	-0.591408	0.050170
H81	H	1.030960	0.009619	0.489871
