data_functionalizedCrystal
_audit_creation_method	'MofGen! by Chris Wilmer'
_symmetry_space_group_name_H-M	'P1'
_symmetry_Int_Tables_number	1
_symmetry_cell_setting	triclinic
loop_
_symmetry_equiv_pos_as_xyz
  x,y,z
_cell_length_a	18.266242
_cell_length_b	15.995350
_cell_length_c	15.995292
_cell_angle_alpha	96.519505
_cell_angle_beta	90.003154
_cell_angle_gamma	89.994611
loop_
_atom_site_label
_atom_site_type_symbol
_atom_site_fract_x
_atom_site_fract_y
_atom_site_fract_z
O1	O	0.060814	-1.110968	0.107931
O2	O	0.560814	-0.610968	0.607931
O3	O	0.060828	-0.867190	0.121259
O4	O	0.560828	-0.367190	0.621259
O5	O	0.060822	-0.995769	-0.007296
O6	O	0.560822	-0.495769	0.492704
O7	O	0.060820	-0.982390	0.236486
O8	O	0.560820	-0.482390	0.736486
O9	O	-0.060940	-0.995747	-0.007303
O10	O	0.439060	-0.495747	0.492697
O11	O	-0.060934	-0.867169	0.121252
O12	O	0.439066	-0.367169	0.621252
O13	O	-0.060948	-1.110947	0.107924
O14	O	0.439052	-0.610947	0.607924
Zn15	Zn	-0.080273	-0.989054	0.114587
Zn16	Zn	0.419727	-0.489054	0.614587
Zn17	Zn	0.080153	-0.989083	0.114596
Zn18	Zn	0.580153	-0.489083	0.614596
O19	O	-0.060942	-0.982368	0.236479
O20	O	0.439058	-0.482368	0.736479
C21	C	-0.000051	-0.835985	0.120704
C22	C	0.499949	-0.335985	0.620704
C23	C	-0.000045	-0.743035	0.119053
C24	C	0.499955	-0.243035	0.619053
N25	N	-0.189760	-0.989041	0.114581
N26	N	0.310240	-0.489041	0.614581
C27	C	-0.000058	-0.995213	-0.038495
C28	C	0.499942	-0.495213	0.461505
C29	C	-0.000052	-0.993581	-0.131448
C30	C	0.499948	-0.493581	0.368552
C31	C	-0.228072	-1.045994	0.057684
C32	C	0.271928	-0.545994	0.557684
C33	C	-0.304717	-1.045999	0.057681
C34	C	0.195283	-0.545999	0.557681
C35	C	-0.343047	-0.989059	0.114587
C36	C	0.156953	-0.489059	0.614587
C37	C	-0.304726	-0.932095	0.171488
C38	C	0.195274	-0.432095	0.671488
C39	C	-0.228083	-0.932086	0.171484
C40	C	0.271917	-0.432086	0.671484
N41	N	-0.463380	-0.978386	0.188678
N42	N	0.036620	-0.478386	0.688678
N43	N	-0.536188	-0.978400	0.188678
N44	N	-0.036188	-0.478400	0.688678
C45	C	-0.573970	-0.989083	0.114599
C46	C	-0.073970	-0.489083	0.614599
N47	N	-0.536193	-0.999767	0.040518
N48	N	-0.036193	-0.499767	0.540518
N49	N	-0.463378	-0.999758	0.040518
N50	N	0.036622	-0.499758	0.540518
C51	C	-0.426154	-0.989063	0.114597
C52	C	0.073846	-0.489063	0.614597
C53	C	-0.695389	-1.046045	0.057694
C54	C	-0.195389	-0.546045	0.557694
C55	C	-0.772035	-1.046044	0.057689
C56	C	-0.272035	-0.546044	0.557689
C57	C	-0.772043	-0.932145	0.171504
C58	C	-0.272043	-0.432145	0.671504
C59	C	-0.695398	-0.932141	0.171502
C60	C	-0.195398	-0.432141	0.671502
C61	C	-0.657075	-0.989096	0.114598
C62	C	-0.157075	-0.489096	0.614598
N63	N	0.189640	-0.989103	0.114596
N64	N	0.689640	-0.489103	0.614596
C65	C	-0.000068	-1.142152	0.108479
C66	C	0.499932	-0.642152	0.608479
C67	C	-0.000069	-1.235102	0.110130
C68	C	0.499931	-0.735102	0.610130
C69	C	-0.000060	-0.405288	0.113120
C70	C	0.499940	0.094712	0.613120
C71	C	-0.000332	-0.452742	0.021566
C72	C	0.499668	0.047258	0.521566
C73	C	-0.000052	-0.549431	0.023218
C74	C	0.499948	-0.049431	0.523218
C75	C	-0.000053	-0.572848	0.116063
C76	C	0.499947	-0.072848	0.616063
C77	C	0.069476	-0.531764	0.161224
C78	C	0.569476	-0.031764	0.661224
C79	C	0.069529	-0.435129	0.158924
C80	C	0.569529	0.064871	0.658924
C81	C	-0.068938	-0.434765	0.160808
C82	C	0.431062	0.065235	0.660808
C83	C	-0.069851	-0.531710	0.160787
C84	C	0.430149	-0.031710	0.660787
C85	C	-0.000047	-0.667546	0.117731
C86	C	0.499953	-0.167546	0.617731
C87	C	-0.000062	-0.310591	0.111455
C88	C	0.499938	0.189409	0.611455
C89	C	-0.000058	-0.987580	-0.469186
C90	C	0.499942	-0.487580	0.030814
C91	C	-0.000336	-1.080384	-0.445874
C92	C	0.499664	-0.580384	0.054126
C93	C	-0.000059	-1.082148	-0.349199
C94	C	0.499941	-0.582148	0.150801
C95	C	-0.000056	-0.990557	-0.301631
C96	C	0.499944	-0.490557	0.198369
C97	C	0.069477	-0.944172	-0.330728
C98	C	0.569477	-0.444172	0.169272
C99	C	0.069533	-0.943055	-0.427518
C100	C	0.569533	-0.443055	0.072482
C101	C	-0.068933	-0.941135	-0.427383
C102	C	0.431067	-0.441135	0.072617
C103	C	-0.069850	-0.944574	-0.330890
C104	C	0.430150	-0.444574	0.169110
C105	C	-0.000052	-0.992235	-0.206934
C106	C	0.499948	-0.492235	0.293066
C107	C	-0.000057	-0.985899	-0.563882
C108	C	0.499943	-0.485899	-0.063882
C109	C	-0.000061	-0.982924	0.267678
C110	C	0.499939	-0.482924	0.767678
C111	C	-0.000062	-0.984556	0.360631
C112	C	0.499938	-0.484556	0.860631
H113	H	-0.196872	-1.092367	0.011348
H114	H	0.303128	-0.592367	0.511348
Br115	Br	0.082311	-0.420107	-0.039155
Br116	Br	0.582311	0.079893	0.460845
H117	H	-0.664185	-1.092418	0.011357
H118	H	-0.164185	-0.592418	0.511357
Br119	Br	0.073804	-0.555308	0.274906
Br120	Br	0.573804	-0.055308	0.774906
Br121	Br	-0.155584	-0.577118	0.105744
Br122	Br	0.344416	-0.077118	0.605744
H123	H	0.121221	-0.560154	0.129863
H124	H	0.621221	-0.060154	0.629863
Br125	Br	0.155722	-0.997888	-0.297294
Br126	Br	0.655722	-0.497888	0.202706
Br127	Br	-0.156778	-0.400538	0.110914
Br128	Br	0.343222	0.099462	0.610914
H129	H	-0.803229	-1.092420	0.011353
H130	H	-0.303229	-0.592420	0.511353
Br131	Br	0.083311	-0.595863	-0.036074
Br132	Br	0.583311	-0.095863	0.463926
Br133	Br	-0.643397	-0.854847	0.248724
Br134	Br	-0.143397	-0.354847	0.748724
H135	H	-0.074047	-0.877721	-0.297921
H136	H	0.425953	-0.377721	0.202079
Br137	Br	-0.076854	-0.557287	0.273638
Br138	Br	0.423146	-0.057287	0.773638
H139	H	-0.069409	-0.402989	0.228311
H140	H	0.430591	0.097011	0.728311
Br141	Br	-0.824056	-0.854860	0.248726
Br142	Br	-0.324056	-0.354860	0.748726
Br143	Br	-0.083124	-0.596817	-0.035950
Br144	Br	0.416876	-0.096817	0.464050
Br145	Br	-0.083147	-1.142673	-0.317485
Br146	Br	0.416853	-0.642673	0.182515
Br147	Br	-0.083440	-0.421865	-0.039438
Br148	Br	0.416560	0.078135	0.460562
H149	H	0.121504	-0.416837	0.125996
H150	H	0.621504	0.083163	0.625996
H151	H	0.072683	-0.402867	0.226142
H152	H	0.572683	0.097133	0.726142
H153	H	-0.050201	-1.116146	-0.473874
H154	H	0.449799	-0.616146	0.026126
H155	H	-0.335939	-0.885733	0.217821
H156	H	0.164061	-0.385733	0.717821
H157	H	0.049245	-1.115965	-0.474889
H158	H	0.549245	-0.615965	0.025111
Br159	Br	0.083157	-1.143083	-0.318510
Br160	Br	0.583157	-0.643083	0.181490
Br161	Br	-0.356721	-1.123298	-0.019543
Br162	Br	0.143279	-0.623298	0.480457
H163	H	-0.196889	-0.885707	0.217817
H164	H	0.303111	-0.385707	0.717817
Br165	Br	0.156157	-0.996632	-0.472215
Br166	Br	0.656157	-0.496632	0.027785
H167	H	0.072685	-0.875011	-0.442068
H168	H	0.572685	-0.375011	0.057932
Br169	Br	0.073797	-0.831837	-0.277612
Br170	Br	0.573797	-0.331837	0.222388
H171	H	-0.121639	-0.970352	-0.455474
H172	H	0.378361	-0.470352	0.044526
H173	H	-0.121289	-0.978349	-0.312328
H174	H	0.378711	-0.478349	0.187672
Br175	Br	-0.069712	-0.827279	-0.450700
Br176	Br	0.430288	-0.327279	0.049300
