data_functionalizedCrystal
_audit_creation_method	'MofGen! by Chris Wilmer'
_symmetry_space_group_name_H-M	'P1'
_symmetry_Int_Tables_number	1
_symmetry_cell_setting	triclinic
loop_
_symmetry_equiv_pos_as_xyz
  x,y,z
_cell_length_a	21.295417
_cell_length_b	21.295420
_cell_length_c	21.295411
_cell_angle_alpha	89.975408
_cell_angle_beta	89.978356
_cell_angle_gamma	90.026289
loop_
_atom_site_label
_atom_site_type_symbol
_atom_site_fract_x
_atom_site_fract_y
_atom_site_fract_z
Zn1	Zn	-0.250752	0.962355	-0.355912
Zn2	Zn	-0.356004	0.962258	-0.250637
Zn3	Zn	-0.250744	0.857079	-0.250657
Zn4	Zn	-0.355979	0.857048	-0.355869
O5	O	-0.303370	0.909685	-0.303269
O6	O	-0.264727	1.050432	-0.341957
O7	O	-0.342048	0.948277	-0.162550
O8	O	-0.162656	0.871097	-0.264645
O9	O	-0.342055	1.050360	-0.264612
O10	O	-0.162661	0.948444	-0.341976
O11	O	-0.264714	0.871003	-0.162565
O12	O	-0.264691	0.768985	-0.264604
O13	O	-0.342014	0.871045	-0.443964
O14	O	-0.342006	0.768963	-0.341903
O15	O	-0.264703	0.948414	-0.443996
O16	O	-0.444090	0.948248	-0.264570
O17	O	-0.444072	0.870951	-0.341884
C18	C	-0.303346	0.746133	-0.303251
C19	C	-0.303351	0.676165	-0.303258
C20	C	-0.466921	0.909602	-0.303234
C21	C	-0.536890	0.909625	-0.303240
C22	C	-0.263200	0.176744	-0.343617
C23	C	-0.263195	0.242486	-0.343617
C24	C	-0.303389	0.275326	-0.303283
C25	C	-0.343602	0.242417	-0.262958
C26	C	-0.343610	0.176676	-0.262964
N27	N	-0.308125	0.378516	-0.248164
N28	N	-0.308113	0.440967	-0.248160
C29	C	-0.303368	0.473400	-0.303265
N30	N	-0.298623	0.441023	-0.358375
N31	N	-0.298631	0.378566	-0.358377
C32	C	-0.303385	0.346611	-0.303273
C33	C	-0.263156	0.577587	-0.343591
C34	C	-0.263156	0.643330	-0.343592
C35	C	-0.343559	0.643260	-0.262927
C36	C	-0.343562	0.577517	-0.262932
C37	C	-0.303358	0.544685	-0.303263
C38	C	-0.569745	0.949909	-0.263024
C39	C	-0.635487	0.949939	-0.263038
C40	C	-0.668372	0.909672	-0.303262
C41	C	-0.635509	0.869385	-0.343485
C42	C	-0.569768	0.869361	-0.343474
N43	N	-0.771635	0.854605	-0.308055
N44	N	-0.834086	0.854630	-0.308061
C45	C	-0.866447	0.909743	-0.303298
N46	N	-0.833997	0.964832	-0.298515
N47	N	-0.771540	0.964807	-0.298505
C48	C	-0.739657	0.909694	-0.303278
C49	C	-0.970587	0.950063	-0.263095
C50	C	-1.036331	0.950093	-0.263114
C51	C	-1.036352	0.869534	-0.343557
C52	C	-0.970609	0.869509	-0.343542
C53	C	-0.937731	0.909773	-0.303308
C54	C	-0.139180	0.909785	-0.303318
C55	C	-0.069211	0.909827	-0.303338
C56	C	-0.303357	0.909737	-0.467459
C57	C	-0.303351	0.909759	-0.537427
C58	C	-0.303394	1.073875	-0.303287
C59	C	-0.303405	1.143843	-0.303295
C60	C	-0.263094	0.950044	-0.570311
C61	C	-0.263066	0.950043	-0.636054
C62	C	-0.303308	0.909764	-0.668910
C63	C	-0.343568	0.869472	-0.636018
C64	C	-0.343589	0.869470	-0.570276
N65	N	-0.358375	0.904908	-0.772125
N66	N	-0.358353	0.904914	-0.834577
C67	C	-0.303244	0.909768	-0.866985
N68	N	-0.248157	0.914629	-0.834582
N69	N	-0.248180	0.914626	-0.772125
C70	C	-0.303288	0.909762	-0.740195
C71	C	-0.262953	0.950054	-0.971154
C72	C	-0.262925	0.950048	-1.036898
C73	C	-0.343432	0.869481	-1.036861
C74	C	-0.343455	0.869483	-0.971118
C75	C	-0.303216	0.909773	-0.938269
C76	C	-0.303338	0.909669	-0.139717
C77	C	-0.303166	0.909769	-0.069749
H78	H	-0.230453	0.269279	-0.376452
H79	H	-0.542977	0.982695	-0.230265
H80	H	-0.230465	0.150016	-0.376460
N81	N	-0.384659	0.275968	-0.221766
N82	N	-0.384646	0.334665	-0.221766
H83	H	-0.413646	0.358361	-0.192675
H84	H	-0.376290	0.669997	-0.230092
N85	N	-0.669060	0.991075	-0.221944
N86	N	-0.705781	0.968945	-0.181822
H87	H	-0.729492	0.997995	-0.152798
N88	N	-1.069904	0.991236	-0.222031
N89	N	-1.128601	0.991253	-0.222046
H90	H	-1.152313	1.020310	-0.193030
H91	H	-0.376330	0.836675	-0.662773
N92	N	-0.384635	0.543916	-0.221738
N93	N	-0.420522	0.573241	-0.185731
H94	H	-0.449534	0.549511	-0.156637
N95	N	-0.669107	0.828262	-0.384572
N96	N	-0.727804	0.828288	-0.384577
H97	H	-0.751533	0.799245	-0.413598
H98	H	-0.376371	0.836663	-0.543503
N99	N	-0.222094	0.676951	-0.384782
N100	N	-0.244294	0.713647	-0.424854
H101	H	-0.215294	0.737395	-0.453945
N102	N	-0.384686	0.143075	-0.221771
N103	N	-0.420575	0.172399	-0.185765
H104	H	-0.449586	0.148668	-0.156671
N105	N	-0.222101	0.544054	-0.384804
N106	N	-0.186219	0.573441	-0.420819
H107	H	-0.157229	0.549761	-0.449932
H108	H	-0.543017	0.836556	-0.376224
H109	H	-0.943817	0.982850	-0.230336
N110	N	-1.069944	0.828410	-0.384645
N111	N	-1.128641	0.828438	-0.384652
H112	H	-1.152370	0.799395	-0.413673
H113	H	-0.943857	0.836703	-0.376287
H114	H	-0.230185	0.982856	-0.944407
N115	N	-0.221990	0.991202	-0.536768
N116	N	-0.186049	1.027169	-0.566142
H117	H	-0.157018	1.056238	-0.542451
H118	H	-0.230281	0.982846	-0.662833
H119	H	-0.230139	0.982852	-1.063671
H120	H	-0.376191	0.836679	-1.063611
N121	N	-0.384582	0.828330	-0.937534
N122	N	-0.420507	0.792367	-0.966874
H123	H	-0.449554	0.763299	-0.943156
