data_functionalizedCrystal
_audit_creation_method	'MofGen! by Chris Wilmer'
_symmetry_space_group_name_H-M	'P1'
_symmetry_Int_Tables_number	1
_symmetry_cell_setting	triclinic
loop_
_symmetry_equiv_pos_as_xyz
  x,y,z
_cell_length_a	8.497366
_cell_length_b	18.215407
_cell_length_c	18.215405
_cell_angle_alpha	90.025333
_cell_angle_beta	90.055800
_cell_angle_gamma	90.034578
loop_
_atom_site_label
_atom_site_type_symbol
_atom_site_fract_x
_atom_site_fract_y
_atom_site_fract_z
Zn1	Zn	-0.891980	-1.125179	0.292800
Zn2	Zn	-0.628156	-1.125056	0.415925
Zn3	Zn	-0.628197	-1.002080	0.292878
Zn4	Zn	-0.891879	-1.002078	0.415830
O5	O	-0.760053	-1.063598	0.354358
O6	O	-0.857008	-1.228147	0.309140
O7	O	-0.407399	-1.108692	0.399675
O8	O	-0.663248	-1.018462	0.189883
O9	O	-0.663178	-1.228056	0.399599
O10	O	-0.857048	-1.108902	0.189826
O11	O	-0.407429	-1.018342	0.309273
O12	O	-0.663151	-0.899095	0.309181
O13	O	-1.112655	-1.018458	0.399437
O14	O	-0.856876	-0.899094	0.399513
O15	O	-1.112729	-1.108900	0.309047
O16	O	-0.663080	-1.108690	0.518897
O17	O	-0.856836	-1.018338	0.518827
C18	C	-0.760008	-0.872392	0.354346
C19	C	-0.760026	-0.790593	0.354358
C20	C	-0.759977	-1.063520	0.545564
C21	C	-0.759997	-1.063554	0.627363
C22	C	-0.171534	-1.063641	0.354291
C23	C	-0.350177	-1.063543	0.354445
C24	C	-0.760099	-1.255551	0.354371
C25	C	-0.760119	-1.337350	0.354377
C26	C	-0.760164	-1.063696	0.162405
C27	C	-0.760211	-1.063738	0.080606
C28	C	-0.860772	-0.602417	0.401468
C29	C	-0.860792	-0.525559	0.401470
C30	C	-0.659368	-0.525531	0.307262
C31	C	-0.659358	-0.602388	0.307256
C32	C	-0.760057	-0.640829	0.354364
C33	C	-0.760088	-0.487113	0.354371
C34	C	-0.760108	-0.403780	0.354373
C35	C	-0.760039	-0.724168	0.354361
C36	C	-0.659294	-1.110711	0.815569
C37	C	-0.659333	-1.110744	0.892428
C38	C	-0.860925	-1.016579	0.892395
C39	C	-0.860894	-1.016551	0.815538
C40	C	-0.760069	-1.063615	0.777127
C41	C	-0.760139	-1.063677	0.930843
C42	C	-0.760181	-1.063712	1.014176
C43	C	-0.760029	-1.063581	0.693788
H44	H	-0.942772	-0.633714	0.439824
Br45	Br	-0.522679	-0.654524	0.243317
Br46	Br	-0.522463	-1.174585	0.763442
H47	H	-0.942806	-0.494287	0.439826
Br48	Br	-0.997684	-0.952637	0.763361
H49	H	-0.577380	-0.494223	0.268910
H50	H	-0.577274	-1.149095	0.923724
Br51	Br	-0.997750	-0.952708	0.944529
