data_functionalizedCrystal
_audit_creation_method	'MofGen! by Chris Wilmer'
_symmetry_space_group_name_H-M	'P1'
_symmetry_Int_Tables_number	1
_symmetry_cell_setting	triclinic
loop_
_symmetry_equiv_pos_as_xyz
  x,y,z
_cell_length_a	12.759395
_cell_length_b	18.050589
_cell_length_c	12.759387
_cell_angle_alpha	89.970215
_cell_angle_beta	90.019431
_cell_angle_gamma	89.965457
loop_
_atom_site_label
_atom_site_type_symbol
_atom_site_fract_x
_atom_site_fract_y
_atom_site_fract_z
Zn1	Zn	1.606123	0.295623	0.593982
Zn2	Zn	1.605952	0.419832	0.418306
Zn3	Zn	1.430421	0.295660	0.418322
Zn4	Zn	1.430352	0.419776	0.593948
O5	O	1.518212	0.357723	0.506140
O6	O	1.753121	0.312108	0.570686
O7	O	1.582625	0.403400	0.271287
O8	O	1.453828	0.191731	0.441645
O9	O	1.752996	0.403364	0.441617
O10	O	1.582916	0.191704	0.570702
O11	O	1.453663	0.312171	0.271299
O12	O	1.283391	0.312116	0.441612
O13	O	1.453711	0.403268	0.740974
O14	O	1.283340	0.403303	0.570644
O15	O	1.582849	0.312053	0.740999
O16	O	1.582558	0.523749	0.441584
O17	O	1.453545	0.523708	0.570628
C18	C	1.245244	0.357708	0.506127
C19	C	1.128468	0.357720	0.506146
C20	C	1.128579	0.262849	0.640763
C21	C	1.073774	0.215422	0.708079
C22	C	0.964052	0.215435	0.708092
C23	C	0.909133	0.262879	0.640779
C24	C	0.963938	0.310305	0.573463
C25	C	1.073662	0.310288	0.573459
C26	C	0.963827	0.405171	0.438842
C27	C	1.073549	0.405163	0.438833
C28	C	0.908908	0.452614	0.371529
C29	C	0.963713	0.500046	0.304216
C30	C	1.073442	0.500031	0.304207
C31	C	1.128354	0.452589	0.371516
C32	C	1.518054	0.550675	0.506123
C33	C	1.518083	0.633221	0.506151
C34	C	1.447963	0.832676	0.576302
C35	C	1.422339	0.882124	0.480434
C36	C	1.518162	0.784351	0.506166
C37	C	1.543814	0.881985	0.602045
C38	C	1.518236	0.930336	0.506188
C39	C	1.492488	0.832712	0.410247
C40	C	1.614008	0.832569	0.531923
C41	C	1.588420	0.881994	0.435989
C42	C	1.518116	0.700253	0.506154
C43	C	1.518282	1.014433	0.506189
C44	C	1.792245	0.357738	0.506153
C45	C	1.909022	0.357745	0.506159
C46	C	1.518291	0.357650	0.780173
C47	C	1.518325	0.357619	0.896950
C48	C	1.518359	1.164017	0.506180
C49	C	1.518319	1.081471	0.506201
C50	C	1.518193	0.357742	0.233172
C51	C	1.518363	0.357564	0.116396
C52	C	1.652806	0.262644	0.896996
C53	C	1.720061	0.215145	0.951880
C54	C	1.720086	0.215118	1.061601
C55	C	1.652847	0.262593	1.116442
C56	C	1.585592	0.310092	1.061558
C57	C	1.585576	0.310116	0.951834
C58	C	1.451108	0.405062	1.061512
C59	C	1.451086	0.405094	0.951790
C60	C	1.383869	0.452537	1.116353
C61	C	1.316618	0.500041	1.061469
C62	C	1.316596	0.500067	0.951741
C63	C	1.383831	0.452593	0.896907
H64	H	0.919430	0.176812	0.762901
C65	C	1.383898	0.452510	1.237043
H66	H	1.433589	0.417428	1.261878
H67	H	1.316121	0.439653	1.261863
H68	H	1.402024	0.500435	1.261847
C69	C	1.723428	0.803137	0.561382
H70	H	1.750327	0.774194	0.505330
H71	H	1.718370	0.773409	0.622625
H72	H	1.769101	0.843655	0.574356
H73	H	1.774803	0.176491	0.907216
C74	C	0.788218	0.452633	0.371539
H75	H	0.763362	0.487676	0.321806
H76	H	0.763418	0.465542	0.439306
H77	H	0.763414	0.404693	0.353491
H78	H	1.774844	0.176436	1.106287
C79	C	0.788443	0.262889	0.640789
H80	H	0.763669	0.227850	0.690522
H81	H	0.763602	0.249991	0.573024
H82	H	0.763599	0.310834	0.658847
C83	C	1.573091	0.911223	0.711567
H84	H	1.523118	0.894327	0.761301
H85	H	1.573538	0.963844	0.710640
H86	H	1.640674	0.893519	0.730337
H87	H	1.388521	0.811020	0.635529
H88	H	0.918990	0.538667	0.249411
C89	C	1.133719	0.552205	0.230162
H90	H	1.085294	0.580463	0.190086
H91	H	1.176525	0.523755	0.184454
H92	H	1.176512	0.584599	0.270276
H93	H	1.217695	0.452569	0.371510
H94	H	1.341321	0.903907	0.458668
H95	H	1.652801	0.262668	0.807655
C96	C	1.463079	0.803600	0.300694
H97	H	1.463193	0.750970	0.301364
H98	H	1.512654	0.820879	0.250838
H99	H	1.395226	0.820980	0.282303
C100	C	1.668656	0.911073	0.355791
H101	H	1.650288	0.894111	0.287751
H102	H	1.736510	0.893355	0.373499
H103	H	1.668649	0.963699	0.356632
C104	C	1.652871	0.262559	1.237132
H105	H	1.702556	0.227473	1.261964
H106	H	1.585091	0.249705	1.261946
H107	H	1.671000	0.310482	1.261945
C108	C	1.242668	0.552257	1.121793
H109	H	1.252317	0.545439	1.194999
H110	H	1.172085	0.541390	1.103802
H111	H	1.257997	0.602165	1.103807
C112	C	1.242633	0.552330	0.891376
H113	H	1.202607	0.580604	0.939755
H114	H	1.196874	0.523940	0.848562
H115	H	1.282801	0.584705	0.848585
H116	H	1.217920	0.262830	0.640754
C117	C	1.134185	0.163241	0.782121
H118	H	1.207381	0.170028	0.772483
H119	H	1.116227	0.113331	0.766878
H120	H	1.116225	0.174183	0.852688
H121	H	1.383824	0.452612	0.807566
