data_functionalizedCrystal
_audit_creation_method	'MofGen! by Chris Wilmer'
_symmetry_space_group_name_H-M	'P1'
_symmetry_Int_Tables_number	1
_symmetry_cell_setting	triclinic
loop_
_symmetry_equiv_pos_as_xyz
  x,y,z
_cell_length_a	16.625546
_cell_length_b	14.908618
_cell_length_c	14.909241
_cell_angle_alpha	96.790851
_cell_angle_beta	86.671627
_cell_angle_gamma	93.283114
loop_
_atom_site_label
_atom_site_type_symbol
_atom_site_fract_x
_atom_site_fract_y
_atom_site_fract_z
Zn1	Zn	-0.363510	-1.413349	-0.591539
Zn2	Zn	-0.505709	-1.404505	-0.440162
Zn3	Zn	-0.363526	-1.253245	-0.431466
Zn4	Zn	-0.490933	-1.261942	-0.582761
O5	O	-0.430920	-1.333260	-0.511482
O6	O	-0.388550	-1.538843	-0.578772
O7	O	-0.493039	-1.377099	-0.312339
O8	O	-0.250693	-1.274544	-0.452735
O9	O	-0.493023	-1.532345	-0.467555
O10	O	-0.250681	-1.392172	-0.570340
O11	O	-0.388577	-1.265968	-0.305950
O12	O	-0.374250	-1.127731	-0.444223
O13	O	-0.467840	-1.289368	-0.710595
O14	O	-0.467855	-1.134121	-0.555378
O15	O	-0.374223	-1.400605	-0.717044
O16	O	-0.616580	-1.385532	-0.459044
O17	O	-0.605724	-1.280792	-0.563810
C18	C	-0.419451	-1.098083	-0.497905
C19	C	-0.414563	-0.997474	-0.492118
C20	C	-0.640408	-1.333172	-0.511439
C21	C	-0.730031	-1.333219	-0.511456
C22	C	-0.503018	-0.815114	-0.596834
C23	C	-0.498427	-0.720583	-0.591400
C24	C	-0.400789	-0.713881	-0.475821
C25	C	-0.405379	-0.808412	-0.481255
C26	C	-0.456496	-0.859025	-0.541763
C27	C	-0.461090	-0.953557	-0.547192
C28	C	-0.363448	-0.946854	-0.431617
C29	C	-0.358858	-0.852323	-0.426183
C30	C	-1.058209	-1.333383	-0.511559
C31	C	-0.966900	-1.333334	-0.511533
C32	C	-0.894123	-1.333300	-0.511507
C33	C	-0.802808	-1.333253	-0.511482
C34	C	-0.220613	-1.333374	-0.511546
C35	C	-0.130993	-1.333423	-0.511574
C36	C	-0.419381	-1.346943	-0.747581
C37	C	-0.414464	-1.352774	-0.848193
C38	C	-0.442427	-0.569355	-0.525106
C39	C	-0.447316	-0.669964	-0.530894
C40	C	-0.502727	-1.247902	-1.030539
C41	C	-0.498110	-1.253378	-1.125072
C42	C	-0.400617	-1.369206	-1.131795
C43	C	-0.405235	-1.363730	-1.037262
C44	C	-0.456290	-1.303075	-0.986637
C45	C	-0.460903	-1.297595	-0.892101
C46	C	-0.363415	-1.413427	-0.898826
C47	C	-0.358798	-1.418903	-0.993359
C48	C	-0.442357	-1.319682	-0.276304
C49	C	-0.447056	-1.314026	-0.175703
H50	H	-0.502714	-0.994765	-0.596459
H51	H	-0.325569	-0.982616	-0.386772
O52	O	-0.303749	-0.797732	-0.360898
H53	H	-0.308383	-0.724620	-0.366358
O54	O	-0.557778	-1.182474	-0.975926
H55	H	-0.589292	-1.145025	-1.022337
H56	H	-0.535924	-1.208451	-1.160813
H57	H	-0.544644	-0.856323	-0.646098
O58	O	-0.515954	-1.232165	-0.837492
H59	H	-0.547469	-1.194721	-0.883906
H60	H	-0.359167	-0.672657	-0.426564
O61	O	-0.345524	-1.434592	-1.186401
H62	H	-0.350105	-1.429113	-1.259510
O63	O	-0.303708	-1.484296	-1.047961
H64	H	-0.308287	-1.478824	-1.121071
O65	O	-0.313327	-1.472946	-0.851478
H66	H	-0.325117	-1.458954	-0.777237
H67	H	-0.536308	-0.684835	-0.636247
