data_functionalizedCrystal
_audit_creation_method	'MofGen! by Chris Wilmer'
_symmetry_space_group_name_H-M	'P1'
_symmetry_Int_Tables_number	1
_symmetry_cell_setting	triclinic
loop_
_symmetry_equiv_pos_as_xyz
  x,y,z
_cell_length_a	17.639617
_cell_length_b	19.121111
_cell_length_c	17.640968
_cell_angle_alpha	98.349227
_cell_angle_beta	70.333968
_cell_angle_gamma	75.915285
loop_
_atom_site_label
_atom_site_type_symbol
_atom_site_fract_x
_atom_site_fract_y
_atom_site_fract_z
Zn1	Zn	1.358111	-0.092904	-0.717546
Zn2	Zn	1.324238	0.054340	-0.585564
Zn3	Zn	1.190014	-0.033379	-0.554186
Zn4	Zn	1.214330	0.054272	-0.695444
O5	O	1.271673	-0.004418	-0.638185
O6	O	1.469964	-0.098254	-0.722420
O7	O	1.282080	0.067644	-0.467050
O8	O	1.216312	-0.139580	-0.571974
O9	O	1.445078	0.009926	-0.625453
O10	O	1.339812	-0.183312	-0.691994
O11	O	1.183466	0.003197	-0.443997
O12	O	1.076893	0.003131	-0.550543
O13	O	1.257756	0.009809	-0.812728
O14	O	1.094759	0.067527	-0.654325
O15	O	1.363391	-0.098320	-0.828966
O16	O	1.305659	0.152636	-0.604022
O17	O	1.224910	0.152586	-0.684750
C18	C	1.055659	0.041781	-0.596631
C19	C	0.963250	0.061558	-0.578874
C20	C	0.724150	-0.154719	-0.773285
C21	C	0.637314	-0.136114	-0.756583
C22	C	0.611395	-0.023583	-0.655456
C23	C	0.698231	-0.042176	-0.672151
C24	C	0.754602	-0.107745	-0.731066
C25	C	0.728684	0.004797	-0.629933
C26	C	0.815512	-0.013797	-0.646624
C27	C	0.871888	-0.079364	-0.705534
C28	C	0.841430	-0.126339	-0.747757
C29	C	0.672311	0.070364	-0.571014
C30	C	0.702763	0.117337	-0.528796
C31	C	0.789594	0.098746	-0.545491
C32	C	0.845969	0.033179	-0.604401
C33	C	0.820051	0.145721	-0.503268
C34	C	0.906879	0.127127	-0.519959
C35	C	0.932798	0.014585	-0.621093
C36	C	1.264274	0.178091	-0.645415
C37	C	1.261191	0.256147	-0.648550
C38	C	1.301834	0.292803	-0.608043
C39	C	1.298940	0.366142	-0.610997
C40	C	1.255397	0.402827	-0.654454
C41	C	1.214753	0.366166	-0.694966
C42	C	1.217652	0.292825	-0.692016
C43	C	1.244541	0.624266	-0.665464
C44	C	1.241642	0.697612	-0.668409
C45	C	1.325831	0.697583	-0.584441
C46	C	1.328723	0.624243	-0.581491
C47	C	1.288082	0.587587	-0.622007
C48	C	1.252435	0.477793	-0.657472
C49	C	1.291049	0.512620	-0.618993
C50	C	1.488532	-0.050796	-0.679902
C51	C	1.580944	-0.070560	-0.697679
C52	C	1.317064	-0.050903	-0.851326
C53	C	1.336407	-0.070713	-0.942154
C54	C	1.279123	0.812351	-0.630958
C55	C	1.282286	0.734267	-0.627902
C56	C	1.125062	0.145622	-1.198610
C57	C	1.143255	0.126995	-1.283960
C58	C	1.253244	0.014410	-1.300856
C59	C	1.235057	0.033025	-1.215506
C60	C	1.170966	0.098633	-1.164389
C61	C	1.280961	-0.013964	-1.181285
C62	C	1.262778	0.004652	-1.095943
C63	C	1.198691	0.070257	-1.044821
C64	C	1.152783	0.117249	-1.079047
C65	C	1.345056	-0.079569	-1.232404
C66	C	1.390960	-0.126558	-1.198183
C67	C	1.372773	-0.107945	-1.112839
C68	C	1.308686	-0.042339	-1.061717
C69	C	1.418681	-0.154936	-1.078613
C70	C	1.400498	-0.136320	-0.993270
C71	C	1.290503	-0.023723	-0.976374
C72	C	1.226509	0.041826	-0.425881
C73	C	1.207335	0.061403	-0.335076
H74	H	0.612524	-0.174373	-0.790963
O75	O	0.778970	-0.218336	-0.830617
C76	C	0.900931	-0.272690	-0.959408
C77	C	0.838894	-0.200590	-0.894559
H78	H	0.949405	-0.258369	-1.011112
H79	H	0.864308	-0.303082	-0.986793
H80	H	0.935042	-0.310006	-0.928289
H81	H	0.804767	-0.163218	-0.925616
H82	H	0.875564	-0.170256	-0.867178
O83	O	1.062802	0.209307	-1.148823
C84	C	0.986080	0.287902	-1.009864
C85	C	1.056593	0.215752	-1.066148
H86	H	0.981049	0.293144	-0.943012
H87	H	0.923085	0.286256	-1.013197
H88	H	1.001947	0.337750	-1.031733
H89	H	1.040807	0.165866	-1.044318
H90	H	1.119567	0.217463	-1.062809
H91	H	0.601607	0.085489	-0.557408
H92	H	0.942588	-0.094504	-0.719120
H93	H	1.206197	0.727473	-0.703813
O94	O	1.338375	0.401876	-0.571712
C95	C	1.323118	0.506418	-0.467100
C96	C	1.278297	0.466026	-0.511455
H97	H	1.274563	0.558283	-0.418361
H98	H	1.373135	0.523215	-0.514480
H99	H	1.354839	0.467622	-0.435584
H100	H	1.246527	0.504781	-0.542971
H101	H	1.228326	0.449217	-0.464039
O102	O	0.896251	-0.189957	-0.805089
C103	C	1.018212	-0.244310	-0.933881
C104	C	0.956175	-0.172211	-0.869032
H105	H	1.066686	-0.229989	-0.985585
H106	H	0.981589	-0.274703	-0.961266
H107	H	1.052323	-0.281626	-0.902762
H108	H	0.922047	-0.134839	-0.900089
H109	H	0.992844	-0.141877	-0.841650
H110	H	1.184557	0.262981	-0.725002
H111	H	0.978699	-0.038806	-0.669070
O112	O	1.228151	0.039938	-0.926664
C113	C	1.095012	0.094429	-0.809075
C114	C	1.165549	0.022277	-0.865312
H115	H	1.044389	0.080177	-0.759449
H116	H	1.065262	0.124818	-0.848154
H117	H	1.123202	0.131718	-0.777956
H118	H	1.137426	-0.015069	-0.896444
H119	H	1.195290	-0.008054	-0.826193
O120	O	1.453106	-0.190344	-1.247852
C121	C	1.488680	-0.308575	-1.342650
C122	C	1.418216	-0.236379	-1.286419
H123	H	1.460501	-0.345808	-1.373860
H124	H	1.518360	-0.339020	-1.303562
H125	H	1.539365	-0.294318	-1.392205
H126	H	1.367479	-0.250571	-1.236855
H127	H	1.388604	-0.205954	-1.325562
O128	O	0.556523	0.040097	-0.598281
C129	C	0.411267	0.118598	-0.527709
C130	C	0.473315	0.046465	-0.592491
H131	H	0.343978	0.123762	-0.522994
H132	H	0.429031	0.168520	-0.547476
H133	H	0.414856	0.116886	-0.464647
H134	H	0.469759	0.048104	-0.655575
H135	H	0.455532	-0.003426	-0.572653
H136	H	0.656855	0.170722	-0.480825
H137	H	1.183891	0.085415	-0.975331
O138	O	1.333480	0.476977	-0.576889
C139	C	1.467384	0.432852	-0.563591
C140	C	1.419445	0.473221	-0.611361
H141	H	1.536892	0.429816	-0.591431
H142	H	1.462545	0.374114	-0.568460
H143	H	1.438183	0.464791	-0.495467
H144	H	1.448612	0.441344	-0.679503
H145	H	1.424280	0.531962	-0.606423
O146	O	1.204972	0.588789	-0.704821
C147	C	1.121179	0.596558	-0.788432
C148	C	1.165946	0.636830	-0.743887
H149	H	1.089630	0.635376	-0.820043
H150	H	1.071048	0.579777	-0.741167
H151	H	1.169777	0.544679	-0.837116
H152	H	1.117411	0.688735	-0.695206
H153	H	1.216092	0.653555	-0.791201
H154	H	1.105870	0.165265	-1.311818
O155	O	1.480888	-0.218650	-1.128385
C156	C	1.557693	-0.297198	-1.267360
C157	C	1.487207	-0.225029	-1.211087
H158	H	1.562837	-0.302371	-1.334239
H159	H	1.541837	-0.347092	-1.245602
H160	H	1.620634	-0.295531	-1.263901
H161	H	1.424239	-0.226623	-1.214519
H162	H	1.503136	-0.175166	-1.232862
H163	H	0.774140	0.199104	-0.455294
H164	H	1.216981	0.507670	-0.692853
O165	O	1.090622	0.181008	-1.029310
C166	C	1.055085	0.299267	-0.934577
C167	C	1.125551	0.227092	-0.990862
H168	H	1.083302	0.336552	-0.903490
H169	H	1.004419	0.285070	-0.884934
H170	H	1.025371	0.329634	-0.973691
H171	H	1.155332	0.196689	-0.951817
H172	H	1.176162	0.241338	-1.040508
H173	H	0.931673	0.165378	-0.485581
O174	O	1.370961	0.588721	-0.539165
C175	C	1.382704	0.587932	-0.407075
C176	C	1.334810	0.628242	-0.454914
H177	H	1.353484	0.619860	-0.338946
H178	H	1.452231	0.584848	-0.434890
H179	H	1.377821	0.529208	-0.411967
H180	H	1.339625	0.686985	-0.450040
H181	H	1.265304	0.631267	-0.427086
H182	H	1.337287	0.262940	-0.572652
H183	H	1.358920	0.727436	-0.551457
H184	H	1.305429	-0.039006	-1.342487
H185	H	1.179303	0.396039	-0.730353
H186	H	1.437877	-0.174584	-0.965407
H187	H	1.359860	-0.094722	-1.301895
