data_functionalizedCrystal
_audit_creation_method	'MofGen! by Chris Wilmer'
_symmetry_space_group_name_H-M	'P1'
_symmetry_Int_Tables_number	1
_symmetry_cell_setting	triclinic
loop_
_symmetry_equiv_pos_as_xyz
  x,y,z
_cell_length_a	16.109301
_cell_length_b	13.101050
_cell_length_c	16.109301
_cell_angle_alpha	86.639520
_cell_angle_beta	96.538519
_cell_angle_gamma	86.645909
loop_
_atom_site_label
_atom_site_type_symbol
_atom_site_fract_x
_atom_site_fract_y
_atom_site_fract_z
O1	O	1.107704	-0.085153	-0.102280
O2	O	1.607704	0.414847	0.397720
O3	O	0.865643	-0.085169	-0.115578
O4	O	1.365643	0.414831	0.384422
O5	O	0.993322	-0.085150	0.012101
O6	O	1.493322	0.414850	0.512101
O7	O	0.980024	-0.085172	-0.229959
O8	O	1.480024	0.414828	0.270041
O9	O	0.984161	0.085278	0.002924
O10	O	1.484161	0.585278	0.502924
O11	O	0.856481	0.085259	-0.124756
O12	O	1.356481	0.585259	0.375244
O13	O	1.098542	0.085276	-0.111457
O14	O	1.598542	0.585276	0.388543
Zn15	Zn	0.976057	0.112327	-0.119564
Zn16	Zn	1.476057	0.612327	0.380436
Zn17	Zn	0.988128	-0.112220	-0.107472
Zn18	Zn	1.488128	0.387780	0.392528
O19	O	0.970863	0.085257	-0.239137
O20	O	1.470863	0.585257	0.260863
C21	C	0.830087	0.000043	-0.119628
C22	C	1.330087	0.500043	0.380372
C23	C	0.737792	0.000037	-0.118013
C24	C	1.237792	0.500037	0.381987
C25	C	0.515520	0.000042	-0.190021
C26	C	1.015520	0.500042	0.309979
C27	C	0.428799	0.000049	-0.188497
C28	C	0.928799	0.500049	0.311503
C29	C	0.448673	0.000058	-0.037009
C30	C	0.948673	0.500058	0.462991
C31	C	0.535391	0.000059	-0.038534
C32	C	1.035391	0.500059	0.461466
C33	C	0.568812	0.000046	-0.115042
C34	C	1.068812	0.500046	0.384958
C35	C	0.395373	0.000052	-0.111993
C36	C	0.895373	0.500052	0.388007
C37	C	0.301347	0.000059	-0.110340
C38	C	0.801347	0.500059	0.389660
C39	C	0.662845	0.000040	-0.116695
C40	C	1.162845	0.500040	0.383305
N41	N	0.967826	0.265574	-0.127815
N42	N	1.467826	0.765574	0.372185
C43	C	0.956626	0.474615	-0.139050
C44	C	1.456626	0.974615	0.360950
C45	C	1.007560	0.525498	-0.087990
C46	C	1.507560	1.025498	0.412010
C47	C	1.001328	0.641816	-0.094241
C48	C	1.501328	1.141816	0.405759
C49	C	0.962856	0.358287	-0.132800
C50	C	1.462856	0.858287	0.367200
C51	C	1.134098	0.000061	-0.107407
C52	C	1.634098	0.500061	0.392593
C53	C	1.226393	0.000061	-0.109022
C54	C	1.726393	0.500061	0.390978
C55	C	0.988203	0.000065	0.038488
C56	C	1.488203	0.500065	0.538488
C57	C	0.986588	0.000066	0.130783
C58	C	1.486588	0.500066	0.630783
N59	N	0.996363	0.734533	-0.099222
N60	N	1.496363	1.234533	0.400778
C61	C	0.975982	0.000040	-0.265523
C62	C	1.475982	0.500040	0.234477
C63	C	0.977598	0.000032	-0.357818
C64	C	1.477598	0.500032	0.142182
C65	C	1.058596	0.000055	0.353056
C66	C	1.558596	0.500055	0.853056
C67	C	1.057072	0.000046	0.439777
C68	C	1.557072	0.500046	0.939777
C69	C	0.905584	0.000040	0.419903
C70	C	1.405584	0.500040	0.919903
C71	C	0.907109	0.000041	0.333184
C72	C	1.407109	0.500041	0.833184
C73	C	0.983617	0.000054	0.299763
C74	C	1.483617	0.500054	0.799763
C75	C	0.980569	0.000044	0.473202
C76	C	1.480569	0.500044	0.973202
C77	C	0.978916	0.000035	0.567229
C78	C	1.478916	0.500035	1.067229
C79	C	0.985270	0.000061	0.205730
C80	C	1.485270	0.500061	0.705730
H81	H	0.542727	0.000039	-0.252319
H82	H	1.042727	0.500039	0.247681
H83	H	0.843293	0.000031	0.447125
H84	H	1.343293	0.500031	0.947125
Br85	Br	0.805345	0.000026	0.260852
Br86	Br	1.305345	0.500026	0.760852
Br87	Br	1.158835	0.000042	0.512101
Br88	Br	1.658835	0.500042	1.012101
H89	H	0.421450	0.000075	0.025281
H90	H	0.921450	0.500075	0.525281
H91	H	0.908344	0.518405	-0.187455
H92	H	1.408344	1.018405	0.312545
H93	H	1.120894	0.000063	0.325848
H94	H	1.620894	0.500063	0.825848
H95	H	0.578785	0.000065	0.022527
H96	H	1.078785	0.500065	0.522527
Br97	Br	0.356475	0.000049	-0.290259
Br98	Br	0.856475	0.500049	0.209741
Br99	Br	1.088392	0.452511	-0.007658
Br100	Br	1.588392	0.952511	0.492342
