data_functionalizedCrystal
_audit_creation_method	'MofGen! by Chris Wilmer'
_symmetry_space_group_name_H-M	'P1'
_symmetry_Int_Tables_number	1
_symmetry_cell_setting	triclinic
loop_
_symmetry_equiv_pos_as_xyz
  x,y,z
_cell_length_a	11.169417
_cell_length_b	12.759387
_cell_length_c	11.169416
_cell_angle_alpha	90.028011
_cell_angle_beta	89.988411
_cell_angle_gamma	89.980762
loop_
_atom_site_label
_atom_site_type_symbol
_atom_site_fract_x
_atom_site_fract_y
_atom_site_fract_z
Zn1	Zn	1.834959	-0.593990	0.477704
Zn2	Zn	1.834849	-0.418319	0.678434
Zn3	Zn	1.634246	-0.418331	0.477768
Zn4	Zn	1.634252	-0.593962	0.678348
O5	O	1.734577	-0.506150	0.578064
O6	O	2.002894	-0.570694	0.504340
O7	O	1.808190	-0.271299	0.651879
O8	O	1.660914	-0.441649	0.309810
O9	O	2.002814	-0.441629	0.651816
O10	O	1.808377	-0.570705	0.309763
O11	O	1.660808	-0.271308	0.504450
O12	O	1.466297	-0.441622	0.504366
O13	O	1.660925	-0.740987	0.651669
O14	O	1.466302	-0.570657	0.651731
O15	O	1.808384	-0.741007	0.504257
O16	O	1.808197	-0.441602	0.846373
O17	O	1.660819	-0.570646	0.846309
C18	C	1.422752	-0.506138	0.578047
C19	C	1.289352	-0.506158	0.578069
C20	C	1.734667	-0.780184	0.577946
C21	C	1.734706	-0.896961	0.577896
C22	C	1.888265	-0.897002	0.424405
C23	C	1.965061	-0.951883	0.347642
C24	C	1.965090	-1.061605	0.347599
C25	C	1.888312	-1.116448	0.424324
C26	C	1.811516	-1.061566	0.501087
C27	C	1.811498	-0.951842	0.501125
C28	C	1.657953	-1.061525	0.654569
C29	C	1.657928	-0.951803	0.654621
C30	C	1.581175	-1.116368	0.731295
C31	C	1.504384	-1.061486	0.808066
C32	C	1.504359	-0.951758	0.808107
C33	C	1.581132	-0.896922	0.731384
C34	C	2.047619	-0.506163	0.578081
C35	C	2.181019	-0.506168	0.578088
C36	C	1.734529	-0.506142	0.889888
C37	C	1.734619	-0.506174	1.023288
C38	C	1.734555	-0.233183	0.578094
C39	C	1.734749	-0.116407	0.577806
C40	C	1.734657	-0.506181	0.265021
C41	C	1.734691	-0.506195	0.131621
H42	H	2.027570	-0.907218	0.285172
H43	H	1.888333	-1.205789	0.424271
H44	H	1.581200	-1.205709	0.731249
H45	H	2.027617	-1.106289	0.285084
C46	C	1.419935	-1.121812	0.892454
C47	C	1.419957	-1.242503	0.892399
C48	C	1.335509	-1.302833	0.976791
C49	C	1.251038	-1.242473	1.061237
C50	C	1.251014	-1.121776	1.061295
C51	C	1.335462	-1.061446	0.976903
H52	H	1.482490	-1.287190	0.829884
H53	H	1.335528	-1.392181	0.976747
H54	H	1.188525	-1.287134	1.123708
H55	H	1.188481	-1.077089	1.123810
H56	H	1.335443	-0.972098	0.976947
H57	H	1.888260	-0.807661	0.424445
C58	C	1.419881	-0.891390	0.892550
C59	C	1.283450	-0.906462	0.882727
C60	C	1.198972	-0.846098	0.967171
C61	C	1.250924	-0.770663	1.061438
C62	C	1.387362	-0.755588	1.071265
C63	C	1.471841	-0.815952	0.986821
H64	H	1.244986	-0.962307	0.812941
H65	H	1.097971	-0.857258	0.959896
H66	H	1.188388	-0.725978	1.123948
H67	H	1.425827	-0.699743	1.141050
H68	H	1.572841	-0.804792	0.994095
H69	H	1.581124	-0.807581	0.731416
