data_functionalizedCrystal
_audit_creation_method	'MofGen! by Chris Wilmer'
_symmetry_space_group_name_H-M	'P1'
_symmetry_Int_Tables_number	1
_symmetry_cell_setting	triclinic
loop_
_symmetry_equiv_pos_as_xyz
  x,y,z
_cell_length_a	19.121063
_cell_length_b	19.121102
_cell_length_c	19.120904
_cell_angle_alpha	89.911827
_cell_angle_beta	94.741613
_cell_angle_gamma	89.873098
loop_
_atom_site_label
_atom_site_type_symbol
_atom_site_fract_x
_atom_site_fract_y
_atom_site_fract_z
Zn1	Zn	-0.343506	-1.039579	-0.456040
Zn2	Zn	-0.010172	-0.706246	-0.122706
Zn3	Zn	0.323161	-0.372913	0.210627
Zn4	Zn	-0.456149	-1.039493	-0.343386
Zn5	Zn	-0.122815	-0.706159	-0.010053
Zn6	Zn	0.210518	-0.372826	0.323280
Zn7	Zn	-0.333518	-0.927792	-0.333417
Zn8	Zn	-0.000184	-0.594459	-0.000084
Zn9	Zn	0.333149	-0.261125	0.333250
Zn10	Zn	-0.455677	-0.917325	-0.455570
Zn11	Zn	-0.122343	-0.583992	-0.122236
Zn12	Zn	0.210990	-0.250658	0.211097
O13	O	-0.397212	-0.981047	-0.397103
O14	O	-0.063879	-0.647714	-0.063770
O15	O	0.269454	-0.314381	0.269564
O16	O	-0.362826	-1.137479	-0.445465
O17	O	-0.029492	-0.804145	-0.112131
O18	O	0.303841	-0.470812	0.221202
O19	O	-0.435899	-1.029020	-0.243797
O20	O	-0.102566	-0.695686	0.089536
O21	O	0.230768	-0.362353	0.422870
O22	O	-0.236577	-0.947038	-0.345708
O23	O	0.096756	-0.613704	-0.012374
O24	O	0.430090	-0.280371	0.320959
O25	O	-0.445584	-1.137415	-0.362699
O26	O	-0.112251	-0.804082	-0.029366
O27	O	0.221083	-0.470748	0.303968
O28	O	-0.243915	-1.029167	-0.435798
O29	O	0.089418	-0.695834	-0.102465
O30	O	0.422752	-0.362501	0.230869
O31	O	-0.345802	-0.946954	-0.236473
O32	O	-0.012469	-0.613620	0.096861
O33	O	0.320864	-0.280287	0.430194
O34	O	-0.345345	-0.828493	-0.345252
O35	O	-0.012011	-0.495159	-0.011919
O36	O	0.321322	-0.161826	0.321415
O37	O	-0.444780	-0.929198	-0.553899
O38	O	-0.111446	-0.595865	-0.220566
O39	O	0.221887	-0.262532	0.112768
O40	O	-0.435094	-0.820803	-0.434997
O41	O	-0.101761	-0.487469	-0.101663
O42	O	0.231572	-0.154136	0.231670
O43	O	-0.362368	-1.019018	-0.554244
O44	O	-0.029035	-0.685684	-0.220911
O45	O	0.304299	-0.352351	0.112423
O46	O	-0.554352	-1.018870	-0.362243
O47	O	-0.221018	-0.685537	-0.028910
O48	O	0.112315	-0.352204	0.304423
O49	O	-0.554005	-0.929114	-0.444664
O50	O	-0.220672	-0.595781	-0.111330
O51	O	0.112662	-0.262448	0.222003
C52	C	-0.389085	-0.799261	-0.388992
C53	C	-0.055752	-0.465927	-0.055659
C54	C	0.277582	-0.132594	0.277675
C55	C	-0.385626	-0.721490	-0.385539
C56	C	-0.052292	-0.388157	-0.052206
C57	C	0.281041	-0.054823	0.281127
C58	C	-0.579659	-0.972865	-0.404501
C59	C	-0.246326	-0.639532	-0.071167
C60	C	0.087008	-0.306199	0.262166
C61	C	-0.657714	-0.969428	-0.407691
C62	C	-0.324381	-0.636095	-0.074358
C63	C	0.008952	-0.302761	0.258975
C64	C	-0.404635	-0.972950	-0.580263
C65	C	-0.071302	-0.639617	-0.246930
C66	C	0.262031	-0.306283	0.086403
C67	C	-0.407799	-0.969500	-0.658315
C68	C	-0.074465	-0.636166	-0.324982
C69	C	0.258868	-0.302833	0.008351
C70	C	-0.694545	-1.014577	-0.366317
C71	C	-0.361212	-0.681244	-0.032984
C72	C	-0.027879	-0.347911	0.300349
C73	C	-0.767887	-1.011348	-0.369323
C74	C	-0.434554	-0.678015	-0.035990
C75	C	-0.101220	-0.344682	0.297344
C76	C	-0.804396	-0.962966	-0.413699
C77	C	-0.471063	-0.629633	-0.080366
C78	C	-0.137729	-0.296300	0.252968
C79	C	-0.767560	-0.917815	-0.455078
C80	C	-0.434227	-0.584482	-0.121744
C81	C	-0.100893	-0.251148	0.211589
C82	C	-0.694220	-0.921048	-0.452076
C83	C	-0.360887	-0.587714	-0.118742
C84	C	-0.027553	-0.254381	0.214591
C85	C	-1.025828	-0.950869	-0.424912
C86	C	-0.692494	-0.617536	-0.091579
C87	C	-0.359161	-0.284202	0.241755
C88	C	-1.099173	-0.947638	-0.427909
C89	C	-0.765839	-0.614305	-0.094576
C90	C	-0.432506	-0.280972	0.238757
C91	C	-1.099494	-1.041173	-0.342155
C92	C	-0.766161	-0.707840	-0.008822
C93	C	-0.432828	-0.374507	0.324512
C94	C	-1.026153	-1.044399	-0.339154
C95	C	-0.692819	-0.711065	-0.005820
C96	C	-0.359486	-0.377732	0.327513
C97	C	-0.989323	-0.999250	-0.380535
C98	C	-0.655990	-0.665917	-0.047202
C99	C	-0.322657	-0.332583	0.286131
C100	C	-0.879363	-0.959663	-0.416770
C101	C	-0.546029	-0.626330	-0.083437
C102	C	-0.212696	-0.292997	0.249896
C103	C	-0.914358	-1.002557	-0.377467
C104	C	-0.581025	-0.669224	-0.044134
C105	C	-0.247692	-0.335890	0.289200
C106	C	-0.214054	-0.989280	-0.389693
C107	C	0.119279	-0.655946	-0.056360
C108	C	0.452612	-0.322613	0.276974
C109	C	-0.136003	-0.992788	-0.386535
C110	C	0.197330	-0.659454	-0.053202
C111	C	0.530663	-0.326121	0.280131
C112	C	-0.405372	-1.163544	-0.405246
C113	C	-0.072038	-0.830211	-0.071913
C114	C	0.261295	-0.496877	0.261420
C115	C	-0.408849	-1.241313	-0.408717
C116	C	-0.075515	-0.907980	-0.075383
C117	C	0.257818	-0.574646	0.257950
C118	C	-0.430793	-0.680968	-0.430575
C119	C	-0.097460	-0.347634	-0.097242
C120	C	0.235873	-0.014301	0.236092
C121	C	-0.427534	-0.607894	-0.427334
C122	C	-0.094201	-0.274561	-0.094000
C123	C	0.239133	0.058772	0.239333
C124	C	-0.379110	-0.575344	-0.379053
C125	C	-0.045776	-0.242011	-0.045720
C126	C	0.287557	0.091323	0.287614
C127	C	-0.333937	-0.615872	-0.334016
C128	C	-0.000604	-0.282538	-0.000682
C129	C	0.332729	0.050795	0.332651
C130	C	-0.337194	-0.688944	-0.337261
C131	C	-0.003860	-0.355611	-0.003927
C132	C	0.329473	-0.022277	0.329406
C133	C	-0.366933	-0.354913	-0.366924
C134	C	-0.033599	-0.021579	-0.033591
C135	C	0.299734	0.311754	0.299743
C136	C	-0.363681	-0.281835	-0.363681
C137	C	-0.030348	0.051498	-0.030348
C138	C	0.302986	0.384831	0.302986
C139	C	-0.457277	-0.273863	-0.457000
C140	C	-0.123944	0.059471	-0.123667
C141	C	0.209389	0.392804	0.209666
C142	C	-0.460532	-0.346937	-0.460238
C143	C	-0.127199	-0.013603	-0.126905
C144	C	0.206134	0.319730	0.206428
C145	C	-0.415357	-0.387458	-0.415203
C146	C	-0.082024	-0.054124	-0.081870
C147	C	0.251309	0.279209	0.251463
C148	C	-0.375778	-0.500651	-0.375738
C149	C	-0.042445	-0.167318	-0.042404
C150	C	0.290888	0.166015	0.290929
C151	C	-0.418686	-0.462149	-0.418523
C152	C	-0.085353	-0.128816	-0.085190
C153	C	0.247981	0.204517	0.248144
C154	C	-0.366379	-1.014640	-0.695165
C155	C	-0.033046	-0.681307	-0.361832
C156	C	0.300287	-0.347974	-0.028499
C157	C	-0.369348	-1.011390	-0.768503
C158	C	-0.036015	-0.678056	-0.435170
C159	C	0.297318	-0.344723	-0.101836
C160	C	-0.413741	-0.963001	-0.804990
C161	C	-0.080408	-0.629668	-0.471656
C162	C	0.252926	-0.296335	-0.138323
C163	C	-0.455162	-0.917856	-0.768135
C164	C	-0.121828	-0.584522	-0.434801
C165	C	0.211505	-0.251189	-0.101468
C166	C	-0.452188	-0.921103	-0.694798
C167	C	-0.118855	-0.587770	-0.361465
C168	C	0.214478	-0.254437	-0.028131
C169	C	-0.424862	-0.950853	-1.026410
C170	C	-0.091528	-0.617519	-0.693076
C171	C	0.241805	-0.284186	-0.359743
C172	C	-0.427833	-0.947610	-1.099752
C173	C	-0.094500	-0.614276	-0.766418
C174	C	0.238833	-0.280943	-0.433085
C175	C	-0.342019	-1.041143	-1.100115
C176	C	-0.008685	-0.707810	-0.766782
C177	C	0.324648	-0.374477	-0.433448
C178	C	-0.339052	-1.044390	-1.026777
C179	C	-0.005719	-0.711056	-0.693444
C180	C	0.327614	-0.377723	-0.360110
C181	C	-0.380470	-0.999242	-0.989928
C182	C	-0.047137	-0.665908	-0.656595
C183	C	0.286196	-0.332575	-0.323261
C184	C	-0.416779	-0.959679	-0.879953
C185	C	-0.083445	-0.626346	-0.546619
C186	C	0.249888	-0.293012	-0.213286
C187	C	-0.377429	-1.002561	-0.914966
C188	C	-0.044095	-0.669228	-0.581633
C189	C	0.289238	-0.335894	-0.248299
C190	C	-0.389769	-0.989156	-0.214655
C191	C	-0.056436	-0.655822	0.118678
C192	C	0.276898	-0.322489	0.452012
C193	C	-0.386414	-0.992751	-0.136602
C194	C	-0.053081	-0.659417	0.196732
C195	C	0.280253	-0.326084	0.530065
H196	H	-0.664824	-1.053972	-0.330178
H197	H	-0.331491	-0.720639	0.003155
H198	H	0.001843	-0.387306	0.336488
Br199	Br	-0.306135	-1.080319	-0.645655
Br200	Br	0.027199	-0.746986	-0.312322
Br201	Br	0.360532	-0.413652	0.021011
H202	H	-0.463985	-0.908204	-1.129457
H203	H	-0.130651	-0.574870	-0.796124
H204	H	0.202682	-0.241537	-0.462790
Br205	Br	-0.484401	-0.506325	-0.484046
Br206	Br	-0.151068	-0.172992	-0.150713
Br207	Br	0.182266	0.160341	0.182621
H208	H	-0.470228	-0.707464	-0.469888
H209	H	-0.136895	-0.374131	-0.136555
H210	H	0.196439	-0.040798	0.196779
H211	H	-0.302905	-1.083794	-0.997075
H212	H	0.030428	-0.750461	-0.663741
H213	H	0.363761	-0.417128	-0.330408
H214	H	-0.797871	-1.048113	-0.335631
H215	H	-0.464538	-0.714780	-0.002298
H216	H	-0.131205	-0.381447	0.331036
Br217	Br	-0.481071	-0.889579	-0.976409
Br218	Br	-0.147738	-0.556245	-0.643076
Br219	Br	0.185596	-0.222912	-0.309743
Br220	Br	-0.526257	-0.391107	-0.525761
Br221	Br	-0.192924	-0.057773	-0.192427
Br222	Br	0.140409	0.275560	0.140906
Br223	Br	-0.518585	-0.218867	-0.518113
Br224	Br	-0.185252	0.114467	-0.184780
Br225	Br	0.148081	0.447800	0.148553
Br226	Br	-0.310059	-0.456470	-0.310218
Br227	Br	0.023274	-0.123137	0.023116
Br228	Br	0.356607	0.210196	0.356449
H229	H	-0.909097	-0.920269	-0.452900
H230	H	-0.575763	-0.586936	-0.119567
H231	H	-0.242430	-0.253602	0.213766
H232	H	-0.341281	-1.041956	-0.885255
H233	H	-0.007948	-0.708622	-0.551922
H234	H	0.325385	-0.375289	-0.218589
H235	H	-0.464315	-0.574904	-0.464006
H236	H	-0.130982	-0.241571	-0.130672
H237	H	0.202352	0.091763	0.202661
H238	H	-0.995847	-0.914106	-0.458605
H239	H	-0.662513	-0.580773	-0.125272
H240	H	-0.329180	-0.247439	0.208062
Br241	Br	-0.297965	-0.237660	-0.298146
Br242	Br	0.035368	0.095673	0.035188
Br243	Br	0.368701	0.429006	0.368521
H244	H	-0.330153	-0.387897	-0.330248
H245	H	0.003180	-0.054563	0.003085
H246	H	0.336513	0.278770	0.336418
H247	H	-0.996429	-1.083795	-0.303019
H248	H	-0.663095	-0.750462	0.030314
H249	H	-0.329762	-0.417129	0.363647
H250	H	-0.884631	-1.041952	-0.341339
H251	H	-0.551297	-0.708619	-0.008005
H252	H	-0.217964	-0.375286	0.325328
Br253	Br	-0.268211	-0.571698	-0.268498
Br254	Br	0.065122	-0.238364	0.064836
Br255	Br	0.398455	0.094969	0.398169
Br256	Br	-0.275889	-0.743940	-0.276142
Br257	Br	0.057445	-0.410606	0.057191
Br258	Br	0.390778	-0.077273	0.390524
H259	H	-0.335622	-1.048150	-0.798503
H260	H	-0.002289	-0.714816	-0.465170
H261	H	0.331045	-0.381483	-0.131836
H262	H	-0.308298	-1.077899	-1.130125
H263	H	0.025036	-0.744566	-0.796792
H264	H	0.358369	-0.411233	-0.463458
H265	H	-0.491305	-0.878454	-0.797848
H266	H	-0.157971	-0.545121	-0.464514
H267	H	0.175362	-0.211788	-0.131181
Br268	Br	-0.508398	-0.859834	-0.644786
Br269	Br	-0.175065	-0.526501	-0.311453
Br270	Br	0.158269	-0.193168	0.021881
H271	H	-1.129489	-1.077932	-0.308466
H272	H	-0.796155	-0.744598	0.024867
H273	H	-0.462822	-0.411265	0.358201
H274	H	-0.664233	-0.884283	-0.485768
H275	H	-0.330900	-0.550950	-0.152434
H276	H	0.002434	-0.217617	0.180899
H277	H	-0.452927	-0.920284	-0.909669
H278	H	-0.119593	-0.586951	-0.576335
H279	H	0.213740	-0.253617	-0.243002
Br280	Br	-1.148720	-0.881961	-0.488126
Br281	Br	-0.815386	-0.548628	-0.154793
Br282	Br	-0.482053	-0.215295	0.178541
H283	H	-0.797292	-0.878424	-0.491213
H284	H	-0.463959	-0.545091	-0.157880
H285	H	-0.130625	-0.211757	0.175454
