data_functionalizedCrystal
_audit_creation_method	'MofGen! by Chris Wilmer'
_symmetry_space_group_name_H-M	'P1'
_symmetry_Int_Tables_number	1
_symmetry_cell_setting	triclinic
loop_
_symmetry_equiv_pos_as_xyz
  x,y,z
_cell_length_a	16.974800
_cell_length_b	23.532407
_cell_length_c	15.455313
_cell_angle_alpha	92.643560
_cell_angle_beta	90.973911
_cell_angle_gamma	83.120189
loop_
_atom_site_label
_atom_site_type_symbol
_atom_site_fract_x
_atom_site_fract_y
_atom_site_fract_z
O1	O	1.048507	0.072597	0.001490
O2	O	1.381840	0.405930	0.334823
O3	O	1.715173	0.739263	0.668157
O4	O	0.819006	0.081294	-0.014629
O5	O	1.152339	0.414627	0.318704
O6	O	1.485673	0.747960	0.652037
O7	O	0.940676	-0.005947	-0.006068
O8	O	1.274009	0.327387	0.327266
O9	O	1.607343	0.660720	0.660599
O10	O	0.926836	0.159837	-0.007072
O11	O	1.260170	0.493170	0.326262
O12	O	1.593503	0.826503	0.659595
O13	O	0.933719	-0.000979	0.137705
O14	O	1.267052	0.332355	0.471038
O15	O	1.600385	0.665688	0.804371
O16	O	0.812049	0.086262	0.129143
O17	O	1.145382	0.419595	0.462477
O18	O	1.478715	0.752928	0.795810
O19	O	1.041549	0.077565	0.145262
O20	O	1.374882	0.410898	0.478596
O21	O	1.708216	0.744231	0.811929
Cu22	Cu	0.926164	0.082367	0.150330
Cu23	Cu	1.259497	0.415700	0.483664
Cu24	Cu	1.592830	0.749034	0.816997
Cu25	Cu	0.934392	0.076491	-0.019697
Cu26	Cu	1.267725	0.409825	0.313636
Cu27	Cu	1.601058	0.743158	0.646969
O28	O	0.919879	0.164805	0.136701
O29	O	1.253212	0.498138	0.470034
O30	O	1.586546	0.831472	0.803368
C31	C	0.786171	0.083356	0.055195
C32	C	1.119505	0.416689	0.388529
C33	C	1.452838	0.750022	0.721862
C34	C	0.698699	0.082092	0.049052
C35	C	1.032033	0.415425	0.382386
C36	C	1.365366	0.748759	0.715719
C37	C	0.653817	0.084205	0.124539
C38	C	0.987151	0.417539	0.457872
C39	C	1.320484	0.750872	0.791206
C40	C	0.571630	0.083009	0.118770
C41	C	0.904963	0.416342	0.452103
C42	C	1.238297	0.749676	0.785436
C43	C	0.534325	0.079703	0.037513
C44	C	0.867659	0.413037	0.370846
C45	C	1.200992	0.746370	0.704179
C46	C	0.579214	0.077588	-0.037979
C47	C	0.912547	0.410922	0.295354
C48	C	1.245881	0.744255	0.628687
C49	C	0.661401	0.078781	-0.032209
C50	C	0.994734	0.412114	0.301124
C51	C	1.328067	0.745447	0.634458
C52	C	0.288931	0.075843	0.011851
C53	C	0.622265	0.409177	0.345185
C54	C	0.955598	0.742510	0.678518
C55	C	0.206738	0.074653	0.006087
C56	C	0.540072	0.407986	0.339420
C57	C	0.873405	0.741319	0.672753
C58	C	0.199160	0.080072	0.162836
C59	C	0.532493	0.413406	0.496170
C60	C	0.865827	0.746739	0.829503
C61	C	0.281348	0.081268	0.168599
C62	C	0.614681	0.414601	0.501933
C63	C	0.948015	0.747934	0.835266
C64	C	0.326230	0.079150	0.093107
C65	C	0.659563	0.412483	0.426441
C66	C	0.992896	0.745816	0.759774
N67	N	0.450317	0.078482	0.031614
N68	N	0.783650	0.411816	0.364947
N69	N	1.116983	0.745149	0.698280
N70	N	0.410238	0.080367	0.099007
N71	N	0.743571	0.413700	0.432341
N72	N	1.076905	0.747033	0.765674
C73	C	0.936845	-0.024681	0.065796
C74	C	1.270178	0.308653	0.399129
C75	C	1.603512	0.641986	0.732463
C76	C	0.935785	-0.087903	0.065728
C77	C	1.269118	0.245430	0.399062
C78	C	1.602451	0.578763	0.732395
C79	C	1.001143	-0.486636	0.070271
C80	C	1.334476	-0.153303	0.403604
C81	C	1.667809	0.180030	0.736938
C82	C	1.000159	-0.546042	0.070195
C83	C	1.333492	-0.212709	0.403529
C84	C	1.666825	0.120624	0.736862
O85	O	1.060746	-0.582443	0.074419
O86	O	1.394079	-0.249110	0.407752
O87	O	1.727412	0.084224	0.741085
N88	N	0.927825	-0.569080	0.065116
N89	N	1.261159	-0.235747	0.398449
N90	N	1.594492	0.097587	0.731782
C91	C	0.856472	-0.532709	0.060102
C92	C	1.189805	-0.199375	0.393436
C93	C	1.523138	0.133958	0.726769
O94	O	0.794856	-0.557759	0.055774
O95	O	1.128190	-0.224426	0.389107
O96	O	1.461523	0.108908	0.722441
C97	C	0.857457	-0.473304	0.060172
C98	C	1.190790	-0.139971	0.393505
C99	C	1.524124	0.193363	0.726839
C100	C	0.929795	-0.450269	0.065261
C101	C	1.263128	-0.116936	0.398594
C102	C	1.596461	0.216397	0.731928
C103	C	1.073475	-0.463601	0.075359
C104	C	1.406808	-0.130268	0.408692
C105	C	1.740141	0.203066	0.742025
C106	C	1.074458	-0.404199	0.075436
C107	C	1.407792	-0.070866	0.408769
C108	C	1.741125	0.262468	0.742103
C109	C	1.003110	-0.367832	0.070426
C110	C	1.336443	-0.034499	0.403759
C111	C	1.669777	0.298835	0.737092
C112	C	0.930778	-0.390867	0.065338
C113	C	1.264112	-0.057534	0.398672
C114	C	1.597445	0.275799	0.732005
C115	C	0.786105	-0.436934	0.055153
C116	C	1.119438	-0.103601	0.388486
C117	C	1.452771	0.229733	0.721819
C118	C	0.787096	-0.377526	0.055222
C119	C	1.120430	-0.044192	0.388555
C120	C	1.453763	0.289141	0.721889
C121	C	0.859434	-0.354491	0.060311
C122	C	1.192767	-0.021158	0.393644
C123	C	1.526101	0.312176	0.726978
C124	C	0.860414	-0.295098	0.060405
C125	C	1.193747	0.038235	0.393739
C126	C	1.527081	0.371568	0.727072
N127	N	0.932747	-0.272061	0.065485
N128	N	1.266081	0.061273	0.398818
N129	N	1.599414	0.394606	0.732152
C130	C	1.004095	-0.308427	0.070495
C131	C	1.337429	0.024906	0.403829
C132	C	1.670762	0.358239	0.737162
C133	C	0.854408	-0.657463	0.059955
C134	C	1.187742	-0.324130	0.393289
C135	C	1.521075	0.009204	0.726622
C136	C	0.853422	-0.716866	0.059892
C137	C	1.186755	-0.383533	0.393225
C138	C	1.520089	-0.050200	0.726558
C139	C	0.997109	-0.730196	0.069983
C140	C	1.330443	-0.396863	0.403316
C141	C	1.663776	-0.063529	0.736650
C142	C	0.998094	-0.670791	0.070053
C143	C	1.331428	-0.337458	0.403386
C144	C	1.664761	-0.004125	0.736719
C145	C	0.926742	-0.634425	0.065035
C146	C	1.260075	-0.301092	0.398368
C147	C	1.593408	0.032241	0.731702
C148	C	1.006156	-0.183678	0.070658
C149	C	1.339489	0.149655	0.403991
C150	C	1.672822	0.482988	0.737325
C151	C	1.007133	-0.124270	0.070738
C152	C	1.340466	0.209063	0.404072
C153	C	1.673800	0.542396	0.737405
C154	C	0.863446	-0.110946	0.060643
C155	C	1.196780	0.222387	0.393976
C156	C	1.530113	0.555721	0.727309
C157	C	0.862468	-0.170349	0.060567
C158	C	1.195802	0.162985	0.393900
C159	C	1.529135	0.496318	0.727233
C160	C	0.933830	-0.206714	0.065572
C161	C	1.267163	0.126619	0.398905
C162	C	1.600496	0.459953	0.732239
O163	O	0.799859	-0.258663	0.056181
O164	O	1.133192	0.074670	0.389514
O165	O	1.466526	0.408004	0.722847
O166	O	1.065701	-0.283369	0.074812
O167	O	1.399035	0.049964	0.408145
O168	O	1.732368	0.383297	0.741478
C169	C	1.074384	0.075502	0.075436
C170	C	1.407717	0.408836	0.408769
C171	C	1.741051	0.742169	0.742103
C172	C	1.161856	0.076766	0.081573
C173	C	1.495189	0.410099	0.414906
C174	C	1.828523	0.743433	0.748240
C175	C	0.923710	0.183539	0.064835
C176	C	1.257044	0.516872	0.398169
C177	C	1.590377	0.850205	0.731502
C178	C	0.924771	0.246761	0.064897
C179	C	1.258104	0.580095	0.398231
C180	C	1.591437	0.913428	0.731564
N181	N	0.920382	0.086499	0.269919
N182	N	1.253715	0.419832	0.603253
N183	N	1.587049	0.753166	0.936586
N184	N	0.940179	0.072355	-0.139286
N185	N	1.273513	0.405688	0.194048
N186	N	1.606846	0.739021	0.527381
C187	C	0.972090	0.049450	0.318952
C188	C	1.305423	0.382783	0.652285
C189	C	1.638756	0.716117	0.985618
C190	C	0.967725	0.052580	0.409452
C191	C	1.301058	0.385914	0.742786
C192	C	1.634391	0.719247	1.076119
C193	C	0.911655	0.092763	0.450919
C194	C	1.244989	0.426096	0.784253
C195	C	1.578322	0.759429	1.117586
C196	C	0.859942	0.129813	0.401880
C197	C	1.193276	0.463147	0.735213
C198	C	1.526609	0.796480	1.068547
C199	C	0.864304	0.126680	0.311381
C200	C	1.197638	0.460013	0.644714
C201	C	1.530971	0.793347	0.978047
C202	C	0.892828	0.106272	0.721176
C203	C	1.226161	0.439605	1.054509
C204	C	1.559495	0.772939	1.387843
C205	C	0.888472	0.109404	0.811682
C206	C	1.221805	0.442737	1.145015
C207	C	1.555138	0.776070	1.478349
C208	C	0.996254	0.032170	0.819248
C209	C	1.329587	0.365503	1.152582
C210	C	1.662920	0.698836	1.485915
C211	C	1.000614	0.029042	0.728747
C212	C	1.333947	0.362375	1.062080
C213	C	1.667280	0.695709	1.395414
C214	C	0.948898	0.066091	0.679715
C215	C	1.282231	0.399424	1.013049
C216	C	1.615565	0.732757	1.346382
N217	N	0.907194	0.095964	0.543426
N218	N	1.240527	0.429298	0.876759
N219	N	1.573861	0.762631	1.210092
N220	N	0.953356	0.062886	0.587211
N221	N	1.286690	0.396219	0.920544
N222	N	1.620023	0.729552	1.253877
H223	H	0.176368	0.071963	-0.060086
H224	H	0.509701	0.405296	0.273248
H225	H	0.843034	0.738629	0.606581
Br226	Br	0.349832	0.072968	-0.090603
Br227	Br	0.683166	0.406301	0.242731
Br228	Br	1.016499	0.739634	0.576064
Br229	Br	0.528592	0.073077	-0.148258
Br230	Br	0.861926	0.406411	0.185076
Br231	Br	1.195259	0.739744	0.518409
Br232	Br	0.764295	-0.201611	0.053680
Br233	Br	1.097628	0.131723	0.387014
Br234	Br	1.430961	0.465056	0.720347
Br235	Br	0.722315	0.075908	-0.134659
Br236	Br	1.055648	0.409241	0.198674
Br237	Br	1.388981	0.742574	0.532008
Br238	Br	0.766622	-0.061580	0.053844
Br239	Br	1.099955	0.271753	0.387177
Br240	Br	1.433288	0.605087	0.720510
H241	H	1.066041	-0.105519	0.074885
H242	H	1.399375	0.227814	0.408218
H243	H	1.732708	0.561148	0.741551
Br244	Br	0.783841	0.184344	0.458152
Br245	Br	1.117174	0.517677	0.791485
Br246	Br	1.450507	0.851010	1.124819
H247	H	0.794517	-0.735615	0.055763
H248	H	1.127850	-0.402282	0.389096
H249	H	1.461183	-0.068948	0.722430
Br250	Br	1.170318	-0.512946	0.082158
Br251	Br	1.503651	-0.179613	0.415492
Br252	Br	1.836985	0.153721	0.748825
H253	H	0.728991	-0.347919	0.051135
H254	H	1.062324	-0.014585	0.384468
H255	H	1.395657	0.318748	0.717801
Br256	Br	0.812374	0.163944	0.867953
Br257	Br	1.145707	0.497278	1.201286
Br258	Br	1.479041	0.830611	1.534619
Br259	Br	0.794121	0.176959	0.244836
Br260	Br	1.127455	0.510293	0.578169
Br261	Br	1.460788	0.843626	0.911502
H262	H	1.064265	-0.213281	0.074730
H263	H	1.397599	0.120053	0.408064
H264	H	1.730932	0.453386	0.741397
Br265	Br	1.172637	-0.372948	0.082318
Br266	Br	1.505970	-0.039615	0.415651
Br267	Br	1.839304	0.293718	0.748985
Br268	Br	0.331968	0.085760	0.278880
Br269	Br	0.665302	0.419094	0.612214
Br270	Br	0.998635	0.752427	0.945547
H271	H	1.056998	-0.652041	0.074196
H272	H	1.390331	-0.318708	0.407529
H273	H	1.723665	0.014626	0.740862
H274	H	1.055205	-0.759817	0.074059
H275	H	1.388538	-0.426484	0.407393
H276	H	1.721872	-0.093150	0.740726
H277	H	1.017750	0.016732	0.285196
H278	H	1.351084	0.350065	0.618529
H279	H	1.684417	0.683398	0.951863
H280	H	0.162609	0.081796	0.224297
H281	H	0.495942	0.415129	0.557631
H282	H	0.829275	0.748462	0.890964
Br283	Br	0.757562	-0.608114	0.053152
Br284	Br	1.090896	-0.274781	0.386486
Br285	Br	1.424229	0.058553	0.719819
Br286	Br	0.687926	-0.468180	0.048243
Br287	Br	1.021260	-0.134846	0.381576
Br288	Br	1.354593	0.198487	0.714909
H289	H	1.009828	0.022412	0.449375
H290	H	1.343162	0.355745	0.782708
H291	H	1.676495	0.689078	1.116041
H292	H	0.535092	0.084720	0.180239
H293	H	0.868425	0.418053	0.513572
H294	H	1.201758	0.751387	0.846906
Br295	Br	0.704435	0.088697	0.234821
Br296	Br	1.037769	0.422031	0.568155
Br297	Br	1.371102	0.755364	0.901488
Br298	Br	1.076711	-0.025489	0.672469
Br299	Br	1.410044	0.307844	1.005803
Br300	Br	1.743378	0.641178	1.339136
H301	H	1.038357	0.002006	0.859178
H302	H	1.371691	0.335339	1.192511
H303	H	1.705024	0.668672	1.525844
Br304	Br	0.822646	0.156552	0.654638
Br305	Br	1.155980	0.489885	0.987971
Br306	Br	1.489313	0.823218	1.321305
