data_functionalizedCrystal
_audit_creation_method	'MofGen! by Chris Wilmer'
_symmetry_space_group_name_H-M	'P1'
_symmetry_Int_Tables_number	1
_symmetry_cell_setting	triclinic
loop_
_symmetry_equiv_pos_as_xyz
  x,y,z
_cell_length_a	12.759401
_cell_length_b	12.827892
_cell_length_c	12.759393
_cell_angle_alpha	89.968940
_cell_angle_beta	89.982620
_cell_angle_gamma	90.015553
loop_
_atom_site_label
_atom_site_type_symbol
_atom_site_fract_x
_atom_site_fract_y
_atom_site_fract_z
Zn1	Zn	1.606239	-0.415965	-0.593987
Zn2	Zn	1.606134	-0.590746	-0.418309
Zn3	Zn	1.430544	-0.416020	-0.418326
Zn4	Zn	1.430527	-0.590665	-0.593950
O5	O	1.518361	-0.503349	-0.506143
O6	O	1.753246	-0.439161	-0.570691
O7	O	1.582805	-0.567625	-0.271290
O8	O	1.453901	-0.269777	-0.441650
O9	O	1.753169	-0.567572	-0.441621
O10	O	1.582983	-0.269736	-0.570707
O11	O	1.453800	-0.439255	-0.271303
O12	O	1.283521	-0.439176	-0.441615
O13	O	1.453872	-0.567434	-0.740976
O14	O	1.283508	-0.567487	-0.570645
O15	O	1.582967	-0.439082	-0.741003
O16	O	1.582789	-0.736971	-0.441586
O17	O	1.453771	-0.736912	-0.570629
C18	C	1.245394	-0.503330	-0.506129
C19	C	1.128617	-0.503347	-0.506147
C20	C	1.073776	-0.570265	-0.573222
C21	C	0.964052	-0.570278	-0.573234
C22	C	0.964020	-0.436452	-0.439086
C23	C	1.073742	-0.436434	-0.439081
C24	C	1.073794	-0.647532	-0.650668
C25	C	0.964070	-0.647545	-0.650680
C26	C	1.518295	-0.774859	-0.506124
C27	C	1.518363	-0.891012	-0.506152
C28	C	1.582281	-0.942792	-0.442368
C29	C	1.582353	-1.062842	-0.442395
C30	C	1.792394	-0.503369	-0.506158
C31	C	1.909171	-0.503378	-0.506164
C32	C	1.518429	-0.503243	-0.780176
C33	C	1.518458	-0.503197	-0.896953
C34	C	1.518456	-0.230779	-0.506184
C35	C	1.518496	-0.114626	-0.506202
C36	C	1.451314	-0.436342	-0.951828
C37	C	1.451346	-0.436311	-1.061552
C38	C	1.585676	-0.569993	-1.061517
C39	C	1.585638	-0.570028	-0.951795
C40	C	1.373762	-0.359159	-0.951849
C41	C	1.373794	-0.359128	-1.061573
C42	C	1.518354	-0.503380	-0.233176
C43	C	1.518528	-0.503131	-0.116399
H44	H	0.919327	-0.381973	-0.384484
Cl45	Cl	0.918059	-0.772457	-0.616785
Cl46	Cl	1.666839	-1.131586	-0.358074
H47	H	1.292373	-0.380832	-0.922071
Cl48	Cl	1.433959	-0.959779	-0.590502
H49	H	1.640298	-0.624483	-0.907120
H50	H	1.296497	-0.388098	-1.095599
Cl51	Cl	1.433995	-1.045889	-0.590514
Cl52	Cl	1.670124	-0.654005	-1.130469
H53	H	0.930071	-0.618656	-0.728031
Cl54	Cl	1.418790	-0.240487	-0.899320
H55	H	1.118389	-0.381936	-0.384469
H56	H	1.395613	-0.278181	-1.091369
Cl57	Cl	1.666698	-0.874025	-0.358030
H58	H	1.103601	-0.625948	-0.732075
H59	H	1.107808	-0.724372	-0.621385
