data_functionalizedCrystal
_audit_creation_method	'MofGen! by Chris Wilmer'
_symmetry_space_group_name_H-M	'P1'
_symmetry_Int_Tables_number	1
_symmetry_cell_setting	triclinic
loop_
_symmetry_equiv_pos_as_xyz
  x,y,z
_cell_length_a	17.019383
_cell_length_b	17.038272
_cell_length_c	15.072220
_cell_angle_alpha	89.999202
_cell_angle_beta	86.111534
_cell_angle_gamma	87.246883
loop_
_atom_site_label
_atom_site_type_symbol
_atom_site_fract_x
_atom_site_fract_y
_atom_site_fract_z
O1	O	1.053374	0.099648	-0.154187
O2	O	0.824561	0.112338	-0.136724
O3	O	0.937607	-0.007821	-0.145345
O4	O	0.940327	0.219807	-0.145566
O5	O	0.937578	-0.007815	0.002223
O6	O	0.824531	0.112344	0.010844
O7	O	1.053344	0.099655	-0.006620
Zn8	Zn	0.938933	0.106001	0.025542
Zn9	Zn	0.938972	0.105992	-0.168885
O10	O	0.940298	0.219814	0.002001
C11	C	0.795125	0.111858	-0.060694
C12	C	0.707457	0.110409	-0.054003
C13	C	0.666280	0.109727	-0.131292
C14	C	0.583907	0.108378	-0.124992
C15	C	0.542712	0.107706	-0.041403
C16	C	0.583895	0.108391	0.035892
C17	C	0.666267	0.109745	0.029591
C18	C	0.294002	0.103622	-0.018354
C19	C	0.211625	0.102266	-0.012059
C20	C	0.211642	0.102254	-0.172944
C21	C	0.294016	0.103604	-0.179237
C22	C	0.335191	0.104293	-0.101943
C23	C	0.458514	0.106325	-0.034961
C24	C	0.419388	0.105679	-0.108385
C25	C	0.935119	-0.036944	-0.071372
C26	C	0.927739	-0.123731	-0.070809
C27	C	0.995499	-0.173900	-0.075980
C28	C	0.988560	-0.255445	-0.075459
C29	C	0.913859	-0.286820	-0.069760
C30	C	0.846094	-0.236644	-0.064592
C31	C	0.853034	-0.155101	-0.065120
C32	C	0.889341	-0.532558	-0.067901
C33	C	0.882406	-0.614107	-0.067371
C34	C	1.024873	-0.632903	-0.078240
C35	C	1.031806	-0.551357	-0.078761
C36	C	0.964041	-0.501189	-0.073598
C37	C	0.906764	-0.370171	-0.069225
C38	C	0.971136	-0.417839	-0.074140
C39	C	1.082781	0.100134	-0.082651
C40	C	1.170448	0.101583	-0.089348
C41	C	0.942786	0.248937	-0.071973
C42	C	0.950167	0.335724	-0.072542
N43	N	0.938912	0.106006	0.158232
N44	N	0.938999	0.105980	-0.301576
C45	C	0.938970	0.105989	0.517429
C46	C	0.878249	0.170068	0.484453
C47	C	0.878414	0.170302	0.381614
C48	C	0.938941	0.105997	0.339227
C49	C	1.022438	0.123726	0.370145
C50	C	1.022105	0.124181	0.473028
C51	C	0.916915	0.023990	0.481218
C52	C	0.915063	0.024539	0.378496
C53	C	0.938929	0.106001	0.238515
C54	C	0.938987	0.105987	0.618141
H55	H	1.056328	-0.148362	-0.080614
C56	C	0.794801	0.156063	0.353936
N57	N	0.731820	0.145344	0.333093
C58	C	0.339285	0.104371	0.066674
N59	N	0.373395	0.104933	0.130720
H60	H	0.857054	0.006920	0.511778
C61	C	0.976645	-0.040431	0.509522
N62	N	1.021636	-0.088948	0.530847
C63	C	0.339324	0.104330	-0.271193
N64	N	0.373451	0.104869	-0.340455
H65	H	0.785271	-0.262195	-0.059958
C66	C	0.538579	0.107653	0.127842
N67	N	0.504447	0.107093	0.197101
H68	H	0.955996	-0.025373	0.349666
C69	C	1.085249	0.062349	0.332297
N70	N	1.132557	0.016119	0.303788
H71	H	0.550384	0.107822	-0.187929
C72	C	0.711562	0.110493	0.114615
N73	N	0.745677	0.111059	0.178659
H74	H	1.080043	-0.673758	-0.082445
H75	H	0.699815	0.110271	-0.199360
C76	C	0.464704	0.106416	-0.200331
N77	N	0.498844	0.106966	-0.269586
C78	C	1.047971	0.203596	0.333391
N79	N	1.067195	0.263757	0.305713
C80	C	0.897816	0.251815	0.517859
N81	N	0.912556	0.313386	0.543022
H82	H	1.043737	-0.296290	-0.079667
H83	H	1.040704	0.183980	0.495586
H84	H	0.424964	0.105776	0.033098
H85	H	0.893067	0.231154	0.355878
H86	H	1.092635	-0.525819	-0.083401
H87	H	0.178108	0.101695	-0.235873
H88	H	1.068991	0.079344	0.494327
H89	H	0.178086	0.101741	0.056014
H90	H	0.821574	-0.639649	-0.062717
H91	H	0.853614	0.011083	0.358814
H92	H	1.031957	-0.392290	-0.078799
H93	H	0.834162	-0.491720	-0.063696
C94	C	0.778492	-0.099915	-0.059429
N95	N	0.722345	-0.058349	-0.055146
C96	C	0.794390	0.156067	0.524326
N97	N	0.731225	0.145524	0.554370
C98	C	0.824596	-0.404692	-0.062938
N99	N	0.762706	-0.430695	-0.058200
