data_functionalizedCrystal
_audit_creation_method	'MofGen! by Chris Wilmer'
_symmetry_space_group_name_H-M	'P1'
_symmetry_Int_Tables_number	1
_symmetry_cell_setting	triclinic
loop_
_symmetry_equiv_pos_as_xyz
  x,y,z
_cell_length_a	13.262402
_cell_length_b	17.038272
_cell_length_c	11.804365
_cell_angle_alpha	102.699962
_cell_angle_beta	93.583660
_cell_angle_gamma	87.647233
loop_
_atom_site_label
_atom_site_type_symbol
_atom_site_fract_x
_atom_site_fract_y
_atom_site_fract_z
O1	O	1.335367	0.158312	0.333503
O2	O	1.049337	0.155052	0.240854
O3	O	1.190651	0.042774	0.286637
O4	O	1.194054	0.270589	0.287720
O5	O	1.153445	0.072301	0.472639
O6	O	1.012132	0.184578	0.426856
O7	O	1.298162	0.187838	0.519505
Cu8	Cu	1.151750	0.188904	0.490164
Cu9	Cu	1.195749	0.153986	0.270195
O10	O	1.156849	0.300116	0.473722
C11	C	0.993956	0.167281	0.321942
C12	C	0.884367	0.159721	0.286445
C13	C	0.853162	0.140073	0.168375
C14	C	0.750196	0.132979	0.135026
C15	C	0.678426	0.145525	0.219742
C16	C	0.709631	0.165168	0.337815
C17	C	0.812606	0.172269	0.371168
C18	C	0.637870	0.177721	0.422535
C19	C	0.669075	0.197364	0.540607
C20	C	0.772041	0.204464	0.573954
C21	C	0.843811	0.191917	0.489237
C22	C	0.534895	0.170619	0.389182
C23	C	0.494340	0.202815	0.591974
C24	C	0.597305	0.209910	0.625324
C25	C	1.168956	0.028239	0.378636
C26	C	1.159730	-0.059063	0.375647
C27	C	1.244434	-0.104508	0.403085
C28	C	1.235762	-0.186539	0.400265
C29	C	1.142383	-0.223121	0.370014
C30	C	1.057673	-0.177670	0.342571
C31	C	1.066348	-0.095642	0.345384
C32	C	1.111737	-0.470570	0.360071
C33	C	1.103067	-0.552603	0.357264
C34	C	1.281158	-0.561467	0.414956
C35	C	1.289823	-0.479436	0.417773
C36	C	1.205114	-0.433993	0.390324
C37	C	1.133515	-0.306968	0.367134
C38	C	1.213984	-0.350149	0.393196
C39	C	1.353544	0.175609	0.438414
C40	C	1.463135	0.183167	0.473904
C41	C	1.178544	0.314651	0.381721
C42	C	1.187772	0.401951	0.384702
N43	N	1.120811	0.213464	0.644881
N44	N	1.226696	0.129420	0.115480
C45	C	1.300992	0.070429	1.077205
C46	C	1.324396	0.051846	0.960126
C47	C	1.273502	0.092249	0.881309
C48	C	1.199199	0.151238	0.919582
C49	C	1.175798	0.169827	1.036675
C50	C	1.148308	0.191647	0.840779
C51	C	1.074005	0.250636	0.879053
C52	C	1.050607	0.269221	0.996134
C53	C	1.101502	0.228818	1.074951
C54	C	1.171709	0.173058	0.723687
C55	C	1.046515	0.272456	0.683157
C56	C	1.023110	0.291038	0.800236
H57	H	1.320472	-0.074729	0.427725
H58	H	0.594588	0.139747	0.192582
H59	H	1.290018	-0.320364	0.417801
H60	H	0.981643	-0.207462	0.317933
H61	H	0.509499	0.154627	0.293047
H62	H	0.724797	0.116986	0.038891
H63	H	0.911604	0.129866	0.099412
H64	H	0.997372	-0.058641	0.323040
H65	H	1.005073	0.305357	0.618984
H66	H	1.232206	0.125029	0.692535
H67	H	1.042760	-0.433580	0.337720
H68	H	1.304736	-0.223537	0.422610
H69	H	0.927657	0.197688	0.516385
H70	H	1.057485	-0.336762	0.342506
H71	H	1.365862	-0.449657	0.442406
H72	H	0.990114	0.317260	1.027297
H73	H	0.962612	0.339069	0.831413
H74	H	0.797443	0.220466	0.670096
H75	H	1.082444	0.243946	1.170286
H76	H	1.350122	-0.598476	0.437302
H77	H	1.342429	0.037542	1.141385
H78	H	1.292561	0.077116	0.785978
H79	H	0.622728	0.225904	0.721460
H80	H	1.027020	-0.582382	0.332647
H81	H	0.435903	0.213034	0.660958
H82	H	1.384894	0.003819	0.928968
