data_functionalizedCrystal
_audit_creation_method	'MofGen! by Chris Wilmer'
_symmetry_space_group_name_H-M	'P1'
_symmetry_Int_Tables_number	1
_symmetry_cell_setting	triclinic
loop_
_symmetry_equiv_pos_as_xyz
  x,y,z
_cell_length_a	14.519731
_cell_length_b	17.699092
_cell_length_c	13.596369
_cell_angle_alpha	90.004304
_cell_angle_beta	90.005416
_cell_angle_gamma	83.487610
loop_
_atom_site_label
_atom_site_type_symbol
_atom_site_fract_x
_atom_site_fract_y
_atom_site_fract_z
O1	O	1.223438	0.099291	0.081790
O2	O	0.954914	0.110958	0.081791
O3	O	1.096759	-0.005042	0.081788
O4	O	1.081594	0.215291	0.081793
O5	O	1.096745	-0.005048	-0.081795
O6	O	0.954900	0.110952	-0.081792
O7	O	1.223424	0.099285	-0.081793
Zn8	Zn	1.089160	0.105118	-0.107765
Zn9	Zn	1.089178	0.105126	0.107763
O10	O	1.081580	0.215285	-0.081790
C11	C	0.920550	0.110408	-0.000001
C12	C	0.818177	0.108770	-0.000000
C13	C	0.735038	0.107439	0.000004
C14	C	0.630737	0.105776	0.000004
C15	C	0.547603	0.104456	0.000004
C16	C	0.443295	0.102793	0.000006
C17	C	1.096207	-0.033243	-0.000002
C18	C	1.094573	-0.117266	0.000003
C19	C	1.093815	-0.156732	0.089173
C20	C	1.092274	-0.235680	0.089174
C21	C	1.091497	-0.275160	0.000004
C22	C	1.092252	-0.235688	-0.089173
C23	C	1.093787	-0.156741	-0.089173
C24	C	1.086062	-0.554071	-0.089175
C25	C	1.084530	-0.633024	-0.089168
C26	C	1.084549	-0.633010	0.089173
C27	C	1.086083	-0.554063	0.089172
C28	C	1.086834	-0.514597	-0.000004
C29	C	1.088503	-0.428993	-0.000004
C30	C	1.089834	-0.360763	0.000003
C31	C	1.257788	0.099835	0.000000
C32	C	1.360161	0.101473	0.000006
C33	C	1.082131	0.243487	0.000002
C34	C	1.083765	0.327509	0.000004
N35	N	1.089154	0.105112	-0.254857
C36	C	1.089177	0.105126	-0.656148
C37	C	1.089168	0.105125	-0.544496
C38	C	1.089166	0.105120	-0.455506
C39	C	1.089156	0.105117	-0.343847
N40	N	1.089192	0.105126	0.254854
H41	H	1.094452	-0.124594	0.161785
H42	H	1.083933	-0.665152	0.161784
H43	H	1.091660	-0.267810	0.161785
Br44	Br	1.094810	-0.103178	-0.210195
Br45	Br	1.083477	-0.686605	-0.210192
Br46	Br	1.091183	-0.289266	-0.210192
Br47	Br	1.087145	-0.500487	0.210193
H48	H	1.086691	-0.521950	-0.161788
