data_functionalizedCrystal
_audit_creation_method	'MofGen! by Chris Wilmer'
_symmetry_space_group_name_H-M	'P1'
_symmetry_Int_Tables_number	1
_symmetry_cell_setting	triclinic
loop_
_symmetry_equiv_pos_as_xyz
  x,y,z
_cell_length_a	12.759401
_cell_length_b	16.959454
_cell_length_c	12.759393
_cell_angle_alpha	89.969286
_cell_angle_beta	89.981433
_cell_angle_gamma	90.019119
loop_
_atom_site_label
_atom_site_type_symbol
_atom_site_fract_x
_atom_site_fract_y
_atom_site_fract_z
Zn1	Zn	1.606216	-0.314655	-0.593990
Zn2	Zn	1.606094	-0.446857	-0.418312
Zn3	Zn	1.430518	-0.314694	-0.418329
Zn4	Zn	1.430490	-0.446793	-0.593953
O5	O	1.518330	-0.380750	-0.506146
O6	O	1.753221	-0.332202	-0.570694
O7	O	1.582764	-0.429368	-0.271293
O8	O	1.453888	-0.204078	-0.441652
O9	O	1.753131	-0.429330	-0.441624
O10	O	1.582972	-0.204049	-0.570710
O11	O	1.453769	-0.332268	-0.271305
O12	O	1.283493	-0.332207	-0.441618
O13	O	1.453840	-0.429222	-0.740979
O14	O	1.283473	-0.429260	-0.570648
O15	O	1.582945	-0.332141	-0.741006
O16	O	1.582737	-0.557459	-0.441589
O17	O	1.453722	-0.557413	-0.570632
C18	C	1.245362	-0.380731	-0.506131
C19	C	1.128586	-0.380742	-0.506150
C20	C	1.073763	-0.330263	-0.573461
C21	C	0.964039	-0.330278	-0.573467
C22	C	0.963969	-0.431258	-0.438850
C23	C	1.073692	-0.431239	-0.438839
C24	C	1.128658	-0.279767	-0.640772
C25	C	1.073835	-0.229284	-0.708089
C26	C	0.964111	-0.229299	-0.708095
C27	C	0.909209	-0.279797	-0.640785
C28	C	1.518242	-0.586116	-0.506128
C29	C	1.518300	-0.673973	-0.506156
C30	C	1.451249	-1.045454	-0.573331
C31	C	1.585703	-1.045442	-0.439068
C32	C	1.585666	-0.962897	-0.439058
C33	C	1.518419	-0.921626	-0.506185
C34	C	1.451208	-0.962900	-0.573322
C35	C	1.652868	-0.921616	-0.371915
C36	C	1.652834	-0.839065	-0.371902
C37	C	1.585591	-0.797792	-0.439035
C38	C	1.518378	-0.839072	-0.506175
C39	C	1.451130	-0.797801	-0.573302
C40	C	1.383922	-0.839079	-0.640448
C41	C	1.383965	-0.921628	-0.640455
C42	C	1.585548	-0.715244	-0.439029
C43	C	1.451089	-0.715247	-0.573292
C44	C	1.792363	-0.380769	-0.506161
C45	C	1.909140	-0.380777	-0.506168
C46	C	1.518403	-0.380670	-0.780179
C47	C	1.518435	-0.380636	-0.896956
C48	C	1.518447	-0.174582	-0.506187
C49	C	1.518496	-0.086725	-0.506204
C50	C	1.585669	-0.330081	-0.951834
C51	C	1.585694	-0.330052	-1.061558
C52	C	1.451247	-0.431141	-1.061517
C53	C	1.451218	-0.431165	-0.951795
C54	C	1.652886	-0.279552	-0.896995
C55	C	1.720126	-0.228994	-0.951872
C56	C	1.720151	-0.228965	-1.061597
C57	C	1.652935	-0.279495	-1.116443
C58	C	1.518317	-0.380772	-0.233179
C59	C	1.518489	-0.380583	-0.116402
H60	H	1.218000	-0.279749	-0.640774
H61	H	1.396454	-0.472319	-0.907113
H62	H	1.396533	-1.079066	-0.628003
H63	H	0.819865	-0.279788	-0.640774
H64	H	1.652949	-0.279459	-1.205788
O65	O	0.910479	-0.480288	-0.373575
C66	C	0.741413	-0.525042	-0.313897
C67	C	0.801858	-0.469485	-0.387888
H68	H	0.653582	-0.516315	-0.325428
H69	H	0.762908	-0.588807	-0.332203
H70	H	0.763011	-0.511093	-0.229220
H71	H	0.780292	-0.483363	-0.472590
H72	H	0.780357	-0.405736	-0.369492
H73	H	1.640447	-1.079050	-0.384410
O74	O	1.127324	-0.180306	-0.773434
C75	C	1.296387	-0.135492	-0.833040
C76	C	1.235946	-0.191015	-0.759001
H77	H	1.384218	-0.144120	-0.821382
H78	H	1.274921	-0.149453	-0.917749
H79	H	1.274755	-0.071752	-0.814750
H80	H	1.257545	-0.254774	-0.777198
H81	H	1.257416	-0.176986	-0.674315
H82	H	1.118329	-0.472343	-0.384029
O83	O	1.385817	-0.675245	-0.638649
C84	C	1.334761	-0.649891	-0.817319
C85	C	1.408728	-0.695256	-0.743422
H86	H	1.353273	-0.666040	-0.902044
H87	H	1.250045	-0.666192	-0.798891
H88	H	1.346255	-0.583804	-0.805724
H89	H	1.397327	-0.761352	-0.754976
H90	H	1.493417	-0.678889	-0.761868
H91	H	0.919478	-0.188188	-0.762900
O92	O	1.318654	-0.799070	-0.705802
C93	C	1.267606	-0.773694	-0.884469
C94	C	1.341564	-0.819072	-0.810577
H95	H	1.286116	-0.789836	-0.969196
H96	H	1.182887	-0.789990	-0.866045
H97	H	1.279109	-0.707610	-0.872862
H98	H	1.330154	-0.885167	-0.822143
H99	H	1.426256	-0.802710	-0.829019
H100	H	1.652875	-0.279571	-0.807652
H101	H	1.774844	-0.187849	-0.907209
H102	H	1.329246	-0.955244	-0.695120
O103	O	1.718062	-0.961827	-0.306719
C104	C	1.777454	-1.088998	-0.246984
C105	C	1.703643	-1.043553	-0.320950
H106	H	1.765806	-1.155082	-0.258448
H107	H	1.862221	-1.072825	-0.265376
H108	H	1.758926	-1.072723	-0.162305
H109	H	1.722076	-1.059804	-0.405653
H110	H	1.618897	-1.059731	-0.302467
H111	H	1.707559	-0.805461	-0.317229
H112	H	1.640263	-0.681639	-0.384354
O113	O	1.785560	-0.179828	-1.114744
C114	C	1.918868	-0.079534	-1.103197
C115	C	1.844857	-0.135153	-1.042881
H116	H	1.966814	-0.043388	-1.045123
H117	H	1.973863	-0.115779	-1.154532
H118	H	1.870656	-0.038218	-1.154603
H119	H	1.892985	-0.176480	-0.991419
H120	H	1.789859	-0.098859	-0.991613
H121	H	1.396523	-0.472280	-1.106182
