data_functionalizedCrystal
_audit_creation_method	'MofGen! by Chris Wilmer'
_symmetry_space_group_name_H-M	'P1'
_symmetry_Int_Tables_number	1
_symmetry_cell_setting	triclinic
loop_
_symmetry_equiv_pos_as_xyz
  x,y,z
_cell_length_a	14.044220
_cell_length_b	14.044220
_cell_length_c	13.101039
_cell_angle_alpha	93.667477
_cell_angle_beta	86.340132
_cell_angle_gamma	93.188878
loop_
_atom_site_label
_atom_site_type_symbol
_atom_site_fract_x
_atom_site_fract_y
_atom_site_fract_z
O1	O	1.281968	0.225348	-0.085109
O2	O	1.005298	0.217041	-0.085135
O3	O	1.139480	0.082860	-0.085112
O4	O	1.147787	0.359530	-0.085132
O5	O	1.129854	0.092504	0.085316
O6	O	0.995673	0.226686	0.085293
O7	O	1.272343	0.234993	0.085319
Zn8	Zn	1.132479	0.232371	0.112365
Zn9	Zn	1.145162	0.219663	-0.112181
O10	O	1.138161	0.369175	0.085296
C11	C	0.964864	0.218228	0.000076
C12	C	0.858722	0.207383	0.000066
C13	C	0.664383	0.187558	0.000088
C14	C	0.613253	0.264472	0.000087
C15	C	0.505116	0.253441	0.000099
C16	C	0.772529	0.198587	0.000076
C17	C	1.131031	0.052060	0.000102
C18	C	1.120187	-0.054083	0.000102
C19	C	1.100362	-0.248421	0.000086
C20	C	1.177276	-0.299551	0.000090
C21	C	1.166245	-0.407688	0.000080
C22	C	1.111391	-0.140275	0.000095
C23	C	1.312777	0.233806	0.000106
C24	C	1.418920	0.244651	0.000109
C25	C	1.146610	0.399974	0.000080
C26	C	1.157455	0.506116	0.000073
N27	N	1.123831	0.241043	0.265612
N28	N	1.153817	0.210984	-0.265428
C29	C	1.112065	0.252851	0.474653
C30	C	1.165580	0.199179	0.525538
C31	C	1.159034	0.205749	0.641855
C32	C	1.118610	0.246282	0.358325
H33	H	0.626945	0.113431	0.000099
Cl34	Cl	1.033744	0.331413	0.542261
H35	H	0.650693	0.338605	0.000077
H36	H	1.251413	-0.262115	0.000028
H37	H	1.026235	-0.285859	0.000076
H38	H	1.216314	0.148295	0.481744
