data_functionalizedCrystal
_audit_creation_method	'MofGen! by Chris Wilmer'
_symmetry_space_group_name_H-M	'P1'
_symmetry_Int_Tables_number	1
_symmetry_cell_setting	triclinic
loop_
_symmetry_equiv_pos_as_xyz
  x,y,z
_cell_length_a	15.995350
_cell_length_b	10.723024
_cell_length_c	9.798715
_cell_angle_alpha	90.001978
_cell_angle_beta	90.000039
_cell_angle_gamma	83.980122
loop_
_atom_site_label
_atom_site_type_symbol
_atom_site_fract_x
_atom_site_fract_y
_atom_site_fract_z
O1	O	-1.111909	-0.160839	-0.113372
O2	O	-0.868247	-0.180701	-0.113399
O3	O	-0.995698	0.010878	-0.113380
O4	O	-0.984458	-0.352418	-0.113391
O5	O	-0.995689	0.010878	0.113602
O6	O	-0.868238	-0.180701	0.113583
O7	O	-1.111899	-0.160839	0.113610
Zn8	Zn	-0.990067	-0.170770	0.149635
Zn9	Zn	-0.990080	-0.170770	-0.149424
O10	O	-0.984448	-0.352418	0.113591
C11	C	-0.837043	-0.179880	0.000088
C12	C	-0.744079	-0.177418	0.000077
C13	C	-0.994876	0.057367	0.000109
C14	C	-0.992428	0.195890	0.000104
C15	C	-1.143103	-0.161660	0.000120
C16	C	-1.236068	-0.164122	0.000121
C17	C	-0.406280	-0.168577	0.000106
C18	C	-0.452931	-0.032138	0.000617
C19	C	-0.549635	-0.034601	0.000096
C20	C	-0.573866	-0.172962	0.000093
C21	C	-0.533171	-0.240259	-0.129522
C22	C	-0.436516	-0.236831	-0.129621
C23	C	-0.436182	-0.239650	0.128500
C24	C	-0.533127	-0.239618	0.130204
C25	C	-0.668578	-0.175448	0.000081
C26	C	-0.311568	-0.166096	0.000109
C27	C	-0.985271	-0.398907	0.000098
C28	C	-0.987718	-0.537430	0.000095
N29	N	-0.990064	-0.170768	0.353735
C30	C	-1.063743	0.271783	0.000111
C31	C	-1.061215	0.414954	0.000105
N32	N	-0.990089	-0.170761	-0.353524
C33	C	-1.043578	-0.089978	0.421520
C34	C	-1.043591	-0.089974	0.578682
H35	H	-0.577756	0.018298	0.093009
H36	H	-1.089380	-0.020809	0.363204
H37	H	-0.549072	-0.340515	0.138031
H38	H	-0.561281	-0.193518	-0.225982
H39	H	-1.089409	-0.020810	0.636975
H40	H	-0.926664	0.397366	0.000099
H41	H	-0.944256	-0.239928	0.412052
H42	H	-0.929501	0.236910	0.000088
H43	H	-0.434091	0.022400	0.093569
H44	H	-0.944274	-0.239937	0.588193
H45	H	-0.560157	-0.190492	0.226092
H46	H	-0.577191	0.018655	-0.092976
H47	H	-0.417929	-0.187756	-0.226509
H48	H	-0.433029	0.022148	-0.091819
H49	H	-0.404998	-0.340245	0.129375
H50	H	-0.404843	-0.337003	-0.135505
H51	H	-1.126670	0.230763	0.000126
H52	H	-0.547880	-0.341910	-0.134344
H53	H	-1.122266	0.480165	0.000117
H54	H	-0.415386	-0.195045	0.226745
