data_functionalizedCrystal
_audit_creation_method	'MofGen! by Chris Wilmer'
_symmetry_space_group_name_H-M	'P1'
_symmetry_Int_Tables_number	1
_symmetry_cell_setting	triclinic
loop_
_symmetry_equiv_pos_as_xyz
  x,y,z
_cell_length_a	16.974885
_cell_length_b	16.956984
_cell_length_c	15.072220
_cell_angle_alpha	90.002984
_cell_angle_beta	86.350349
_cell_angle_gamma	79.730792
loop_
_atom_site_label
_atom_site_type_symbol
_atom_site_fract_x
_atom_site_fract_y
_atom_site_fract_z
O1	O	1.042493	0.101610	-0.001003
O2	O	1.542493	0.601610	0.498997
O3	O	0.811442	0.114562	0.015574
O4	O	1.311442	0.614562	0.515574
O5	O	0.940849	-0.008008	0.006283
O6	O	1.440849	0.491992	0.506283
O7	O	0.913086	0.224180	0.008287
O8	O	1.413086	0.724180	0.508287
O9	O	0.940842	-0.008008	-0.141282
O10	O	1.440842	0.491992	0.358718
O11	O	0.811436	0.114562	-0.131991
O12	O	1.311436	0.614562	0.368009
O13	O	1.042487	0.101611	-0.148568
O14	O	1.542487	0.601611	0.351432
Zn15	Zn	0.926960	0.108087	-0.163708
Zn16	Zn	1.426960	0.608087	0.336292
Zn17	Zn	0.926968	0.108086	0.030714
Zn18	Zn	1.426968	0.608086	0.530714
O19	O	0.913080	0.224181	-0.139277
O20	O	1.413080	0.724181	0.360723
C21	C	0.782013	0.114071	-0.056097
C22	C	1.282013	0.614071	0.443903
C23	C	0.694334	0.112596	-0.049807
C24	C	1.194334	0.612596	0.450193
C25	C	0.200797	0.104269	-0.005703
C26	C	0.700797	0.604269	0.494297
C27	C	0.283181	0.105655	-0.011626
C28	C	0.783181	0.605655	0.488374
C29	C	0.324361	0.106354	-0.095025
C30	C	0.824361	0.606354	0.404975
C31	C	0.283154	0.105659	-0.172507
C32	C	0.783154	0.605659	0.327493
C33	C	0.200772	0.104267	-0.166584
C34	C	0.700772	0.604267	0.333416
C35	C	0.570745	0.110510	-0.121366
C36	C	1.070745	0.610510	0.378634
C37	C	0.653132	0.111904	-0.127283
C38	C	1.153132	0.611904	0.372717
C39	C	0.653154	0.111898	0.033599
C40	C	1.153154	0.611898	0.533599
C41	C	0.570770	0.110511	0.039515
C42	C	1.070770	0.610511	0.539515
C43	C	0.529571	0.109812	-0.037967
C44	C	1.029571	0.609812	0.462033
N45	N	0.408570	0.107772	-0.101081
N46	N	0.908570	0.607772	0.398919
N47	N	0.445364	0.108388	-0.031911
N48	N	0.945364	0.608388	0.468089
C49	C	0.942267	-0.037718	-0.067601
C50	C	1.442267	0.462282	0.432399
C51	C	0.946494	-0.126243	-0.067903
C52	C	1.446494	0.373757	0.432097
C53	C	1.071916	0.102102	-0.076895
C54	C	1.571916	0.602102	0.423105
C55	C	1.159595	0.103577	-0.083179
C56	C	1.659595	0.603577	0.416821
C57	C	0.875826	-0.158248	-0.062829
C58	C	1.375826	0.341752	0.437171
C59	C	0.879802	-0.241428	-0.063117
C60	C	1.379802	0.258572	0.436883
C61	C	0.954447	-0.292601	-0.068472
C62	C	1.454447	0.207399	0.431528
C63	C	1.025120	-0.260591	-0.073549
C64	C	1.525120	0.239409	0.426451
C65	C	1.021143	-0.177413	-0.073268
C66	C	1.521143	0.322587	0.426732
C67	C	0.974131	-0.542396	-0.069879
C68	C	1.474131	-0.042396	0.430121
C69	C	0.978103	-0.625579	-0.070157
C70	C	1.478103	-0.125579	0.429843
C71	C	0.832784	-0.606410	-0.059726
C72	C	1.332784	-0.106410	0.440274
C73	C	0.828814	-0.523231	-0.059440
C74	C	1.328814	-0.023231	0.440560
C75	C	0.899487	-0.491228	-0.064522
C76	C	1.399487	0.008772	0.435478
N77	N	0.958513	-0.377624	-0.068764
N78	N	1.458513	0.122376	0.431236
N79	N	0.895421	-0.406207	-0.064237
N80	N	1.395421	0.093793	0.435763
C81	C	0.911661	0.253890	-0.065391
C82	C	1.411661	0.753890	0.434609
C83	C	0.907435	0.342416	-0.065083
C84	C	1.407435	0.842416	0.434917
N85	N	0.926961	0.108087	-0.296397
N86	N	1.426961	0.608087	0.203603
N87	N	0.926975	0.108080	0.163403
N88	N	1.426975	0.608080	0.663403
C89	C	0.926965	0.108085	0.522605
C90	C	1.426965	0.608085	1.022605
C91	C	0.996140	0.042433	0.480004
C92	C	1.496140	0.542433	0.980004
C93	C	0.996363	0.042599	0.377162
C94	C	1.496363	0.542599	0.877162
C95	C	0.926970	0.108081	0.344400
C96	C	1.426970	0.608081	0.844400
C97	C	0.939334	0.191333	0.380846
C98	C	1.439334	0.691333	0.880846
C99	C	0.939822	0.190950	0.483668
C100	C	1.439822	0.690950	0.983668
C101	C	0.845183	0.091233	0.490563
C102	C	1.345183	0.591233	0.990563
C103	C	0.845862	0.089340	0.387650
C104	C	1.345862	0.589340	0.887650
C105	C	0.926971	0.108085	0.243687
C106	C	1.426971	0.608085	0.743687
C107	C	0.926966	0.108087	0.623318
C108	C	1.426966	0.608087	1.123318
H109	H	0.686707	0.112466	0.096680
H110	H	1.186707	0.612466	0.596680
H111	H	0.167274	0.103705	0.062210
H112	H	0.667274	0.603705	0.562210
H113	H	0.768030	-0.481570	-0.055076
H114	H	1.268030	0.018430	0.444924
Cl115	Cl	0.781982	-0.093923	-0.056091
Cl116	Cl	1.281982	0.406077	0.443909
H117	H	0.167225	0.103712	-0.229673
H118	H	0.667225	0.603712	0.270327
Cl119	Cl	0.518958	0.109653	-0.218773
Cl120	Cl	1.018958	0.609653	0.281227
Cl121	Cl	0.863248	0.268585	0.348568
Cl122	Cl	1.363248	0.768585	0.848568
Cl123	Cl	0.790958	-0.281659	-0.056736
Cl124	Cl	1.290958	0.218341	0.443264
Cl125	Cl	1.062978	-0.502175	-0.076236
Cl126	Cl	1.562978	-0.002175	0.423764
H127	H	0.316725	0.106213	0.051464
H128	H	0.816725	0.606213	0.551464
Cl129	Cl	0.743944	-0.646648	-0.053341
Cl130	Cl	1.243944	-0.146648	0.446659
H131	H	0.316690	0.106223	-0.240413
H132	H	0.816690	0.606223	0.259587
Cl133	Cl	1.071949	-0.689912	-0.076884
Cl134	Cl	1.571949	-0.189912	0.423116
H135	H	1.085897	-0.302263	-0.077916
H136	H	1.585897	0.197737	0.422084
H137	H	0.537247	0.109941	0.107428
H138	H	1.037247	0.609941	0.607428
Cl139	Cl	1.109987	-0.137178	-0.079657
Cl140	Cl	1.609987	0.362822	0.420343
H141	H	0.989837	-0.019282	0.352389
H142	H	1.489837	0.480718	0.852389
Cl143	Cl	0.986357	-0.053428	0.518892
Cl144	Cl	1.486357	0.446572	1.018892
Cl145	Cl	1.089505	0.058833	0.513206
Cl146	Cl	1.589505	0.558833	1.013206
H147	H	1.057170	0.053376	0.348192
H148	H	1.557170	0.553376	0.848192
H149	H	0.999293	0.205783	0.503391
H150	H	1.499293	0.705783	1.003391
Cl151	Cl	0.865071	0.269149	0.527475
Cl152	Cl	1.365071	0.769149	1.027475
H153	H	0.998089	0.206526	0.350868
H154	H	1.498089	0.706526	0.850868
H155	H	0.831904	0.031820	0.517459
H156	H	1.331904	0.531820	1.017459
Cl157	Cl	0.831158	-0.005204	0.351012
Cl158	Cl	1.331158	0.494796	0.851012
Cl159	Cl	0.704900	0.112781	-0.232136
Cl160	Cl	1.204900	0.612781	0.267864
Cl161	Cl	0.763331	0.158374	0.353921
Cl162	Cl	1.263331	0.658374	0.853921
Cl163	Cl	0.765807	0.165148	0.533839
Cl164	Cl	1.265807	0.665148	1.033839
