data_functionalizedCrystal
_audit_creation_method	'MofGen! by Chris Wilmer'
_symmetry_space_group_name_H-M	'P1'
_symmetry_Int_Tables_number	1
_symmetry_cell_setting	triclinic
loop_
_symmetry_equiv_pos_as_xyz
  x,y,z
_cell_length_a	10.489716
_cell_length_b	10.489716
_cell_length_c	13.596369
_cell_angle_alpha	89.998063
_cell_angle_beta	89.995062
_cell_angle_gamma	84.529136
loop_
_atom_site_label
_atom_site_type_symbol
_atom_site_fract_x
_atom_site_fract_y
_atom_site_fract_z
O1	O	1.694057	0.179823	-0.081774
O2	O	1.322856	0.196749	-0.081777
O3	O	1.516920	0.002685	-0.081779
O4	O	1.499994	0.373886	-0.081772
O5	O	1.516900	0.002675	0.081804
O6	O	1.322837	0.196738	0.081806
O7	O	1.694038	0.179812	0.081809
Zn8	Zn	1.508434	0.188274	0.107780
Zn9	Zn	1.508460	0.188287	-0.107748
O10	O	1.499974	0.373876	0.081811
C11	C	1.275314	0.195472	0.000014
C12	C	1.133684	0.191667	0.000013
C13	C	1.035999	0.310673	0.000013
C14	C	0.958649	0.247783	0.080671
C15	C	0.958675	0.247765	-0.080609
C16	C	1.058199	0.128826	0.080738
C17	C	1.058230	0.128826	-0.080615
C18	C	0.980929	0.065848	0.000063
C19	C	1.515638	-0.044852	0.000010
C20	C	1.511833	-0.186483	0.000001
C21	C	1.630839	-0.284167	0.000011
C22	C	1.567963	-0.361517	-0.080642
C23	C	1.567917	-0.361491	0.080638
C24	C	1.449007	-0.261967	-0.080719
C25	C	1.448978	-0.261936	0.080634
C26	C	1.386015	-0.339237	-0.000039
C27	C	1.741580	0.181089	0.000016
C28	C	1.883210	0.184894	0.000011
C29	C	1.501256	0.421413	0.000021
C30	C	1.505061	0.563044	0.000023
N31	N	1.508426	0.188263	0.254872
N32	N	1.508478	0.188288	-0.254839
C33	C	1.508458	0.188289	0.656163
C34	C	1.508445	0.188286	0.544511
C35	C	1.508443	0.188277	0.455521
C36	C	1.508429	0.188272	0.343862
H37	H	1.060659	0.414190	0.000090
N38	N	0.901041	0.314306	0.171004
H39	H	0.920657	0.406719	0.170948
H40	H	0.805214	0.310386	0.170616
N41	N	1.115555	0.062316	0.171157
H42	H	1.211499	0.065363	0.170615
H43	H	1.078323	0.106936	0.231954
H44	H	1.398777	-0.218418	0.148823
H45	H	1.398806	-0.218655	-0.148980
N46	N	1.634516	-0.419150	-0.170956
H47	H	1.571830	-0.464501	-0.211353
H48	H	1.668075	-0.348981	-0.211574
N49	N	1.115895	0.062356	-0.170943
H50	H	1.178016	-0.012397	-0.150399
H51	H	1.045557	0.030373	-0.212274
H52	H	0.915195	0.298031	-0.148789
H53	H	1.734354	-0.259500	-0.000070
N54	N	1.248818	-0.371654	-0.000114
H55	H	1.204047	-0.335115	-0.061071
H56	H	1.247126	-0.467755	0.000497
N57	N	1.634470	-0.419087	0.170959
H58	H	1.726881	-0.399463	0.170881
H59	H	1.590376	-0.381425	0.231826
H60	H	0.956508	-0.037744	0.000108
