data_functionalizedCrystal
_audit_creation_method	'MofGen! by Chris Wilmer'
_symmetry_space_group_name_H-M	'P1'
_symmetry_Int_Tables_number	1
_symmetry_cell_setting	triclinic
loop_
_symmetry_equiv_pos_as_xyz
  x,y,z
_cell_length_a	17.077404
_cell_length_b	16.959453
_cell_length_c	17.077396
_cell_angle_alpha	89.970936
_cell_angle_beta	89.981638
_cell_angle_gamma	90.017958
loop_
_atom_site_label
_atom_site_type_symbol
_atom_site_fract_x
_atom_site_fract_y
_atom_site_fract_z
Zn1	Zn	1.200070	-0.314724	-0.443816
Zn2	Zn	1.199984	-0.446912	-0.312548
Zn3	Zn	1.068802	-0.314747	-0.312566
Zn4	Zn	1.068777	-0.446860	-0.443775
O5	O	1.134408	-0.380811	-0.378176
O6	O	1.309906	-0.332272	-0.426413
O7	O	1.182557	-0.429411	-0.202704
O8	O	1.086262	-0.204133	-0.330001
O9	O	1.309842	-0.429390	-0.329971
O10	O	1.182704	-0.204116	-0.426430
O11	O	1.086178	-0.332310	-0.202717
O12	O	0.958952	-0.332260	-0.329962
O13	O	1.086219	-0.429301	-0.553627
O14	O	0.958933	-0.429323	-0.426360
O15	O	1.182680	-0.332221	-0.553657
O16	O	1.182532	-0.557516	-0.329931
O17	O	1.086135	-0.557478	-0.426342
C18	C	0.930461	-0.380788	-0.378159
C19	C	0.843211	-0.380798	-0.378170
C20	C	0.802254	-0.330319	-0.428463
C21	C	0.720274	-0.330324	-0.428467
C22	C	0.679251	-0.380813	-0.378180
C23	C	0.720213	-0.431294	-0.327881
C24	C	0.802192	-0.431285	-0.327874
C25	C	0.549343	-0.431312	-0.327900
C26	C	0.467359	-0.431323	-0.327908
C27	C	0.467425	-0.330351	-0.428494
C28	C	0.549404	-0.330342	-0.428487
C29	C	0.590360	-0.380824	-0.378188
C30	C	1.134343	-0.586177	-0.378147
C31	C	1.134387	-0.674034	-0.378161
C32	C	1.184690	-1.045442	-0.428481
C33	C	1.084346	-1.045576	-0.327988
C34	C	1.084317	-0.963031	-0.327970
C35	C	1.134474	-0.921687	-0.378209
C36	C	1.184661	-0.962889	-0.428466
C37	C	1.034126	-0.921822	-0.277719
C38	C	1.034094	-0.839271	-0.277699
C39	C	1.084256	-0.797926	-0.327935
C40	C	1.134445	-0.839133	-0.378194
C41	C	1.184603	-0.797789	-0.428434
C42	C	1.234796	-0.838995	-0.478689
C43	C	1.234823	-0.921543	-0.478702
C44	C	1.084229	-0.715378	-0.327922
C45	C	1.184573	-0.715236	-0.428419
C46	C	1.339153	-0.380834	-0.378194
C47	C	1.426402	-0.380844	-0.378202
C48	C	1.134456	-0.380753	-0.582921
C49	C	1.134476	-0.380728	-0.670170
C50	C	1.134496	-0.174643	-0.378222
C51	C	1.134533	-0.086786	-0.378242
C52	C	1.184705	-0.330174	-0.711178
C53	C	1.184715	-0.330148	-0.793158
C54	C	1.134498	-0.380680	-0.834130
C55	C	1.084264	-0.431236	-0.793117
C56	C	1.084251	-0.431257	-0.711138
C57	C	1.084296	-0.431188	-0.963987
C58	C	1.084309	-0.431168	-1.045972
C59	C	1.184759	-0.330079	-1.046007
C60	C	1.184746	-0.330100	-0.964028
C61	C	1.134512	-0.380657	-0.923021
C62	C	1.134406	-0.380812	-0.174228
C63	C	1.134538	-0.380614	-0.086979
H64	H	0.686931	-0.289220	-0.469423
O65	O	1.233188	-0.674990	-0.477262
C66	C	1.243649	-0.581750	-0.583271
C67	C	1.188507	-0.627265	-0.527994
H68	H	1.207546	-0.543166	-0.624313
H69	H	1.284686	-0.543043	-0.547306
H70	H	1.279543	-0.625396	-0.619153
H71	H	1.152562	-0.583676	-0.492101
H72	H	1.147521	-0.665984	-0.564004
H73	H	0.433960	-0.472436	-0.286961
O74	O	0.985259	-0.799214	-0.228991
C75	C	0.879286	-0.706055	-0.218305
C76	C	0.934527	-0.751385	-0.273558
H77	H	0.838266	-0.667362	-0.254314
H78	H	0.843385	-0.749751	-0.182416
H79	H	0.915354	-0.667451	-0.177268
H80	H	0.898519	-0.789990	-0.314642
H81	H	0.970430	-0.707646	-0.309392
O82	O	1.035410	-0.480349	-0.832793
C83	C	0.935814	-0.580655	-0.824099
C84	C	0.991086	-0.525058	-0.779071
H85	H	0.899976	-0.616828	-0.780684
H86	H	0.894738	-0.544390	-0.862462
H87	H	0.971856	-0.621946	-0.862494
H88	H	0.955107	-0.483756	-0.740633
H89	H	1.032164	-0.561371	-0.740757
H90	H	1.043417	-0.472313	-1.079329
H91	H	1.275632	-0.805323	-0.519598
O92	O	0.589342	-0.281261	-0.477226
C93	C	0.681897	-0.174522	-0.487960
C94	C	0.636729	-0.230069	-0.432677
H95	H	0.720208	-0.133109	-0.451963
H96	H	0.720340	-0.210821	-0.528922
H97	H	0.638531	-0.138477	-0.523929
H98	H	0.680039	-0.266126	-0.396657
H99	H	0.598275	-0.193726	-0.391767
H100	H	1.225641	-0.288957	-0.930671
H101	H	1.225559	-1.078995	-0.469396
O102	O	0.842101	-0.480248	-0.279046
C103	C	0.968368	-0.525015	-0.234489
C104	C	0.923270	-0.469513	-0.289818
H105	H	1.034001	-0.516366	-0.243190
H106	H	0.952284	-0.511053	-0.171202
H107	H	0.952197	-0.588762	-0.248153
H108	H	0.939417	-0.405747	-0.276225
H109	H	0.939358	-0.483542	-0.353088
O110	O	1.233628	-0.280938	-1.085716
C111	C	1.333229	-0.180645	-1.077100
C112	C	1.277938	-0.236262	-1.032029
H113	H	1.369056	-0.144499	-1.033713
H114	H	1.374315	-0.216892	-1.115459
H115	H	1.297203	-0.139330	-1.115503
H116	H	1.313901	-0.277588	-0.993583
H117	H	1.236850	-0.199966	-0.993719
O118	O	1.035573	-0.480406	-0.671210
C119	C	1.024965	-0.587172	-0.578653
C120	C	1.080183	-0.531551	-0.623810
H121	H	1.061010	-0.628548	-0.540332
H122	H	0.983944	-0.550929	-0.540221
H123	H	0.989057	-0.623254	-0.622027
H124	H	1.116142	-0.495457	-0.580493
H125	H	1.121152	-0.567839	-0.662254
O126	O	1.283499	-0.961692	-0.527496
C127	C	1.328037	-1.088806	-0.572026
C128	C	1.272863	-1.043433	-0.516740
H129	H	1.319469	-1.154901	-0.563338
H130	H	1.314207	-1.072598	-0.635324
H131	H	1.391328	-1.072500	-0.558307
H132	H	1.209553	-1.059714	-0.530389
H133	H	1.286760	-1.059644	-0.453460
H134	H	1.043507	-1.079244	-0.287088
H135	H	1.043378	-0.472345	-0.930602
H136	H	0.434074	-0.289245	-0.469447
O137	O	0.842015	-0.281313	-0.477423
C138	C	0.867194	-0.243145	-0.611017
C139	C	0.822106	-0.298683	-0.555659
H140	H	0.851126	-0.257179	-0.674282
H141	H	0.851068	-0.179380	-0.597411
H142	H	0.932818	-0.251796	-0.602335
H143	H	0.756471	-0.290102	-0.564310
H144	H	0.838297	-0.362427	-0.569278
O145	O	0.985484	-0.962104	-0.228941
C146	C	0.941044	-1.089340	-0.184450
C147	C	0.996181	-1.043815	-0.239724
H148	H	0.949662	-1.155412	-0.193160
H149	H	0.954865	-1.073198	-0.121148
H150	H	0.877740	-1.073105	-0.198161
H151	H	1.059504	-1.060026	-0.226083
H152	H	0.982293	-1.059961	-0.303009
O153	O	0.589008	-0.480429	-0.279019
C154	C	0.580296	-0.580559	-0.179233
C155	C	0.535278	-0.524985	-0.234555
H156	H	0.536875	-0.616585	-0.143258
H157	H	0.618659	-0.621981	-0.215163
H158	H	0.618691	-0.544205	-0.138280
H159	H	0.496841	-0.561275	-0.275519
H160	H	0.496965	-0.483560	-0.198576
H161	H	1.043359	-0.681832	-0.287009
O162	O	1.233511	-0.281013	-0.671502
C163	C	1.333174	-0.180774	-0.680200
C164	C	1.277929	-0.236400	-0.725226
H165	H	1.369111	-0.144701	-0.723615
H166	H	1.297184	-0.139396	-0.641845
H167	H	1.374165	-0.217090	-0.641796
H168	H	1.236927	-0.200147	-0.763672
H169	H	1.313967	-0.277779	-0.763531
H170	H	1.225618	-0.288984	-0.826542
H171	H	0.686806	-0.472399	-0.286933
