data_functionalizedCrystal
_audit_creation_method	'MofGen! by Chris Wilmer'
_symmetry_space_group_name_H-M	'P1'
_symmetry_Int_Tables_number	1
_symmetry_cell_setting	triclinic
loop_
_symmetry_equiv_pos_as_xyz
  x,y,z
_cell_length_a	14.971506
_cell_length_b	14.044220
_cell_length_c	13.448316
_cell_angle_alpha	89.992660
_cell_angle_beta	89.992937
_cell_angle_gamma	88.405633
loop_
_atom_site_label
_atom_site_type_symbol
_atom_site_fract_x
_atom_site_fract_y
_atom_site_fract_z
O1	O	1.196675	0.123630	-0.082702
O2	O	1.696675	0.623630	0.417298
O3	O	0.937442	0.138404	-0.082703
O4	O	1.437442	0.638404	0.417297
O5	O	1.063167	-0.006972	-0.082692
O6	O	1.563167	0.493028	0.417308
O7	O	1.070950	0.269006	-0.082712
O8	O	1.570950	0.769006	0.417288
O9	O	1.063149	-0.006981	0.082691
O10	O	1.563149	0.493019	0.582691
O11	O	0.937424	0.138395	0.082681
O12	O	1.437424	0.638395	0.582681
O13	O	1.196657	0.123621	0.082682
O14	O	1.696657	0.623621	0.582682
Cu15	Cu	1.067039	0.131007	0.097782
Cu16	Cu	1.567039	0.631007	0.597782
Cu17	Cu	1.067060	0.131018	-0.097803
Cu18	Cu	1.567060	0.631018	0.402197
O19	O	1.070932	0.268997	0.082672
O20	O	1.570932	0.768997	0.582672
C21	C	0.904056	0.137735	-0.000011
C22	C	1.404056	0.637735	0.499989
C23	C	0.804603	0.135745	-0.000011
C24	C	1.304603	0.635745	0.499989
C25	C	0.372450	0.213556	-0.000026
C26	C	0.872450	0.713556	0.499974
C27	C	0.465897	0.215418	-0.000031
C28	C	0.965897	0.715418	0.499969
C29	C	0.516388	0.130004	-0.000020
C30	C	1.016388	0.630004	0.499980
C31	C	0.473428	0.042722	-0.000015
C32	C	0.973428	0.542722	0.499985
C33	C	0.379983	0.040860	-0.000018
C34	C	0.879983	0.540860	0.499982
C35	C	0.668197	0.046608	-0.000007
C36	C	1.168197	0.546608	0.499993
C37	C	0.761649	0.048469	-0.000003
C38	C	1.261649	0.548469	0.499997
C39	C	0.754112	0.221166	-0.000020
C40	C	1.254112	0.721166	0.499980
C41	C	0.660666	0.219305	-0.000023
C42	C	1.160666	0.719305	0.499977
C43	C	0.617712	0.132022	-0.000016
C44	C	1.117712	0.632022	0.499984
C45	C	1.059752	-0.042295	-0.000000
C46	C	1.559752	0.457705	0.500000
C47	C	1.049591	-0.147533	0.000001
C48	C	1.549591	0.352467	0.500001
C49	C	1.031014	-0.340217	-0.000013
C50	C	1.531014	0.159783	0.499987
C51	C	1.103081	-0.397763	-0.000016
C52	C	1.603081	0.102237	0.499984
C53	C	1.092745	-0.504979	-0.000024
C54	C	1.592745	-0.004979	0.499976
C55	C	1.041349	-0.232991	-0.000005
C56	C	1.541349	0.267009	0.499995
C57	C	1.230043	0.124290	-0.000012
C58	C	1.730043	0.624290	0.499988
C59	C	1.329496	0.126280	-0.000019
C60	C	1.829496	0.626280	0.499981
C61	C	1.074347	0.304320	-0.000023
C62	C	1.574347	0.804320	0.499977
C63	C	1.084508	0.409558	-0.000030
C64	C	1.584508	0.909558	0.499970
N65	N	1.067030	0.130999	0.235347
N66	N	1.567030	0.630999	0.735347
N67	N	1.067075	0.131018	-0.235367
N68	N	1.567075	0.631018	0.264633
C69	C	1.122723	0.066653	0.287392
C70	C	1.622723	0.566653	0.787392
C71	C	1.122728	0.066652	0.391495
C72	C	1.622728	0.566652	0.891495
C73	C	1.067046	0.131003	0.443551
C74	C	1.567046	0.631003	0.943551
C75	C	1.011347	0.195352	0.391499
C76	C	1.511347	0.695352	0.891499
C77	C	1.011337	0.195348	0.287398
C78	C	1.511337	0.695348	0.787398
C79	C	1.011372	0.195358	0.608479
C80	C	1.511372	0.695358	1.108479
C81	C	1.011383	0.195364	0.712588
C82	C	1.511383	0.695364	1.212588
C83	C	1.122763	0.066663	0.712576
C84	C	1.622763	0.566663	1.212576
C85	C	1.122754	0.066659	0.608475
C86	C	1.622754	0.566659	1.108475
C87	C	1.067056	0.131009	0.556430
C88	C	1.567056	0.631009	1.056430
H89	H	0.514545	-0.026824	-0.000013
H90	H	1.014545	0.473176	0.499987
H91	H	0.961559	-0.371471	-0.000016
H92	H	1.461559	0.128529	0.499984
Cl93	Cl	0.825123	-0.058910	0.000002
Cl94	Cl	1.325123	0.441090	0.500002
Cl95	Cl	0.308985	0.320940	-0.000032
Cl96	Cl	0.808985	0.820940	0.499968
H97	H	1.168070	0.014255	0.245014
H98	H	1.668070	0.514255	0.745014
Cl99	Cl	1.192742	-0.014242	0.456925
Cl100	Cl	1.692742	0.485758	0.956925
H101	H	1.168099	0.014264	0.566091
H102	H	1.668099	0.514264	1.066091
H103	H	0.966039	0.247764	0.754967
H104	H	1.466039	0.747764	1.254967
Cl105	Cl	1.192783	-0.014232	0.778008
Cl106	Cl	1.692783	0.485768	1.278008
H107	H	1.172542	-0.366508	-0.000083
H108	H	1.672542	0.133492	0.499917
H109	H	0.966014	0.247757	0.566108
H110	H	1.466014	0.747757	1.066108
H111	H	0.966004	0.247744	0.433890
H112	H	1.466004	0.747744	0.933890
Cl113	Cl	0.941317	0.276240	0.221971
Cl114	Cl	1.441317	0.776240	0.721971
H115	H	0.500866	0.286487	-0.000046
H116	H	1.000866	0.786487	0.499954
Cl117	Cl	0.597193	0.326684	-0.000031
Cl118	Cl	1.097193	0.826684	0.499969
H119	H	0.633227	-0.024467	-0.000007
H120	H	1.133227	0.475533	0.499993
H121	H	0.789089	0.292235	-0.000025
H122	H	1.289089	0.792235	0.499975
Cl123	Cl	0.325983	-0.068863	-0.000008
Cl124	Cl	0.825983	0.431137	0.499992
