data_functionalizedCrystal
_audit_creation_method	'MofGen! by Chris Wilmer'
_symmetry_space_group_name_H-M	'P1'
_symmetry_Int_Tables_number	1
_symmetry_cell_setting	triclinic
loop_
_symmetry_equiv_pos_as_xyz
  x,y,z
_cell_length_a	16.109318
_cell_length_b	10.654550
_cell_length_c	15.186229
_cell_angle_alpha	89.999095
_cell_angle_beta	90.002030
_cell_angle_gamma	83.976733
loop_
_atom_site_label
_atom_site_type_symbol
_atom_site_fract_x
_atom_site_fract_y
_atom_site_fract_z
O1	O	1.104085	0.161516	0.073153
O2	O	0.862144	0.181581	0.073171
O3	O	0.988677	-0.011266	0.073158
O4	O	0.977552	0.354363	0.073165
O5	O	0.988663	-0.011255	-0.073299
O6	O	0.862130	0.181592	-0.073287
O7	O	1.104070	0.161527	-0.073304
Zn8	Zn	0.983098	0.171561	-0.096549
Zn9	Zn	0.983117	0.171547	0.096415
O10	O	0.977537	0.354374	-0.073292
C11	C	0.831157	0.180770	-0.000056
C12	C	0.738848	0.178322	-0.000049
C13	C	0.439736	0.170409	0.079769
C14	C	0.526471	0.172701	0.079775
C15	C	0.526473	0.172696	-0.079901
C16	C	0.439741	0.170395	-0.079906
C17	C	0.396374	0.169258	-0.000068
C18	C	0.569841	0.173851	-0.000058
C19	C	0.663883	0.176336	-0.000053
C20	C	0.302326	0.166770	-0.000073
C21	C	0.987853	-0.058047	-0.000069
C22	C	0.985409	-0.197457	-0.000066
C23	C	1.059910	-0.277947	-0.000074
C24	C	1.057608	-0.408937	-0.000068
C25	C	0.906299	-0.378935	-0.000049
C26	C	0.908601	-0.247947	-0.000049
C27	C	1.136717	-0.227457	-0.000091
C28	C	1.211224	-0.307948	-0.000100
C29	C	1.208923	-0.438937	-0.000094
C30	C	1.132115	-0.489436	-0.000079
C31	C	1.135057	0.162338	-0.000076
C32	C	1.227366	0.164786	-0.000077
C33	C	0.978361	0.401155	-0.000062
C34	C	0.980805	0.540566	-0.000060
N35	N	0.983090	0.171570	-0.228241
C36	C	1.033966	0.247746	-0.453966
C37	C	1.033975	0.247737	-0.546156
C38	C	0.932253	0.095344	-0.546161
C39	C	0.932249	0.095347	-0.453973
C40	C	0.983104	0.171555	-0.407878
C41	C	0.983117	0.171543	-0.592256
C42	C	0.983126	0.171533	-0.692212
C43	C	0.983096	0.171564	-0.307916
N44	N	0.983131	0.171528	0.228108
H45	H	1.138600	-0.120800	-0.000099
O46	O	0.397506	0.169437	-0.157407
C47	C	0.290816	0.275587	-0.250103
C48	C	0.338568	0.276823	-0.162300
H49	H	0.243166	0.362412	-0.254095
H50	H	0.257255	0.186731	-0.254098
H51	H	0.336726	0.276741	-0.307152
H52	H	0.292715	0.275715	-0.105201
H53	H	0.372143	0.365672	-0.158381
H54	H	0.847936	-0.182410	-0.000044
O55	O	1.285760	-0.258689	-0.000150
C56	C	1.356367	-0.070194	-0.000111
C57	C	1.271897	-0.125806	-0.000077
H58	H	1.345187	0.037249	-0.000034
H59	H	1.393227	-0.103257	-0.061420
H60	H	1.393227	-0.103419	0.061164
H61	H	1.234969	-0.092607	-0.061311
H62	H	1.235099	-0.092749	0.061272
O63	O	0.568536	0.174047	0.157351
C64	C	0.586243	0.283452	0.293845
C65	C	0.538554	0.282101	0.206008
H66	H	0.562009	0.370791	0.333217
H67	H	0.655687	0.285369	0.280191
H68	H	0.576300	0.195131	0.333181
H69	H	0.548429	0.370405	0.166628
H70	H	0.469127	0.280118	0.219724
O71	O	0.831764	-0.428195	-0.000080
C72	C	0.761162	-0.616695	-0.000025
C73	C	0.845631	-0.561079	-0.000007
H74	H	0.772344	-0.724138	0.000053
H75	H	0.724288	-0.583632	-0.061328
H76	H	0.724315	-0.583474	0.061256
H77	H	0.882546	-0.594274	-0.061246
H78	H	0.882442	-0.594136	0.061337
H79	H	0.890847	0.033299	-0.583702
O80	O	1.083448	0.321797	-0.409326
C81	C	1.184310	0.472999	-0.419056
C82	C	1.128324	0.389177	-0.469717
H83	H	1.220594	0.527518	-0.467860
H84	H	1.229923	0.411315	-0.375914
H85	H	1.143808	0.542290	-0.375877
H86	H	1.168759	0.319874	-0.512943
H87	H	1.082707	0.450939	-0.512803
H88	H	1.075394	0.309777	-0.583677
H89	H	1.269590	-0.504470	-0.000092
O90	O	0.568495	0.173975	-0.157508
C91	C	0.586273	0.283446	-0.293961
C92	C	0.538610	0.282134	-0.206110
H93	H	0.562142	0.370897	-0.333273
H94	H	0.576301	0.195218	-0.333390
H95	H	0.655713	0.285230	-0.280226
H96	H	0.469156	0.280394	-0.219765
H97	H	0.548651	0.370356	-0.166708
O98	O	0.882709	0.021478	-0.409241
C99	C	0.742507	-0.027684	-0.381089
C100	C	0.798507	0.056077	-0.431784
H101	H	0.674420	0.000241	-0.399311
H102	H	0.751166	-0.014588	-0.307271
H103	H	0.760492	-0.130791	-0.399202
H104	H	0.780558	0.159215	-0.413746
H105	H	0.789841	0.042872	-0.505590
O106	O	0.397553	0.169516	0.157297
C107	C	0.290803	0.275607	0.249938
C108	C	0.338521	0.276794	0.162114
H109	H	0.243053	0.362318	0.253854
H110	H	0.336653	0.276901	0.307036
H111	H	0.257339	0.186658	0.253916
H112	H	0.371988	0.365728	0.158051
H113	H	0.292631	0.275433	0.105058
H114	H	1.130247	-0.596098	-0.000064
