data_functionalizedCrystal
_audit_creation_method	'MofGen! by Chris Wilmer'
_symmetry_space_group_name_H-M	'P1'
_symmetry_Int_Tables_number	1
_symmetry_cell_setting	triclinic
loop_
_symmetry_equiv_pos_as_xyz
  x,y,z
_cell_length_a	11.026607
_cell_length_b	10.967829
_cell_length_c	9.730223
_cell_angle_alpha	77.867717
_cell_angle_beta	89.997380
_cell_angle_gamma	96.380563
loop_
_atom_site_label
_atom_site_type_symbol
_atom_site_fract_x
_atom_site_fract_y
_atom_site_fract_z
O1	O	1.614524	0.523513	-0.238276
O2	O	1.260721	0.463901	-0.224159
O3	O	1.445782	0.313890	-0.188625
O4	O	1.429464	0.673525	-0.273811
O5	O	1.445770	0.313882	0.039957
O6	O	1.260709	0.463893	0.004422
O7	O	1.614512	0.523506	-0.009694
Zn8	Zn	1.437609	0.493698	0.033656
Zn9	Zn	1.437625	0.493709	-0.267510
O10	O	1.429452	0.673517	-0.045229
C11	C	1.215413	0.452900	-0.107264
C12	C	1.080426	0.420116	-0.099501
C13	C	1.007375	0.510637	-0.120943
C14	C	0.867858	0.476756	-0.112919
C15	C	1.444588	0.267129	-0.063262
C16	C	1.441033	0.127805	-0.030269
C17	C	1.439454	0.065701	-0.133974
C18	C	1.435780	-0.078297	-0.099877
C19	C	1.659821	0.534507	-0.126592
C20	C	1.794808	0.567291	-0.134365
C21	C	1.430646	0.720278	-0.170595
C22	C	1.434201	0.859601	-0.203596
N23	N	1.437607	0.493692	0.239194
N24	N	1.437636	0.493707	-0.473046
C25	C	1.519580	0.427309	0.326845
C26	C	1.519592	0.427312	0.470727
C27	C	1.355654	0.560092	0.439293
C28	C	1.355637	0.560081	0.295415
H29	H	0.835547	0.669880	-0.158656
H30	H	1.586323	0.373250	0.281075
H31	H	1.048121	0.613219	-0.145234
H32	H	1.586341	0.373255	0.542090
H33	H	1.288918	0.614146	0.485082
C34	C	1.539056	-0.109469	0.119874
C35	C	1.433928	-0.150418	0.054070
H36	H	1.537904	-0.153992	0.214913
H37	H	1.609273	-0.124484	0.072204
H38	H	1.541272	-0.022161	0.117150
H39	H	1.431716	-0.237725	0.056784
H40	H	1.363691	-0.135414	0.101752
H41	H	1.039679	0.317534	-0.075237
C42	C	1.333485	-0.002543	-0.380589
C43	C	1.435941	-0.068345	-0.357563
H44	H	1.334534	0.041926	-0.475644
H45	H	1.261453	-0.060036	-0.361761
H46	H	1.334996	0.055123	-0.319990
H47	H	1.434425	-0.126018	-0.418155
H48	H	1.507992	-0.010845	-0.376406
C49	C	1.193595	0.691346	0.278780
C50	C	1.265529	0.633059	0.199056
H51	H	1.137973	0.736400	0.219288
H52	H	1.149442	0.629463	0.349569
H53	H	1.244590	0.747722	0.321531
H54	H	1.214534	0.576676	0.156313
H55	H	1.309685	0.694950	0.128241
H56	H	1.440817	0.119136	-0.248001
H57	H	0.827117	0.374167	-0.088655
C58	C	1.335647	0.077827	0.193914
C59	C	1.439179	0.055686	0.123672
H60	H	1.334501	0.033299	0.288951
H61	H	1.337887	0.165126	0.191190
H62	H	1.264339	0.050049	0.149247
H63	H	1.510488	0.083471	0.168333
H64	H	1.436950	-0.031632	0.126404
