data_functionalizedCrystal
_audit_creation_method	'MofGen! by Chris Wilmer'
_symmetry_space_group_name_H-M	'P1'
_symmetry_Int_Tables_number	1
_symmetry_cell_setting	triclinic
loop_
_symmetry_equiv_pos_as_xyz
  x,y,z
_cell_length_a	19.121102
_cell_length_b	19.121063
_cell_length_c	19.121504
_cell_angle_alpha	94.868905
_cell_angle_beta	85.146587
_cell_angle_gamma	90.126902
loop_
_atom_site_label
_atom_site_type_symbol
_atom_site_fract_x
_atom_site_fract_y
_atom_site_fract_z
Zn1	Zn	1.079009	-0.344575	-0.457756
Zn2	Zn	1.329009	-0.094575	-0.207756
Zn3	Zn	1.579009	0.155425	0.042244
Zn4	Zn	1.829009	0.405425	0.292244
Zn5	Zn	1.069182	-0.456954	-0.344679
Zn6	Zn	1.319182	-0.206954	-0.094679
Zn7	Zn	1.569182	0.043046	0.155321
Zn8	Zn	1.819182	0.293046	0.405321
Zn9	Zn	0.956620	-0.334299	-0.334672
Zn10	Zn	1.206620	-0.084299	-0.084672
Zn11	Zn	1.456620	0.165701	0.165328
Zn12	Zn	1.706620	0.415701	0.415328
Zn13	Zn	0.956714	-0.456745	-0.457284
Zn14	Zn	1.206714	-0.206745	-0.207284
Zn15	Zn	1.456714	0.043255	0.042716
Zn16	Zn	1.706714	0.293255	0.292716
O17	O	1.015381	-0.398143	-0.398597
O18	O	1.265381	-0.148143	-0.148597
O19	O	1.515381	0.101857	0.101403
O20	O	1.765381	0.351857	0.351403
O21	O	1.175994	-0.363870	-0.447141
O22	O	1.425994	-0.113870	-0.197141
O23	O	1.675994	0.136130	0.052859
O24	O	1.925994	0.386130	0.302859
O25	O	1.050098	-0.436471	-0.244714
O26	O	1.300098	-0.186471	0.005286
O27	O	1.550098	0.063529	0.255286
O28	O	1.800098	0.313529	0.505286
O29	O	0.976928	-0.237387	-0.347009
O30	O	1.226928	0.012613	-0.097009
O31	O	1.476928	0.262613	0.152991
O32	O	1.726928	0.512613	0.402991
O33	O	1.168774	-0.446434	-0.364064
O34	O	1.418774	-0.196434	-0.114064
O35	O	1.668774	0.053566	0.135936
O36	O	1.918774	0.303566	0.385936
O37	O	1.066847	-0.244937	-0.437438
O38	O	1.316847	0.005063	-0.187438
O39	O	1.566847	0.255063	0.062562
O40	O	1.816847	0.505063	0.312562
O41	O	0.967399	-0.346357	-0.237362
O42	O	1.217399	-0.096357	0.012638
O43	O	1.467399	0.153643	0.262638
O44	O	1.717399	0.403643	0.512638
O45	O	0.858344	-0.346154	-0.346551
O46	O	1.108344	-0.096154	-0.096551
O47	O	1.358344	0.153846	0.153449
O48	O	1.608344	0.403846	0.403449
O49	O	0.977089	-0.446078	-0.555983
O50	O	1.227089	-0.196078	-0.305983
O51	O	1.477089	0.053922	-0.055983
O52	O	1.727089	0.303922	0.194017
O53	O	0.858413	-0.436114	-0.436634
O54	O	1.108413	-0.186114	-0.186634
O55	O	1.358413	0.063886	0.063366
O56	O	1.608413	0.313886	0.313366
O57	O	1.066938	-0.363667	-0.556330
O58	O	1.316938	-0.113667	-0.306330
O59	O	1.566938	0.136333	-0.056330
O60	O	1.816938	0.386333	0.193670
O61	O	1.050190	-0.555201	-0.363606
O62	O	1.300190	-0.305201	-0.113606
O63	O	1.550190	-0.055201	0.136394
O64	O	1.800190	0.194799	0.386394
O65	O	0.967560	-0.555047	-0.446337
O66	O	1.217560	-0.305047	-0.196337
O67	O	1.467560	-0.055047	0.053663
O68	O	1.717560	0.194953	0.303663
C69	C	0.832893	-0.389997	-0.390456
C70	C	1.082893	-0.139997	-0.140456
C71	C	1.332893	0.110003	0.109544
C72	C	1.582893	0.360003	0.359544
C73	C	0.754824	-0.386530	-0.386990
C74	C	1.004824	-0.136530	-0.136990
C75	C	1.254824	0.113470	0.113010
C76	C	1.504824	0.363470	0.363010
C77	C	0.718195	-0.431803	-0.432195
C78	C	0.968195	-0.181803	-0.182195
C79	C	1.218195	0.068197	0.067805
C80	C	1.468195	0.318197	0.317805
C81	C	0.644842	-0.428536	-0.428942
C82	C	0.894842	-0.178536	-0.178942
C83	C	1.144842	0.071464	0.071058
C84	C	1.394842	0.321464	0.321058
C85	C	0.608117	-0.379998	-0.380480
C86	C	0.858117	-0.129998	-0.130480
C87	C	1.108117	0.120002	0.119520
C88	C	1.358117	0.370002	0.369520
C89	C	0.644751	-0.334720	-0.335273
C90	C	0.894751	-0.084720	-0.085273
C91	C	1.144751	0.165280	0.164727
C92	C	1.394751	0.415280	0.414727
C93	C	0.718104	-0.337984	-0.338530
C94	C	0.968104	-0.087984	-0.088530
C95	C	1.218104	0.162016	0.161470
C96	C	1.468104	0.412016	0.411470
C97	C	0.386637	-0.367793	-0.368305
C98	C	0.636637	-0.117793	-0.118305
C99	C	0.886637	0.132207	0.131695
C100	C	1.136637	0.382207	0.381695
C101	C	0.313279	-0.364534	-0.365050
C102	C	0.563279	-0.114534	-0.115050
C103	C	0.813279	0.135466	0.134950
C104	C	1.063279	0.385466	0.384950
C105	C	0.313375	-0.458349	-0.458720
C106	C	0.563375	-0.208349	-0.208720
C107	C	0.813375	0.041651	0.041280
C108	C	1.063375	0.291651	0.291280
C109	C	0.386729	-0.461611	-0.461970
C110	C	0.636729	-0.211611	-0.211970
C111	C	0.886729	0.038389	0.038030
C112	C	1.136729	0.288389	0.288030
C113	C	0.423357	-0.416331	-0.416766
C114	C	0.673357	-0.166331	-0.166766
C115	C	0.923357	0.083669	0.083234
C116	C	1.173357	0.333669	0.333234
C117	C	0.533138	-0.376659	-0.377151
C118	C	0.783138	-0.126659	-0.127151
C119	C	1.033138	0.123341	0.122849
C120	C	1.283138	0.373341	0.372849
C121	C	0.498335	-0.419667	-0.420098
C122	C	0.748335	-0.169667	-0.170098
C123	C	0.998335	0.080333	0.079902
C124	C	1.248335	0.330333	0.329902
C125	C	1.007839	-0.580607	-0.406023
C126	C	1.257839	-0.330607	-0.156023
C127	C	1.507839	-0.080607	0.093977
C128	C	1.757839	0.169393	0.343977
C129	C	1.004677	-0.658670	-0.409226
C130	C	1.254677	-0.408670	-0.159226
C131	C	1.504677	-0.158670	0.090774
C132	C	1.754677	0.091330	0.340774
C133	C	1.046249	-0.695404	-0.367696
C134	C	1.296249	-0.445404	-0.117696
C135	C	1.546249	-0.195404	0.132304
C136	C	1.796249	0.054596	0.382304
C137	C	1.043280	-0.768753	-0.370713
C138	C	1.293280	-0.518753	-0.120713
C139	C	1.543280	-0.268753	0.129287
C140	C	1.793280	-0.018753	0.379287
C141	C	0.998735	-0.805366	-0.415256
C142	C	1.248735	-0.555366	-0.165256
C143	C	1.498735	-0.305366	0.084744
C144	C	1.748735	-0.055366	0.334744
C145	C	0.957161	-0.768627	-0.456790
C146	C	1.207161	-0.518627	-0.206790
C147	C	1.457161	-0.268627	0.043210
C148	C	1.707161	-0.018627	0.293210
C149	C	0.960134	-0.695280	-0.453777
C150	C	1.210134	-0.445280	-0.203777
C151	C	1.460134	-0.195280	0.046223
C152	C	1.710134	0.054720	0.296223
C153	C	0.987607	-1.026824	-0.426511
C154	C	1.237607	-0.776824	-0.176511
C155	C	1.487607	-0.526824	0.073489
C156	C	1.737607	-0.276824	0.323489
C157	C	0.984636	-1.100176	-0.429520
C158	C	1.234636	-0.850176	-0.179520
C159	C	1.484636	-0.600176	0.070480
C160	C	1.734636	-0.350176	0.320480
C161	C	1.070756	-1.100297	-0.343443
C162	C	1.320756	-0.850297	-0.093443
C163	C	1.570756	-0.600297	0.156557
C164	C	1.820756	-0.350297	0.406557
C165	C	1.073722	-1.026948	-0.340430
C166	C	1.323722	-0.776948	-0.090430
C167	C	1.573722	-0.526948	0.159570
C168	C	1.823722	-0.276948	0.409570
C169	C	1.032151	-0.990216	-0.381967
C170	C	1.282151	-0.740216	-0.131967
C171	C	1.532151	-0.490216	0.118033
C172	C	1.782151	-0.240216	0.368033
C173	C	0.995698	-0.880340	-0.418339
C174	C	1.245698	-0.630340	-0.168339
C175	C	1.495698	-0.380340	0.081661
C176	C	1.745698	-0.130340	0.331661
C177	C	1.035193	-0.915243	-0.378887
C178	C	1.285193	-0.665243	-0.128887
C179	C	1.535193	-0.415243	0.121113
C180	C	1.785193	-0.165243	0.371113
C181	C	1.198582	-0.406322	-0.406771
C182	C	1.448582	-0.156322	-0.156771
C183	C	1.698582	0.093678	0.093229
C184	C	1.948582	0.343678	0.343229
C185	C	1.276651	-0.409807	-0.410255
C186	C	1.526651	-0.159807	-0.160255
C187	C	1.776651	0.090193	0.089745
C188	C	2.026651	0.340193	0.339745
C189	C	1.023120	-0.405996	-0.582447
C190	C	1.273120	-0.155996	-0.332447
C191	C	1.523120	0.094004	-0.082447
C192	C	1.773120	0.344004	0.167553
C193	C	1.026418	-0.409342	-0.660793
C194	C	1.276418	-0.159342	-0.410793
C195	C	1.526418	0.090658	-0.160793
C196	C	1.776418	0.340658	0.089207
C197	C	1.022973	-0.214968	-0.391160
C198	C	1.272973	0.035032	-0.141160
C199	C	1.522973	0.285032	0.108840
C200	C	1.772973	0.535032	0.358840
C201	C	1.026208	-0.136910	-0.387990
C202	C	1.276208	0.113090	-0.137990
C203	C	1.526208	0.363090	0.112010
C204	C	1.776208	0.613090	0.362010
C205	C	1.007715	-0.390272	-0.215463
C206	C	1.257715	-0.140272	0.034537
C207	C	1.507715	0.109728	0.284537
C208	C	1.757715	0.359728	0.534537
C209	C	1.004561	-0.386734	-0.137116
C210	C	1.254561	-0.136734	0.112884
C211	C	1.504561	0.113266	0.362884
C212	C	1.754561	0.363266	0.612884
C213	C	1.046471	-0.431674	-0.104101
C214	C	1.296471	-0.181674	0.145899
C215	C	1.546471	0.068326	0.395899
C216	C	1.796471	0.318326	0.645899
C217	C	1.043497	-0.428354	-0.030485
C218	C	1.293497	-0.178354	0.219515
C219	C	1.543497	0.071646	0.469515
C220	C	1.793497	0.321646	0.719515
C221	C	0.998617	-0.380090	0.010115
C222	C	1.248617	-0.130090	0.260115
C223	C	1.498617	0.119910	0.510115
C224	C	1.748617	0.369910	0.760115
C225	C	0.956703	-0.335148	-0.022904
C226	C	1.206703	-0.085148	0.227096
C227	C	1.456703	0.164852	0.477096
C228	C	1.706703	0.414852	0.727096
C229	C	0.959673	-0.338472	-0.096519
C230	C	1.209673	-0.088472	0.153481
C231	C	1.459673	0.161528	0.403481
C232	C	1.709673	0.411528	0.653481
C233	C	0.987474	-0.367724	0.232573
C234	C	1.237474	-0.117724	0.482573
C235	C	1.487474	0.132276	0.732573
C236	C	1.737474	0.382276	0.982573
C237	C	0.984508	-0.364402	0.306193
C238	C	1.234508	-0.114402	0.556193
C239	C	1.484508	0.135598	0.806193
C240	C	1.734508	0.385598	1.056193
C241	C	1.071302	-0.457609	0.298607
C242	C	1.321302	-0.207609	0.548607
C243	C	1.571302	0.042391	0.798607
C244	C	1.821302	0.292391	1.048607
C245	C	1.074271	-0.460926	0.224991
C246	C	1.324271	-0.210926	0.474991
C247	C	1.574271	0.039074	0.724991
C248	C	1.824271	0.289074	0.974991
C249	C	1.032355	-0.415987	0.191978
C250	C	1.282355	-0.165987	0.441978
C251	C	1.532355	0.084013	0.691978
C252	C	1.782355	0.334013	0.941978
C253	C	0.995578	-0.376693	0.085362
C254	C	1.245578	-0.126693	0.335362
C255	C	1.495578	0.123307	0.585362
C256	C	1.745578	0.373307	0.835362
C257	C	1.035390	-0.419388	0.116732
C258	C	1.285390	-0.169388	0.366732
C259	C	1.535390	0.080612	0.616732
C260	C	1.785390	0.330612	0.866732
H261	H	0.416625	-0.501137	-0.501432
H262	H	0.666625	-0.251137	-0.251432
H263	H	0.916625	-0.001137	-0.001432
H264	H	1.166625	0.248863	0.248568
Cl265	Cl	0.907872	-0.649100	-0.505990
Cl266	Cl	1.157872	-0.399100	-0.255990
Cl267	Cl	1.407872	-0.149100	-0.005990
Cl268	Cl	1.657872	0.100900	0.244010
H269	H	0.283381	-0.325001	-0.325590
H270	H	0.533381	-0.075001	-0.075590
H271	H	0.783381	0.174999	0.174410
H272	H	1.033381	0.424999	0.424410
Cl273	Cl	0.934746	-0.311259	0.191081
Cl274	Cl	1.184746	-0.061259	0.441081
Cl275	Cl	1.434746	0.188741	0.691081
Cl276	Cl	1.684746	0.438741	0.941081
H277	H	0.614844	-0.295197	-0.295817
H278	H	0.864844	-0.045197	-0.045817
H279	H	1.114844	0.204803	0.204183
H280	H	1.364844	0.454803	0.454183
Cl281	Cl	1.129735	-0.980926	-0.284441
Cl282	Cl	1.379735	-0.730926	-0.034441
Cl283	Cl	1.629735	-0.480926	0.215559
Cl284	Cl	1.879735	-0.230926	0.465559
H285	H	1.104602	-1.130212	-0.309627
H286	H	1.354602	-0.880212	-0.059627
H287	H	1.604602	-0.630212	0.190373
H288	H	1.854602	-0.380212	0.440373
H289	H	1.110817	-0.500228	0.191939
H290	H	1.360817	-0.250228	0.441939
H291	H	1.610817	-0.000228	0.691939
H292	H	1.860817	0.249772	0.941939
Cl293	Cl	0.267325	-0.515270	-0.515544
Cl294	Cl	0.517325	-0.265270	-0.265544
Cl295	Cl	0.767325	-0.015270	-0.015544
Cl296	Cl	1.017325	0.234730	0.234456
Cl297	Cl	0.901165	-0.814655	-0.512792
Cl298	Cl	1.151165	-0.564655	-0.262792
Cl299	Cl	1.401165	-0.314655	-0.012792
Cl300	Cl	1.651165	-0.064655	0.237208
H301	H	1.071465	-0.885431	-0.342623
H302	H	1.321465	-0.635431	-0.092623
H303	H	1.571465	-0.385431	0.157377
H304	H	1.821465	-0.135431	0.407377
Cl305	Cl	0.544504	-0.480683	-0.481020
Cl306	Cl	0.794504	-0.230683	-0.231020
Cl307	Cl	1.044504	0.019317	0.018980
Cl308	Cl	1.294504	0.269317	0.268980
H309	H	1.077132	-0.798658	-0.336894
H310	H	1.327132	-0.548658	-0.086894
H311	H	1.577132	-0.298658	0.163106
H312	H	1.827132	-0.048658	0.413106
H313	H	0.925547	-0.301877	-0.123398
H314	H	1.175547	-0.051877	0.126602
H315	H	1.425547	0.198123	0.376602
H316	H	1.675547	0.448123	0.626602
H317	H	0.416450	-0.330927	-0.331491
H318	H	0.666450	-0.080927	-0.081491
H319	H	0.916450	0.169073	0.168509
H320	H	1.166450	0.419073	0.418509
H321	H	0.747926	-0.301115	-0.301723
H322	H	0.997926	-0.051115	-0.051723
H323	H	1.247926	0.198885	0.198277
H324	H	1.497926	0.448885	0.448277
H325	H	0.503229	-0.337141	-0.337692
H326	H	0.753229	-0.087141	-0.087692
H327	H	1.003229	0.162859	0.162308
H328	H	1.253229	0.412859	0.412308
H329	H	1.082520	-0.665598	-0.331421
H330	H	1.332520	-0.415598	-0.081421
H331	H	1.582520	-0.165598	0.168579
H332	H	1.832520	0.084402	0.418579
H333	H	0.959038	-0.337396	0.118427
H334	H	1.209038	-0.087396	0.368427
H335	H	1.459038	0.162604	0.618427
H336	H	1.709038	0.412604	0.868427
H337	H	0.947963	-0.325095	0.339248
H338	H	1.197963	-0.075095	0.589248
H339	H	1.447963	0.174905	0.839248
H340	H	1.697963	0.424905	1.089248
Cl341	Cl	0.928622	-1.146202	-0.485512
Cl342	Cl	1.178622	-0.896202	-0.235512
Cl343	Cl	1.428622	-0.646202	0.014488
Cl344	Cl	1.678622	-0.396202	0.264488
H345	H	0.953757	-0.996922	-0.460331
H346	H	1.203757	-0.746922	-0.210331
H347	H	1.453757	-0.496922	0.039669
H348	H	1.703757	-0.246922	0.289669
H349	H	0.920158	-0.295854	0.010158
H350	H	1.170158	-0.045854	0.260158
H351	H	1.420158	0.204146	0.510158
H352	H	1.670158	0.454146	0.760158
Cl353	Cl	0.939699	-0.926374	-0.474334
Cl354	Cl	1.189699	-0.676374	-0.224334
Cl355	Cl	1.439699	-0.426374	0.025666
Cl356	Cl	1.689699	-0.176374	0.275666
Cl357	Cl	1.102898	-0.492348	-0.155135
Cl358	Cl	1.352898	-0.242348	0.094865
Cl359	Cl	1.602898	0.007652	0.344865
Cl360	Cl	1.852898	0.257652	0.594865
Cl361	Cl	1.096187	-0.484851	0.011015
Cl362	Cl	1.346187	-0.234851	0.261015
Cl363	Cl	1.596187	0.015149	0.511015
Cl364	Cl	1.846187	0.265149	0.761015
Cl365	Cl	1.123992	-0.514102	0.340113
Cl366	Cl	1.373992	-0.264102	0.590113
Cl367	Cl	1.623992	-0.014102	0.840113
Cl368	Cl	1.873992	0.235898	1.090113
Cl369	Cl	1.091806	-0.480063	0.065691
Cl370	Cl	1.341806	-0.230063	0.315691
Cl371	Cl	1.591806	0.019937	0.565691
Cl372	Cl	1.841806	0.269937	0.815691
Cl373	Cl	0.764356	-0.492828	-0.493119
Cl374	Cl	1.014356	-0.242828	-0.243119
Cl375	Cl	1.264356	0.007172	0.006881
Cl376	Cl	1.514356	0.257172	0.256881
Cl377	Cl	0.598798	-0.485454	-0.485774
Cl378	Cl	0.848798	-0.235454	-0.235774
Cl379	Cl	1.098798	0.014546	0.014226
Cl380	Cl	1.348798	0.264546	0.264226
