data_functionalizedCrystal
_audit_creation_method	'MofGen! by Chris Wilmer'
_symmetry_space_group_name_H-M	'P1'
_symmetry_Int_Tables_number	1
_symmetry_cell_setting	triclinic
loop_
_symmetry_equiv_pos_as_xyz
  x,y,z
_cell_length_a	10.654543
_cell_length_b	22.610064
_cell_length_c	23.532395
_cell_angle_alpha	89.997875
_cell_angle_beta	96.337025
_cell_angle_gamma	89.996356
loop_
_atom_site_label
_atom_site_type_symbol
_atom_site_fract_x
_atom_site_fract_y
_atom_site_fract_z
O1	O	-1.665314	0.049124	0.079959
O2	O	-1.299592	0.049139	0.087584
O3	O	-1.493489	0.049124	0.000911
O4	O	-1.471417	0.049139	0.166632
O5	O	-1.493455	-0.049245	0.000924
O6	O	-1.299558	-0.049230	0.087597
O7	O	-1.665279	-0.049245	0.079972
Zn8	Zn	-1.482413	-0.064856	0.083786
Zn9	Zn	-1.482458	0.064750	0.083770
O10	O	-1.471382	-0.049230	0.166645
C11	C	-1.252794	-0.000043	0.087031
C12	C	-1.113404	-0.000038	0.085359
N13	N	-1.482391	-0.153308	0.083797
C14	C	-1.032296	-0.000034	0.136390
C15	C	-0.901325	-0.000043	0.134815
C16	C	-0.932582	-0.000057	0.031173
C17	C	-1.063551	-0.000052	0.032749
C18	C	-1.568320	-0.561956	0.045397
C19	C	-1.568326	-0.623876	0.045393
O20	O	-1.641332	-0.655901	0.012752
N21	N	-1.482457	-0.654846	0.083758
C22	C	-1.396568	-0.623892	0.122126
O23	O	-1.323530	-0.655919	0.154757
C24	C	-1.396557	-0.561973	0.122126
C25	C	-1.482440	-0.531007	0.083763
C26	C	-1.654195	-0.530990	0.007036
C27	C	-1.654189	-0.469075	0.007041
C28	C	-1.568309	-0.438125	0.045407
C29	C	-1.482434	-0.469091	0.083768
C30	C	-1.310662	-0.531020	0.160491
C31	C	-1.310658	-0.469097	0.160488
C32	C	-1.396541	-0.438131	0.122125
C33	C	-1.396549	-0.376226	0.122139
N34	N	-1.482418	-0.345257	0.083774
C35	C	-1.568298	-0.376206	0.045408
C36	C	-1.396597	-0.753925	0.122120
C37	C	-1.396614	-0.815843	0.122122
C38	C	-1.568370	-0.815823	0.045389
C39	C	-1.568359	-0.753904	0.045390
C40	C	-1.482466	-0.722956	0.083755
C41	C	-1.568281	-0.246179	0.045422
C42	C	-1.568272	-0.184258	0.045431
C43	C	-1.396511	-0.184283	0.122163
C44	C	-1.396524	-0.246199	0.122155
C45	C	-1.482414	-0.277145	0.083780
O46	O	-1.323577	-0.344162	0.154762
O47	O	-1.641313	-0.344171	0.012777
C48	C	-0.712076	-0.000058	0.080528
C49	C	-0.851464	-0.000051	0.082208
C50	C	-1.492912	-0.000061	-0.020302
C51	C	-1.491230	-0.000062	-0.083531
N52	N	-1.482490	0.153202	0.083754
C53	C	-1.471959	-0.000044	0.187858
C54	C	-1.473642	-0.000039	0.251087
C55	C	-1.480862	0.053578	0.524375
C56	C	-1.479289	0.053580	0.464965
O57	O	-1.478448	0.099182	0.434233
N58	N	-1.478492	-0.000041	0.435260
C59	C	-1.479255	-0.053668	0.464969
O60	O	-1.478431	-0.099276	0.434248
C61	C	-1.480818	-0.053668	0.524379
C62	C	-1.481628	-0.000044	0.554080
C63	C	-1.481670	0.107199	0.554076
C64	C	-1.483245	0.107197	0.613482
C65	C	-1.484011	0.053575	0.643187
C66	C	-1.483203	-0.000045	0.613486
C67	C	-1.481572	-0.107294	0.554088
C68	C	-1.483135	-0.107290	0.613501
C69	C	-1.483944	-0.053666	0.643202
C70	C	-1.485544	-0.053669	0.702597
N71	N	-1.486341	-0.000048	0.732302
C72	C	-1.485575	0.053574	0.702597
C73	C	-1.475969	-0.053662	0.340205
C74	C	-1.474415	-0.053661	0.280796
C75	C	-1.474447	0.053586	0.280796
C76	C	-1.476011	0.053585	0.340206
C77	C	-1.476766	-0.000040	0.369910
C78	C	-1.488883	0.053567	0.827354
C79	C	-1.490463	0.053560	0.886765
C80	C	-1.490424	-0.053687	0.886760
C81	C	-1.488851	-0.053681	0.827354
C82	C	-1.488076	-0.000049	0.797652
O83	O	-1.486381	-0.099248	0.733367
O84	O	-1.486382	0.099175	0.733327
H85	H	-0.835292	-0.000041	0.176370
C86	C	-1.382869	-0.145077	0.911039
C87	C	-1.491237	-0.112625	0.919425
H88	H	-1.383363	-0.181463	0.931206
H89	H	-1.309922	-0.123028	0.924816
H90	H	-1.381842	-0.152757	0.871405
H91	H	-1.492259	-0.104941	0.959058
H92	H	-1.564203	-0.134679	0.905650
C93	C	-1.475793	-0.159672	0.334228
C94	C	-1.476819	-0.112613	0.372852
H95	H	-1.476322	-0.196065	0.354381
H96	H	-1.401949	-0.157436	0.315108
H97	H	-1.548426	-0.157435	0.307004
H98	H	-1.404180	-0.114848	0.400074
H99	H	-1.550670	-0.114850	0.391982
H100	H	-0.891975	-0.000072	-0.011660
H101	H	-1.491126	0.097230	0.910944
H102	H	-1.129592	-0.000057	-0.008810
C103	C	-1.738046	-0.190467	-0.030421
C104	C	-1.662675	-0.150221	0.003256
H105	H	-1.796316	-0.169455	-0.056459
H106	H	-1.782913	-0.214617	-0.006527
H107	H	-1.686021	-0.214620	-0.051124
H108	H	-1.714699	-0.126072	0.023962
H109	H	-1.617804	-0.126062	-0.020641
H110	H	-1.326592	-0.159074	0.153401
C111	C	-1.739355	-0.315791	0.033767
C112	C	-1.662696	-0.280189	0.003241
H113	H	-1.797640	-0.336789	0.007727
H114	H	-1.784207	-0.291636	0.057663
H115	H	-1.688206	-0.343100	0.056607
H116	H	-1.713844	-0.252877	-0.019596
H117	H	-1.617841	-0.304346	-0.020665
C118	C	-1.481655	-0.213299	0.560083
C119	C	-1.480667	-0.166241	0.521451
H120	H	-1.481085	-0.249693	0.539935
H121	H	-1.555505	-0.211074	0.579199
H122	H	-1.409029	-0.211051	0.587309
H123	H	-1.553298	-0.168488	0.494228
H124	H	-1.406809	-0.168468	0.502326
C125	C	-1.368276	-0.315843	0.199547
C126	C	-1.302126	-0.280237	0.164329
H127	H	-1.309988	-0.336849	0.225583
H128	H	-1.419402	-0.343139	0.176697
H129	H	-1.420285	-0.291685	0.220252
H130	H	-1.250124	-0.304395	0.143621
H131	H	-1.250978	-0.252937	0.187181
H132	H	-1.488246	0.097239	0.803178
C133	C	-1.140878	-0.475341	0.236335
C134	C	-1.216245	-0.435080	0.202665
H135	H	-1.082601	-0.454339	0.262375
H136	H	-1.096018	-0.499488	0.212436
H137	H	-1.192905	-0.499493	0.257035
H138	H	-1.164219	-0.410930	0.181962
H139	H	-1.261109	-0.410922	0.226567
H140	H	-1.724119	-0.443866	-0.024199
H141	H	-1.072882	-0.000027	0.179228
H142	H	-1.483731	-0.150960	0.637684
C143	C	-1.483098	0.213203	0.607498
C144	C	-1.484113	0.166144	0.646126
H145	H	-1.483622	0.249596	0.627649
H146	H	-1.555723	0.210970	0.580279
H147	H	-1.409246	0.210963	0.588374
H148	H	-1.557970	0.168381	0.665247
H149	H	-1.411481	0.168378	0.673355
H150	H	-1.724128	-0.556184	-0.024209
C151	C	-1.226839	-0.809627	0.197968
C152	C	-1.302215	-0.849877	0.164296
H153	H	-1.168551	-0.830638	0.224000
H154	H	-1.278850	-0.785479	0.218672
H155	H	-1.181980	-0.785474	0.174065
H156	H	-1.347081	-0.874027	0.188198
H157	H	-1.250197	-0.874035	0.143590
C158	C	-1.738129	-0.760119	-0.030457
C159	C	-1.662753	-0.719870	0.003215
H160	H	-1.796398	-0.739108	-0.056498
H161	H	-1.782997	-0.784264	-0.006560
H162	H	-1.686107	-0.784275	-0.051157
H163	H	-1.714775	-0.695716	0.023919
H164	H	-1.617882	-0.695715	-0.020685
C165	C	-1.368350	-0.684305	0.199521
C166	C	-1.302192	-0.719908	0.164303
H167	H	-1.310067	-0.663305	0.225560
H168	H	-1.420360	-0.708460	0.220218
H169	H	-1.419476	-0.656998	0.176669
H170	H	-1.251074	-0.747219	0.187155
H171	H	-1.250160	-0.695752	0.143604
H172	H	-1.481042	0.150867	0.529897
C173	C	-1.596593	-0.885449	-0.032006
C174	C	-1.662765	-0.849850	0.003210
H175	H	-1.654867	-0.906453	-0.058045
H176	H	-1.545462	-0.912748	-0.009155
H177	H	-1.544586	-0.861287	-0.052707
H178	H	-1.714765	-0.874012	0.023914
H179	H	-1.713918	-0.822548	-0.019644
C180	C	-1.379127	-0.115895	0.766507
C181	C	-1.487991	-0.112622	0.794695
H182	H	-1.378601	-0.152281	0.746344
H183	H	-1.306517	-0.113674	0.793735
H184	H	-1.378448	-0.083953	0.740318
H185	H	-1.488667	-0.144561	0.820887
H186	H	-1.560621	-0.114848	0.767464
H187	H	-1.240728	-0.556224	0.191730
H188	H	-1.476668	0.097252	0.364385
H189	H	-1.473775	-0.097328	0.256617
C190	C	-1.472034	0.101201	0.189721
C191	C	-1.473588	0.112530	0.248137
H192	H	-1.471496	0.137589	0.169560
H193	H	-1.545007	0.079172	0.175940
H194	H	-1.398531	0.079166	0.184047
H195	H	-1.547097	0.134562	0.253812
H196	H	-1.400608	0.134569	0.261923
