data_functionalizedCrystal
_audit_creation_method	'MofGen! by Chris Wilmer'
_symmetry_space_group_name_H-M	'P1'
_symmetry_Int_Tables_number	1
_symmetry_cell_setting	triclinic
loop_
_symmetry_equiv_pos_as_xyz
  x,y,z
_cell_length_a	6.394989
_cell_length_b	10.654550
_cell_length_c	9.730223
_cell_angle_alpha	89.999957
_cell_angle_beta	89.998669
_cell_angle_gamma	85.491321
loop_
_atom_site_label
_atom_site_type_symbol
_atom_site_fract_x
_atom_site_fract_y
_atom_site_fract_z
O1	O	0.293441	1.670947	-0.114177
O2	O	0.321399	1.305765	-0.114201
O3	O	0.003431	1.493539	-0.114190
O4	O	0.611409	1.483172	-0.114188
O5	O	0.003422	1.493527	0.114390
O6	O	0.321390	1.305752	0.114379
O7	O	0.293433	1.670934	0.114403
Zn8	Zn	0.307410	1.488341	0.150683
Zn9	Zn	0.307421	1.488358	-0.150481
O10	O	0.611400	1.483160	0.114392
C11	C	0.319341	1.258939	0.000085
C12	C	0.313200	1.119430	0.000076
C13	C	0.500414	1.041927	0.000080
C14	C	0.494631	0.910845	0.000104
C15	C	0.114403	0.934782	0.000113
C16	C	0.120188	1.065861	0.000099
C17	C	0.689256	1.485216	0.000096
C18	C	0.925582	1.491480	0.000092
C19	C	0.295490	1.717760	0.000113
C20	C	0.301631	1.857269	0.000114
N21	N	0.307401	1.488339	0.356219
N22	N	0.307414	1.488369	-0.356018
C23	C	0.166665	1.571516	0.428150
C24	C	0.166665	1.571528	0.572033
C25	C	0.448157	1.405184	0.572041
C26	C	0.448144	1.405166	0.428161
H27	H	0.647080	0.847747	0.000111
O28	O	-0.061626	1.141210	0.000334
C29	C	-0.275687	1.303165	0.118700
C30	C	-0.069742	1.217887	0.118616
H31	H	-0.282296	1.365199	0.214306
H32	H	-0.414713	1.242427	0.118795
H33	H	-0.282449	1.365067	0.022990
H34	H	-0.062775	1.155971	0.214309
H35	H	0.069187	1.278699	0.118449
O36	O	0.585164	1.324454	0.641774
C37	C	0.947312	1.256629	0.685839
C38	C	0.792378	1.348112	0.606765
H39	H	1.114879	1.275742	0.657586
H40	H	0.918690	1.155570	0.657537
H41	H	0.923050	1.270906	0.801025
H42	H	0.816548	1.333949	0.491561
H43	H	0.821038	1.449138	0.635182
O44	O	0.029738	1.652342	0.358477
C45	C	-0.249388	1.817378	0.373662
C46	C	-0.094456	1.725890	0.452731
H47	H	-0.349810	1.876884	0.449831
H48	H	-0.354750	1.761555	0.306353
H49	H	-0.158184	1.881488	0.306248
H50	H	-0.185489	1.661759	0.520219
H51	H	0.010905	1.781791	0.519953
H52	H	0.657577	1.085539	0.000072
H53	H	-0.042741	0.891149	0.000141
H54	H	0.052063	1.639256	0.630595
H55	H	0.562749	1.337428	0.369591
