data_functionalizedCrystal
_audit_creation_method	'MofGen! by Chris Wilmer'
_symmetry_space_group_name_H-M	'P1'
_symmetry_Int_Tables_number	1
_symmetry_cell_setting	triclinic
loop_
_symmetry_equiv_pos_as_xyz
  x,y,z
_cell_length_a	16.120530
_cell_length_b	12.759394
_cell_length_c	12.759387
_cell_angle_alpha	90.031660
_cell_angle_beta	92.920176
_cell_angle_gamma	87.110477
loop_
_atom_site_label
_atom_site_type_symbol
_atom_site_fract_x
_atom_site_fract_y
_atom_site_fract_z
Zn1	Zn	-1.274636	0.499763	-0.675420
Zn2	Zn	-1.274549	0.675475	-0.499733
Zn3	Zn	-1.135210	0.490895	-0.490851
Zn4	Zn	-1.135204	0.666480	-0.666471
O5	O	-1.204900	0.583153	-0.583119
O6	O	-1.391292	0.530547	-0.659578
O7	O	-1.256032	0.651043	-0.351531
O8	O	-1.153744	0.345053	-0.515363
O9	O	-1.391228	0.659642	-0.530501
O10	O	-1.256180	0.351568	-0.650965
O11	O	-1.153660	0.515433	-0.345006
O12	O	-1.018542	0.506711	-0.506685
O13	O	-1.153733	0.644311	-0.814681
O14	O	-1.018537	0.635712	-0.635712
O15	O	-1.256174	0.521825	-0.821257
O16	O	-1.256026	0.821300	-0.521822
O17	O	-1.153649	0.814692	-0.644324
C18	C	-0.988289	0.569274	-0.569264
C19	C	-0.895622	0.563362	-0.563362
C20	C	-1.204850	0.856117	-0.583090
C21	C	-1.204905	0.972898	-0.583118
C22	C	-1.422356	0.597087	-0.597028
C23	C	-1.515023	0.603025	-0.602956
C24	C	-0.725959	0.552543	-0.552595
C25	C	-0.684681	0.613840	-0.613719
C26	C	-0.590274	0.607821	-0.607728
C27	C	-0.820374	0.558562	-0.558584
C28	C	-1.204963	0.583054	-0.857156
C29	C	-1.204990	0.583012	-0.973935
C30	C	-1.204973	0.309124	-0.583172
C31	C	-1.205004	0.192350	-0.583194
C32	C	-1.311589	0.979731	-0.455663
C33	C	-1.364953	1.038010	-0.391949
C34	C	-1.365002	1.147734	-0.391980
C35	C	-1.311683	1.199182	-0.455735
C36	C	-1.258319	1.140904	-0.519449
C37	C	-1.258274	1.031177	-0.519408
C38	C	-1.151640	1.134071	-0.646908
C39	C	-1.151585	1.024346	-0.646873
C40	C	-1.098321	1.185519	-0.710663
C41	C	-1.044951	1.127240	-0.774373
C42	C	-1.044904	1.017509	-0.774338
C43	C	-1.098221	0.966067	-0.710586
C44	C	-1.311668	0.455477	-0.980802
C45	C	-1.365019	0.391694	-1.039097
C46	C	-1.365039	0.391657	-1.148820
C47	C	-1.311701	0.455407	-1.200250
C48	C	-1.258350	0.519190	-1.141955
C49	C	-1.258338	0.519222	-1.032230
C50	C	-1.151669	0.646718	-1.135087
C51	C	-1.151651	0.646762	-1.025365
C52	C	-1.098331	0.710468	-1.186517
C53	C	-1.044983	0.774258	-1.128222
C54	C	-1.044965	0.774293	-1.018493
C55	C	-1.098300	0.710545	-0.967069
C56	C	-1.204885	0.583179	-0.310150
C57	C	-1.205020	0.582936	-0.193383
H58	H	-0.690399	0.495550	-0.495769
C59	C	-1.019057	0.678543	-1.338622
C60	C	-1.098350	0.710430	-1.307126
H61	H	-1.019073	0.678517	-1.413082
H62	H	-0.979659	0.725650	-1.311266
H63	H	-1.004672	0.609825	-1.312892
H64	H	-1.112734	0.779151	-1.332851
H65	H	-1.137761	0.663321	-1.334494
H66	H	-1.311544	0.890387	-0.455616
C67	C	-1.391023	0.487218	-1.362509
C68	C	-1.311718	0.455362	-1.320859
H69	H	-1.391028	0.487196	-1.436969
H70	H	-1.430411	0.440122	-1.340226
H71	H	-1.405406	0.555950	-1.338592
H72	H	-1.297337	0.386626	-1.344770
H73	H	-1.272317	0.502459	-1.343152
H74	H	-1.408445	0.339788	-0.997211
H75	H	-1.001555	0.826152	-1.170105
H76	H	-1.001511	0.826221	-0.971034
H77	H	-1.098295	0.710572	-0.877728
H78	H	-0.720243	0.670838	-0.670550
C79	C	-0.932697	0.887041	-0.781634
C80	C	-0.986245	0.953451	-0.844377
H81	H	-0.896487	0.847495	-0.824877
H82	H	-0.900842	0.927880	-0.733817
H83	H	-0.964448	0.840698	-0.743667
H84	H	-0.954494	0.999800	-0.882338
H85	H	-1.018102	0.912610	-0.892213
H86	H	-1.001547	1.169138	-0.826282
H87	H	-1.408477	0.339713	-1.196284
C88	C	-1.412246	0.872839	-0.335285
C89	C	-1.423558	0.981456	-0.321868
H90	H	-1.448424	0.837931	-0.292016
H91	H	-1.424420	0.855569	-0.406651
H92	H	-1.356224	0.851355	-0.316271
H93	H	-1.479578	1.002942	-0.340890
H94	H	-1.411390	0.998734	-0.250486
C95	C	-1.470448	1.143479	-0.265978
C96	C	-1.423658	1.211801	-0.321944
H97	H	-1.506655	1.183033	-0.222737
H98	H	-1.502307	1.102656	-0.313805
H99	H	-1.434113	1.098425	-0.223423
H100	H	-1.459994	1.256850	-0.364506
H101	H	-1.391797	1.252642	-0.274112
C102	C	-1.332855	0.556841	-0.824963
C103	C	-1.311647	0.455521	-0.860193
H104	H	-1.332846	0.556863	-0.750504
H105	H	-1.293456	0.603920	-0.847249
H106	H	-1.386655	0.578445	-0.853232
H107	H	-1.257845	0.433920	-0.831929
H108	H	-1.351049	0.408427	-0.837896
H109	H	-1.098368	1.274863	-0.710689
C110	C	-1.076942	0.807637	-0.609211
C111	C	-1.098173	0.845456	-0.710544
H112	H	-1.076921	0.733177	-0.609186
H113	H	-1.023160	0.829078	-0.587577
H114	H	-1.116356	0.834995	-0.562151
H115	H	-1.058755	0.818104	-0.757603
H116	H	-1.151962	0.824004	-0.732191
H117	H	-1.311735	1.288527	-0.455765
