data_functionalizedCrystal
_audit_creation_method	'MofGen! by Chris Wilmer'
_symmetry_space_group_name_H-M	'P1'
_symmetry_Int_Tables_number	1
_symmetry_cell_setting	triclinic
loop_
_symmetry_equiv_pos_as_xyz
  x,y,z
_cell_length_a	19.288840
_cell_length_b	13.339070
_cell_length_c	17.766277
_cell_angle_alpha	90.002206
_cell_angle_beta	90.016585
_cell_angle_gamma	99.377655
loop_
_atom_site_label
_atom_site_type_symbol
_atom_site_fract_x
_atom_site_fract_y
_atom_site_fract_z
O1	O	0.945911	0.125963	0.062721
O2	O	1.445911	0.625963	0.562721
O3	O	0.746967	0.142998	0.062695
O4	O	1.246967	0.642998	0.562695
O5	O	0.823607	-0.012676	0.062703
O6	O	1.323607	0.487324	0.562703
O7	O	0.869271	0.281637	0.062713
O8	O	1.369271	0.781637	0.562713
O9	O	0.823587	-0.012684	-0.062486
O10	O	1.323587	0.487316	0.437514
O11	O	0.746947	0.142990	-0.062494
O12	O	1.246947	0.642990	0.437506
O13	O	0.945891	0.125955	-0.062468
O14	O	1.445891	0.625955	0.437532
Cu15	Cu	0.846417	0.134472	-0.073911
Cu16	Cu	1.346417	0.634472	0.426089
Cu17	Cu	0.846441	0.134481	0.074139
Cu18	Cu	1.346441	0.634481	0.574139
O19	O	0.869251	0.281629	-0.062475
O20	O	1.369251	0.781629	0.437525
C21	C	0.720974	0.142450	0.000097
C22	C	1.220974	0.642450	0.500097
C23	C	0.643552	0.140817	0.000087
C24	C	1.143552	0.640817	0.500087
C25	C	0.607206	0.140037	0.068329
C26	C	1.107206	0.640037	0.568329
C27	C	0.534458	0.138492	0.068338
C28	C	1.034458	0.638492	0.568338
C29	C	0.498056	0.137706	0.000102
C30	C	0.998056	0.637706	0.500102
C31	C	0.534411	0.138492	-0.068150
C32	C	1.034411	0.638492	0.431850
C33	C	0.607159	0.140048	-0.068157
C34	C	1.107159	0.640048	0.431843
C35	C	0.376704	0.076038	-0.052169
C36	C	0.876704	0.576038	0.447831
C37	C	0.303957	0.074477	-0.052159
C38	C	0.803957	0.574477	0.447841
C39	C	0.273679	0.132913	0.000121
C40	C	0.773679	0.632913	0.500121
C41	C	0.316155	0.192898	0.052404
C42	C	0.816155	0.692898	0.552404
C43	C	0.388903	0.194453	0.052397
C44	C	0.888903	0.694453	0.552397
C45	C	0.419174	0.136020	0.000102
C46	C	0.919174	0.636020	0.500102
C47	C	0.158452	0.130459	0.068378
C48	C	0.658452	0.630459	0.568378
C49	C	0.085703	0.128919	0.068384
C50	C	0.585703	0.628919	0.568384
C51	C	0.085656	0.128910	-0.068106
C52	C	0.585656	0.628910	0.431894
C53	C	0.158404	0.130459	-0.068110
C54	C	0.658404	0.630459	0.431890
C55	C	0.194797	0.131228	0.000134
C56	C	0.694797	0.631228	0.500134
C57	C	0.815883	-0.050333	0.000108
C58	C	1.315883	0.449667	0.500108
C59	C	0.792890	-0.162527	0.000108
C60	C	1.292890	0.337473	0.500108
C61	C	0.971668	-0.528158	0.000131
C62	C	1.471668	-0.028158	0.500131
C63	C	0.993273	-0.422747	0.000127
C64	C	1.493273	0.077253	0.500127
C65	C	0.943179	-0.357687	0.000123
C66	C	1.443179	0.142313	0.500123
C67	C	0.871477	-0.398048	0.000122
C68	C	1.371477	0.101952	0.500122
C69	C	0.849870	-0.503470	0.000120
C70	C	1.349870	-0.003470	0.500120
C71	C	0.821381	-0.332999	0.000112
C72	C	1.321381	0.167001	0.500112
C73	C	0.749679	-0.373360	0.000111
C74	C	1.249679	0.126640	0.500111
C75	C	0.728075	-0.478772	0.000110
C76	C	1.228075	0.021228	0.500110
C77	C	0.778169	-0.543832	0.000114
C78	C	1.278169	-0.043832	0.500114
C79	C	0.842988	-0.227577	0.000113
C80	C	1.342988	0.272423	0.500113
C81	C	0.721190	-0.202889	0.000102
C82	C	1.221190	0.297111	0.500102
C83	C	0.699585	-0.308300	0.000107
C84	C	1.199585	0.191700	0.500107
C85	C	0.971883	0.126503	0.000132
C86	C	1.471883	0.626503	0.500132
C87	C	1.049306	0.128136	0.000147
C88	C	1.549306	0.628136	0.500147
C89	C	0.876975	0.319286	0.000120
C90	C	1.376975	0.819286	0.500120
C91	C	0.899967	0.431480	0.000125
C92	C	1.399967	0.931480	0.500125
N93	N	0.846405	0.134465	-0.178042
N94	N	1.346405	0.634465	0.321958
C95	C	0.880363	0.065566	-0.217425
C96	C	1.380363	0.565566	0.282575
C97	C	0.880366	0.065561	-0.296227
C98	C	1.380366	0.565561	0.203773
C99	C	0.846421	0.134473	-0.335642
C100	C	1.346421	0.634473	0.164358
C101	C	0.812456	0.203377	-0.296249
C102	C	1.312456	0.703377	0.203751
C103	C	0.812448	0.203373	-0.217449
C104	C	1.312448	0.703373	0.282551
C105	C	0.855068	0.226564	-0.460478
C106	C	1.355068	0.726564	0.039522
C107	C	0.855082	0.226570	-0.539277
C108	C	1.355082	0.726570	-0.039277
C109	C	0.846442	0.134485	-0.578689
C110	C	1.346442	0.634485	-0.078689
C111	C	0.837803	0.042390	-0.539292
C112	C	1.337803	0.542390	-0.039292
C113	C	0.837795	0.042386	-0.460492
C114	C	1.337795	0.542386	0.039508
C115	C	0.846426	0.134484	-0.421088
C116	C	1.346426	0.634484	0.078912
C117	C	0.880405	0.065575	-0.703518
C118	C	1.380405	0.565575	-0.203518
C119	C	0.880403	0.065569	-0.782321
C120	C	1.380403	0.565569	-0.282321
C121	C	0.812498	0.203393	-0.782342
C122	C	1.312498	0.703393	-0.282342
C123	C	0.812495	0.203391	-0.703540
C124	C	1.312495	0.703391	-0.203540
C125	C	0.846452	0.134483	-0.664133
C126	C	1.346452	0.634483	-0.164133
N127	N	0.846457	0.134480	0.178269
N128	N	1.346457	0.634480	0.678269
H129	H	0.187996	0.131087	-0.123680
H130	H	0.687996	0.631087	0.376320
H131	H	0.269377	0.025628	-0.094727
H132	H	0.769377	0.525628	0.405273
H133	H	0.862120	0.301558	-0.571347
H134	H	1.362120	0.801558	-0.071347
H135	H	0.423485	0.243298	0.094965
H136	H	0.923485	0.743298	0.594965
Cl137	Cl	0.652954	0.141010	0.154122
Cl138	Cl	1.152954	0.641010	0.654122
Cl139	Cl	0.826947	-0.073382	-0.588830
Cl140	Cl	1.326947	0.426618	-0.088830
Cl141	Cl	0.039901	0.127932	-0.153891
Cl142	Cl	0.539901	0.627932	0.346109
Cl143	Cl	0.826928	-0.073383	-0.410967
Cl144	Cl	1.326928	0.426617	0.089033
H145	H	0.504860	0.137858	0.123911
H146	H	1.004860	0.637858	0.623911
Cl147	Cl	0.933124	-0.176850	0.000114
Cl148	Cl	1.433124	0.323150	0.500114
Cl149	Cl	0.769818	0.290018	-0.831887
Cl150	Cl	1.269818	0.790018	-0.331887
Cl151	Cl	0.970341	-0.225168	0.000122
Cl152	Cl	1.470341	0.274832	0.500122
H153	H	1.012447	-0.581138	0.000129
H154	H	1.512447	-0.081138	0.500129
H155	H	0.401349	0.028450	-0.094746
H156	H	0.901349	0.528450	0.405254
Cl157	Cl	0.278101	0.266371	0.118129
Cl158	Cl	0.778101	0.766371	0.618129
H159	H	1.051653	-0.389892	0.000127
H160	H	1.551653	0.110108	0.500127
Cl161	Cl	0.488650	0.137511	-0.153933
Cl162	Cl	0.988650	0.637511	0.346067
Cl163	Cl	0.923089	-0.021057	-0.653976
Cl164	Cl	1.423089	0.478943	-0.153976
Cl165	Cl	0.923091	-0.021059	-0.831835
Cl166	Cl	1.423091	0.478941	-0.331835
Cl167	Cl	0.658210	-0.121107	0.000092
Cl168	Cl	1.158210	0.378893	0.500092
Cl169	Cl	0.751011	-0.676356	0.000209
Cl170	Cl	1.251011	-0.176356	0.500209
H171	H	0.908019	0.009453	-0.328299
H172	H	1.408019	0.509453	0.171701
H173	H	0.908011	0.009455	-0.185342
H174	H	1.408011	0.509455	0.314658
H175	H	0.784846	0.259499	-0.671472
H176	H	1.284846	0.759499	-0.171472
Cl177	Cl	0.652852	0.141027	-0.153954
Cl178	Cl	1.152852	0.641027	0.346046
H179	H	0.862093	0.301556	-0.428395
H180	H	1.362093	0.801556	0.071605
H181	H	0.784816	0.259484	-0.328345
H182	H	1.284816	0.759484	0.171655
Cl183	Cl	0.769755	0.289996	-0.167935
Cl184	Cl	1.269755	0.789996	0.332065
H185	H	0.188086	0.131096	0.123946
H186	H	0.688086	0.631096	0.623946
H187	H	0.669691	-0.511631	0.000104
H188	H	1.169691	-0.011631	0.500104
H189	H	0.056112	0.128290	0.123957
H190	H	0.556112	0.628290	0.623957
Cl191	Cl	0.609447	-0.359054	0.000107
Cl192	Cl	1.109447	0.140946	0.500107
