data_functionalizedCrystal
_audit_creation_method	'MofGen! by Chris Wilmer'
_symmetry_space_group_name_H-M	'P1'
_symmetry_Int_Tables_number	1
_symmetry_cell_setting	triclinic
loop_
_symmetry_equiv_pos_as_xyz
  x,y,z
_cell_length_a	21.295420
_cell_length_b	21.295417
_cell_length_c	17.637464
_cell_angle_alpha	101.172195
_cell_angle_beta	101.197421
_cell_angle_gamma	90.026289
loop_
_atom_site_label
_atom_site_type_symbol
_atom_site_fract_x
_atom_site_fract_y
_atom_site_fract_z
Zn1	Zn	0.890297	-0.322632	-0.446878
Zn2	Zn	0.911513	-0.406623	-0.314697
Zn3	Zn	0.806330	-0.301368	-0.314721
Zn4	Zn	0.784998	-0.427851	-0.446824
O5	O	0.848284	-0.364619	-0.380780
O6	O	0.981198	-0.333789	-0.429356
O7	O	0.915367	-0.374877	-0.204096
O8	O	0.817517	-0.216104	-0.332285
O9	O	0.996786	-0.395497	-0.332243
O10	O	0.879207	-0.231728	-0.429380
O11	O	0.838089	-0.297546	-0.204114
O12	O	0.715413	-0.318131	-0.332233
O13	O	0.781159	-0.431677	-0.557435
O14	O	0.699740	-0.411058	-0.429288
O15	O	0.858522	-0.354374	-0.557474
O16	O	0.894682	-0.497523	-0.332191
O17	O	0.801732	-0.513119	-0.429264
C18	C	0.684736	-0.364591	-0.380757
C19	C	0.614767	-0.364597	-0.380767
C20	C	0.107174	-0.332598	-0.431441
C21	C	0.172917	-0.332593	-0.431441
C22	C	0.213922	-0.364641	-0.380798
C23	C	0.189178	-0.396709	-0.330167
C24	C	0.123436	-0.396718	-0.330174
N25	N	0.328272	-0.358244	-0.311591
N26	N	0.390724	-0.358232	-0.311586
C27	C	0.412001	-0.364616	-0.380775
N28	N	0.368466	-0.371001	-0.449970
N29	N	0.306008	-0.371009	-0.449974
C30	C	0.285210	-0.364635	-0.380785
C31	C	0.508022	-0.332548	-0.431407
C32	C	0.573766	-0.332548	-0.431409
C33	C	0.590027	-0.396660	-0.330128
C34	C	0.524284	-0.396665	-0.330133
C35	C	0.483285	-0.364605	-0.380772
C36	C	0.848209	-0.528163	-0.380736
C37	C	0.848230	-0.598133	-0.380744
C38	C	0.896657	-0.622865	-0.330249
C39	C	0.896683	-0.688611	-0.330267
C40	C	0.848273	-0.729619	-0.380771
C41	C	0.799842	-0.704880	-0.431275
C42	C	0.799821	-0.639137	-0.431262
N43	N	0.792236	-0.833850	-0.386789
N44	N	0.792259	-0.896303	-0.386797
C45	C	0.848336	-0.927701	-0.380816
N46	N	0.904394	-0.894285	-0.374811
N47	N	0.904370	-0.831826	-0.374799
C48	C	0.848292	-0.800908	-0.380792
C49	C	0.896796	-1.023723	-0.330339
C50	C	0.896823	-1.089470	-0.330362
C51	C	0.799977	-1.105737	-0.431366
C52	C	0.799955	-1.039992	-0.431347
C53	C	0.848364	-0.998988	-0.380829
C54	C	1.012471	-0.364647	-0.380803
C55	C	1.082437	-0.364659	-0.380812
C56	C	0.815094	-0.397766	-0.586935
C57	C	0.800951	-0.411891	-0.674786
C58	C	0.848374	-0.200438	-0.380841
C59	C	0.848413	-0.130474	-0.380867
C60	C	0.740741	-0.472044	-0.798588
C61	C	0.754036	-0.458767	-0.716039
C62	C	0.834592	-0.378276	-0.716072
C63	C	0.821306	-0.391549	-0.798623
C64	C	0.774380	-0.438434	-0.839875
C65	C	0.854944	-0.357938	-0.839910
C66	C	0.841657	-0.371208	-0.922454
C67	C	0.794732	-0.418089	-0.963711
C68	C	0.761093	-0.451703	-0.922419
C69	C	0.901867	-0.311051	-0.798657
C70	C	0.935505	-0.277440	-0.839943
C71	C	0.922221	-0.290713	-0.922489
C72	C	0.875296	-0.337594	-0.963746
C73	C	0.955861	-0.257098	-0.963781
C74	C	0.942573	-0.270368	-1.046325
C75	C	0.862009	-0.350864	-1.046290
C76	C	0.881382	-0.331555	-0.175427
C77	C	0.895647	-0.317253	-0.087576
H78	H	0.504144	-0.422769	-0.288903
H79	H	0.936075	-0.589482	-0.289117
H80	H	0.936120	-0.708753	-0.289149
H81	H	0.973711	-0.239265	-0.806345
C82	C	0.950095	-1.116681	-0.274816
C83	C	0.993991	-1.167336	-0.309130
C84	C	1.047264	-1.194549	-0.253584
C85	C	1.056642	-1.171106	-0.163724
C86	C	1.012745	-1.120447	-0.129405
C87	C	0.959472	-1.093235	-0.184952
H88	H	0.987050	-1.184693	-0.375654
H89	H	1.079759	-1.232050	-0.278989
H90	H	1.096078	-1.191250	-0.122605
H91	H	1.019686	-1.103091	-0.062882
H92	H	0.926977	-1.055734	-0.159546
H93	H	0.994063	-0.218921	-0.930182
C94	C	0.916486	-0.296458	-0.707857
C95	C	0.984276	-0.305377	-0.662464
C96	C	0.998895	-0.290786	-0.571665
C97	C	0.945724	-0.267276	-0.526259
C98	C	0.877930	-0.258356	-0.571653
C99	C	0.863311	-0.272947	-0.662452
H100	H	1.023640	-0.322781	-0.696075
H101	H	1.049081	-0.297390	-0.538062
H102	H	0.956546	-0.256476	-0.459045
H103	H	0.838566	-0.240952	-0.538042
H104	H	0.813125	-0.266343	-0.696055
H105	H	0.760519	-1.019853	-0.472460
C106	C	0.689138	-0.523631	-0.843984
C107	C	0.696081	-0.593365	-0.832616
C108	C	0.644486	-0.644953	-0.878017
C109	C	0.585949	-0.626807	-0.934786
C110	C	0.579004	-0.557070	-0.946156
C111	C	0.630599	-0.505482	-0.900755
H112	H	0.739415	-0.606800	-0.790590
H113	H	0.649628	-0.696577	-0.869600
H114	H	0.547756	-0.664996	-0.968395
H115	H	0.535670	-0.543635	-0.988182
H116	H	0.625457	-0.453858	-0.909173
H117	H	0.760428	-0.738274	-0.472397
H118	H	0.760385	-0.619000	-0.472381
H119	H	0.936215	-0.990336	-0.289206
C120	C	0.746723	-1.150838	-0.486920
C121	C	0.746743	-1.223154	-0.486937
C122	C	0.693488	-1.268259	-0.542494
C123	C	0.640214	-1.241048	-0.598034
C124	C	0.640192	-1.168729	-0.598019
C125	C	0.693447	-1.123624	-0.542461
H126	H	0.786181	-1.243300	-0.445821
H127	H	0.693504	-1.321795	-0.542505
H128	H	0.600792	-1.274438	-0.639160
H129	H	0.600753	-1.148583	-0.639134
H130	H	0.693430	-1.070088	-0.542450
C131	C	0.810406	-0.402450	-1.091686
C132	C	0.817348	-0.472184	-1.080318
C133	C	0.765754	-0.523772	-1.125719
C134	C	0.707217	-0.505627	-1.182488
C135	C	0.700272	-0.435889	-1.193858
C136	C	0.751866	-0.384301	-1.148457
H137	H	0.860683	-0.485620	-1.038292
H138	H	0.770895	-0.575396	-1.117301
H139	H	0.669024	-0.543815	-1.216096
H140	H	0.656937	-0.422454	-1.235884
H141	H	0.746725	-0.332677	-1.156874
H142	H	0.783910	-0.428888	-1.030924
C143	C	0.200142	-0.297319	-0.487127
C144	C	0.176660	-0.316996	-0.576971
C145	C	0.203885	-0.281721	-0.632654
C146	C	0.254591	-0.226769	-0.598494
C147	C	0.278075	-0.207089	-0.508646
C148	C	0.250851	-0.242364	-0.452962
H149	H	0.139122	-0.357678	-0.602262
H150	H	0.186500	-0.296290	-0.699166
H151	H	0.274744	-0.200656	-0.639714
H152	H	0.315613	-0.166407	-0.483354
H153	H	0.268236	-0.227795	-0.386450
H154	H	0.969962	-0.242996	-1.079941
H155	H	0.726628	-0.486128	-0.682427
C156	C	0.709489	-0.503290	-0.967814
C157	C	0.716432	-0.573024	-0.956447
C158	C	0.664837	-0.624612	-1.001848
C159	C	0.606301	-0.606466	-1.058616
C160	C	0.599356	-0.536729	-1.069987
C161	C	0.650950	-0.485141	-1.024586
H162	H	0.759766	-0.586459	-0.914421
H163	H	0.669979	-0.676236	-0.993430
H164	H	0.568107	-0.644655	-1.092225
H165	H	0.556021	-0.523294	-1.112013
H166	H	0.645808	-0.433517	-1.033003
H167	H	0.073797	-0.306495	-0.472678
H168	H	0.222568	-0.422805	-0.288935
C169	C	0.096223	-0.431984	-0.274475
C170	C	0.061008	-0.394669	-0.212488
C171	C	0.033794	-0.429933	-0.156786
C172	C	0.041795	-0.502512	-0.163072
C173	C	0.077011	-0.539831	-0.225061
C174	C	0.104224	-0.504567	-0.280763
H175	H	0.055085	-0.340938	-0.207832
H176	H	0.007725	-0.402306	-0.110898
H177	H	0.021649	-0.528617	-0.121838
H178	H	0.082934	-0.593563	-0.229716
H179	H	0.130294	-0.532194	-0.326651
H180	H	0.474640	-0.306444	-0.472640
H181	H	0.593904	-0.306443	-0.472642
H182	H	0.623412	-0.422760	-0.288900
H183	H	0.872797	-0.340101	-0.682474
