data_functionalizedCrystal
_audit_creation_method	'MofGen! by Chris Wilmer'
_symmetry_space_group_name_H-M	'P1'
_symmetry_Int_Tables_number	1
_symmetry_cell_setting	triclinic
loop_
_symmetry_equiv_pos_as_xyz
  x,y,z
_cell_length_a	14.395555
_cell_length_b	18.760492
_cell_length_c	18.760487
_cell_angle_alpha	90.032206
_cell_angle_beta	60.022033
_cell_angle_gamma	59.996973
loop_
_atom_site_label
_atom_site_type_symbol
_atom_site_fract_x
_atom_site_fract_y
_atom_site_fract_z
Zr1	Zr	1.016791	-0.093132	0.686711
O2	O	1.210587	-0.207020	0.572905
O3	O	0.822995	-0.058217	0.721596
O4	O	1.016791	-0.206926	0.721608
O5	O	1.016791	0.058992	0.572887
O6	O	1.016791	-0.206854	0.838911
O7	O	1.016791	-0.058311	0.572893
O8	O	0.670125	0.059160	0.838889
O9	O	1.363457	-0.207022	0.572909
O10	O	0.902706	-0.043274	0.824019
O11	O	0.902706	0.044214	0.736473
O12	O	1.130876	-0.130873	0.736487
O13	O	1.130876	-0.043385	0.648941
Zr14	Zr	1.016790	0.094068	0.873786
Zr15	Zr	1.016791	-0.093016	0.873796
Zr16	Zr	1.016791	0.093953	0.686702
Zr17	Zr	1.260600	-0.093134	0.686717
Zr18	Zr	0.772981	0.094071	0.873781
O19	O	1.210586	0.059154	0.838902
O20	O	1.210587	-0.206857	0.838915
O21	O	1.210587	0.058990	0.572891
O22	O	0.822994	0.207957	0.987592
O23	O	0.822995	-0.058053	0.987606
O24	O	0.822995	0.207793	0.721582
O25	O	1.016790	-0.058056	0.987610
O26	O	1.016790	0.207863	0.838889
O27	O	1.016790	0.207791	0.721586
O28	O	1.016790	0.059247	0.987604
O29	O	1.363456	-0.206930	0.721616
O30	O	0.670125	0.207867	0.838881
O31	O	0.670125	0.207959	0.987589
O32	O	0.670125	0.059251	0.987596
O33	O	1.363456	-0.058315	0.572901
O34	O	1.363456	-0.058223	0.721608
O35	O	0.902705	0.131809	0.824010
O36	O	0.902705	0.044321	0.911557
O37	O	1.130875	-0.043277	0.824025
O38	O	1.130875	0.044211	0.736478
C39	C	0.711822	0.000472	0.780242
C40	C	0.608319	0.000473	0.780239
C41	C	1.016791	0.000324	0.546234
C42	C	1.016791	0.000275	0.466812
C43	C	1.016790	0.234482	0.780237
C44	C	1.016790	0.313905	0.780232
C45	C	0.547727	0.048178	0.732508
C46	C	0.561983	-0.034161	0.697920
C47	C	0.409667	0.082787	0.814806
C48	C	0.624002	-0.081914	0.745603
C49	C	0.471622	0.035093	0.862535
C50	C	0.485925	-0.047295	0.827968
C51	C	1.321759	0.000465	0.780256
C52	C	1.425262	0.000464	0.780258
C53	C	1.016791	-0.233546	0.780261
C54	C	1.016791	-0.312968	0.780265
C55	C	0.897684	0.695447	0.825955
C56	C	1.135897	0.603989	0.734570
C57	C	1.135899	0.529367	0.734561
C58	C	1.016791	0.537782	0.780251
C59	C	0.897682	0.620820	0.825950
C60	C	1.255006	0.446324	0.688871
C61	C	1.255013	0.371696	0.688861
C62	C	1.135904	0.380110	0.734547
C63	C	1.016790	0.463154	0.780246
C64	C	0.897682	0.471570	0.825936
C65	C	0.778566	0.554613	0.871631
C66	C	0.778573	0.629234	0.871635
C67	C	1.135898	0.305489	0.734543
C68	C	0.897680	0.396942	0.825931
C69	C	1.135898	-0.045105	0.085304
C70	C	0.897684	0.046349	0.176694
C71	C	0.897682	0.046274	0.251316
C72	C	1.016790	0.000508	0.242935
C73	C	1.135899	-0.045184	0.159932
C74	C	0.778575	0.091957	0.334324
C75	C	0.778568	0.091883	0.408952
C76	C	0.897677	0.046121	0.400572
C77	C	1.016791	0.000429	0.317562
C78	C	1.135899	-0.045337	0.309181
C79	C	1.255015	-0.091025	0.226173
C80	C	1.255008	-0.090946	0.151552
C81	C	0.897684	0.046042	0.475193
C82	C	1.135901	-0.045416	0.383809
C83	C	1.016790	0.000612	1.014263
C84	C	1.016790	0.000661	1.093685
C85	C	0.711822	0.000616	1.014256
C86	C	0.608318	0.000666	1.093676
C87	C	0.711822	0.234486	0.780230
C88	C	0.608318	0.313909	0.780223
C89	C	0.711822	0.234630	1.014244
C90	C	0.608318	0.314102	1.093660
C91	C	1.321760	-0.233693	0.546254
C92	C	1.425263	-0.313166	0.466838
C93	C	1.321759	0.000321	0.546241
C94	C	1.425263	0.000271	0.466821
C95	C	1.321759	-0.233549	0.780268
C96	C	1.425263	-0.312973	0.780274
C97	C	0.559712	-0.045043	1.085279
C98	C	0.462473	-0.045013	1.159895
C99	C	0.413835	0.000731	1.242908
C100	C	0.462451	0.046440	1.251303
C101	C	0.559695	0.046405	1.176688
C102	C	0.559712	0.396939	0.825913
C103	C	0.462473	0.471573	0.825904
C104	C	0.413836	0.463175	0.780209
C105	C	0.462452	0.380137	0.734513
C106	C	0.559696	0.305505	0.734517
C107	C	0.559712	0.305756	1.176660
C108	C	0.462472	0.380421	1.251287
C109	C	0.413835	0.463433	1.242911
C110	C	0.462451	0.471778	1.159902
C111	C	0.559695	0.397113	1.085277
C112	C	1.473881	-0.304819	0.383837
C113	C	1.571151	-0.379485	0.309210
C114	C	1.619794	-0.462496	0.317586
C115	C	1.571171	-0.470841	0.400596
C116	C	1.473910	-0.396176	0.475220
C117	C	1.473879	0.045971	0.475219
C118	C	1.571145	0.045921	0.400602
C119	C	1.619786	0.000175	0.317590
C120	C	1.571166	-0.045531	0.309194
C121	C	1.473908	-0.045486	0.383810
C122	C	1.473869	-0.304547	0.825979
C123	C	1.571109	-0.379167	0.826002
C124	C	1.619747	-0.462211	0.780315
C125	C	1.571131	-0.470636	0.734609
C126	C	1.473886	-0.396017	0.734592
H127	H	0.574952	0.088460	0.692088
C128	C	0.409001	0.371222	1.342589
N129	N	0.368725	0.364291	1.411355
C130	C	0.766650	0.406210	0.876193
N131	N	0.667956	0.413191	0.914051
C132	C	0.306852	0.545282	0.780221
N133	N	0.226265	0.607128	0.780238
H134	H	1.698930	-0.522964	0.780336
H135	H	0.599302	0.403794	0.863124
H136	H	1.610682	-0.372290	0.863219
C137	C	0.647552	0.563859	0.921888
N138	N	0.548875	0.570819	0.959739
H139	H	1.610747	-0.538261	0.697413
C140	C	0.612201	-0.073724	0.603911
N141	N	0.650020	-0.103516	0.533103
C142	C	1.266908	0.594737	0.684326
N143	N	1.365590	0.587770	0.646482
H144	H	0.422902	-0.082235	1.153042
C145	C	0.408929	0.370914	0.684256
N146	N	0.368606	0.363969	0.646407
C147	C	1.624599	0.096211	0.409857
N148	N	1.664855	0.134092	0.416830
H149	H	1.698980	0.000145	0.256840
H150	H	1.232879	-0.082300	0.017717
C151	C	0.421415	0.074691	0.956527
N152	N	0.383594	0.104525	1.027324
H153	H	0.681595	0.696852	0.908839
C154	C	1.386015	0.437075	0.638633
N155	N	1.484696	0.430110	0.600796
C156	C	0.766662	0.786792	0.876332
N157	N	0.667976	0.855595	0.914320
H158	H	1.434282	-0.237234	0.377001
C159	C	1.386042	0.280355	0.638570
N160	N	1.484734	0.211555	0.600679
H161	H	1.434328	-0.082698	0.376960
C162	C	0.613202	0.214450	1.185895
N163	N	0.653492	0.145680	1.192858
H164	H	0.334652	0.524222	1.303683
C165	C	0.408925	0.563099	1.150703
N166	N	0.368598	0.631884	1.143777
H167	H	1.434326	-0.402983	0.542801
C168	C	0.613138	0.214173	0.684262
N169	N	0.653384	0.145383	0.646408
H170	H	1.434322	-0.402890	0.697370
H171	H	0.681577	0.129084	0.476534
H172	H	0.800712	0.083607	0.183511
C173	C	1.624681	-0.562162	0.409794
N174	N	1.664978	-0.630948	0.416720
C175	C	1.624615	-0.370285	0.217908
N176	N	1.664882	-0.363354	0.149142
C177	C	1.726773	-0.544622	0.235487
N178	N	1.807345	-0.606476	0.173647
H179	H	0.422901	0.539180	0.863118
H180	H	1.232894	-0.082675	0.376974
C181	C	1.420398	0.096295	0.566526
N182	N	1.380129	0.134196	0.635297
C183	C	0.747705	-0.176007	0.706002
N184	N	0.840882	-0.246875	0.676171
H185	H	0.599258	0.403921	1.017697
C186	C	1.420379	-0.213204	0.876247
N187	N	1.380089	-0.144407	0.914117
C188	C	0.285910	0.176836	0.854295
N189	N	0.192703	0.247674	0.884031
C190	C	0.306855	0.000767	1.324979
N191	N	0.226272	0.000795	1.386792
C192	C	1.624667	-0.095835	0.217872
N193	N	1.664957	-0.133715	0.149086
H194	H	0.458982	-0.087698	0.868331
C195	C	1.386029	-0.141369	0.216965
N196	N	1.484706	-0.179286	0.210034
H197	H	1.351986	-0.128141	0.083962
C198	C	0.647566	0.142293	0.343535
N199	N	0.548885	0.180209	0.350471
H200	H	1.232880	0.237879	0.697342
H201	H	0.800701	0.083248	0.542775
H202	H	0.599312	-0.082303	1.017692
C203	C	0.408926	0.096762	1.342625
N204	N	0.368600	0.134670	1.411412
H205	H	0.599258	0.083631	1.183537
