data_functionalizedCrystal
_audit_creation_method	'MofGen! by Chris Wilmer'
_symmetry_space_group_name_H-M	'P1'
_symmetry_Int_Tables_number	1
_symmetry_cell_setting	triclinic
loop_
_symmetry_equiv_pos_as_xyz
  x,y,z
_cell_length_a	15.944551
_cell_length_b	15.944551
_cell_length_c	17.766277
_cell_angle_alpha	90.005497
_cell_angle_beta	90.001231
_cell_angle_gamma	83.498738
loop_
_atom_site_label
_atom_site_type_symbol
_atom_site_fract_x
_atom_site_fract_y
_atom_site_fract_z
O1	O	1.114526	0.108332	0.062517
O2	O	0.869976	0.121688	0.062536
O3	O	0.998929	-0.007265	0.062520
O4	O	0.985573	0.237285	0.062534
O5	O	0.998915	-0.007268	-0.062669
O6	O	0.869962	0.121685	-0.062652
O7	O	1.114511	0.108328	-0.062671
Cu8	Cu	0.992235	0.115006	-0.074092
Cu9	Cu	0.992252	0.115010	0.073958
O10	O	0.985559	0.237281	-0.062654
C11	C	0.838675	0.121132	-0.000056
C12	C	0.745429	0.119470	-0.000049
C13	C	0.998367	-0.038561	-0.000075
C14	C	0.996705	-0.131807	-0.000075
C15	C	0.530572	0.035565	-0.000068
C16	C	0.469559	0.074529	0.061659
C17	C	0.574703	0.116462	-0.000058
C18	C	0.469567	0.074545	-0.061767
C19	C	0.409790	0.113551	-0.000070
C20	C	0.514918	0.155448	0.061720
C21	C	0.514933	0.155453	-0.061761
C22	C	0.453937	0.194476	-0.000019
C23	C	0.669705	0.118137	-0.000050
C24	C	0.314789	0.111883	-0.000072
C25	C	0.912801	-0.346663	-0.000058
C26	C	0.951756	-0.407682	-0.061787
C27	C	0.993698	-0.302533	-0.000069
C28	C	0.951789	-0.407663	0.061639
C29	C	0.990787	-0.467445	-0.000060
C30	C	1.032675	-0.362323	-0.061849
C31	C	1.032697	-0.362297	0.061633
C32	C	1.071711	-0.423298	-0.000111
C33	C	0.995372	-0.207530	-0.000075
C34	C	0.989119	-0.562446	-0.000060
C35	C	1.145813	0.108885	-0.000078
C36	C	1.239059	0.110547	-0.000080
C37	C	0.986120	0.268577	-0.000058
C38	C	0.987782	0.361823	-0.000053
N39	N	0.992230	0.115003	-0.178223
C40	C	1.049366	0.057922	-0.782519
C41	C	1.049368	0.057924	-0.703717
C42	C	0.992252	0.115002	-0.664312
C43	C	0.935146	0.172098	-0.703714
C44	C	0.935152	0.172100	-0.782515
C45	C	0.915749	0.125969	-0.539474
C46	C	0.915742	0.125961	-0.460675
C47	C	0.992234	0.115001	-0.421265
C48	C	1.068737	0.104031	-0.460664
C49	C	1.068743	0.104033	-0.539465
C50	C	0.992240	0.115007	-0.578866
C51	C	1.049342	0.057915	-0.296426
C52	C	1.049344	0.057923	-0.217623
C53	C	0.935116	0.172093	-0.217622
C54	C	0.935121	0.172089	-0.296423
C55	C	0.992233	0.114996	-0.335821
N56	N	0.992265	0.115006	0.178088
H57	H	0.563905	-0.031573	0.000004
F58	F	1.110146	-0.002837	-0.661785
H59	H	0.449455	0.040314	0.113840
H60	H	0.917568	-0.427738	0.113830
H61	H	1.066857	-0.342334	-0.114093
F62	F	0.834323	0.137693	-0.418751
F63	F	1.150161	0.092365	-0.581393
F64	F	1.077391	-0.335982	0.129841
H65	H	1.095872	0.011435	-0.814594
H66	H	0.420779	0.261683	0.000019
H67	H	1.138919	-0.456457	-0.000151
F68	F	1.150153	0.092361	-0.418729
H69	H	1.095849	0.011429	-0.328505
F70	F	1.110127	-0.002832	-0.175696
F71	F	0.874374	0.232859	-0.824442
F72	F	0.874335	0.232845	-0.175687
F73	F	0.874342	0.232843	-0.338352
H74	H	0.534912	0.189640	0.113962
H75	H	0.449475	0.040313	-0.113951
F76	F	0.541241	0.200138	-0.129970
H77	H	0.853455	0.134898	-0.571554
H78	H	0.845652	-0.313356	-0.000115
F79	F	0.907027	-0.433967	-0.129992
F80	F	0.874363	0.232848	-0.661776
