data_functionalizedCrystal
_audit_creation_method	'MofGen! by Chris Wilmer'
_symmetry_space_group_name_H-M	'P1'
_symmetry_Int_Tables_number	1
_symmetry_cell_setting	triclinic
loop_
_symmetry_equiv_pos_as_xyz
  x,y,z
_cell_length_a	31.640172
_cell_length_b	19.377369
_cell_length_c	19.377625
_cell_angle_alpha	44.223055
_cell_angle_beta	75.514996
_cell_angle_gamma	72.126641
loop_
_atom_site_label
_atom_site_type_symbol
_atom_site_fract_x
_atom_site_fract_y
_atom_site_fract_z
Zr1	Zr	-0.054176	0.779845	0.544475
O2	O	-0.083921	0.928497	0.403550
O3	O	-0.059135	0.631204	0.606465
O4	O	-0.127007	0.779856	0.579346
O5	O	0.053504	0.779832	0.430689
O6	O	-0.144981	0.779853	0.696643
O7	O	-0.016048	0.779844	0.430670
O8	O	-0.023569	0.513941	0.745155
O9	O	-0.067908	1.045744	0.382177
O10	O	-0.057656	0.692336	0.697741
O11	O	0.007664	0.692329	0.610217
O12	O	-0.072248	0.867348	0.578288
O13	O	-0.006928	0.867341	0.490764
Zr14	Zr	0.028085	0.779820	0.731582
Zr15	Zr	-0.082843	0.779840	0.731551
Zr16	Zr	0.056751	0.779825	0.544506
Zr17	Zr	-0.028638	0.966841	0.510388
Zr18	Zr	0.002546	0.592825	0.765670
O19	O	0.033043	0.928461	0.669592
O20	O	-0.124682	0.928490	0.669548
O21	O	0.073803	0.928468	0.403594
O22	O	0.057830	0.631169	0.872507
O23	O	-0.099895	0.631197	0.872464
O24	O	0.098590	0.631176	0.606509
O25	O	-0.079595	0.779833	0.845368
O26	O	0.100916	0.779809	0.696711
O27	O	0.118890	0.779812	0.579414
O28	O	-0.010043	0.779821	0.845387
O29	O	-0.090695	1.045740	0.530877
O30	O	0.064603	0.513926	0.745180
O31	O	0.041817	0.513922	0.893880
O32	O	-0.046356	0.513937	0.893856
O33	O	0.020264	1.045728	0.382201
O34	O	-0.002522	1.045724	0.530902
O35	O	0.046156	0.692317	0.697770
O36	O	-0.019164	0.692324	0.785293
O37	O	-0.033756	0.867336	0.665840
O38	O	0.031564	0.867329	0.578316
C39	C	-0.044991	0.545930	0.680667
C40	C	-0.055832	0.466545	0.695138
C41	C	0.079081	0.205132	0.514672
C42	C	0.068913	0.130448	0.528389
C43	C	0.000724	0.130464	0.619757
C44	C	0.010888	0.205147	0.606051
C45	C	0.050067	0.242476	0.553507
C46	C	-0.018126	0.242491	0.644886
C47	C	-0.007964	0.317171	0.631177
C48	C	0.031213	0.354507	0.578633
C49	C	0.060230	0.317156	0.539798
C50	C	-0.057307	0.205166	0.697424
C51	C	-0.086321	0.242509	0.736260
C52	C	-0.076157	0.317185	0.722557
C53	C	-0.036981	0.354522	0.670012
C54	C	-0.105174	0.354536	0.761392
C55	C	-0.095012	0.429216	0.747683
C56	C	-0.026818	0.429202	0.656303
C57	C	-0.151799	0.779858	0.637990
C58	C	-0.198891	0.779866	0.637977
C59	C	-0.500815	0.779813	0.702668
C60	C	-0.677806	0.779800	0.702690
O61	O	-0.709109	0.779753	0.757679
N62	N	-0.690034	0.779803	0.638069
C63	C	-0.658010	0.779804	0.573441
O64	O	-0.672471	0.779796	0.518484
C65	C	-0.481019	0.779810	0.573425
C66	C	-0.468795	0.779816	0.638044
C67	C	-0.488589	0.779818	0.767283
C68	C	-0.444345	0.779827	0.767273
C69	C	-0.412325	0.779830	0.702649
C70	C	-0.424550	0.779825	0.638034
C71	C	-0.448996	0.779803	0.508804
C72	C	-0.404746	0.779802	0.508807
C73	C	-0.392522	0.779808	0.573426
C74	C	-0.348286	0.779837	0.573400
N75	N	-0.336058	0.779834	0.638022
C76	C	-0.368077	0.779830	0.702646
C77	C	-0.750934	0.779802	0.573453
C78	C	-0.795181	0.779803	0.573456
C79	C	-0.814974	0.779797	0.702706
C80	C	-0.770726	0.779804	0.702698
C81	C	-0.738706	0.779799	0.638075
C82	C	-0.275160	0.779850	0.702620
C83	C	-0.230910	0.779863	0.702602
C84	C	-0.211121	0.779863	0.573355
C85	C	-0.255367	0.779856	0.573370
C86	C	-0.287386	0.779845	0.638010
O87	O	-0.316958	0.779872	0.518448
O88	O	-0.353606	0.779815	0.757610
C89	C	-0.545059	0.779804	0.702678
C90	C	-0.557285	0.779799	0.638064
C91	C	-0.525265	0.779802	0.573440
C92	C	-0.601532	0.779799	0.638066
C93	C	-0.633552	0.779795	0.702691
C94	C	-0.621324	0.779792	0.767312
C95	C	-0.577079	0.779801	0.767303
C96	C	-0.537493	0.779806	0.508818
C97	C	-0.581739	0.779798	0.508832
C98	C	-0.613758	0.779795	0.573457
C99	C	0.125708	0.779808	0.638067
C100	C	0.172799	0.779799	0.638080
C101	C	0.022812	0.779839	0.404025
C102	C	0.034982	0.779841	0.324606
C103	C	0.018899	1.013735	0.595390
C104	C	0.029741	1.093120	0.580919
C105	C	-0.116554	0.779843	0.063355
C106	C	-0.105104	0.779837	-0.011266
C107	C	-0.028475	0.779823	-0.011224
C108	C	-0.039919	0.779834	0.063395
C109	C	-0.083959	0.779842	0.100679
C110	C	-0.007325	0.779834	0.100719
C111	C	-0.018767	0.779839	0.175335
C112	C	-0.062805	0.779845	0.212626
C113	C	-0.095402	0.779848	0.175295
C114	C	0.036716	0.779818	0.063438
C115	C	0.069310	0.779818	0.100762
C116	C	0.057867	0.779830	0.175375
C117	C	0.013830	0.779836	0.212666
C118	C	0.090464	0.779827	0.212706
C119	C	0.079022	0.779832	0.287322
C120	C	0.002387	0.779841	0.287282
C121	C	-0.048904	0.779826	0.872032
C122	C	-0.061073	0.779824	0.951451
C123	C	-0.080848	0.545924	0.914671
C124	C	-0.103860	0.466537	1.008561
C125	C	0.093763	0.545905	0.680706
C126	C	0.130013	0.466512	0.695190
C127	C	0.057905	0.545899	0.914709
C128	C	0.081985	0.466504	1.008612
C129	C	-0.083997	1.013767	0.361348
C130	C	-0.108077	1.093162	0.267445
C131	C	0.054757	1.013742	0.361386
C132	C	0.077768	1.093128	0.267497
C133	C	-0.119854	1.013760	0.595352
C134	C	-0.156104	1.093153	0.580868
C135	C	-0.134764	0.429262	1.006951
C136	C	-0.156393	0.354680	1.095161
C137	C	-0.147116	0.317370	1.184981
C138	C	-0.116211	0.354652	1.186588
C139	C	-0.094584	0.429237	1.098378
C140	C	0.167133	0.429222	0.747693
C141	C	0.201200	0.354635	0.761297
C142	C	0.198144	0.317333	0.722403
C143	C	0.161020	0.354630	0.669893
C144	C	0.126956	0.429222	0.656284
C145	C	0.059196	0.429222	1.098404
C146	C	0.081818	0.354633	1.186641
C147	C	0.127228	0.317320	1.185085
C148	C	0.150019	0.354609	1.095283
C149	C	0.127397	0.429202	1.007047
C150	C	-0.085286	1.130452	0.177652
C151	C	-0.107905	1.205065	0.089410
C152	C	-0.153315	1.242381	0.090966
C153	C	-0.176106	1.205088	0.180769
C154	C	-0.153486	1.130481	0.269007
C155	C	0.108668	1.130411	0.269105
C156	C	0.130289	1.205013	0.180891
C157	C	0.121011	1.242327	0.091070
C158	C	0.090107	1.205041	0.089464
C159	C	0.068485	1.130445	0.177676
C160	C	-0.153036	1.130431	0.619775
C161	C	-0.187096	1.205019	0.606184
C162	C	-0.224223	1.242333	0.553680
C163	C	-0.227291	1.205048	0.514773
C164	C	-0.193232	1.130456	0.528370
H165	H	0.092134	0.347551	0.497011
H166	H	0.043326	1.100092	0.176354
H167	H	-0.142327	0.459640	0.933822
O168	O	-0.128580	0.202252	0.792921
H169	H	-0.120185	0.119983	0.858475
O170	O	0.114178	0.779834	0.327578
H171	H	0.116495	0.711521	0.408199
H172	H	0.126322	0.779810	0.182346
H173	H	-0.065581	0.144362	0.708578
O174	O	-0.502959	0.779805	0.439116
H175	H	-0.488023	0.848112	0.389399
O176	O	-0.142905	0.779868	0.215503
H177	H	-0.155643	0.848185	0.202859
O178	O	0.163623	1.245207	0.182642
H179	H	0.196488	1.230897	0.153438
O180	O	-0.183781	1.245222	0.648153
H181	H	-0.184342	1.327510	0.587026
O182	O	0.042178	0.435047	0.563854
H183	H	0.044916	0.502984	0.483398
O184	O	-0.177708	1.322861	-0.004210
H185	H	-0.154228	1.342514	-0.066907
H186	H	-0.031177	0.100065	0.662535
H187	H	-0.164729	0.256636	1.256801
H188	H	0.169629	0.459585	0.779367
H189	H	-0.118639	0.459623	0.779305
O190	O	0.049089	0.779777	-0.017018
H191	H	0.029893	0.848082	-0.083368
H192	H	-0.048312	1.100073	0.176367
H193	H	-0.257523	1.235441	0.472024
O194	O	-0.260954	1.322792	0.539014
H195	H	-0.264610	1.390765	0.458574
H196	H	-0.181556	0.324334	1.093834
H197	H	-0.137076	0.324141	0.804165
H198	H	0.007382	0.779812	-0.041587
O199	O	0.241234	0.314414	0.817942
H200	H	0.264413	0.256287	0.820867
O201	O	-0.225084	1.245336	0.182443
H202	H	-0.243613	1.231021	0.153230
H203	H	-0.069419	0.459577	1.099702
O204	O	0.234881	0.236863	0.737105
H205	H	0.261202	0.217194	0.780163
O206	O	-0.178072	1.090249	0.365859
H207	H	-0.213448	1.128728	0.352107
O208	O	0.144346	1.322756	-0.004066
H209	H	0.167398	1.342390	0.012155
H210	H	0.116230	1.100036	0.342233
O211	O	0.080101	1.245290	-0.007416
H212	H	0.100333	1.303417	-0.068476
H213	H	-0.108662	0.324262	1.259731
H214	H	0.158538	0.324248	0.638229
O215	O	-0.196539	1.090264	0.486388
H216	H	-0.228076	1.128756	0.447587
H217	H	-0.122809	1.100062	0.662526
H218	H	0.005086	0.459597	0.613517
H219	H	-0.220960	0.779870	0.755222
O220	O	0.121357	0.245335	0.458043
H221	H	0.142269	0.231072	0.506770
H222	H	0.096731	0.459573	0.613535
O223	O	-0.075147	0.779848	0.293108
H224	H	-0.111245	0.779846	0.312767
O225	O	0.100210	0.090160	0.486507
H226	H	0.129161	0.128661	0.447675
H227	H	-0.185045	0.779870	0.520736
H228	H	0.022220	0.459591	1.099690
H229	H	-0.434395	0.779828	0.819894
O230	O	-0.309692	0.779857	0.772324
H231	H	-0.293752	0.779876	0.817238
H232	H	0.063254	0.324280	1.259753
O233	O	0.116809	0.779813	0.060545
H234	H	0.119290	0.779816	0.002384
H235	H	0.145959	0.459547	0.933939
H236	H	0.145642	0.256582	1.256939
H237	H	-0.514657	0.779812	0.819912
O238	O	-0.757540	0.779796	0.772402
H239	H	-0.787242	0.779787	0.817341
H240	H	-0.841052	0.779796	0.755324
O241	O	0.198996	0.314344	1.093623
H242	H	0.217610	0.376939	1.045990
O243	O	-0.808369	0.779845	0.503727
H244	H	-0.778667	0.779851	0.458791
O245	O	-0.164057	0.779871	0.103560
H246	H	-0.166536	0.779885	0.161708
O247	O	-0.716400	0.779811	0.503739
H248	H	-0.732343	0.779825	0.458803
O249	O	-0.462167	0.779840	0.439068
H250	H	-0.443229	0.711541	0.454688
O251	O	-0.370210	0.779805	0.439100
H252	H	-0.386148	0.779809	0.394166
O253	O	-0.268557	0.779852	0.503674
H254	H	-0.238856	0.779851	0.458739
H255	H	-0.647402	0.779794	0.819929
O256	O	-0.563895	0.779793	0.837008
H257	H	-0.593598	0.779779	0.881948
O258	O	-0.594917	0.779827	0.439101
H259	H	-0.575980	0.711526	0.454726
O260	O	-0.045113	0.779861	0.327502
H261	H	-0.055599	0.711554	0.359808
O262	O	-0.140262	0.779846	-0.051533
H263	H	-0.172808	0.779861	-0.013074
H264	H	-0.089340	1.235416	0.016299
