data_functionalizedCrystal
_audit_creation_method	'MofGen! by Chris Wilmer'
_symmetry_space_group_name_H-M	'P1'
_symmetry_Int_Tables_number	1
_symmetry_cell_setting	triclinic
loop_
_symmetry_equiv_pos_as_xyz
  x,y,z
_cell_length_a	16.625545
_cell_length_b	12.759395
_cell_length_c	16.625539
_cell_angle_alpha	90.014687
_cell_angle_beta	89.973757
_cell_angle_gamma	89.972905
loop_
_atom_site_label
_atom_site_type_symbol
_atom_site_fract_x
_atom_site_fract_y
_atom_site_fract_z
Zn1	Zn	-0.320982	-1.606129	-0.455859
Zn2	Zn	0.179018	-1.106129	0.044141
Zn3	Zn	-0.455821	-1.606004	-0.321027
Zn4	Zn	0.044179	-1.106004	0.178973
Zn5	Zn	-0.321009	-1.430445	-0.321046
Zn6	Zn	0.178991	-0.930445	0.178954
Zn7	Zn	-0.455780	-1.430386	-0.455823
Zn8	Zn	0.044220	-0.930386	0.044177
O9	O	-0.388398	-1.518241	-0.388439
O10	O	0.111602	-1.018241	0.111561
O11	O	-0.338874	-1.753134	-0.437981
O12	O	0.161126	-1.253134	0.062019
O13	O	-0.437966	-1.582688	-0.208197
O14	O	0.062034	-1.082688	0.291803
O15	O	-0.208173	-1.453827	-0.338952
O16	O	0.291827	-0.953827	0.161048
O17	O	-0.437940	-1.753042	-0.338921
O18	O	0.062060	-1.253042	0.161079
O19	O	-0.208153	-1.582901	-0.437999
O20	O	0.291847	-1.082901	0.062001
O21	O	-0.338921	-1.453706	-0.208211
O22	O	0.161079	-0.953706	0.291789
O23	O	-0.338881	-1.283416	-0.338916
O24	O	0.161119	-0.783416	0.161084
O25	O	-0.437870	-1.453727	-0.568660
O26	O	0.062130	-0.953727	-0.068660
O27	O	-0.437897	-1.283373	-0.437936
O28	O	0.062103	-0.783373	0.062064
O29	O	-0.338835	-1.582844	-0.568687
O30	O	0.161165	-1.082844	-0.068687
O31	O	-0.568648	-1.582631	-0.338885
O32	O	-0.068648	-1.082631	0.161115
O33	O	-0.568618	-1.453606	-0.437919
O34	O	-0.068618	-0.953606	0.062081
C35	C	-0.388388	-1.245274	-0.388425
C36	C	0.111612	-0.745274	0.111575
C37	C	-0.388403	-1.128497	-0.388438
C38	C	0.111597	-0.628497	0.111562
C39	C	-0.597889	-1.518127	-0.388413
C40	C	-0.097889	-1.018127	0.111587
C41	C	-0.687510	-1.518174	-0.388429
C42	C	-0.187510	-1.018174	0.111571
C43	C	-0.388345	-1.518293	-0.598748
C44	C	0.111655	-1.018293	-0.098748
C45	C	-0.388322	-1.518315	-0.688369
C46	C	0.111678	-1.018315	-0.188369
C47	C	-0.760292	-1.518215	-0.388445
C48	C	-0.260292	-1.018215	0.111555
C49	C	-0.851601	-1.518276	-0.388463
C50	C	-0.351601	-1.018276	0.111537
C51	C	-0.924377	-1.518331	-0.388473
C52	C	-0.424377	-1.018331	0.111527
C53	C	-1.015692	-1.518391	-0.388490
C54	C	-0.515692	-1.018391	0.111510
C55	C	-0.178089	-1.518384	-0.388482
C56	C	0.321911	-1.018384	0.111518
C57	C	-0.088468	-1.518445	-0.388500
C58	C	0.411532	-1.018445	0.111500
C59	C	-0.388408	-1.792275	-0.388453
C60	C	0.111592	-1.292275	0.111547
C61	C	-0.388413	-1.909051	-0.388459
C62	C	0.111587	-1.409051	0.111541
C63	C	-0.491675	-1.128491	-0.491381
C64	C	0.008325	-0.628491	0.008619
C65	C	-0.543317	-1.073627	-0.542855
C66	C	-0.043317	-0.573627	-0.042855
C67	C	-0.543327	-0.963905	-0.542864
C68	C	-0.043327	-0.463905	-0.042864
C69	C	-0.491687	-0.909045	-0.491397
C70	C	0.008313	-0.409045	0.008603
C71	C	-0.440045	-0.963909	-0.439923
C72	C	0.059955	-0.463909	0.060077
C73	C	-0.440043	-1.073633	-0.439917
C74	C	0.059957	-0.573633	0.060083
C75	C	-0.336771	-0.963915	-0.336986
C76	C	0.163229	-0.463915	0.163014
C77	C	-0.336764	-1.073637	-0.336970
C78	C	0.163236	-0.573637	0.163030
C79	C	-0.285131	-0.909055	-0.285518
C80	C	0.214869	-0.409055	0.214482
C81	C	-0.233492	-0.963919	-0.234039
C82	C	0.266508	-0.463919	0.265961
C83	C	-0.233485	-1.073647	-0.234030
C84	C	0.266515	-0.573647	0.265970
C85	C	-0.285122	-1.128501	-0.285497
C86	C	0.214878	-0.628501	0.214503
C87	C	-0.388304	-1.518332	-0.761151
C88	C	0.111696	-1.018332	-0.261151
C89	C	-0.388274	-1.518356	-0.852460
C90	C	0.111726	-1.018356	-0.352460
C91	C	-0.388246	-1.518381	-0.925236
C92	C	0.111754	-1.018381	-0.425236
C93	C	-0.388217	-1.518407	-1.016551
C94	C	0.111783	-1.018407	-0.516551
C95	C	-0.388393	-1.518250	-0.178948
C96	C	0.111607	-1.018250	0.321052
C97	C	-0.388188	-1.518432	-0.089327
C98	C	0.111812	-1.018432	0.410673
H99	H	-0.491678	-1.217832	-0.491372
H100	H	0.008322	-0.717832	0.008628
Cl101	Cl	-0.285139	-0.771118	-0.285535
Cl102	Cl	0.214861	-0.271118	0.214465
Cl103	Cl	-0.491690	-0.771108	-0.491422
Cl104	Cl	0.008310	-0.271108	0.008578
H105	H	-0.585359	-1.118306	-0.584760
H106	H	-0.085359	-0.618306	-0.084760
H107	H	-0.285123	-1.217842	-0.285492
H108	H	0.214877	-0.717842	0.214508
H109	H	-0.191448	-0.919243	-0.192142
H110	H	0.308552	-0.419243	0.307858
Cl111	Cl	-0.608244	-0.894930	-0.607579
Cl112	Cl	-0.108244	-0.394930	-0.107579
H113	H	-0.191426	-1.118311	-0.192120
H114	H	0.308574	-0.618311	0.307880
