data_functionalizedCrystal
_audit_creation_method	'MofGen! by Chris Wilmer'
_symmetry_space_group_name_H-M	'P1'
_symmetry_Int_Tables_number	1
_symmetry_cell_setting	triclinic
loop_
_symmetry_equiv_pos_as_xyz
  x,y,z
_cell_length_a	12.594517
_cell_length_b	12.594515
_cell_length_c	12.594510
_cell_angle_alpha	90.032734
_cell_angle_beta	90.025612
_cell_angle_gamma	90.022986
loop_
_atom_site_label
_atom_site_type_symbol
_atom_site_fract_x
_atom_site_fract_y
_atom_site_fract_z
Zn1	Zn	-1.627176	0.423789	-0.602000
Zn2	Zn	-1.627030	0.601819	-0.424026
Zn3	Zn	-1.449181	0.423839	-0.424014
Zn4	Zn	-1.449125	0.601711	-0.601942
O5	O	-1.538128	0.512789	-0.512995
O6	O	-1.776103	0.447430	-0.578420
O7	O	-1.603400	0.578275	-0.275079
O8	O	-1.472876	0.274887	-0.447644
O9	O	-1.775995	0.578227	-0.447663
O10	O	-1.603649	0.274850	-0.578409
O11	O	-1.472735	0.447514	-0.275070
O12	O	-1.300227	0.447409	-0.447588
O13	O	-1.472782	0.578043	-0.750896
O14	O	-1.300187	0.578091	-0.578311
O15	O	-1.603595	0.447325	-0.750938
O16	O	-1.603346	0.750750	-0.447608
O17	O	-1.472640	0.750671	-0.578322
C18	C	-1.261587	0.512745	-0.512942
C19	C	-1.143282	0.512751	-0.512945
C20	C	-1.074020	0.441570	-0.441975
C21	C	-1.003189	0.538656	-0.415792
C22	C	-1.003314	0.415695	-0.539129
C23	C	-1.074009	0.609888	-0.486712
C24	C	-1.074140	0.486862	-0.610094
C25	C	-1.003341	0.584014	-0.583948
C26	C	-1.538000	0.789330	-0.512983
C27	C	-1.538043	0.907636	-0.513013
C28	C	-1.538198	0.512667	-0.790617
C29	C	-1.538228	0.512614	-0.908922
C30	C	-0.815749	0.512814	-0.513030
C31	C	-0.934054	0.512770	-0.512994
C32	C	-1.466986	1.047648	-0.584074
C33	C	-1.564033	0.976743	-0.610195
C34	C	-1.441006	0.976970	-0.486939
C35	C	-1.635279	1.047516	-0.539226
C36	C	-1.512187	1.047749	-0.415925
C37	C	-1.609301	0.976876	-0.442010
C38	C	-1.538242	1.235169	-0.513033
C39	C	-1.538180	1.116863	-0.513054
C40	C	-1.609399	0.441512	-0.978198
C41	C	-1.512328	0.415450	-1.048981
C42	C	-1.635356	0.538601	-1.048939
C43	C	-1.441106	0.486503	-0.978146
C44	C	-1.564199	0.609699	-0.978098
C45	C	-1.467061	0.583674	-1.048849
C46	C	-1.538119	0.512835	-0.236454
C47	C	-1.538296	0.512588	-0.118150
H48	H	-0.972204	0.333619	-0.561219
H49	H	-1.490224	1.078960	-0.333826
H50	H	-1.358885	0.945975	-0.464869
Br51	Br	-1.304202	0.449709	-0.926544
H52	H	-1.669480	0.381347	-0.947173
H53	H	-1.585967	0.945556	-0.692318
H54	H	-1.490385	0.333337	-1.080117
Br55	Br	-0.951246	0.575183	-0.278896
H56	H	-1.717424	1.078377	-0.561392
H57	H	-1.406834	0.643792	-1.079675
Br58	Br	-1.600821	0.746524	-0.926162
H59	H	-1.406911	1.078720	-0.644196
H60	H	-1.717467	0.560590	-1.080038
H61	H	-1.105054	0.381442	-0.381891
Br62	Br	-1.125543	0.746746	-0.449675
Br63	Br	-1.709661	0.925404	-0.341876
H64	H	-0.972502	0.644287	-0.643986
H65	H	-1.105329	0.464919	-0.692205
