data_functionalizedCrystal
_audit_creation_method	'MofGen! by Chris Wilmer'
_symmetry_space_group_name_H-M	'P1'
_symmetry_Int_Tables_number	1
_symmetry_cell_setting	triclinic
loop_
_symmetry_equiv_pos_as_xyz
  x,y,z
_cell_length_a	19.188925
_cell_length_b	18.266242
_cell_length_c	19.188930
_cell_angle_alpha	90.011475
_cell_angle_beta	83.143665
_cell_angle_gamma	90.009988
loop_
_atom_site_label
_atom_site_type_symbol
_atom_site_fract_x
_atom_site_fract_y
_atom_site_fract_z
O1	O	0.926152	0.060905	0.087151
O2	O	1.426152	0.560905	0.587151
O3	O	0.722840	0.060904	0.098889
O4	O	1.222840	0.560904	0.598889
O5	O	0.830363	0.060890	-0.008636
O6	O	1.330363	0.560890	0.491364
O7	O	0.818629	0.060919	0.194675
O8	O	1.318629	0.560919	0.694675
O9	O	0.830345	-0.060872	-0.008642
O10	O	1.330345	0.439128	0.491358
O11	O	0.722822	-0.060858	0.098883
O12	O	1.222822	0.439142	0.598883
O13	O	0.926133	-0.060857	0.087145
O14	O	1.426133	0.439143	0.587145
Zn15	Zn	0.824475	-0.080190	0.093013
Zn16	Zn	1.324475	0.419810	0.593013
Zn17	Zn	0.824499	0.080237	0.093021
Zn18	Zn	1.324499	0.580237	0.593021
O19	O	0.818610	-0.060843	0.194670
O20	O	1.318610	0.439157	0.694670
C21	C	0.696820	0.000023	0.098507
C22	C	1.196820	0.500023	0.598507
C23	C	0.619315	0.000022	0.097367
C24	C	1.119315	0.500022	0.597367
N25	N	0.824463	-0.189677	0.093008
N26	N	1.324463	0.310323	0.593008
C27	C	0.057545	0.000031	0.152831
C28	C	0.557545	0.500031	0.652831
C29	C	0.130368	0.000035	0.153908
C30	C	0.630368	0.500035	0.653908
C31	C	0.175302	0.000025	0.090816
C32	C	0.675302	0.500025	0.590816
C33	C	0.147408	0.000030	0.026642
C34	C	0.647408	0.500030	0.526642
C35	C	0.074586	0.000033	0.025568
C36	C	0.574586	0.500033	0.525568
N37	N	0.295973	-0.041430	0.045138
N38	N	0.795973	0.458570	0.545138
N39	N	0.365151	-0.041435	0.046163
N40	N	0.865151	0.458565	0.546163
C41	C	0.394712	0.000017	0.094050
C42	C	0.894712	0.500017	0.594050
N43	N	0.352480	0.041464	0.140883
N44	N	0.852480	0.541464	0.640883
N45	N	0.283296	0.041465	0.139860
N46	N	0.783296	0.541465	0.639860
C47	C	0.254267	0.000022	0.091974
C48	C	0.754267	0.500022	0.591974
C49	C	0.501561	0.000022	0.159386
C50	C	1.001561	0.500022	0.659386
C51	C	0.574385	0.000031	0.160460
C52	C	1.074385	0.500031	0.660460
C53	C	0.591425	0.000018	0.033193
C54	C	1.091425	0.500018	0.533193
C55	C	0.518601	0.000016	0.032121
C56	C	1.018601	0.500016	0.532121
C57	C	0.473673	0.000015	0.095220
C58	C	0.973673	0.500015	0.595220
C59	C	0.872090	-0.227992	0.045419
C60	C	1.372090	0.272008	0.545419
C61	C	0.872095	-0.304637	0.045416
C62	C	1.372095	0.195363	0.545416
C63	C	0.824479	-0.342964	0.093013
C64	C	1.324479	0.157036	0.593013
C65	C	0.776843	-0.304639	0.140606
C66	C	1.276843	0.195361	0.640606
C67	C	0.776836	-0.227996	0.140603
C68	C	1.276836	0.272004	0.640603
N69	N	0.815403	-0.463287	0.154821
N70	N	1.315403	0.036713	0.654821
N71	N	0.815415	-0.536096	0.154821
N72	N	1.315415	-0.036096	0.654821
C73	C	0.824499	-0.573886	0.093024
C74	C	1.324499	-0.073886	0.593024
N75	N	0.833584	-0.536118	0.031223
N76	N	1.333584	-0.036118	0.531223
N77	N	0.833576	-0.463303	0.031223
N78	N	1.333576	0.036697	0.531223
C79	C	0.824482	-0.426071	0.093021
C80	C	1.324482	0.073929	0.593021
C81	C	0.872133	-0.695308	0.045427
C82	C	1.372133	-0.195308	0.545427
C83	C	0.872132	-0.771955	0.045423
C84	C	1.372132	-0.271955	0.545423
C85	C	0.776884	-0.771956	0.140619
C86	C	1.276884	-0.271956	0.640619
C87	C	0.776881	-0.695311	0.140617
C88	C	1.276881	-0.195311	0.640617
C89	C	0.824509	-0.656992	0.093022
C90	C	1.324509	-0.156992	0.593022
C91	C	0.952154	0.000026	0.087527
C92	C	1.452154	0.500026	0.587527
C93	C	1.029658	0.000032	0.088666
C94	C	1.529658	0.500032	0.588666
C95	C	0.829974	0.000007	-0.034650
C96	C	1.329974	0.500007	0.465350
C97	C	0.828833	0.000001	-0.112154
C98	C	1.328833	0.500001	0.387846
N99	N	0.824515	0.189724	0.093020
N100	N	1.324515	0.689724	0.593020
C101	C	0.891924	-0.000002	-0.157079
C102	C	1.391924	0.499998	0.342921
C103	C	0.890852	0.000009	-0.229903
C104	C	1.390852	0.500009	0.270097
C105	C	0.826686	0.000010	-0.257799
C106	C	1.326686	0.500010	0.242201
C107	C	0.763587	0.000017	-0.212864
C108	C	1.263587	0.500017	0.287136
C109	C	0.764660	0.000012	-0.140041
C110	C	1.264660	0.500012	0.359959
N111	N	0.777633	-0.041429	-0.365805
N112	N	1.277633	0.458571	0.134195
N113	N	0.776617	-0.041426	-0.434983
N114	N	1.276617	0.458574	0.065017
C115	C	0.823448	0.000024	-0.477207
C116	C	1.323448	0.500024	0.022793
N117	N	0.871343	0.041463	-0.447641
N118	N	1.371343	0.541463	0.052359
N119	N	0.872361	0.041457	-0.378456
N120	N	1.372361	0.541457	0.121544
C121	C	0.825515	0.000015	-0.336761
C122	C	1.325515	0.500015	0.163239
C123	C	0.885381	0.000035	-0.601097
C124	C	1.385381	0.500035	-0.101097
C125	C	0.884307	0.000051	-0.673922
C126	C	1.384307	0.500051	-0.173922
C127	C	0.757040	0.000051	-0.656880
C128	C	1.257040	0.500051	-0.156880
C129	C	0.758116	0.000042	-0.584057
C130	C	1.258116	0.500042	-0.084057
C131	C	0.822289	0.000031	-0.556170
C132	C	1.322289	0.500031	-0.056170
C133	C	0.819000	0.000041	0.220684
C134	C	1.319000	0.500041	0.720684
C135	C	0.820140	0.000053	0.298188
C136	C	1.320140	0.500053	0.798188
H137	H	0.020968	0.000034	0.204211
H138	H	0.520968	0.500034	0.704211
N139	N	0.694378	0.000021	-0.242945
N140	N	1.194378	0.500021	0.257055
H141	H	0.703271	0.000021	-0.295895
H142	H	1.203271	0.500021	0.204105
H143	H	0.666771	-0.045117	-0.226505
H144	H	1.166771	0.454883	0.273495
N145	N	0.639875	0.000001	-0.034861
N146	N	1.139875	0.500001	0.465139
H147	H	0.630935	0.045135	-0.062864
H148	H	1.130935	0.545135	0.437136
H149	H	0.690221	-0.000029	-0.024391
H150	H	1.190221	0.499971	0.475609
H151	H	0.738112	-0.803161	0.179371
H152	H	1.238112	-0.303161	0.679371
H153	H	0.495896	0.000012	-0.020129
H154	H	0.995896	0.500012	0.479871
N155	N	0.725461	-0.186671	0.191935
N156	N	1.225461	0.313329	0.691935
H157	H	0.733346	-0.199996	0.241470
H158	H	1.233346	0.300004	0.741470
H159	H	0.732707	-0.132316	0.184652
H160	H	1.232707	0.367684	0.684652
H161	H	0.153078	0.000028	0.206160
H162	H	0.653078	0.500028	0.706160
H163	H	0.713282	0.000015	-0.103462
H164	H	1.213282	0.500015	0.396538
N165	N	0.725522	-0.653982	0.191957
N166	N	1.225522	-0.153982	0.691957
H167	H	0.732742	-0.599614	0.184734
H168	H	1.232742	-0.099614	0.684734
H169	H	0.676019	-0.667394	0.184017
H170	H	1.176019	-0.167394	0.684017
N171	N	0.923456	-0.186666	-0.005918
N172	N	1.423456	0.313334	0.494082
H173	H	0.896872	-0.154881	-0.036769
H174	H	1.396872	0.345119	0.463231
H175	H	0.954268	-0.154893	0.020738
H176	H	1.454268	0.345107	0.520738
H177	H	0.910912	-0.664108	0.006670
H178	H	1.410912	-0.164108	0.506670
N179	N	0.923463	-0.345975	-0.005915
N180	N	1.423463	0.154025	0.494085
H181	H	0.953632	-0.310070	-0.036067
H182	H	1.453632	0.189930	0.463933
H183	H	0.954244	-0.377758	0.020745
H184	H	1.454244	0.122242	0.520745
H185	H	0.910914	-0.803151	0.006667
H186	H	1.410914	-0.303151	0.506667
H187	H	0.937635	0.000029	-0.578390
H188	H	1.437635	0.500029	-0.078390
H189	H	0.738073	-0.335849	0.179359
H190	H	1.238073	0.164151	0.679359
N191	N	0.961136	-0.000014	-0.127001
N192	N	1.461136	0.499986	0.372999
H193	H	1.000941	-0.000014	-0.166516
H194	H	1.500941	0.499986	0.333484
H195	H	0.964363	0.045123	-0.097148
H196	H	1.464363	0.545123	0.402852
H197	H	0.597088	0.000036	0.212713
H198	H	1.097088	0.500036	0.712713
N199	N	0.958903	0.000007	-0.278371
N200	N	1.458903	0.500007	0.221629
H201	H	0.999718	0.000001	-0.249654
H202	H	1.499718	0.500001	0.250346
H203	H	0.961215	-0.045131	-0.308964
H204	H	1.461215	0.454869	0.191036
H205	H	0.935686	0.000053	-0.710500
H206	H	1.435686	0.500053	-0.210500
N207	N	0.687830	0.000060	-0.686956
N208	N	1.187830	0.500060	-0.186956
H209	H	0.696722	0.000065	-0.739906
H210	H	1.196722	0.500065	-0.239906
H211	H	0.660222	-0.045079	-0.670519
H212	H	1.160222	0.454921	-0.170519
N213	N	0.690067	0.000042	-0.535596
N214	N	1.190067	0.500042	-0.035596
H215	H	0.649254	0.000043	-0.564316
H216	H	1.149254	0.500043	-0.064316
H217	H	0.687734	-0.045099	-0.505021
H218	H	1.187734	0.454901	-0.005021
H219	H	0.051883	0.000033	-0.026685
H220	H	0.551883	0.500033	0.473315
N221	N	0.195868	0.000021	-0.041408
N222	N	0.695868	0.500021	0.458592
H223	H	0.246233	0.000017	-0.030992
H224	H	0.746233	0.500017	0.469008
H225	H	0.186849	-0.045118	-0.069387
H226	H	0.686849	0.454882	0.430613
H227	H	0.464978	0.000022	0.210765
H228	H	0.964978	0.500022	0.710765
