data_functionalizedCrystal
_audit_creation_method	'MofGen! by Chris Wilmer'
_symmetry_space_group_name_H-M	'P1'
_symmetry_Int_Tables_number	1
_symmetry_cell_setting	triclinic
loop_
_symmetry_equiv_pos_as_xyz
  x,y,z
_cell_length_a	10.723024
_cell_length_b	12.837942
_cell_length_c	9.198806
_cell_angle_alpha	89.997396
_cell_angle_beta	89.996352
_cell_angle_gamma	89.648405
loop_
_atom_site_label
_atom_site_type_symbol
_atom_site_fract_x
_atom_site_fract_y
_atom_site_fract_z
O1	O	1.672992	0.145513	-0.120882
O2	O	2.172992	0.645513	0.379118
O3	O	1.311352	0.159441	-0.120887
O4	O	1.811352	0.659441	0.379113
O5	O	1.484153	0.001517	-0.120876
O6	O	1.984153	0.501517	0.379124
O7	O	1.500191	0.303437	-0.120894
O8	O	2.000191	0.803437	0.379106
O9	O	1.484138	0.001517	0.120909
O10	O	1.984138	0.501517	0.620909
O11	O	1.311337	0.159441	0.120898
O12	O	1.811337	0.659441	0.620898
O13	O	1.672977	0.145512	0.120903
O14	O	2.172977	0.645512	0.620903
Cu15	Cu	1.492155	0.152477	0.142977
Cu16	Cu	1.992155	0.652477	0.642977
Cu17	Cu	1.492173	0.152477	-0.142962
Cu18	Cu	1.992173	0.652477	0.357038
O19	O	1.500176	0.303436	0.120892
O20	O	2.000176	0.803436	0.620892
C21	C	1.264735	0.158427	0.000005
C22	C	1.764735	0.658427	0.500005
C23	C	1.125851	0.155395	0.000003
C24	C	1.625851	0.655395	0.500003
C25	C	1.060466	0.243761	-0.000003
C26	C	1.560466	0.743761	0.499997
C27	C	0.916922	0.240629	-0.000005
C28	C	1.416922	0.740629	0.499995
C29	C	1.478728	-0.037142	0.000016
C30	C	1.978728	0.462858	0.500016
C31	C	1.462569	-0.152334	0.000013
C32	C	1.962569	0.347666	0.500013
C33	C	1.656825	-0.391911	-0.000015
C34	C	2.156825	0.108089	0.499985
C35	C	1.641648	-0.500145	-0.000017
C36	C	2.141648	-0.000145	0.499983
C37	C	1.417040	-0.477037	-0.000005
C38	C	1.917040	0.022963	0.499995
C39	C	1.432217	-0.368804	-0.000002
C40	C	1.932217	0.131196	0.499998
C41	C	1.552113	-0.326245	-0.000005
C42	C	2.052113	0.173755	0.499995
C43	C	1.567289	-0.218009	0.000008
C44	C	2.067289	0.281991	0.500008
C45	C	1.342681	-0.194904	0.000010
C46	C	1.842681	0.305096	0.500010
C47	C	1.327505	-0.303137	0.000007
C48	C	1.827505	0.196863	0.500007
C49	C	1.719594	0.146526	0.000008
C50	C	2.219594	0.646526	0.500008
C51	C	1.858478	0.149559	-0.000000
C52	C	2.358478	0.649559	0.500000
C53	C	1.505601	0.342096	-0.000003
C54	C	2.005601	0.842096	0.499997
C55	C	1.521760	0.457288	-0.000010
C56	C	2.021760	0.957288	0.499990
N57	N	1.492152	0.152476	0.344091
N58	N	1.992152	0.652476	0.844091
N59	N	1.492186	0.152470	-0.344076
N60	N	1.992186	0.652470	0.155924
C61	C	1.564674	0.085875	0.416293
C62	C	2.064674	0.585875	0.916293
C63	C	1.564693	0.085872	0.583705
C64	C	2.064693	0.585872	1.083705
H65	H	0.860706	0.316277	-0.000016
H66	H	1.360706	0.816277	0.499984
H67	H	1.626788	0.028856	0.645796
H68	H	2.126788	0.528856	1.145796
Cl69	Cl	1.396300	0.240503	0.439996
Cl70	Cl	1.896300	0.740503	0.939996
H71	H	1.229888	-0.337804	0.000003
H72	H	1.729888	0.162196	0.500003
H73	H	1.754449	-0.357259	-0.000002
H74	H	2.254449	0.142741	0.499998
H75	H	0.914686	0.073907	-0.000004
H76	H	1.414686	0.573907	0.499996
Cl77	Cl	1.048217	0.035005	0.000020
Cl78	Cl	1.548217	0.535005	0.500020
H79	H	1.110757	0.321733	0.000001
H80	H	1.610757	0.821733	0.500001
Cl81	Cl	1.396324	0.240516	0.560077
Cl82	Cl	1.896324	0.740516	1.060077
H83	H	1.626745	0.028855	0.354171
H84	H	2.126745	0.528855	0.854171
Cl85	Cl	1.211036	-0.112345	0.000040
Cl86	Cl	1.711036	0.387655	0.500040
Cl87	Cl	1.718013	-0.164507	0.000014
Cl88	Cl	2.218013	0.335493	0.500014
H89	H	1.319426	-0.511708	-0.000019
H90	H	1.819426	-0.011708	0.499981
Cl91	Cl	1.773293	-0.582694	-0.000033
Cl92	Cl	2.273293	-0.082694	0.499967
