data_functionalizedCrystal
_audit_creation_method	'MofGen! by Chris Wilmer'
_symmetry_space_group_name_H-M	'P1'
_symmetry_Int_Tables_number	1
_symmetry_cell_setting	triclinic
loop_
_symmetry_equiv_pos_as_xyz
  x,y,z
_cell_length_a	21.295418
_cell_length_b	29.839131
_cell_length_c	29.839135
_cell_angle_alpha	90.015469
_cell_angle_beta	90.033021
_cell_angle_gamma	90.057233
loop_
_atom_site_label
_atom_site_type_symbol
_atom_site_fract_x
_atom_site_fract_y
_atom_site_fract_z
Zn1	Zn	0.962241	-0.178737	0.254239
Zn2	Zn	1.462241	0.321263	0.754239
Zn3	Zn	0.962143	-0.253846	0.179108
Zn4	Zn	1.462143	0.246154	0.679108
Zn5	Zn	0.856984	-0.178751	0.179096
Zn6	Zn	1.356984	0.321249	0.679096
Zn7	Zn	0.856914	-0.253861	0.254184
Zn8	Zn	1.356914	0.246139	0.754184
O9	O	0.909571	-0.216299	0.216657
O10	O	1.409571	0.283701	0.716657
O11	O	1.050318	-0.188688	0.244300
O12	O	1.550318	0.311312	0.744300
O13	O	0.948182	-0.243884	0.116240
O14	O	1.448182	0.256116	0.616240
O15	O	0.871017	-0.115882	0.189081
O16	O	1.371017	0.384118	0.689081
O17	O	1.050246	-0.243870	0.189103
O18	O	1.550246	0.256130	0.689103
O19	O	0.948349	-0.115871	0.244288
O20	O	1.448349	0.384129	0.744288
O21	O	0.870922	-0.188712	0.116230
O22	O	1.370922	0.311288	0.616230
O23	O	0.768886	-0.188727	0.189028
O24	O	1.268886	0.311273	0.689028
O25	O	0.870897	-0.243896	0.317059
O26	O	1.370897	0.256104	0.817059
O27	O	0.768834	-0.243910	0.244196
O28	O	1.268834	0.256090	0.744196
O29	O	0.948281	-0.188702	0.317098
O30	O	1.448281	0.311298	0.817098
O31	O	0.948114	-0.316715	0.189050
O32	O	1.448114	0.183285	0.689050
O33	O	0.870802	-0.316726	0.244208
O34	O	1.370802	0.183274	0.744208
C35	C	0.746019	-0.216322	0.216605
C36	C	1.246019	0.283678	0.716605
C37	C	0.676051	-0.216343	0.216594
C38	C	1.176051	0.283657	0.716594
C39	C	0.643174	-0.245115	0.245276
C40	C	1.143174	0.254885	0.745276
C41	C	0.577431	-0.245104	0.245296
C42	C	1.077431	0.254896	0.745296
C43	C	0.544569	-0.216326	0.216626
C44	C	1.044569	0.283674	0.716626
C45	C	0.577454	-0.187549	0.187941
C46	C	1.077454	0.312451	0.687941
C47	C	0.643195	-0.187557	0.187925
C48	C	1.143195	0.312443	0.687925
N49	N	0.441304	-0.212806	0.177333
N50	N	0.941304	0.287194	0.677333
N51	N	0.378852	-0.212801	0.177349
N52	N	0.878852	0.287199	0.677349
C53	C	0.346494	-0.216297	0.216674
C54	C	0.846494	0.283703	0.716674
N55	N	0.378946	-0.219809	0.255981
N56	N	0.878946	0.280191	0.755981
N57	N	0.441403	-0.219817	0.255964
N58	N	0.941403	0.280183	0.755964
C59	C	0.473283	-0.216313	0.216640
C60	C	0.973283	0.283687	0.716640
C61	C	0.242331	-0.245058	0.245381
C62	C	0.742331	0.254942	0.745381
C63	C	0.176588	-0.245044	0.245402
C64	C	0.676588	0.254956	0.745402
C65	C	0.176611	-0.187491	0.188042
C66	C	0.676611	0.312509	0.688042
C67	C	0.242353	-0.187503	0.188025
C68	C	0.742353	0.312497	0.688025
C69	C	0.275210	-0.216289	0.216694
C70	C	0.775210	0.283711	0.716694
C71	C	0.909457	-0.333021	0.216634
C72	C	1.409457	0.166979	0.716634
C73	C	0.909466	-0.382956	0.216640
C74	C	1.409466	0.117044	0.716640
C75	C	0.949900	-0.692581	0.187978
C76	C	1.449900	-0.192581	0.687978
C77	C	0.949978	-0.880254	0.187995
C78	C	1.449978	-0.380254	0.687995
O79	O	0.984266	-0.904503	0.163609
O80	O	1.484266	-0.404503	0.663609
N81	N	0.909701	-0.903741	0.216691
N82	N	1.409701	-0.403741	0.716691
C83	C	0.869405	-0.880307	0.245386
C84	C	1.369405	-0.380307	0.745386
O85	O	0.835154	-0.904590	0.269796
O86	O	1.335154	-0.404590	0.769796
C87	C	0.869331	-0.692635	0.245370
C88	C	1.369331	-0.192635	0.745370
C89	C	0.909606	-0.669150	0.216670
C90	C	1.409606	-0.169150	0.716670
C91	C	0.990172	-0.669096	0.159280
C92	C	1.490172	-0.169096	0.659280
C93	C	0.990150	-0.622180	0.159275
C94	C	1.490150	-0.122180	0.659275
C95	C	0.949856	-0.598750	0.187966
C96	C	1.449856	-0.098750	0.687966
C97	C	0.909584	-0.622234	0.216664
C98	C	1.409584	-0.122234	0.716664
C99	C	0.829039	-0.669201	0.274067
C100	C	1.329039	-0.169201	0.774067
C101	C	0.829025	-0.622280	0.274061
C102	C	1.329025	-0.122280	0.774061
C103	C	0.869300	-0.598796	0.245361
C104	C	1.369300	-0.098796	0.745361
C105	C	0.869267	-0.551888	0.245350
C106	C	1.369267	-0.051888	0.745350
N107	N	0.909544	-0.528401	0.216655
N108	N	1.409544	-0.028401	0.716655
C109	C	0.949838	-0.551832	0.187963
C110	C	1.449838	-0.051832	0.687963
C111	C	0.869446	-0.978837	0.245391
C112	C	1.369446	-0.478837	0.745391
C113	C	0.869464	-1.025755	0.245395
C114	C	1.369464	-0.525755	0.745395
C115	C	0.950037	-1.025699	0.188005
C116	C	1.450037	-0.525699	0.688005
C117	C	0.950016	-0.978780	0.188000
C118	C	1.450016	-0.478780	0.688000
C119	C	0.909723	-0.955350	0.216696
C120	C	1.409723	-0.455350	0.716696
C121	C	0.949788	-0.453306	0.187953
C122	C	1.449788	0.046694	0.687953
C123	C	0.949760	-0.406386	0.187948
C124	C	1.449760	0.093614	0.687948
C125	C	0.869189	-0.406447	0.245339
C126	C	1.369189	0.093553	0.745339
C127	C	0.869214	-0.453362	0.245342
C128	C	1.369214	0.046638	0.745342
C129	C	0.909519	-0.476791	0.216648
C130	C	1.409519	0.023209	0.716648
O131	O	0.835002	-0.527610	0.269727
O132	O	1.335002	-0.027610	0.769727
O133	O	0.984094	-0.527540	0.163563
O134	O	1.484094	-0.027540	0.663563
C135	C	0.949922	-0.739496	0.187984
C136	C	1.449922	-0.239496	0.687984
C137	C	0.909651	-0.762981	0.216681
C138	C	1.409651	-0.262981	0.716681
C139	C	0.869356	-0.739550	0.245373
C140	C	1.369356	-0.239550	0.745373
C141	C	0.909668	-0.809899	0.216685
C142	C	1.409668	-0.309899	0.716685
C143	C	0.949962	-0.833329	0.187993
C144	C	1.449962	-0.333329	0.687993
C145	C	0.990239	-0.809842	0.159298
C146	C	1.490239	-0.309842	0.659298
C147	C	0.990217	-0.762927	0.159292
C148	C	1.490217	-0.262927	0.659292
C149	C	0.829080	-0.763037	0.274068
C150	C	1.329080	-0.263037	0.774068
C151	C	0.829105	-0.809953	0.274072
C152	C	1.329105	-0.309953	0.774072
C153	C	0.869399	-0.833383	0.245380
C154	C	1.369399	-0.333383	0.745380
C155	C	1.073761	-0.216275	0.216709
C156	C	1.573761	0.283725	0.716709
C157	C	1.143729	-0.216265	0.216731
C158	C	1.643729	0.283735	0.716731
C159	C	0.909592	-0.216299	0.333835
C160	C	1.409592	0.283701	0.833835
C161	C	0.909601	-0.216299	0.383770
C162	C	1.409601	0.283701	0.883770
C163	C	0.909702	-0.099120	0.216689
C164	C	1.409702	0.400880	0.716689
C165	C	0.909758	-0.049186	0.216703
C166	C	1.409758	0.450814	0.716703
C167	C	0.869339	-0.187574	0.693411
C168	C	1.369339	0.312426	1.193411
C169	C	0.869328	-0.187571	0.881084
C170	C	1.369328	0.312429	1.381084
O171	O	0.835100	-0.163156	0.905347
O172	O	1.335100	0.336844	1.405347
N173	N	0.909554	-0.216294	0.904555
N174	N	1.409554	0.283706	1.404555
C175	C	0.949781	-0.245022	0.881104
C176	C	1.449781	0.254978	1.381104
O177	O	0.983991	-0.269456	0.905374
O178	O	1.483991	0.230544	1.405374
C179	C	0.949788	-0.245027	0.693432
C180	C	1.449788	0.254973	1.193432
C181	C	0.909565	-0.216299	0.669964
C182	C	1.409565	0.283701	1.169964
C183	C	0.829118	-0.158848	0.669943
C184	C	1.329118	0.341152	1.169943
C185	C	0.829123	-0.158847	0.623027
C186	C	1.329123	0.341153	1.123027
C187	C	0.869349	-0.187572	0.599580
C188	C	1.369349	0.312428	1.099580
C189	C	0.909570	-0.216298	0.623048
C190	C	1.409570	0.283702	1.123048
C191	C	0.990012	-0.273757	0.669982
C192	C	1.490012	0.226243	1.169982
C193	C	0.990009	-0.273756	0.623061
C194	C	1.490009	0.226244	1.123061
C195	C	0.949786	-0.245028	0.599593
C196	C	1.449786	0.254972	1.099593
C197	C	0.949801	-0.245022	0.552686
C198	C	1.449801	0.254978	1.052686
N199	N	0.909576	-0.216299	0.529215
N200	N	1.409576	0.283701	1.029215
C201	C	0.869350	-0.187574	0.552662
C202	C	1.369350	0.312426	1.052662
C203	C	0.949776	-0.245017	0.979635
C204	C	1.449776	0.254983	1.479635
C205	C	0.949775	-0.245015	1.026553
C206	C	1.449775	0.254985	1.526553
C207	C	0.869321	-0.187565	1.026529
C208	C	1.369321	0.312435	1.526529
C209	C	0.869326	-0.187564	0.979611
C210	C	1.369326	0.312436	1.479611
C211	C	0.909551	-0.216294	0.956164
C212	C	1.409551	0.283706	1.456164
C213	C	0.869365	-0.187574	0.454136
C214	C	1.369365	0.312426	0.954136
C215	C	0.869376	-0.187575	0.407217
C216	C	1.369376	0.312425	0.907217
C217	C	0.949827	-0.245027	0.407244
C218	C	1.449827	0.254973	0.907244
C219	C	0.949819	-0.245025	0.454160
C220	C	1.449819	0.254975	0.954160
C221	C	0.909583	-0.216297	0.477605
C222	C	1.409583	0.283703	0.977605
O223	O	0.984007	-0.269428	0.528394
O224	O	1.484007	0.230572	1.028394
O225	O	0.835136	-0.163150	0.528385
O226	O	1.335136	0.336850	1.028385
C227	C	0.869333	-0.187574	0.740326
C228	C	1.369333	0.312426	1.240326
C229	C	0.909554	-0.216300	0.763795
C230	C	1.409554	0.283700	1.263795
C231	C	0.949780	-0.245025	0.740347
C232	C	1.449780	0.254975	1.240347
C233	C	0.909553	-0.216298	0.810712
C234	C	1.409553	0.283702	1.310712
C235	C	0.869327	-0.187574	0.834160
C236	C	1.369327	0.312426	1.334160
C237	C	0.829102	-0.158850	0.810689
C238	C	1.329102	0.341150	1.310689
C239	C	0.829107	-0.158850	0.763774
C240	C	1.329107	0.341150	1.263774
C241	C	0.990005	-0.273748	0.763818
C242	C	1.490005	0.226252	1.263818
C243	C	0.989997	-0.273746	0.810734
C244	C	1.489997	0.226254	1.310734
C245	C	0.949771	-0.245021	0.834181
C246	C	1.449771	0.254979	1.334181
C247	C	0.909548	-0.216304	1.099934
C248	C	1.409548	0.283696	1.599934
C249	C	0.909549	-0.216291	1.050000
C250	C	1.409549	0.283709	1.550000
H251	H	0.269084	-0.268495	0.268727
H252	H	0.769084	0.231505	0.768727
C253	C	0.636613	-0.130670	0.131229
C254	C	1.136613	0.369330	0.631229
C255	C	0.679337	-0.155933	0.156391
C256	C	1.179337	0.344067	0.656391
H257	H	0.658928	-0.111149	0.111758
H258	H	1.158928	0.388851	0.611758
H259	H	0.611030	-0.113511	0.150840
H260	H	1.111030	0.386489	0.650840
H261	H	0.610912	-0.150217	0.114017
H262	H	1.110912	0.349783	0.614017
H263	H	0.705035	-0.136386	0.173605
H264	H	1.205035	0.363614	0.673605
H265	H	0.704931	-0.173093	0.136777
H266	H	1.204931	0.326907	0.636777
C267	C	0.102558	-0.305470	0.251547
C268	C	0.602558	0.194530	0.751547
C269	C	0.140443	-0.276671	0.276932
C270	C	0.640443	0.223329	0.776932
H271	H	0.080240	-0.324993	0.271013
H272	H	0.580240	0.175007	0.771013
H273	H	0.128148	-0.322626	0.231938
H274	H	0.628148	0.177374	0.731938
H275	H	0.073583	-0.288320	0.234478
H276	H	0.573583	0.211680	0.734478
H277	H	0.169421	-0.293821	0.293998
H278	H	0.669421	0.206179	0.793998
H279	H	0.114850	-0.259514	0.296548
H280	H	0.614850	0.240486	0.796548
C281	C	1.074880	-0.710091	0.153116
C282	C	1.574880	-0.210091	0.653116
C283	C	1.034490	-0.737115	0.127746
C284	C	1.534490	-0.237115	0.627746
H285	H	1.102211	-0.694156	0.133639
H286	H	1.602211	-0.194156	0.633639
H287	H	1.098943	-0.728364	0.172711
H288	H	1.598943	-0.228364	0.672711
H289	H	1.050875	-0.689419	0.170199
H290	H	1.550875	-0.189419	0.670199
H291	H	1.058495	-0.757789	0.110666
H292	H	1.558495	-0.257789	0.610666
H293	H	1.010425	-0.718839	0.108144
H294	H	1.510425	-0.218839	0.608144
H295	H	1.022760	-0.297142	0.744732
H296	H	1.522760	0.202858	1.244732
C297	C	0.838727	-0.111496	1.040995
C298	C	1.338727	0.388504	1.540995
C299	C	0.825101	-0.155993	1.052311
C300	C	1.325101	0.344007	1.552311
H301	H	0.811429	-0.092010	1.056917
H302	H	1.311429	0.407990	1.556917
H303	H	0.832962	-0.107384	1.009699
H304	H	1.332962	0.392616	1.509699
H305	H	0.881031	-0.104917	1.048704
H306	H	1.381031	0.395083	1.548704
H307	H	0.782799	-0.162573	1.044599
H308	H	1.282799	0.337427	1.544599
H309	H	0.830861	-0.160107	1.083614
H310	H	1.330861	0.339893	1.583614
C311	C	0.958464	-0.305440	1.079306
C312	C	1.458464	0.194560	1.579306
C313	C	0.993998	-0.276587	1.052349
C314	C	1.493998	0.223413	1.552349
H315	H	0.985767	-0.324930	1.095233
H316	H	1.485767	0.175070	1.595233
H317	H	0.931026	-0.322630	1.060988
H318	H	1.431026	0.177370	1.560988
H319	H	0.934510	-0.288328	1.099986
H320	H	1.434510	0.211672	1.599986
H321	H	1.017948	-0.293698	1.031668
H322	H	1.517948	0.206302	1.531668
H323	H	1.021447	-0.259396	1.070669
H324	H	1.521447	0.240604	1.570669
H325	H	0.149855	-0.164057	0.164700
H326	H	0.649855	0.335943	0.664700
C327	C	1.026069	-0.881743	0.133851
C328	C	1.526069	-0.381743	0.633851
C329	C	1.034552	-0.835604	0.127774
C330	C	1.534552	-0.335604	0.627774
H331	H	1.053435	-0.897647	0.114397
H332	H	1.553435	-0.397647	0.614397
H333	H	0.983795	-0.889477	0.127224
H334	H	1.483795	-0.389477	0.627224
H335	H	1.035235	-0.889397	0.164052
H336	H	1.535235	-0.389397	0.664052
H337	H	1.025381	-0.827949	0.097573
H338	H	1.525381	-0.327949	0.597573
H339	H	1.076836	-0.827867	0.134398
H340	H	1.576836	-0.327867	0.634398
H341	H	0.982609	-0.472376	0.164588
H342	H	1.482609	0.027624	0.664588
C343	C	1.096569	-0.295625	0.825210
C344	C	1.596569	0.204375	1.325210
C345	C	1.034218	-0.305328	0.836524
C346	C	1.534218	0.194672	1.336524
H347	H	1.123865	-0.315126	0.841129
H348	H	1.623865	0.184874	1.341129
H349	H	1.105815	-0.265444	0.832920
H350	H	1.605815	0.234556	1.332920
H351	H	1.102316	-0.299731	0.793910
H352	H	1.602316	0.200269	1.293910
H353	H	1.028470	-0.301219	0.867824
H354	H	1.528470	0.198781	1.367824
H355	H	1.024969	-0.335516	0.828817
H356	H	1.524969	0.164484	1.328817
C357	C	0.636542	-0.302002	0.301974
C358	C	1.136542	0.197998	0.801974
C359	C	0.679289	-0.276752	0.276793
C360	C	1.179289	0.223248	0.776793
H361	H	0.658840	-0.321531	0.321433
H362	H	1.158840	0.178469	0.821433
H363	H	0.610850	-0.319152	0.282375
H364	H	1.110850	0.180848	0.782375
H365	H	0.610953	-0.282447	0.319199
H366	H	1.110953	0.217553	0.819199
H367	H	0.704875	-0.296307	0.259565
H368	H	1.204875	0.203693	0.759565
H369	H	0.704991	-0.259601	0.296395
H370	H	1.204991	0.240399	0.796395
H371	H	0.982811	-0.959662	0.164630
H372	H	1.482811	-0.459662	0.664630
C373	C	0.749466	-0.805284	0.330806
C374	C	1.249466	-0.305284	0.830806
C375	C	0.784832	-0.835764	0.305623
C376	C	1.284832	-0.335764	0.805623
H377	H	0.722141	-0.821218	0.350287
H378	H	1.222141	-0.321218	0.850287
H379	H	0.725396	-0.787018	0.311208
H380	H	1.225396	-0.287018	0.811208
H381	H	0.776878	-0.786949	0.348006
H382	H	1.276878	-0.286949	0.848006
H383	H	0.757419	-0.854097	0.288420
H384	H	1.257419	-0.354097	0.788420
H385	H	0.808904	-0.854037	0.325224
H386	H	1.308904	-0.354037	0.825224
C387	C	0.838736	-1.040196	0.321440
C388	C	1.338736	-0.540196	0.821440
C389	C	0.825189	-1.051567	0.276940
C390	C	1.325189	-0.551567	0.776940
H391	H	0.811405	-1.056132	0.340917
H392	H	1.311405	-0.556132	0.840917
H393	H	0.832959	-1.008903	0.325538
H394	H	1.332959	-0.508903	0.825538
H395	H	0.881029	-1.047848	0.328047
H396	H	1.381029	-0.547848	0.828047
H397	H	0.782897	-1.043912	0.270332
H398	H	1.282897	-0.543912	0.770332
H399	H	0.830961	-1.082867	0.272840
H400	H	1.330961	-0.582867	0.772840
C401	C	0.503559	-0.251433	0.305730
C402	C	1.003559	0.248567	0.805730
C403	C	0.541280	-0.276732	0.276825
C404	C	1.041280	0.223268	0.776825
H405	H	0.481245	-0.270959	0.325195
H406	H	0.981245	0.229041	0.825195
H407	H	0.474588	-0.234293	0.288656
H408	H	0.974588	0.265707	0.788656
H409	H	0.529267	-0.231894	0.322946
H410	H	1.029267	0.268106	0.822946
H411	H	0.515572	-0.296268	0.259606
H412	H	1.015572	0.203732	0.759606
H413	H	0.570254	-0.293879	0.293900
H414	H	1.070254	0.206121	0.793900
C415	C	0.985904	-1.097599	0.162583
C416	C	1.485904	-0.597599	0.662583
C417	C	0.994378	-1.051460	0.156500
C418	C	1.494378	-0.551460	0.656500
H419	H	1.013295	-1.113503	0.143147
H420	H	1.513295	-0.613503	0.643147
H421	H	0.943639	-1.105341	0.155936
H422	H	1.443639	-0.605341	0.655936
H423	H	0.995042	-1.105245	0.192791
H424	H	1.495042	-0.605245	0.692791
H425	H	0.985235	-1.043814	0.126293
H426	H	1.485235	-0.543814	0.626293
H427	H	1.036652	-1.043714	0.163144
H428	H	1.536652	-0.543714	0.663144
C429	C	1.020896	-0.607746	0.083229
C430	C	1.520896	-0.107746	0.583229
C431	C	1.034430	-0.596372	0.127731
C432	C	1.534430	-0.096372	0.627731
H433	H	1.048240	-0.591817	0.063756
H434	H	1.548240	-0.091817	0.563756
H435	H	0.978613	-0.600090	0.076614
H436	H	1.478613	-0.100090	0.576614
H437	H	1.026667	-0.639044	0.079135
H438	H	1.526667	-0.139044	0.579135
H439	H	1.028655	-0.565074	0.131825
H440	H	1.528655	-0.065074	0.631825
H441	H	1.076724	-0.604025	0.134348
H442	H	1.576724	-0.104025	0.634348
H443	H	0.796351	-0.135460	0.829788
H444	H	1.296351	0.364540	1.329788
C445	C	0.958489	-0.305451	0.354467
C446	C	1.458489	0.194549	0.854467
C447	C	0.994038	-0.276603	0.381464
C448	C	1.494038	0.223397	0.881464
H449	H	0.985781	-0.324948	0.338552
H450	H	1.485781	0.175052	0.838552
H451	H	0.934539	-0.288339	0.333781
H452	H	1.434539	0.211661	0.833781
H453	H	0.931044	-0.322637	0.372760
H454	H	1.431044	0.177363	0.872760
H455	H	1.021479	-0.259415	0.363170
H456	H	1.521479	0.240585	0.863170
H457	H	1.017998	-0.293717	0.402152
H458	H	1.517998	0.206283	0.902152
C459	C	0.793389	-0.133333	0.551100
C460	C	1.293389	0.366667	1.051100
C461	C	0.784901	-0.127273	0.597234
C462	C	1.284901	0.372727	1.097234
H463	H	0.766087	-0.113839	0.535180
H464	H	1.266087	0.386161	1.035180
H465	H	0.784145	-0.163516	0.543400
H466	H	1.284145	0.336484	1.043400
H467	H	0.835691	-0.126747	0.543431
H468	H	1.335691	0.373253	1.043431
H469	H	0.742600	-0.133862	0.604904
H470	H	1.242600	0.366138	1.104904
H471	H	0.794141	-0.097083	0.604937
H472	H	1.294141	0.402917	1.104937
H473	H	0.269122	-0.164076	0.164666
H474	H	0.769122	0.335924	0.664666
C475	C	0.860606	-0.926071	0.305821
C476	C	1.360606	-0.426071	0.805821
C477	C	0.825147	-0.953088	0.276935
C478	C	1.325147	-0.453088	0.776935
H479	H	0.833254	-0.910179	0.325295
H480	H	1.333254	-0.410179	0.825295
H481	H	0.884580	-0.905365	0.288734
H482	H	1.384580	-0.405365	0.788734
H483	H	0.888023	-0.944347	0.323028
H484	H	1.388023	-0.444347	0.823028
H485	H	0.797733	-0.934811	0.259725
H486	H	1.297733	-0.434811	0.759725
H487	H	0.801162	-0.973796	0.294024
H488	H	1.301162	-0.473796	0.794024
C489	C	0.476686	-0.161990	0.162489
C490	C	0.976686	0.338010	0.662489
C491	C	0.541333	-0.155919	0.156422
C492	C	1.041333	0.344081	0.656422
H493	H	0.454389	-0.142464	0.143027
H494	H	0.954389	0.357536	0.643027
H495	H	0.465962	-0.155458	0.192684
H496	H	0.965962	0.344542	0.692684
H497	H	0.465864	-0.192166	0.155863
H498	H	0.965864	0.307834	0.655863
H499	H	0.552156	-0.125744	0.163051
H500	H	1.052156	0.374256	0.663051
H501	H	0.552061	-0.162448	0.126220
H502	H	1.052061	0.337552	0.626220
C503	C	0.749411	-0.664524	0.330801
C504	C	1.249411	-0.164524	0.830801
C505	C	0.784771	-0.695007	0.305619
C506	C	1.284771	-0.195007	0.805619
H507	H	0.722084	-0.680456	0.350284
H508	H	1.222084	-0.180456	0.850284
H509	H	0.725343	-0.646257	0.311204
H510	H	1.225343	-0.146257	0.811204
H511	H	0.776827	-0.646191	0.348001
H512	H	1.276827	-0.146191	0.848001
H513	H	0.757355	-0.713339	0.288417
H514	H	1.257355	-0.213339	0.788417
H515	H	0.808841	-0.713282	0.325219
H516	H	1.308841	-0.213282	0.825219
H517	H	0.836573	-0.164171	0.960506
H518	H	1.336573	0.335829	1.460506
C519	C	0.789844	-0.130788	0.411914
C520	C	1.289844	0.369212	0.911914
C521	C	0.825155	-0.155997	0.381421
C522	C	1.325155	0.344003	0.881421
H523	H	0.762543	-0.111297	0.395989
H524	H	1.262543	0.388703	0.895989
H525	H	0.817289	-0.113600	0.430229
H526	H	1.317289	0.386400	0.930229
H527	H	0.765746	-0.150372	0.430198
H528	H	1.265746	0.349628	0.930198
H529	H	0.849257	-0.136413	0.363139
H530	H	1.349257	0.363587	0.863139
H531	H	0.797707	-0.173186	0.363098
H532	H	1.297707	0.326814	0.863098
H533	H	0.982557	-0.387267	0.164575
H534	H	1.482557	0.112733	0.664575
H535	H	1.022988	-0.688168	0.135916
H536	H	1.522988	-0.188168	0.635916
C537	C	0.820200	-0.569507	0.334484
C538	C	1.320200	-0.069507	0.834484
C539	C	0.784733	-0.596526	0.305606
C540	C	1.284733	-0.096526	0.805606
H541	H	0.792855	-0.553610	0.353959
H542	H	1.292855	-0.053610	0.853959
H543	H	0.844174	-0.548806	0.317392
H544	H	1.344174	-0.048806	0.817392
H545	H	0.847619	-0.587783	0.351691
H546	H	1.347619	-0.087783	0.851691
H547	H	0.757317	-0.578250	0.288396
H548	H	1.257317	-0.078250	0.788396
H549	H	0.760748	-0.617230	0.322700
H550	H	1.260748	-0.117230	0.822700
C551	C	1.069528	-0.330550	0.627801
C552	C	1.569528	0.169450	1.127801
C553	C	1.034227	-0.305337	0.597290
C554	C	1.534227	0.194663	1.097290
H555	H	1.096828	-0.350044	0.611890
H556	H	1.596828	0.149956	1.111890
H557	H	1.042077	-0.347734	0.646082
H558	H	1.542077	0.152266	1.146082
H559	H	1.093627	-0.310968	0.646117
H560	H	1.593627	0.189032	1.146117
H561	H	1.010124	-0.324919	0.578976
H562	H	1.510124	0.175081	1.078976
H563	H	1.061682	-0.288152	0.579001
H564	H	1.561682	0.211848	1.079001
H565	H	0.836421	-0.472485	0.268714
H566	H	1.336421	0.027515	0.768714
H567	H	0.836380	-0.387362	0.268699
H568	H	1.336380	0.112638	0.768699
C569	C	0.749605	-0.102057	0.665194
C570	C	1.249605	0.397943	1.165194
C571	C	0.784900	-0.127267	0.695711
C572	C	1.284900	0.372733	1.195711
H573	H	0.722310	-0.082556	0.681101
H574	H	1.222310	0.417444	1.181101
H575	H	0.725505	-0.121637	0.646883
H576	H	1.225505	0.378363	1.146883
H577	H	0.777064	-0.084877	0.646908
H578	H	1.277064	0.415123	1.146908
H579	H	0.757441	-0.144450	0.713995
H580	H	1.257441	0.355550	1.213995
H581	H	0.809002	-0.107685	0.714029
H582	H	1.309002	0.392315	1.214029
C583	C	1.029308	-0.301799	0.984381
C584	C	1.529308	0.198201	1.484381
C585	C	0.994003	-0.276595	0.953866
C586	C	1.494003	0.223405	1.453866
H587	H	1.056617	-0.321290	0.968473
H588	H	1.556617	0.178710	1.468473
H589	H	1.001861	-0.318987	1.002662
H590	H	1.501861	0.181013	1.502662
H591	H	1.053400	-0.282213	1.002697
H592	H	1.553400	0.217787	1.502697
H593	H	0.969908	-0.296181	0.935552
H594	H	1.469908	0.203819	1.435552
H595	H	1.021454	-0.259405	0.935578
H596	H	1.521454	0.240595	1.435578
C597	C	1.074697	-0.279994	0.722762
C598	C	1.574697	0.220006	1.222762
C599	C	1.034236	-0.305335	0.695765
C600	C	1.534236	0.194665	1.195765
H601	H	1.102005	-0.299490	0.738675
H602	H	1.602005	0.200510	1.238675
H603	H	1.050746	-0.262896	0.743449
H604	H	1.550746	0.237104	1.243449
H605	H	1.098787	-0.260414	0.704468
H606	H	1.598787	0.239586	1.204468
H607	H	1.010142	-0.324913	0.714059
H608	H	1.510142	0.175087	1.214059
H609	H	1.058189	-0.322440	0.675076
H610	H	1.558189	0.177560	1.175076
H611	H	0.796268	-0.743964	0.297433
H612	H	1.296268	-0.243964	0.797433
C613	C	1.029345	-0.301812	0.449468
C614	C	1.529345	0.198188	0.949468
C615	C	0.994035	-0.276601	0.479959
C616	C	1.494035	0.223399	0.979959
H617	H	1.056637	-0.321309	0.465394
H618	H	1.556637	0.178691	0.965394
H619	H	1.053448	-0.282233	0.431189
H620	H	1.553448	0.217767	0.931189
H621	H	1.001895	-0.318997	0.431147
H622	H	1.501895	0.181003	0.931147
H623	H	1.021485	-0.259413	0.498277
H624	H	1.521485	0.240587	0.998277
H625	H	0.969930	-0.296182	0.498246
H626	H	1.469930	0.203818	0.998246
H627	H	0.836601	-0.164181	0.473220
H628	H	1.336601	0.335819	0.973220
H629	H	0.796353	-0.135456	0.744670
H630	H	1.296353	0.364544	1.244670
