data_functionalizedCrystal
_audit_creation_method	'MofGen! by Chris Wilmer'
_symmetry_space_group_name_H-M	'P1'
_symmetry_Int_Tables_number	1
_symmetry_cell_setting	triclinic
loop_
_symmetry_equiv_pos_as_xyz
  x,y,z
_cell_length_a	12.837943
_cell_length_b	13.101039
_cell_length_c	12.837942
_cell_angle_alpha	93.718247
_cell_angle_beta	85.171060
_cell_angle_gamma	93.713065
loop_
_atom_site_label
_atom_site_type_symbol
_atom_site_fract_x
_atom_site_fract_y
_atom_site_fract_z
O1	O	1.407523	0.085195	-0.266933
O2	O	1.104390	0.085201	-0.253489
O3	O	1.249234	0.085192	-0.108644
O4	O	1.262678	0.085205	-0.411777
O5	O	1.238844	-0.085237	-0.119056
O6	O	1.093999	-0.085228	-0.263900
O7	O	1.397132	-0.085234	-0.277344
Zn8	Zn	1.243916	-0.112290	-0.272275
Zn9	Zn	1.257606	0.112258	-0.258558
O10	O	1.252288	-0.085225	-0.422189
C11	C	1.060125	-0.000012	-0.254153
C12	C	0.943710	-0.000010	-0.240609
N13	N	1.234580	-0.265538	-0.281637
C14	C	0.718836	-0.000018	-0.403439
C15	C	0.609453	-0.000017	-0.390717
C16	C	0.615561	-0.000014	-0.202446
C17	C	0.724943	-0.000015	-0.215167
C18	C	0.776577	-0.000016	-0.315667
C19	C	0.885962	-0.000010	-0.328387
C20	C	0.892066	-0.000014	-0.140117
C21	C	0.782684	-0.000013	-0.127395
C22	C	1.221880	-0.474580	-0.294384
C23	C	1.279646	-0.525459	-0.236444
C24	C	1.272579	-0.641777	-0.243537
C25	C	1.228945	-0.358251	-0.287293
C26	C	1.441397	-0.000018	-0.276680
C27	C	1.557812	-0.000013	-0.290224
C28	C	1.239498	-0.000022	-0.074781
C29	C	1.225953	-0.000020	0.041634
N30	N	1.266949	0.265506	-0.249188
C31	C	1.262024	-0.000008	-0.456052
C32	C	1.275569	-0.000004	-0.572467
C33	C	1.388784	-0.000002	0.266509
C34	C	1.376062	0.000000	0.375892
C35	C	1.187791	-0.000007	0.369784
C36	C	1.200512	-0.000009	0.260402
C37	C	1.301012	-0.000008	0.208768
C38	C	1.313731	-0.000017	0.099383
C39	C	1.125461	-0.000016	0.093278
C40	C	1.112740	-0.000014	0.202661
H41	H	0.928000	-0.000012	-0.410219
Cl42	Cl	1.061461	0.000023	0.434715
Cl43	Cl	0.783751	-0.000005	-0.529776
Cl44	Cl	0.964663	0.000005	-0.029768
H45	H	1.334409	-0.481660	-0.181515
Cl46	Cl	1.137339	-0.542196	-0.379193
Cl47	Cl	0.536867	-0.000023	-0.501064
Cl48	Cl	1.440071	-0.000022	0.034473
Cl49	Cl	1.515120	-0.000026	0.201593
H50	H	0.573496	-0.000098	-0.120629
Cl51	Cl	0.717763	-0.000014	-0.001060
Cl52	Cl	0.986405	-0.000007	0.267582
H53	H	1.447536	0.000008	0.422901
H54	H	1.053990	-0.000029	0.046253
