data_functionalizedCrystal
_audit_creation_method	'MofGen! by Chris Wilmer'
_symmetry_space_group_name_H-M	'P1'
_symmetry_Int_Tables_number	1
_symmetry_cell_setting	triclinic
loop_
_symmetry_equiv_pos_as_xyz
  x,y,z
_cell_length_a	10.723024
_cell_length_b	9.065218
_cell_length_c	7.540329
_cell_angle_alpha	90.001757
_cell_angle_beta	89.998244
_cell_angle_gamma	95.258123
loop_
_atom_site_label
_atom_site_type_symbol
_atom_site_fract_x
_atom_site_fract_y
_atom_site_fract_z
O1	O	1.658026	-0.206940	-0.147426
O2	O	2.158026	0.293060	0.352574
O3	O	1.294955	-0.226748	-0.147439
O4	O	1.794955	0.273252	0.352561
O5	O	1.483995	-0.002159	-0.147429
O6	O	1.983995	0.497841	0.352571
O7	O	1.468986	-0.431529	-0.147437
O8	O	1.968986	0.068471	0.352563
O9	O	1.483984	-0.002156	0.147536
O10	O	1.983984	0.497844	0.647536
O11	O	1.294943	-0.226745	0.147526
O12	O	1.794943	0.273255	0.647526
O13	O	1.658015	-0.206937	0.147539
O14	O	2.158015	0.293063	0.647539
Cu15	Cu	1.476478	-0.216841	0.174465
Cu16	Cu	1.976478	0.283159	0.674465
Cu17	Cu	1.476492	-0.216844	-0.174365
Cu18	Cu	1.976492	0.283156	0.325635
O19	O	1.468974	-0.431526	0.147528
O20	O	1.968974	0.068474	0.647528
C21	C	1.248443	-0.225305	0.000041
C22	C	1.748443	0.274695	0.500041
C23	C	1.109872	-0.220992	0.000036
C24	C	1.609872	0.279008	0.500036
C25	C	1.482547	0.052821	0.000051
C26	C	1.982547	0.552821	0.500051
C27	C	1.478234	0.216639	0.000042
C28	C	1.978234	0.716639	0.500042
C29	C	1.704526	-0.208380	0.000054
C30	C	2.204526	0.291620	0.500054
C31	C	1.843098	-0.212693	0.000048
C32	C	2.343098	0.287307	0.500048
C33	C	1.917570	-0.087024	0.000048
C34	C	2.417570	0.412976	0.500048
C35	C	2.060792	-0.091479	0.000041
C36	C	2.560792	0.408521	0.500041
C37	C	1.470423	-0.486506	0.000045
C38	C	1.970423	0.013494	0.500045
C39	C	1.474736	-0.650324	0.000042
C40	C	1.974736	-0.150324	0.500042
N41	N	1.476478	-0.216838	0.419813
N42	N	1.976478	0.283162	0.919813
N43	N	1.476502	-0.216836	-0.419714
N44	N	1.976502	0.283164	0.080286
H45	H	1.875298	0.023863	0.000080
H46	H	2.375298	0.523863	0.500080
H47	H	1.885371	-0.323580	0.000054
H48	H	2.385371	0.176420	0.500054
C49	C	2.272333	0.021237	0.000040
C50	C	2.772333	0.521237	0.500040
C51	C	2.147174	0.053763	0.000044
C52	C	2.647174	0.553763	0.500044
H53	H	2.325661	0.110908	0.000052
H54	H	2.825661	0.610908	0.500052
H55	H	2.288114	-0.034612	-0.102819
H56	H	2.788114	0.465388	0.397181
H57	H	2.288109	-0.034625	0.102904
H58	H	2.788109	0.465375	0.602904
H59	H	2.131395	0.109616	-0.102828
H60	H	2.631395	0.609616	0.397172
H61	H	2.131387	0.109635	0.102913
H62	H	2.631387	0.609635	0.602913
H63	H	2.045883	-0.328580	0.000029
H64	H	2.545883	0.171420	0.500029
