data_functionalizedCrystal
_audit_creation_method	'MofGen! by Chris Wilmer'
_symmetry_space_group_name_H-M	'P1'
_symmetry_Int_Tables_number	1
_symmetry_cell_setting	triclinic
loop_
_symmetry_equiv_pos_as_xyz
  x,y,z
_cell_length_a	23.532407
_cell_length_b	23.532407
_cell_length_c	17.666332
_cell_angle_alpha	89.990114
_cell_angle_beta	89.993426
_cell_angle_gamma	82.848712
loop_
_atom_site_label
_atom_site_type_symbol
_atom_site_fract_x
_atom_site_fract_y
_atom_site_fract_z
O1	O	0.755263	0.069135	-0.062908
O2	O	1.255263	0.569135	0.437092
O3	O	0.589400	0.079138	-0.062921
O4	O	1.089400	0.579138	0.437079
O5	O	0.677333	-0.008795	-0.062900
O6	O	1.177333	0.491205	0.437100
O7	O	0.667330	0.157068	-0.062929
O8	O	1.167330	0.657068	0.437071
O9	O	0.677318	-0.008797	0.062996
O10	O	1.177318	0.491203	0.562996
O11	O	0.589385	0.079136	0.062976
O12	O	1.089385	0.579136	0.562976
O13	O	0.755248	0.069133	0.062989
O14	O	1.255248	0.569133	0.562989
Cu15	Cu	0.672315	0.074134	0.074477
Cu16	Cu	1.172315	0.574134	0.574477
Cu17	Cu	0.672333	0.074137	-0.074410
Cu18	Cu	1.172333	0.574137	0.425590
O19	O	0.667315	0.157066	0.062968
O20	O	1.167315	0.657066	0.562968
C21	C	0.568176	0.078882	0.000026
C22	C	1.068176	0.578882	0.500026
C23	C	0.504959	0.078116	0.000021
C24	C	1.004959	0.578116	0.500021
C25	C	0.238792	0.022921	0.000051
C26	C	0.738792	0.522921	0.500051
C27	C	0.298192	0.023632	0.000051
C28	C	0.798192	0.523632	0.500051
O29	O	0.334937	-0.020153	0.000085
O30	O	0.834937	0.479847	0.500085
N31	N	0.320818	0.075909	0.000037
N32	N	0.820818	0.575909	0.500037
C33	C	0.284041	0.127477	0.000031
C34	C	0.784041	0.627477	0.500031
O35	O	0.308740	0.172007	0.000019
O36	O	0.808740	0.672007	0.500019
C37	C	0.224642	0.126765	0.000037
C38	C	0.724642	0.626765	0.500037
C39	C	0.202019	0.074485	0.000043
C40	C	0.702019	0.574485	0.500043
C41	C	0.216168	-0.029354	0.000059
C42	C	0.716168	0.470646	0.500059
C43	C	0.156772	-0.030066	0.000058
C44	C	0.656772	0.469934	0.500058
C45	C	0.119999	0.021499	0.000049
C46	C	0.619999	0.521499	0.500049
C47	C	0.142623	0.073774	0.000042
C48	C	0.642623	0.573774	0.500042
C49	C	0.187865	0.178333	0.000036
C50	C	0.687865	0.678333	0.500036
C51	C	0.128463	0.177616	0.000042
C52	C	0.628463	0.677616	0.500042
C53	C	0.105840	0.125336	0.000049
C54	C	0.605840	0.625336	0.500049
C55	C	0.046454	0.124627	0.000032
C56	C	0.546454	0.624627	0.500032
N57	N	0.023828	0.072351	0.000047
N58	N	0.523828	0.572351	0.500047
C59	C	0.060600	0.020787	0.000055
C60	C	0.560600	0.520787	0.500055
C61	C	0.408783	0.128968	0.000020
C62	C	0.908783	0.628968	0.500020
C63	C	0.468181	0.129681	0.000009
C64	C	0.968181	0.629681	0.500009
C65	C	0.482328	0.025836	0.000031
C66	C	0.982328	0.525836	0.500031
C67	C	0.422929	0.025124	0.000036
C68	C	0.922929	0.525124	0.500036
C69	C	0.386157	0.076692	0.000034
C70	C	0.886157	0.576692	0.500034
C71	C	-0.064136	0.019297	0.000052
C72	C	0.435864	0.519297	0.500052
C73	C	-0.123538	0.018590	0.000048
C74	C	0.376462	0.518590	0.500048
C75	C	-0.137680	0.122435	0.000030
C76	C	0.362320	0.622435	0.500030
C77	C	-0.078284	0.123142	0.000030
C78	C	0.421716	0.623142	0.500030
C79	C	-0.041512	0.071568	0.000044
C80	C	0.458488	0.571568	0.500044
O81	O	0.009675	0.168390	0.000002
O82	O	0.509675	0.668390	0.500002
O83	O	0.035892	-0.023737	0.000076
O84	O	0.535892	0.476263	0.500076
C85	C	0.677071	-0.030012	0.000050
C86	C	1.177071	0.469988	0.500050
C87	C	0.676305	-0.093229	0.000056
C88	C	1.176305	0.406771	0.500056
C89	C	0.723538	-0.492332	0.000018
C90	C	1.223538	0.007668	0.500018
C91	C	0.722827	-0.551733	0.000012
C92	C	1.222827	-0.051733	0.500012
O93	O	0.766613	-0.588477	-0.000012
O94	O	1.266613	-0.088477	0.499988
N95	N	0.670551	-0.574359	0.000008
N96	N	1.170551	-0.074359	0.500008
C97	C	0.618982	-0.537581	0.000003
C98	C	1.118982	-0.037581	0.500003
O99	O	0.574452	-0.562281	-0.000001
O100	O	1.074452	-0.062281	0.499999
C101	C	0.619695	-0.478182	0.000003
C102	C	1.119695	0.021818	0.500003
C103	C	0.671974	-0.455559	0.000015
C104	C	1.171974	0.044441	0.500015
C105	C	0.775814	-0.469709	0.000028
C106	C	1.275814	0.030291	0.500028
C107	C	0.776525	-0.410313	0.000035
C108	C	1.276525	0.089687	0.500035
C109	C	0.724961	-0.373540	0.000032
C110	C	1.224961	0.126460	0.500032
C111	C	0.672685	-0.396163	0.000022
C112	C	1.172685	0.103837	0.500022
C113	C	0.568127	-0.441406	-0.000007
C114	C	1.068127	0.058594	0.499993
C115	C	0.568843	-0.382003	-0.000008
C116	C	1.068843	0.117997	0.499992
C117	C	0.621123	-0.359381	0.000004
C118	C	1.121123	0.140619	0.500004
C119	C	0.621832	-0.299994	0.000026
C120	C	1.121832	0.200006	0.500026
N121	N	0.674109	-0.277368	0.000029
N122	N	1.174109	0.222632	0.500029
C123	C	0.725673	-0.314141	0.000033
C124	C	1.225673	0.185859	0.500033
C125	C	0.617491	-0.662324	0.000001
C126	C	1.117491	-0.162324	0.500001
C127	C	0.616778	-0.721722	0.000006
C128	C	1.116778	-0.221722	0.500006
C129	C	0.720623	-0.735869	0.000014
C130	C	1.220623	-0.235869	0.500014
C131	C	0.721335	-0.676470	0.000014
C132	C	1.221335	-0.176470	0.500014
C133	C	0.669767	-0.639698	0.000004
C134	C	1.169767	-0.139698	0.500004
C135	C	0.727163	-0.189404	0.000048
C136	C	1.227163	0.310596	0.500048
C137	C	0.727869	-0.130002	0.000059
C138	C	1.227869	0.369998	0.500059
C139	C	0.624025	-0.115860	0.000047
C140	C	1.124025	0.384140	0.500047
C141	C	0.623318	-0.175257	0.000041
C142	C	1.123318	0.324743	0.500041
C143	C	0.674891	-0.212028	0.000039
C144	C	1.174891	0.287972	0.500039
O145	O	0.578069	-0.263215	0.000047
O146	O	1.078069	0.236785	0.500047
O147	O	0.770196	-0.289433	0.000027
O148	O	1.270196	0.210567	0.500027
C149	C	0.776472	0.069389	0.000040
C150	C	1.276472	0.569389	0.500040
C151	C	0.839689	0.070155	0.000039
C152	C	1.339689	0.570155	0.500039
C153	C	0.667577	0.178283	0.000016
C154	C	1.167577	0.678283	0.500016
C155	C	0.668343	0.241500	0.000005
C156	C	1.168343	0.741500	0.500005
N157	N	0.672306	0.074132	0.179197
N158	N	1.172306	0.574132	0.679197
N159	N	0.672346	0.074135	-0.179130
N160	N	1.172346	0.574135	0.320870
C161	C	0.706646	0.108501	0.218797
C162	C	1.206646	0.608501	0.718797
C163	C	0.706655	0.108499	0.298044
C164	C	1.206655	0.608499	0.798044
C165	C	0.672314	0.074135	0.337689
C166	C	1.172314	0.574135	0.837689
C167	C	0.637972	0.039758	0.298079
C168	C	1.137972	0.539758	0.798079
C169	C	0.637968	0.039757	0.218833
C170	C	1.137968	0.539757	0.718833
N171	N	0.622440	0.072862	0.462125
N172	N	1.122440	0.572862	0.962125
N173	N	0.622445	0.072866	0.537406
N174	N	1.122445	0.572866	1.037406
C175	C	0.672324	0.074137	0.576453
C176	C	1.172324	0.574137	1.076453
N177	N	0.722199	0.075413	0.537376
N178	N	1.222199	0.575413	1.037376
N179	N	0.722193	0.075412	0.462089
N180	N	1.222193	0.575412	0.962089
C181	C	0.672314	0.074133	0.423618
C182	C	1.172314	0.574133	0.923618
C183	C	0.706677	0.108506	0.701982
C184	C	1.206677	0.608506	1.201982
C185	C	0.706687	0.108500	0.781231
C186	C	1.206687	0.608500	1.281231
C187	C	0.637999	0.039763	0.781265
C188	C	1.137999	0.539763	1.281265
C189	C	0.637994	0.039765	0.702017
C190	C	1.137994	0.539765	1.202017
C191	C	0.672332	0.074140	0.662381
C192	C	1.172332	0.574140	1.162381
H193	H	-0.167631	0.164417	0.000019
H194	H	0.332369	0.664417	0.500019
H195	H	0.770443	-0.111587	0.000070
H196	H	1.270443	0.388413	0.500070
H197	H	0.138359	-0.072637	0.000066
H198	H	0.638359	0.427363	0.500066
Br199	Br	0.532246	-0.044145	0.000039
Br200	Br	1.032246	0.455855	0.500039
Br201	Br	0.497171	-0.472092	-0.000026
Br202	Br	0.997171	0.027908	0.499974
H203	H	0.610028	0.011780	0.669775
H204	H	1.110028	0.511780	1.169775
Br205	Br	0.753233	0.155166	0.165008
Br206	Br	1.253233	0.655166	0.665008
H207	H	-0.141954	-0.023984	0.000051
H208	H	0.358046	0.476016	0.500051
Br209	Br	0.591370	-0.006883	0.351880
Br210	Br	1.091370	0.493117	0.851880
Br211	Br	0.753300	0.155144	0.834976
Br212	Br	1.253300	0.655144	1.334976
H213	H	0.206274	0.220904	0.000027
H214	H	0.706274	0.720904	0.500027
Br215	Br	0.591358	-0.006889	0.165086
Br216	Br	1.091358	0.493111	0.665086
H217	H	0.734637	0.136496	0.669709
H218	H	1.234637	0.636496	1.169709
Br219	Br	0.591401	-0.006885	0.835059
Br220	Br	1.091401	0.493115	1.335059
Br221	Br	0.753264	0.155145	0.351799
Br222	Br	1.253264	0.655145	0.851799
Br223	Br	-0.014242	-0.050696	0.000070
Br224	Br	0.485758	0.449304	0.500070
H225	H	0.580747	-0.193677	0.000053
H226	H	1.080747	0.306323	0.500053
Br227	Br	0.266065	-0.099344	0.000073
Br228	Br	0.766065	0.400656	0.500073
H229	H	0.404515	-0.017447	0.000042
H230	H	0.904515	0.482553	0.500042
Br231	Br	0.498876	0.200635	-0.000019
Br232	Br	0.998876	0.700635	0.499981
Br233	Br	0.797156	-0.239299	0.000045
Br234	Br	1.297156	0.260701	0.500045
H235	H	0.575496	-0.632386	-0.000000
H236	H	1.075496	-0.132386	0.500000
H237	H	0.819097	-0.391900	0.000041
H238	H	1.319097	0.108100	0.500041
H239	H	0.378846	0.170964	0.000013
H240	H	0.878846	0.670964	0.500013
Br241	Br	0.078560	0.247605	0.000045
Br242	Br	0.578560	0.747605	0.500045
Br243	Br	-0.047580	0.194093	0.000009
Br244	Br	0.452420	0.694093	0.500009
Br245	Br	0.845804	-0.519605	0.000032
Br246	Br	1.345804	-0.019605	0.500032
H247	H	0.582043	-0.085909	0.000047
H248	H	1.082043	0.414091	0.500047
H249	H	0.762610	-0.765821	0.000013
H250	H	1.262610	-0.265821	0.500013
Br251	Br	0.545825	-0.752416	0.000009
Br252	Br	1.045825	-0.252416	0.500009
Br253	Br	0.792288	-0.645774	0.000031
Br254	Br	1.292288	-0.145774	0.500031
Br255	Br	0.498854	-0.332101	-0.000024
Br256	Br	0.998854	0.167899	0.499976
