data_functionalizedCrystal
_audit_creation_method	'MofGen! by Chris Wilmer'
_symmetry_space_group_name_H-M	'P1'
_symmetry_Int_Tables_number	1
_symmetry_cell_setting	triclinic
loop_
_symmetry_equiv_pos_as_xyz
  x,y,z
_cell_length_a	16.959455
_cell_length_b	16.625546
_cell_length_c	16.959447
_cell_angle_alpha	89.967784
_cell_angle_beta	89.985299
_cell_angle_gamma	90.021896
loop_
_atom_site_label
_atom_site_type_symbol
_atom_site_fract_x
_atom_site_fract_y
_atom_site_fract_z
Zn1	Zn	1.208371	-0.320998	-0.446906
Zn2	Zn	1.708371	0.179002	0.053094
Zn3	Zn	1.208288	-0.455845	-0.314723
Zn4	Zn	1.708288	0.044155	0.185277
Zn5	Zn	1.076199	-0.321029	-0.314743
Zn6	Zn	1.576199	0.178971	0.185257
Zn7	Zn	1.076158	-0.455791	-0.446861
Zn8	Zn	1.576158	0.044209	0.053139
O9	O	1.142254	-0.388416	-0.380808
O10	O	1.642254	0.111584	0.119192
O11	O	1.318970	-0.338896	-0.429383
O12	O	1.818970	0.161104	0.070617
O13	O	1.190748	-0.437998	-0.204115
O14	O	1.690748	0.062002	0.295885
O15	O	1.093784	-0.208193	-0.332302
O16	O	1.593784	0.291807	0.167698
O17	O	1.318909	-0.437967	-0.332268
O18	O	1.818909	0.062033	0.167732
O19	O	1.190890	-0.208170	-0.429402
O20	O	1.690890	0.291830	0.070598
O21	O	1.093703	-0.338949	-0.204129
O22	O	1.593703	0.161051	0.295871
O23	O	0.965583	-0.338896	-0.332258
O24	O	1.465583	0.161104	0.167742
O25	O	1.093714	-0.437875	-0.557478
O26	O	1.593714	0.062125	-0.057478
O27	O	0.965553	-0.437905	-0.429325
O28	O	1.465553	0.062095	0.070675
O29	O	1.190850	-0.338843	-0.557511
O30	O	1.690850	0.161157	-0.057511
O31	O	1.190709	-0.568671	-0.332225
O32	O	1.690709	-0.068671	0.167775
O33	O	1.093634	-0.568631	-0.429306
O34	O	1.593634	-0.068631	0.070694
C35	C	0.936888	-0.388398	-0.380789
C36	C	1.436888	0.111602	0.119211
C37	C	0.849031	-0.388410	-0.380799
C38	C	1.349031	0.111590	0.119201
C39	C	1.142179	-0.597907	-0.380775
C40	C	1.642179	-0.097907	0.119225
C41	C	1.142219	-0.687528	-0.380788
C42	C	1.642219	-0.187528	0.119212
C43	C	0.807723	-0.439919	-0.330165
C44	C	1.307723	0.060081	0.169835
C45	C	0.807785	-0.336908	-0.431440
C46	C	1.307785	0.163092	0.068560
C47	C	0.725239	-0.336914	-0.431450
C48	C	1.225239	0.163086	0.068550
C49	C	0.683932	-0.388423	-0.380815
C50	C	1.183932	0.111577	0.119185
C51	C	0.725170	-0.439925	-0.330171
C52	C	1.225170	0.060075	0.169829
C53	C	0.683995	-0.285407	-0.482088
C54	C	1.183995	0.214593	0.017912
C55	C	0.601444	-0.285411	-0.482098
C56	C	1.101444	0.214589	0.017902
C57	C	0.560135	-0.336924	-0.431467
C58	C	1.060135	0.163076	0.068533
C59	C	0.601378	-0.388429	-0.380821
C60	C	1.101378	0.111571	0.119179
C61	C	0.560070	-0.439938	-0.330186
C62	C	1.060070	0.060062	0.169814
C63	C	0.601312	-0.491448	-0.279544
C64	C	1.101312	0.008552	0.220456
C65	C	0.683861	-0.491439	-0.279539
C66	C	1.183861	0.008561	0.220461
C67	C	0.477586	-0.336933	-0.431472
C68	C	0.977586	0.163067	0.068528
C69	C	0.477517	-0.439944	-0.330193
C70	C	0.977517	0.060056	0.169807
C71	C	1.142357	-1.015703	-0.380870
C72	C	1.642357	-0.515703	0.119130
C73	C	1.142316	-0.924395	-0.380849
C74	C	1.642316	-0.424395	0.119151
C75	C	1.142288	-0.851619	-0.380828
C76	C	1.642288	-0.351619	0.119172
C77	C	1.142248	-0.760304	-0.380808
C78	C	1.642248	-0.260304	0.119192
C79	C	1.348422	-0.388434	-0.380828
C80	C	1.848422	0.111566	0.119172
C81	C	1.436279	-0.388442	-0.380837
C82	C	1.936279	0.111558	0.119163
C83	C	1.142287	-0.388349	-0.586977
C84	C	1.642287	0.111651	-0.086977
C85	C	1.142301	-0.388321	-0.674833
C86	C	1.642301	0.111679	-0.174833
C87	C	1.142351	-0.178107	-0.380859
C88	C	1.642351	0.321893	0.119141
C89	C	1.142392	-0.088486	-0.380880
C90	C	1.642392	0.411514	0.119120
C91	C	1.091821	-0.439797	-1.046294
C92	C	1.591821	0.060203	-0.546294
C93	C	1.192970	-0.336674	-1.046324
C94	C	1.692970	0.163326	-0.546324
C95	C	1.192948	-0.336691	-0.963778
C96	C	1.692948	0.163309	-0.463778
C97	C	1.142364	-0.388263	-0.922486
C98	C	1.642364	0.111737	-0.422486
C99	C	1.091800	-0.439817	-0.963741
C100	C	1.591800	0.060183	-0.463741
C101	C	1.243517	-0.285144	-0.922518
C102	C	1.743517	0.214856	-0.422518
C103	C	1.243498	-0.285159	-0.839967
C104	C	1.743498	0.214841	-0.339967
C105	C	1.192909	-0.336728	-0.798674
C106	C	1.692909	0.163272	-0.298674
C107	C	1.142343	-0.388283	-0.839933
C108	C	1.642343	0.111717	-0.339933
C109	C	1.091758	-0.439855	-0.798641
C110	C	1.591758	0.060145	-0.298641
C111	C	1.041187	-0.491407	-0.839899
C112	C	1.541187	0.008593	-0.339899
C113	C	1.041211	-0.491385	-0.922448
C114	C	1.541211	0.008615	-0.422448
C115	C	1.192886	-0.336749	-0.716125
C116	C	1.692886	0.163251	-0.216125
C117	C	1.091737	-0.439875	-0.716088
C118	C	1.591737	0.060125	-0.216088
C119	C	1.142267	-0.388424	-0.175442
C120	C	1.642267	0.111576	0.324558
C121	C	1.142406	-0.388226	-0.087586
C122	C	1.642406	0.111774	0.412414
H123	H	0.443890	-0.481893	-0.288962
H124	H	0.943890	0.018107	0.211038
H125	H	0.567872	-0.243470	-0.523336
H126	H	1.067872	0.256530	-0.023336
H127	H	1.000041	-0.533359	-0.956047
H128	H	1.500041	-0.033359	-0.456047
H129	H	1.234158	-0.294692	-1.079949
H130	H	1.734158	0.205308	-0.579949
Cl131	Cl	1.307069	-0.220349	-0.788107
Cl132	Cl	1.807069	0.279651	-0.288107
H133	H	0.717633	-0.243469	-0.523309
H134	H	1.217633	0.256531	-0.023309
Cl135	Cl	1.028137	-0.504707	-0.664185
Cl136	Cl	1.528137	-0.004707	-0.164185
H137	H	0.717447	-0.533373	-0.238307
H138	H	1.217447	-0.033373	0.261693
H139	H	1.050645	-0.481767	-1.079890
H140	H	1.550645	0.018233	-0.579890
Cl141	Cl	0.425743	-0.272178	-0.495125
Cl142	Cl	0.925743	0.227822	0.004875
Cl143	Cl	1.307110	-0.220322	-0.974430
Cl144	Cl	1.807110	0.279678	-0.474430
Cl145	Cl	0.859715	-0.272156	-0.495090
Cl146	Cl	1.359715	0.227844	0.004910
Cl147	Cl	0.859567	-0.504673	-0.266506
Cl148	Cl	1.359567	-0.004673	0.233494
H149	H	1.000005	-0.533400	-0.806269
H150	H	1.500005	-0.033400	-0.306269
Cl151	Cl	0.549373	-0.556193	-0.215886
Cl152	Cl	1.049373	-0.056193	0.284114
Cl153	Cl	1.256460	-0.271952	-0.664262
Cl154	Cl	1.756460	0.228048	-0.164262
