data_functionalizedCrystal
_audit_creation_method	'MofGen! by Chris Wilmer'
_symmetry_space_group_name_H-M	'P1'
_symmetry_Int_Tables_number	1
_symmetry_cell_setting	triclinic
loop_
_symmetry_equiv_pos_as_xyz
  x,y,z
_cell_length_a	10.540510
_cell_length_b	10.489741
_cell_length_c	9.616153
_cell_angle_alpha	89.998052
_cell_angle_beta	89.992871
_cell_angle_gamma	84.526242
loop_
_atom_site_label
_atom_site_type_symbol
_atom_site_fract_x
_atom_site_fract_y
_atom_site_fract_z
O1	O	1.685936	0.179579	-0.115654
O2	O	1.316520	0.196556	-0.115654
O3	O	1.509634	0.002467	-0.115646
O4	O	1.492822	0.373667	-0.115662
O5	O	1.509607	0.002471	0.115646
O6	O	1.316493	0.196560	0.115637
O7	O	1.685909	0.179583	0.115638
Zn8	Zn	1.501197	0.188072	0.152360
Zn9	Zn	1.501232	0.188067	-0.152376
O10	O	1.492795	0.373671	0.115629
C11	C	1.269203	0.195293	-0.000009
C12	C	1.128252	0.191508	-0.000009
C13	C	0.910813	0.326340	-0.000546
C14	C	1.057409	0.330377	-0.000017
C15	C	1.083469	0.120422	0.132070
C16	C	0.936707	0.117368	0.132172
C17	C	0.936931	0.114471	-0.130849
C18	C	1.083273	0.121058	-0.132587
C19	C	1.508350	-0.045062	-0.000001
C20	C	1.504552	-0.186691	-0.000003
C21	C	1.381679	-0.254803	-0.000014
C22	C	1.439710	-0.346936	0.114025
C23	C	1.439765	-0.346915	-0.114010
C24	C	1.562633	-0.276959	0.114130
C25	C	1.562671	-0.276928	-0.114008
C26	C	1.620791	-0.369034	0.000059
C27	C	1.733226	0.180846	-0.000011
C28	C	1.874176	0.184631	-0.000020
C29	C	1.494078	0.421200	-0.000019
C30	C	1.497877	0.562829	-0.000025
N31	N	1.501182	0.188075	0.360335
N32	N	1.501257	0.188054	-0.360351
C33	C	1.397563	0.291551	0.580700
C34	C	1.397792	0.291938	0.419532
C35	C	1.633911	0.218340	0.418783
C36	C	1.633346	0.219072	0.580001
C37	C	1.473394	0.053994	0.580252
C38	C	1.470347	0.054864	0.419025
H39	H	1.086772	0.385989	-0.094700
H40	H	1.114318	0.169793	0.230359
H41	H	1.415243	0.390448	0.621194
N42	N	1.370830	-0.388016	0.241722
H43	H	1.430383	-0.448313	0.298842
H44	H	1.341394	-0.310150	0.299150
H45	H	1.614567	-0.246137	0.210649
N46	N	1.340966	0.024512	0.368526
H47	H	1.302483	0.096734	0.307871
H48	H	1.350330	-0.057570	0.312998
H49	H	1.721907	-0.418481	0.000122
N50	N	0.855130	0.397911	-0.126012
H51	H	0.759209	0.399237	-0.124074
H52	H	0.879763	0.488612	-0.124388
N53	N	0.906216	-0.020206	0.140124
H54	H	0.988083	-0.078601	0.143555
H55	H	0.854589	-0.032764	0.226693
N56	N	1.267149	0.267864	0.367182
H57	H	1.267046	0.268082	0.262151
H58	H	1.244758	0.181995	0.402056
N59	N	1.563763	-0.052059	0.365679
H60	H	1.559444	-0.055031	0.260819
H61	H	1.652817	-0.036333	0.395473
N62	N	1.631488	-0.235803	-0.241718
H63	H	1.708706	-0.192263	-0.212665
H64	H	1.659363	-0.313457	-0.300160
N65	N	1.347872	0.015861	0.634165
H66	H	1.288868	0.004059	0.553402
H67	H	1.362958	-0.067096	0.687585
H68	H	1.658820	0.315040	0.378388
H69	H	1.548997	-0.023039	0.618371
N70	N	0.880739	0.172597	-0.263464
H71	H	0.814023	0.245005	-0.240073
H72	H	0.950419	0.206572	-0.320776
N73	N	1.121224	0.189541	-0.262025
H74	H	1.167360	0.265884	-0.234914
H75	H	1.179252	0.129037	-0.320596
N76	N	1.095043	0.404495	0.125594
H77	H	1.016357	0.434660	0.180843
H78	H	1.155024	0.347412	0.185686
H79	H	1.132330	0.019673	-0.140558
N80	N	1.266517	0.267817	0.632112
H81	H	1.209793	0.253125	0.550153
H82	H	1.273204	0.189766	0.694137
N83	N	1.146226	-0.014995	0.138605
H84	H	1.204431	-0.031604	0.055812
H85	H	1.197543	-0.026896	0.227128
H86	H	0.867301	0.380132	0.093633
N87	N	1.370894	-0.387951	-0.241712
H88	H	1.280576	-0.345990	-0.241603
H89	H	1.416500	-0.361255	-0.327777
H90	H	1.415703	0.391399	0.380948
H91	H	1.657713	0.316877	0.617584
N92	N	0.883416	0.181718	0.262942
H93	H	0.955293	0.211800	0.319977
H94	H	0.821593	0.257573	0.237228
N95	N	1.738669	0.123088	0.631701
H96	H	1.724057	0.034926	0.596601
H97	H	1.823367	0.147309	0.596400
H98	H	1.280654	-0.205128	0.000101
N99	N	1.738626	0.121216	0.368003
H100	H	1.700944	0.056510	0.306471
H101	H	1.802935	0.166236	0.313314
H102	H	0.914765	0.010208	-0.131738
