data_functionalizedCrystal
_audit_creation_method	'MofGen! by Chris Wilmer'
_symmetry_space_group_name_H-M	'P1'
_symmetry_Int_Tables_number	1
_symmetry_cell_setting	triclinic
loop_
_symmetry_equiv_pos_as_xyz
  x,y,z
_cell_length_a	29.839134
_cell_length_b	29.839131
_cell_length_c	12.759393
_cell_angle_alpha	90.037890
_cell_angle_beta	90.021629
_cell_angle_gamma	90.021992
loop_
_atom_site_label
_atom_site_type_symbol
_atom_site_fract_x
_atom_site_fract_y
_atom_site_fract_z
Zn1	Zn	0.686761	-0.179060	0.594023
Zn2	Zn	0.686681	-0.254198	0.418323
Zn3	Zn	0.611632	-0.179058	0.418352
Zn4	Zn	0.611592	-0.254138	0.593955
O5	O	0.649167	-0.216613	0.506163
O6	O	0.749618	-0.189053	0.570732
O7	O	0.676709	-0.244255	0.271306
O8	O	0.621648	-0.116191	0.441696
O9	O	0.749559	-0.244257	0.441646
O10	O	0.676846	-0.116192	0.570760
O11	O	0.621570	-0.189049	0.271327
O12	O	0.548759	-0.188991	0.441630
O13	O	0.621580	-0.244154	0.740985
O14	O	0.548730	-0.244152	0.570645
O15	O	0.676807	-0.188995	0.741035
O16	O	0.676670	-0.317057	0.441581
O17	O	0.621502	-0.317013	0.570617
C18	C	0.532444	-0.216565	0.506134
C19	C	0.482510	-0.216555	0.506147
C20	C	0.125949	-0.187929	0.573510
C21	C	0.313622	-0.187892	0.573486
O22	O	0.337909	-0.163496	0.630756
N23	N	0.337064	-0.216585	0.506171
C24	C	0.313586	-0.245290	0.438863
O25	O	0.337831	-0.269697	0.381614
C26	C	0.125913	-0.245328	0.438893
C27	C	0.102474	-0.216631	0.506205
C28	C	0.102509	-0.159234	0.640817
C29	C	0.055593	-0.159241	0.640819
C30	C	0.032118	-0.187944	0.573513
C31	C	0.055558	-0.216639	0.506206
C32	C	0.102436	-0.274036	0.371590
C33	C	0.055515	-0.274044	0.371606
C34	C	0.032075	-0.245346	0.438918
C35	C	-0.014833	-0.245349	0.438902
N36	N	-0.038275	-0.216656	0.506217
C37	C	-0.014800	-0.187954	0.573522
C38	C	0.412116	-0.245268	0.438850
C39	C	0.459034	-0.245258	0.438841
C40	C	0.459067	-0.187860	0.573466
C41	C	0.412149	-0.187868	0.573469
C42	C	0.388674	-0.216575	0.506165
C43	C	-0.113326	-0.187972	0.573519
C44	C	-0.160245	-0.187980	0.573512
C45	C	-0.160274	-0.245379	0.438891
C46	C	-0.113359	-0.245369	0.438894
C47	C	-0.089886	-0.216664	0.506217
O48	O	-0.039149	-0.269736	0.381670
O49	O	-0.039053	-0.163557	0.630778
C50	C	0.172864	-0.187921	0.573509
C51	C	0.196304	-0.216616	0.506202
C52	C	0.172829	-0.245318	0.438896
C53	C	0.243222	-0.216606	0.506193
C54	C	0.266698	-0.187903	0.573499
C55	C	0.243255	-0.159211	0.640813
C56	C	0.196340	-0.159219	0.640815
C57	C	0.196271	-0.274011	0.371582
C58	C	0.243187	-0.274000	0.371585
C59	C	0.266662	-0.245298	0.438891
C60	C	0.649085	-0.333336	0.506111
C61	C	0.649092	-0.383270	0.506124
C62	C	0.677945	-0.692924	0.439072
C63	C	0.678000	-0.880597	0.439113
O64	O	0.702467	-0.904871	0.382063
N65	N	0.649260	-0.904055	0.506243
C66	C	0.620506	-0.880592	0.573371
O67	O	0.596065	-0.904851	0.630478
C68	C	0.620453	-0.692920	0.573335
C69	C	0.649192	-0.669465	0.506194
C70	C	0.706682	-0.669468	0.371938
C71	C	0.706666	-0.622553	0.371924
C72	C	0.677913	-0.599093	0.439045
C73	C	0.649176	-0.622549	0.506180
C74	C	0.591701	-0.669458	0.640468
C75	C	0.591691	-0.622537	0.640455
C76	C	0.620430	-0.599081	0.573314
C77	C	0.620407	-0.552174	0.573288
N78	N	0.649147	-0.528716	0.506159
C79	C	0.677900	-0.552175	0.439037
C80	C	0.620535	-0.979123	0.573384
C81	C	0.620547	-1.026041	0.573392
C82	C	0.678043	-1.026042	0.439135
C83	C	0.678027	-0.979124	0.439123
C84	C	0.649275	-0.955665	0.506255
C85	C	0.677865	-0.453650	0.439013
C86	C	0.677845	-0.406730	0.439003
C87	C	0.620351	-0.406733	0.573263
C88	C	0.620369	-0.453648	0.573270
C89	C	0.649129	-0.477105	0.506142
O90	O	0.595956	-0.527871	0.630316
O91	O	0.702345	-0.527908	0.381956
C92	C	0.677961	-0.739840	0.439086
C93	C	0.649223	-0.763295	0.506221
C94	C	0.620471	-0.739836	0.573342
C95	C	0.649236	-0.810213	0.506229
C96	C	0.677989	-0.833673	0.439108
C97	C	0.706729	-0.810215	0.371978
C98	C	0.706713	-0.763299	0.371965
C99	C	0.591730	-0.763294	0.640472
C100	C	0.591748	-0.810209	0.640479
C101	C	0.620501	-0.833669	0.573358
C102	C	0.766345	-0.216662	0.506193
C103	C	0.816279	-0.216683	0.506206
C104	C	0.649198	-0.216568	0.780197
C105	C	0.649211	-0.216549	0.896974
C106	C	0.649260	-0.099435	0.506239
C107	C	0.649300	-0.049501	0.506271
C108	C	0.649161	-0.216626	0.233196
C109	C	0.649235	-0.216519	0.116420
C110	C	0.677972	-0.187824	0.951863
C111	C	0.677983	-0.187808	1.061587
C112	C	0.620471	-0.245244	1.061523
C113	C	0.620458	-0.245258	0.951801
C114	C	0.706725	-0.159115	0.897036
C115	C	0.735488	-0.130389	0.951926
C116	C	0.735499	-0.130372	1.061650
C117	C	0.706746	-0.159082	1.116484
H118	H	0.701247	-0.387634	0.384325
O119	O	0.589437	-0.276237	0.892588
H120	H	0.597115	-0.311498	0.913605
H121	H	0.706720	-0.159126	0.807693
O122	O	0.560679	-0.597234	0.712863
H123	H	0.537828	-0.575888	0.665786
H124	H	-0.179328	-0.164609	0.628325
O125	O	0.484391	-0.156900	0.646060
H126	H	0.475400	-0.164646	0.728486
H127	H	-0.094219	-0.164597	0.628339
O128	O	0.030314	-0.128292	0.713426
H129	H	0.054526	-0.108338	0.760228
O130	O	0.708880	-0.478947	0.366605
H131	H	0.728854	-0.454748	0.319917
H132	H	0.706752	-0.159062	1.205829
O133	O	0.030198	-0.305004	0.299000
H134	H	0.008827	-0.327891	0.345924
O135	O	0.560709	-0.738001	0.712867
H136	H	0.580788	-0.716594	0.766378
O137	O	0.589511	-0.953823	0.645770
H138	H	0.569525	-0.978022	0.692429
O139	O	-0.185598	-0.276336	0.366297
H140	H	-0.222160	-0.271521	0.377621
H141	H	0.262268	-0.297369	0.316762
H142	H	0.121618	-0.135861	0.695631
H143	H	0.393067	-0.164500	0.628279
O144	O	0.484315	-0.276204	0.366229
H145	H	0.460104	-0.296165	0.319438
O146	O	0.268580	-0.128250	0.713403
H147	H	0.259589	-0.135993	0.795830
H148	H	0.758894	-0.107011	0.907272
H149	H	0.597062	-0.268619	1.106178
O150	O	0.589340	-0.381422	0.645651
H151	H	0.569354	-0.405612	0.692336
O152	O	0.386799	-0.276226	0.366239
H153	H	0.410987	-0.296168	0.319425
O154	O	0.589546	-1.051340	0.645794
H155	H	0.597232	-1.042305	0.728266
O156	O	0.127711	-0.304988	0.298987
H157	H	0.103497	-0.324948	0.252202
O158	O	-0.088072	-0.276319	0.366295
H159	H	-0.112281	-0.296280	0.319497
H160	H	0.177162	-0.297385	0.316773
H161	H	0.177259	-0.135850	0.695627
H162	H	0.730098	-0.688564	0.317279
O163	O	0.737670	-0.597256	0.299523
H164	H	0.757667	-0.621458	0.252868
O165	O	0.709028	-0.953825	0.366719
H166	H	0.729025	-0.978025	0.320056
H167	H	0.568296	-0.688548	0.695137
H168	H	0.596969	-0.472747	0.627945
O169	O	0.709064	-1.051349	0.366756
H170	H	0.704246	-1.087913	0.378059
O171	O	0.737715	-0.738002	0.299559
H172	H	0.757712	-0.762204	0.252902
O173	O	0.737752	-0.835521	0.299601
H174	H	0.732936	-0.872086	0.310911
O175	O	0.766519	-0.099391	1.120858
H176	H	0.786512	-0.079434	1.064296
H177	H	0.568341	-0.829303	0.695152
