data_functionalizedCrystal
_audit_creation_method	'MofGen! by Chris Wilmer'
_symmetry_space_group_name_H-M	'P1'
_symmetry_Int_Tables_number	1
_symmetry_cell_setting	triclinic
loop_
_symmetry_equiv_pos_as_xyz
  x,y,z
_cell_length_a	21.295418
_cell_length_b	21.295417
_cell_length_c	21.295411
_cell_angle_alpha	89.978356
_cell_angle_beta	89.956262
_cell_angle_gamma	90.046319
loop_
_atom_site_label
_atom_site_type_symbol
_atom_site_fract_x
_atom_site_fract_y
_atom_site_fract_z
Zn1	Zn	-0.962356	0.250415	0.356234
Zn2	Zn	-0.962258	0.355667	0.250959
Zn3	Zn	-0.857079	0.250445	0.250943
Zn4	Zn	-0.857048	0.355680	0.356155
O5	O	-0.909685	0.303052	0.303573
O6	O	-1.050432	0.264360	0.342308
O7	O	-0.948278	0.341716	0.162867
O8	O	-0.871098	0.162351	0.264937
O9	O	-1.050361	0.341688	0.264963
O10	O	-0.948444	0.162330	0.342293
O11	O	-0.871003	0.264410	0.162856
O12	O	-0.768985	0.264422	0.264861
O13	O	-0.871046	0.341709	0.444255
O14	O	-0.768963	0.341738	0.342160
O15	O	-0.948415	0.264372	0.444313
O16	O	-0.948248	0.443758	0.264887
O17	O	-0.870951	0.443767	0.342175
C18	C	-0.909603	0.466603	0.303538
C19	C	-0.909625	0.536571	0.303544
C20	C	-0.746134	0.303085	0.303500
C21	C	-0.676166	0.303114	0.303484
C22	C	-1.073876	0.303019	0.303646
C23	C	-1.143844	0.303005	0.303677
C24	C	-0.643304	0.343426	0.343674
C25	C	-0.577561	0.343410	0.343702
C26	C	-0.544683	0.303090	0.303530
C27	C	-0.577553	0.262770	0.263337
C28	C	-0.643294	0.262783	0.263315
N29	N	-0.441407	0.298163	0.248472
N30	N	-0.378956	0.298155	0.248495
C31	C	-0.346608	0.303050	0.303596
N32	N	-0.379072	0.307965	0.358675
N33	N	-0.441529	0.307976	0.358650
C34	C	-0.473398	0.303072	0.303550
C35	C	-0.242461	0.343346	0.343820
C36	C	-0.176717	0.343326	0.343849
C37	C	-0.176710	0.262690	0.263479
C38	C	-0.242453	0.262707	0.263455
C39	C	-0.275324	0.303038	0.303625
C40	C	-0.909738	0.303038	0.467763
C41	C	-0.909760	0.303033	0.537731
C42	C	-0.909785	0.138861	0.303622
C43	C	-0.909828	0.068893	0.303642
C44	C	-0.949910	0.569412	0.263342
C45	C	-0.949939	0.635155	0.263356
C46	C	-0.909673	0.668054	0.303566
C47	C	-0.869386	0.635205	0.343776
C48	C	-0.869362	0.569464	0.343765
N49	N	-0.854606	0.771336	0.308340
N50	N	-0.854630	0.833787	0.308347
C51	C	-0.909743	0.866129	0.303602
N52	N	-0.964832	0.833659	0.298838
N53	N	-0.964807	0.771202	0.298828
C54	C	-0.909695	0.739339	0.303582
C55	C	-0.950063	0.970255	0.263413
C56	C	-0.950094	1.035999	0.263431
C57	C	-0.869535	1.036048	0.343848
C58	C	-0.869510	0.970305	0.343833
C59	C	-0.909773	0.937413	0.303612
C60	C	-0.909670	0.303019	0.140021
C61	C	-0.909769	0.302848	0.070054
C62	C	-0.950044	0.262761	0.570629
C63	C	-0.950043	0.262734	0.636371
C64	C	-0.909765	0.302989	0.669214
C65	C	-0.869473	0.343263	0.636308
C66	C	-0.869470	0.343285	0.570567
N67	N	-0.904908	0.358058	0.772428
N68	N	-0.904914	0.358036	0.834879
C69	C	-0.909769	0.302926	0.867289
N70	N	-0.914629	0.247837	0.834888
N71	N	-0.914627	0.247860	0.772430
C72	C	-0.909763	0.302970	0.740499
C73	C	-0.950054	0.262621	0.971472
C74	C	-0.950049	0.262593	1.037216
C75	C	-0.869482	0.343128	1.037151
C76	C	-0.869484	0.343151	0.971409
C77	C	-0.909773	0.302898	0.938573
H78	H	-0.670063	0.376266	0.376384
H79	H	-0.982857	0.229842	0.944736
O80	O	-0.830194	0.537490	0.382730
C81	C	-0.789528	0.499545	0.346831
H82	H	-0.811749	0.489698	0.299151
H83	H	-0.781062	0.453310	0.372451
H84	H	-0.742892	0.524941	0.339863
H85	H	-0.982850	0.943473	0.230664
H86	H	-0.982852	0.229795	1.064000
O87	O	-0.830377	0.382218	0.939351
C88	C	-0.839024	0.373617	0.874285
H89	H	-0.859668	0.325036	0.865323
H90	H	-0.791870	0.377907	0.849264
H91	H	-0.872524	0.410955	0.855652
H92	H	-0.982902	1.062737	0.230695
O93	O	-0.545689	0.223635	0.224224
C94	C	-0.561662	0.237313	0.161454
H95	H	-0.609370	0.261519	0.160091
H96	H	-0.563927	0.191841	0.133311
H97	H	-0.524608	0.269639	0.140202
H98	H	-0.836676	0.376038	0.663053
H99	H	-0.836752	1.062833	0.376591
H100	H	-0.836704	0.943564	0.376567
O101	O	-0.989196	0.223598	0.538831
C102	C	-1.024763	0.188058	0.581970
H103	H	-0.998982	0.185870	0.628815
H104	H	-1.031508	0.138464	0.562985
H105	H	-1.072557	0.211099	0.588994
H106	H	-0.149942	0.229857	0.230773
O107	O	-0.989090	0.223550	0.668366
C108	C	-0.953285	0.182895	0.706385
H109	H	-0.903709	0.179012	0.686537
H110	H	-0.976090	0.134450	0.707156
H111	H	-0.951102	0.202348	0.756205
O112	O	-0.274424	0.382584	0.382754
C113	C	-0.312380	0.423190	0.346828
H114	H	-0.292508	0.427002	0.297250
H115	H	-0.313100	0.471667	0.369508
H116	H	-0.362222	0.403735	0.344677
H117	H	-0.269209	0.229884	0.230726
O118	O	-0.545727	0.382627	0.382767
C119	C	-0.588838	0.418211	0.418231
H120	H	-0.635670	0.420366	0.392428
H121	H	-0.569797	0.467812	0.424862
H122	H	-0.595907	0.395229	0.466079
O123	O	-0.675289	0.223713	0.224239
C124	C	-0.713220	0.259503	0.183490
H125	H	-0.723042	0.307243	0.205600
H126	H	-0.759467	0.233862	0.175084
H127	H	-0.687823	0.266344	0.136837
H128	H	-0.836680	0.375898	1.063891
O129	O	-0.144890	0.382548	0.382910
C130	C	-0.188004	0.418135	0.418367
H131	H	-0.234836	0.420283	0.392562
H132	H	-0.168967	0.467739	0.424990
H133	H	-0.195074	0.395162	0.466219
O134	O	-0.989086	0.537559	0.224259
C135	C	-1.024639	0.580649	0.188768
H136	H	-1.026818	0.627496	0.214561
H137	H	-1.074234	0.561603	0.182115
H138	H	-1.001615	0.587691	0.140930
H139	H	-0.982746	0.661899	0.230619
H140	H	-0.836663	0.376078	0.543782
H141	H	-0.836602	0.661996	0.376516
