data_functionalizedCrystal
_audit_creation_method	'MofGen! by Chris Wilmer'
_symmetry_space_group_name_H-M	'P1'
_symmetry_Int_Tables_number	1
_symmetry_cell_setting	triclinic
loop_
_symmetry_equiv_pos_as_xyz
  x,y,z
_cell_length_a	19.288864
_cell_length_b	19.288857
_cell_length_c	18.366186
_cell_angle_alpha	89.991598
_cell_angle_beta	89.977106
_cell_angle_gamma	83.134677
loop_
_atom_site_label
_atom_site_type_symbol
_atom_site_fract_x
_atom_site_fract_y
_atom_site_fract_z
O1	O	0.921350	0.086649	-0.060787
O2	O	1.421350	0.586649	0.439213
O3	O	0.719089	0.098338	-0.060737
O4	O	1.219089	0.598338	0.439263
O5	O	0.826067	-0.008637	-0.060755
O6	O	1.326067	0.491363	0.439245
O7	O	0.814373	0.193624	-0.060769
O8	O	1.314373	0.693624	0.439231
O9	O	0.826049	-0.008643	0.060345
O10	O	1.326049	0.491357	0.560345
O11	O	0.719071	0.098333	0.060362
O12	O	1.219071	0.598333	0.560362
O13	O	0.921332	0.086644	0.060313
O14	O	1.421332	0.586644	0.560313
Zn15	Zn	0.820199	0.092487	0.079565
Zn16	Zn	1.320199	0.592487	0.579565
Zn17	Zn	0.820223	0.092494	-0.079989
Zn18	Zn	1.320223	0.592494	0.420011
O19	O	0.814355	0.193619	0.060330
O20	O	1.314355	0.693619	0.560330
C21	C	0.825683	-0.034516	-0.000204
C22	C	1.325683	0.465484	0.499796
C23	C	0.824556	-0.111620	-0.000202
C24	C	1.324556	0.388380	0.499798
C25	C	0.693204	0.097959	-0.000181
C26	C	1.193204	0.597959	0.499819
C27	C	0.616100	0.096830	-0.000162
C28	C	1.116100	0.596830	0.499838
C29	C	0.824040	-0.147828	-0.066213
C30	C	1.324040	0.352172	0.433787
C31	C	0.822971	-0.220274	-0.066218
C32	C	1.322971	0.279726	0.433782
C33	C	0.822432	-0.256511	-0.000208
C34	C	1.322432	0.243489	0.499792
C35	C	0.822945	-0.220294	0.065812
C36	C	1.322945	0.279706	0.565812
C37	C	0.824006	-0.147849	0.065815
C38	C	1.324006	0.352151	0.565815
C39	C	0.861426	-0.376745	0.050350
C40	C	1.361426	0.123255	0.550350
C41	C	0.860369	-0.449190	0.050344
C42	C	1.360369	0.050810	0.550344
C43	C	0.819155	-0.479957	-0.000216
C44	C	1.319155	0.020043	0.499784
C45	C	0.779007	-0.438272	-0.050781
C46	C	1.279007	0.061728	0.449219
C47	C	0.780068	-0.365827	-0.050778
C48	C	1.280068	0.134173	0.449222
C49	C	0.821281	-0.335066	-0.000205
C50	C	1.321281	0.164934	0.499795
C51	C	0.817479	-0.594719	-0.066237
C52	C	1.317479	-0.094719	0.433763
C53	C	0.816406	-0.667166	-0.066240
C54	C	1.316406	-0.167166	0.433760
C55	C	0.816386	-0.667186	0.065792
C56	C	1.316386	-0.167186	0.565792
C57	C	0.817452	-0.594740	0.065793
C58	C	1.317452	-0.094740	0.565793
C59	C	0.818002	-0.558511	-0.000224
C60	C	1.318002	-0.058511	0.499776
C61	C	0.571402	0.159598	-0.000178
C62	C	1.071402	0.659598	0.499822
C63	C	0.498955	0.158537	-0.000186
C64	C	0.998955	0.658537	0.499814
C65	C	0.471210	0.094705	-0.000193
C66	C	0.971210	0.594705	0.499807
C67	C	0.515917	0.031929	-0.000172
C68	C	1.015917	0.531929	0.499828
C69	C	0.588363	0.032991	-0.000157
C70	C	1.088363	0.532991	0.499843
C71	C	0.362955	0.044528	-0.042640
C72	C	0.862955	0.544528	0.457360
C73	C	0.290511	0.043468	-0.042660
C74	C	0.790511	0.543468	0.457340
C75	C	0.247764	0.091425	-0.000236
C76	C	0.747764	0.591425	0.499764
C77	C	0.277469	0.140455	0.042197
C78	C	0.777469	0.640455	0.542197
C79	C	0.349914	0.141517	0.042213
C80	C	0.849914	0.641517	0.542213
C81	C	0.392656	0.093546	-0.000209
C82	C	0.892656	0.593546	0.499791
C83	C	0.124510	0.153048	-0.000260
C84	C	0.624510	0.653048	0.499740
C85	C	0.052062	0.151984	-0.000263
C86	C	0.552062	0.651984	0.499737
C87	C	0.069026	0.025374	-0.000257
C88	C	0.569026	0.525374	0.499743
C89	C	0.141472	0.026439	-0.000246
C90	C	0.641472	0.526439	0.499754
C91	C	0.169210	0.090278	-0.000251
C92	C	0.669210	0.590278	0.499749
C93	C	0.947218	0.087022	-0.000245
C94	C	1.447218	0.587022	0.499755
C95	C	1.024321	0.088151	-0.000269
C96	C	1.524321	0.588151	0.499731
C97	C	0.814739	0.219498	-0.000222
C98	C	1.314739	0.719498	0.499778
C99	C	0.815866	0.296602	-0.000229
C100	C	1.315866	0.796602	0.499771
N101	N	0.820188	0.092482	0.188456
N102	N	1.320188	0.592482	0.688456
N103	N	0.820240	0.092494	-0.188880
N104	N	1.320240	0.592494	0.311120
C105	C	0.867573	0.045137	0.226548
C106	C	1.367573	0.545137	0.726548
C107	C	0.867577	0.045134	0.302776
C108	C	1.367577	0.545134	0.802776
C109	C	0.820203	0.092488	0.340909
C110	C	1.320203	0.592488	0.840909
C111	C	0.772809	0.139837	0.302807
C112	C	1.272809	0.639837	0.802807
C113	C	0.772801	0.139834	0.226580
C114	C	1.272801	0.639834	0.726580
C115	C	0.810903	0.155776	0.461666
C116	C	1.310903	0.655776	0.961666
C117	C	0.810916	0.155780	0.537891
C118	C	1.310916	0.655780	1.037891
C119	C	0.820223	0.092497	0.576016
C120	C	1.320223	0.592497	1.076016
C121	C	0.829532	0.029207	0.537907
C122	C	1.329532	0.529207	1.037907
C123	C	0.829524	0.029204	0.461681
C124	C	1.329524	0.529204	0.961681
C125	C	0.820206	0.092496	0.423563
C126	C	1.320206	0.592496	0.923563
C127	C	0.867615	0.045144	0.696764
C128	C	1.367615	0.545144	1.196764
C129	C	0.867615	0.045140	0.772993
C130	C	1.367615	0.545140	1.272993
C131	C	0.772850	0.139849	0.773022
C132	C	1.272850	0.639849	1.273022
C133	C	0.772847	0.139847	0.696794
C134	C	1.272847	0.639847	1.196794
C135	C	0.820233	0.092495	0.658670
C136	C	1.320233	0.592495	1.158670
H137	H	0.822546	-0.249760	-0.119974
H138	H	1.322546	0.250240	0.380026
N139	N	0.815806	-0.706267	0.136986
N140	N	1.315806	-0.206267	0.636986
H141	H	0.859035	-0.699431	0.165837
H142	H	1.359035	-0.199431	0.665837
H143	H	0.772910	-0.687879	0.165800
H144	H	1.272910	-0.187879	0.665800
N145	N	0.918687	-0.005930	0.343880
N146	N	1.418687	0.494070	0.843880
H147	H	0.910852	-0.055211	0.330633
H148	H	1.410852	0.444789	0.830633
H149	H	0.967931	0.002010	0.330573
H150	H	1.467931	0.502010	0.830573
N151	N	0.824565	-0.108791	0.137015
N152	N	1.324565	0.391209	0.637015
H153	H	0.824060	-0.142737	0.178834
H154	H	1.324060	0.357263	0.678834
H155	H	0.868057	-0.084504	0.139881
H156	H	1.368057	0.415496	0.639881
H157	H	0.397755	0.005473	-0.077190
H158	H	0.897755	0.505473	0.422810
N159	N	0.231367	0.192177	0.087961
N160	N	0.731367	0.692177	0.587961
H161	H	0.244816	0.185888	0.140903
H162	H	0.744816	0.685888	0.640903
H163	H	0.237447	0.241212	0.072065
H164	H	0.737447	0.741212	0.572065
N165	N	0.721749	0.190920	0.655698
N166	N	1.221749	0.690920	1.155698
H167	H	0.691080	0.164453	0.624093
H168	H	1.191080	0.664453	1.124093
H169	H	0.691784	0.220910	0.691461
H170	H	1.191784	0.720910	1.191461
H171	H	0.147095	0.205029	-0.000253
H172	H	0.647095	0.705029	0.499747
N173	N	0.905885	-0.343563	0.104882
N174	N	1.405885	0.156437	0.604882
H175	H	0.875158	-0.309337	0.136002
H176	H	1.375158	0.190663	0.636002
H177	H	0.931154	-0.381005	0.136859
H178	H	1.431154	0.118995	0.636859
N179	N	0.903672	-0.494143	0.104879
N180	N	1.403672	0.005857	0.604879
H181	H	0.872062	-0.520035	0.135990
H182	H	1.372062	-0.020035	0.635990
H183	H	0.938027	-0.528814	0.078218
H184	H	1.438027	-0.028814	0.578218
N185	N	0.721692	0.190908	0.185497
N186	N	1.221692	0.690908	0.685497
H187	H	0.748132	0.221596	0.153852
H188	H	1.248132	0.721596	0.653852
H189	H	0.691034	0.164394	0.153932
H190	H	1.191034	0.664394	0.653932
N191	N	0.003848	0.219688	-0.000223
N192	N	0.503848	0.719688	0.499777
H193	H	0.032416	0.260287	-0.000207
H194	H	0.532416	0.760287	0.499793
H195	H	-0.026582	0.222037	-0.045103
H196	H	0.473418	0.722037	0.454897
N197	N	0.839588	-0.039057	0.579011
N198	N	1.339588	0.460943	1.079011
H199	H	0.801080	-0.067929	0.565770
H200	H	1.301080	0.432071	1.065770
H201	H	0.886266	-0.065459	0.565699
H202	H	1.386266	0.434541	1.065699
N203	N	0.601320	0.228450	-0.000188
N204	N	1.101320	0.728450	0.499812
H205	H	0.562006	0.268052	-0.000202
H206	H	1.062006	0.768052	0.499798
H207	H	0.630984	0.231654	0.044709
H208	H	1.130984	0.731654	0.544709
H209	H	0.493322	-0.020044	-0.000188
H210	H	0.993322	0.479956	0.499812
H211	H	0.824485	-0.118335	-0.119969
H212	H	1.324485	0.381665	0.380031
N213	N	0.918735	-0.005924	0.814076
N214	N	1.418735	0.494076	1.314076
H215	H	0.892307	-0.036621	0.845722
H216	H	1.392307	0.463379	1.345722
H217	H	0.948737	-0.035865	0.778303
H218	H	1.448737	0.464135	1.278303
N219	N	0.918719	-0.005927	0.655637
N220	N	1.418719	0.494073	1.155637
H221	H	0.948736	-0.035925	0.691339
H222	H	1.448736	0.464075	1.191339
H223	H	0.892226	-0.036566	0.624027
H224	H	1.392226	0.463434	1.124027
H225	H	0.817878	-0.565260	0.119546
H226	H	1.317878	-0.065260	0.619546
H227	H	0.734275	0.178403	0.804068
H228	H	1.234275	0.678403	1.304068
N229	N	0.258474	-0.009409	-0.088426
N230	N	0.758474	0.490591	0.411574
H231	H	0.296546	-0.039635	-0.115291
H232	H	0.796546	0.460365	0.384709
H233	H	0.232386	-0.039630	-0.055884
H234	H	0.732386	0.460370	0.444116
H235	H	0.747377	-0.331889	-0.091949
H236	H	1.247377	0.168111	0.408051
N237	N	0.381959	0.194383	0.087986
N238	N	0.881959	0.694383	0.587986
H239	H	0.408041	0.224658	0.055495
H240	H	0.908041	0.724658	0.555495
H241	H	0.343856	0.224558	0.114857
H242	H	0.843856	0.724558	0.614857
H243	H	0.803340	0.207314	0.568913
H244	H	1.303340	0.707314	1.068913
N245	N	0.822372	-0.259377	0.137008
N246	N	1.322372	0.240623	0.637008
H247	H	0.822861	-0.225444	0.178828
H248	H	1.322861	0.274556	0.678828
H249	H	0.778883	-0.283672	0.139893
H250	H	1.278883	0.216328	0.639893
N251	N	0.800865	0.224036	0.420548
N252	N	1.300865	0.724036	0.920548
H253	H	0.794977	0.264128	0.456254
H254	H	1.294977	0.764128	0.956254
H255	H	0.843046	0.227979	0.388900
H256	H	1.343046	0.727979	0.888900
H257	H	0.462555	0.209652	-0.000197
H258	H	0.962555	0.709652	0.499803
H259	H	0.734235	0.178392	0.333858
H260	H	1.234235	0.678392	0.833858
H261	H	0.745446	-0.463321	-0.091952
H262	H	1.245446	0.036679	0.408048
H263	H	0.046436	-0.026600	-0.000308
H264	H	0.546436	0.473400	0.499692
H265	H	0.817922	-0.565220	-0.119992
H266	H	1.317922	-0.065220	0.380008
H267	H	0.815982	-0.696645	-0.119996
H268	H	1.315982	-0.196645	0.380004
N269	N	0.636581	-0.034709	-0.000149
N270	N	1.136581	0.465291	0.499851
H271	H	0.666994	-0.037090	0.044748
H272	H	1.166994	0.462910	0.544748
H273	H	0.607969	-0.075272	-0.000180
H274	H	1.107969	0.424728	0.499820
H275	H	0.177867	-0.024674	-0.000237
H276	H	0.677867	0.475326	0.499763
N277	N	0.918678	-0.005935	0.185429
N278	N	1.418678	0.494065	0.685429
H279	H	0.948696	-0.035930	0.221132
H280	H	1.448696	0.464070	0.721132
H281	H	0.892184	-0.036579	0.153824
H282	H	1.392184	0.463421	0.653824
H283	H	0.837103	-0.022329	0.430656
H284	H	1.337103	0.477671	0.930656
