data_functionalizedCrystal
_audit_creation_method	'MofGen! by Chris Wilmer'
_symmetry_space_group_name_H-M	'P1'
_symmetry_Int_Tables_number	1
_symmetry_cell_setting	triclinic
loop_
_symmetry_equiv_pos_as_xyz
  x,y,z
_cell_length_a	17.699103
_cell_length_b	17.699083
_cell_length_c	16.176319
_cell_angle_alpha	90.001389
_cell_angle_beta	89.988235
_cell_angle_gamma	96.712962
loop_
_atom_site_label
_atom_site_type_symbol
_atom_site_fract_x
_atom_site_fract_y
_atom_site_fract_z
O1	O	0.095712	-1.004086	-0.068640
O2	O	0.595712	-0.504086	0.431360
O3	O	0.108165	-0.783708	-0.068668
O4	O	0.608165	-0.283708	0.431332
O5	O	-0.008250	-0.900115	-0.068637
O6	O	0.491750	-0.400115	0.431363
O7	O	0.212127	-0.887678	-0.068670
O8	O	0.712127	-0.387678	0.431330
O9	O	-0.008257	-0.900099	0.068856
O10	O	0.491743	-0.400099	0.568856
O11	O	0.108157	-0.783692	0.068825
O12	O	0.608157	-0.283692	0.568825
O13	O	0.095705	-1.004070	0.068853
O14	O	0.595705	-0.504070	0.568853
Cu15	Cu	0.101930	-0.893879	0.081394
Cu16	Cu	0.601930	-0.393879	0.581394
Cu17	Cu	0.101939	-0.893898	-0.081208
Cu18	Cu	0.601939	-0.393898	0.418792
O19	O	0.212119	-0.887662	0.068823
O20	O	0.712119	-0.387662	0.568823
C21	C	0.107715	-0.755503	0.000075
C22	C	0.607715	-0.255503	0.500075
C23	C	0.106376	-0.671485	0.000065
C24	C	0.606376	-0.171485	0.500065
C25	C	-0.036450	-0.899659	0.000112
C26	C	0.463550	-0.399659	0.500112
C27	C	-0.120468	-0.898315	0.000118
C28	C	0.379532	-0.398315	0.500118
C29	C	0.096155	-1.032275	0.000108
C30	C	0.596155	-0.532275	0.500108
C31	C	0.097493	-1.116293	0.000113
C32	C	0.597493	-0.616293	0.500113
C33	C	-0.636175	-0.890099	-0.074884
C34	C	-0.136175	-0.390099	0.425116
C35	C	-0.557232	-0.891361	-0.074877
C36	C	-0.057232	-0.391361	0.425123
C37	C	-0.517777	-0.891982	0.000076
C38	C	-0.017777	-0.391982	0.500076
C39	C	-0.557271	-0.891349	0.075026
C40	C	-0.057271	-0.391349	0.575026
C41	C	-0.636214	-0.890092	0.075017
C42	C	-0.136214	-0.390092	0.575017
C43	C	-0.238905	-0.896418	0.075061
C44	C	0.261095	-0.396418	0.575061
C45	C	-0.159956	-0.897673	0.075063
C46	C	0.340044	-0.397673	0.575063
C47	C	-0.159923	-0.897688	-0.074833
C48	C	0.340077	-0.397688	0.425167
C49	C	-0.238865	-0.896431	-0.074842
C50	C	0.261135	-0.396431	0.425158
C51	C	-0.278353	-0.895802	0.000108
C52	C	0.221647	-0.395802	0.500108
C53	C	-0.363952	-0.894434	0.000099
C54	C	0.136048	-0.394434	0.500099
C55	C	-0.432178	-0.893344	0.000086
C56	C	0.067822	-0.393344	0.500086
C57	C	0.240320	-0.888119	0.000072
C58	C	0.740320	-0.388119	0.500072
C59	C	0.324337	-0.889463	0.000060
C60	C	0.824337	-0.389463	0.500060
N61	N	0.101924	-0.893872	0.195759
N62	N	0.601924	-0.393872	0.695759
C63	C	0.174709	-0.622869	0.000055
C64	C	0.674709	-0.122869	0.500055
C65	C	0.173447	-0.543925	0.000066
C66	C	0.673447	-0.043925	0.500066
C67	C	0.103851	-0.513600	0.000081
C68	C	0.603851	-0.013600	0.500081
C69	C	0.035513	-0.562222	0.000094
C70	C	0.535513	-0.062222	0.500094
C71	C	0.036776	-0.641164	0.000089
C72	C	0.536776	-0.141164	0.500089
C73	C	0.030418	-0.243859	0.000115
C74	C	0.530418	0.256141	0.500115
C75	C	0.029160	-0.164910	0.000117
C76	C	0.529160	0.335090	0.500117
C77	C	0.167088	-0.146620	0.000092
C78	C	0.667088	0.353380	0.500092
C79	C	0.168351	-0.225562	0.000087
C80	C	0.668351	0.274438	0.500087
C81	C	0.100014	-0.274177	0.000104
C82	C	0.600014	0.225823	0.500104
C83	C	0.101383	-0.359777	0.000094
C84	C	0.601383	0.140223	0.500094
C85	C	0.102480	-0.428002	0.000085
C86	C	0.602480	0.071998	0.500085
N87	N	0.101940	-0.893912	-0.195573
N88	N	0.601940	-0.393912	0.304427
C89	C	0.050396	-0.945432	0.239037
C90	C	0.550396	-0.445432	0.739037
C91	C	0.050396	-0.945436	0.325584
C92	C	0.550396	-0.445436	0.825584
C93	C	0.101926	-0.893882	0.368851
C94	C	0.601926	-0.393882	0.868851
C95	C	0.153456	-0.842316	0.325567
C96	C	0.653456	-0.342316	0.825567
C97	C	0.153453	-0.842309	0.239022
C98	C	0.653453	-0.342309	0.739022
C99	C	0.153470	-0.842342	0.674596
C100	C	0.653470	-0.342342	1.174596
C101	C	0.153471	-0.842354	0.761147
C102	C	0.653471	-0.342354	1.261147
C103	C	0.050413	-0.945469	0.761157
C104	C	0.550413	-0.445469	1.261157
C105	C	0.050410	-0.945462	0.674612
C106	C	0.550410	-0.445462	1.174612
C107	C	0.101936	-0.893894	0.631336
C108	C	0.601936	-0.393894	1.131336
C109	C	0.101936	-0.893889	0.537491
C110	C	0.601936	-0.393889	1.037491
C111	C	0.101931	-0.893890	0.462694
C112	C	0.601931	-0.393890	0.962694
H113	H	-0.668292	-0.889586	-0.135920
H114	H	-0.168292	-0.389586	0.364080
Cl115	Cl	-0.049132	-0.702282	0.000105
Cl116	Cl	0.450868	-0.202282	0.500105
Cl117	Cl	0.262206	-0.660984	0.000031
Cl118	Cl	0.762206	-0.160984	0.500031
H119	H	0.225023	-0.250248	0.000071
H120	H	0.725023	0.249752	0.500071
H121	H	-0.525084	-0.891881	-0.135904
H122	H	-0.025084	-0.391881	0.364096
Cl123	Cl	-0.110278	-0.898491	-0.169057
Cl124	Cl	0.389722	-0.398491	0.330943
H125	H	-0.021153	-0.537525	0.000118
H126	H	0.478847	-0.037525	0.500118
Cl127	Cl	0.218248	-0.777518	0.620197
Cl128	Cl	0.718248	-0.277518	1.120197
H129	H	-0.027517	-0.140223	0.000131
H130	H	0.472483	0.359777	0.500131
H131	H	0.222732	-0.107027	0.000083
H132	H	0.722732	0.392973	0.500083
Cl133	Cl	-0.014386	-1.010250	0.184652
Cl134	Cl	0.485614	-0.510250	0.684652
H135	H	0.195411	-0.800336	0.360801
H136	H	0.695411	-0.300336	0.860801
H137	H	0.008455	-0.987456	0.796402
H138	H	0.508455	-0.487456	1.296402
Cl139	Cl	-0.014383	-1.010255	0.379992
Cl140	Cl	0.485617	-0.510255	0.879992
H141	H	0.008451	-0.987444	0.639386
H142	H	0.508451	-0.487444	1.139386
H143	H	0.195435	-0.800370	0.796374
H144	H	0.695435	-0.300370	1.296374
H145	H	0.195410	-0.800323	0.203786
H146	H	0.695410	-0.300323	0.703786
H147	H	-0.270985	-0.895922	-0.135876
H148	H	0.229015	-0.395922	0.364124
Cl149	Cl	-0.110358	-0.898454	0.169297
Cl150	Cl	0.389642	-0.398454	0.669297
H151	H	-0.668364	-0.889573	0.136045
H152	H	-0.168364	-0.389573	0.636045
H153	H	-0.271046	-0.895907	0.136089
H154	H	0.228954	-0.395907	0.636089
H155	H	-0.525142	-0.891859	0.136053
H156	H	-0.025142	-0.391859	0.636053
H157	H	0.229090	-0.504345	0.000057
H158	H	0.729090	-0.004345	0.500057
Cl159	Cl	-0.055493	-0.304965	0.000135
Cl160	Cl	0.444507	0.195035	0.500135
