data_functionalizedCrystal
_audit_creation_method	'MofGen! by Chris Wilmer'
_symmetry_space_group_name_H-M	'P1'
_symmetry_Int_Tables_number	1
_symmetry_cell_setting	triclinic
loop_
_symmetry_equiv_pos_as_xyz
  x,y,z
_cell_length_a	14.519731
_cell_length_b	14.472310
_cell_length_c	14.519709
_cell_angle_alpha	90.002001
_cell_angle_beta	96.315501
_cell_angle_gamma	89.985857
loop_
_atom_site_label
_atom_site_type_symbol
_atom_site_fract_x
_atom_site_fract_y
_atom_site_fract_z
O1	O	-1.223868	0.076867	0.120978
O2	O	-0.955393	0.076864	0.135195
O3	O	-1.096749	0.076857	-0.006151
O4	O	-1.082512	0.076873	0.262324
O5	O	-1.096712	-0.076825	-0.006143
O6	O	-0.955357	-0.076818	0.135203
O7	O	-1.223831	-0.076815	0.120987
Cu8	Cu	-1.089591	-0.090849	0.128095
Cu9	Cu	-1.089634	0.090898	0.128086
O10	O	-1.082476	-0.076809	0.262333
C11	C	-0.921016	0.000022	0.134532
C12	C	-0.818635	0.000021	0.132536
C13	C	-0.735491	0.000023	0.130915
C14	C	-0.631182	0.000021	0.128888
C15	C	-0.548043	0.000020	0.127280
C16	C	-0.443728	0.000020	0.125253
N17	N	-1.089567	-0.218680	0.128102
C18	C	-1.089632	-0.592771	0.128082
C19	C	-1.013742	-0.553602	0.203459
C20	C	-1.013917	-0.446514	0.203735
C21	C	-1.089599	-0.407180	0.128092
C22	C	-1.185859	-0.446015	0.149275
C23	C	-1.185433	-0.553136	0.149811
C24	C	-1.070122	-0.553307	0.031300
C25	C	-1.067916	-0.446180	0.031941
C26	C	-1.089586	-0.302292	0.128095
C27	C	-1.089652	-0.697659	0.128080
C28	C	-0.258209	0.000024	0.121649
C29	C	-0.360589	0.000018	0.123645
C30	C	-1.096067	0.000016	-0.040507
C31	C	-1.094079	0.000015	-0.142889
N32	N	-1.089665	0.218728	0.128072
C33	C	-1.086759	0.000039	-0.517785
C34	C	-1.088792	0.000032	-0.413477
C35	C	-1.090419	0.000026	-0.330340
C36	C	-1.092452	0.000021	-0.226025
C37	C	-1.083157	0.000035	0.296688
C38	C	-1.085146	0.000041	0.399070
H39	H	-0.941964	-0.579392	0.191019
H40	H	-0.997106	-0.420799	0.015869
H41	H	-1.203434	-0.419173	0.219059
H42	H	-1.026046	-0.580507	0.274872
C43	C	-1.040752	-0.487649	0.358739
C44	C	-1.030770	-0.411893	0.300681
H45	H	-1.051165	-0.466274	0.418589
H46	H	-0.985946	-0.523969	0.363247
H47	H	-1.091925	-0.524072	0.333760
H48	H	-0.979591	-0.375473	0.325656
H49	H	-1.085582	-0.375558	0.296175
C50	C	-1.222733	-0.510559	0.301174
C51	C	-1.208600	-0.586854	0.245103
H52	H	-1.237028	-0.531374	0.360006
H53	H	-1.272668	-0.474541	0.272706
H54	H	-1.168079	-0.474029	0.308848
H55	H	-1.263256	-0.623380	0.237424
H56	H	-1.158660	-0.622887	0.273578
H57	H	-1.243688	-0.420534	0.095842
C58	C	-0.917287	-0.314310	0.186959
C59	C	-0.917319	-0.411063	0.186719
H60	H	-0.857646	-0.292430	0.176464
H61	H	-0.932189	-0.292576	0.245243
H62	H	-0.961998	-0.292310	0.139319
H63	H	-0.872613	-0.433064	0.234363
H64	H	-0.902406	-0.432806	0.128427
C65	C	-1.311180	-0.512579	0.035517
C66	C	-1.263956	-0.588120	0.078518
H67	H	-1.359656	-0.534175	-0.008492
H68	H	-1.269303	-0.476235	0.005000
H69	H	-1.336620	-0.476104	0.080883
H70	H	-1.238509	-0.624591	0.033153
H71	H	-1.305840	-0.624479	0.109036
C72	C	-0.936550	-0.648277	0.073614
C73	C	-0.977389	-0.589810	0.003874
H74	H	-0.879295	-0.670806	0.056691
H75	H	-0.976772	-0.698766	0.081330
H76	H	-0.925872	-0.614901	0.130115
H77	H	-0.988073	-0.623187	-0.052626
H78	H	-0.937157	-0.539313	-0.003853
H79	H	-1.119589	-0.419408	-0.026792
C80	C	-1.191472	-0.511555	-0.087262
C81	C	-1.144823	-0.587503	-0.044432
H82	H	-1.237593	-0.532672	-0.134006
H83	H	-1.148573	-0.473420	-0.114410
H84	H	-1.219900	-0.477073	-0.042416
H85	H	-1.116389	-0.621981	-0.089276
H86	H	-1.187729	-0.625654	-0.017284
