data_functionalizedCrystal
_audit_creation_method	'MofGen! by Chris Wilmer'
_symmetry_space_group_name_H-M	'P1'
_symmetry_Int_Tables_number	1
_symmetry_cell_setting	triclinic
loop_
_symmetry_equiv_pos_as_xyz
  x,y,z
_cell_length_a	13.897448
_cell_length_b	19.805407
_cell_length_c	19.805399
_cell_angle_alpha	90.019197
_cell_angle_beta	89.974981
_cell_angle_gamma	89.986158
loop_
_atom_site_label
_atom_site_type_symbol
_atom_site_fract_x
_atom_site_fract_y
_atom_site_fract_z
Zn1	Zn	-0.384136	-1.034777	-0.382725
Zn2	Zn	0.115864	-0.534777	0.117275
Zn3	Zn	-0.545442	-1.034709	-0.269542
Zn4	Zn	-0.045442	-0.534709	0.230458
Zn5	Zn	-0.384152	-0.921591	-0.269550
Zn6	Zn	0.115848	-0.421591	0.230450
Zn7	Zn	-0.545380	-0.921572	-0.382689
Zn8	Zn	-0.045380	-0.421572	0.117311
O9	O	-0.464778	-0.978162	-0.326127
O10	O	0.035222	-0.478162	0.173873
O11	O	-0.405553	-1.129484	-0.367722
O12	O	0.094447	-0.629484	0.132278
O13	O	-0.524079	-1.019683	-0.174826
O14	O	-0.024079	-0.519683	0.325174
O15	O	-0.249168	-0.936642	-0.284582
O16	O	0.250832	-0.436642	0.215418
O17	O	-0.524064	-1.129434	-0.284567
O18	O	-0.024064	-0.629434	0.215433
O19	O	-0.249157	-1.019799	-0.367731
O20	O	0.250843	-0.519799	0.132269
O21	O	-0.405580	-0.936576	-0.174832
O22	O	0.094420	-0.436576	0.325168
O23	O	-0.405520	-0.826872	-0.284547
O24	O	0.094480	-0.326872	0.215453
O25	O	-0.523958	-0.936609	-0.477411
O26	O	-0.023958	-0.436609	0.022589
O27	O	-0.523974	-0.826858	-0.367670
O28	O	-0.023974	-0.326858	0.132330
O29	O	-0.405493	-1.019780	-0.477437
O30	O	0.094507	-0.519780	0.022563
O31	O	-0.680416	-1.019664	-0.284532
O32	O	-0.180416	-0.519664	0.215468
O33	O	-0.680370	-0.936543	-0.367661
O34	O	-0.180370	-0.436543	0.132339
C35	C	-0.464742	-0.802306	-0.326106
C36	C	0.035258	-0.302306	0.173894
C37	C	-0.464751	-0.727074	-0.326113
C38	C	0.035249	-0.227074	0.173887
C39	C	-0.403150	-0.691757	-0.369477
C40	C	0.096850	-0.191757	0.130523
C41	C	-0.403153	-0.621068	-0.369478
C42	C	0.096847	-0.121068	0.130522
C43	C	-0.464762	-0.585699	-0.326118
C44	C	0.035238	-0.085699	0.173882
C45	C	-0.526365	-0.621021	-0.282749
C46	C	-0.026365	-0.121021	0.217251
C47	C	-0.526357	-0.691708	-0.282745
C48	C	-0.026357	-0.191708	0.217255
C49	C	-0.526400	-0.335948	-0.282763
C50	C	-0.026400	0.164052	0.217237
C51	C	-0.526406	-0.265256	-0.282771
C52	C	-0.026406	0.234744	0.217229
C53	C	-0.403197	-0.265308	-0.369495
C54	C	0.096803	0.234692	0.130505
C55	C	-0.403188	-0.335995	-0.369492
C56	C	0.096812	0.164005	0.130508
C57	C	-0.464787	-0.371311	-0.326121
C58	C	0.035213	0.128689	0.173879
C59	C	-0.464782	-0.447960	-0.326119
C60	C	0.035218	0.052040	0.173881
C61	C	-0.464773	-0.509051	-0.326122
C62	C	0.035227	-0.009051	0.173878
C63	C	-0.715392	-0.978113	-0.326107
C64	C	-0.215392	-0.478113	0.173893
C65	C	-0.822606	-0.978154	-0.326121
C66	C	-0.322606	-0.478154	0.173879
C67	C	-1.018901	-0.978225	-0.326164
C68	C	-0.518901	-0.478225	0.173836
C69	C	-0.909669	-0.978183	-0.326142
C70	C	-0.409669	-0.478183	0.173858
C71	C	-0.213185	-0.978230	-0.326161
C72	C	0.286815	-0.478230	0.173839
C73	C	-0.105971	-0.978259	-0.326176
C74	C	0.394029	-0.478259	0.173824
C75	C	-0.464717	-0.978200	-0.502669
C76	C	0.035283	-0.478200	-0.002669
C77	C	-0.464691	-0.978216	-0.577901
C78	C	0.035309	-0.478216	-0.077901
C79	C	-0.464807	-0.154705	-0.326142
C80	C	0.035193	0.345295	0.173858
C81	C	-0.464800	-0.229937	-0.326132
C82	C	0.035200	0.270063	0.173868
C83	C	-0.403003	-1.021524	-0.613260
C84	C	0.096997	-0.521524	-0.113260
C85	C	-0.402975	-1.021531	-0.683949
C86	C	0.097025	-0.521531	-0.183949
C87	C	-0.464641	-0.978233	-0.719277
C88	C	0.035359	-0.478233	-0.219277
C89	C	-0.526331	-0.934920	-0.683913
C90	C	-0.026331	-0.434920	-0.183913
C91	C	-0.526354	-0.934910	-0.613226
C92	C	-0.026354	-0.434910	-0.113226
C93	C	-0.526241	-0.934958	-0.968987
C94	C	-0.026241	-0.434958	-0.468987
C95	C	-0.526216	-0.934973	-1.039679
C96	C	-0.026216	-0.434973	-0.539679
C97	C	-0.402863	-1.021579	-1.039709
C98	C	0.097137	-0.521579	-0.539709
C99	C	-0.402885	-1.021570	-0.969022
C100	C	0.097115	-0.521570	-0.469022
C101	C	-0.464572	-0.978254	-0.933664
C102	C	0.035428	-0.478254	-0.433664
C103	C	-0.464600	-0.978247	-0.857016
C104	C	0.035400	-0.478247	-0.357016
C105	C	-0.464618	-0.978244	-0.795924
C106	C	0.035382	-0.478244	-0.295924
C107	C	-0.464769	-0.978163	-0.150271
C108	C	0.035231	-0.478163	0.349729
C109	C	-0.464523	-0.978278	-0.075039
C110	C	0.035477	-0.478278	0.424961
H111	H	-0.576559	-0.364694	-0.247448
H112	H	-0.076559	0.135306	0.252552
O113	O	-0.336736	-0.374140	-0.416260
O114	O	0.163264	0.125860	0.083740
H115	H	-0.347085	-0.429227	-0.408976
H116	H	0.152915	0.070773	0.091024
O117	O	-0.336708	-0.582978	-0.416249
O118	O	0.163292	-0.082978	0.083751
H119	H	-0.379946	-0.550775	-0.450629
H120	H	0.120054	-0.050775	0.049371
H121	H	-0.352791	-1.056785	-0.584501
H122	H	0.147209	-0.556785	-0.084501
O123	O	-0.592836	-0.888213	-0.722014
O124	O	-0.092836	-0.388213	-0.222014
H125	H	-0.641916	-0.918495	-0.754215
H126	H	-0.141916	-0.418495	-0.254215
H127	H	-0.353036	-0.236545	-0.404808
H128	H	0.146964	0.263455	0.095192
H129	H	-0.352674	-1.056830	-0.940261
H130	H	0.147326	-0.556830	-0.440261
H131	H	-0.576485	-0.899699	-0.940207
H132	H	-0.076485	-0.399699	-0.440207
H133	H	-0.352745	-1.056799	-0.712735
H134	H	0.147255	-0.556799	-0.212735
H135	H	-0.576518	-0.720463	-0.247433
H136	H	-0.076518	-0.220463	0.252567
O137	O	-0.592852	-0.227109	-0.235993
O138	O	-0.092852	0.272891	0.264007
H139	H	-0.641999	-0.194915	-0.266225
H140	H	-0.141999	0.305085	0.233775
H141	H	-0.576524	-0.592217	-0.247441
H142	H	-0.076524	-0.092217	0.252559
O143	O	-0.592719	-0.888264	-1.077787
O144	O	-0.092719	-0.388264	-0.577787
H145	H	-0.635609	-0.858135	-1.041326
H146	H	-0.135609	-0.358135	-0.541326
O147	O	-0.336297	-1.068282	-1.077844
O148	O	0.163703	-0.568282	-0.577844
H149	H	-0.346622	-1.061007	-1.132932
H150	H	0.153378	-0.561007	-0.632932
H151	H	-0.576577	-0.899638	-0.584438
H152	H	-0.076577	-0.399638	-0.084438
H153	H	-0.352983	-0.720550	-0.404788
H154	H	0.147017	-0.220550	0.095212
