data_functionalizedCrystal
_audit_creation_method	'MofGen! by Chris Wilmer'
_symmetry_space_group_name_H-M	'P1'
_symmetry_Int_Tables_number	1
_symmetry_cell_setting	triclinic
loop_
_symmetry_equiv_pos_as_xyz
  x,y,z
_cell_length_a	27.732064
_cell_length_b	27.731996
_cell_length_c	11.804365
_cell_angle_alpha	101.722393
_cell_angle_beta	78.258408
_cell_angle_gamma	82.635407
loop_
_atom_site_label
_atom_site_type_symbol
_atom_site_fract_x
_atom_site_fract_y
_atom_site_fract_z
O1	O	0.650731	0.047744	-0.098824
O2	O	0.509942	0.056476	-0.098875
O3	O	0.584720	-0.018285	-0.098822
O4	O	0.575954	0.122506	-0.098877
O5	O	0.565034	0.001377	0.099220
O6	O	0.490256	0.076138	0.099167
O7	O	0.631045	0.067406	0.099218
Cu8	Cu	0.558853	0.073568	0.117276
Cu9	Cu	0.582134	0.050315	-0.116932
O10	O	0.556268	0.142168	0.099165
C11	C	0.482093	0.066122	0.000140
C12	C	0.428441	0.065564	0.000122
C13	C	0.574696	-0.026461	0.000203
C14	C	0.574153	-0.080116	0.000215
C15	C	0.051368	0.017604	0.000208
C16	C	0.253031	0.019648	0.000176
O17	O	0.284285	-0.017569	0.000235
N18	N	0.272153	0.063981	0.000154
C19	C	0.240854	0.107807	0.000147
O20	O	0.261744	0.145563	0.000139
C21	C	0.039191	0.105764	0.000187
C22	C	0.020074	0.061427	0.000198
C23	C	0.032251	-0.026729	0.000220
C24	C	-0.018162	-0.027240	0.000221
C25	C	-0.049456	0.016583	0.000211
C26	C	-0.030338	0.060916	0.000199
C27	C	0.007893	0.149591	0.000189
C28	C	-0.042526	0.149077	0.000202
C29	C	-0.061643	0.104739	0.000213
C30	C	-0.112044	0.104228	0.000190
N31	N	-0.131166	0.059895	0.000213
C32	C	-0.099872	0.016072	0.000223
C33	C	0.346731	0.108876	0.000123
C34	C	0.397147	0.109387	0.000111
C35	C	0.409320	0.021227	0.000143
C36	C	0.358904	0.020716	0.000146
C37	C	0.327609	0.064543	0.000146
C38	C	-0.205741	0.015002	0.000225
C39	C	-0.256158	0.014495	0.000222
C40	C	-0.268327	0.102654	0.000196
C41	C	-0.217915	0.103162	0.000194
C42	C	-0.186623	0.059332	0.000212
O43	O	-0.143328	0.141425	0.000145
O44	O	-0.120774	-0.021676	0.000257
C45	C	0.101781	0.018115	0.000207
C46	C	0.120898	0.062449	0.000195
C47	C	0.089604	0.106272	0.000185
C48	C	0.171314	0.062960	0.000183
C49	C	0.202608	0.019137	0.000193
C50	C	0.183487	-0.025196	0.000215
C51	C	0.133075	-0.025707	0.000217
C52	C	0.108726	0.150605	0.000162
C53	C	0.159138	0.151112	0.000159
C54	C	0.190433	0.107289	0.000170
C55	C	0.581474	-0.423557	-0.107797
C56	C	0.579416	-0.625217	-0.107819
O57	O	0.588255	-0.660403	-0.199629
N58	N	0.568429	-0.639717	0.000133
C59	C	0.557953	-0.603797	0.108097
O60	O	0.548556	-0.620756	0.199916
C61	C	0.560009	-0.402137	0.108118
C62	C	0.571001	-0.387641	0.000159
C63	C	0.592465	-0.409060	-0.215747
C64	C	0.592983	-0.358648	-0.215740
C65	C	0.582509	-0.322733	-0.107784
C66	C	0.571518	-0.337229	0.000166
C67	C	0.549529	-0.366217	0.216081
C68	C	0.550043	-0.315800	0.216077
C69	C	0.561035	-0.301304	0.108118
C70	C	0.561562	-0.250902	0.108129
N71	N	0.572548	-0.236403	0.000177
C72	C	0.583022	-0.272318	-0.107779
C73	C	0.556876	-0.709672	0.108079
C74	C	0.556363	-0.760087	0.108074
C75	C	0.577824	-0.781504	-0.107842
C76	C	0.578341	-0.731088	-0.107836
C77	C	0.567862	-0.695172	0.000128
C78	C	0.584108	-0.166449	-0.107757
C79	C	0.584626	-0.116032	-0.107741
C80	C	0.563162	-0.094619	0.108175
C81	C	0.562646	-0.145032	0.108159
C82	C	0.573118	-0.180946	0.000184
O83	O	0.552722	-0.215689	0.199891
O84	O	0.592407	-0.255347	-0.199585
C85	C	0.580957	-0.473969	-0.107804
C86	C	0.569966	-0.488465	0.000146
C87	C	0.559493	-0.452549	0.108103
C88	C	0.569453	-0.538880	0.000141
C89	C	0.579927	-0.574795	-0.107815
C90	C	0.590914	-0.560296	-0.215767
C91	C	0.591431	-0.509884	-0.215760
C92	C	0.548506	-0.467049	0.216054
C93	C	0.547990	-0.517462	0.216039
C94	C	0.558464	-0.553377	0.108082
C95	C	0.658895	0.057760	0.000201
C96	C	0.712548	0.058317	0.000211
C97	C	0.566292	0.150344	0.000138
C98	C	0.566836	0.203998	0.000118
N99	N	0.542482	0.089922	0.282005
N100	N	0.598509	0.033956	-0.281661
C101	C	0.637822	-0.005326	0.656021
C102	C	0.650206	-0.017700	0.531368
C103	C	0.623276	0.009204	0.469021
C104	C	0.583960	0.048485	0.531339
C105	C	0.571577	0.060863	0.656004
C106	C	0.557031	0.075393	0.469004
C107	C	0.517716	0.114674	0.531323
C108	C	0.505335	0.127050	0.655975
C109	C	0.532265	0.100146	0.718322
C110	C	0.569414	0.063015	0.344339
C111	C	0.503170	0.129204	0.344323
C112	C	0.490786	0.141579	0.468976
H113	H	-0.271720	-0.021612	0.000227
O114	O	0.688393	-0.055884	0.471020
C115	C	0.709514	-0.076970	0.552775
H116	H	0.680875	-0.068559	0.641638
H117	H	0.743984	-0.060201	0.566023
C118	C	0.759888	-0.144345	0.395002
C119	C	0.724710	-0.134018	0.504142
H120	H	0.769264	-0.179535	0.365001
H121	H	0.745660	-0.130139	0.339921
H122	H	0.788608	-0.130368	0.406057
H123	H	0.695989	-0.147990	0.493083
H124	H	0.738934	-0.148228	0.559220
H125	H	-0.180268	-0.020688	0.000240
H126	H	0.434809	-0.014455	0.000147
O127	O	0.467207	0.165261	0.716569
C128	C	0.485699	0.202060	0.788683
H129	H	0.527543	0.198889	0.751108
H130	H	0.478967	0.196293	0.883164
C131	C	0.407074	0.258228	0.836735
C132	C	0.458468	0.254335	0.790579
H133	H	0.390276	0.290474	0.837910
H134	H	0.394615	0.233435	0.788154
H135	H	0.401471	0.253419	0.915465
H136	H	0.464070	0.259138	0.711846
H137	H	0.470927	0.279130	0.839147
H138	H	-0.293816	0.138333	0.000182
H139	H	0.601932	-0.346852	-0.303652
O140	O	0.537394	-0.531578	0.320883
C141	C	0.578317	-0.565901	0.327376
H142	H	0.613842	-0.560837	0.266150
H143	H	0.571337	-0.605676	0.298357
C144	C	0.540827	-0.562726	0.531574
C145	C	0.584460	-0.556502	0.456383
H146	H	0.544615	-0.556930	0.611152
H147	H	0.513255	-0.539603	0.527199
H148	H	0.535015	-0.595872	0.507377
H149	H	0.590267	-0.523355	0.480571
H150	H	0.612032	-0.579619	0.460765
H151	H	0.539978	-0.437810	0.303967
H152	H	0.633361	-0.000873	0.367523
O153	O	0.452629	0.179789	0.529384
C154	C	0.463146	0.224568	0.498931
H155	H	0.490768	0.215398	0.408419
H156	H	0.480121	0.246318	0.569084
C157	C	0.380464	0.267749	0.604337
C158	C	0.414387	0.256487	0.493164
H159	H	0.350387	0.287440	0.600784
H160	H	0.373379	0.237581	0.624858
H161	H	0.394616	0.285872	0.662786
H162	H	0.400237	0.238359	0.434720
H163	H	0.421469	0.286652	0.472633
H164	H	0.522180	0.110219	0.819825
H165	H	0.659747	-0.027226	0.706792
H166	H	0.481242	0.151114	0.293561
H167	H	-0.033722	-0.063343	0.000235
O168	O	0.177751	0.194167	0.000294
C169	C	0.196348	0.207291	0.102874
H170	H	0.205791	0.172492	0.137083
H171	H	0.166780	0.235976	0.174688
C172	C	0.232253	0.272627	0.029687
C173	C	0.243855	0.229885	0.071698
H174	H	0.261556	0.286566	0.010460
H175	H	0.219722	0.263787	-0.039421
H176	H	0.207611	0.296526	0.089540
H177	H	0.268491	0.205985	0.011841
H178	H	0.256391	0.238722	0.140796
O179	O	0.594218	-0.201280	-0.212713
C180	C	0.558983	-0.189687	-0.278377
H181	H	0.542349	-0.148107	-0.247674
H182	H	0.527877	-0.212520	-0.263419
C183	C	0.605413	-0.253420	-0.449493
C184	C	0.584986	-0.202349	-0.411791
H185	H	0.621451	-0.261232	-0.531790
H186	H	0.629151	-0.261231	-0.405254
H187	H	0.579487	-0.272441	-0.437018
H188	H	0.610912	-0.183330	-0.424252
H189	H	0.561253	-0.194535	-0.456036
O190	O	0.062583	-0.069352	0.000173
C191	C	0.034884	-0.108582	0.000218
H192	H	0.000884	-0.099735	-0.037263
H193	H	0.021959	-0.112761	0.095232
C194	C	0.109774	-0.168606	-0.031416
C195	C	0.068017	-0.157742	-0.077460
H196	H	0.130213	-0.198931	-0.079326
H197	H	0.128436	-0.142176	-0.031442
H198	H	0.098997	-0.172085	0.047762
H199	H	0.078795	-0.154257	-0.156630
H200	H	0.049359	-0.184172	-0.077450
O201	O	0.538817	-0.380201	0.321061
C202	C	0.529692	-0.337683	0.416331
H203	H	0.517903	-0.302775	0.384655
H204	H	0.565238	-0.334387	0.449552
C205	C	0.502115	-0.385722	0.557214
C206	C	0.487631	-0.342847	0.518312
H207	H	0.476171	-0.388908	0.620124
H208	H	0.508263	-0.414368	0.493030
H209	H	0.531736	-0.382970	0.584891
H210	H	0.458014	-0.345602	0.490623
H211	H	0.481476	-0.314202	0.582494
H212	H	0.321254	0.144567	0.000121
O213	O	0.340410	-0.022389	0.000216
C214	C	0.378852	-0.060959	0.000186
H215	H	0.409281	-0.043947	0.037665
H216	H	0.395521	-0.083888	-0.094823
C217	C	0.319849	-0.115991	0.031837
C218	C	0.357220	-0.095096	0.077878
H219	H	0.306506	-0.137050	0.079756
H220	H	0.293950	-0.090006	0.031853
H221	H	0.333746	-0.135095	-0.047336
H222	H	0.343322	-0.075988	0.157044
H223	H	0.383116	-0.121078	0.077878
O224	O	-0.199426	0.146276	0.000224
C225	C	-0.237856	0.184841	0.000176
H226	H	-0.275734	0.175275	0.037668
H227	H	-0.235649	0.188908	-0.094840
C228	C	-0.185131	0.246147	0.031782
C229	C	-0.231652	0.234399	0.077840
H230	H	-0.181303	0.276717	0.079684
H231	H	-0.159239	0.220165	0.031810
H232	H	-0.183297	0.249532	-0.047397
H233	H	-0.233483	0.231007	0.157012
H234	H	-0.257545	0.260381	0.077827
O235	O	0.415630	0.152503	0.000140
C236	C	0.377194	0.191066	0.000106
H237	H	0.339320	0.181497	0.037610
H238	H	0.379395	0.195133	-0.094908
C239	C	0.429918	0.252375	0.031693
C240	C	0.383399	0.240624	0.077765
H241	H	0.433746	0.282945	0.079592
H242	H	0.455813	0.226394	0.031712
H243	H	0.431746	0.255761	-0.047484
H244	H	0.381574	0.237231	0.156935
H245	H	0.357504	0.266605	0.077762
O246	O	0.026408	0.192678	0.000023
C247	C	0.020573	0.209180	-0.102562
H248	H	-0.010897	0.192868	-0.136751
H249	H	0.056926	0.196241	-0.174386
C250	C	0.046255	0.286755	-0.029418
C251	C	0.007601	0.266723	-0.071405
H252	H	0.038255	0.322250	-0.010202
H253	H	0.050189	0.275637	0.039693
H254	H	0.076546	0.275968	-0.089279
H255	H	-0.022688	0.277505	-0.011539
H256	H	0.003662	0.277844	-0.140506
O257	O	0.213893	-0.067800	0.000015
C258	C	0.215461	-0.104930	-0.102526
H259	H	0.205157	-0.086400	-0.174225
H260	H	0.187695	-0.130414	-0.079323
C261	C	0.281255	-0.158854	-0.060961
C262	C	0.268604	-0.136095	-0.149028
H263	H	0.314035	-0.178079	-0.089644
H264	H	0.280198	-0.133839	0.008125
H265	H	0.258113	-0.180086	-0.041633
H266	H	0.291742	-0.114858	-0.168343
H267	H	0.269667	-0.161106	-0.218118
H268	H	0.117515	-0.061811	0.000226
O269	O	0.595211	-0.101892	-0.212557
C270	C	0.554254	-0.067602	-0.219015
H271	H	0.531072	-0.048810	-0.125276
H272	H	0.530012	-0.088276	-0.272237
C273	C	0.602049	-0.050687	-0.395932
C274	C	0.573579	-0.027603	-0.280799
H275	H	0.613969	-0.026014	-0.434048
H276	H	0.629642	-0.073790	-0.391585
H277	H	0.581843	-0.067914	-0.440269
H278	H	0.593787	-0.010381	-0.236461
H279	H	0.545990	-0.004496	-0.285141
H280	H	0.601425	0.031033	0.293611
O281	O	0.589003	-0.717091	-0.212813
C282	C	0.598151	-0.759609	-0.308090
H283	H	0.579331	-0.790290	-0.276441
H284	H	0.640189	-0.773623	-0.341268
C285	C	0.599894	-0.707995	-0.448974
C286	C	0.576776	-0.745677	-0.410104
H287	H	0.586711	-0.699401	-0.511904
H288	H	0.593733	-0.679349	-0.384785
H289	H	0.634925	-0.719678	-0.476614
H290	H	0.541747	-0.733991	-0.382452
H291	H	0.582930	-0.774320	-0.474291
O292	O	0.539782	-0.280879	0.320923
C293	C	0.497568	-0.245282	0.327348
H294	H	0.474234	-0.262508	0.266068
H295	H	0.510311	-0.211260	0.298354
C296	C	0.494421	-0.207930	0.531581
C297	C	0.465759	-0.229089	0.456322
H298	H	0.474801	-0.197939	0.611138
H299	H	0.522862	-0.231911	0.527251
H300	H	0.505038	-0.179581	0.507404
H301	H	0.455148	-0.257441	0.480490
H302	H	0.437315	-0.205112	0.460658
O303	O	0.602675	-0.443884	-0.320731
C304	C	0.612471	-0.420265	-0.415993
H305	H	0.624994	-0.383302	-0.384312
H306	H	0.577034	-0.412837	-0.449208
C307	C	0.638745	-0.499829	-0.556894
C308	C	0.654130	-0.454432	-0.517984
H309	H	0.664440	-0.520905	-0.619810
H310	H	0.632143	-0.515742	-0.492715
H311	H	0.609213	-0.493632	-0.584565
H312	H	0.683657	-0.460629	-0.490301
H313	H	0.660737	-0.438521	-0.582161
H314	H	0.083250	0.186291	0.000155
O315	O	0.552902	-0.059692	0.213002
C316	C	0.510689	-0.024100	0.219396
H317	H	0.487358	-0.041336	0.158118
H318	H	0.523432	0.009917	0.190378
C319	C	0.507532	0.013277	0.423620
C320	C	0.478875	-0.007894	0.348364
H321	H	0.487909	0.023276	0.503174
H322	H	0.535974	-0.010701	0.419312
H323	H	0.518150	0.041622	0.399423
H324	H	0.468263	-0.036242	0.372552
H325	H	0.450431	0.016079	0.352680
O326	O	0.601170	-0.595179	-0.320672
C327	C	0.649696	-0.595163	-0.386371
H328	H	0.672840	-0.579090	-0.323212
H329	H	0.647215	-0.571269	-0.453683
C330	C	0.646364	-0.668880	-0.530100
C331	C	0.674791	-0.649142	-0.452526
H332	H	0.661844	-0.702176	-0.570913
H333	H	0.613670	-0.668890	-0.485841
H334	H	0.644299	-0.648963	-0.586183
H335	H	0.676850	-0.669055	-0.396436
H336	H	0.707486	-0.649137	-0.496777
H337	H	0.600382	-0.498087	-0.303671
H338	H	-0.068005	0.184767	0.000207
H339	H	0.586353	-0.810755	-0.195745
H340	H	0.547419	-0.771885	0.195985
H341	H	0.548345	-0.680432	0.196001
H342	H	0.553700	-0.156835	0.196068
