data_functionalizedCrystal
_audit_creation_method	'MofGen! by Chris Wilmer'
_symmetry_space_group_name_H-M	'P1'
_symmetry_Int_Tables_number	1
_symmetry_cell_setting	triclinic
loop_
_symmetry_equiv_pos_as_xyz
  x,y,z
_cell_length_a	10.654541
_cell_length_b	10.654545
_cell_length_c	14.048226
_cell_angle_alpha	89.999856
_cell_angle_beta	90.006807
_cell_angle_gamma	84.484678
loop_
_atom_site_label
_atom_site_type_symbol
_atom_site_fract_x
_atom_site_fract_y
_atom_site_fract_z
O1	O	1.667852	0.176379	0.079126
O2	O	1.302373	0.193188	0.079134
O3	O	1.493515	0.002044	0.079129
O4	O	1.476710	0.367523	0.079131
O5	O	1.493484	0.002049	-0.079192
O6	O	1.302342	0.193193	-0.079187
O7	O	1.667821	0.176384	-0.079195
Zn8	Zn	1.485076	0.184789	-0.104328
Zn9	Zn	1.485117	0.184783	0.104267
O10	O	1.476679	0.367528	-0.079191
C11	C	1.255559	0.191957	-0.000026
C12	C	1.116116	0.188266	-0.000023
C13	C	1.088146	0.416831	-0.000010
C14	C	1.008652	0.529374	0.000001
C15	C	0.877634	0.525898	0.000002
C16	C	0.826108	0.409867	-0.000011
C17	C	0.905602	0.297324	-0.000021
C18	C	1.036622	0.300812	-0.000019
C19	C	0.933572	0.068763	-0.000041
C20	C	1.064590	0.072235	-0.000035
C21	C	0.882046	-0.047269	-0.000053
C22	C	0.961540	-0.159814	-0.000057
C23	C	1.092565	-0.156334	-0.000056
C24	C	1.144084	-0.040308	-0.000045
C25	C	1.492265	-0.044751	-0.000030
C26	C	1.488572	-0.184195	-0.000024
C27	C	1.488621	-0.184208	0.172583
C28	C	1.486916	-0.249725	0.258886
C29	C	1.483447	-0.380743	0.258887
C30	C	1.481679	-0.446248	0.172576
C31	C	1.483385	-0.380731	0.086273
C32	C	1.486858	-0.249710	0.086281
C33	C	1.483327	-0.380717	-0.086332
C34	C	1.486805	-0.249699	-0.086335
C35	C	1.481560	-0.446222	-0.172643
C36	C	1.483274	-0.380706	-0.258948
C37	C	1.486745	-0.249679	-0.258946
C38	C	1.488511	-0.184183	-0.172638
C39	C	1.714634	0.177615	-0.000034
C40	C	1.854078	0.181306	-0.000030
C41	C	1.477929	0.414323	-0.000030
C42	C	1.481621	0.553766	-0.000029
N43	N	1.485058	0.184792	-0.246689
C44	C	1.569796	0.100166	-0.703531
C45	C	1.569784	0.100175	-0.603873
C46	C	1.485116	0.184782	-0.554059
C47	C	1.400463	0.269394	-0.603908
C48	C	1.400481	0.269391	-0.703564
C49	C	1.400428	0.269394	-0.396194
C50	C	1.400408	0.269396	-0.296531
C51	C	1.569732	0.100177	-0.296503
C52	C	1.569750	0.100174	-0.396159
C53	C	1.485094	0.184785	-0.446001
N54	N	1.485146	0.184770	0.246628
H55	H	0.719425	0.407048	-0.000021
H56	H	1.250764	-0.037463	-0.000034
H57	H	1.478728	-0.552903	-0.172636
F58	F	1.227586	0.420539	0.000005
F59	F	1.488823	-0.180005	0.350740
H60	H	1.638713	0.031285	-0.563292
F61	F	1.481380	-0.450425	-0.350796
H62	H	1.638687	0.031275	-0.436717
H63	H	0.919576	-0.254278	-0.000066
F64	F	1.488552	-0.179961	-0.350803
H65	H	1.331497	0.338297	-0.436772
H66	H	1.157283	-0.247981	-0.000068
H67	H	1.050619	0.623844	0.000008
F68	F	1.492212	-0.044741	-0.172628
F69	F	1.492335	-0.044768	0.172589
H70	H	0.775363	-0.050090	-0.000058
H71	H	1.331528	0.338289	-0.563344
H72	H	0.812909	0.617541	0.000003
F73	F	1.659907	0.010108	-0.756537
F74	F	1.481622	-0.450472	0.350739
F75	F	1.477964	-0.585687	0.172582
F76	F	1.659826	0.010128	-0.243453
H77	H	1.331464	0.338293	-0.255977
H78	H	1.331552	0.338285	-0.744144
