data_functionalizedCrystal
_audit_creation_method	'MofGen! by Chris Wilmer'
_symmetry_space_group_name_H-M	'P1'
_symmetry_Int_Tables_number	1
_symmetry_cell_setting	triclinic
loop_
_symmetry_equiv_pos_as_xyz
  x,y,z
_cell_length_a	11.792254
_cell_length_b	10.868271
_cell_length_c	10.723023
_cell_angle_alpha	90.004123
_cell_angle_beta	84.333073
_cell_angle_gamma	90.004259
loop_
_atom_site_label
_atom_site_type_symbol
_atom_site_fract_x
_atom_site_fract_y
_atom_site_fract_z
O1	O	1.507274	0.102318	0.171115
O2	O	2.007274	0.602318	0.671115
O3	O	1.176973	0.102321	0.188726
O4	O	1.676973	0.602321	0.688726
O5	O	1.349743	0.102314	-0.001676
O6	O	1.849743	0.602314	0.498324
O7	O	1.334504	0.102325	0.361516
O8	O	1.834504	0.602325	0.861516
O9	O	1.349729	-0.102330	-0.001683
O10	O	1.849729	0.397670	0.498317
O11	O	1.176959	-0.102324	0.188718
O12	O	1.676959	0.397676	0.688718
O13	O	1.507260	-0.102326	0.171107
O14	O	2.007260	0.397674	0.671107
Zn15	Zn	1.342107	-0.134817	0.179912
Zn16	Zn	1.842107	0.365183	0.679912
Zn17	Zn	1.342126	0.134811	0.179921
Zn18	Zn	1.842126	0.634811	0.679921
O19	O	1.334490	-0.102320	0.361509
O20	O	1.834490	0.397680	0.861509
C21	C	1.134673	-0.000001	0.187613
C22	C	1.634673	0.499999	0.687613
C23	C	1.008653	-0.000000	0.184292
C24	C	1.508653	0.500000	0.684292
N25	N	1.342102	-0.318831	0.179904
N26	N	1.842102	0.181169	0.679904
C27	C	0.906310	0.000005	0.181594
C28	C	1.406310	0.500005	0.681594
C29	C	0.777916	0.000006	0.178221
C30	C	1.277916	0.500006	0.678221
C31	C	1.342120	-0.569837	0.179919
C32	C	1.842120	-0.069837	0.679919
C33	C	1.342107	-0.430159	0.179914
C34	C	1.842107	0.069841	0.679914
C35	C	1.549560	-0.000002	0.172220
C36	C	2.049560	0.499998	0.672220
C37	C	1.675580	0.000006	0.175541
C38	C	2.175580	0.500006	0.675541
C39	C	1.348627	-0.000007	-0.048176
C40	C	1.848627	0.499993	0.451824
C41	C	1.345310	-0.000003	-0.186722
C42	C	1.845310	0.499997	0.313278
N43	N	1.342139	0.318825	0.179919
N44	N	1.842139	0.818825	0.679919
C45	C	1.343838	0.106011	-0.248480
C46	C	1.843838	0.606011	0.251520
C47	C	1.340410	0.106018	-0.391674
C48	C	1.840410	0.606018	0.108326
C49	C	1.335606	0.000004	0.408009
C50	C	1.835606	0.500004	0.908009
C51	C	1.338923	0.000008	0.546555
C52	C	1.838923	0.500008	1.046555
H53	H	1.345112	0.196768	-0.195342
H54	H	1.845112	0.696768	0.304658
H55	H	1.339150	0.196780	-0.444785
H56	H	1.839150	0.696780	0.055215
O57	O	1.340271	-0.108359	-0.390216
O58	O	1.840271	0.391641	0.109784
C59	C	1.241360	-0.176241	-0.408455
C60	C	1.741360	0.323759	0.091545
H61	H	1.206386	-0.144638	-0.498524
H62	H	1.706386	0.355362	0.001476
H63	H	1.263311	-0.278302	-0.415809
H64	H	1.763311	0.221698	0.084191
H65	H	1.174401	-0.160677	-0.325784
H66	H	1.674401	0.339323	0.174216
O67	O	1.343739	-0.108392	-0.249903
O68	O	1.843739	0.391608	0.250097
C69	C	1.345804	-0.206965	-0.164683
C70	C	1.845804	0.293035	0.335317
H71	H	1.312160	-0.174384	-0.066921
H72	H	1.812160	0.325616	0.433079
H73	H	1.289888	-0.284937	-0.194857
H74	H	1.789888	0.215063	0.305143
H75	H	1.437032	-0.241283	-0.163359
H76	H	1.937032	0.258717	0.336641
