data_functionalizedCrystal
_audit_creation_method	'MofGen! by Chris Wilmer'
_symmetry_space_group_name_H-M	'P1'
_symmetry_Int_Tables_number	1
_symmetry_cell_setting	triclinic
loop_
_symmetry_equiv_pos_as_xyz
  x,y,z
_cell_length_a	21.295418
_cell_length_b	17.077402
_cell_length_c	21.295412
_cell_angle_alpha	89.972221
_cell_angle_beta	90.035621
_cell_angle_gamma	89.961304
loop_
_atom_site_label
_atom_site_type_symbol
_atom_site_fract_x
_atom_site_fract_y
_atom_site_fract_z
Zn1	Zn	0.962339	0.312192	0.356249
Zn2	Zn	1.212339	0.562192	0.606249
Zn3	Zn	1.462339	0.812192	0.856249
Zn4	Zn	1.712339	1.062192	1.106249
Zn5	Zn	0.962270	0.443463	0.250980
Zn6	Zn	1.212270	0.693463	0.500980
Zn7	Zn	1.462270	0.943463	0.750980
Zn8	Zn	1.712270	1.193463	1.000980
Zn9	Zn	0.857077	0.312251	0.250958
Zn10	Zn	1.107077	0.562251	0.500958
Zn11	Zn	1.357077	0.812251	0.750958
Zn12	Zn	1.607077	1.062251	1.000958
Zn13	Zn	0.857045	0.443456	0.356177
Zn14	Zn	1.107045	0.693456	0.606177
Zn15	Zn	1.357045	0.943456	0.856177
Zn16	Zn	1.607045	1.193456	1.106177
O17	O	0.909683	0.377841	0.303591
O18	O	1.159683	0.627841	0.553591
O19	O	1.409683	0.877841	0.803591
O20	O	1.659683	1.127841	1.053591
O21	O	1.050419	0.329584	0.342324
O22	O	1.300419	0.579584	0.592324
O23	O	1.550419	0.829584	0.842324
O24	O	1.800419	1.079584	1.092324
O25	O	0.948300	0.426084	0.162888
O26	O	1.198300	0.676084	0.412888
O27	O	1.448300	0.926084	0.662888
O28	O	1.698300	1.176084	0.912888
O29	O	0.871082	0.202396	0.264946
O30	O	1.121082	0.452396	0.514946
O31	O	1.371082	0.702396	0.764946
O32	O	1.621082	0.952396	1.014946
O33	O	1.050369	0.426027	0.264983
O34	O	1.300369	0.676027	0.514983
O35	O	1.550369	0.926027	0.764983
O36	O	1.800369	1.176027	1.014983
O37	O	0.948417	0.202353	0.342302
O38	O	1.198417	0.452353	0.592302
O39	O	1.448417	0.702353	0.842302
O40	O	1.698417	0.952353	1.092302
O41	O	0.871015	0.329684	0.162872
O42	O	1.121015	0.579684	0.412872
O43	O	1.371015	0.829684	0.662872
O44	O	1.621015	1.079684	0.912872
O45	O	0.768983	0.329678	0.264877
O46	O	1.018983	0.579678	0.514877
O47	O	1.268983	0.829678	0.764877
O48	O	1.518983	1.079678	1.014877
O49	O	0.871028	0.426017	0.444276
O50	O	1.121028	0.676017	0.694276
O51	O	1.371028	0.926017	0.944276
O52	O	1.621028	1.176017	1.194276
O53	O	0.768960	0.426074	0.342180
O54	O	1.018960	0.676074	0.592180
O55	O	1.268960	0.926074	0.842180
O56	O	1.518960	1.176074	1.092180
O57	O	0.948387	0.329578	0.444328
O58	O	1.198387	0.579578	0.694328
O59	O	1.448387	0.829578	0.944328
O60	O	1.698387	1.079578	1.194328
O61	O	0.948270	0.553309	0.264914
O62	O	1.198270	0.803309	0.514914
O63	O	1.448270	1.053309	0.764914
O64	O	1.698270	1.303309	1.014914
O65	O	0.870962	0.553304	0.342201
O66	O	1.120962	0.803304	0.592201
O67	O	1.370962	1.053304	0.842201
O68	O	1.620962	1.303304	1.092201
C69	C	0.909622	0.581788	0.303566
C70	C	1.159622	0.831788	0.553566
C71	C	1.409622	1.081788	0.803566
C72	C	1.659622	1.331788	1.053566
C73	C	0.909654	0.669038	0.303576
C74	C	1.159654	0.919038	0.553576
C75	C	1.409654	1.169038	0.803576
C76	C	1.659654	1.419038	1.053576
C77	C	0.746131	0.377882	0.303518
C78	C	0.996131	0.627882	0.553518
C79	C	1.246131	0.877882	0.803518
C80	C	1.496131	1.127882	1.053518
C81	C	0.676163	0.377918	0.303502
C82	C	0.926163	0.627918	0.553502
C83	C	1.176163	0.877918	0.803502
C84	C	1.426163	1.127918	1.053502
C85	C	0.909712	0.377790	0.467781
C86	C	1.159712	0.627790	0.717781
C87	C	1.409712	0.877790	0.967781
C88	C	1.659712	1.127790	1.217781
C89	C	0.909724	0.377768	0.537749
C90	C	1.159724	0.627768	0.787749
C91	C	1.409724	0.877768	1.037749
C92	C	1.659724	1.127768	1.287749
C93	C	0.643301	0.428178	0.343694
C94	C	0.893301	0.678178	0.593694
C95	C	1.143301	0.928178	0.843694
C96	C	1.393301	1.178178	1.093694
C97	C	0.577558	0.428159	0.343722
C98	C	0.827558	0.678159	0.593722
C99	C	1.077558	0.928159	0.843722
C100	C	1.327558	1.178159	1.093722
C101	C	0.544680	0.377888	0.303548
C102	C	0.794680	0.627888	0.553548
C103	C	1.044680	0.877888	0.803548
C104	C	1.294680	1.127888	1.053548
C105	C	0.577551	0.327618	0.263353
C106	C	0.827551	0.577618	0.513353
C107	C	1.077551	0.827618	0.763353
C108	C	1.327551	1.077618	1.013353
C109	C	0.643292	0.327634	0.263330
C110	C	0.893292	0.577634	0.513330
C111	C	1.143292	0.827634	0.763330
C112	C	1.393292	1.077634	1.013330
N113	N	0.441412	0.371755	0.248490
N114	N	0.691412	0.621755	0.498490
N115	N	0.941412	0.871755	0.748490
N116	N	1.191412	1.121755	0.998490
N117	N	0.378960	0.371745	0.248513
N118	N	0.628960	0.621745	0.498513
N119	N	0.878960	0.871745	0.748513
N120	N	1.128960	1.121745	0.998513
C121	C	0.346606	0.377838	0.303614
C122	C	0.596606	0.627838	0.553614
C123	C	0.846606	0.877838	0.803614
C124	C	1.096606	1.127838	1.053614
N125	N	0.379062	0.383956	0.358693
N126	N	0.629062	0.633956	0.608693
N127	N	0.879062	0.883956	0.858693
N128	N	1.129062	1.133956	1.108693
N129	N	0.441519	0.383970	0.358669
N130	N	0.691519	0.633970	0.608669
N131	N	0.941519	0.883970	0.858669
N132	N	1.191519	1.133970	1.108669
C133	C	0.473395	0.377866	0.303568
C134	C	0.723395	0.627866	0.553568
C135	C	0.973395	0.877866	0.803568
C136	C	1.223395	1.127866	1.053568
C137	C	0.242458	0.428079	0.343840
C138	C	0.492458	0.678079	0.593840
C139	C	0.742458	0.928079	0.843840
C140	C	0.992458	1.178079	1.093840
C141	C	0.176714	0.428055	0.343870
C142	C	0.426714	0.678055	0.593870
C143	C	0.676714	0.928055	0.843870
C144	C	0.926714	1.178055	1.093870
C145	C	0.176708	0.327518	0.263495
C146	C	0.426708	0.577518	0.513495
C147	C	0.676708	0.827518	0.763495
C148	C	0.926708	1.077518	1.013495
C149	C	0.242450	0.327539	0.263471
C150	C	0.492450	0.577539	0.513471
C151	C	0.742450	0.827539	0.763471
C152	C	0.992450	1.077539	1.013471
C153	C	0.275321	0.377824	0.303643
C154	C	0.525321	0.627824	0.553643
C155	C	0.775321	0.877824	0.803643
C156	C	1.025321	1.127824	1.053643
C157	C	1.073873	0.377800	0.303664
C158	C	1.323873	0.627800	0.553664
C159	C	1.573873	0.877800	0.803664
C160	C	1.823873	1.127800	1.053664
C161	C	1.143841	0.377782	0.303695
C162	C	1.393841	0.627782	0.553695
C163	C	1.643841	0.877782	0.803695
C164	C	1.893841	1.127782	1.053695
C165	C	0.909761	0.173096	0.303630
C166	C	1.159761	0.423096	0.553630
C167	C	1.409761	0.673096	0.803630
C168	C	1.659761	0.923096	1.053630
C169	C	0.909794	0.085846	0.303647
C170	C	1.159794	0.335846	0.553647
C171	C	1.409794	0.585846	0.803647
C172	C	1.659794	0.835846	1.053647
C173	C	0.949949	0.710005	0.263376
C174	C	1.199949	0.960005	0.513376
C175	C	1.449949	1.210005	0.763376
C176	C	1.699949	1.460005	1.013376
C177	C	0.949980	0.791985	0.263392
C178	C	1.199980	1.041985	0.513392
C179	C	1.449980	1.291985	0.763392
C180	C	1.699980	1.541985	1.013392
C181	C	0.909711	0.832998	0.303605
C182	C	1.159711	1.082998	0.553605
C183	C	1.409711	1.332998	0.803605
C184	C	1.659711	1.582998	1.053605
C185	C	0.869414	0.792025	0.343810
C186	C	1.119414	1.042025	0.593810
C187	C	1.369414	1.292025	0.843810
C188	C	1.619414	1.542025	1.093810
C189	C	0.869387	0.710046	0.343797
C190	C	1.119387	0.960046	0.593797
C191	C	1.369387	1.210046	0.843797
C192	C	1.619387	1.460046	1.093797
C193	C	0.869473	0.962895	0.343834
C194	C	1.119473	1.212895	0.593834
C195	C	1.369473	1.462895	0.843834
C196	C	1.619473	1.712895	1.093834
C197	C	0.869499	1.044880	0.343847
C198	C	1.119499	1.294880	0.593847
C199	C	1.369499	1.544880	0.843847
C200	C	1.619499	1.794880	1.093847
C201	C	0.950065	1.044834	0.263429
C202	C	1.200065	1.294834	0.513429
C203	C	1.450065	1.544834	0.763429
C204	C	1.700065	1.794834	1.013429
C205	C	0.950038	0.962855	0.263416
C206	C	1.200038	1.212855	0.513416
C207	C	1.450038	1.462855	0.763416
C208	C	1.700038	1.712855	1.013416
C209	C	0.909740	0.921889	0.303620
C210	C	1.159740	1.171889	0.553620
C211	C	1.409740	1.421889	0.803620
C212	C	1.659740	1.671889	1.053620
C213	C	0.909690	0.377834	0.140039
C214	C	1.159690	0.627834	0.390039
C215	C	1.409690	0.877834	0.640039
C216	C	1.659690	1.127834	0.890039
C217	C	0.909800	0.377635	0.070072
C218	C	1.159800	0.627635	0.320072
C219	C	1.409800	0.877635	0.570072
C220	C	1.659800	1.127635	0.820072
C221	C	0.950064	0.327428	1.037236
C222	C	1.200064	0.577428	1.287236
C223	C	1.450064	0.827428	1.537236
C224	C	1.700064	1.077428	1.787236
C225	C	0.950060	0.327447	0.971494
C226	C	1.200060	0.577447	1.221494
C227	C	1.450060	0.827447	1.471494
C228	C	1.700060	1.077447	1.721494
C229	C	0.909779	0.377665	0.938589
C230	C	1.159779	0.627665	1.188589
C231	C	1.409779	0.877665	1.438589
C232	C	1.659779	1.127665	1.688589
C233	C	0.869511	0.427881	0.971433
C234	C	1.119511	0.677881	1.221433
C235	C	1.369511	0.927881	1.471433
C236	C	1.619511	1.177881	1.721433
C237	C	0.869522	0.427866	1.037174
C238	C	1.119522	0.677866	1.287174
C239	C	1.369522	0.927866	1.537174
C240	C	1.619522	1.177866	1.787174
N241	N	0.854658	0.383724	0.835342
N242	N	1.104658	0.633724	1.085342
N243	N	1.354658	0.883724	1.335342
N244	N	1.604658	1.133724	1.585342
N245	N	0.854650	0.383733	0.772891
N246	N	1.104650	0.633733	1.022891
N247	N	1.354650	0.883733	1.272891
N248	N	1.604650	1.133733	1.522891
C249	C	0.909746	0.377714	0.740514
C250	C	1.159746	0.627714	0.990514
C251	C	1.409746	0.877714	1.240514
C252	C	1.659746	1.127714	1.490514
N253	N	0.964851	0.371669	0.772948
N254	N	1.214851	0.621669	1.022948
N255	N	1.464851	0.871669	1.272948
N256	N	1.714851	1.121669	1.522948
N257	N	0.964859	0.371655	0.835406
N258	N	1.214859	0.621655	1.085406
N259	N	1.464859	0.871655	1.335406
N260	N	1.714859	1.121655	1.585406
C261	C	0.909763	0.377687	0.867304
C262	C	1.159763	0.627687	1.117304
C263	C	1.409763	0.877687	1.367304
C264	C	1.659763	1.127687	1.617304
C265	C	0.950008	0.327525	0.636393
C266	C	1.200008	0.577525	0.886393
C267	C	1.450008	0.827525	1.136393
C268	C	1.700008	1.077525	1.386393
C269	C	0.950005	0.327549	0.570649
C270	C	1.200005	0.577549	0.820649
C271	C	1.450005	0.827549	1.070649
C272	C	1.700005	1.077549	1.320649
C273	C	0.869451	0.427979	0.570590
C274	C	1.119451	0.677979	0.820590
C275	C	1.369451	0.927979	1.070590
C276	C	1.619451	1.177979	1.320590
C277	C	0.869460	0.427959	0.636332
C278	C	1.119460	0.677959	0.886332
C279	C	1.369460	0.927959	1.136332
C280	C	1.619460	1.177959	1.386332
C281	C	0.909738	0.377727	0.669230
C282	C	1.159738	0.627727	0.919230
C283	C	1.409738	0.877727	1.169230
C284	C	1.659738	1.127727	1.419230
H285	H	0.670060	0.469123	0.376406
H286	H	0.920060	0.719123	0.626406
H287	H	1.170060	0.969123	0.876406
H288	H	1.420060	1.219123	1.126406
F289	F	0.542577	0.481654	0.386502
F290	F	0.792577	0.731654	0.636502
F291	F	1.042577	0.981654	0.886502
F292	F	1.292577	1.231654	1.136502
H293	H	0.550777	0.286686	0.230644
H294	H	0.800777	0.536686	0.480644
H295	H	1.050777	0.786686	0.730644
H296	H	1.300777	1.036686	0.980644
H297	H	0.836720	1.078270	0.376604
H298	H	1.086720	1.328270	0.626604
H299	H	1.336720	1.578270	0.876604
H300	H	1.586720	1.828270	1.126604
H301	H	0.982737	0.676618	0.230626
H302	H	1.232737	0.926618	0.480626
H303	H	1.482737	1.176618	0.730626
H304	H	1.732737	1.426618	0.980626
H305	H	0.269207	0.286616	0.230739
H306	H	0.519207	0.536616	0.480739
H307	H	0.769207	0.786616	0.730739
H308	H	1.019207	1.036616	0.980739
F309	F	0.141740	0.481547	0.386653
F310	F	0.391740	0.731547	0.636653
F311	F	0.641740	0.981547	0.886653
F312	F	0.891740	1.231547	1.136653
F313	F	0.992949	1.088434	0.220636
F314	F	1.242949	1.338434	0.470636
F315	F	1.492949	1.588434	0.720636
F316	F	1.742949	1.838434	0.970636
F317	F	0.826665	0.481306	1.072121
F318	F	1.076665	0.731306	1.322121
F319	F	1.326665	0.981306	1.572121
F320	F	1.576665	1.231306	1.822121
H321	H	0.982805	0.286623	0.663180
H322	H	1.232805	0.536623	0.913180
H323	H	1.482805	0.786623	1.163180
H324	H	1.732805	1.036623	1.413180
F325	F	0.678267	0.274137	0.220551
F326	F	0.928267	0.524137	0.470551
F327	F	1.178267	0.774137	0.720551
F328	F	1.428267	1.024137	0.970551
H329	H	0.269223	0.469020	0.376554
H330	H	0.519223	0.719020	0.626554
H331	H	0.769223	0.969020	0.876554
H332	H	1.019223	1.219020	1.126554
H333	H	0.836575	0.676692	0.376533
H334	H	1.086575	0.926692	0.626533
H335	H	1.336575	1.176692	0.876533
H336	H	1.586575	1.426692	1.126533
H337	H	0.149940	0.286583	0.230787
H338	H	0.399940	0.536583	0.480787
H339	H	0.649940	0.786583	0.730787
H340	H	0.899940	1.036583	0.980787
F341	F	0.992866	0.274114	0.535703
F342	F	1.242866	0.524114	0.785703
F343	F	1.492866	0.774114	1.035703
F344	F	1.742866	1.024114	1.285703
F345	F	0.992895	0.919208	0.220615
F346	F	1.242895	1.169208	0.470615
F347	F	1.492895	1.419208	0.720615
F348	F	1.742895	1.669208	0.970615
F349	F	0.826586	0.481432	0.535575
F350	F	1.076586	0.731432	0.785575
F351	F	1.326586	0.981432	1.035575
F352	F	1.576586	1.231432	1.285575
H353	H	0.982792	0.825336	0.230656
H354	H	1.232792	1.075336	0.480656
H355	H	1.482792	1.325336	0.730656
H356	H	1.732792	1.575336	0.980656
F357	F	0.826603	0.481395	0.671279
F358	F	1.076603	0.731395	0.921279
F359	F	1.326603	0.981395	1.171279
F360	F	1.576603	1.231395	1.421279
H361	H	0.836659	0.929543	0.376575
H362	H	1.086659	1.179543	0.626575
H363	H	1.336659	1.429543	0.876575
H364	H	1.586659	1.679543	1.126575
H365	H	0.982865	0.286529	1.064017
H366	H	1.232865	0.536529	1.314017
H367	H	1.482865	0.786529	1.564017
H368	H	1.732865	1.036529	1.814017
H369	H	0.982848	0.286560	0.944754
H370	H	1.232848	0.536560	1.194754
H371	H	1.482848	0.786560	1.444754
H372	H	1.732848	1.036560	1.694754
H373	H	0.836630	0.825424	0.376556
H374	H	1.086630	1.075424	0.626556
H375	H	1.336630	1.325424	0.876556
H376	H	1.586630	1.575424	1.126556
F377	F	0.826643	0.481328	0.936412
F378	F	1.076643	0.731328	1.186412
F379	F	1.326643	0.981328	1.436412
F380	F	1.576643	1.231328	1.686412
