data_functionalizedCrystal
_audit_creation_method	'MofGen! by Chris Wilmer'
_symmetry_space_group_name_H-M	'P1'
_symmetry_Int_Tables_number	1
_symmetry_cell_setting	triclinic
loop_
_symmetry_equiv_pos_as_xyz
  x,y,z
_cell_length_a	12.594516
_cell_length_b	10.686154
_cell_length_c	10.686551
_cell_angle_alpha	89.693980
_cell_angle_beta	85.596700
_cell_angle_gamma	85.605258
loop_
_atom_site_label
_atom_site_type_symbol
_atom_site_fract_x
_atom_site_fract_y
_atom_site_fract_z
Zn1	Zn	-0.259568	-1.972288	-0.562463
Zn2	Zn	-0.452216	-1.956055	-0.352713
Zn3	Zn	-0.286787	-1.746405	-0.368774
Zn4	Zn	-0.450052	-1.762484	-0.578484
O5	O	-0.362155	-1.859308	-0.465609
O6	O	-0.274638	-2.145677	-0.521212
O7	O	-0.442569	-1.914721	-0.179298
O8	O	-0.134225	-1.776433	-0.394484
O9	O	-0.416176	-2.133751	-0.367110
O10	O	-0.114227	-1.942388	-0.536786
O11	O	-0.321028	-1.760693	-0.191098
O12	O	-0.318929	-1.572995	-0.410020
O13	O	-0.412486	-1.803838	-0.751904
O14	O	-0.438880	-1.584809	-0.564093
O15	O	-0.272539	-1.957980	-0.740134
O16	O	-0.600880	-1.930313	-0.382646
O17	O	-0.599290	-1.788098	-0.548519
C18	C	-0.638702	-1.859225	-0.465603
C19	C	-0.757000	-1.859307	-0.465633
C20	C	-0.381624	-1.533386	-0.490538
C21	C	-0.389976	-1.393958	-0.501233
C22	C	-0.339235	-1.884513	-0.792809
C23	C	-0.329468	-1.895254	-0.932242
C24	C	-0.825432	-1.781944	-0.555793
C25	C	-0.906109	-1.742591	-0.443665
C26	C	-0.887114	-1.898775	-0.577773
C27	C	-0.836127	-1.819890	-0.353448
C28	C	-0.817118	-1.976133	-0.487630
C29	C	-0.897765	-1.936818	-0.375419
C30	C	-0.084525	-1.859428	-0.465640
C31	C	0.033785	-1.859479	-0.465653
C32	C	-0.342602	-1.186502	-0.440574
C33	C	-0.334244	-1.325931	-0.429885
C34	C	-0.384906	-1.834273	-0.139676
C35	C	-0.394359	-1.823775	-0.000225
H36	H	-0.944924	-1.643874	-0.425079
H37	H	-0.813540	-1.786464	-0.258603
H38	H	-0.909838	-1.932087	-0.672600
C39	C	-0.461943	-1.329334	-0.593757
C40	C	-0.400591	-1.260361	-0.679996
C41	C	-0.466845	-1.200827	-0.765256
H42	H	-0.514671	-1.274410	-0.549709
H43	H	-0.495764	-1.390672	-0.637162
H44	H	-0.366787	-1.199030	-0.636596
H45	H	-0.347866	-1.315256	-0.724075
H46	H	-0.500666	-1.262165	-0.808661
H47	H	-0.519570	-1.145909	-0.721196
H48	H	-0.425226	-1.154031	-0.823786
H49	H	-0.929306	-2.002309	-0.299100
H50	H	-0.778303	-2.074832	-0.506272
H51	H	-0.457390	-1.754365	-0.951758
C52	C	-0.245385	-1.987940	-0.996626
C53	C	-0.187496	-2.051747	-0.905966
C54	C	-0.110042	-2.137147	-0.965228
H55	H	-0.198232	-1.944007	-1.051414
H56	H	-0.279272	-2.046540	-1.043522
H57	H	-0.153610	-1.993156	-0.859091
H58	H	-0.234620	-2.095705	-0.851173
H59	H	-0.143930	-2.195747	-1.012124
H60	H	-0.062897	-2.093204	-1.020015
H61	H	-0.070762	-2.180459	-0.903725
H62	H	-0.280141	-1.374357	-0.360619
H63	H	-0.793709	-1.716385	-0.631946
