data_functionalizedCrystal
_audit_creation_method	'MofGen! by Chris Wilmer'
_symmetry_space_group_name_H-M	'P1'
_symmetry_Int_Tables_number	1
_symmetry_cell_setting	triclinic
loop_
_symmetry_equiv_pos_as_xyz
  x,y,z
_cell_length_a	10.654550
_cell_length_b	15.944493
_cell_length_c	9.130313
_cell_angle_alpha	90.001356
_cell_angle_beta	89.999724
_cell_angle_gamma	83.979987
loop_
_atom_site_label
_atom_site_type_symbol
_atom_site_fract_x
_atom_site_fract_y
_atom_site_fract_z
O1	O	1.666276	0.117980	-0.121669
O2	O	1.300649	0.129220	-0.121694
O3	O	1.493485	0.001380	-0.121693
O4	O	1.473440	0.245820	-0.121670
O5	O	1.493472	0.001376	0.121906
O6	O	1.300636	0.129216	0.121905
O7	O	1.666263	0.117976	0.121930
Cu8	Cu	1.483448	0.123596	0.144160
Cu9	Cu	1.483464	0.123600	-0.143924
O10	O	1.473427	0.245816	0.121929
C11	C	1.253855	0.128393	0.000102
C12	C	1.114445	0.125923	0.000091
C13	C	1.492659	-0.029922	0.000100
C14	C	1.490203	-0.123185	0.000081
C15	C	1.033962	0.201194	0.000103
C16	C	0.902972	0.198869	0.000128
C17	C	0.932960	0.045996	0.000125
C18	C	1.063948	0.048322	0.000110
C19	C	1.603711	-0.358288	0.000117
C20	C	1.542507	-0.409208	-0.119993
C21	C	1.485652	-0.293932	0.000099
C22	C	1.542466	-0.409188	0.120176
C23	C	1.481264	-0.458867	0.000122
C24	C	1.424480	-0.343624	-0.120111
C25	C	1.424456	-0.343601	0.120167
C26	C	1.363166	-0.394489	0.000027
C27	C	1.488183	-0.198918	0.000084
C28	C	1.478724	-0.553879	0.000127
C29	C	1.713057	0.118803	0.000131
C30	C	1.852467	0.121272	0.000132
C31	C	1.474253	0.277117	0.000133
C32	C	1.476709	0.370380	0.000142
N33	N	1.483446	0.123592	0.346783
N34	N	1.483475	0.123597	-0.346547
C35	C	1.568863	0.067008	0.423435
C36	C	1.568875	0.067008	0.576772
C37	C	1.398050	0.180183	0.576790
C38	C	1.398033	0.180178	0.423456
H39	H	1.075071	0.264381	0.000099
C40	C	1.609166	-0.447278	0.255523
C41	C	1.734973	-0.429238	0.254961
C42	C	1.796459	-0.464302	0.379620
H43	H	1.606570	-0.506646	0.255146
H44	H	1.568138	-0.423918	0.340852
H45	H	1.775989	-0.452602	0.169655
H46	H	1.737606	-0.369878	0.255360
H47	H	1.755432	-0.440941	0.464949
H48	H	1.793854	-0.523668	0.379232
H49	H	1.881822	-0.452060	0.379262
C50	C	0.815528	0.280565	0.000432
C51	C	0.739486	0.283712	0.125787
C52	C	0.658928	0.358965	0.126126
H53	H	0.763679	0.282911	-0.084410
H54	H	0.864321	0.327135	0.000497
H55	H	0.690697	0.237154	0.125708
H56	H	0.791300	0.281379	0.210649
H57	H	0.707722	0.405536	0.126192
H58	H	0.607089	0.361305	0.041279
H59	H	0.607333	0.361114	0.211184
C60	C	1.357823	-0.305613	-0.255543
C61	C	1.232321	-0.324299	-0.255688
C62	C	1.170883	-0.289285	-0.380413
H63	H	1.399314	-0.328610	-0.340834
H64	H	1.359770	-0.246180	-0.254743
H65	H	1.230381	-0.383720	-0.256500
H66	H	1.190796	-0.301301	-0.170425
H67	H	1.172830	-0.229852	-0.379614
H68	H	1.212384	-0.312285	-0.465695
H69	H	1.085721	-0.301952	-0.380521
H70	H	0.891830	-0.017184	0.000148
H71	H	1.129481	-0.012976	0.000105
C72	C	1.227555	-0.416077	0.000011
C73	C	1.226659	-0.503822	0.001244
C74	C	1.101761	-0.523742	0.001241
H75	H	1.185694	-0.393494	-0.085346
H76	H	1.185304	-0.392663	0.084556
H77	H	1.268892	-0.527227	-0.083292
H78	H	1.268495	-0.526426	0.086595
H79	H	1.059510	-0.500328	0.085785
H80	H	1.059909	-0.501154	-0.084118
H81	H	1.101136	-0.583278	0.002091
C82	C	1.739306	-0.336666	-0.000367
C83	C	1.800554	-0.369995	-0.126434
C84	C	1.925447	-0.350066	-0.126963
H85	H	1.781840	-0.360069	0.083984
H86	H	1.739943	-0.277128	0.000413
H87	H	1.799924	-0.429521	-0.127200
H88	H	1.758057	-0.346597	-0.210805
H89	H	1.926083	-0.290529	-0.126183
H90	H	1.967969	-0.373470	-0.042607
H91	H	1.967015	-0.372670	-0.212504
C92	C	1.608745	-0.447447	-0.255512
C93	C	1.523440	-0.488731	-0.338600
C94	C	1.584416	-0.523952	-0.463455
H95	H	1.677544	-0.486752	-0.226833
H96	H	1.639157	-0.404021	-0.312541
H97	H	1.493047	-0.532152	-0.281582
H98	H	1.454639	-0.449444	-0.367317
H99	H	1.614828	-0.480526	-0.520484
H100	H	1.653213	-0.563253	-0.434761
H101	H	1.526543	-0.551960	-0.519852
H102	H	1.374636	-0.314930	0.221709
C103	C	1.661641	0.005474	0.340452
C104	C	1.736423	-0.044095	0.440408
C105	C	1.821892	-0.100801	0.364024
H106	H	1.714021	0.035915	0.280620
H107	H	1.616503	-0.029823	0.280679
H108	H	1.781558	-0.008804	0.500157
H109	H	1.684078	-0.074555	0.500244
H110	H	1.776754	-0.136097	0.304250
H111	H	1.874262	-0.070353	0.304194
H112	H	1.872634	-0.134445	0.431832
H113	H	1.638427	0.020932	0.639178
C114	C	1.305124	0.241522	0.659967
C115	C	1.181727	0.227111	0.622723
C116	C	1.096090	0.283594	0.699329
H117	H	1.318565	0.297705	0.634897
H118	H	1.317285	0.233416	0.762280
H119	H	1.169570	0.235224	0.520433
H120	H	1.168245	0.170940	0.647797
H121	H	1.108251	0.275488	0.801641
H122	H	1.109542	0.339773	0.674252
H123	H	1.012355	0.273819	0.674079
H124	H	1.328471	0.226256	0.361042
