data_functionalizedCrystal
_audit_creation_method	'MofGen! by Chris Wilmer'
_symmetry_space_group_name_H-M	'P1'
_symmetry_Int_Tables_number	1
_symmetry_cell_setting	triclinic
loop_
_symmetry_equiv_pos_as_xyz
  x,y,z
_cell_length_a	19.805407
_cell_length_b	18.050589
_cell_length_c	19.805399
_cell_angle_alpha	90.022294
_cell_angle_beta	90.019573
_cell_angle_gamma	90.028221
loop_
_atom_site_label
_atom_site_type_symbol
_atom_site_fract_x
_atom_site_fract_y
_atom_site_fract_z
Zn1	Zn	1.034727	-0.295677	0.382745
Zn2	Zn	1.284727	-0.045677	0.632745
Zn3	Zn	1.534727	0.204323	0.882745
Zn4	Zn	1.784727	0.454323	1.132745
Zn5	Zn	1.034638	-0.419869	0.269567
Zn6	Zn	1.284638	-0.169869	0.519567
Zn7	Zn	1.534638	0.080131	0.769567
Zn8	Zn	1.784638	0.330131	1.019567
Zn9	Zn	0.921542	-0.295697	0.269569
Zn10	Zn	1.171542	-0.045697	0.519569
Zn11	Zn	1.421542	0.204303	0.769569
Zn12	Zn	1.671542	0.454303	1.019569
Zn13	Zn	0.921502	-0.419829	0.382713
Zn14	Zn	1.171502	-0.169829	0.632713
Zn15	Zn	1.421502	0.080171	0.882713
Zn16	Zn	1.671502	0.330171	1.132713
O17	O	0.978102	-0.357768	0.326148
O18	O	1.228102	-0.107768	0.576148
O19	O	1.478102	0.142232	0.826148
O20	O	1.728102	0.392232	1.076148
O21	O	1.129432	-0.312159	0.367743
O22	O	1.379432	-0.062159	0.617743
O23	O	1.629432	0.187841	0.867743
O24	O	1.879432	0.437841	1.117743
O25	O	1.019616	-0.403422	0.174850
O26	O	1.269616	-0.153422	0.424850
O27	O	1.519616	0.096578	0.674850
O28	O	1.769616	0.346578	0.924850
O29	O	0.936610	-0.191770	0.284596
O30	O	1.186610	0.058230	0.534596
O31	O	1.436610	0.308230	0.784596
O32	O	1.686610	0.558230	1.034596
O33	O	1.129367	-0.403402	0.284592
O34	O	1.379367	-0.153402	0.534592
O35	O	1.629367	0.096598	0.784592
O36	O	1.879367	0.346598	1.034592
O37	O	1.019767	-0.191755	0.367746
O38	O	1.269767	0.058245	0.617746
O39	O	1.519767	0.308245	0.867746
O40	O	1.769767	0.558245	1.117746
O41	O	0.936524	-0.312194	0.174852
O42	O	1.186524	-0.062194	0.424852
O43	O	1.436524	0.187806	0.674852
O44	O	1.686524	0.437806	0.924852
O45	O	0.826820	-0.312156	0.284566
O46	O	1.076820	-0.062156	0.534566
O47	O	1.326820	0.187844	0.784566
O48	O	1.576820	0.437844	1.034566
O49	O	0.936542	-0.403335	0.477434
O50	O	1.186542	-0.153335	0.727434
O51	O	1.436542	0.096665	0.977434
O52	O	1.686542	0.346665	1.227434
O53	O	0.826791	-0.403355	0.367693
O54	O	1.076791	-0.153355	0.617693
O55	O	1.326791	0.096645	0.867693
O56	O	1.576791	0.346645	1.117693
O57	O	1.019728	-0.312121	0.477457
O58	O	1.269728	-0.062121	0.727457
O59	O	1.519728	0.187879	0.977457
O60	O	1.769728	0.437879	1.227457
O61	O	1.019577	-0.523788	0.284562
O62	O	1.269577	-0.273788	0.534562
O63	O	1.519577	-0.023788	0.784562
O64	O	1.769577	0.226212	1.034562
O65	O	0.936456	-0.523759	0.367690
O66	O	1.186456	-0.273759	0.617690
O67	O	1.436456	-0.023759	0.867690
O68	O	1.686456	0.226241	1.117690
C69	C	0.802246	-0.357754	0.326127
C70	C	1.052246	-0.107754	0.576127
C71	C	1.302246	0.142246	0.826127
C72	C	1.552246	0.392246	1.076127
C73	C	0.727014	-0.357766	0.326133
C74	C	0.977014	-0.107766	0.576133
C75	C	1.227014	0.142234	0.826133
C76	C	1.477014	0.392234	1.076133
C77	C	0.691673	-0.405325	0.369347
C78	C	0.941673	-0.155325	0.619347
C79	C	1.191673	0.094675	0.869347
C80	C	1.441673	0.344675	1.119347
C81	C	0.620984	-0.405326	0.369357
C82	C	0.870984	-0.155326	0.619357
C83	C	1.120984	0.094674	0.869357
C84	C	1.370984	0.344674	1.119357
C85	C	0.585639	-0.357771	0.326148
C86	C	0.835639	-0.107771	0.576148
C87	C	1.085639	0.142229	0.826148
C88	C	1.335639	0.392229	1.076148
C89	C	0.620985	-0.310207	0.282933
C90	C	0.870985	-0.060207	0.532933
C91	C	1.120985	0.189793	0.782933
C92	C	1.370985	0.439793	1.032933
C93	C	0.691673	-0.310203	0.282927
C94	C	0.941673	-0.060203	0.532927
C95	C	1.191673	0.189797	0.782927
C96	C	1.441673	0.439797	1.032927
C97	C	0.335912	-0.310224	0.282955
C98	C	0.585912	-0.060224	0.532955
C99	C	0.835912	0.189776	0.782955
C100	C	1.085912	0.439776	1.032955
C101	C	0.265220	-0.310233	0.282962
C102	C	0.515220	-0.060233	0.532962
C103	C	0.765220	0.189767	0.782962
C104	C	1.015220	0.439767	1.032962
C105	C	0.265224	-0.405347	0.369385
C106	C	0.515224	-0.155347	0.619385
C107	C	0.765224	0.094653	0.869385
C108	C	1.015224	0.344653	1.119385
C109	C	0.335911	-0.405342	0.369379
C110	C	0.585911	-0.155342	0.619379
C111	C	0.835911	0.094658	0.869379
C112	C	1.085911	0.344658	1.119379
C113	C	0.371251	-0.357776	0.326166
C114	C	0.621251	-0.107776	0.576166
C115	C	0.871251	0.142224	0.826166
C116	C	1.121251	0.392224	1.076166
C117	C	0.447900	-0.357774	0.326157
C118	C	0.697900	-0.107774	0.576157
C119	C	0.947900	0.142226	0.826157
C120	C	1.197900	0.392226	1.076157
C121	C	0.508992	-0.357776	0.326153
C122	C	0.758992	-0.107776	0.576153
C123	C	1.008992	0.142224	0.826153
C124	C	1.258992	0.392224	1.076153
C125	C	0.978021	-0.550720	0.326137
C126	C	1.228021	-0.300720	0.576137
C127	C	1.478021	-0.050720	0.826137
C128	C	1.728021	0.199280	1.076137
C129	C	0.978048	-0.633266	0.326155
C130	C	1.228048	-0.383266	0.576155
C131	C	1.478048	-0.133266	0.826155
C132	C	1.728048	0.116734	1.076155
C133	C	0.932891	-0.832728	0.371344
C134	C	1.182891	-0.582728	0.621344
C135	C	1.432891	-0.332728	0.871344
C136	C	1.682891	-0.082728	1.121344
C137	C	0.916392	-0.882167	0.309581
C138	C	1.166392	-0.632167	0.559581
C139	C	1.416392	-0.382167	0.809581
C140	C	1.666392	-0.132167	1.059581
C141	C	0.978114	-0.784396	0.326164
C142	C	1.228114	-0.534396	0.576164
C143	C	1.478114	-0.284396	0.826164
C144	C	1.728114	-0.034396	1.076164
C145	C	0.994646	-0.882039	0.387934
C146	C	1.244646	-0.632039	0.637934
C147	C	1.494646	-0.382039	0.887934
C148	C	1.744646	-0.132039	1.137934
C149	C	0.978177	-0.930381	0.326178
C150	C	1.228177	-0.680381	0.576178
C151	C	1.478177	-0.430381	0.826178
C152	C	1.728177	-0.180381	1.076178
C153	C	0.961583	-0.832748	0.264368
C154	C	1.211583	-0.582748	0.514368
C155	C	1.461583	-0.332748	0.764368
C156	C	1.711583	-0.082748	1.014368
C157	C	1.039865	-0.832616	0.342762
C158	C	1.289865	-0.582616	0.592762
C159	C	1.539865	-0.332616	0.842762
C160	C	1.789865	-0.082616	1.092762
C161	C	1.023390	-0.882033	0.280957
C162	C	1.273390	-0.632033	0.530957
C163	C	1.523390	-0.382033	0.780957
C164	C	1.773390	-0.132033	1.030957
C165	C	0.978076	-0.700298	0.326157
C166	C	1.228076	-0.450298	0.576157
C167	C	1.478076	-0.200298	0.826157
C168	C	1.728076	0.049702	1.076157
C169	C	0.978215	-1.014478	0.326178
C170	C	1.228215	-0.764478	0.576178
C171	C	1.478215	-0.514478	0.826178
C172	C	1.728215	-0.264478	1.076178
C173	C	1.154645	-0.357783	0.326171
C174	C	1.404645	-0.107783	0.576171
C175	C	1.654645	0.142217	0.826171
C176	C	1.904645	0.392217	1.076171
C177	C	1.229877	-0.357789	0.326180
C178	C	1.479877	-0.107789	0.576180
C179	C	1.729877	0.142211	0.826180
C180	C	1.979877	0.392211	1.076180
C181	C	0.978140	-0.357721	0.502691
C182	C	1.228140	-0.107721	0.752691
C183	C	1.478140	0.142279	1.002691
C184	C	1.728140	0.392279	1.252691
C185	C	0.978156	-0.357701	0.577923
C186	C	1.228156	-0.107701	0.827923
C187	C	1.478156	0.142299	1.077923
C188	C	1.728156	0.392299	1.327923
C189	C	0.978203	-0.164062	0.326175
C190	C	1.228203	0.085938	0.576175
C191	C	1.478203	0.335938	0.826175
C192	C	1.728203	0.585938	1.076175
C193	C	0.978246	-0.081517	0.326186
C194	C	1.228246	0.168483	0.576186
C195	C	1.478246	0.418483	0.826186
C196	C	1.728246	0.668483	1.076186
C197	C	0.978103	-0.357761	0.150292
C198	C	1.228103	-0.107761	0.400292
C199	C	1.478103	0.142239	0.650292
C200	C	1.728103	0.392239	0.900292
C201	C	0.978218	-0.357572	0.075061
C202	C	1.228218	-0.107572	0.325061
C203	C	1.478218	0.142428	0.575061
C204	C	1.728218	0.392428	0.825061
C205	C	1.021472	-0.310204	0.613280
C206	C	1.271472	-0.060204	0.863280
C207	C	1.521472	0.189796	1.113280
C208	C	1.771472	0.439796	1.363280
C209	C	1.021479	-0.310182	0.683969
C210	C	1.271479	-0.060182	0.933969
C211	C	1.521479	0.189818	1.183969
C212	C	1.771479	0.439818	1.433969
C213	C	0.978173	-0.357662	0.719299
C214	C	1.228173	-0.107662	0.969299
C215	C	1.478173	0.142338	1.219299
C216	C	1.728173	0.392338	1.469299
C217	C	0.934852	-0.405162	0.683937
C218	C	1.184852	-0.155162	0.933937
C219	C	1.434852	0.094838	1.183937
C220	C	1.684852	0.344838	1.433937
C221	C	0.934843	-0.405180	0.613250
C222	C	1.184843	-0.155180	0.863250
C223	C	1.434843	0.094820	1.113250
C224	C	1.684843	0.344820	1.363250
C225	C	0.934891	-0.405093	0.969010
C226	C	1.184891	-0.155093	1.219010
C227	C	1.434891	0.094907	1.469010
C228	C	1.684891	0.344907	1.719010
C229	C	0.934905	-0.405074	1.039702
C230	C	1.184905	-0.155074	1.289702
C231	C	1.434905	0.094926	1.539702
C232	C	1.684905	0.344926	1.789702
C233	C	1.021527	-0.310096	1.039729
C234	C	1.271527	-0.060096	1.289729
C235	C	1.521527	0.189904	1.539729
C236	C	1.771527	0.439904	1.789729
C237	C	1.021518	-0.310113	0.969042
C238	C	1.271518	-0.060113	1.219042
C239	C	1.521518	0.189887	1.469042
C240	C	1.771518	0.439887	1.719042
C241	C	0.978195	-0.357609	0.933686
C242	C	1.228195	-0.107609	1.183686
C243	C	1.478195	0.142391	1.433686
C244	C	1.728195	0.392391	1.683686
C245	C	0.978187	-0.357631	0.857038
C246	C	1.228187	-0.107631	1.107038
C247	C	1.478187	0.142369	1.357038
C248	C	1.728187	0.392369	1.607038
C249	C	0.978184	-0.357645	0.795946
C250	C	1.228184	-0.107645	1.045946
C251	C	1.478184	0.142355	1.295946
C252	C	1.728184	0.392355	1.545946
H253	H	0.236444	-0.271504	0.247777
H254	H	0.486444	-0.021504	0.497777
H255	H	0.736444	0.228496	0.747777
H256	H	0.986444	0.478496	0.997777
H257	H	1.061661	-0.903545	0.242711
H258	H	1.311661	-0.653545	0.492711
H259	H	1.561661	-0.403545	0.742711
H260	H	1.811661	-0.153545	0.992711
Cl261	Cl	1.075921	-0.250514	0.568872
Cl262	Cl	1.325921	-0.000514	0.818872
Cl263	Cl	1.575921	0.249486	1.068872
Cl264	Cl	1.825921	0.499486	1.318872
Cl265	Cl	0.939942	-0.799462	0.183701
Cl266	Cl	1.189942	-0.549462	0.433701
Cl267	Cl	1.439942	-0.299462	0.683701
Cl268	Cl	1.689942	-0.049462	0.933701
Cl269	Cl	0.380331	-0.250423	0.228632
Cl270	Cl	0.630331	-0.000423	0.478632
Cl271	Cl	0.880331	0.249577	0.728632
Cl272	Cl	1.130331	0.499577	0.978632
Cl273	Cl	1.120427	-0.798987	0.364464
Cl274	Cl	1.370427	-0.548987	0.614464
Cl275	Cl	1.620427	-0.298987	0.864464
Cl276	Cl	1.870427	-0.048987	1.114464
H277	H	0.899589	-0.443819	0.712708
H278	H	1.149589	-0.193819	0.962708
H279	H	1.399589	0.056181	1.212708
H280	H	1.649589	0.306181	1.462708
Cl281	Cl	0.873762	-0.799299	0.430252
Cl282	Cl	1.123762	-0.549299	0.680252
Cl283	Cl	1.373762	-0.299299	0.930252
Cl284	Cl	1.623762	-0.049299	1.180252
H285	H	0.364686	-0.444069	0.404562
H286	H	0.614686	-0.194069	0.654562
H287	H	0.864686	0.055931	0.904562
H288	H	1.114686	0.305931	1.154562
Cl289	Cl	1.075966	-0.250501	0.728415
Cl290	Cl	1.325966	-0.000501	0.978415
Cl291	Cl	1.575966	0.249499	1.228415
Cl292	Cl	1.825966	0.499499	1.478415
Cl293	Cl	0.880384	-0.464891	0.568800
Cl294	Cl	1.130384	-0.214891	0.818800
Cl295	Cl	1.380384	0.035109	1.068800
Cl296	Cl	1.630384	0.285109	1.318800
H297	H	0.720447	-0.271471	0.247741
H298	H	0.970447	-0.021471	0.497741
H299	H	1.220447	0.228529	0.747741
H300	H	1.470447	0.478529	0.997741
H301	H	0.720446	-0.444052	0.404530
H302	H	0.970446	-0.194052	0.654530
H303	H	1.220446	0.055948	0.904530
H304	H	1.470446	0.305948	1.154530
Cl305	Cl	0.576557	-0.465117	0.423686
Cl306	Cl	0.826557	-0.215117	0.673686
Cl307	Cl	1.076557	0.034883	0.923686
Cl308	Cl	1.326557	0.284883	1.173686
Cl309	Cl	0.576551	-0.250419	0.228617
Cl310	Cl	0.826551	-0.000419	0.478617
Cl311	Cl	1.076551	0.249581	0.728617
Cl312	Cl	1.326551	0.499581	0.978617
Cl313	Cl	0.220791	-0.465145	0.423711
Cl314	Cl	0.470791	-0.215145	0.673711
Cl315	Cl	0.720791	0.034855	0.923711
Cl316	Cl	0.970791	0.284855	1.173711
Cl317	Cl	0.835809	-0.915768	0.287907
Cl318	Cl	1.085809	-0.665768	0.537907
Cl319	Cl	1.335809	-0.415768	0.787907
Cl320	Cl	1.585809	-0.165768	1.037907
Cl321	Cl	0.880428	-0.464804	0.924572
Cl322	Cl	1.130428	-0.214804	1.174572
Cl323	Cl	1.380428	0.035196	1.424572
Cl324	Cl	1.630428	0.285196	1.674572
H325	H	1.008603	-0.903691	0.440167
H326	H	1.258603	-0.653691	0.690167
H327	H	1.508603	-0.403691	0.940167
H328	H	1.758603	-0.153691	1.190167
H329	H	1.056784	-0.271452	0.940280
H330	H	1.306784	-0.021452	1.190280
H331	H	1.556784	0.228548	1.440280
H332	H	1.806784	0.478548	1.690280
H333	H	1.056801	-0.271419	1.068525
H334	H	1.306801	-0.021419	1.318525
H335	H	1.556801	0.228581	1.568525
H336	H	1.806801	0.478581	1.818525
Cl337	Cl	0.880458	-0.464767	1.084117
Cl338	Cl	1.130458	-0.214767	1.334117
Cl339	Cl	1.380458	0.035233	1.584117
Cl340	Cl	1.630458	0.285233	1.834117
