data_functionalizedCrystal
_audit_creation_method	'MofGen! by Chris Wilmer'
_symmetry_space_group_name_H-M	'P1'
_symmetry_Int_Tables_number	1
_symmetry_cell_setting	triclinic
loop_
_symmetry_equiv_pos_as_xyz
  x,y,z
_cell_length_a	9.065218
_cell_length_b	8.140239
_cell_length_c	11.792240
_cell_angle_alpha	90.012874
_cell_angle_beta	84.604651
_cell_angle_gamma	90.002802
loop_
_atom_site_label
_atom_site_type_symbol
_atom_site_fract_x
_atom_site_fract_y
_atom_site_fract_z
O1	O	-1.958838	-0.136657	-0.166430
O2	O	-1.625505	0.196676	0.166904
O3	O	-1.292172	0.530009	0.500237
O4	O	-1.529425	-0.136663	-0.180081
O5	O	-1.196092	0.196670	0.153252
O6	O	-0.862759	0.530004	0.486585
O7	O	-1.754552	-0.136610	-0.008143
O8	O	-1.421219	0.196723	0.325191
O9	O	-1.087886	0.530057	0.658524
O10	O	-1.733711	-0.136710	-0.338368
O11	O	-1.400378	0.196623	-0.005035
O12	O	-1.067045	0.529957	0.328298
O13	O	-1.754540	0.136617	-0.008141
O14	O	-1.421207	0.469950	0.325193
O15	O	-1.087873	0.803284	0.658526
O16	O	-1.529413	0.136564	-0.180079
O17	O	-1.196080	0.469898	0.153254
O18	O	-0.862746	0.803231	0.486588
O19	O	-1.958826	0.136570	-0.166428
O20	O	-1.625492	0.469903	0.166906
O21	O	-1.292159	0.803236	0.500239
Zn22	Zn	-1.744117	0.179948	-0.173253
Zn23	Zn	-1.410784	0.513281	0.160080
Zn24	Zn	-1.077451	0.846614	0.493414
Zn25	Zn	-1.744134	-0.180041	-0.173256
Zn26	Zn	-1.410800	0.153293	0.160077
Zn27	Zn	-1.077467	0.486626	0.493411
O28	O	-1.733699	0.136517	-0.338366
O29	O	-1.400365	0.469850	-0.005033
O30	O	-1.067032	0.803184	0.328300
C31	C	-1.474445	-0.000049	-0.178768
C32	C	-1.141112	0.333284	0.154565
C33	C	-0.807778	0.666617	0.487898
C34	C	-1.310639	-0.000049	-0.174845
C35	C	-0.977305	0.333284	0.158488
C36	C	-0.643972	0.666618	0.491821
C37	C	-1.753237	0.000013	0.034156
C38	C	-1.419904	0.333346	0.367490
C39	C	-1.086570	0.666679	0.700823
C40	C	-1.749319	0.000040	0.160192
C41	C	-1.415985	0.333374	0.493525
C42	C	-1.082652	0.666707	0.826859
C43	C	-2.013806	-0.000048	-0.167741
C44	C	-1.680473	0.333286	0.165593
C45	C	-1.347140	0.666619	0.498926
C46	C	-2.177612	-0.000059	-0.171664
C47	C	-1.844279	0.333275	0.161670
C48	C	-1.510946	0.666608	0.495003
N49	N	-1.744117	0.425630	-0.173251
N50	N	-1.410784	0.758964	0.160083
N51	N	-1.077450	1.092297	0.493416
N52	N	-1.744146	-0.425723	-0.173249
N53	N	-1.410813	-0.092390	0.160084
N54	N	-1.077479	0.240943	0.493417
C55	C	-1.742113	0.000067	0.390944
C56	C	-1.408780	0.333400	0.724277
C57	C	-1.075447	0.666733	1.057611
C58	C	-1.746117	0.000052	0.262537
C59	C	-1.412783	0.333385	0.595870
C60	C	-1.079450	0.666718	0.929203
C61	C	-1.735014	-0.000051	0.619335
C62	C	-1.401681	0.333282	0.952668
C63	C	-1.068347	0.666616	1.286001
C64	C	-1.738933	0.000085	0.493299
C65	C	-1.405599	0.333418	0.826633
C66	C	-1.072266	0.666751	1.159966
