data_functionalizedCrystal
_audit_creation_method	'MofGen! by Chris Wilmer'
_symmetry_space_group_name_H-M	'P1'
_symmetry_Int_Tables_number	1
_symmetry_cell_setting	triclinic
loop_
_symmetry_equiv_pos_as_xyz
  x,y,z
_cell_length_a	15.298708
_cell_length_b	15.297327
_cell_length_c	19.076919
_cell_angle_alpha	101.510342
_cell_angle_beta	101.509970
_cell_angle_gamma	107.405650
loop_
_atom_site_label
_atom_site_type_symbol
_atom_site_fract_x
_atom_site_fract_y
_atom_site_fract_z
Zn1	Zn	1.342997	-0.138578	-0.235618
Zn2	Zn	1.676331	0.194755	0.097715
Zn3	Zn	2.009664	0.528088	0.431048
Zn4	Zn	1.321862	-0.288236	-0.140968
Zn5	Zn	1.655196	0.045097	0.192366
Zn6	Zn	1.988529	0.378431	0.525699
Zn7	Zn	1.193372	-0.159659	-0.140951
Zn8	Zn	1.526705	0.173675	0.192383
Zn9	Zn	1.860038	0.507008	0.525716
Zn10	Zn	1.157402	-0.324139	-0.285636
Zn11	Zn	1.490736	0.009194	0.047697
Zn12	Zn	1.824069	0.342528	0.381030
O13	O	1.253908	-0.227653	-0.200793
O14	O	1.587242	0.105680	0.132540
O15	O	1.920575	0.439014	0.465873
O16	O	1.471640	-0.134583	-0.202137
O17	O	1.804973	0.198750	0.131196
O18	O	2.138307	0.532084	0.464530
O19	O	1.311026	-0.264977	-0.040803
O20	O	1.644360	0.068357	0.292531
O21	O	1.977693	0.401690	0.625864
O22	O	1.237118	-0.025394	-0.132569
O23	O	1.570452	0.307939	0.200765
O24	O	1.903785	0.641272	0.534098
O25	O	1.456112	-0.244536	-0.132598
O26	O	1.789445	0.088797	0.200736
O27	O	2.122779	0.422131	0.534069
O28	O	1.347048	-0.009907	-0.202121
O29	O	1.680381	0.323427	0.131213
O30	O	2.013714	0.656760	0.464546
O31	O	1.216625	-0.170512	-0.040790
O32	O	1.549958	0.162822	0.292543
O33	O	1.883291	0.496155	0.625877
O34	O	1.057154	-0.205325	-0.181069
O35	O	1.390488	0.128008	0.152264
O36	O	1.723821	0.461342	0.485597
O37	O	1.175813	-0.305727	-0.379164
O38	O	1.509147	0.027606	-0.045831
O39	O	1.842480	0.360939	0.287502
O40	O	1.030728	-0.326168	-0.287369
O41	O	1.364061	0.007165	0.045964
O42	O	1.697394	0.340498	0.379298
O43	O	1.312170	-0.169397	-0.342416
O44	O	1.645503	0.163937	-0.009083
O45	O	1.978836	0.497270	0.324251
O46	O	1.276148	-0.424467	-0.181098
O47	O	1.609481	-0.091133	0.152235
O48	O	1.942815	0.242200	0.485569
O49	O	1.155320	-0.450844	-0.287386
O50	O	1.488653	-0.117511	0.045948
O51	O	1.821986	0.215822	0.379281
C52	C	1.009858	-0.271931	-0.239645
C53	C	1.343192	0.061402	0.093688
C54	C	1.676525	0.394736	0.427021
C55	C	0.905447	-0.290897	-0.256287
C56	C	1.238781	0.042437	0.077046
C57	C	1.572114	0.375770	0.410379
C58	C	0.666113	-0.092348	-0.082066
C59	C	0.999446	0.240986	0.251268
C60	C	1.332779	0.574319	0.584601
C61	C	0.764213	-0.074523	-0.066430
C62	C	1.097546	0.258810	0.266904
C63	C	1.430880	0.592144	0.600237
C64	C	0.799526	-0.128615	-0.113893
C65	C	1.132860	0.204718	0.219441
C66	C	1.466193	0.538052	0.552774
C67	C	0.736730	-0.200535	-0.176994
C68	C	1.070063	0.132799	0.156339
C69	C	1.403397	0.466132	0.489672
C70	C	0.638621	-0.218356	-0.192635
C71	C	0.971954	0.114977	0.140699
C72	C	1.305287	0.448311	0.474032
C73	C	0.772035	-0.254623	-0.224462
C74	C	1.105368	0.078710	0.108872
C75	C	1.438701	0.412043	0.442205
C76	C	0.709238	-0.326543	-0.287564
C77	C	1.042571	0.006790	0.045770
C78	C	1.375905	0.340124	0.379103
C79	C	0.611139	-0.344362	-0.303201
C80	C	0.944472	-0.011028	0.030132
C81	C	1.277806	0.322305	0.363466
C82	C	0.575825	-0.290270	-0.255738
C83	C	0.909159	0.043064	0.077595
C84	C	1.242492	0.376397	0.410929
C85	C	0.870144	-0.236802	-0.208821
C86	C	1.203477	0.096531	0.124512
C87	C	1.536810	0.429865	0.457845
C88	C	0.842652	-0.362810	-0.319391
C89	C	1.175985	-0.029477	0.013943
C90	C	1.509318	0.303856	0.347276
C91	C	0.744552	-0.380635	-0.335026
C92	C	1.077885	-0.047302	-0.001693
C93	C	1.411218	0.286032	0.331640
C94	C	1.209562	-0.471740	-0.239683
C95	C	1.542895	-0.138407	0.093650
C96	C	1.876228	0.194927	0.426984
C97	C	1.190675	-0.576148	-0.256330
C98	C	1.524008	-0.242814	0.077003
C99	C	1.857341	0.090519	0.410336
C100	C	1.389270	-0.815365	-0.081994
C101	C	1.722604	-0.482032	0.251339
C102	C	2.055937	-0.148698	0.584672
C103	C	1.407016	-0.717269	-0.066350
C104	C	1.740349	-0.383936	0.266984
C105	C	2.073682	-0.050602	0.600317
C106	C	1.352932	-0.681984	-0.113844
C107	C	1.686266	-0.348650	0.219490
C108	C	2.019599	-0.015317	0.552823
C109	C	1.281100	-0.744804	-0.176985
C110	C	1.614433	-0.411471	0.156349
C111	C	1.947767	-0.078138	0.489682
C112	C	1.263348	-0.842911	-0.192628
C113	C	1.596681	-0.509577	0.140706
C114	C	1.930015	-0.176244	0.474039
C115	C	1.227010	-0.709529	-0.224477
C116	C	1.560343	-0.376196	0.108857
C117	C	1.893676	-0.042863	0.442190
C118	C	1.155177	-0.772350	-0.287618
C119	C	1.488511	-0.439017	0.045715
C120	C	1.821844	-0.105683	0.379049
C121	C	1.137429	-0.870446	-0.303258
C122	C	1.470762	-0.537113	0.030075
C123	C	1.804096	-0.203780	0.363408
C124	C	1.191513	-0.905732	-0.255764
C125	C	1.524846	-0.572398	0.077569
C126	C	1.858179	-0.239065	0.410902
C127	C	1.244762	-0.611423	-0.208834
C128	C	1.578095	-0.278090	0.124500
C129	C	1.911428	0.055244	0.457833
C130	C	1.118839	-0.638968	-0.319467
C131	C	1.452173	-0.305635	0.013866
C132	C	1.785506	0.027698	0.347200
C133	C	1.101094	-0.737064	-0.335112
C134	C	1.434427	-0.403731	-0.001778
C135	C	1.767761	-0.070398	0.331555
C136	C	1.498911	-0.183203	-0.161790
C137	C	1.832245	0.150130	0.171544
C138	C	2.165578	0.483464	0.504877
C139	C	1.603317	-0.164261	-0.145169
C140	C	1.936651	0.169072	0.188164
C141	C	2.269984	0.502406	0.521498
C142	C	1.242337	-0.239215	-0.387487
C143	C	1.575670	0.094118	-0.054154
C144	C	1.909003	0.427451	0.279179
C145	C	1.237406	-0.244142	-0.467045
C146	C	1.570739	0.089191	-0.133712
C147	C	1.904072	0.422524	0.199621
C148	C	1.298453	0.017391	-0.161763
C149	C	1.631786	0.350724	0.171570
C150	C	1.965120	0.684057	0.504903
C151	C	1.317435	0.121814	-0.145131
C152	C	1.650768	0.455147	0.188202
C153	C	1.984102	0.788481	0.521536
C154	C	1.306079	-0.175480	-0.485291
C155	C	1.639412	0.157853	-0.151958
C156	C	1.972745	0.491186	0.181375
C157	C	1.301434	-0.180109	-0.560046
C158	C	1.634768	0.153225	-0.226712
C159	C	1.968101	0.486558	0.106621
C160	C	1.228120	-0.253403	-0.616553
C161	C	1.561454	0.079930	-0.283220
C162	C	1.894787	0.413263	0.050114
C163	C	1.159441	-0.322069	-0.598304
C164	C	1.492774	0.011264	-0.264970
C165	C	1.826107	0.344598	0.068363
C166	C	1.164082	-0.317436	-0.523550
C167	C	1.497415	0.015897	-0.190217
C168	C	1.830748	0.349230	0.143116
C169	C	1.206624	-0.274866	-0.842174
C170	C	1.539957	0.058467	-0.508841
C171	C	1.873291	0.391800	-0.175508
C172	C	1.201990	-0.279495	-0.916931
C173	C	1.535323	0.053838	-0.583598
C174	C	1.868656	0.387171	-0.250265
C175	C	1.343983	-0.137533	-0.878668
C176	C	1.677316	0.195800	-0.545335
C177	C	2.010650	0.529133	-0.212002
C178	C	1.348621	-0.132910	-0.803915
C179	C	1.681954	0.200423	-0.470582
C180	C	2.015288	0.533756	-0.137249
C181	C	1.279938	-0.201573	-0.785672
C182	C	1.613272	0.131760	-0.452339
C183	C	1.946605	0.465094	-0.119005
N184	N	1.223373	-0.258137	-0.692965
N185	N	1.556707	0.075196	-0.359631
N186	N	1.890040	0.408529	-0.026298
N187	N	1.284682	-0.196834	-0.709262
N188	N	1.618016	0.136499	-0.375928
N189	N	1.951349	0.469832	-0.042595
C190	C	1.265501	-0.216058	-0.014806
C191	C	1.598835	0.117275	0.318527
C192	C	1.932168	0.450609	0.651861
C193	C	1.270663	-0.210833	0.064823
C194	C	1.603996	0.122500	0.398156
C195	C	1.937329	0.455833	0.731489
H196	H	0.693409	-0.439192	-0.386405
H197	H	1.026743	-0.105859	-0.053071
H198	H	1.360076	0.227474	0.280262
H199	H	1.408323	-0.073228	-0.757910
H200	H	1.741656	0.260105	-0.424576
H201	H	2.074990	0.593439	-0.091243
H202	H	1.303248	-0.560283	-0.157424
H203	H	1.636581	-0.226949	0.175910
H204	H	1.969915	0.106384	0.509243
F205	F	1.417073	-0.064461	-0.898090
F206	F	1.750406	0.268872	-0.564757
F207	F	2.083740	0.602205	-0.231424
H208	H	1.108153	-0.373340	-0.508697
H209	H	1.441486	-0.040007	-0.175364
H210	H	1.774820	0.293326	0.157969
H211	H	0.879405	-0.114097	-0.101158
H212	H	1.212738	0.219236	0.232175
H213	H	1.546072	0.552569	0.565508
H214	H	1.465500	-0.666124	-0.014940
H215	H	1.798833	-0.332791	0.318393
H216	H	2.132167	0.000542	0.651726
H217	H	0.560012	-0.402917	-0.354587
H218	H	0.893346	-0.069584	-0.021253
H219	H	1.226679	0.263750	0.312080
H220	H	1.142285	-0.339184	-0.962941
H221	H	1.475618	-0.005850	-0.629608
H222	H	1.808952	0.327483	-0.296274
H223	H	0.815335	-0.015968	-0.015051
H224	H	1.148668	0.317365	0.318283
H225	H	1.482001	0.650698	0.651616
H226	H	1.150709	-0.330788	-0.827331
H227	H	1.484042	0.002546	-0.493998
H228	H	1.817375	0.335879	-0.160664
H229	H	1.357357	-0.124198	-0.574896
H230	H	1.690691	0.209135	-0.241563
H231	H	2.024024	0.542468	0.091771
H232	H	1.099744	-0.381744	-0.644318
H233	H	1.433077	-0.048411	-0.310985
H234	H	1.766410	0.284922	0.022348
H235	H	0.495945	-0.304783	-0.268463
H236	H	0.829278	0.028551	0.064871
H237	H	1.162611	0.361884	0.398204
F238	F	1.372012	-0.577554	-0.097313
F239	F	1.705345	-0.244220	0.236020
F240	F	2.038679	0.089113	0.569354
F241	F	0.936965	-0.160262	-0.141666
F242	F	1.270299	0.173071	0.191668
F243	F	1.603632	0.506404	0.525001
F244	F	1.024647	-0.803933	-0.402309
F245	F	1.357980	-0.470600	-0.068976
F246	F	1.691313	-0.137267	0.264357
F247	F	0.628524	-0.034779	-0.031565
F248	F	0.961857	0.298554	0.301768
F249	F	1.295190	0.631887	0.635101
H250	H	1.074798	-0.610241	-0.358140
H251	H	1.408131	-0.276908	-0.024806
H252	H	1.741465	0.056426	0.308527
H253	H	0.871403	-0.406854	-0.358041
H254	H	1.204737	-0.073520	-0.024707
H255	H	1.538070	0.259813	0.308626
H256	H	1.433292	-0.844106	-0.043328
H257	H	1.766625	-0.510772	0.290005
H258	H	2.099959	-0.177439	0.623338
H259	H	1.177070	-0.985608	-0.268500
H260	H	1.510404	-0.652275	0.064833
H261	H	1.843737	-0.318941	0.398166
H262	H	1.078928	-0.921595	-0.354665
H263	H	1.412261	-0.588261	-0.021332
H264	H	1.745595	-0.254928	0.312001
F265	F	1.384114	-0.097473	-0.425157
F266	F	1.717447	0.235860	-0.091823
F267	F	2.050781	0.569193	0.241510
