data_functionalizedCrystal
_audit_creation_method	'MofGen! by Chris Wilmer'
_symmetry_space_group_name_H-M	'P1'
_symmetry_Int_Tables_number	1
_symmetry_cell_setting	triclinic
loop_
_symmetry_equiv_pos_as_xyz
  x,y,z
_cell_length_a	20.919309
_cell_length_b	14.395555
_cell_length_c	14.395555
_cell_angle_alpha	60.002398
_cell_angle_beta	89.999957
_cell_angle_gamma	57.438650
loop_
_atom_site_label
_atom_site_type_symbol
_atom_site_fract_x
_atom_site_fract_y
_atom_site_fract_z
Zr1	Zr	0.641727	0.944250	-0.085641
O2	O	0.535348	1.150078	-0.239980
O3	O	0.674343	0.746759	-0.038327
O4	O	0.674337	0.940555	-0.232122
O5	O	0.535354	0.956289	0.106683
O6	O	0.783967	0.928156	-0.225925
O7	O	0.535355	0.956282	-0.046185
O8	O	0.783979	0.581491	0.120739
O9	O	0.535342	1.302954	-0.239982
O10	O	0.770063	0.815649	-0.013525
O11	O	0.688247	0.824907	0.095934
O12	O	0.688239	1.053076	-0.132235
O13	O	0.606422	1.062335	-0.022777
Zr14	Zr	0.816573	0.924486	0.168047
Zr15	Zr	0.816574	0.924475	-0.075758
Zr16	Zr	0.641726	0.944261	0.158164
Zr17	Zr	0.641717	1.188070	-0.085644
Zr18	Zr	0.816583	0.680666	0.168050
O19	O	0.783957	1.121976	0.120732
O20	O	0.783959	1.121961	-0.225928
O21	O	0.535347	1.150094	0.106680
O22	O	0.922952	0.718658	0.322386
O23	O	0.922954	0.718642	-0.024274
O24	O	0.674341	0.746775	0.308333
O25	O	0.922946	0.912446	-0.024277
O26	O	0.783964	0.928181	0.314528
O27	O	0.674334	0.940580	0.308331
O28	O	0.922945	0.912453	0.128590
O29	O	0.674323	1.287236	-0.232126
O30	O	0.783978	0.581500	0.314532
O31	O	0.922958	0.565781	0.322387
O32	O	0.922959	0.565773	0.128595
O33	O	0.535341	1.302963	-0.046189
O34	O	0.674322	1.287245	-0.038333
O35	O	0.770062	0.815659	0.214641
O36	O	0.851878	0.806401	0.105182
O37	O	0.770054	1.043829	-0.013528
O38	O	0.688237	1.053087	0.095931
C39	C	0.729162	0.629386	0.041207
C40	C	0.729166	0.525878	0.041208
C41	C	0.773769	0.460252	-0.018485
C42	C	0.806098	0.318492	0.090610
C43	C	0.696842	0.483203	-0.067875
C44	C	0.761540	0.385413	0.150369
C45	C	0.652242	0.550202	-0.008196
C46	C	0.684552	0.408454	0.100962
C47	C	0.510443	0.959103	0.028841
C48	C	0.436215	0.967498	0.024645
C49	C	0.444053	0.847510	0.084634
C50	C	0.374305	0.855406	0.080689
C51	C	0.296722	0.983292	0.016749
C52	C	0.288886	1.103288	-0.043242
C53	C	0.358633	1.095391	-0.039290
C54	C	0.083996	1.013337	0.001722
C55	C	0.014248	1.021225	-0.002228
C56	C	0.099672	0.773342	0.121705
C57	C	0.169416	0.765456	0.125646
C58	C	0.161574	0.885453	0.065660
C59	C	0.225428	0.991366	0.012712
C60	C	0.232867	0.877377	0.069704
C61	C	0.947858	0.909632	0.053565
C62	C	1.022085	0.901238	0.057760
C63	C	0.729152	0.934354	-0.263761
C64	C	0.729152	0.934349	-0.367262
C65	C	0.729138	1.239350	0.041199
C66	C	0.729134	1.342858	0.041198
C67	C	0.773771	0.804893	-0.363125
C68	C	0.696837	0.875787	-0.460496
C69	C	0.806067	0.863462	-0.454321
C70	C	0.652174	1.005249	-0.463273
C71	C	0.761459	0.992900	-0.457081
C72	C	0.684479	1.063891	-0.554472
C73	C	0.729149	0.934382	0.346166
C74	C	0.729148	0.934386	0.449668
C75	C	0.947870	0.604651	0.053569
C76	C	1.022101	0.492748	0.057765
C77	C	0.729161	0.629400	0.346170
C78	C	0.729164	0.525897	0.449673
C79	C	0.947868	0.604665	0.358532
C80	C	1.022099	0.492766	0.466231
C81	C	0.510432	1.264071	-0.276126
C82	C	0.436201	1.375969	-0.383825
C83	C	0.510431	1.264085	0.028837
C84	C	0.436199	1.375988	0.024640
C85	C	0.729140	1.239336	-0.263764
C86	C	0.729136	1.342839	-0.367268
C87	C	1.014254	0.445024	-0.002238
C88	C	1.083996	0.339894	0.001682
C89	C	1.161584	0.282482	0.065613
C90	C	1.169429	0.330215	0.125618
C91	C	1.099688	0.435350	0.121691
C92	C	1.099673	0.435384	0.459671
C93	C	1.169428	0.330257	0.560857
C94	C	1.161606	0.282507	0.668600
C95	C	1.084024	0.339899	0.675157
C96	C	1.014271	0.445032	0.573973
C97	C	0.358627	1.433363	-0.377266
C98	C	0.288873	1.538521	-0.478451
C99	C	0.296694	1.586276	-0.586195
C100	C	0.374277	1.528877	-0.592751
C101	C	0.444029	1.423728	-0.491567
C102	C	0.444046	1.423722	0.084634
C103	C	0.374304	1.528879	0.080686
C104	C	0.296717	1.586294	0.016752
C105	C	0.288871	1.538556	-0.043248
C106	C	0.358612	1.433408	-0.039307
C107	C	0.684556	0.470354	0.445538
C108	C	0.761494	0.323550	0.542906
C109	C	0.652259	0.488243	0.536738
C110	C	0.806148	0.380388	0.545681
C111	C	0.696857	0.545161	0.539495
C112	C	0.773842	0.398361	0.636883
H113	H	0.669519	0.523488	-0.160120
H114	H	1.077592	0.301043	-0.047182
C115	C	1.254775	0.267036	0.195959
H116	H	1.249469	0.310510	0.231138
H117	H	1.283745	0.171943	0.253935
H118	H	1.283762	0.279695	0.146196
C119	C	0.108296	0.641355	0.187695
H120	H	0.164491	0.564062	0.226336
H121	H	0.082861	0.639286	0.242606
H122	H	0.082868	0.639277	0.134848
C123	C	0.349975	1.380893	-0.105288
H124	H	0.402618	1.310050	-0.093797
H125	H	0.320991	1.346247	-0.077510
H126	H	0.320993	1.453993	-0.185279
C127	C	0.633587	0.377710	0.169237
H128	H	0.589558	0.400515	0.119860
H129	H	0.667023	0.283142	0.231747
H130	H	0.612727	0.430527	0.198212
H131	H	0.225690	1.585320	-0.095303
C132	C	0.529358	1.360554	-0.498791
H133	H	0.569787	1.291083	-0.423104
H134	H	0.535440	1.321944	-0.538862
H135	H	0.535493	1.429661	-0.538854
H136	H	0.811439	0.695435	-0.281235
H137	H	0.871117	0.803505	-0.451543
C138	C	1.238294	0.166826	0.069938
H139	H	1.285630	0.139466	0.116601
H140	H	1.238289	0.090958	0.101815
H141	H	1.238290	0.198716	-0.005943
C142	C	0.893960	0.184770	0.147075
H143	H	0.898458	0.112102	0.212788
H144	H	0.906853	0.164365	0.093225
H145	H	0.930776	0.195347	0.170066
C146	C	0.798556	0.330712	0.275048
H147	H	0.798366	0.397232	0.274289
H148	H	0.767103	0.312384	0.317554
H149	H	0.853044	0.248780	0.310213
C150	C	1.075426	0.287369	0.793676
H151	H	1.019236	0.336601	0.783102
H152	H	1.100871	0.192672	0.835523
H153	H	1.100859	0.300447	0.835515
C154	C	0.824806	0.491086	-0.086519
H155	H	0.879452	0.409490	-0.051229
H156	H	0.802408	0.525089	-0.163678
H157	H	0.824059	0.557692	-0.086589
H158	H	0.951085	0.491768	-0.054311
C159	C	0.318202	0.736709	0.140040
H160	H	0.312886	0.666371	0.175211
H161	H	0.347189	0.728481	0.090281
H162	H	0.347178	0.728486	0.198041
H163	H	0.507215	1.376982	0.136703
C164	C	1.238336	0.166866	0.779896
H165	H	1.222573	0.146646	0.845010
H166	H	1.269893	0.087421	0.781680
H167	H	1.269876	0.195204	0.781666
C168	C	0.529391	0.706839	0.154967
H169	H	0.569809	0.719316	0.148722
H170	H	0.535507	0.657210	0.233657
H171	H	0.535509	0.657210	0.125894
C172	C	0.564401	0.683959	-0.064680
H173	H	0.541516	0.719461	-0.142220
H174	H	0.532477	0.666026	-0.023072
H175	H	0.565020	0.748932	-0.063621
H176	H	0.951109	0.491740	0.579330
C177	C	0.564258	1.086167	-0.467142
H178	H	0.527565	1.119988	-0.534996
H179	H	0.559861	1.027714	-0.401192
H180	H	0.551107	1.160740	-0.467645
H181	H	0.788833	0.228834	0.545379
H182	H	1.106088	0.474193	0.170560
H183	H	0.646888	0.501696	0.363651
C184	C	0.220007	1.701950	0.012427
H185	H	0.172670	1.729321	-0.034246
H186	H	0.220013	1.670068	0.088303
H187	H	0.220009	1.777828	-0.019462
C188	C	1.108289	0.487899	0.341164
H189	H	1.055641	0.558725	0.281831
H190	H	1.137262	0.522568	0.334273
H191	H	1.137274	0.414795	0.334274
C192	C	0.894060	0.319939	0.549538
H193	H	0.893514	0.386505	0.483270
H194	H	0.925825	0.294455	0.617076
H195	H	0.917070	0.241573	0.550622
H196	H	0.352246	1.193098	-0.088125
C197	C	0.824881	0.356066	0.747345
H198	H	0.879494	0.317053	0.751097
H199	H	0.802398	0.434368	0.746173
H200	H	0.824252	0.290653	0.812922
H201	H	1.232592	0.283538	0.555497
C202	C	0.564390	0.548426	0.533005
H203	H	0.559878	0.548512	0.598635
H204	H	0.527575	0.639561	0.464837
H205	H	0.551514	0.494311	0.533255
H206	H	0.669498	0.639913	0.536961
C207	C	0.659919	0.808934	-0.463853
H208	H	0.691684	0.716943	-0.396688
H209	H	0.605585	0.858411	-0.466474
H210	H	0.659730	0.810177	-0.530461
H211	H	0.380694	0.757700	0.129540
H212	H	0.232584	0.661319	0.177691
H213	H	0.380708	1.567729	0.129551
C214	C	-0.071095	1.161905	-0.072553
H215	H	-0.065777	1.232240	-0.107702
H216	H	-0.100081	1.170146	-0.130551
H217	H	-0.100073	1.170120	-0.022775
H218	H	0.352243	1.394488	-0.289545
H219	H	0.162252	1.095490	-0.039348
H220	H	0.225711	1.207415	-0.095297
C221	C	0.633437	1.211887	-0.664935
H222	H	0.578823	1.262046	-0.668690
H223	H	0.655915	1.253854	-0.663760
H224	H	0.634071	1.211061	-0.730511
H225	H	0.077600	1.111047	-0.047143
C226	C	0.798401	1.059690	-0.453659
H227	H	0.758917	1.137674	-0.456341
H228	H	0.844740	0.995705	-0.384427
H229	H	0.814331	1.086912	-0.518113
C230	C	0.203543	1.601630	-0.471218
H231	H	0.208881	1.558106	-0.392556
H232	H	0.174551	1.696723	-0.508299
H233	H	0.174559	1.588965	-0.508320
H234	H	0.239890	1.671896	-0.668576
H235	H	0.380635	1.567773	-0.680488
