data_functionalizedCrystal
_audit_creation_method	'MofGen! by Chris Wilmer'
_symmetry_space_group_name_H-M	'P1'
_symmetry_Int_Tables_number	1
_symmetry_cell_setting	triclinic
loop_
_symmetry_equiv_pos_as_xyz
  x,y,z
_cell_length_a	17.699097
_cell_length_b	17.038272
_cell_length_c	16.776229
_cell_angle_alpha	89.993292
_cell_angle_beta	89.989262
_cell_angle_gamma	87.199993
loop_
_atom_site_label
_atom_site_type_symbol
_atom_site_fract_x
_atom_site_fract_y
_atom_site_fract_z
O1	O	1.010617	0.098911	-0.066356
O2	O	1.510617	0.598911	0.433644
O3	O	0.791090	0.111762	-0.066343
O4	O	1.291090	0.611762	0.433657
O5	O	0.899549	-0.008477	-0.066343
O6	O	1.399549	0.491523	0.433657
O7	O	0.902158	0.219150	-0.066356
O8	O	1.402158	0.719150	0.433644
O9	O	0.899533	-0.008484	0.066234
O10	O	1.399533	0.491516	0.566234
O11	O	0.791074	0.111754	0.066234
O12	O	1.291074	0.611754	0.566234
O13	O	1.010601	0.098903	0.066221
O14	O	1.510601	0.598903	0.566221
Zn15	Zn	0.900835	0.105328	0.087277
Zn16	Zn	1.400835	0.605328	0.587277
Zn17	Zn	0.900856	0.105337	-0.087399
Zn18	Zn	1.400856	0.605337	0.412601
O19	O	0.902142	0.219142	0.066221
O20	O	1.402142	0.719142	0.566221
C21	C	0.762855	0.111296	-0.000053
C22	C	1.262855	0.611296	0.499947
C23	C	0.678746	0.109909	-0.000048
C24	C	1.178746	0.609909	0.499952
C25	C	0.162474	0.101413	-0.072347
C26	C	0.662474	0.601413	0.427653
C27	C	0.241504	0.102711	-0.072343
C28	C	0.741504	0.602711	0.427657
C29	C	0.281004	0.103357	-0.000073
C30	C	0.781004	0.603357	0.499927
C31	C	0.241471	0.102697	0.072199
C32	C	0.741471	0.602697	0.572199
C33	C	0.162442	0.101394	0.072194
C34	C	0.662442	0.601394	0.572194
C35	C	0.560182	0.107952	0.072220
C36	C	1.060182	0.607952	0.572220
C37	C	0.639216	0.109258	0.072219
C38	C	1.139216	0.609258	0.572219
C39	C	0.639244	0.109269	-0.072318
C40	C	1.139244	0.609269	0.427682
C41	C	0.560215	0.107965	-0.072323
C42	C	1.060215	0.607965	0.427677
C43	C	0.520689	0.107302	-0.000052
C44	C	1.020689	0.607302	0.499948
C45	C	0.434996	0.105893	-0.000057
C46	C	0.934996	0.605893	0.499943
C47	C	0.366695	0.104771	-0.000067
C48	C	0.866695	0.604771	0.499933
C49	C	0.897168	-0.037605	-0.000055
C50	C	1.397168	0.462395	0.499945
C51	C	0.890087	-0.124387	-0.000054
C52	C	1.390087	0.375613	0.499946
C53	C	0.955097	-0.174604	-0.000057
C54	C	1.455097	0.325396	0.499943
C55	C	0.948439	-0.256144	-0.000065
C56	C	1.448439	0.243856	0.499935
C57	C	0.876771	-0.287465	-0.000063
C58	C	1.376771	0.212535	0.499937
C59	C	0.811756	-0.237242	-0.000063
C60	C	1.311756	0.262758	0.499937
C61	C	0.818414	-0.155704	-0.000061
C62	C	1.318414	0.344296	0.499939
C63	C	0.853248	-0.533186	-0.000073
C64	C	1.353248	-0.033186	0.499927
C65	C	0.846594	-0.614731	-0.000072
C66	C	1.346594	-0.114731	0.499928
C67	C	0.983279	-0.633627	-0.000075
C68	C	1.483279	-0.133627	0.499925
C69	C	0.989931	-0.552086	-0.000069
C70	C	1.489931	-0.052086	0.499931
C71	C	0.924916	-0.501870	-0.000073
C72	C	1.424916	-0.001870	0.499927
C73	C	0.869964	-0.370812	-0.000068
C74	C	1.369964	0.129188	0.499932
C75	C	0.931723	-0.418525	-0.000074
C76	C	1.431723	0.081475	0.499926
C77	C	1.038836	0.099369	-0.000071
C78	C	1.538836	0.599369	0.499929
C79	C	1.122946	0.100756	-0.000081
C80	C	1.622946	0.600756	0.499919
C81	C	0.904524	0.248270	-0.000069
C82	C	1.404524	0.748270	0.499931
C83	C	0.911605	0.335052	-0.000075
C84	C	1.411605	0.835052	0.499925
N85	N	0.900826	0.105321	0.206488
N86	N	1.400826	0.605321	0.706488
N87	N	0.900871	0.105338	-0.206610
N88	N	1.400871	0.605338	0.293390
C89	C	0.948869	0.052101	0.248205
C90	C	1.448869	0.552101	0.748205
C91	C	0.948873	0.052100	0.331657
C92	C	1.448873	0.552100	0.831657
C93	C	0.900838	0.105324	0.373391
C94	C	1.400838	0.605324	0.873391
C95	C	0.852790	0.158546	0.331668
C96	C	1.352790	0.658546	0.831668
C97	C	0.852783	0.158542	0.248217
C98	C	1.352783	0.658542	0.748217
C99	C	0.852819	0.158561	0.668215
C100	C	1.352819	0.658561	1.168215
C101	C	0.852831	0.158563	0.751671
C102	C	1.352831	0.658563	1.251671
C103	C	0.948909	0.052119	0.751655
C104	C	1.448909	0.552119	1.251655
C105	C	0.948902	0.052115	0.668204
C106	C	1.448902	0.552115	1.168204
C107	C	0.900851	0.105335	0.626489
C108	C	1.400851	0.605335	1.126489
C109	C	0.900846	0.105334	0.536000
C110	C	1.400846	0.605334	1.036000
C111	C	0.900846	0.105329	0.463877
C112	C	1.400846	0.605329	0.963877
H113	H	0.130259	0.100867	0.131041
H114	H	0.630259	0.600867	0.631041
H115	H	0.273684	0.103241	-0.131189
H116	H	0.773684	0.603241	0.368811
O117	O	0.748296	-0.101538	-0.000057
O118	O	1.248296	0.398462	0.499943
H119	H	0.748057	-0.063939	0.053977
H120	H	1.248057	0.436061	0.553977
O121	O	0.800982	0.215958	0.376674
O122	O	1.300982	0.715958	0.876674
H123	H	0.809064	0.207027	0.441712
H124	H	1.309064	0.707027	0.941712
H125	H	0.988019	0.008778	0.634227
H126	H	1.488019	0.508778	1.134227
H127	H	0.528058	0.107443	-0.131173
H128	H	1.028058	0.607443	0.368827
O129	O	0.801028	0.215985	0.796680
O130	O	1.301028	0.715985	1.296680
H131	H	0.741388	0.206100	0.780697
H132	H	1.241388	0.706100	1.280697
H133	H	0.813661	0.201879	0.214252
H134	H	1.313661	0.701879	0.714252
O135	O	0.801003	0.215966	0.623225
O136	O	1.301003	0.715966	1.123225
H137	H	0.767612	0.252982	0.666268
H138	H	1.267612	0.752982	1.166268
H139	H	0.788230	-0.640229	-0.000058
H140	H	1.288230	-0.140229	0.499942
O141	O	0.119871	0.100700	-0.150297
O142	O	0.619871	0.600700	0.349703
H143	H	0.160639	0.101361	-0.200546
H144	H	0.660639	0.601361	0.299454
H145	H	0.671435	0.109806	-0.131164
H146	H	1.171435	0.609806	0.368836
H147	H	0.671375	0.109784	0.131074
H148	H	1.171375	0.609784	0.631074
H149	H	0.988032	0.008782	0.785629
H150	H	1.488032	0.508782	1.285629
H151	H	0.528011	0.107400	0.131067
H152	H	1.028011	0.607400	0.631067
H153	H	0.990076	-0.393019	-0.000092
H154	H	1.490076	0.106981	0.499908
O155	O	0.734456	-0.271025	-0.000063
O156	O	1.234456	0.228975	0.499937
H157	H	0.690369	-0.222405	-0.000068
H158	H	1.190369	0.277595	0.499932
H159	H	0.811611	-0.396323	-0.000065
H160	H	1.311611	0.103677	0.499935
H161	H	0.987988	0.008763	0.214231
H162	H	1.487988	0.508763	0.714231
O163	O	1.067236	-0.518316	-0.000078
O164	O	1.567236	-0.018316	0.499922
H165	H	1.073539	-0.481633	0.053962
H166	H	1.573539	0.018367	0.553962
O167	O	0.284068	0.103399	0.150152
O168	O	0.784068	0.603399	0.650152
H169	H	0.345662	0.104426	0.138016
H170	H	0.845662	0.604426	0.638016
O171	O	1.000704	-0.005287	0.376655
O172	O	1.500704	0.494713	0.876655
H173	H	1.034117	-0.042285	0.333615
H174	H	1.534117	0.457715	0.833615
H175	H	1.001378	-0.297028	-0.000065
H176	H	1.501378	0.202972	0.499935
O177	O	1.032397	-0.140822	-0.000067
O178	O	1.532397	0.359178	0.499933
H179	H	1.076483	-0.189443	-0.000080
H180	H	1.576483	0.310557	0.499920
O181	O	1.053400	-0.687786	-0.000076
O182	O	1.553400	-0.187786	0.499924
H183	H	1.036734	-0.749748	-0.000083
H184	H	1.536734	-0.249748	0.499917
H185	H	0.800308	-0.492309	-0.000075
H186	H	1.300308	0.007691	0.499925
