data_functionalizedCrystal
_audit_creation_method	'MofGen! by Chris Wilmer'
_symmetry_space_group_name_H-M	'P1'
_symmetry_Int_Tables_number	1
_symmetry_cell_setting	triclinic
loop_
_symmetry_equiv_pos_as_xyz
  x,y,z
_cell_length_a	19.851628
_cell_length_b	21.606444
_cell_length_c	21.606444
_cell_angle_alpha	59.991153
_cell_angle_beta	90.001855
_cell_angle_gamma	60.007031
loop_
_atom_site_label
_atom_site_type_symbol
_atom_site_fract_x
_atom_site_fract_y
_atom_site_fract_z
Zr1	Zr	0.648900	0.677583	-0.081369
O2	O	0.541342	0.806706	-0.180212
O3	O	0.681872	0.548455	-0.051054
O4	O	0.681866	0.677591	-0.180198
O5	O	0.541354	0.677566	0.050786
O6	O	0.792715	0.677603	-0.180203
O7	O	0.541348	0.677570	-0.051068
O8	O	0.792726	0.446603	0.050812
O9	O	0.541342	0.908566	-0.180229
O10	O	0.778661	0.601578	-0.038147
O11	O	0.695940	0.601566	0.037870
O12	O	0.695932	0.753607	-0.114181
O13	O	0.613211	0.753595	-0.038164
Zr14	Zr	0.825700	0.677595	0.081067
Zr15	Zr	0.825691	0.677602	-0.081378
Zr16	Zr	0.648909	0.677576	0.081076
Zr17	Zr	0.648901	0.840039	-0.081396
Zr18	Zr	0.825699	0.515140	0.081094
O19	O	0.792728	0.806723	0.050752
O20	O	0.792716	0.806733	-0.180225
O21	O	0.541354	0.806696	0.050764
O22	O	0.933259	0.548473	0.179910
O23	O	0.933247	0.548482	-0.051067
O24	O	0.681885	0.548445	0.179923
O25	O	0.933247	0.677613	-0.051088
O26	O	0.792735	0.677588	0.179896
O27	O	0.681886	0.677576	0.179901
O28	O	0.933253	0.677608	0.050766
O29	O	0.681868	0.908581	-0.180236
O30	O	0.792733	0.446597	0.179934
O31	O	0.933259	0.446612	0.179927
O32	O	0.933252	0.446618	0.050805
O33	O	0.541349	0.908561	-0.051107
O34	O	0.681875	0.908576	-0.051114
O35	O	0.778669	0.601572	0.113878
O36	O	0.861390	0.601584	0.037862
O37	O	0.778661	0.753613	-0.038172
O38	O	0.695940	0.753600	0.037845
C39	C	0.737299	0.474383	-0.000117
C40	C	0.737299	0.405416	-0.000106
C41	C	0.676226	0.429147	-0.056231
C42	C	0.676228	0.364358	-0.056246
C43	C	0.737300	0.275838	-0.000133
C44	C	0.798379	0.252108	0.055995
C45	C	0.798380	0.316897	0.056007
C46	C	0.798379	-0.009179	0.055947
C47	C	0.798372	-0.073968	0.055932
C48	C	0.676227	0.038282	-0.056306
C49	C	0.676228	0.103071	-0.056294
C50	C	0.737309	0.079335	-0.000169
C51	C	0.737307	0.149588	-0.000153
C52	C	0.737300	0.205586	-0.000145
C53	C	0.516162	0.677565	-0.000140
C54	C	0.441109	0.677557	-0.000136
C55	C	0.304850	0.594685	0.041311
C56	C	0.237404	0.636118	0.071346
C57	C	0.303678	0.677580	-0.000146
C58	C	0.237390	0.636141	-0.030155
C59	C	0.170929	0.677596	-0.000154
C60	C	0.237220	0.719014	0.029931
C61	C	0.237216	0.719026	-0.071610
C62	C	0.169757	0.760519	-0.041593
C63	C	0.380153	0.677569	-0.000139
C64	C	0.094452	0.677614	-0.000160
C65	C	0.958439	0.677613	-0.000162
C66	C	1.033491	0.677621	-0.000166
C67	C	0.737289	0.677598	-0.203346
C68	C	0.737285	0.677601	-0.272308
C69	C	0.737302	0.880796	-0.000185
C70	C	0.737302	0.949763	-0.000197
C71	C	0.694102	0.756958	-0.344396
C72	C	0.694109	0.756955	-0.409190
C73	C	0.737295	0.677595	-0.401896
C74	C	0.780485	0.598232	-0.329801
C75	C	0.780482	0.598236	-0.265008
C76	C	0.780498	0.598217	-0.591104
C77	C	0.780495	0.598220	-0.655905
C78	C	0.694125	0.756937	-0.735287
C79	C	0.694122	0.756940	-0.670493
C80	C	0.737314	0.677578	-0.598404
C81	C	0.737307	0.677581	-0.528147
C82	C	0.737298	0.677591	-0.472152
C83	C	0.737312	0.677581	0.203044
C84	C	0.737316	0.677578	0.272006
C85	C	0.958438	0.474407	-0.000128
C86	C	1.033490	0.405448	-0.000121
C87	C	0.737310	0.474374	0.203078
C88	C	0.737314	0.405404	0.272051
C89	C	0.958449	0.474398	0.203066
C90	C	1.033505	0.405436	0.272036
C91	C	0.516152	0.880781	-0.203368
C92	C	0.441096	0.949742	-0.272338
C93	C	0.516163	0.880772	-0.000174
C94	C	0.441111	0.949731	-0.000181
C95	C	0.737290	0.880805	-0.203380
C96	C	0.737287	0.949774	-0.272354
C97	C	1.025551	0.373062	-0.039799
C98	C	1.096064	0.308277	-0.039807
C99	C	1.174514	0.275875	-0.000132
C100	C	1.182451	0.308268	0.039548
C101	C	1.111939	0.373056	0.039551
C102	C	0.780499	0.373019	0.344125
C103	C	0.780499	0.308224	0.408939
C104	C	0.737318	0.275811	0.401679
C105	C	0.694128	0.308203	0.329598
C106	C	0.694123	0.373002	0.264785
C107	C	1.111939	0.373058	0.264745
C108	C	1.182468	0.308270	0.329544
C109	C	1.174562	0.275858	0.401633
C110	C	1.096120	0.308243	0.408922
C111	C	1.025592	0.373034	0.344124
C112	C	0.362662	0.982129	-0.265048
C113	C	0.292133	1.046936	-0.329846
C114	C	0.300039	1.079352	-0.401935
C115	C	0.378481	1.046963	-0.409224
C116	C	0.449009	0.982161	-0.344426
C117	C	0.449050	0.982124	0.039491
C118	C	0.378537	1.046927	0.039481
C119	C	0.300087	1.079330	-0.000197
C120	C	0.292150	1.046934	-0.039874
C121	C	0.362661	0.982137	-0.039868
C122	C	0.780477	0.982166	-0.265069
C123	C	0.780490	1.046962	-0.329871
C124	C	0.737308	1.079369	-0.401957
C125	C	0.694117	1.046970	-0.409240
C126	C	0.694109	0.982171	-0.344439
H127	H	0.626494	0.175146	-0.101984
N128	N	0.827079	0.407968	0.351967
H129	H	0.854430	0.377614	0.407464
H130	H	0.787427	0.473015	0.326798
N131	N	0.647508	0.947254	-0.352305
H132	H	0.654047	0.901287	-0.300320
H133	H	0.670176	0.920424	-0.380958
H134	H	0.658959	1.073366	-0.467941
H135	H	1.118392	0.399438	0.206053
N136	N	0.827058	0.512644	-0.187253
H137	H	0.870513	0.509117	-0.158607
H138	H	0.854364	0.462420	-0.192527
H139	H	0.228266	1.073327	-0.072179
N140	N	0.737310	1.149269	-0.471845
H141	H	0.703400	1.164891	-0.518621
H142	H	0.795820	1.126669	-0.471798
N143	N	0.224044	1.149209	-0.000186
H144	H	0.190105	1.126653	0.022407
H145	H	0.190155	1.202965	-0.053943
N146	N	0.647528	0.842564	-0.486930
H147	H	0.604067	0.846115	-0.515596
H148	H	0.687187	0.846066	-0.515522
H149	H	1.246335	0.281878	0.071851
N150	N	0.647545	0.842538	-0.678366
H151	H	0.687153	0.846076	-0.653252
H152	H	0.604088	0.846025	-0.653263
N153	N	0.610346	0.063886	-0.116846
H154	H	0.619611	0.009414	-0.108344
H155	H	0.613040	0.099737	-0.168337
N156	N	0.610358	0.524619	-0.116759
H157	H	0.619622	0.562064	-0.108237
H158	H	0.554321	0.537790	-0.114285
N159	N	1.267067	0.273347	0.321672
H160	H	1.261366	0.303708	0.266171
H161	H	1.298212	0.208299	0.346839
N162	N	0.864243	-0.034773	0.116486
H163	H	0.896334	-0.010384	0.092011
H164	H	0.902873	-0.100683	0.152017
N165	N	0.236519	0.589718	-0.063773
H166	H	0.236875	0.620390	-0.117447
H167	H	0.185188	0.590564	-0.063931
N168	N	0.737336	0.205911	0.471586
H169	H	0.678856	0.228448	0.471626
H170	H	0.771289	0.190339	0.518306
N171	N	0.827067	0.947220	-0.187328
H172	H	0.870520	0.882175	-0.158670
H173	H	0.787417	0.958552	-0.158729
H174	H	0.356209	0.955740	-0.206355
N175	N	0.827070	0.512616	-0.513363
H176	H	0.787462	0.509076	-0.484713
H177	H	0.870531	0.509119	-0.484764
N178	N	0.610364	0.389952	-0.116787
H179	H	0.571674	0.455859	-0.152331
H180	H	0.578337	0.365500	-0.092257
H181	H	0.228269	1.073297	-0.323896
H182	H	0.658959	0.399362	0.206102
N183	N	1.120508	0.407981	0.082353
H184	H	1.180907	0.377618	0.107486
H185	H	1.093141	0.396690	0.122253
H186	H	0.237821	0.754022	0.055377
H187	H	0.848108	-0.146048	0.101629
N188	N	0.827072	0.512635	-0.321929
H189	H	0.820521	0.524673	-0.373913
H190	H	0.804401	0.477973	-0.293267
N191	N	0.864258	0.156636	0.116513
H192	H	0.854991	0.119192	0.107991
H193	H	0.861566	0.143436	0.168009
H194	H	0.112015	0.830669	-0.076647
N195	N	0.864254	0.291305	0.116538
H196	H	0.902944	0.225398	0.152085
H197	H	0.837553	0.315727	0.145975
H198	H	0.362685	0.524592	0.076415
N199	N	0.387102	1.081867	0.082272
H200	H	0.418249	1.032430	0.137787
H201	H	0.330502	1.127849	0.076181
N202	N	0.236511	0.589717	0.151394
H203	H	0.286897	0.527097	0.182675
H204	H	0.185144	0.590630	0.150690
N205	N	0.940997	0.407950	0.351994
H206	H	0.946698	0.377579	0.407495
H207	H	0.909859	0.396660	0.326849
N208	N	0.238142	0.765403	-0.151643
H209	H	0.238902	0.734028	-0.174271
H210	H	0.288937	0.765541	-0.151018
H211	H	0.961679	0.399442	-0.072117
H212	H	1.089585	0.281910	-0.072119
N213	N	0.647517	0.842554	-0.352266
H214	H	0.620164	0.892825	-0.407767
H215	H	0.687166	0.846017	-0.327112
N216	N	0.533659	0.947183	0.082289
H217	H	0.527976	0.977548	0.107412
H218	H	0.564794	0.958464	0.045850
H219	H	0.658971	0.281803	0.323698
N220	N	0.223965	1.149245	-0.471821
H221	H	0.173081	1.164836	-0.456256
H222	H	0.223997	1.126648	-0.502977
N223	N	1.250630	0.205971	0.471523
H224	H	1.284571	0.228530	0.471543
H225	H	1.284503	0.152233	0.471511
H226	H	0.658957	0.821557	-0.793991
H227	H	0.815665	0.533592	-0.649957
N228	N	1.250561	0.205988	-0.000131
H229	H	1.301468	0.190370	0.031024
H230	H	1.250506	0.228599	-0.053898
N231	N	0.827088	0.273292	0.486677
H232	H	0.854448	0.303654	0.481435
H233	H	0.870501	0.208245	0.515302
N234	N	1.087599	0.273280	0.486677
H235	H	1.144184	0.227320	0.526613
H236	H	1.056425	0.246429	0.492690
H237	H	0.512871	0.955792	-0.350372
N238	N	0.387005	1.081923	-0.486978
H239	H	0.359668	1.146970	-0.515637
H240	H	0.359670	1.070586	-0.515558
N241	N	0.354093	0.947201	-0.082659
H242	H	0.293694	0.977565	-0.107792
H243	H	0.381463	0.882155	-0.046218
H244	H	0.815659	1.073334	-0.323926
