data_functionalizedCrystal
_audit_creation_method	'MofGen! by Chris Wilmer'
_symmetry_space_group_name_H-M	'P1'
_symmetry_Int_Tables_number	1
_symmetry_cell_setting	triclinic
loop_
_symmetry_equiv_pos_as_xyz
  x,y,z
_cell_length_a	14.908742
_cell_length_b	14.908178
_cell_length_c	12.759393
_cell_angle_alpha	86.668720
_cell_angle_beta	93.280027
_cell_angle_gamma	90.210560
loop_
_atom_site_label
_atom_site_type_symbol
_atom_site_fract_x
_atom_site_fract_y
_atom_site_fract_z
Zn1	Zn	1.353965	-0.437239	-0.473451
Zn2	Zn	1.853965	0.062761	0.026549
Zn3	Zn	1.345185	-0.587630	-0.288241
Zn4	Zn	1.845185	-0.087630	0.211759
Zn5	Zn	1.203597	-0.428610	-0.308489
Zn6	Zn	1.703597	0.071390	0.191511
Zn7	Zn	1.194910	-0.578895	-0.474582
Zn8	Zn	1.694910	-0.078895	0.025418
O9	O	1.274414	-0.508094	-0.386191
O10	O	1.774414	-0.008094	0.113809
O11	O	1.478620	-0.464456	-0.439935
O12	O	1.978620	0.035544	0.060065
O13	O	1.326364	-0.566580	-0.143905
O14	O	1.826364	-0.066580	0.356095
O15	O	1.230854	-0.303921	-0.338372
O16	O	1.730854	0.196079	0.161628
O17	O	1.472169	-0.574947	-0.303862
O18	O	1.972169	-0.074947	0.196138
O19	O	1.341328	-0.310261	-0.459569
O20	O	1.841328	0.189739	0.040431
O21	O	1.222340	-0.449749	-0.158782
O22	O	1.722340	0.050251	0.341218
O23	O	1.076625	-0.441279	-0.339469
O24	O	1.576625	0.058721	0.160531
O25	O	1.216047	-0.560060	-0.621453
O26	O	1.716047	-0.060060	-0.121453
O27	O	1.070242	-0.551693	-0.461496
O28	O	1.570242	-0.051693	0.038504
O29	O	1.332904	-0.455986	-0.620623
O30	O	1.832904	0.044014	-0.120623
O31	O	1.317940	-0.712305	-0.304959
O32	O	1.817940	-0.212305	0.195041
O33	O	1.207534	-0.705887	-0.441863
O34	O	1.707534	-0.205887	0.058137
C35	C	1.040810	-0.494603	-0.402803
C36	C	1.540810	0.005397	0.097197
C37	C	0.940872	-0.488853	-0.409933
C38	C	1.440872	0.011147	0.090067
C39	C	0.803363	-0.423323	-0.490919
C40	C	1.303363	0.076677	0.009081
C41	C	0.897264	-0.428718	-0.484226
C42	C	1.397264	0.071282	0.015774
C43	C	0.890572	-0.543598	-0.342332
C44	C	1.390572	-0.043598	0.157668
C45	C	0.796671	-0.538203	-0.349026
C46	C	1.296671	-0.038203	0.150974
C47	C	0.753070	-0.478063	-0.423321
C48	C	1.253070	0.021937	0.076679
C49	C	0.659167	-0.472664	-0.430009
C50	C	1.159167	0.027336	0.069991
C51	C	0.652477	-0.587548	-0.288121
C52	C	1.152477	-0.087548	0.211879
C53	C	0.746378	-0.592943	-0.281427
C54	C	1.246378	-0.092943	0.218573
C55	C	1.260866	-0.741725	-0.371358
C56	C	1.760866	-0.241725	0.128642
C57	C	1.255152	-0.841678	-0.365041
C58	C	1.755152	-0.341678	0.134959
C59	C	1.359365	-1.035947	-0.479524
C60	C	1.859365	-0.535947	0.020476
C61	C	1.354000	-1.129862	-0.473593
C62	C	1.854000	-0.629862	0.026407
C63	C	1.239052	-1.123424	-0.347253
C64	C	1.739052	-0.623424	0.152747
C65	C	1.244417	-1.029509	-0.353184
C66	C	1.744417	-0.529509	0.146816
C67	C	1.304577	-0.985774	-0.419321
C68	C	1.804577	-0.485774	0.080679
C69	C	1.309946	-0.891857	-0.425246
C70	C	1.809946	-0.391857	0.074754
C71	C	1.194995	-0.885421	-0.298912
C72	C	1.694995	-0.385421	0.201088
C73	C	1.189629	-0.979336	-0.292981
C74	C	1.689629	-0.479336	0.207019
C75	C	1.508930	-0.521638	-0.369514
C76	C	2.008930	-0.021638	0.130486
C77	C	1.608867	-0.527410	-0.362408
C78	C	2.108867	-0.027410	0.137592
C79	C	1.274486	-0.508011	-0.660225
C80	C	1.774486	-0.008011	-0.160225
C81	C	1.274517	-0.507976	-0.777002
C82	C	1.774517	-0.007976	-0.277002
C83	C	1.288040	-0.273552	-0.401103
C84	C	1.788040	0.226448	0.098897
C85	C	1.293846	-0.173604	-0.407458
C86	C	1.793846	0.326396	0.092542
C87	C	1.335369	-0.453776	-0.831433
C88	C	1.835369	0.046224	-0.331433
C89	C	1.335387	-0.453738	-0.941159
C90	C	1.835387	0.046262	-0.441159
C91	C	1.213697	-0.562108	-0.942012
C92	C	1.713697	-0.062108	-0.442012
C93	C	1.213676	-0.562141	-0.832289
C94	C	1.713676	-0.062141	-0.332289
C95	C	1.274398	-0.508114	-0.113223
C96	C	1.774398	-0.008114	0.386777
C97	C	1.274556	-0.507906	0.003550
C98	C	1.774556	-0.007906	0.503550
H99	H	0.767862	-0.374346	-0.551404
H100	H	1.267862	0.125654	-0.051404
H101	H	0.781891	-0.641909	-0.220941
H102	H	1.281891	-0.141909	0.279059
H103	H	0.611518	-0.632123	-0.233079
H104	H	1.111518	-0.132123	0.266921
H105	H	1.164116	-0.606276	-0.787970
H106	H	1.664116	-0.106276	-0.287970
H107	H	1.150385	-0.844560	-0.249887
H108	H	1.650385	-0.344560	0.250113
H109	H	1.408356	-1.000337	-0.533368
H110	H	1.908356	-0.500337	-0.033368
C111	C	1.423014	-0.907656	-0.549548
C112	C	1.923014	-0.407656	-0.049548
C113	C	1.376065	-0.843780	-0.497951
C114	C	1.876065	-0.343780	0.002049
H115	H	1.463826	-0.877975	-0.594441
H116	H	1.963826	-0.377975	-0.094441
H117	H	1.455341	-0.946267	-0.499051
H118	H	1.955341	-0.446267	0.000949
H119	H	1.381712	-0.942037	-0.590158
H120	H	1.881712	-0.442037	-0.090158
H121	H	1.417366	-0.809404	-0.457334
H122	H	1.917366	-0.309404	0.042666
H123	H	1.343736	-0.805154	-0.548455
H124	H	1.843736	-0.305154	-0.048455
H125	H	0.623668	-0.423691	-0.490500
H126	H	1.123668	0.076309	0.009500
H127	H	1.384937	-0.409601	-0.985472
H128	H	1.884937	0.090399	-0.485472
H129	H	1.384908	-0.409669	-0.786422
H130	H	1.884908	0.090331	-0.286422
C131	C	1.194200	-0.682309	-1.058594
C132	C	1.694200	-0.182309	-0.558594
C133	C	1.146829	-0.621652	-1.002785
C134	C	1.646829	-0.121652	-0.502785
H135	H	1.152917	-0.719073	-1.096106
H136	H	1.652917	-0.219073	-0.596106
H137	H	1.230436	-0.650024	-1.106713
H138	H	1.730436	-0.150024	-0.606713
H139	H	1.231363	-0.718976	-1.010808
H140	H	1.731363	-0.218976	-0.510808
H141	H	1.109671	-0.584979	-1.050572
H142	H	1.609671	-0.084979	-0.550572
H143	H	1.110577	-0.653939	-0.954662
H144	H	1.610577	-0.153939	-0.454662
C145	C	0.894442	-0.314620	-0.625148
C146	C	1.394442	0.185380	-0.125148
C147	C	0.952547	-0.368544	-0.558529
C148	C	1.452547	0.131456	-0.058529
H149	H	0.928574	-0.277468	-0.671018
H150	H	1.428574	0.222532	-0.171018
H151	H	0.855569	-0.351737	-0.665378
H152	H	1.355569	0.148263	-0.165378
H153	H	0.859788	-0.278074	-0.584227
H154	H	1.359788	0.221926	-0.084227
H155	H	0.987197	-0.405095	-0.599450
H156	H	1.487197	0.094905	-0.099450
H157	H	0.991436	-0.331423	-0.518295
H158	H	1.491436	0.168577	-0.018295
H159	H	1.398610	-1.170709	-0.522622
H160	H	1.898610	-0.670709	-0.022622
C161	C	0.989187	-0.670600	-0.312322
C162	C	1.489187	-0.170600	0.187678
C163	C	0.938516	-0.609702	-0.260680
C164	C	1.438516	-0.109702	0.239320
H165	H	1.018791	-0.711406	-0.261912
H166	H	1.518791	-0.211406	0.238088
H167	H	0.950576	-0.702938	-0.358437
H168	H	1.450576	-0.202938	0.141563
H169	H	1.032569	-0.638756	-0.351628
H170	H	1.532569	-0.138756	0.148372
H171	H	0.895130	-0.641546	-0.221380
H172	H	1.395130	-0.141546	0.278620
H173	H	0.977130	-0.577360	-0.214546
H174	H	1.477130	-0.077360	0.285454
C175	C	1.179800	-1.264537	-0.282064
C176	C	1.679800	-0.764537	0.217936
C177	C	1.172934	-1.171510	-0.274554
C178	C	1.672934	-0.671510	0.225446
H179	H	1.138987	-1.294221	-0.237175
H180	H	1.638987	-0.794221	0.262825
H181	H	1.165721	-1.279122	-0.352602
H182	H	1.665721	-0.779122	0.147398
H183	H	1.239348	-1.283357	-0.261492
H184	H	1.739348	-0.783357	0.238508
H185	H	1.113387	-1.152688	-0.295133
H186	H	1.613387	-0.652688	0.204867
H187	H	1.187007	-1.156917	-0.204001
H188	H	1.687007	-0.656917	0.295999
H189	H	1.140647	-1.014959	-0.239137
H190	H	1.640647	-0.514959	0.260863
