data_functionalizedCrystal
_audit_creation_method	'MofGen! by Chris Wilmer'
_symmetry_space_group_name_H-M	'P1'
_symmetry_Int_Tables_number	1
_symmetry_cell_setting	triclinic
loop_
_symmetry_equiv_pos_as_xyz
  x,y,z
_cell_length_a	10.685980
_cell_length_b	13.897448
_cell_length_c	10.686551
_cell_angle_alpha	85.592616
_cell_angle_beta	81.591741
_cell_angle_gamma	94.384308
loop_
_atom_site_label
_atom_site_type_symbol
_atom_site_fract_x
_atom_site_fract_y
_atom_site_fract_z
Zn1	Zn	1.995774	-0.216203	-0.866694
Zn2	Zn	2.495774	0.283797	-0.366694
Zn3	Zn	1.979340	-0.390948	-0.654423
Zn4	Zn	2.479340	0.109052	-0.154423
Zn5	Zn	1.767199	-0.243050	-0.638157
Zn6	Zn	2.267199	0.256950	-0.138157
Zn7	Zn	1.783463	-0.390854	-0.850333
Zn8	Zn	2.283463	0.109146	-0.350333
O9	O	1.881444	-0.310264	-0.752402
O10	O	2.381444	0.189736	-0.252402
O11	O	2.171228	-0.228187	-0.852190
O12	O	2.671228	0.271813	-0.352190
O13	O	1.937514	-0.382604	-0.474633
O14	O	2.437514	0.117396	0.025367
O15	O	1.797591	-0.104500	-0.668513
O16	O	2.297591	0.395500	-0.168513
O17	O	2.159154	-0.356571	-0.696235
O18	O	2.659154	0.143429	-0.196235
O19	O	1.965524	-0.084776	-0.836418
O20	O	2.465524	0.415224	-0.336418
O21	O	1.781655	-0.273944	-0.462683
O22	O	2.281655	0.226056	0.037317
O23	O	1.591722	-0.273853	-0.652649
O24	O	2.091722	0.226147	-0.152649
O25	O	1.825311	-0.356412	-1.030136
O26	O	2.325311	0.143588	-0.530136
O27	O	1.603672	-0.382444	-0.808533
O28	O	2.103672	0.117556	-0.308533
O29	O	1.981295	-0.228096	-1.042156
O30	O	2.481295	0.271904	-0.542156
O31	O	1.953285	-0.525924	-0.680371
O32	O	2.453285	-0.025924	-0.180371
O33	O	1.809376	-0.525855	-0.824305
O34	O	2.309376	-0.025855	-0.324305
C35	C	1.551638	-0.331052	-0.727051
C36	C	2.051638	0.168948	-0.227051
C37	C	1.410548	-0.339967	-0.716236
C38	C	1.910548	0.160033	-0.216236
C39	C	1.881348	-0.560886	-0.752358
C40	C	2.381348	-0.060886	-0.252358
C41	C	1.881427	-0.668094	-0.752391
C42	C	2.381427	-0.168094	-0.252391
C43	C	1.881566	-0.864375	-0.752481
C44	C	2.381566	-0.364375	-0.252481
C45	C	1.881486	-0.755150	-0.752434
C46	C	2.381486	-0.255150	-0.252434
C47	C	2.212537	-0.289395	-0.777852
C48	C	2.712537	0.210605	-0.277852
C49	C	2.353630	-0.280502	-0.788698
C50	C	2.853630	0.219498	-0.288698
C51	C	1.906950	-0.289249	-1.083492
C52	C	2.406950	0.210751	-0.583492
C53	C	1.917820	-0.280293	-1.224583
C54	C	2.417820	0.219707	-0.724583
C55	C	1.881576	-0.058659	-0.752476
C56	C	2.381576	0.441341	-0.252476
C57	C	1.881633	0.048560	-0.752508
C58	C	2.381633	0.548560	-0.252508
C59	C	1.856110	-0.331123	-0.422605
C60	C	2.356110	0.168877	0.077395
C61	C	1.845486	-0.339791	-0.281534
C62	C	2.345486	0.160209	0.218466
H63	H	1.351334	-0.397701	-0.645915
H64	H	1.851334	0.102299	-0.145915
C65	C	1.432792	-0.203613	-0.882428
C66	C	1.932792	0.296387	-0.382428
C67	C	1.561691	-0.209778	-0.874918
C68	C	2.061691	0.290222	-0.374918
C69	C	1.634662	-0.138972	-0.961256
C70	C	2.134662	0.361028	-0.461256
H71	H	1.409876	-0.141249	-0.862454
H72	H	1.909876	0.358751	-0.362454
H73	H	1.417785	-0.213777	-0.966076
H74	H	1.917785	0.286223	-0.466076
H75	H	1.576691	-0.199607	-0.791289
H76	H	2.076691	0.300393	-0.291289
H77	H	1.584645	-0.272126	-0.894904
H78	H	2.084645	0.227874	-0.394904
H79	H	1.619654	-0.149136	-1.044904
H80	H	2.119654	0.350864	-0.544904
H81	H	1.611735	-0.076613	-0.941274
H82	H	2.111735	0.423387	-0.441274
H83	H	1.722127	-0.143151	-0.956180
H84	H	2.222127	0.356849	-0.456180
C85	C	1.752016	-0.416903	-1.202481
C86	C	2.252016	0.083097	-0.702481
C87	C	1.818065	-0.478958	-1.131855
C88	C	2.318065	0.021042	-0.631855
C89	C	1.732002	-0.549999	-1.058994
C90	C	2.232002	-0.049999	-0.558994
H91	H	1.708051	-0.453135	-1.256974
H92	H	2.208051	0.046865	-0.756974
H93	H	1.692805	-0.386763	-1.146450
H94	H	2.192805	0.113237	-0.646450
H95	H	1.877253	-0.509097	-1.187880
H96	H	2.377253	-0.009097	-0.687880
H97	H	1.862025	-0.442755	-1.077339
H98	H	2.362025	0.057245	-0.577339
H99	H	1.672791	-0.519858	-1.002963
H100	H	2.172791	-0.019858	-0.502963
H101	H	1.688042	-0.586223	-1.113497
H102	H	2.188042	-0.086223	-0.613497
H103	H	1.776802	-0.592106	-1.011057
H104	H	2.276802	-0.092106	-0.511057
H105	H	1.988073	-0.222503	-1.283771
H106	H	2.488073	0.277497	-0.783771
