data_functionalizedCrystal
_audit_creation_method	'MofGen! by Chris Wilmer'
_symmetry_space_group_name_H-M	'P1'
_symmetry_Int_Tables_number	1
_symmetry_cell_setting	triclinic
loop_
_symmetry_equiv_pos_as_xyz
  x,y,z
_cell_length_a	6.817900
_cell_length_b	12.908942
_cell_length_c	10.943624
_cell_angle_alpha	94.354559
_cell_angle_beta	108.838799
_cell_angle_gamma	100.860556
loop_
_atom_site_label
_atom_site_type_symbol
_atom_site_fract_x
_atom_site_fract_y
_atom_site_fract_z
V1	V	-4.074594	-0.145825	-0.401833
O2	O	-4.075178	0.007036	-0.394923
O3	O	-4.012338	-0.289174	-0.398374
O4	O	-4.053189	-0.143569	-0.577411
O5	O	-4.034043	-0.139576	-0.214647
V6	V	-4.556519	-0.127542	-0.379530
O7	O	-4.339357	-0.185929	-0.450756
O8	O	-4.741954	-0.087438	-0.330608
O9	O	-4.395569	0.015806	-0.382989
O10	O	-4.673333	-0.280403	-0.386441
O11	O	-4.714467	-0.133791	-0.566717
O12	O	-4.354718	-0.129798	-0.203953
C13	C	-3.853094	-0.324119	-0.391851
C14	C	-3.883659	-0.441309	-0.390194
C15	C	-4.306336	-0.672261	-0.399937
C16	C	-4.335064	-0.782371	-0.398379
C17	C	-3.969850	-0.771642	-0.385531
C18	C	-3.941122	-0.661532	-0.387088
C19	C	-4.109372	-0.611845	-0.394289
C20	C	-4.080637	-0.501732	-0.395837
C21	C	-3.715430	-0.491006	-0.382998
C22	C	-3.744158	-0.601116	-0.381441
C23	C	-3.905203	-0.138385	-0.620229
C24	C	-3.968894	-0.137490	-0.763760
C25	C	-3.815416	-0.131458	-0.840937
C26	C	-3.979664	-0.220983	-0.946486
C27	C	-3.918156	-0.046379	-0.913959
C28	C	-4.132330	-0.227099	-0.867432
C29	C	-4.070763	-0.052415	-0.834882
C30	C	-4.235141	-0.141966	-0.940401
C31	C	-4.218154	0.050746	-0.389508
C32	C	-4.166828	0.167935	-0.391175
C33	C	-4.166044	-0.134985	-0.161128
C34	C	-4.081592	-0.135876	-0.017596
H35	H	-3.607183	-0.641587	-0.375583
H36	H	-4.222266	-0.303560	-0.846511
C37	C	-3.784801	-0.826306	-0.377617
H38	H	-3.663377	-0.774557	-0.374485
H39	H	-3.752039	-0.859419	-0.301156
H40	H	-3.824818	-0.878657	-0.452350
H41	H	-3.941814	-0.292248	-0.995084
C42	C	-3.498759	-0.424546	-0.376783
H43	H	-3.505743	-0.351852	-0.378746
H44	H	-3.392061	-0.430768	-0.298296
H45	H	-3.464824	-0.450009	-0.449489
H46	H	-4.443324	-0.631803	-0.405781
C47	C	-3.574978	-0.125619	-0.782252
H48	H	-3.542466	-0.185612	-0.820825
H49	H	-3.498509	-0.062054	-0.799034
H50	H	-3.535639	-0.125614	-0.690685
H51	H	-4.495450	-0.831558	-0.402980
H52	H	-4.217633	-0.461278	-0.401692
C53	C	-4.121755	0.043855	-0.769151
H54	H	-4.219524	0.019319	-0.726743
H55	H	-3.994515	0.086513	-0.706758
H56	H	-4.182704	0.085122	-0.833403
H57	H	-4.413204	-0.146429	-0.983624
C58	C	-3.796672	0.056809	-0.942441
H59	H	-3.648144	0.060413	-0.908217
H60	H	-3.839263	0.056971	-1.034071
H61	H	-3.827629	0.116708	-0.902574
