data_functionalizedCrystal
_audit_creation_method	'MofGen! by Chris Wilmer'
_symmetry_space_group_name_H-M	'P1'
_symmetry_Int_Tables_number	1
_symmetry_cell_setting	triclinic
loop_
_symmetry_equiv_pos_as_xyz
  x,y,z
_cell_length_a	11.792254
_cell_length_b	12.996460
_cell_length_c	11.792241
_cell_angle_alpha	90.006284
_cell_angle_beta	84.196007
_cell_angle_gamma	90.005520
loop_
_atom_site_label
_atom_site_type_symbol
_atom_site_fract_x
_atom_site_fract_y
_atom_site_fract_z
O1	O	1.506902	0.085566	0.155638
O2	O	1.756902	0.335566	0.405638
O3	O	2.006902	0.585566	0.655638
O4	O	2.256902	0.835566	0.905638
O5	O	1.176563	0.085569	0.171656
O6	O	1.426563	0.335569	0.421656
O7	O	1.676563	0.585569	0.671656
O8	O	1.926563	0.835569	0.921656
O9	O	1.349749	0.085560	-0.001523
O10	O	1.599749	0.335560	0.248477
O11	O	1.849749	0.585560	0.498477
O12	O	2.099749	0.835560	0.748477
O13	O	1.333716	0.085575	0.328818
O14	O	1.583716	0.335575	0.578818
O15	O	1.833716	0.585575	0.828818
O16	O	2.083716	0.835575	1.078818
O17	O	1.349730	-0.085574	-0.001533
O18	O	1.599730	0.164426	0.248467
O19	O	1.849730	0.414426	0.498467
O20	O	2.099730	0.664426	0.748467
O21	O	1.176544	-0.085565	0.171647
O22	O	1.426544	0.164435	0.421647
O23	O	1.676544	0.414435	0.671647
O24	O	1.926544	0.664435	0.921647
O25	O	1.506884	-0.085567	0.155629
O26	O	1.756884	0.164433	0.405629
O27	O	2.006884	0.414433	0.655629
O28	O	2.256884	0.664433	0.905629
Cu29	Cu	1.341712	-0.101192	0.163637
Cu30	Cu	1.591712	0.148808	0.413637
Cu31	Cu	1.841712	0.398808	0.663637
Cu32	Cu	2.091712	0.648808	0.913637
Cu33	Cu	1.341734	0.101193	0.163648
Cu34	Cu	1.591734	0.351193	0.413648
Cu35	Cu	1.841734	0.601193	0.663648
Cu36	Cu	2.091734	0.851193	0.913648
O37	O	1.333698	-0.085559	0.328808
O38	O	1.583698	0.164441	0.578808
O39	O	1.833698	0.414441	0.828808
O40	O	2.083698	0.664441	1.078808
C41	C	1.134263	0.000002	0.170642
C42	C	1.384263	0.250002	0.420642
C43	C	1.634263	0.500002	0.670642
C44	C	1.884263	0.750002	0.920642
C45	C	1.008250	0.000003	0.167622
C46	C	1.258250	0.250003	0.417622
C47	C	1.508250	0.500003	0.667622
C48	C	1.758250	0.750003	0.917622
C49	C	0.905913	0.000007	0.165168
C50	C	1.155913	0.250007	0.415168
C51	C	1.405913	0.500007	0.665168
C52	C	1.655913	0.750007	0.915168
C53	C	0.777527	0.000008	0.162100
C54	C	1.027527	0.250008	0.412100
C55	C	1.277527	0.500008	0.662100
C56	C	1.527527	0.750008	0.912100
N57	N	1.341705	-0.243539	0.163628
N58	N	1.591705	0.006461	0.413628
N59	N	1.841705	0.256461	0.663628
N60	N	2.091705	0.506461	0.913628
C61	C	1.341732	-0.663354	0.163649
C62	C	1.591732	-0.413354	0.413649
C63	C	1.841732	-0.163354	0.663649
C64	C	2.091732	0.086646	0.913649
C65	C	1.341721	-0.546548	0.163647
C66	C	1.591721	-0.296548	0.413647
C67	C	1.841721	-0.046548	0.663647
C68	C	2.091721	0.203452	0.913647
C69	C	1.341719	-0.453450	0.163640
C70	C	1.591719	-0.203450	0.413640
C71	C	1.841719	0.046550	0.663640
C72	C	2.091719	0.296550	0.913640
C73	C	1.341707	-0.336638	0.163636
C74	C	1.591707	-0.086638	0.413636
C75	C	1.841707	0.163362	0.663636
C76	C	2.091707	0.413362	0.913636
C77	C	1.549183	0.000002	0.156643
C78	C	1.799183	0.250002	0.406643
C79	C	2.049183	0.500002	0.656643
C80	C	2.299183	0.750002	0.906643
C81	C	1.675196	0.000008	0.159663
C82	C	1.925196	0.250008	0.409663
C83	C	2.175196	0.500008	0.659663
C84	C	2.425196	0.750008	0.909663
C85	C	1.348732	-0.000006	-0.043819
C86	C	1.598732	0.249994	0.206181
C87	C	1.848732	0.499994	0.456181
C88	C	2.098732	0.749994	0.706181
C89	C	1.345718	-0.000005	-0.169832
C90	C	1.595718	0.249995	0.080168
C91	C	1.845718	0.499995	0.330168
C92	C	2.095718	0.749995	0.580168
N93	N	1.341750	0.243541	0.163648
N94	N	1.591750	0.493541	0.413648
N95	N	1.841750	0.743541	0.663648
N96	N	2.091750	0.993541	0.913648
C97	C	1.340175	0.000012	-0.400545
C98	C	1.590175	0.250012	-0.150545
C99	C	1.840175	0.500012	0.099455
C100	C	2.090175	0.750012	0.349455
C101	C	1.343255	0.000003	-0.272160
C102	C	1.593255	0.250003	-0.022160
C103	C	1.843255	0.500003	0.227840
C104	C	2.093255	0.750003	0.477840
C105	C	1.334714	0.000010	0.371104
C106	C	1.584714	0.250010	0.621104
C107	C	1.834714	0.500010	0.871104
C108	C	2.084714	0.750010	1.121104
C109	C	1.337728	0.000016	0.497118
C110	C	1.587728	0.250016	0.747118
C111	C	1.837728	0.500016	0.997118
C112	C	2.087728	0.750016	1.247118
