data_functionalizedCrystal
_audit_creation_method	'MofGen! by Chris Wilmer'
_symmetry_space_group_name_H-M	'P1'
_symmetry_Int_Tables_number	1
_symmetry_cell_setting	triclinic
loop_
_symmetry_equiv_pos_as_xyz
  x,y,z
_cell_length_a	8.497374
_cell_length_b	21.395362
_cell_length_c	21.395361
_cell_angle_alpha	90.046585
_cell_angle_beta	89.984309
_cell_angle_gamma	89.977046
loop_
_atom_site_label
_atom_site_type_symbol
_atom_site_fract_x
_atom_site_fract_y
_atom_site_fract_z
Zn1	Zn	0.892770	-0.957730	0.249282
Zn2	Zn	0.628940	-0.957670	0.354031
Zn3	Zn	0.628900	-0.852983	0.249300
Zn4	Zn	0.892573	-0.852914	0.354054
O5	O	0.760796	-0.905324	0.301667
O6	O	0.857872	-1.045400	0.263159
O7	O	0.408172	-0.943788	0.340136
O8	O	0.663969	-0.866931	0.161620
O9	O	0.664036	-1.045356	0.340118
O10	O	0.857833	-0.943888	0.161606
O11	O	0.408143	-0.866874	0.263191
O12	O	0.663778	-0.765296	0.263214
O13	O	1.113362	-0.866814	0.340158
O14	O	0.857497	-0.765245	0.340176
O15	O	1.113507	-0.943821	0.263182
O16	O	0.663845	-0.943721	0.441712
O17	O	0.857536	-0.866756	0.441729
C18	C	0.760613	-0.742537	0.301700
C19	C	0.760572	-0.672895	0.301729
C20	C	0.760708	-0.905241	0.464454
C21	C	0.760723	-0.905263	0.534096
C22	C	0.760981	-1.068747	0.301634
C23	C	0.761059	-1.138389	0.301620
C24	C	1.172276	-0.905320	0.301668
C25	C	1.350920	-0.905321	0.301674
C26	C	0.760919	-0.905424	0.138243
C27	C	0.760971	-0.905467	0.068602
C28	C	0.861291	-0.640172	0.341857
C29	C	0.861361	-0.574737	0.341841
C30	C	0.760684	-0.542027	0.301705
C31	C	0.659959	-0.574758	0.261570
C32	C	0.659902	-0.640192	0.261582
C33	C	0.618664	-0.438323	0.296652
C34	C	0.618717	-0.372890	0.296644
C35	C	0.760859	-0.340206	0.301664
C36	C	0.902951	-0.372964	0.306705
C37	C	0.902895	-0.438398	0.306717
C38	C	0.760735	-0.471075	0.301687
C39	C	0.861662	-0.236531	0.341777
C40	C	0.861735	-0.171094	0.341757
C41	C	0.660318	-0.171117	0.261489
C42	C	0.660260	-0.236552	0.261506
C43	C	0.760929	-0.269255	0.301653
C44	C	0.659972	-0.945374	0.566779
C45	C	0.660007	-0.945403	0.632214
C46	C	0.760777	-0.905310	0.664964
C47	C	0.861548	-0.865197	0.632273
C48	C	0.861521	-0.865173	0.566839
C49	C	0.773092	-0.848894	0.768695
C50	C	0.773108	-0.848917	0.834128
C51	C	0.760870	-0.905383	0.866785
C52	C	0.748583	-0.961830	0.834000
C53	C	0.748556	-0.961806	0.768566
C54	C	0.760819	-0.905332	0.735916
C55	C	0.660152	-0.945529	0.970420
C56	C	0.660198	-0.945559	1.035857
C57	C	0.861731	-0.865347	1.035914
C58	C	0.861693	-0.865323	0.970479
C59	C	0.760895	-0.905413	0.937736
H60	H	0.943266	-0.666795	0.374547
H61	H	1.018697	-0.346354	0.310792
C62	C	0.549448	-0.272549	0.217373
H63	H	0.489486	-0.243699	0.193470
H64	H	0.609892	-0.298122	0.190115
H65	H	0.480573	-0.298028	0.241309
C66	C	0.972389	-0.821095	0.668294
H67	H	0.957965	-0.826849	0.711946
H68	H	1.078411	-0.830224	0.657543
H69	H	0.949154	-0.778999	0.657623
H70	H	0.738556	-1.007766	0.741874
H71	H	0.783064	-0.802908	0.742113
H72	H	0.943384	-0.548088	0.374518
C73	C	1.059183	-0.474429	0.312252
H74	H	1.143853	-0.445596	0.315236
H75	H	1.056948	-0.499920	0.348572
H76	H	1.073181	-0.499991	0.276351
H77	H	0.943641	-0.263159	0.374464
H78	H	0.943567	-0.832510	0.540227
H79	H	0.503017	-0.346224	0.292543
H80	H	0.943762	-0.144452	0.374433
C81	C	0.549595	-0.135144	0.217332
H82	H	0.564052	-0.091486	0.223071
H83	H	0.572884	-0.145921	0.175254
H84	H	0.443535	-0.145822	0.226435
H85	H	0.502907	-0.464929	0.292561
H86	H	0.577990	-0.548122	0.228889
H87	H	0.783097	-0.802954	0.860816
C88	C	0.972500	-0.821192	0.934525
H89	H	1.032512	-0.797314	0.963400
H90	H	1.041304	-0.845124	0.908957
H91	H	0.912038	-0.793903	0.909045
C92	C	0.549098	-0.676189	0.217443
H93	H	0.489141	-0.647339	0.193538
H94	H	0.609548	-0.701763	0.190188
H95	H	0.480219	-0.701667	0.241378
C96	C	0.549117	-0.989478	0.530765
H97	H	0.489128	-1.013376	0.559606
H98	H	0.480293	-0.965529	0.505276
H99	H	0.609554	-1.016752	0.505200
H100	H	0.738618	-1.007811	0.860588
H101	H	0.943787	-0.832706	1.062578
C102	C	0.549164	-0.989522	0.668174
H103	H	0.489123	-1.013391	0.639301
H104	H	0.609594	-1.016811	0.693661
H105	H	0.480366	-0.965575	0.693736
C106	C	0.549298	-0.989632	0.934401
H107	H	0.489314	-1.013533	0.963240
H108	H	0.480470	-0.965680	0.908916
H109	H	0.609734	-1.016902	0.908832
C110	C	0.549350	-0.989675	1.071812
H111	H	0.563806	-0.983951	1.115472
H112	H	0.443328	-0.980527	1.061115
H113	H	0.572548	-1.031766	1.061037
