data_functionalizedCrystal
_audit_creation_method	'MofGen! by Chris Wilmer'
_symmetry_space_group_name_H-M	'P1'
_symmetry_Int_Tables_number	1
_symmetry_cell_setting	triclinic
loop_
_symmetry_equiv_pos_as_xyz
  x,y,z
_cell_length_a	27.731994
_cell_length_b	27.732048
_cell_length_c	26.210047
_cell_angle_alpha	89.990375
_cell_angle_beta	89.989666
_cell_angle_gamma	82.631595
loop_
_atom_site_label
_atom_site_type_symbol
_atom_site_fract_x
_atom_site_fract_y
_atom_site_fract_z
O1	O	0.640953	0.057391	-0.042362
O2	O	1.140953	0.557391	0.457638
O3	O	0.500156	0.066164	-0.042379
O4	O	1.000156	0.566164	0.457621
O5	O	0.574927	-0.008620	-0.042360
O6	O	1.074927	0.491380	0.457640
O7	O	0.566181	0.132175	-0.042381
O8	O	1.066181	0.632175	0.457619
O9	O	0.574904	-0.008620	0.042498
O10	O	1.074904	0.491380	0.542498
O11	O	0.500132	0.066164	0.042479
O12	O	1.000132	0.566164	0.542479
O13	O	0.640929	0.057391	0.042496
O14	O	1.140929	0.557391	0.542496
Cu15	Cu	0.570529	0.061778	0.050236
Cu16	Cu	1.070529	0.561778	0.550236
Cu17	Cu	0.570556	0.061778	-0.050119
Cu18	Cu	1.070556	0.561778	0.449881
O19	O	0.566158	0.132175	0.042477
O20	O	1.066158	0.632175	0.542477
C21	C	0.482137	0.065984	0.000047
C22	C	0.982137	0.565984	0.500047
C23	C	0.428480	0.065442	0.000041
C24	C	0.928480	0.565442	0.500041
C25	C	0.095749	0.062026	0.046317
C26	C	0.595749	0.562026	0.546317
C27	C	-0.105909	0.059964	0.046324
C28	C	0.394091	0.559964	0.546324
O29	O	-0.131993	0.059677	0.085663
O30	O	0.368007	0.559677	0.585663
N31	N	-0.131111	0.059708	0.000067
N32	N	0.368889	0.559708	0.500067
C33	C	-0.105895	0.059964	-0.046193
C34	C	0.394105	0.559964	0.453807
O35	O	-0.131958	0.059694	-0.085537
O36	O	0.368042	0.559694	0.414463
C37	C	0.095762	0.062023	-0.046199
C38	C	0.595762	0.562023	0.453801
C39	C	0.120961	0.062283	0.000060
C40	C	0.620961	0.562283	0.500060
C41	C	0.120948	0.062286	0.092573
C42	C	0.620948	0.562286	0.592573
C43	C	0.171359	0.062804	0.092571
C44	C	0.671359	0.562804	0.592571
C45	C	0.196571	0.063062	0.046313
C46	C	0.696571	0.563062	0.546313
C47	C	0.171372	0.062801	0.000058
C48	C	0.671372	0.562801	0.500058
C49	C	0.120978	0.062275	-0.092459
C50	C	0.620978	0.562275	0.407541
C51	C	0.171396	0.062789	-0.092457
C52	C	0.671396	0.562789	0.407543
C53	C	0.196595	0.063050	-0.046197
C54	C	0.696595	0.563050	0.453803
C55	C	0.246996	0.063577	-0.046201
C56	C	0.746996	0.563577	0.453799
N57	N	0.272198	0.063833	0.000055
N58	N	0.772198	0.563833	0.500055
C59	C	0.246986	0.063576	0.046312
C60	C	0.746986	0.563576	0.546312
C61	C	-0.211769	0.058885	-0.046187
C62	C	0.288231	0.558885	0.453813
C63	C	-0.262183	0.058371	-0.046186
C64	C	0.237817	0.558371	0.453814
C65	C	-0.262193	0.058370	0.046331
C66	C	0.237807	0.558370	0.546331
C67	C	-0.211778	0.058887	0.046329
C68	C	0.288222	0.558887	0.546329
C69	C	-0.186566	0.059141	0.000069
C70	C	0.313434	0.559141	0.500069
C71	C	0.352853	0.064664	0.046305
C72	C	0.852853	0.564664	0.546305
C73	C	0.403268	0.065184	0.046298
C74	C	0.903268	0.565184	0.546298
C75	C	0.403274	0.065182	-0.046218
C76	C	0.903274	0.565182	0.453782
C77	C	0.352863	0.064665	-0.046213
C78	C	0.852863	0.564665	0.453787
C79	C	0.327654	0.064404	0.000053
C80	C	0.827654	0.564404	0.500053
O81	O	0.273111	0.063859	-0.085520
O82	O	0.773111	0.563859	0.414480
O83	O	0.273058	0.063835	0.085650
O84	O	0.773058	0.563835	0.585650
C85	C	0.045338	0.061508	0.046319
C86	C	0.545338	0.561508	0.546319
C87	C	0.020139	0.061247	0.000064
C88	C	0.520139	0.561247	0.500064
C89	C	0.045351	0.061505	-0.046193
C90	C	0.545351	0.561505	0.453807
C91	C	-0.030275	0.060734	0.000065
C92	C	0.469725	0.560734	0.500065
C93	C	-0.055488	0.060476	0.046323
C94	C	0.444512	0.560476	0.546323
C95	C	-0.030286	0.060732	0.092579
C96	C	0.469714	0.560732	0.592579
C97	C	0.020126	0.061250	0.092577
C98	C	0.520126	0.561250	0.592577
C99	C	0.020149	0.061249	-0.092449
C100	C	0.520149	0.561249	0.407551
C101	C	-0.030262	0.060732	-0.092443
C102	C	0.469738	0.560732	0.407557
C103	C	-0.055474	0.060474	-0.046186
C104	C	0.444526	0.560474	0.453814
C105	C	0.574732	-0.026627	0.000070
C106	C	1.074732	0.473373	0.500070
C107	C	0.574179	-0.080282	0.000074
C108	C	1.074179	0.419718	0.500074
C109	C	0.614884	-0.419105	0.000053
C110	C	1.114884	0.080895	0.500053
C111	C	0.612833	-0.620764	0.000046
C112	C	1.112833	-0.120764	0.500046
O113	O	0.650055	-0.652027	0.000028
O114	O	1.150055	-0.152027	0.500028
N115	N	0.568496	-0.639879	0.000041
N116	N	1.068496	-0.139879	0.500041
C117	C	0.524670	-0.608576	0.000034
C118	C	1.024670	-0.108576	0.500034
O119	O	0.486912	-0.629462	0.000024
O120	O	0.986912	-0.129462	0.500024
C121	C	0.526721	-0.406918	0.000038
C122	C	1.026721	0.093082	0.500038
C123	C	0.571060	-0.387805	0.000048
C124	C	1.071060	0.112195	0.500048
C125	C	0.659220	-0.399992	0.000063
C126	C	1.159220	0.100008	0.500063
C127	C	0.659732	-0.349580	0.000068
C128	C	1.159732	0.150420	0.500068
C129	C	0.615908	-0.318281	0.000062
C130	C	1.115908	0.181719	0.500062
C131	C	0.571573	-0.337394	0.000053
C132	C	1.071573	0.162606	0.500053
C133	C	0.482895	-0.375615	0.000028
C134	C	0.982895	0.124385	0.500028
C135	C	0.483412	-0.325198	0.000027
C136	C	0.983412	0.174802	0.500027
C137	C	0.527751	-0.306086	0.000037
C138	C	1.027751	0.193914	0.500037
C139	C	0.528262	-0.255683	0.000052
C140	C	1.028262	0.244317	0.500052
N141	N	0.572598	-0.236567	0.000057
N142	N	1.072598	0.263433	0.500057
C143	C	0.616421	-0.267867	0.000062
C144	C	1.116421	0.232133	0.500062
C145	C	0.523596	-0.714450	0.000033
C146	C	1.023596	-0.214450	0.500033
C147	C	0.523083	-0.764864	0.000033
C148	C	1.023083	-0.264864	0.500033
C149	C	0.611246	-0.777049	0.000044
C150	C	1.111246	-0.277049	0.500044
C151	C	0.611759	-0.726633	0.000048
C152	C	1.111759	-0.226633	0.500048
C153	C	0.567932	-0.695335	0.000038
C154	C	1.067932	-0.195335	0.500038
C155	C	0.617494	-0.161998	0.000073
C156	C	1.117494	0.338002	0.500073
C157	C	0.618002	-0.111581	0.000079
C158	C	1.118002	0.388419	0.500079
C159	C	0.529839	-0.099401	0.000066
C160	C	1.029839	0.400599	0.500066
C161	C	0.529331	-0.149813	0.000062
C162	C	1.029331	0.350187	0.500062
C163	C	0.573162	-0.181111	0.000063
C164	C	1.073162	0.318889	0.500063
O165	O	0.491060	-0.224391	0.000064
O166	O	0.991060	0.275609	0.500064
O167	O	0.654174	-0.246971	0.000061
O168	O	1.154174	0.253029	0.500061
C169	C	0.614372	-0.469517	0.000049
C170	C	1.114372	0.030483	0.500049
C171	C	0.570036	-0.488629	0.000039
C172	C	1.070036	0.011371	0.500039
C173	C	0.526213	-0.457330	0.000034
C174	C	1.026213	0.042670	0.500034
C175	C	0.569523	-0.539043	0.000039
C176	C	1.069523	-0.039043	0.500039
C177	C	0.613346	-0.570343	0.000044
C178	C	1.113346	-0.070343	0.500044
C179	C	0.657683	-0.551228	0.000049
C180	C	1.157683	-0.051228	0.500049
C181	C	0.658195	-0.500816	0.000054
C182	C	1.158195	-0.000816	0.500054
C183	C	0.481876	-0.476445	0.000029
C184	C	0.981876	0.023555	0.500029
C185	C	0.481367	-0.526857	0.000025
C186	C	0.981367	-0.026857	0.500025
C187	C	0.525191	-0.558157	0.000030
C188	C	1.025191	-0.058157	0.500030
C189	C	0.658949	0.057571	0.000068
C190	C	1.158949	0.557571	0.500068
C191	C	0.712605	0.058114	0.000071
C192	C	1.212605	0.558114	0.500071
C193	C	0.566353	0.150182	0.000046
C194	C	1.066353	0.650182	0.500046
C195	C	0.566906	0.203837	0.000038
C196	C	1.066906	0.703837	0.500038
N197	N	0.570513	0.061777	0.120820
N198	N	1.070513	0.561777	0.620820
N199	N	0.570576	0.061774	-0.120703
N200	N	1.070576	0.561774	0.379297
C201	C	0.599649	0.090883	0.473333
C202	C	1.099649	0.590883	0.973333
C203	C	0.599663	0.090882	0.686992
C204	C	1.099663	0.590882	1.186992
O205	O	0.624425	0.115623	0.714613
O206	O	1.124425	0.615623	1.214613
N207	N	0.570568	0.061773	0.713714
N208	N	1.070568	0.561773	1.213714
C209	C	0.541469	0.032659	0.687017
C210	C	1.041469	0.532659	1.187017
O211	O	0.516726	0.007895	0.714649
O212	O	1.016726	0.507895	1.214649
C213	C	0.541458	0.032657	0.473360
C214	C	1.041458	0.532657	0.973360
C215	C	0.570551	0.061772	0.446641
C216	C	1.070551	0.561772	0.946641
C217	C	0.628741	0.119995	0.446614
C218	C	1.128741	0.619995	0.946614
C219	C	0.628735	0.119997	0.393203
C220	C	1.128735	0.619997	0.893203
C221	C	0.599637	0.090886	0.366510
C222	C	1.099637	0.590886	0.866510
C223	C	0.570546	0.061774	0.393229
C224	C	1.070546	0.561774	0.893229
C225	C	0.512362	0.003540	0.446665
C226	C	1.012362	0.503540	0.946665
C227	C	0.512363	0.003542	0.393247
C228	C	1.012363	0.503542	0.893247
C229	C	0.541456	0.032657	0.366528
C230	C	1.041456	0.532657	0.866528
C231	C	0.541442	0.032665	0.313126
C232	C	1.041442	0.532665	0.813126
N233	N	0.570538	0.061775	0.286404
N234	N	1.070538	0.561775	0.786404
C235	C	0.599635	0.090885	0.313096
C236	C	1.099635	0.590885	0.813096
C237	C	0.541476	0.032662	0.799191
C238	C	1.041476	0.532662	1.299191
C239	C	0.541478	0.032663	0.852605
C240	C	1.041478	0.532663	1.352605
C241	C	0.599674	0.090886	0.852576
C242	C	1.099674	0.590886	1.352576
C243	C	0.599669	0.090888	0.799160
C244	C	1.099669	0.590888	1.299160
C245	C	0.570572	0.061772	0.772469
C246	C	1.070572	0.561772	1.272469
C247	C	0.599620	0.090887	0.200928
C248	C	1.099620	0.590887	0.700928
C249	C	0.599610	0.090888	0.147512
C250	C	1.099610	0.590888	0.647512
C251	C	0.541417	0.032663	0.147546
C252	C	1.041417	0.532663	0.647546
C253	C	0.541425	0.032664	0.200958
C254	C	1.041425	0.532664	0.700958
C255	C	0.570531	0.061777	0.227647
C256	C	1.070531	0.561777	0.727647
O257	O	0.516698	0.007933	0.285471
O258	O	1.016698	0.507933	0.785471
O259	O	0.624383	0.115637	0.285456
O260	O	1.124383	0.615637	0.785456
C261	C	0.599655	0.090881	0.526745
C262	C	1.099655	0.590881	1.026745
C263	C	0.570563	0.061768	0.553464
C264	C	1.070563	0.561768	1.053464
C265	C	0.541466	0.032658	0.526771
C266	C	1.041466	0.532658	1.026771
C267	C	0.570565	0.061769	0.606878
C268	C	1.070565	0.561769	1.106878
C269	C	0.599663	0.090880	0.633570
C270	C	1.099663	0.590880	1.133570
C271	C	0.628758	0.119990	0.606848
C272	C	1.128758	0.619990	1.106848
C273	C	0.628753	0.119991	0.553437
C274	C	1.128753	0.619991	1.053437
C275	C	0.512370	0.003548	0.553493
C276	C	1.012370	0.503548	1.053493
C277	C	0.512378	0.003549	0.606905
C278	C	1.012378	0.503549	1.106905
C279	C	0.541475	0.032660	0.633597
C280	C	1.041475	0.532660	1.133597
H281	H	-0.050822	0.060525	0.130243
H282	H	0.449178	0.560525	0.630243
C283	C	0.482225	-0.065469	-0.000023
C284	C	0.982225	0.434531	0.499977
C285	C	0.455517	-0.074055	-0.043682
C286	C	0.955517	0.425945	0.456318
C287	C	0.411650	-0.042809	-0.043782
C288	C	0.911650	0.457191	0.456218
H289	H	0.488817	-0.032691	-0.000048
H290	H	0.988817	0.467309	0.499952
H291	H	0.463989	-0.071233	0.029548
H292	H	0.963989	0.428767	0.529548
H293	H	0.473750	-0.068287	-0.073245
H294	H	0.973750	0.431713	0.426755
H295	H	0.448913	-0.106827	-0.043666
H296	H	0.948913	0.393173	0.456334
H297	H	0.393414	-0.048574	-0.014211
H298	H	0.893414	0.451426	0.485789
H299	H	0.418247	-0.010034	-0.043806
H300	H	0.918247	0.489966	0.456194
H301	H	0.393522	-0.048634	-0.073402
H302	H	0.893522	0.451366	0.426598
H303	H	0.446789	-0.391167	0.000016
H304	H	0.946789	0.108833	0.500016
H305	H	0.488681	-0.020159	0.628655
H306	H	0.988681	0.479841	1.128655
H307	H	0.040672	0.061457	-0.130118
H308	H	0.540672	0.561457	0.369882
H309	H	0.653186	-0.187475	0.000072
H310	H	1.153186	0.312525	0.500072
H311	H	0.654110	-0.096023	0.000089
H312	H	1.154110	0.403977	0.500089
H313	H	0.040638	0.061463	0.130246
H314	H	0.540638	0.561463	0.630246
H315	H	0.695837	-0.334024	0.000074
H316	H	1.195837	0.165976	0.500074
C317	C	0.509959	0.000995	0.770184
C318	C	1.009959	0.500995	1.270184
C319	C	0.539501	-0.031962	0.739522
C320	C	1.039501	0.468038	1.239522
C321	C	0.510481	-0.061139	0.712799
C322	C	1.010481	0.438861	1.212799
H323	H	0.487559	0.020913	0.749311
H324	H	0.987559	0.520913	1.249311
H325	H	0.492639	-0.016366	0.793733
H326	H	0.992639	0.483634	1.293733
H327	H	0.556813	-0.014602	0.715976
H328	H	1.056813	0.485398	1.215976
H329	H	0.561900	-0.051891	0.760382
H330	H	1.061900	0.448109	1.260382
H331	H	0.493160	-0.078501	0.736348
H332	H	0.993160	0.421499	1.236348
H333	H	0.488082	-0.041218	0.691929
H334	H	0.988082	0.458782	1.191929
H335	H	0.530521	-0.083508	0.691996
H336	H	1.030521	0.416492	1.191996
C337	C	0.480722	-0.028073	0.524610
C338	C	0.980722	0.471927	1.024610
C339	C	0.455236	-0.053553	0.559450
C340	C	0.955236	0.446447	1.059450
C341	C	0.426068	-0.082682	0.532864
C342	C	0.926068	0.417318	1.032864
H343	H	0.500639	-0.050502	0.503768
H344	H	1.000639	0.449498	1.003768
H345	H	0.458297	-0.008114	0.503790
H346	H	0.958297	0.491886	1.003790
H347	H	0.477658	-0.073511	0.580262
H348	H	0.977658	0.426489	1.080262
H349	H	0.435310	-0.031136	0.580294
H350	H	0.935310	0.468864	1.080294
H351	H	0.403644	-0.062723	0.512044
H352	H	0.903644	0.437277	1.012044
H353	H	0.445989	-0.105108	0.512023
H354	H	0.945989	0.394892	1.012023
H355	H	0.408769	-0.099970	0.556499
H356	H	0.908769	0.400030	1.056499
H357	H	0.623364	0.114591	0.874318
H358	H	1.123364	0.614591	1.374318
H359	H	0.623321	0.114594	0.222653
H360	H	1.123321	0.614594	0.722653
C361	C	0.706767	-0.434027	0.000149
C362	C	1.206767	0.065973	0.500149
C363	C	0.709034	-0.463338	0.043801
C364	C	1.209034	0.036662	0.543801
C365	C	0.752828	-0.494698	0.043898
C366	C	1.252828	0.005302	0.543898
H367	H	0.733282	-0.415478	0.000180
H368	H	1.233282	0.084522	0.500180
H369	H	0.708418	-0.453973	-0.029427
H370	H	1.208418	0.046027	0.470573
H371	H	0.707389	-0.443395	0.073369
H372	H	1.207389	0.056605	0.573369
H373	H	0.682529	-0.481897	0.043779
H374	H	1.182529	0.018103	0.543779
H375	H	0.754478	-0.514644	0.014323
H376	H	1.254478	-0.014644	0.514323
H377	H	0.779339	-0.476145	0.043928
H378	H	1.279339	0.023855	0.543928
H379	H	0.754369	-0.514592	0.073513
H380	H	1.254369	-0.014592	0.573513
H381	H	0.517782	0.008961	0.874355
H382	H	1.017782	0.508961	1.374355
C383	C	0.198799	0.063103	0.142743
C384	C	0.698799	0.563103	0.642743
C385	C	0.248346	0.063619	0.132852
C386	C	0.748346	0.563619	0.632852
C387	C	0.273634	0.063898	0.179060
C388	C	0.773634	0.563898	0.679060
H389	H	0.194485	0.034825	0.161786
H390	H	0.694485	0.534825	0.661786
H391	H	0.186660	0.091227	0.161753
H392	H	0.686660	0.591227	0.661753
H393	H	0.260481	0.035498	0.113850
H394	H	0.760481	0.535498	0.613850
H395	H	0.252674	0.091895	0.113816
H396	H	0.752674	0.591895	0.613816
H397	H	0.261495	0.092022	0.198070
H398	H	0.761495	0.592022	0.698070
H399	H	0.269317	0.035620	0.198099
H400	H	0.769317	0.535620	0.698099
H401	H	0.307254	0.064253	0.172355
H402	H	0.807254	0.564253	0.672355
H403	H	0.423782	0.065398	0.083970
H404	H	0.923782	0.565398	0.583970
H405	H	0.652438	0.143701	0.468341
H406	H	1.152438	0.643701	0.968341
C407	C	0.660272	0.151593	0.364106
C408	C	1.160272	0.651593	0.864106
C409	C	0.654037	0.145379	0.311613
C410	C	1.154037	0.645379	0.811613
C411	C	0.683078	0.174484	0.284797
C412	C	1.183078	0.674484	0.784797
H413	H	0.693431	0.142407	0.372793
H414	H	1.193431	0.642407	0.872793
H415	H	0.651035	0.184741	0.372831
H416	H	1.151035	0.684741	0.872831
H417	H	0.663278	0.112238	0.302891
H418	H	1.163278	0.612238	0.802891
H419	H	0.620885	0.154568	0.302910
H420	H	1.120885	0.654568	0.802910
H421	H	0.673840	0.207632	0.293522
H422	H	1.173840	0.707632	0.793522
H423	H	0.716235	0.165296	0.293488
H424	H	1.216235	0.665296	0.793488
H425	H	0.678848	0.170275	0.249177
H426	H	1.178848	0.670275	0.749177
H427	H	0.694301	-0.485260	0.000062
H428	H	1.194301	0.014740	0.500062
H429	H	0.423811	0.065394	-0.083880
H430	H	0.923811	0.565394	0.416120
H431	H	0.488671	-0.020169	0.468410
H432	H	0.988671	0.479831	0.968410
H433	H	0.647863	-0.711076	0.000056
H434	H	1.147863	-0.211076	0.500056
C435	C	0.705212	-0.585296	0.000027
C436	C	1.205212	-0.085296	0.500027
C437	C	0.695266	-0.633535	0.000008
C438	C	1.195266	-0.133535	0.500008
C439	C	0.739034	-0.664934	-0.000023
C440	C	1.239034	-0.164934	0.499977
H441	H	0.723439	-0.579611	0.029612
H442	H	1.223439	-0.079611	0.529612
H443	H	0.723418	-0.579562	-0.029575
H444	H	1.223418	-0.079562	0.470425
H445	H	0.677067	-0.639266	0.029607
H446	H	1.177067	-0.139266	0.529607
H447	H	0.677045	-0.639235	-0.029576
H448	H	1.177045	-0.139235	0.470424
H449	H	0.757241	-0.659200	-0.029625
H450	H	1.257241	-0.159200	0.470375
H451	H	0.757258	-0.659244	0.029563
H452	H	1.257258	-0.159244	0.529563
H453	H	0.732292	-0.697667	-0.000041
H454	H	1.232292	-0.197667	0.499959
C455	C	0.093591	0.062088	-0.142671
C456	C	0.593591	0.562088	0.357329
C457	C	0.058902	0.103399	-0.145400
C458	C	0.558902	0.603399	0.354600
C459	C	0.033671	0.103245	-0.191653
C460	C	0.533671	0.603245	0.308347
H461	H	0.077782	0.033719	-0.144639
H462	H	0.577782	0.533719	0.355361
H463	H	0.115816	0.062338	-0.170229
H464	H	0.615816	0.562338	0.329771
H465	H	0.036680	0.103145	-0.117849
H466	H	0.536680	0.603145	0.382151
H467	H	0.074698	0.131775	-0.143440
H468	H	0.574698	0.631775	0.356560
H469	H	0.055896	0.103495	-0.219212
H470	H	0.555896	0.603495	0.280788
H471	H	0.017865	0.074874	-0.193618
H472	H	0.517865	0.574874	0.306382
H473	H	0.010135	0.131276	-0.193513
H474	H	0.510135	0.631276	0.306487
H475	H	0.493226	-0.165375	0.000068
H476	H	0.993226	0.334625	0.500068
C477	C	0.433174	-0.547510	-0.000012
C478	C	0.933174	-0.047510	0.499988
C479	C	0.394908	-0.509303	-0.000031
C480	C	0.894908	-0.009303	0.499969
C481	C	0.350507	-0.528307	-0.000077
C482	C	0.850507	-0.028307	0.499923
H483	H	0.431058	-0.566922	0.029568
H484	H	0.931058	-0.066922	0.529568
H485	H	0.431124	-0.566901	-0.029620
H486	H	0.931124	-0.066901	0.470380
H487	H	0.396957	-0.489920	0.029574
H488	H	0.896957	0.010080	0.529574
H489	H	0.397008	-0.489887	-0.029608
H490	H	0.897008	0.010113	0.470392
H491	H	0.348458	-0.547698	-0.029684
H492	H	0.848458	-0.047698	0.470316
H493	H	0.348397	-0.547720	0.029504
H494	H	0.848397	-0.047720	0.529504
H495	H	0.324539	-0.502387	-0.000094
H496	H	0.824539	-0.002387	0.499906
C497	C	0.658812	-0.811059	-0.000061
C498	C	1.158812	-0.311059	0.499939
C499	C	0.661099	-0.840340	-0.043727
C500	C	1.161099	-0.340340	0.456273
C501	C	0.704910	-0.871673	-0.043850
C502	C	1.204910	-0.371673	0.456150
H503	H	0.660486	-0.831031	0.029495
H504	H	1.160486	-0.331031	0.529495
H505	H	0.685308	-0.792476	-0.000088
H506	H	1.185308	-0.292476	0.499912
H507	H	0.634611	-0.858921	-0.043696
H508	H	1.134611	-0.358921	0.456304
H509	H	0.659434	-0.820381	-0.073290
H510	H	1.159434	-0.320381	0.426710
H511	H	0.731406	-0.853090	-0.043877
H512	H	1.231406	-0.353090	0.456123
H513	H	0.706580	-0.891642	-0.014292
H514	H	1.206580	-0.391642	0.485708
H515	H	0.706470	-0.891541	-0.073479
H516	H	1.206470	-0.391541	0.426521
C517	C	0.434307	-0.442445	-0.000080
C518	C	0.934307	0.057555	0.499920
C519	C	0.432024	-0.413144	-0.043741
C520	C	0.932024	0.086856	0.456259
C521	C	0.388205	-0.381824	-0.043858
C522	C	0.888205	0.118176	0.456142
H523	H	0.432618	-0.422485	0.029480
H524	H	0.932618	0.077515	0.529480
H525	H	0.407819	-0.461037	-0.000111
H526	H	0.907819	0.038963	0.499889
H527	H	0.458505	-0.394553	-0.043705
H528	H	0.958505	0.105447	0.456295
H529	H	0.433706	-0.433090	-0.073307
H530	H	0.933706	0.066910	0.426693
H531	H	0.361717	-0.400417	-0.043890
H532	H	0.861717	0.099583	0.456110
H533	H	0.386519	-0.361868	-0.014297
H534	H	0.886519	0.138132	0.485703
H535	H	0.386648	-0.361943	-0.073484
H536	H	0.886648	0.138057	0.426516
C537	C	0.631253	0.122514	0.118596
C538	C	1.131253	0.622514	0.618596
C539	C	0.656747	0.147996	0.153409
C540	C	1.156747	0.647996	0.653409
C541	C	0.685905	0.177128	0.126792
C542	C	1.185905	0.677128	0.626792
H543	H	0.611328	0.144943	0.097759
H544	H	1.111328	0.644943	0.597759
H545	H	0.653672	0.102558	0.097766
H546	H	1.153672	0.602558	0.597766
H547	H	0.634330	0.167951	0.174229
H548	H	1.134330	0.667951	0.674229
H549	H	0.676681	0.125579	0.174246
H550	H	1.176681	0.625579	0.674246
H551	H	0.708324	0.157171	0.105963
H552	H	1.208324	0.657171	0.605963
H553	H	0.665976	0.199553	0.105957
H554	H	1.165976	0.699553	0.605957
H555	H	0.703209	0.194417	0.150408
H556	H	1.203209	0.694417	0.650408
H557	H	0.332333	0.064456	0.083978
H558	H	0.832333	0.564456	0.583978
C559	C	0.631311	0.122511	0.770246
C560	C	1.131311	0.622511	1.270246
C561	C	0.656799	0.147995	0.805061
C562	C	1.156799	0.647995	1.305061
C563	C	0.685960	0.177126	0.778447
C564	C	1.185960	0.677126	1.278447
H565	H	0.611388	0.144938	0.749406
H566	H	1.111388	0.644938	1.249406
H567	H	0.653733	0.102554	0.749420
H568	H	1.153733	0.602554	1.249420
H569	H	0.634380	0.167950	0.825878
H570	H	1.134380	0.667950	1.325878
H571	H	0.676732	0.125580	0.825902
H572	H	1.176732	0.625580	1.325902
H573	H	0.708382	0.157169	0.757621
H574	H	1.208382	0.657169	1.257621
H575	H	0.666033	0.199550	0.757608
H576	H	1.166033	0.699550	1.257608
H577	H	0.703261	0.194417	0.802065
H578	H	1.203261	0.694417	1.302065
H579	H	0.652444	0.143700	0.531687
H580	H	1.152444	0.643700	1.031687
H581	H	-0.191265	0.059100	0.083998
H582	H	0.308735	0.559100	0.583998
H583	H	-0.191246	0.059091	-0.083860
H584	H	0.308754	0.559091	0.416140
H585	H	-0.050775	0.060523	-0.130116
H586	H	0.449225	0.560523	0.369884
H587	H	-0.282730	0.058161	0.083996
H588	H	0.217270	0.558161	0.583996
C589	C	-0.289590	0.058018	-0.096373
C590	C	0.210410	0.558018	0.403627
C591	C	-0.312790	0.016126	-0.099066
C592	C	0.187210	0.516126	0.400934
C593	C	-0.338045	0.015784	-0.145289
C594	C	0.161955	0.515784	0.354711
H595	H	-0.267402	0.058218	-0.123963
H596	H	0.232598	0.558218	0.376037
H597	H	-0.313182	0.086002	-0.098307
H598	H	0.186818	0.586002	0.401693
H599	H	-0.289202	-0.011851	-0.097137
H600	H	0.210798	0.488149	0.402863
H601	H	-0.334986	0.015916	-0.071487
H602	H	0.165014	0.515916	0.428513
H603	H	-0.361637	0.043768	-0.147223
H604	H	0.138363	0.543768	0.352777
H605	H	-0.315854	0.015986	-0.172875
H606	H	0.184146	0.515986	0.327125
H607	H	-0.353793	-0.012637	-0.147120
H608	H	0.146207	0.487363	0.352880
H609	H	0.191921	0.062995	-0.130128
H610	H	0.691921	0.562995	0.369872
H611	H	0.332344	0.064460	-0.083880
H612	H	0.832344	0.564460	0.416120
H613	H	0.100426	0.062075	0.130243
H614	H	0.600426	0.562075	0.630243
H615	H	0.488668	-0.020169	0.371518
H616	H	0.988668	0.479831	0.871518
H617	H	0.517726	0.008963	0.125804
H618	H	1.017726	0.508963	0.625804
C619	C	0.474892	-0.785517	0.000002
C620	C	0.974892	-0.285517	0.500002
C621	C	0.436627	-0.747310	-0.000017
C622	C	0.936627	-0.247310	0.499983
C623	C	0.392226	-0.766314	-0.000056
C624	C	0.892226	-0.266314	0.499944
H625	H	0.472779	-0.804926	0.029585
H626	H	0.972779	-0.304926	0.529585
H627	H	0.472840	-0.804911	-0.029603
H628	H	0.972840	-0.304911	0.470397
H629	H	0.438678	-0.727924	0.029585
H630	H	0.938678	-0.227924	0.529585
H631	H	0.438725	-0.727897	-0.029598
H632	H	0.938725	-0.227897	0.470402
H633	H	0.390174	-0.785709	-0.029661
H634	H	0.890174	-0.285709	0.470339
H635	H	0.390118	-0.785724	0.029527
H636	H	0.890118	-0.285724	0.529527
H637	H	0.366258	-0.740394	-0.000074
H638	H	0.866258	-0.240394	0.499926
C639	C	0.509914	0.001023	0.230033
C640	C	1.009914	0.501023	0.730033
C641	C	0.539471	-0.031917	0.260700
C642	C	1.039471	0.468083	0.760700
C643	C	0.510463	-0.061071	0.287492
C644	C	1.010463	0.438929	0.787492
H645	H	0.492575	-0.016356	0.206541
H646	H	0.992575	0.483644	0.706541
H647	H	0.487530	0.020973	0.250905
H648	H	0.987530	0.520973	0.750905
H649	H	0.561847	-0.051864	0.239830
H650	H	1.061847	0.448136	0.739830
H651	H	0.556810	-0.014550	0.284202
H652	H	1.056810	0.485450	0.784202
H653	H	0.488078	-0.041122	0.308364
H654	H	0.988078	0.458878	0.808364
H655	H	0.493125	-0.078448	0.263996
H656	H	0.993125	0.421552	0.763996
H657	H	0.530512	-0.083422	0.308306
H658	H	1.030512	0.416578	0.808306
C659	C	0.476023	-0.680449	-0.000078
C660	C	0.976023	-0.180449	0.499922
C661	C	0.473740	-0.651153	-0.043742
C662	C	0.973740	-0.151153	0.456258
C663	C	0.429920	-0.619833	-0.043864
C664	C	0.929920	-0.119833	0.456136
H665	H	0.474333	-0.660487	0.029479
H666	H	0.974333	-0.160487	0.529479
H667	H	0.449535	-0.699042	-0.000108
H668	H	0.949535	-0.199042	0.499892
H669	H	0.500221	-0.632561	-0.043708
H670	H	1.000221	-0.132561	0.456292
H671	H	0.475422	-0.671102	-0.073307
H672	H	0.975422	-0.171102	0.426693
H673	H	0.403432	-0.638426	-0.043893
H674	H	0.903432	-0.138426	0.456107
H675	H	0.428234	-0.599874	-0.014305
H676	H	0.928234	-0.099874	0.485695
H677	H	0.428364	-0.599955	-0.073491
H678	H	0.928364	-0.099955	0.426509
H679	H	0.652448	0.143695	0.628591
H680	H	1.152448	0.643695	1.128591
C681	C	0.435790	-0.291274	-0.000061
C682	C	0.935790	0.208726	0.499939
C683	C	0.409081	-0.299863	-0.043718
C684	C	0.909081	0.200137	0.456282
C685	C	0.365208	-0.268627	-0.043813
C686	C	0.865208	0.231373	0.456187
H687	H	0.442374	-0.258493	-0.000084
H688	H	0.942374	0.241507	0.499916
H689	H	0.417558	-0.297045	0.029511
H690	H	0.917558	0.202955	0.529511
H691	H	0.427310	-0.294088	-0.073283
H692	H	0.927310	0.205912	0.426717
H693	H	0.402485	-0.332637	-0.043705
H694	H	0.902485	0.167363	0.456295
H695	H	0.346976	-0.274399	-0.014241
H696	H	0.846976	0.225601	0.485759
H697	H	0.371796	-0.235849	-0.043835
H698	H	0.871796	0.264151	0.456165
H699	H	0.347079	-0.274454	-0.073431
H700	H	0.847079	0.225546	0.426569
