data_functionalizedCrystal
_audit_creation_method	'MofGen! by Chris Wilmer'
_symmetry_space_group_name_H-M	'P1'
_symmetry_Int_Tables_number	1
_symmetry_cell_setting	triclinic
loop_
_symmetry_equiv_pos_as_xyz
  x,y,z
_cell_length_a	10.489741
_cell_length_b	8.597340
_cell_length_c	7.088929
_cell_angle_alpha	103.954719
_cell_angle_beta	96.283811
_cell_angle_gamma	95.063141
loop_
_atom_site_label
_atom_site_type_symbol
_atom_site_fract_x
_atom_site_fract_y
_atom_site_fract_z
O1	O	-0.175168	2.103382	0.187519
O2	O	-0.195989	1.638939	0.111009
O3	O	0.000108	1.881728	0.151001
O4	O	-0.371266	1.860592	0.147528
O5	O	0.026374	1.914174	0.474320
O6	O	-0.169724	1.671384	0.434329
O7	O	-0.148902	2.135828	0.510839
Cu8	Cu	-0.156915	1.906568	0.502105
Cu9	Cu	-0.187977	1.868198	0.119742
O10	O	-0.345000	1.893038	0.470847
C11	C	-0.182084	1.595689	0.262872
C12	C	-0.179766	1.418481	0.233679
C13	C	-0.405651	1.878412	0.309451
C14	C	-0.547240	1.883188	0.310241
C15	C	-0.614074	2.037667	0.335675
C16	C	-0.693862	1.980689	0.483065
C17	C	-0.719736	1.948664	0.164291
C18	C	-0.625152	1.826160	0.457753
C19	C	-0.651028	1.794142	0.138840
C20	C	-0.730786	1.737056	0.286250
C21	C	0.060759	1.896354	0.312392
C22	C	0.202346	1.891576	0.311589
C23	C	-0.162808	2.179076	0.358972
C24	C	-0.165128	2.356283	0.388152
N25	N	-0.135067	1.933568	0.771040
N26	N	-0.209815	1.841211	-0.149191
H27	H	-0.190525	1.336153	0.079076
H28	H	-0.154359	1.438604	0.542745
C29	C	-0.412858	2.202750	0.361342
C30	C	-0.545582	2.209144	0.364088
H31	H	-0.370580	2.308611	0.378868
H32	H	-0.379251	2.158604	0.464321
H33	H	-0.398732	2.136717	0.238955
H34	H	-0.559708	2.275167	0.486482
H35	H	-0.579200	2.253312	0.261102
H36	H	-0.713370	2.059577	0.628605
C37	C	-0.435835	1.744109	0.772844
C38	C	-0.314386	1.711986	0.719315
H39	H	-0.500393	1.664334	0.691646
H40	H	-0.437323	1.742265	0.906019
H41	H	-0.452163	1.847507	0.757136
H42	H	-0.298054	1.608593	0.735036
H43	H	-0.312895	1.713814	0.586107
C44	C	-0.629916	1.599402	0.600154
C45	C	-0.569492	1.756274	0.625376
H46	H	-0.595545	1.556261	0.703633
H47	H	-0.720143	1.601986	0.601626
H48	H	-0.615017	1.533563	0.478105
H49	H	-0.584398	1.822117	0.747419
H50	H	-0.479243	1.753699	0.623923
C51	C	-0.752763	1.922531	-0.183030
C52	C	-0.775601	2.018664	-0.003109
H53	H	-0.787256	1.965752	-0.286364
H54	H	-0.662409	1.920921	-0.183954
H55	H	-0.793155	1.815727	-0.200803
H56	H	-0.735201	2.125467	0.014671
H57	H	-0.865972	2.020292	-0.002182
H58	H	-0.781278	1.609937	0.265395
C59	C	-0.686069	1.531032	-0.085065
C60	C	-0.624637	1.687717	-0.057627
H61	H	-0.669779	1.465343	-0.206371
H62	H	-0.653631	1.487384	0.019022
H63	H	-0.776464	1.534108	-0.086485
H64	H	-0.534240	1.684642	-0.056192
H65	H	-0.657069	1.731375	-0.161741
H66	H	-0.057609	2.029304	0.868466
