data_functionalizedCrystal
_audit_creation_method	'MofGen! by Chris Wilmer'
_symmetry_space_group_name_H-M	'P1'
_symmetry_Int_Tables_number	1
_symmetry_cell_setting	triclinic
loop_
_symmetry_equiv_pos_as_xyz
  x,y,z
_cell_length_a	19.077105
_cell_length_b	12.759394
_cell_length_c	19.076919
_cell_angle_alpha	87.724147
_cell_angle_beta	89.923776
_cell_angle_gamma	87.710378
loop_
_atom_site_label
_atom_site_type_symbol
_atom_site_fract_x
_atom_site_fract_y
_atom_site_fract_z
Zn1	Zn	1.058332	-0.508277	0.440442
Zn2	Zn	1.391666	-0.174943	0.773775
Zn3	Zn	1.724999	0.158390	1.107109
Zn4	Zn	1.062993	-0.677204	0.322943
Zn5	Zn	1.396326	-0.343871	0.656277
Zn6	Zn	1.729660	-0.010537	0.989610
Zn7	Zn	0.945548	-0.494202	0.318235
Zn8	Zn	1.278882	-0.160869	0.651568
Zn9	Zn	1.612215	0.172464	0.984901
Zn10	Zn	0.940815	-0.676570	0.435696
Zn11	Zn	1.274148	-0.343237	0.769029
Zn12	Zn	1.607481	-0.009904	1.102362
O13	O	1.001922	-0.589063	0.379329
O14	O	1.335255	-0.255730	0.712662
O15	O	1.668589	0.077603	1.045996
O16	O	1.157283	-0.536841	0.428812
O17	O	1.490616	-0.203507	0.762146
O18	O	1.823950	0.129826	1.095479
O19	O	1.051345	-0.647303	0.223987
O20	O	1.384679	-0.313970	0.557320
O21	O	1.718012	0.019363	0.890654
O22	O	0.960540	-0.349051	0.334462
O23	O	1.293874	-0.015718	0.667795
O24	O	1.627207	0.317616	1.001128
O25	O	1.160707	-0.660951	0.342487
O26	O	1.494041	-0.327618	0.675820
O27	O	1.827374	0.005716	1.009153
O28	O	1.043402	-0.359391	0.424247
O29	O	1.376735	-0.026058	0.757580
O30	O	1.710069	0.307275	1.090913
O31	O	0.965059	-0.512853	0.220528
O32	O	1.298393	-0.179520	0.553861
O33	O	1.631726	0.153814	0.887194
O34	O	0.846588	-0.512239	0.329859
O35	O	1.179921	-0.178905	0.663193
O36	O	1.513255	0.154428	0.996526
O37	O	0.952472	-0.659871	0.534657
O38	O	1.285805	-0.326538	0.867990
O39	O	1.619139	0.006796	1.201324
O40	O	0.843110	-0.646224	0.416158
O41	O	1.176443	-0.312890	0.749491
O42	O	1.509777	0.020443	1.082824
O43	O	1.038812	-0.536226	0.538144
O44	O	1.372145	-0.202893	0.871477
O45	O	1.705478	0.130440	1.204811
O46	O	1.046755	-0.824138	0.337884
O47	O	1.380088	-0.490805	0.671218
O48	O	1.713422	-0.157472	1.004551
O49	O	0.956991	-0.823673	0.420723
O50	O	1.290324	-0.490339	0.754057
O51	O	1.623658	-0.157006	1.087390
C52	C	0.819352	-0.577636	0.371983
C53	C	1.152686	-0.244303	0.705316
C54	C	1.486019	0.089031	1.038650
C55	C	0.741248	-0.572773	0.368857
C56	C	1.074581	-0.239440	0.702190
C57	C	1.407914	0.093893	1.035524
C58	C	0.702764	-0.640345	0.412248
C59	C	1.036098	-0.307012	0.745582
C60	C	1.369431	0.026322	1.078915
C61	C	0.629376	-0.635763	0.409315
C62	C	0.962710	-0.302429	0.742648
C63	C	1.296043	0.030904	1.075981
C64	C	0.594473	-0.563613	0.362985
C65	C	0.927807	-0.230279	0.696318
C66	C	1.261140	0.103054	1.029652
C67	C	0.632962	-0.496034	0.319592
C68	C	0.966295	-0.162701	0.652925
C69	C	1.299629	0.170633	0.986258
C70	C	0.706348	-0.500612	0.322530
C71	C	1.039682	-0.167279	0.655863
C72	C	1.373015	0.166055	0.989196
C73	C	0.375184	-0.542425	0.349391
C74	C	0.708517	-0.209091	0.682725
C75	C	1.041850	0.124242	1.016058
C76	C	0.301792	-0.537854	0.346455
C77	C	0.635125	-0.204521	0.679789
C78	C	0.968459	0.128813	1.013122
C79	C	0.298211	-0.677582	0.436180
C80	C	0.631545	-0.344248	0.769513
C81	C	0.964878	-0.010915	1.102846
C82	C	0.371600	-0.682158	0.439110
C83	C	0.704933	-0.348824	0.772444
C84	C	1.038266	-0.015491	1.105777
C85	C	0.410082	-0.614575	0.395720
C86	C	0.743415	-0.281242	0.729053
C87	C	1.076748	0.052091	1.062386
N88	N	0.519459	-0.558929	0.359984
N89	N	0.852793	-0.225596	0.693317
N90	N	1.186126	0.107737	1.026650
N91	N	0.485094	-0.619254	0.398725
N92	N	0.818427	-0.285921	0.732059
N93	N	1.151761	0.047412	1.065392
C94	C	1.001883	-0.862028	0.379316
C95	C	1.335217	-0.528695	0.712649
C96	C	1.668550	-0.195361	1.045982
C97	C	1.001930	-0.978809	0.379336
C98	C	1.335264	-0.645475	0.712670
C99	C	1.668597	-0.312142	1.046003
C100	C	1.088144	-0.989417	0.472894
C101	C	1.421478	-0.656084	0.806228
C102	C	1.754811	-0.322751	1.139561
C103	C	1.131273	-1.049584	0.519679
C104	C	1.464607	-0.716251	0.853013
C105	C	1.797940	-0.382918	1.186346
C106	C	1.131314	-1.159309	0.519696
C107	C	1.464648	-0.825976	0.853030
C108	C	1.797981	-0.492643	1.186363
C109	C	1.088220	-1.208870	0.472924
C110	C	1.421554	-0.875536	0.806258
C111	C	1.754887	-0.542203	1.139591
C112	C	1.045091	-1.148703	0.426139
C113	C	1.378425	-0.815369	0.759472
C114	C	1.711758	-0.482036	1.092806
C115	C	1.045057	-1.038976	0.426126
C116	C	1.378390	-0.705642	0.759459
C117	C	1.711723	-0.372309	1.092793
C118	C	0.958875	-1.138094	0.332586
C119	C	1.292208	-0.804760	0.665919
C120	C	1.625541	-0.471427	0.999252
C121	C	0.958836	-1.028369	0.332564
C122	C	1.292170	-0.695035	0.665898
C123	C	1.625503	-0.361702	0.999231
C124	C	0.915781	-1.187654	0.285814
C125	C	1.249114	-0.854321	0.619147
C126	C	1.582447	-0.520987	0.952480
C127	C	0.872655	-1.127487	0.239024
C128	C	1.205988	-0.794153	0.572357
C129	C	1.539321	-0.460820	0.905691
C130	C	0.872616	-1.017755	0.239009
C131	C	1.205949	-0.684422	0.572342
C132	C	1.539282	-0.351089	0.905675
C133	C	0.915707	-0.968202	0.285779
C134	C	1.249041	-0.634868	0.619112
C135	C	1.582374	-0.301535	0.952446
C136	C	1.185205	-0.600536	0.386704
C137	C	1.518538	-0.267203	0.720037
C138	C	1.851871	0.066130	1.053371
C139	C	1.263309	-0.605426	0.389847
C140	C	1.596642	-0.272092	0.723180
C141	C	1.929975	0.061241	1.056514
C142	C	0.994594	-0.599548	0.562610
C143	C	1.327927	-0.266215	0.895943
C144	C	1.661261	0.067119	1.229276
C145	C	0.991471	-0.604016	0.640713
C146	C	1.324804	-0.270682	0.974046
C147	C	1.658138	0.062651	1.307380
C148	C	1.001979	-0.315035	0.379358
C149	C	1.335313	0.018298	0.712692
C150	C	1.668646	0.351631	1.046025
C151	C	1.002004	-0.198261	0.379371
C152	C	1.335337	0.135073	0.712704
C153	C	1.668670	0.468406	1.046037
C154	C	1.009262	-0.578546	0.196763
C155	C	1.342595	-0.245213	0.530096
C156	C	1.675929	0.088120	0.863430
C157	C	1.012521	-0.573791	0.118665
C158	C	1.345854	-0.240458	0.451999
C159	C	1.679188	0.092876	0.785332
C160	C	1.034954	-0.541743	0.679223
C161	C	1.368288	-0.208409	1.012556
C162	C	1.701621	0.124924	1.345889
C163	C	1.032011	-0.545936	0.752609
C164	C	1.365345	-0.212603	1.085942
C165	C	1.698678	0.120731	1.419275
C166	C	0.985589	-0.612409	0.787484
C167	C	1.318922	-0.279076	1.120817
C168	C	1.652255	0.054258	1.454150
C169	C	0.942101	-0.674685	0.748969
C170	C	1.275434	-0.341351	1.082302
C171	C	1.608767	-0.008018	1.415635
C172	C	0.945040	-0.670485	0.675584
C173	C	1.278374	-0.337152	1.008917
C174	C	1.611707	-0.003818	1.342251
C175	C	0.971973	-0.631867	1.006766
C176	C	1.305306	-0.298534	1.340099
C177	C	1.638640	0.034800	1.673432
C178	C	0.969038	-0.636064	1.080156
C179	C	1.302371	-0.302731	1.413489
C180	C	1.635705	0.030602	1.746823
C181	C	1.058948	-0.507314	1.083791
C182	C	1.392281	-0.173981	1.417124
C183	C	1.725615	0.159353	1.750457
C184	C	1.061887	-0.503125	1.010404
C185	C	1.395220	-0.169791	1.343738
C186	C	1.728553	0.163542	1.677071
C187	C	1.018396	-0.565396	0.971896
C188	C	1.351730	-0.232063	1.305229
C189	C	1.685063	0.101271	1.638562
N190	N	0.982581	-0.616699	0.862496
N191	N	1.315914	-0.283366	1.195829
N192	N	1.649248	0.049967	1.529163
N193	N	1.021401	-0.561099	0.896885
N194	N	1.354734	-0.227766	1.230218
N195	N	1.688067	0.105567	1.563551
H196	H	0.273376	-0.479089	0.308733
H197	H	0.606709	-0.145756	0.642066
H198	H	0.940043	0.187578	0.975399
Cl199	Cl	1.113616	-0.429031	1.132205
Cl200	Cl	1.446949	-0.095698	1.465539
Cl201	Cl	1.780282	0.237636	1.798872
Cl202	Cl	1.120250	-0.419556	0.966567
Cl203	Cl	1.453583	-0.086222	1.299900
Cl204	Cl	1.786916	0.247111	1.633233
Cl205	Cl	0.915933	-1.325595	0.285742
Cl206	Cl	1.249266	-0.992262	0.619076
Cl207	Cl	1.582599	-0.658928	0.952409
Cl208	Cl	0.415472	-0.772867	0.497354
Cl209	Cl	0.748806	-0.439533	0.830687
Cl210	Cl	1.082139	-0.106200	1.164020
H211	H	0.837567	-1.167848	0.200949
H212	H	1.170901	-0.834514	0.534283
H213	H	1.504234	-0.501181	0.867616
H214	H	0.731177	-0.699101	0.449973
H215	H	1.064510	-0.365767	0.783306
H216	H	1.397844	-0.032434	1.116639
Cl217	Cl	0.818390	-0.942126	0.180192
Cl218	Cl	1.151723	-0.608792	0.513526
Cl219	Cl	1.485056	-0.275459	0.846859
H220	H	0.931233	-0.690197	1.108549
H221	H	1.264566	-0.356864	1.441882
H222	H	1.597899	-0.023530	1.775216
H223	H	1.067422	-0.495229	0.783960
H224	H	1.400755	-0.161896	1.117293
H225	H	1.734088	0.171437	1.450627
Cl226	Cl	0.915651	-0.830261	0.285774
Cl227	Cl	1.248984	-0.496928	0.619108
Cl228	Cl	1.582317	-0.163595	0.952441
H229	H	0.266872	-0.732602	0.471507
H230	H	0.600205	-0.399269	0.804840
H231	H	0.933538	-0.065935	1.138173
Cl232	Cl	1.093321	-0.458178	0.635387
Cl233	Cl	1.426654	-0.124844	0.968720
Cl234	Cl	1.759988	0.208489	1.302054
Cl235	Cl	0.423551	-0.457460	0.294845
Cl236	Cl	0.756885	-0.124127	0.628178
Cl237	Cl	1.090218	0.209206	0.961511
H238	H	0.604538	-0.437284	0.281872
H239	H	0.937871	-0.103950	0.615206
H240	H	1.271205	0.229383	0.948539
Cl241	Cl	0.890371	-0.748771	0.627171
Cl242	Cl	1.223705	-0.415438	0.960505
Cl243	Cl	1.557038	-0.082105	1.293838
H244	H	0.936570	-0.682589	0.975421
H245	H	1.269904	-0.349256	1.308754
H246	H	1.603237	-0.015922	1.642088
Cl247	Cl	0.883738	-0.758247	0.792812
Cl248	Cl	1.217071	-0.424914	1.126145
Cl249	Cl	1.550404	-0.091581	1.459479
H250	H	0.598046	-0.690788	0.444648
H251	H	0.931380	-0.357454	0.777981
H252	H	1.264713	-0.024121	1.111315
Cl253	Cl	1.088086	-0.851477	0.472886
Cl254	Cl	1.421420	-0.518143	0.806219
Cl255	Cl	1.754753	-0.184810	1.139552
H256	H	1.166359	-1.009223	0.557762
H257	H	1.499692	-0.675890	0.891096
H258	H	1.833025	-0.342556	1.224429
Cl259	Cl	0.754728	-0.415658	0.267980
Cl260	Cl	1.088061	-0.082325	0.601313
Cl261	Cl	1.421394	0.251008	0.934646
H262	H	1.166426	-1.208298	0.557800
H263	H	1.499759	-0.874964	0.891133
H264	H	1.833093	-0.541631	1.224467
H265	H	1.088252	-1.298214	0.472948
H266	H	1.421585	-0.964881	0.806281
H267	H	1.754918	-0.631547	1.139615
