data_functionalizedCrystal
_audit_creation_method	'MofGen! by Chris Wilmer'
_symmetry_space_group_name_H-M	'P1'
_symmetry_Int_Tables_number	1
_symmetry_cell_setting	triclinic
loop_
_symmetry_equiv_pos_as_xyz
  x,y,z
_cell_length_a	19.188925
_cell_length_b	19.188924
_cell_length_c	14.586319
_cell_angle_alpha	89.994146
_cell_angle_beta	89.995548
_cell_angle_gamma	83.142256
loop_
_atom_site_label
_atom_site_type_symbol
_atom_site_fract_x
_atom_site_fract_y
_atom_site_fract_z
O1	O	0.926144	0.087149	-0.076264
O2	O	1.426144	0.587149	0.423736
O3	O	0.722832	0.098887	-0.076262
O4	O	1.222832	0.598887	0.423738
O5	O	0.830358	-0.008638	-0.076253
O6	O	1.330358	0.491362	0.423747
O7	O	0.818618	0.194674	-0.076274
O8	O	1.318618	0.694674	0.423726
O9	O	0.830350	-0.008640	0.076228
O10	O	1.330350	0.491360	0.576228
O11	O	0.722825	0.098886	0.076219
O12	O	1.222825	0.598886	0.576219
O13	O	0.926137	0.087147	0.076217
O14	O	1.426137	0.587147	0.576217
Cu15	Cu	0.824480	0.093016	0.090140
Cu16	Cu	1.324480	0.593016	0.590140
Cu17	Cu	0.824489	0.093018	-0.090186
Cu18	Cu	1.324489	0.593018	0.409814
O19	O	0.818611	0.194673	0.076207
O20	O	1.318611	0.694673	0.576207
C21	C	0.696817	0.098507	-0.000022
C22	C	1.196817	0.598507	0.499978
C23	C	0.619313	0.097368	-0.000020
C24	C	1.119313	0.597368	0.499980
C25	C	0.057541	0.152832	-0.000028
C26	C	0.557541	0.652832	0.499972
C27	C	0.130364	0.153908	-0.000033
C28	C	0.630364	0.653908	0.499967
C29	C	0.175300	0.090816	-0.000025
C30	C	0.675300	0.590816	0.499975
C31	C	0.147408	0.026642	-0.000035
C32	C	0.647408	0.526642	0.499965
C33	C	0.074586	0.025568	-0.000039
C34	C	0.574586	0.525568	0.499961
N35	N	0.295976	0.045139	0.051885
N36	N	0.795976	0.545139	0.551885
N37	N	0.365153	0.046164	0.051891
N38	N	0.865153	0.546164	0.551891
C39	C	0.394709	0.094050	-0.000015
C40	C	0.894709	0.594050	0.499985
N41	N	0.352473	0.140883	-0.051915
N42	N	0.852473	0.640883	0.448085
N43	N	0.283289	0.139859	-0.051917
N44	N	0.783289	0.639859	0.448083
C45	C	0.254264	0.091974	-0.000021
C46	C	0.754264	0.591974	0.499979
C47	C	0.501557	0.159387	-0.000016
C48	C	1.001557	0.659387	0.499984
C49	C	0.574381	0.160461	-0.000027
C50	C	1.074381	0.660461	0.499973
C51	C	0.591424	0.033193	-0.000020
C52	C	1.091424	0.533193	0.499980
C53	C	0.518600	0.032121	-0.000018
C54	C	1.018600	0.532121	0.499982
C55	C	0.473671	0.095220	-0.000012
C56	C	0.973671	0.595220	0.499988
C57	C	0.829975	-0.034650	-0.000011
C58	C	1.329975	0.465350	0.499989
C59	C	0.828836	-0.112155	-0.000009
C60	C	1.328836	0.387845	0.499991
C61	C	0.828308	-0.148553	-0.083126
C62	C	1.328308	0.351447	0.416874
C63	C	0.827229	-0.221375	-0.083133
C64	C	1.327229	0.278625	0.416867
C65	C	0.826690	-0.257799	-0.000018
C66	C	1.326690	0.242201	0.499982
C67	C	0.827214	-0.221392	0.083110
C68	C	1.327214	0.278608	0.583110
C69	C	0.828287	-0.148570	0.083115
C70	C	1.328287	0.351430	0.583115
N71	N	0.864735	-0.377464	0.061842
N72	N	1.364735	0.122536	0.561842
N73	N	0.863717	-0.446642	0.061832
N74	N	1.363717	0.053358	0.561832
C75	C	0.823456	-0.477208	-0.000027
C76	C	1.323456	0.022792	0.499973
N77	N	0.784260	-0.435984	-0.061890
N78	N	1.284260	0.064016	0.438110
N79	N	0.785281	-0.366800	-0.061882
N80	N	1.285281	0.133200	0.438118
C81	C	0.825526	-0.336763	-0.000014
C82	C	1.325526	0.163237	0.499986
C83	C	0.821757	-0.592569	-0.083158
C84	C	1.321757	-0.092569	0.416842
C85	C	0.820672	-0.665392	-0.083161
C86	C	1.320672	-0.165392	0.416839
C87	C	0.820665	-0.665408	0.083085
C88	C	1.320665	-0.165408	0.583085
C89	C	0.821742	-0.592585	0.083086
C90	C	1.321742	-0.092585	0.583086
C91	C	0.822291	-0.556170	-0.000038
C92	C	1.322291	-0.056170	0.499962
C93	C	0.952151	0.087528	-0.000026
C94	C	1.452151	0.587528	0.499974
C95	C	1.029656	0.088667	-0.000033
C96	C	1.529656	0.588667	0.499967
C97	C	0.818994	0.220684	-0.000036
C98	C	1.318994	0.720684	0.499964
C99	C	0.820133	0.298189	-0.000045
C100	C	1.320133	0.798189	0.499955
N101	N	0.824479	0.093015	0.216972
N102	N	1.324479	0.593015	0.716972
N103	N	0.824495	0.093014	-0.217018
N104	N	1.324495	0.593014	0.282982
C105	C	0.872107	0.045418	0.451983
C106	C	1.372107	0.545418	0.951983
C107	C	0.872109	0.045417	0.547964
C108	C	1.372109	0.545417	1.047964
C109	C	0.776862	0.140613	0.547965
C110	C	1.276862	0.640613	1.047965
C111	C	0.776857	0.140611	0.451985
C112	C	1.276857	0.640611	0.951985
C113	C	0.824484	0.093014	0.403997
C114	C	1.324484	0.593014	0.903997
C115	C	0.824491	0.093015	0.595958
C116	C	1.324491	0.593015	1.095958
C117	C	0.824492	0.093013	0.700025
C118	C	1.324492	0.593013	1.200025
C119	C	0.824481	0.093015	0.299923
C120	C	1.324481	0.593015	0.799923
H121	H	0.153073	0.206161	-0.000021
H122	H	0.653073	0.706161	0.499979
C123	C	0.640844	-0.036208	-0.000013
C124	C	1.140844	0.463792	0.499987
H125	H	0.688209	-0.026379	-0.000006
H126	H	1.188209	0.473621	0.499994
H127	H	0.632414	-0.062527	-0.053185
H128	H	1.132414	0.437473	0.446815
H129	H	0.632408	-0.062530	0.053169
H130	H	1.132408	0.437470	0.553169
H131	H	0.051883	-0.026685	-0.000044
H132	H	0.551883	0.473315	0.499956
H133	H	0.826773	-0.251052	0.150783
H134	H	1.326773	0.248948	0.650783
H135	H	0.828754	-0.118908	-0.150812
H136	H	1.328754	0.381092	0.349188
C137	C	0.487925	-0.038462	-0.000008
C138	C	0.987925	0.461538	0.499992
H139	H	0.525115	-0.075884	0.000004
H140	H	1.025115	0.424116	0.500004
H141	H	0.459874	-0.041527	-0.053181
H142	H	0.959874	0.458473	0.446819
H143	H	0.459869	-0.041525	0.053173
H144	H	0.959869	0.458475	0.553173
H145	H	0.597083	0.212714	-0.000031
H146	H	1.097083	0.712714	0.499969
H147	H	0.183999	-0.024728	-0.000031
H148	H	0.683999	0.475272	0.499969
H149	H	0.910886	0.006661	0.412913
H150	H	1.410886	0.506661	0.912913
H151	H	0.020963	0.204212	-0.000028
H152	H	0.520963	0.704212	0.499972
H153	H	0.820221	-0.695063	0.150759
H154	H	1.320221	-0.195063	0.650759
H155	H	0.826795	-0.251016	-0.150820
H156	H	1.326795	0.248984	0.349180
C157	C	0.724476	0.192972	0.399193
C158	C	1.224476	0.692972	0.899193
H159	H	0.731291	0.186149	0.335158
H160	H	1.231291	0.686149	0.835158
H161	H	0.731916	0.239552	0.414912
H162	H	1.231916	0.739552	0.914912
H163	H	0.677900	0.185507	0.414929
H164	H	1.177900	0.685507	0.914929
C165	C	0.452132	0.228791	-0.000030
C166	C	0.952132	0.728791	0.499970
H167	H	0.479172	0.267161	-0.000044
H168	H	0.979172	0.767161	0.499956
H169	H	0.423364	0.231021	0.053141
H170	H	0.923364	0.731021	0.553141
H171	H	0.423377	0.231013	-0.053213
H172	H	0.923377	0.731013	0.446787
C173	C	0.828873	-0.108531	0.174548
C174	C	1.328873	0.391469	0.674548
H175	H	0.828401	-0.140651	0.224050
H176	H	1.328401	0.359349	0.724050
H177	H	0.788588	-0.074669	0.178006
H178	H	1.288588	0.425331	0.678006
H179	H	0.870006	-0.085580	0.178003
H180	H	1.370006	0.414420	0.678003
H181	H	0.910887	0.006659	0.587032
H182	H	1.410887	0.506659	1.087032
H183	H	0.738087	0.179366	0.587047
H184	H	1.238087	0.679366	1.087047
C185	C	0.822353	-0.552508	-0.174588
C186	C	1.322353	-0.052508	0.325412
H187	H	0.821873	-0.584617	-0.224092
H188	H	1.321873	-0.084617	0.275908
H189	H	0.863479	-0.529553	-0.178043
H190	H	1.363479	-0.029553	0.321957
H191	H	0.782061	-0.518648	-0.178039
H192	H	1.282061	-0.018648	0.321961
C193	C	0.820089	-0.705430	-0.174595
C194	C	1.320089	-0.205430	0.325405
H195	H	0.820575	-0.673311	-0.224096
H196	H	1.320575	-0.173311	0.275904
H197	H	0.778963	-0.728384	-0.178057
H198	H	1.278963	-0.228384	0.321943
H199	H	0.860380	-0.739291	-0.178048
H200	H	1.360380	-0.239291	0.321952
H201	H	0.822177	-0.562950	0.150770
H202	H	1.322177	-0.062950	0.650770
