data_functionalizedCrystal
_audit_creation_method	'MofGen! by Chris Wilmer'
_symmetry_space_group_name_H-M	'P1'
_symmetry_Int_Tables_number	1
_symmetry_cell_setting	triclinic
loop_
_symmetry_equiv_pos_as_xyz
  x,y,z
_cell_length_a	19.288864
_cell_length_b	10.654541
_cell_length_c	17.766277
_cell_angle_alpha	89.993913
_cell_angle_beta	89.976791
_cell_angle_gamma	83.810087
loop_
_atom_site_label
_atom_site_type_symbol
_atom_site_fract_x
_atom_site_fract_y
_atom_site_fract_z
O1	O	0.922378	0.156657	-0.062836
O2	O	1.422378	0.656657	0.437164
O3	O	0.720256	0.177790	-0.062784
O4	O	1.220256	0.677790	0.437216
O5	O	0.825965	-0.015616	-0.062806
O6	O	1.325965	0.484384	0.437194
O7	O	0.816669	0.350062	-0.062813
O8	O	1.316669	0.850062	0.437187
O9	O	0.825946	-0.015625	0.062382
O10	O	1.325946	0.484375	0.562382
O11	O	0.720237	0.177780	0.062404
O12	O	1.220237	0.677780	0.562404
O13	O	0.922359	0.156647	0.062353
O14	O	1.422359	0.656647	0.562353
Cu15	Cu	0.821296	0.167213	0.073809
Cu16	Cu	1.321296	0.667213	0.573809
Cu17	Cu	0.821319	0.167224	-0.074241
Cu18	Cu	1.321319	0.667224	0.425759
O19	O	0.816650	0.350053	0.062375
O20	O	1.316650	0.850053	0.562375
C21	C	0.694365	0.177105	-0.000183
C22	C	1.194365	0.677105	0.499817
C23	C	0.617248	0.175064	-0.000163
C24	C	1.117248	0.675064	0.499837
C25	C	0.573295	0.288545	-0.000177
C26	C	1.073295	0.788545	0.499823
C27	C	0.500835	0.286627	-0.000186
C28	C	1.000835	0.786627	0.499814
C29	C	0.472332	0.171222	-0.000195
C30	C	0.972332	0.671222	0.499805
C31	C	0.516296	0.057725	-0.000177
C32	C	1.016296	0.557725	0.499823
C33	C	0.588754	0.059646	-0.000161
C34	C	1.088754	0.559646	0.499839
C35	C	0.363483	0.080504	-0.044078
C36	C	0.863483	0.580504	0.455922
C37	C	0.291026	0.078588	-0.044098
C38	C	0.791026	0.578588	0.455902
C39	C	0.248848	0.165292	-0.000241
C40	C	0.748848	0.665292	0.499759
C41	C	0.279134	0.253935	0.043628
C42	C	0.779134	0.753935	0.543628
C43	C	0.351592	0.255856	0.043644
C44	C	0.851592	0.755856	0.543644
C45	C	0.393765	0.169126	-0.000212
C46	C	0.893765	0.669126	0.499788
C47	C	0.126325	0.276702	-0.000262
C48	C	0.626325	0.776702	0.499738
C49	C	0.053864	0.274780	-0.000266
C50	C	0.553864	0.774780	0.499734
C51	C	0.069327	0.045875	-0.000265
C52	C	0.569327	0.545875	0.499735
C53	C	0.141786	0.047800	-0.000254
C54	C	0.641786	0.547800	0.499746
C55	C	0.170280	0.163218	-0.000256
C56	C	0.670280	0.663218	0.499744
C57	C	0.825273	-0.062404	-0.000212
C58	C	1.325273	0.437596	0.499788
C59	C	0.823232	-0.201804	-0.000213
C60	C	1.323232	0.298196	0.499787
C61	C	0.949636	-0.232480	-0.000236
C62	C	1.449636	0.267520	0.499764
C63	C	1.011877	-0.313307	-0.000245
C64	C	1.511877	0.186693	0.499755
C65	C	1.009955	-0.444284	-0.000247
C66	C	1.509955	0.055716	0.499753
C67	C	0.945785	-0.494436	-0.000242
C68	C	1.445785	0.005564	0.499758
C69	C	0.883545	-0.413609	-0.000232
C70	C	1.383545	0.086391	0.499768
C71	C	0.885474	-0.282631	-0.000228
C72	C	1.385474	0.217369	0.499772
C73	C	0.757142	-0.382933	-0.000215
C74	C	1.257142	0.117067	0.499785
C75	C	0.759063	-0.251955	-0.000208
C76	C	1.259063	0.248045	0.499792
C77	C	0.692973	-0.433084	-0.000210
C78	C	1.192973	0.066916	0.499790
C79	C	0.630732	-0.352257	-0.000195
C80	C	1.130732	0.147743	0.499805
C81	C	0.632656	-0.221273	-0.000192
C82	C	1.132656	0.278727	0.499808
C83	C	0.696823	-0.171129	-0.000198
C84	C	1.196823	0.328871	0.499802
C85	C	0.948250	0.157332	-0.000250
C86	C	1.448250	0.657332	0.499750
C87	C	1.025367	0.159373	-0.000274
C88	C	1.525367	0.659373	0.499726
C89	C	0.817342	0.396841	-0.000220
C90	C	1.317342	0.896841	0.499780
C91	C	0.819383	0.536241	-0.000225
C92	C	1.319383	1.036241	0.499775
N93	N	0.821286	0.167204	0.177940
N94	N	1.321286	0.667204	0.677940
N95	N	0.821335	0.167223	-0.178371
N96	N	1.321335	0.667223	0.321629
C97	C	0.868109	0.081606	0.217317
C98	C	1.368109	0.581606	0.717317
C99	C	0.868113	0.081600	0.296119
C100	C	1.368113	0.581600	0.796119
C101	C	0.821301	0.167214	0.335540
C102	C	1.321301	0.667214	0.835540
C103	C	0.774468	0.252818	0.296154
C104	C	1.274468	0.752818	0.796154
C105	C	0.774461	0.252813	0.217354
C106	C	1.274461	0.752813	0.717354
C107	C	0.812750	0.281635	0.460378
C108	C	1.312750	0.781635	0.960378
C109	C	0.812763	0.281642	0.539176
C110	C	1.312763	0.781642	1.039176
C111	C	0.821319	0.167229	0.578587
C112	C	1.321319	0.667229	1.078587
C113	C	0.829878	0.052804	0.539188
C114	C	1.329878	0.552804	1.039188
C115	C	0.829871	0.052799	0.460388
C116	C	1.329871	0.552799	0.960388
C117	C	0.821303	0.167228	0.420986
C118	C	1.321303	0.667228	0.920986
C119	C	0.868150	0.081617	0.703410
C120	C	1.368150	0.581617	1.203410
C121	C	0.868149	0.081610	0.782213
C122	C	1.368149	0.581610	1.282213
C123	C	0.774507	0.252839	0.782247
C124	C	1.274507	0.752839	1.282247
C125	C	0.774504	0.252836	0.703445
C126	C	1.274504	0.752836	1.203445
C127	C	0.821329	0.167226	0.664031
C128	C	1.321329	0.667226	1.164031
H129	H	0.596490	0.382527	-0.000181
H130	H	1.096490	0.882527	0.499819
H131	H	0.465041	0.379041	-0.000195
H132	H	0.965041	0.879041	0.499805
H133	H	0.018077	0.367194	-0.000273
H134	H	0.518077	0.867194	0.499727
H135	H	0.376248	0.328028	0.079365
H136	H	0.876248	0.828028	0.579365
H137	H	0.493085	-0.036239	-0.000195
H138	H	0.993085	0.463761	0.499805
H139	H	1.064122	-0.272459	-0.000243
H140	H	1.564122	0.227541	0.499757
H141	H	0.944226	-0.601085	-0.000253
H142	H	1.444226	-0.101085	0.499747
H143	H	0.691413	-0.539734	-0.000216
H144	H	1.191413	-0.039734	0.499784
H145	H	0.906275	0.011905	0.671318
H146	H	1.406275	0.511905	1.171318
H147	H	0.397820	0.009895	-0.079797
H148	H	0.897820	0.509895	0.420203
H149	H	0.177574	-0.044609	-0.000246
H150	H	0.677574	0.455391	0.499754
H151	H	0.906276	0.011899	0.814274
H152	H	1.406276	0.511899	1.314274
H153	H	0.578490	-0.393102	-0.000195
H154	H	1.078490	0.106898	0.499805
H155	H	0.244794	0.324538	0.079342
H156	H	0.744794	0.824538	0.579342
H157	H	0.736379	0.322543	0.671382
H158	H	1.236379	0.822543	1.171382
H159	H	0.581972	-0.155470	-0.000187
H160	H	1.081972	0.344530	0.499813
H161	H	0.906235	0.011895	0.185228
H162	H	1.406235	0.511895	0.685228
H163	H	1.060636	-0.510094	-0.000261
H164	H	1.560636	-0.010094	0.499739
H165	H	0.698396	-0.064483	-0.000191
H166	H	1.198396	0.435517	0.499809
H167	H	0.906244	0.011893	0.328185
H168	H	1.406244	0.511893	0.828185
H169	H	0.149526	0.370682	-0.000253
H170	H	0.649526	0.870682	0.499747
H171	H	0.836838	-0.040369	0.428313
H172	H	1.336838	0.459631	0.928313
H173	H	0.836846	-0.040362	0.571274
H174	H	1.336846	0.459638	1.071274
H175	H	0.624542	-0.032767	-0.000150
H176	H	1.124542	0.467233	0.499850
H177	H	0.736388	0.322543	0.814343
H178	H	1.236388	0.822543	1.314343
H179	H	0.046121	-0.048091	-0.000319
H180	H	0.546121	0.451909	0.499681
H181	H	0.951208	-0.125834	-0.000224
H182	H	1.451208	0.374166	0.499776
H183	H	0.805798	0.374812	0.571249
H184	H	1.305798	0.874812	1.071249
H185	H	0.805771	0.374810	0.428296
H186	H	1.305771	0.874810	0.928296
H187	H	0.736331	0.322519	0.185292
H188	H	1.236331	0.822519	0.685292
H189	H	0.266373	0.006415	-0.079822
H190	H	0.766373	0.506415	0.420178
H191	H	0.736351	0.322525	0.328255
H192	H	1.236351	0.822525	0.828255
