data_functionalizedCrystal
_audit_creation_method	'MofGen! by Chris Wilmer'
_symmetry_space_group_name_H-M	'P1'
_symmetry_Int_Tables_number	1
_symmetry_cell_setting	triclinic
loop_
_symmetry_equiv_pos_as_xyz
  x,y,z
_cell_length_a	18.215407
_cell_length_b	18.215405
_cell_length_c	18.215399
_cell_angle_alpha	89.969449
_cell_angle_beta	89.981439
_cell_angle_gamma	90.016621
loop_
_atom_site_label
_atom_site_type_symbol
_atom_site_fract_x
_atom_site_fract_y
_atom_site_fract_z
Zn1	Zn	-1.125072	0.293154	0.416077
Zn2	Zn	-0.625072	0.793154	0.916077
Zn3	Zn	-1.124980	0.416225	0.293006
Zn4	Zn	-0.624980	0.916225	0.793006
Zn5	Zn	-1.002004	0.293159	0.293028
Zn6	Zn	-0.502004	0.793159	0.793028
Zn7	Zn	-1.001970	0.416166	0.416033
Zn8	Zn	-0.501970	0.916166	0.916033
O9	O	-1.063507	0.354676	0.354536
O10	O	-0.563507	0.854676	0.854536
O11	O	-1.228044	0.309503	0.399761
O12	O	-0.728044	0.809503	0.899761
O13	O	-1.108643	0.399928	0.190024
O14	O	-0.608643	0.899928	0.690024
O15	O	-1.018382	0.190174	0.309378
O16	O	-0.518382	0.690174	0.809378
O17	O	-1.227977	0.399922	0.309341
O18	O	-0.727977	0.899922	0.809341
O19	O	-1.108799	0.190171	0.399782
O20	O	-0.608799	0.690171	0.899782
O21	O	-1.018293	0.309512	0.190040
O22	O	-0.518293	0.809512	0.690040
O23	O	-0.899016	0.309454	0.309335
O24	O	-0.399016	0.809454	0.809335
O25	O	-1.018324	0.399821	0.519023
O26	O	-0.518324	0.899821	1.019023
O27	O	-0.898991	0.399826	0.399707
O28	O	-0.398991	0.899826	0.899707
O29	O	-1.108766	0.309445	0.519056
O30	O	-0.608766	0.809445	1.019056
O31	O	-1.108610	0.519202	0.309298
O32	O	-0.608610	1.019202	0.809298
O33	O	-1.018235	0.519158	0.399686
O34	O	-0.518235	1.019158	0.899686
C35	C	-0.872300	0.354634	0.354519
C36	C	-0.372300	0.854634	0.854519
C37	C	-0.790502	0.354634	0.354529
C38	C	-0.290502	0.854634	0.854529
C39	C	-1.063429	0.545882	0.354501
C40	C	-0.563429	1.045882	0.854501
C41	C	-1.063463	0.627681	0.354510
C42	C	-0.563463	1.127681	0.854510
C43	C	-1.063552	0.354625	0.546489
C44	C	-0.563552	0.854625	1.046489
C45	C	-1.063571	0.354604	0.628288
C46	C	-0.563571	0.854604	1.128288
C47	C	-0.525473	0.307659	0.401686
C48	C	-0.025473	0.807659	0.901686
C49	C	-0.602332	0.307651	0.401685
C50	C	-0.102332	0.807651	0.901685
C51	C	-0.602281	0.401669	0.307389
C52	C	-0.102281	0.901669	0.807389
C53	C	-0.525424	0.401680	0.307395
C54	C	-0.025424	0.901680	0.807395
C55	C	-0.487022	0.354671	0.354542
C56	C	0.012978	0.854671	0.854542
C57	C	-0.640738	0.354651	0.354535
C58	C	-0.140738	0.854651	0.854535
C59	C	-0.724072	0.354643	0.354533
C60	C	-0.224072	0.854643	0.854533
C61	C	-0.403683	0.354680	0.354545
C62	C	0.096317	0.854680	0.854545
C63	C	-0.255460	0.354706	0.354550
C64	C	0.244540	0.854706	0.854550
C65	C	-0.337259	0.354688	0.354548
C66	C	0.162741	0.854688	0.854548
C67	C	-1.063605	0.162723	0.354588
C68	C	-0.563605	0.662723	0.854588
C69	C	-1.063647	0.080924	0.354610
C70	C	-0.563647	0.580924	0.854610
C71	C	-1.110632	0.815874	0.307532
C72	C	-0.610632	1.315874	0.807532
C73	C	-1.110665	0.892732	0.307550
C74	C	-0.610665	1.392732	0.807550
C75	C	-1.016476	0.892727	0.401593
C76	C	-0.516476	1.392727	0.901593
C77	C	-1.016447	0.815869	0.401579
C78	C	-0.516447	1.315869	0.901579
C79	C	-1.063524	0.777445	0.354544
C80	C	-0.563524	1.277445	0.854544
C81	C	-1.063586	0.931161	0.354576
C82	C	-0.563586	1.431161	0.854576
C83	C	-1.063621	1.014494	0.354596
C84	C	-0.563621	1.514494	0.854596
C85	C	-1.063490	0.694106	0.354525
C86	C	-0.563490	1.194106	0.854525
C87	C	-1.063504	0.354674	0.163330
C88	C	-0.563504	0.854674	0.663330
C89	C	-1.063628	0.354488	0.081531
C90	C	-0.563628	0.854488	0.581531
C91	C	-1.110681	0.307501	0.816500
C92	C	-0.610681	0.807501	1.316500
C93	C	-1.110690	0.307480	0.893359
C94	C	-0.610690	0.807480	1.393359
C95	C	-1.016513	0.401593	0.893314
C96	C	-0.516513	0.901593	1.393314
C97	C	-1.016501	0.401610	0.816456
C98	C	-0.516501	0.901610	1.316456
C99	C	-1.063589	0.354565	0.778052
C100	C	-0.563589	0.854565	1.278052
C101	C	-1.063610	0.354527	0.931768
C102	C	-0.563610	0.854527	1.431768
C103	C	-1.063619	0.354504	1.015101
C104	C	-0.563619	0.854504	1.515101
C105	C	-1.063579	0.354587	0.694713
C106	C	-0.563579	0.854587	1.194713
H107	H	-0.494209	0.269381	0.440076
H108	H	0.005791	0.769381	0.940076
H109	H	-0.633636	0.269370	0.440075
H110	H	-0.133636	0.769370	0.940075
H111	H	-0.633558	0.439940	0.269002
H112	H	-0.133558	0.939940	0.769002
H113	H	-0.978086	0.784578	0.439865
H114	H	-0.478086	1.284578	0.939865
C115	C	-1.162484	0.935001	0.255830
C116	C	-0.662484	1.435001	0.755830
N117	N	-1.201516	0.966837	0.216871
N118	N	-0.701516	1.466837	0.716871
H119	H	-0.978146	0.924021	0.439886
H120	H	-0.478146	1.424021	0.939886
H121	H	-0.494116	0.439967	0.269004
H122	H	0.005884	0.939967	0.769004
C123	C	-1.162473	0.255744	0.774257
C124	C	-0.662473	0.755744	1.274257
N125	N	-1.201482	0.216756	0.742442
N126	N	-0.701482	0.716756	1.242442
C127	C	-0.964691	0.453385	0.774160
C128	C	-0.464691	0.953385	1.274160
N129	N	-0.925667	0.492378	0.742303
N130	N	-0.425667	0.992378	1.242303
H131	H	-1.148966	0.784590	0.269234
H132	H	-0.648966	1.284590	0.769234
H133	H	-1.149035	0.269154	0.924660
H134	H	-0.649035	0.769154	1.424660
C135	C	-0.964717	0.453338	0.935566
C136	C	-0.464717	0.953338	1.435566
N137	N	-0.925703	0.492313	0.967390
N138	N	-0.425703	0.992313	1.467390
