data_functionalizedCrystal
_audit_creation_method	'MofGen! by Chris Wilmer'
_symmetry_space_group_name_H-M	'P1'
_symmetry_Int_Tables_number	1
_symmetry_cell_setting	triclinic
loop_
_symmetry_equiv_pos_as_xyz
  x,y,z
_cell_length_a	12.827893
_cell_length_b	29.839131
_cell_length_c	29.839125
_cell_angle_alpha	89.982291
_cell_angle_beta	89.989731
_cell_angle_gamma	90.041391
loop_
_atom_site_label
_atom_site_type_symbol
_atom_site_fract_x
_atom_site_fract_y
_atom_site_fract_z
Zn1	Zn	1.597388	-0.178917	-0.253985
Zn2	Zn	1.597230	-0.254029	-0.178855
Zn3	Zn	1.422657	-0.178913	-0.178870
Zn4	Zn	1.422535	-0.254020	-0.253958
O5	O	1.509952	-0.216470	-0.216417
O6	O	1.743603	-0.188885	-0.244023
O7	O	1.574057	-0.244067	-0.115989
O8	O	1.445952	-0.116047	-0.188851
O9	O	1.743487	-0.244070	-0.188826
O10	O	1.574326	-0.116049	-0.244038
O11	O	1.445799	-0.188880	-0.116000
O12	O	1.276404	-0.188872	-0.188826
O13	O	1.445745	-0.244056	-0.316829
O14	O	1.276315	-0.244052	-0.243993
O15	O	1.574208	-0.188877	-0.316848
O16	O	1.573939	-0.316895	-0.188800
O17	O	1.445592	-0.316889	-0.243978
C18	C	1.238442	-0.216461	-0.216408
C19	C	1.122289	-0.216468	-0.216415
C20	C	1.070488	-0.243816	-0.243672
C21	C	0.950438	-0.243824	-0.243680
C22	C	1.509764	-0.333192	-0.216395
C23	C	1.509778	-0.383127	-0.216400
C24	C	1.576904	-0.692761	-0.187727
C25	C	1.577033	-0.880434	-0.187745
O26	O	1.633956	-0.904691	-0.163349
N27	N	1.510169	-0.903912	-0.216451
C28	C	1.443272	-0.880469	-0.245156
O29	O	1.386411	-0.904745	-0.269576
C30	C	1.443149	-0.692797	-0.245141
C31	C	1.510011	-0.669321	-0.216430
C32	C	1.643761	-0.669285	-0.159019
C33	C	1.643724	-0.622370	-0.159013
C34	C	1.576830	-0.598930	-0.187716
C35	C	1.509974	-0.622406	-0.216424
C36	C	1.376259	-0.669354	-0.273848
C37	C	1.376236	-0.622433	-0.273843
C38	C	1.443097	-0.598958	-0.245132
C39	C	1.443043	-0.552050	-0.245121
N40	N	1.509908	-0.528572	-0.216415
C41	C	1.576801	-0.552012	-0.187712
C42	C	1.443340	-0.978999	-0.245162
C43	C	1.443369	-1.025917	-0.245165
C44	C	1.577132	-1.025879	-0.187754
C45	C	1.577097	-0.978960	-0.187749
C46	C	1.510205	-0.955521	-0.216456
C47	C	1.576718	-0.453486	-0.187702
C48	C	1.576672	-0.406567	-0.187698
C49	C	1.442914	-0.406609	-0.245110
C50	C	1.442955	-0.453524	-0.245113
C51	C	1.509866	-0.476962	-0.216408
O52	O	1.386158	-0.527765	-0.269507
O53	O	1.633671	-0.527728	-0.163303
C54	C	1.576941	-0.739676	-0.187733
C55	C	1.510085	-0.763152	-0.216441
C56	C	1.443191	-0.739712	-0.245144
C57	C	1.510114	-0.810070	-0.216445
C58	C	1.577007	-0.833509	-0.187742
C59	C	1.643872	-0.810031	-0.159037
C60	C	1.643835	-0.763116	-0.159031
C61	C	1.376327	-0.763190	-0.273850
C62	C	1.376368	-0.810106	-0.273853
C63	C	1.443262	-0.833545	-0.245150
C64	C	1.782522	-0.216479	-0.216426
C65	C	1.898675	-0.216483	-0.216429
C66	C	1.509981	-0.216466	-0.333595
C67	C	1.509993	-0.216464	-0.383530
C68	C	1.510170	-0.099291	-0.216449
C69	C	1.510263	-0.049357	-0.216463
C70	C	1.576954	-0.187657	-0.693186
C71	C	1.577006	-0.187619	-0.880859
O72	O	1.633861	-0.163169	-0.905135
N73	N	1.510131	-0.216344	-0.904315
C74	C	1.443234	-0.245078	-0.880849
O75	O	1.386347	-0.269506	-0.905106
C76	C	1.443178	-0.245114	-0.693177
C77	C	1.510064	-0.216390	-0.669724
C78	C	1.643834	-0.158936	-0.669733
C79	C	1.643824	-0.158948	-0.622818
C80	C	1.576935	-0.187681	-0.599355
C81	C	1.510055	-0.216402	-0.622808
C82	C	1.376276	-0.273845	-0.669712
C83	C	1.376266	-0.273851	-0.622791
C84	C	1.443152	-0.245127	-0.599338
C85	C	1.443155	-0.245146	-0.552431
N86	N	1.510030	-0.216422	-0.528975
C87	C	1.576919	-0.187689	-0.552437
C88	C	1.443270	-0.245058	-0.979380
C89	C	1.443285	-0.245049	-1.026298
C90	C	1.577056	-0.187590	-1.026305
C91	C	1.577045	-0.187601	-0.979386
C92	C	1.510144	-0.216333	-0.955924
C93	C	1.576895	-0.187716	-0.453912
C94	C	1.576882	-0.187731	-0.406992
C95	C	1.443108	-0.245189	-0.406989
C96	C	1.443124	-0.245175	-0.453905
C97	C	1.510021	-0.216435	-0.477365
O98	O	1.386321	-0.269580	-0.528126
O99	O	1.633782	-0.163258	-0.528173
C100	C	1.576963	-0.187646	-0.740102
C101	C	1.510083	-0.216367	-0.763555
C102	C	1.443194	-0.245100	-0.740093
C103	C	1.510099	-0.216359	-0.810473
C104	C	1.576988	-0.187626	-0.833935
C105	C	1.643863	-0.158901	-0.810479
C106	C	1.643853	-0.158913	-0.763564
C107	C	1.376319	-0.273825	-0.763548
C108	C	1.376335	-0.273811	-0.810464
C109	C	1.443225	-0.245078	-0.833926
C110	C	1.509984	-0.216441	-0.099694
C111	C	1.510175	-0.216317	-0.049760
H112	H	1.115016	-0.267222	-0.267003
C113	C	1.717442	-0.127295	-0.836292
H114	H	1.757281	-0.110190	-0.815608
H115	H	1.677502	-0.107718	-0.854596
H116	H	1.762947	-0.144483	-0.854594
C117	C	1.650710	-1.051668	-0.156181
H118	H	1.641149	-1.082972	-0.160299
H119	H	1.635468	-1.043999	-0.125989
H120	H	1.720914	-1.043950	-0.162786
H121	H	1.077762	-0.193059	-0.193088
C122	C	0.958836	-0.184849	-0.184903
H123	H	0.910787	-0.167699	-0.167806
H124	H	1.001456	-0.165315	-0.202138
H125	H	1.001375	-0.202021	-0.165308
C126	C	1.650635	-0.155986	-1.052119
H127	H	1.641055	-0.160096	-1.083420
H128	H	1.720836	-0.162561	-1.044432
H129	H	1.635387	-0.125799	-1.044437
C130	C	1.369717	-0.276648	-1.052091
H131	H	1.329874	-0.293757	-1.031394
H132	H	1.409653	-0.296222	-1.070393
H133	H	1.324216	-0.259455	-1.070393
H134	H	1.388652	-0.268584	-0.387878
C135	C	0.890270	-0.275444	-0.275217
H136	H	0.938319	-0.292595	-0.292314
H137	H	0.847740	-0.258265	-0.294804
H138	H	0.847642	-0.294985	-0.257990
H139	H	1.631118	-0.387454	-0.164316
C140	C	1.717420	-0.127313	-0.737771
H141	H	1.757246	-0.110199	-0.758470
H142	H	1.762922	-0.144499	-0.719467
H143	H	1.677471	-0.107738	-0.719472
H144	H	1.388792	-0.268458	-0.960282
C145	C	1.302820	-0.835926	-0.305437
H146	H	1.312412	-0.867226	-0.301332
H147	H	1.318067	-0.828212	-0.335625
H148	H	1.232606	-0.828272	-0.298835
C149	C	1.302737	-0.305433	-0.737746
H150	H	1.262920	-0.322538	-0.758438
H151	H	1.257228	-0.288254	-0.719442
H152	H	1.342676	-0.325017	-0.719445
H153	H	1.631205	-0.472563	-0.164328
H154	H	1.698171	-0.603258	-0.135636
H155	H	1.321810	-0.297235	-0.688800
H156	H	1.321775	-0.297244	-0.603691
C157	C	1.717344	-0.695062	-0.127441
H158	H	1.757145	-0.674355	-0.110343
H159	H	1.762869	-0.713340	-0.144638
H160	H	1.677405	-0.713386	-0.107849
C161	C	1.650454	-0.156132	-0.381196
H162	H	1.690282	-0.139015	-0.401892
H163	H	1.695954	-0.173320	-0.362893
H164	H	1.610503	-0.136558	-0.362895
H165	H	1.631541	-0.959849	-0.164370
H166	H	1.388914	-1.045027	-0.268540
H167	H	1.388670	-0.268568	-0.473001
H168	H	1.698304	-0.135536	-0.688831
C169	C	1.369743	-0.953222	-0.276737
H170	H	1.329922	-0.973928	-0.293827
H171	H	1.409659	-0.934893	-0.296329
H172	H	1.324221	-0.934948	-0.259529
C173	C	1.302753	-0.305408	-0.836257
H174	H	1.262911	-0.322517	-0.815560
H175	H	1.342681	-0.324982	-0.854563
H176	H	1.257251	-0.288212	-0.854556
C177	C	1.302718	-0.695167	-0.305434
H178	H	1.262891	-0.674482	-0.322529
H179	H	1.257216	-0.713499	-0.288241
H180	H	1.342683	-0.713442	-0.325028
H181	H	1.321765	-0.603352	-0.297221
C182	C	1.369409	-0.479349	-0.276693
H183	H	1.329569	-0.458667	-0.293788
H184	H	1.323919	-0.497683	-0.259497
H185	H	1.409380	-0.497620	-0.296288
C186	C	1.369341	-0.380819	-0.276682
H187	H	1.378911	-0.349515	-0.272568
H188	H	1.299140	-0.388538	-0.270087
H189	H	1.384606	-0.388488	-0.306875
C190	C	1.717452	-0.835821	-0.127464
H191	H	1.707894	-0.867125	-0.131585
H192	H	1.702208	-0.828154	-0.097271
H193	H	1.787654	-0.828101	-0.134068
C194	C	1.650487	-0.156106	-0.479711
H195	H	1.690319	-0.139008	-0.459018
H196	H	1.610566	-0.136522	-0.498015
H197	H	1.695998	-0.173292	-0.498011
H198	H	1.698280	-0.744005	-0.135652
C199	C	1.717390	-0.127348	-0.597025
H200	H	1.757215	-0.110233	-0.617723
H201	H	1.762892	-0.144533	-0.578720
H202	H	1.677439	-0.107772	-0.578726
C203	C	1.650608	-0.156001	-0.953592
H204	H	1.690438	-0.138887	-0.974289
H205	H	1.696105	-0.173186	-0.935285
H206	H	1.610654	-0.136425	-0.935294
H207	H	1.321855	-0.744109	-0.297223
