data_functionalizedCrystal
_audit_creation_method	'MofGen! by Chris Wilmer'
_symmetry_space_group_name_H-M	'P1'
_symmetry_Int_Tables_number	1
_symmetry_cell_setting	triclinic
loop_
_symmetry_equiv_pos_as_xyz
  x,y,z
_cell_length_a	10.723022
_cell_length_b	10.723023
_cell_length_c	7.540329
_cell_angle_alpha	89.997411
_cell_angle_beta	89.997341
_cell_angle_gamma	84.467387
loop_
_atom_site_label
_atom_site_type_symbol
_atom_site_fract_x
_atom_site_fract_y
_atom_site_fract_z
O1	O	1.657187	0.175016	-0.147467
O2	O	1.294034	0.191771	-0.147472
O3	O	1.483987	0.001818	-0.147462
O4	O	1.467233	0.364970	-0.147477
O5	O	1.483976	0.001815	0.147503
O6	O	1.294022	0.191769	0.147493
O7	O	1.657175	0.175014	0.147498
Cu8	Cu	1.475598	0.183391	0.174428
Cu9	Cu	1.475611	0.183394	-0.174402
O10	O	1.467222	0.364968	0.147488
C11	C	1.247529	0.190551	0.000009
C12	C	1.108974	0.186904	0.000007
C13	C	0.890796	0.289421	-0.000000
C14	C	1.033998	0.293192	0.000002
C15	C	1.482763	-0.044683	0.000018
C16	C	1.479115	-0.183238	0.000013
C17	C	1.477495	-0.245002	-0.152790
C18	C	1.473726	-0.388205	-0.152800
C19	C	1.703681	0.176234	0.000013
C20	C	1.842235	0.179881	0.000003
C21	C	1.468446	0.411469	0.000004
C22	C	1.472094	0.550023	-0.000002
N23	N	1.475597	0.183388	0.419777
N24	N	1.475621	0.183387	-0.419751
H25	H	1.067171	0.093113	-0.000036
O26	O	1.473533	-0.386543	0.156033
C27	C	1.367643	-0.298000	0.165491
H28	H	1.291205	-0.328079	0.074314
H29	H	1.331462	-0.291965	0.307697
H30	H	1.394635	-0.202360	0.122114
H31	H	0.826353	0.380409	-0.000015
O32	O	1.084074	0.404979	-0.000092
C33	C	1.215906	0.383859	-0.000046
H34	H	1.245516	0.286705	-0.055872
H35	H	1.256605	0.457619	-0.085697
H36	H	1.252199	0.390176	0.141461
O37	O	0.919230	0.071409	-0.000230
C38	C	0.995344	0.066681	-0.153018
H39	H	1.002647	0.165811	-0.203954
H40	H	1.092821	0.021152	-0.118660
H41	H	0.952116	0.009258	-0.259986
O42	O	1.477608	-0.246507	0.156191
C43	C	1.586342	-0.228032	0.254059
H44	H	1.624808	-0.137870	0.208530
H45	H	1.562182	-0.220755	0.401161
H46	H	1.659960	-0.310531	0.231627
H47	H	1.478894	-0.191863	-0.283604
O48	O	1.471836	-0.451596	-0.308825
C49	C	1.361979	-0.513725	-0.318278
H50	H	1.287606	-0.465178	-0.227104
H51	H	1.325723	-0.510897	-0.460484
H52	H	1.383775	-0.615336	-0.274894
