data_functionalizedCrystal
_audit_creation_method	'MofGen! by Chris Wilmer'
_symmetry_space_group_name_H-M	'P1'
_symmetry_Int_Tables_number	1
_symmetry_cell_setting	triclinic
loop_
_symmetry_equiv_pos_as_xyz
  x,y,z
_cell_length_a	29.839135
_cell_length_b	29.839131
_cell_length_c	29.839125
_cell_angle_alpha	90.013540
_cell_angle_beta	90.015488
_cell_angle_gamma	90.044233
loop_
_atom_site_label
_atom_site_type_symbol
_atom_site_fract_x
_atom_site_fract_y
_atom_site_fract_z
Zn1	Zn	0.686719	-0.178886	0.254060
Zn2	Zn	1.186719	0.321114	0.754060
Zn3	Zn	0.686651	-0.253998	0.178936
Zn4	Zn	1.186651	0.246002	0.678936
Zn5	Zn	0.611602	-0.178886	0.178938
Zn6	Zn	1.111602	0.321114	0.678938
Zn7	Zn	0.611549	-0.253993	0.254033
Zn8	Zn	1.111549	0.246007	0.754033
O9	O	0.649130	-0.216441	0.216492
O10	O	1.149130	0.283559	0.716492
O11	O	0.749577	-0.188852	0.244105
O12	O	1.249577	0.311148	0.744105
O13	O	0.676689	-0.244036	0.116069
O14	O	1.176689	0.255964	0.616069
O15	O	0.621617	-0.116019	0.188916
O16	O	1.121617	0.383981	0.688916
O17	O	0.749527	-0.244036	0.188912
O18	O	1.249527	0.255964	0.688912
O19	O	0.676805	-0.116019	0.244108
O20	O	1.176805	0.383981	0.744108
O21	O	0.621550	-0.188852	0.116071
O22	O	1.121550	0.311148	0.616071
O23	O	0.548727	-0.188847	0.188889
O24	O	1.048727	0.311153	0.688889
O25	O	0.621527	-0.244028	0.316903
O26	O	1.121527	0.255972	0.816903
O27	O	0.548689	-0.244028	0.244061
O28	O	1.048689	0.255972	0.744061
O29	O	0.676754	-0.188847	0.316924
O30	O	1.176754	0.311153	0.816924
O31	O	0.676638	-0.316864	0.188885
O32	O	1.176638	0.183136	0.688885
O33	O	0.621461	-0.316861	0.244058
O34	O	1.121461	0.183139	0.744058
C35	C	0.532407	-0.216437	0.216473
C36	C	1.032407	0.283563	0.716473
C37	C	0.482473	-0.216447	0.216475
C38	C	0.982473	0.283553	0.716475
C39	C	0.172853	-0.187750	0.245273
C40	C	0.672853	0.312250	0.745273
C41	C	-0.014820	-0.187753	0.245286
C42	C	0.485180	0.312247	0.745286
O43	O	-0.039066	-0.163344	0.269750
O44	O	0.460934	0.336656	0.769750
N45	N	-0.038312	-0.216441	0.216508
N46	N	0.461688	0.283559	0.716508
C47	C	-0.014883	-0.245129	0.187723
C48	C	0.485117	0.254871	0.687723
O49	O	-0.039170	-0.269527	0.163242
O50	O	0.460830	0.230473	0.663242
C51	C	0.172789	-0.245123	0.187708
C52	C	0.672789	0.254877	0.687708
C53	C	0.196279	-0.216436	0.216491
C54	C	0.696279	0.283564	0.716491
C55	C	0.196342	-0.159065	0.274054
C56	C	0.696342	0.340935	0.774054
C57	C	0.243257	-0.159066	0.274052
C58	C	0.743257	0.340934	0.774052
C59	C	0.266684	-0.187752	0.245270
C60	C	0.766684	0.312248	0.745270
C61	C	0.243194	-0.216437	0.216489
C62	C	0.743194	0.283563	0.716489
C63	C	0.196218	-0.273808	0.158921
C64	C	0.696218	0.226192	0.658921
C65	C	0.243139	-0.273803	0.158919
C66	C	0.743139	0.226197	0.658919
C67	C	0.266628	-0.245116	0.187702
C68	C	0.766628	0.254884	0.687702
C69	C	0.313536	-0.245125	0.187706
C70	C	0.813536	0.254875	0.687706
N71	N	0.337028	-0.216437	0.216484
N72	N	0.837028	0.283563	0.716484
C73	C	0.313601	-0.187750	0.245266
C74	C	0.813601	0.312250	0.745266
C75	C	-0.113413	-0.245130	0.187733
C76	C	0.386587	0.254870	0.687733
C77	C	-0.160331	-0.245133	0.187737
C78	C	0.339669	0.254867	0.687737
C79	C	-0.160266	-0.187756	0.245300
C80	C	0.339734	0.312244	0.745300
C81	C	-0.113347	-0.187756	0.245298
C82	C	0.386653	0.312244	0.745298
C83	C	-0.089922	-0.216442	0.216511
C84	C	0.410078	0.283558	0.716511
C85	C	0.412127	-0.187755	0.245260
C86	C	0.912127	0.312245	0.745260
C87	C	0.459047	-0.187760	0.245257
C88	C	0.959047	0.312240	0.745257
C89	C	0.458977	-0.245135	0.187693
C90	C	0.958977	0.254865	0.687693
C91	C	0.412062	-0.245132	0.187697
C92	C	0.912062	0.254868	0.687697
C93	C	0.388638	-0.216438	0.216482
C94	C	0.888638	0.283562	0.716482
O95	O	0.337810	-0.269518	0.163251
O96	O	0.837810	0.230482	0.663251
O97	O	0.337897	-0.163349	0.269735
O98	O	0.837897	0.336651	0.769735
C99	C	0.125937	-0.187749	0.245275
C100	C	0.625937	0.312251	0.745275
C101	C	0.102448	-0.216434	0.216495
C102	C	0.602448	0.283566	0.716495
C103	C	0.125874	-0.245120	0.187713
C104	C	0.625874	0.254880	0.687713
C105	C	0.055530	-0.216436	0.216499
C106	C	0.555530	0.283564	0.716499
C107	C	0.032104	-0.187749	0.245281
C108	C	0.532104	0.312251	0.745281
C109	C	0.055596	-0.159061	0.274059
C110	C	0.555596	0.340939	0.774059
C111	C	0.102511	-0.159062	0.274057
C112	C	0.602511	0.340938	0.774057
C113	C	0.102382	-0.273808	0.158935
C114	C	0.602382	0.226192	0.658935
C115	C	0.055467	-0.273805	0.158939
C116	C	0.555467	0.226195	0.658939
C117	C	0.032041	-0.245119	0.187721
C118	C	0.532041	0.254881	0.687721
C119	C	0.649048	-0.333163	0.216478
C120	C	1.149048	0.166837	0.716478
C121	C	0.649054	-0.383098	0.216487
C122	C	1.149054	0.116902	0.716487
C123	C	0.620418	-0.739699	0.245219
C124	C	1.120418	-0.239699	0.745219
C125	C	0.620358	-0.552026	0.245205
C126	C	1.120358	-0.052026	0.745205
O127	O	0.595913	-0.527773	0.269625
O128	O	1.095913	-0.027773	0.769625
N129	N	0.649102	-0.528543	0.216500
N130	N	1.149102	-0.028543	0.716500
C131	C	0.677864	-0.551981	0.187800
C132	C	1.177864	-0.051981	0.687800
O133	O	0.702314	-0.527702	0.163388
O134	O	1.202314	-0.027702	0.663388
C135	C	0.677926	-0.739654	0.187817
C136	C	1.177926	-0.239654	0.687817
C137	C	0.649177	-0.763134	0.216519
C138	C	1.149177	-0.263134	0.716519
C139	C	0.591672	-0.763179	0.273919
C140	C	1.091672	-0.263179	0.773919
C141	C	0.591685	-0.810094	0.273921
C142	C	1.091685	-0.310094	0.773921
C143	C	0.620445	-0.833530	0.245222
C144	C	1.120445	-0.333530	0.745222
C145	C	0.649190	-0.810049	0.216521
C146	C	1.149190	-0.310049	0.716521
C147	C	0.706690	-0.763091	0.159119
C148	C	1.206690	-0.263091	0.659119
C149	C	0.706703	-0.810012	0.159126
C150	C	1.206703	-0.310012	0.659126
C151	C	0.677955	-0.833492	0.187829
C152	C	1.177955	-0.333492	0.687829
C153	C	0.677963	-0.880400	0.187823
C154	C	1.177963	-0.380400	0.687823
N155	N	0.649220	-0.903883	0.216527
N156	N	1.149220	-0.403883	0.716527
C157	C	0.620460	-0.880447	0.245226
C158	C	1.120460	-0.380447	0.745226
C159	C	0.677829	-0.453451	0.187793
C160	C	1.177829	0.046549	0.687793
C161	C	0.677814	-0.406533	0.187788
C162	C	1.177814	0.093467	0.687788
C163	C	0.620308	-0.406580	0.245193
C164	C	1.120308	0.093420	0.745193
C165	C	0.620322	-0.453499	0.245195
C166	C	1.120322	0.046501	0.745195
C167	C	0.649086	-0.476933	0.216497
C168	C	1.149086	0.023067	0.716497
C169	C	0.620490	-0.978973	0.245227
C170	C	1.120490	-0.478973	0.745227
C171	C	0.620505	-1.025893	0.245225
C172	C	1.120505	-0.525893	0.745225
C173	C	0.678012	-1.025841	0.187821
C174	C	1.178012	-0.525841	0.687821
C175	C	0.677996	-0.978926	0.187822
C176	C	1.177996	-0.478926	0.687822
C177	C	0.649234	-0.955493	0.216528
C178	C	1.149234	-0.455493	0.716528
O179	O	0.702399	-0.904682	0.163419
O180	O	1.202399	-0.404682	0.663419
O181	O	0.596021	-0.904735	0.269641
O182	O	1.096021	-0.404735	0.769641
C183	C	0.620404	-0.692783	0.245217
C184	C	1.120404	-0.192783	0.745217
C185	C	0.649150	-0.669303	0.216516
C186	C	1.149150	-0.169303	0.716516
C187	C	0.677909	-0.692738	0.187817
C188	C	1.177909	-0.192738	0.687817
C189	C	0.649134	-0.622385	0.216512
C190	C	1.149134	-0.122385	0.716512
C191	C	0.620375	-0.598950	0.245211
C192	C	1.120375	-0.098950	0.745211
C193	C	0.591632	-0.622433	0.273915
C194	C	1.091632	-0.122433	0.773915
C195	C	0.591645	-0.669348	0.273916
C196	C	1.091645	-0.169348	0.773916
C197	C	0.706653	-0.669255	0.159113
C198	C	1.206653	-0.169255	0.659113
C199	C	0.706637	-0.622340	0.159114
C200	C	1.206637	-0.122340	0.659114
C201	C	0.677878	-0.598905	0.187813
C202	C	1.177878	-0.098905	0.687813
C203	C	0.766308	-0.216445	0.216511
C204	C	1.266308	0.283555	0.716511
C205	C	0.816243	-0.216446	0.216520
C206	C	1.316243	0.283554	0.716520
C207	C	0.649142	-0.216437	0.333670
C208	C	1.149142	0.283563	0.833670
C209	C	0.649147	-0.216435	0.383605
C210	C	1.149147	0.283565	0.883605
C211	C	0.649224	-0.099262	0.216515
C212	C	1.149224	0.400738	0.716515
C213	C	0.649264	-0.049328	0.216525
C214	C	1.149264	0.450672	0.716525
C215	C	0.649144	-0.216412	0.099769
C216	C	1.149144	0.283588	0.599769
C217	C	0.649226	-0.216288	0.049835
C218	C	1.149226	0.283712	0.549835
C219	C	0.677934	-0.187627	0.693262
C220	C	1.177934	0.312373	1.193262
C221	C	0.677956	-0.187589	0.880935
C222	C	1.177956	0.312411	1.380935
O223	O	0.702399	-0.163138	0.905211
O224	O	1.202399	0.336862	1.405211
N225	N	0.649207	-0.216315	0.904390
N226	N	1.149207	0.283685	1.404390
C227	C	0.620448	-0.245050	0.880924
C228	C	1.120448	0.254950	1.380924
O229	O	0.595991	-0.269479	0.905180
O230	O	1.095991	0.230521	1.405180
C231	C	0.620423	-0.245086	0.693251
C232	C	1.120423	0.254914	1.193251
C233	C	0.649178	-0.216361	0.669799
C234	C	1.149178	0.283639	1.169799
C235	C	0.706686	-0.158905	0.669809
C236	C	1.206686	0.341095	1.169809
C237	C	0.706682	-0.158916	0.622893
C238	C	1.206682	0.341084	1.122893
C239	C	0.677926	-0.187650	0.599431
C240	C	1.177926	0.312350	1.099431
C241	C	0.649174	-0.216373	0.622883
C242	C	1.149174	0.283627	1.122883
C243	C	0.591662	-0.273819	0.669786
C244	C	1.091662	0.226181	1.169786
C245	C	0.591658	-0.273824	0.622865
C246	C	1.091658	0.226176	1.122865
C247	C	0.620412	-0.245100	0.599413
C248	C	1.120412	0.254900	1.099413
C249	C	0.620414	-0.245119	0.552505
C250	C	1.120414	0.254881	1.052505
N251	N	0.649163	-0.216393	0.529050
N252	N	1.149163	0.283607	1.029050
C253	C	0.677919	-0.187659	0.552513
C254	C	1.177919	0.312341	1.052513
C255	C	0.620463	-0.245030	0.979454
C256	C	1.120463	0.254970	1.479454
C257	C	0.620469	-0.245022	1.026372
C258	C	1.120469	0.254978	1.526372
C259	C	0.677978	-0.187560	1.026380
C260	C	1.177978	0.312440	1.526380
C261	C	0.677973	-0.187571	0.979461
C262	C	1.177973	0.312429	1.479461
C263	C	0.649213	-0.216304	0.955999
C264	C	1.149213	0.283696	1.455999
C265	C	0.677909	-0.187685	0.453987
C266	C	1.177909	0.312315	0.953987
C267	C	0.677903	-0.187701	0.407067
C268	C	1.177903	0.312299	0.907067
C269	C	0.620393	-0.245161	0.407064
C270	C	1.120393	0.254839	0.907064
C271	C	0.620400	-0.245147	0.453979
C272	C	1.120400	0.254853	0.953979
C273	C	0.649159	-0.216406	0.477440
C274	C	1.149159	0.283594	0.977440
O275	O	0.595981	-0.269553	0.528200
O276	O	1.095981	0.230447	1.028200
O277	O	0.702365	-0.163226	0.528249
O278	O	1.202365	0.336774	1.028249
C279	C	0.677938	-0.187616	0.740177
C280	C	1.177938	0.312384	1.240177
C281	C	0.649186	-0.216338	0.763630
C282	C	1.149186	0.283662	1.263630
C283	C	0.620430	-0.245072	0.740167
C284	C	1.120430	0.254928	1.240167
C285	C	0.649193	-0.216330	0.810548
C286	C	1.149193	0.283670	1.310548
C287	C	0.677949	-0.187596	0.834010
C288	C	1.177949	0.312404	1.334010
C289	C	0.706699	-0.158870	0.810555
C290	C	1.206699	0.341130	1.310555
C291	C	0.706694	-0.158881	0.763640
C292	C	1.206694	0.341119	1.263640
C293	C	0.591681	-0.273798	0.763622
C294	C	1.091681	0.226202	1.263622
C295	C	0.591687	-0.273785	0.810538
C296	C	1.091687	0.226215	1.310538
C297	C	0.620444	-0.245050	0.834000
C298	C	1.120444	0.254950	1.334000
H299	H	0.177273	-0.135702	0.297492
H300	H	0.677273	0.364298	0.797492
H301	H	0.730046	-0.603225	0.135736
H302	H	1.230046	-0.103225	0.635736
C303	C	0.128144	-0.305369	0.127272
C304	C	0.628144	0.194631	0.627272
N305	N	0.147547	-0.329144	0.103423
N306	N	0.647547	0.170856	0.603423
C307	C	0.029634	-0.305364	0.127271
C308	C	0.529634	0.194636	0.627271
N309	N	0.010178	-0.329129	0.103416
N310	N	0.510178	0.170871	0.603416
H311	H	0.730096	-0.135525	0.603803
H312	H	1.230096	0.364475	1.103803
C313	C	0.588879	-1.051718	0.276802
C314	C	1.088879	-0.551718	0.776802
N315	N	0.565060	-1.071169	0.300586
N316	N	1.065060	-0.571169	0.800586
C317	C	0.269090	-0.127501	0.305710
C318	C	0.769090	0.372499	0.805710
N319	N	0.288543	-0.103723	0.329554
N320	N	0.788543	0.396277	0.829554
H321	H	0.701393	-0.164164	1.045491
H322	H	1.201393	0.335836	1.545491
H323	H	0.701326	-0.164280	0.473083
H324	H	1.201326	0.335720	0.973083
C325	C	0.588761	-0.276765	0.381246
C326	C	1.088761	0.223235	0.881246
N327	N	0.564932	-0.300566	0.361798
N328	N	1.064932	0.199434	0.861798
H329	H	0.568247	-0.297209	0.688873
H330	H	1.068247	0.202791	1.188873
H331	H	-0.179452	-0.268497	0.164304
H332	H	0.320548	0.231503	0.664304
C333	C	0.738345	-0.835787	0.127553
C334	C	1.238345	-0.335787	0.627553
N335	N	0.762177	-0.855200	0.103771
N336	N	1.262177	-0.355200	0.603771
H337	H	0.568213	-0.603344	0.297281
H338	H	1.068213	-0.103344	0.797281
H339	H	0.730103	-0.135503	0.688907
H340	H	1.230103	0.364497	1.188907
C341	C	0.709432	-0.380710	0.156205
C342	C	1.209432	0.119290	0.656205
N343	N	0.733248	-0.361262	0.132417
N344	N	1.233248	0.138738	0.632417
H345	H	0.701387	-0.164180	0.960369
H346	H	1.201387	0.335820	1.460369
C347	C	0.709622	-0.953097	0.156250
C348	C	1.209622	-0.453097	0.656250
N349	N	0.733449	-0.933645	0.132473
N350	N	1.233449	-0.433645	0.632473
C351	C	0.588840	-0.276624	1.052165
C352	C	1.088840	0.223376	1.552165
N353	N	0.565014	-0.300426	1.071590
N354	N	1.065014	0.199574	1.571590
H355	H	0.597043	-0.268431	0.960356
H356	H	1.097043	0.231569	1.460356
H357	H	0.568253	-0.744102	0.297292
H358	H	1.068253	-0.244102	0.797292
C359	C	0.588700	-0.479323	0.276773
C360	C	1.088700	0.020677	0.776773
N361	N	0.564881	-0.498771	0.300560
N362	N	1.064881	0.001229	0.800560
C363	C	0.738289	-0.695028	0.127537
C364	C	1.238289	-0.195028	0.627537
N365	N	0.762117	-0.714437	0.103749
N366	N	1.262117	-0.214437	0.603749
H367	H	0.568232	-0.297218	0.603765
H368	H	1.068232	0.202782	1.103765
C369	C	0.738324	-0.127278	0.737848
C370	C	1.238324	0.372722	1.237848
N371	N	0.762147	-0.103471	0.718425
N372	N	1.262147	0.396529	1.218425
C373	C	-0.186043	-0.156198	0.276958
C374	C	0.313957	0.343802	0.776958
N375	N	-0.205461	-0.132427	0.300799
N376	N	0.294539	0.367573	0.800799
C377	C	0.588772	-0.276748	0.479778
C378	C	1.088772	0.223252	0.979778
N379	N	0.564945	-0.300548	0.499206
N380	N	1.064945	0.199452	0.999206
C381	C	0.560052	-0.305386	0.836330
C382	C	1.060052	0.194614	1.336330
N383	N	0.536222	-0.329184	0.855755
N384	N	1.036222	0.170816	1.355755
C385	C	0.709470	-0.479223	0.156216
C386	C	1.209470	0.020777	0.656216
N387	N	0.733300	-0.498632	0.132429
N388	N	1.233300	0.001368	0.632429
H389	H	0.478170	-0.164399	0.268697
H390	H	0.978170	0.335601	0.768697
H391	H	0.597070	-0.959899	0.268603
H392	H	1.097070	-0.459899	0.768603
H393	H	0.262209	-0.297163	0.135476
H394	H	0.762209	0.202837	0.635476
C395	C	0.386368	-0.156193	0.276928
C396	C	0.886368	0.343807	0.776928
N397	N	0.366966	-0.132423	0.300782
N398	N	0.866966	0.367577	0.800782
C399	C	-0.087652	-0.276691	0.156066
C400	C	0.412348	0.223309	0.656066
N401	N	-0.068250	-0.300465	0.132215
N402	N	0.431750	0.199535	0.632215
C403	C	0.386223	-0.276693	0.156039
C404	C	0.886223	0.223307	0.656039
N405	N	0.366764	-0.300463	0.132190
N406	N	0.866764	0.199537	0.632190
C407	C	0.560044	-0.305409	0.737819
C408	C	1.060044	0.194591	1.237819
N409	N	0.536215	-0.329222	0.718387
N410	N	1.036215	0.170778	1.218387
C411	C	-0.087513	-0.156195	0.276958
C412	C	0.412487	0.343805	0.776958
N413	N	-0.068057	-0.132421	0.300804
N414	N	0.431943	0.367579	0.800804
C415	C	0.484755	-0.276685	0.156030
C416	C	0.984755	0.223315	0.656030
N417	N	0.504172	-0.300445	0.132179
N418	N	1.004172	0.199555	0.632179
C419	C	0.738328	-0.127260	0.836374
C420	C	1.238328	0.372740	1.336374
N421	N	0.762148	-0.103450	0.855822
N422	N	1.262148	0.396550	1.355822
C423	C	0.709644	-1.051629	0.156252
C424	C	1.209644	-0.551629	0.656252
N425	N	0.733470	-1.071053	0.132475
N426	N	1.233470	-0.571053	0.632475
C427	C	0.128343	-0.127500	0.305718
C428	C	0.628343	0.372500	0.805718
N429	N	0.147797	-0.103725	0.329565
N430	N	0.647797	0.396275	0.829565
H431	H	0.568236	-0.688462	0.297290
H432	H	1.068236	-0.188462	0.797290
H433	H	0.177101	-0.297168	0.135482
H434	H	0.677101	0.202832	0.635482
C435	C	0.560063	-0.835917	0.305499
C436	C	1.060063	-0.335917	0.805499
N437	N	0.536244	-0.855363	0.329287
N438	N	1.036244	-0.355363	0.829287
H439	H	0.701321	-0.164310	0.387974
H440	H	1.201321	0.335690	0.887974
H441	H	0.036514	-0.135705	0.297496
H442	H	0.536514	0.364295	0.797496
H443	H	0.596891	-0.387492	0.268561
H444	H	1.096891	0.112508	0.768561
H445	H	0.730100	-0.743980	0.135747
H446	H	1.230100	-0.243980	0.635747
