data_functionalizedCrystal
_audit_creation_method	'MofGen! by Chris Wilmer'
_symmetry_space_group_name_H-M	'P1'
_symmetry_Int_Tables_number	1
_symmetry_cell_setting	triclinic
loop_
_symmetry_equiv_pos_as_xyz
  x,y,z
_cell_length_a	10.654562
_cell_length_b	14.044190
_cell_length_c	9.730223
_cell_angle_alpha	89.993542
_cell_angle_beta	89.996961
_cell_angle_gamma	88.840940
loop_
_atom_site_label
_atom_site_type_symbol
_atom_site_fract_x
_atom_site_fract_y
_atom_site_fract_z
O1	O	1.681223	0.133286	-0.114398
O2	O	2.181223	0.633286	0.385602
O3	O	1.317021	0.145966	-0.114383
O4	O	1.817021	0.645966	0.385617
O5	O	1.493651	0.001605	-0.114363
O6	O	1.993651	0.501605	0.385637
O7	O	1.504593	0.277647	-0.114418
O8	O	2.004593	0.777647	0.385582
O9	O	1.493649	0.001609	0.114217
O10	O	1.993649	0.501609	0.614217
O11	O	1.317019	0.145970	0.114197
O12	O	1.817019	0.645970	0.614197
O13	O	1.681221	0.133289	0.114182
O14	O	2.181221	0.633289	0.614182
Zn15	Zn	1.499120	0.139630	0.150481
Zn16	Zn	1.999120	0.639630	0.650481
Zn17	Zn	1.499122	0.139625	-0.150683
Zn18	Zn	1.999122	0.639625	0.349317
O19	O	1.504592	0.277651	0.114162
O20	O	2.004592	0.777651	0.614162
C21	C	1.270129	0.145035	-0.000091
C22	C	1.770129	0.645035	0.499909
C23	C	1.130405	0.142241	-0.000084
C24	C	1.630405	0.642241	0.499916
C25	C	1.064743	0.140941	0.124505
C26	C	1.564743	0.640941	0.624505
C27	C	0.933458	0.138324	0.124482
C28	C	1.433458	0.638324	0.624482
C29	C	0.933509	0.138312	-0.124728
C30	C	1.433509	0.638312	0.375272
C31	C	1.064792	0.140923	-0.124704
C32	C	1.564792	0.640923	0.375296
C33	C	1.064712	0.140951	0.268385
C34	C	1.564712	0.640951	0.768385
C35	C	0.933427	0.138334	0.268362
C36	C	1.433427	0.638334	0.768362
C37	C	1.488863	-0.033739	-0.000069
C38	C	1.988863	0.466261	0.499931
C39	C	1.474584	-0.139060	-0.000057
C40	C	1.974584	0.360940	0.499943
C41	C	1.549749	-0.388849	-0.000114
C42	C	2.049749	0.111151	0.499886
C43	C	1.448499	-0.331889	-0.000100
C44	C	1.948499	0.168111	0.499900
C45	C	1.463016	-0.224589	-0.000076
C46	C	1.963016	0.275411	0.499924
C47	C	1.535234	-0.496160	-0.000138
C48	C	2.035234	0.003840	0.499862
C49	C	1.728114	0.134221	-0.000114
C50	C	2.228114	0.634221	0.499886
C51	C	1.867837	0.137014	-0.000130
C52	C	2.367837	0.637014	0.499870
C53	C	1.509379	0.312995	-0.000135
C54	C	2.009379	0.812995	0.499865
C55	C	1.523659	0.418315	-0.000157
C56	C	2.023659	0.918315	0.499843
N57	N	1.499127	0.139633	0.356018
N58	N	1.999127	0.639633	0.856018
N59	N	1.499124	0.139615	-0.356219
N60	N	1.999124	0.639615	0.143781
C61	C	1.577363	0.075732	0.427952
C62	C	2.077363	0.575732	0.927952
C63	C	1.577359	0.075720	0.571835
C64	C	2.077359	0.575720	1.071835
C65	C	1.420880	0.203520	0.571836
C66	C	1.920880	0.703520	1.071836
C67	C	1.420878	0.203526	0.427956
C68	C	1.920878	0.703526	0.927956
C69	C	1.667709	0.001950	0.427953
C70	C	2.167709	0.501950	0.927953
C71	C	1.667705	0.001939	0.571836
C72	C	2.167705	0.501939	1.071836
H73	H	1.101240	0.210133	0.313014
H74	H	1.601240	0.710133	0.813014
H75	H	0.893730	0.203892	0.323585
H76	H	1.393730	0.703892	0.823585
H77	H	1.350913	-0.363710	-0.000104
H78	H	1.850913	0.136290	0.499896
H79	H	0.880071	0.137239	-0.226190
H80	H	1.380071	0.637239	0.273810
H81	H	1.765850	0.018195	0.610879
H82	H	2.265850	0.518195	1.110879
H83	H	1.104381	0.075397	0.323650
H84	H	1.604381	0.575397	0.823650
H85	H	1.638937	-0.070961	0.388915
H86	H	2.138937	0.429039	0.888915
H87	H	1.647327	-0.357031	-0.000104
H88	H	2.147327	0.142969	0.499896
H89	H	1.118251	0.141967	-0.226156
H90	H	1.618251	0.641967	0.273844
H91	H	1.357170	0.255539	0.630424
H92	H	1.857170	0.755539	1.130424
H93	H	0.896884	0.069155	0.313022
H94	H	1.396884	0.569155	0.813022
H95	H	1.357161	0.255551	0.369388
H96	H	1.857161	0.755551	0.869388
H97	H	1.761215	0.025056	0.383318
H98	H	2.261215	0.525056	0.883318
H99	H	1.630266	-0.066962	0.616467
H100	H	2.130266	0.433038	1.116467
