data_functionalizedCrystal
_audit_creation_method	'MofGen! by Chris Wilmer'
_symmetry_space_group_name_H-M	'P1'
_symmetry_Int_Tables_number	1
_symmetry_cell_setting	triclinic
loop_
_symmetry_equiv_pos_as_xyz
  x,y,z
_cell_length_a	16.109318
_cell_length_b	16.176319
_cell_length_c	16.109301
_cell_angle_alpha	90.008225
_cell_angle_beta	83.465022
_cell_angle_gamma	90.003834
loop_
_atom_site_label
_atom_site_type_symbol
_atom_site_fract_x
_atom_site_fract_y
_atom_site_fract_z
O1	O	1.103126	0.068680	0.106938
O2	O	0.861066	0.068697	0.120222
O3	O	0.988746	0.068680	-0.007451
O4	O	0.975447	0.068698	0.234611
O5	O	0.988728	-0.068813	-0.007459
O6	O	0.861049	-0.068796	0.120214
O7	O	1.103109	-0.068813	0.106930
Cu8	Cu	0.982077	-0.081358	0.113571
Cu9	Cu	0.982098	0.081243	0.113581
O10	O	0.975429	-0.068795	0.234602
C11	C	0.830083	-0.000047	0.119677
C12	C	0.737788	-0.000041	0.118057
N13	N	0.982068	-0.195724	0.113564
C14	C	0.438724	0.074892	0.112826
C15	C	0.525445	0.074897	0.114343
C16	C	0.525445	-0.075006	0.114323
C17	C	0.438726	-0.075010	0.112800
C18	C	0.395367	-0.000059	0.112056
C19	C	0.568807	-0.000049	0.115096
C20	C	0.662835	-0.000044	0.116742
C21	C	0.301334	-0.000064	0.110409
C22	C	1.038622	-0.238996	0.057053
C23	C	1.038626	-0.325543	0.057053
C24	C	0.982080	-0.368816	0.113567
C25	C	0.925521	-0.325538	0.170080
C26	C	0.925513	-0.238993	0.170076
C27	C	0.925549	-0.674567	0.170095
C28	C	0.925563	-0.761118	0.170096
C29	C	1.038662	-0.761116	0.057072
C30	C	1.038655	-0.674571	0.057068
C31	C	0.982093	-0.631301	0.113578
C32	C	0.982088	-0.537456	0.113577
C33	C	0.982088	-0.462659	0.113572
C34	C	1.134092	-0.000066	0.107474
C35	C	1.226387	-0.000067	0.109095
C36	C	0.988198	-0.000067	-0.038430
C37	C	0.986583	-0.000068	-0.130725
N38	N	0.982113	0.195608	0.113581
C39	C	1.058590	-0.000060	-0.352993
C40	C	1.057066	-0.000053	-0.439713
C41	C	0.905579	-0.000046	-0.419848
C42	C	0.907104	-0.000047	-0.333130
C43	C	0.983612	-0.000058	-0.299704
C44	C	0.980563	-0.000050	-0.473144
C45	C	0.978910	-0.000043	-0.567170
C46	C	0.985265	-0.000064	-0.205672
C47	C	0.975976	-0.000047	0.265581
C48	C	0.977592	-0.000040	0.357877
H49	H	0.403424	0.135922	0.112219
H50	H	1.120888	-0.000067	-0.325781
H51	H	1.084676	-0.360774	0.011037
H52	H	0.879513	-0.796350	0.216119
C53	C	0.572646	-0.156316	0.115012
C54	C	0.631821	-0.160685	0.044414
C55	C	0.675323	-0.235572	0.045029
H56	H	0.534504	-0.201025	0.114293
H57	H	0.600171	-0.159434	0.164037
H58	H	0.604297	-0.157575	-0.004598
H59	H	0.669980	-0.115993	0.045119
H60	H	0.702849	-0.238691	0.094055
H61	H	0.637175	-0.280275	0.044312
H62	H	0.715483	-0.238543	-0.002866
H63	H	1.084672	-0.203768	0.011037
H64	H	1.084702	-0.639340	0.011052
H65	H	1.084716	-0.796356	0.011056
H66	H	0.879496	-0.639343	0.216109
H67	H	0.843288	-0.000038	-0.447074
C68	C	0.864220	-0.372668	0.231403
C69	C	0.876345	-0.457723	0.219329
C70	C	0.819899	-0.501162	0.275815
H71	H	0.808699	-0.358597	0.222407
H72	H	0.873237	-0.358518	0.286912
H73	H	0.867322	-0.471867	0.163833
H74	H	0.931854	-0.471819	0.228332
H75	H	0.828916	-0.487012	0.331324
H76	H	0.764382	-0.487084	0.266815
H77	H	0.828123	-0.558876	0.267636
H78	H	1.118121	-0.000053	-0.483098
C79	C	0.864076	-0.192158	0.231526
C80	C	0.814572	-0.248576	0.281036
C81	C	0.757971	-0.205464	0.337660
H82	H	0.829397	-0.158405	0.201700
H83	H	0.893947	-0.158402	0.266192
H84	H	0.784704	-0.282318	0.246375
H85	H	0.849228	-0.282331	0.310881
H86	H	0.787842	-0.171708	0.372326
H87	H	0.723298	-0.171713	0.307826
H88	H	0.724381	-0.243737	0.371264
H89	H	0.846043	-0.000043	-0.289740
H90	H	0.560743	0.135929	0.114970
C91	C	0.391790	-0.156477	0.112009
C92	C	0.448317	-0.222115	0.113016
C93	C	0.405109	-0.297169	0.112295
H94	H	0.364310	-0.159710	0.062973
H95	H	0.351623	-0.159637	0.159887
H96	H	0.488470	-0.218956	0.065142
H97	H	0.475799	-0.218909	0.162048
H98	H	0.364942	-0.300330	0.160173
H99	H	0.377631	-0.300394	0.063258
H100	H	0.443455	-0.341714	0.112986
