data_functionalizedCrystal
_audit_creation_method	'MofGen! by Chris Wilmer'
_symmetry_space_group_name_H-M	'P1'
_symmetry_Int_Tables_number	1
_symmetry_cell_setting	triclinic
loop_
_symmetry_equiv_pos_as_xyz
  x,y,z
_cell_length_a	6.394984
_cell_length_b	14.971486
_cell_length_c	14.048226
_cell_angle_alpha	89.998499
_cell_angle_beta	89.995171
_cell_angle_gamma	85.054741
loop_
_atom_site_label
_atom_site_type_symbol
_atom_site_fract_x
_atom_site_fract_y
_atom_site_fract_z
O1	O	0.272213	1.189888	-0.079048
O2	O	0.304811	0.929841	-0.079073
O3	O	-0.015544	1.063558	-0.079057
O4	O	0.592568	1.056171	-0.079064
O5	O	-0.015563	1.063542	0.079264
O6	O	0.304792	0.929824	0.079248
O7	O	0.272194	1.189872	0.079274
Zn8	Zn	0.288490	1.059845	0.104398
Zn9	Zn	0.288515	1.059867	-0.104197
O10	O	0.592549	1.056154	0.079258
C11	C	0.303344	0.896492	0.000084
C12	C	0.298975	0.797147	0.000074
C13	C	0.487175	0.741956	0.000074
C14	C	0.483057	0.648612	0.000088
C15	C	0.290738	0.610461	0.000096
C16	C	0.102524	0.665660	0.000099
C17	C	0.106643	0.759002	0.000092
C18	C	0.093951	0.471105	0.000113
C19	C	0.089830	0.377757	0.000118
C20	C	0.470365	0.360715	0.000109
C21	C	0.474484	0.454057	0.000101
C22	C	0.286269	0.509249	0.000103
C23	C	0.906624	1.062081	0.000106
C24	C	0.670376	1.057629	0.000104
C25	C	0.273661	1.223221	0.000114
C26	C	0.278030	1.322565	0.000118
N27	N	0.288472	1.059837	0.246758
N28	N	0.288517	1.059883	-0.246558
C29	C	0.146677	1.119067	0.296584
C30	C	0.146676	1.119073	0.396241
C31	C	0.288481	1.059852	0.446072
C32	C	0.430282	1.000616	0.396240
C33	C	0.430272	1.000606	0.296584
C34	C	0.430297	1.000642	0.603954
C35	C	0.430311	1.000653	0.703617
C36	C	0.146702	1.119108	0.703611
C37	C	0.146691	1.119099	0.603955
C38	C	0.288496	1.059863	0.554130
H39	H	-0.054066	0.634591	0.000120
H40	H	0.631087	0.485116	0.000086
O41	O	0.583217	0.936773	0.757377
H42	H	0.556278	0.866747	0.738274
O43	O	0.583244	0.936749	0.449987
H44	H	0.681834	0.895558	0.398594
H45	H	0.031240	1.167339	0.744185
O46	O	0.583215	0.936728	0.242836
H47	H	0.681839	0.895556	0.294227
O48	O	-0.117592	0.336602	0.000139
H49	H	-0.247779	0.390660	0.000156
H50	H	0.031212	1.167294	0.256018
O51	O	-0.006254	1.182972	0.550209
H52	H	-0.107909	1.144169	0.504814
O53	O	0.694606	0.783103	0.000074
H54	H	0.824779	0.729039	0.000089
O55	O	0.686046	0.589083	0.000091
H56	H	0.778066	0.602899	-0.064447
O57	O	0.673379	0.301194	0.000117
H58	H	0.638213	0.229877	0.000138
O59	O	-0.109044	0.530641	0.000117
H60	H	-0.201053	0.516818	-0.064415
H61	H	0.031215	1.167301	0.436808
O62	O	0.583249	0.936759	0.550208
H63	H	0.681877	0.895588	0.601599
H64	H	-0.046609	0.803939	0.000092
