data_functionalizedCrystal
_audit_creation_method	'MofGen! by Chris Wilmer'
_symmetry_space_group_name_H-M	'P1'
_symmetry_Int_Tables_number	1
_symmetry_cell_setting	triclinic
loop_
_symmetry_equiv_pos_as_xyz
  x,y,z
_cell_length_a	19.188930
_cell_length_b	9.730217
_cell_length_c	10.654541
_cell_angle_alpha	89.996959
_cell_angle_beta	83.814354
_cell_angle_gamma	89.984715
loop_
_atom_site_label
_atom_site_type_symbol
_atom_site_fract_x
_atom_site_fract_y
_atom_site_fract_z
O1	O	0.927166	-0.114732	0.156778
O2	O	0.723993	-0.114637	0.177883
O3	O	0.830252	-0.114678	-0.015508
O4	O	0.820908	-0.114691	0.350169
O5	O	0.830249	0.113902	-0.015509
O6	O	0.723990	0.113943	0.177882
O7	O	0.927163	0.113848	0.156776
Zn8	Zn	0.825576	0.150188	0.167329
Zn9	Zn	0.825580	-0.150977	0.167331
O10	O	0.820904	0.113889	0.350167
C11	C	0.697976	-0.000335	0.177199
C12	C	0.620458	-0.000299	0.175147
N13	N	0.825578	0.355724	0.167326
N14	N	0.825584	-0.356513	0.167323
C15	C	0.576276	-0.000325	0.288623
C16	C	0.503439	-0.000340	0.286695
C17	C	0.474788	-0.000357	0.171286
C18	C	0.518981	-0.000324	0.057795
C19	C	0.591815	-0.000295	0.059726
N20	N	0.366233	-0.078205	0.083070
N21	N	0.297042	-0.078235	0.081244
C22	C	0.255342	-0.000441	0.165462
N23	N	0.285444	0.077368	0.251594
N24	N	0.354641	0.077392	0.253424
C25	C	0.395812	-0.000387	0.169180
C26	C	0.132181	-0.000480	0.276855
C27	C	0.059344	-0.000487	0.274923
C28	C	0.074887	-0.000485	0.046020
C29	C	0.147723	-0.000465	0.047955
C30	C	0.176365	-0.000469	0.163376
C31	C	0.953180	-0.000457	0.157461
C32	C	1.030698	-0.000502	0.159512
C33	C	0.829565	-0.000389	-0.062292
C34	C	0.827513	-0.000390	-0.201692
C35	C	0.919709	0.355678	-0.003873
C36	C	0.966779	0.427596	-0.089468
C37	C	0.966786	0.571475	-0.089469
C38	C	0.919717	0.643441	-0.003867
C39	C	0.872647	0.571524	0.081728
C40	C	0.872646	0.427641	0.081722
C41	C	0.778513	0.571570	0.252919
C42	C	0.778508	0.427690	0.252928
C43	C	0.731444	0.643536	0.338521
C44	C	0.684376	0.571619	0.424125
C45	C	0.684371	0.427730	0.424123
C46	C	0.731438	0.355773	0.338524
C47	C	0.954574	-0.000432	-0.232352
C48	C	1.017138	-0.000449	-0.313170
C49	C	1.015206	-0.000453	-0.444147
C50	C	0.950703	-0.000443	-0.494307
C51	C	0.888139	-0.000425	-0.413489
C52	C	0.890078	-0.000418	-0.282511
C53	C	0.761079	-0.000393	-0.382830
C54	C	0.763010	-0.000380	-0.251852
C55	C	0.696577	-0.000383	-0.432990
C56	C	0.634011	-0.000356	-0.352172
C57	C	0.635946	-0.000351	-0.221187
C58	C	0.700446	-0.000363	-0.171034
C59	C	0.821592	-0.000403	0.396952
C60	C	0.823643	-0.000411	0.536352
H61	H	0.599591	-0.000331	0.382608
H62	H	0.467459	-0.000356	0.379104
H63	H	0.051560	-0.000584	-0.047949
H64	H	1.066151	-0.000478	-0.509950
C65	C	0.563066	-0.000352	-0.407351
C66	C	0.544257	0.118334	-0.493202
C67	C	0.473311	0.118338	-0.548388
C68	C	0.421173	-0.000344	-0.517724
C69	C	0.439980	-0.119039	-0.431869
C70	C	0.510926	-0.119043	-0.376683
H71	H	0.582854	0.206197	-0.515906
H72	H	0.459389	0.206204	-0.611944
H73	H	0.368654	-0.000342	-0.558576
H74	H	0.401383	-0.206902	-0.409165
H75	H	0.524848	-0.206909	-0.313127
C76	C	1.088088	-0.000456	-0.257989
C77	C	1.106881	0.118242	-0.172172
C78	C	1.177831	0.118231	-0.116996
C79	C	1.229987	-0.000478	-0.147637
C80	C	1.211195	-0.119184	-0.233458
C81	C	1.140245	-0.119174	-0.288634
H82	H	1.068271	0.206125	-0.149486
H83	H	1.191742	0.206106	-0.053465
H84	H	1.282508	-0.000485	-0.106792
H85	H	1.249805	-0.207068	-0.256144
H86	H	1.126335	-0.207049	-0.352165
H87	H	0.023371	-0.000500	0.367332
H88	H	0.495648	-0.000357	-0.036172
H89	H	0.155503	-0.000464	0.370838
H90	H	0.183697	-0.000451	-0.044449
H91	H	0.584998	-0.000343	-0.155391
H92	H	0.627789	-0.000275	-0.032682
H93	H	0.731449	0.760690	0.338511
H94	H	0.646052	0.630222	0.493810
H95	H	0.919714	0.238524	-0.003870
H96	H	1.005102	0.368988	-0.159167
H97	H	0.646038	0.369183	0.493821
H98	H	0.702028	-0.000350	-0.064388
H99	H	1.005112	0.630030	-0.159173
H100	H	0.919720	0.760596	-0.003884
H101	H	0.731441	0.238618	0.338519
H102	H	0.956154	-0.000410	-0.125705
H103	H	0.949136	-0.000462	-0.600957
H104	H	0.695008	-0.000395	-0.539640
