data_functionalizedCrystal
_audit_creation_method	'MofGen! by Chris Wilmer'
_symmetry_space_group_name_H-M	'P1'
_symmetry_Int_Tables_number	1
_symmetry_cell_setting	triclinic
loop_
_symmetry_equiv_pos_as_xyz
  x,y,z
_cell_length_a	19.188930
_cell_length_b	14.519709
_cell_length_c	12.996460
_cell_angle_alpha	89.998766
_cell_angle_beta	89.979925
_cell_angle_gamma	83.412462
loop_
_atom_site_label
_atom_site_type_symbol
_atom_site_fract_x
_atom_site_fract_y
_atom_site_fract_z
O1	O	-0.926557	-0.115129	0.085900
O2	O	-0.426557	0.384871	0.585900
O3	O	-0.723301	-0.130628	0.085830
O4	O	-0.223301	0.369372	0.585830
O5	O	-0.830318	0.011393	0.085857
O6	O	-0.330318	0.511393	0.585857
O7	O	-0.819540	-0.257151	0.085872
O8	O	-0.319540	0.242849	0.585872
O9	O	-0.830304	0.011385	-0.085276
O10	O	-0.330304	0.511385	0.414724
O11	O	-0.723287	-0.130637	-0.085304
O12	O	-0.223287	0.369363	0.414696
O13	O	-0.926543	-0.115137	-0.085234
O14	O	-0.426543	0.384863	0.414766
Cu15	Cu	-0.824914	-0.122888	-0.100895
Cu16	Cu	-0.324914	0.377112	0.399105
Cu17	Cu	-0.824930	-0.122878	0.101491
Cu18	Cu	-0.324930	0.377122	0.601491
O19	O	-0.819526	-0.257159	-0.085262
O20	O	-0.319526	0.242841	0.414738
C21	C	-0.697281	-0.130130	0.000254
C22	C	-0.197281	0.369870	0.500254
C23	C	-0.619771	-0.128624	0.000227
C24	C	-0.119771	0.371376	0.500227
C25	C	-0.829809	0.045746	0.000290
C26	C	-0.329809	0.545746	0.500290
C27	C	-0.828304	0.148118	0.000289
C28	C	-0.328304	0.648118	0.500289
C29	C	-0.952563	-0.115635	0.000344
C30	C	-0.452563	0.384365	0.500344
C31	C	-1.030073	-0.117142	0.000378
C32	C	-0.530073	0.382858	0.500378
C33	C	-0.575144	-0.211957	0.000247
C34	C	-0.075144	0.288043	0.500247
C35	C	-0.502315	-0.210542	0.000259
C36	C	-0.002315	0.289458	0.500259
C37	C	-0.474117	-0.125788	0.000270
C38	C	0.025883	0.374212	0.500270
C39	C	-0.518754	-0.042443	0.000243
C40	C	-0.018754	0.457557	0.500243
C41	C	-0.591581	-0.043861	0.000222
C42	C	-0.091581	0.456139	0.500222
N43	N	-0.365911	-0.061001	0.058552
N44	N	0.134089	0.438999	0.558552
N45	N	-0.296727	-0.059660	0.058575
N46	N	0.203273	0.440340	0.558575
C47	C	-0.254693	-0.121511	0.000332
C48	C	0.245307	0.378489	0.500332
N49	N	-0.284454	-0.184768	-0.057920
N50	N	0.215546	0.315232	0.442080
N51	N	-0.353644	-0.186112	-0.057938
N52	N	0.146356	0.313888	0.442062
C53	C	-0.395149	-0.124241	0.000292
C54	C	0.104851	0.375759	0.500292
C55	C	-0.131096	-0.203315	0.000364
C56	C	0.368904	0.296685	0.500364
C57	C	-0.058266	-0.201896	0.000369
C58	C	0.441734	0.298104	0.500369
C59	C	-0.074706	-0.033796	0.000364
C60	C	0.425294	0.466204	0.500364
C61	C	-0.147535	-0.035217	0.000348
C62	C	0.352465	0.464783	0.500348
C63	C	-0.175725	-0.119979	0.000353
C64	C	0.324275	0.380021	0.500353
C65	C	-0.820035	-0.291511	0.000308
C66	C	-0.320035	0.208489	0.500308
C67	C	-0.821541	-0.393883	0.000316
C68	C	-0.321541	0.106117	0.500316
N69	N	-0.824908	-0.122894	-0.243242
N70	N	-0.324908	0.377106	0.256758
C71	C	-0.822762	0.522979	0.000314
C72	C	-0.322762	1.022979	0.500314
C73	C	-0.824301	0.418681	0.000307
C74	C	-0.324301	0.918681	0.500307
C75	C	-0.825533	0.335552	0.000300
C76	C	-0.325533	0.835552	0.500300
C77	C	-0.827072	0.231247	0.000295
C78	C	-0.327072	0.731247	0.500295
C79	C	-0.824911	-0.122896	-0.336348
C80	C	-0.324911	0.377104	0.163652
C81	C	-0.824917	-0.122890	-0.453153
C82	C	-0.324917	0.377110	0.046847
C83	C	-0.824926	-0.122880	-0.546251
C84	C	-0.324926	0.377120	-0.046251
C85	C	-0.824933	-0.122875	-0.663064
C86	C	-0.324933	0.377125	-0.163064
N87	N	-0.824942	-0.122864	0.243838
N88	N	-0.324942	0.377136	0.743838
H89	H	-0.598091	-0.280977	0.000253
H90	H	-0.098091	0.219023	0.500253
H91	H	-0.183871	0.032642	0.000337
H92	H	0.316129	0.532642	0.500337
H93	H	-0.021931	-0.269760	0.000380
H94	H	0.478069	0.230240	0.500380
F95	F	-0.161101	-0.293526	0.000361
F96	F	0.338899	0.206474	0.500361
F97	F	-0.044701	0.056407	0.000366
F98	F	0.455299	0.556407	0.500366
H99	H	-0.465973	-0.278404	0.000273
H100	H	0.034027	0.221596	0.500273
H101	H	-0.627917	0.024001	0.000205
H102	H	-0.127917	0.524001	0.500205
F103	F	-0.488742	0.047758	0.000250
F104	F	0.011258	0.547758	0.500250
