data_functionalizedCrystal
_audit_creation_method	'MofGen! by Chris Wilmer'
_symmetry_space_group_name_H-M	'P1'
_symmetry_Int_Tables_number	1
_symmetry_cell_setting	triclinic
loop_
_symmetry_equiv_pos_as_xyz
  x,y,z
_cell_length_a	12.811457
_cell_length_b	12.837942
_cell_length_c	18.366186
_cell_angle_alpha	89.994829
_cell_angle_beta	95.422910
_cell_angle_gamma	89.411937
loop_
_atom_site_label
_atom_site_type_symbol
_atom_site_fract_x
_atom_site_fract_y
_atom_site_fract_z
O1	O	1.406624	0.139673	0.032334
O2	O	1.102565	0.154864	0.012255
O3	O	1.247852	-0.003663	0.021854
O4	O	1.261337	0.298200	0.022735
O5	O	1.247824	-0.003671	0.142951
O6	O	1.102537	0.154856	0.133352
O7	O	1.406596	0.139665	0.153432
Zn8	Zn	1.254562	0.147259	0.162619
Zn9	Zn	1.254599	0.147270	0.003068
O10	O	1.261309	0.298192	0.143833
C11	C	1.063363	0.154010	0.070216
C12	C	0.946592	0.151462	0.062505
C13	C	0.727136	0.146647	0.180050
C14	C	0.617420	0.144253	0.172808
C15	C	0.617442	0.144272	0.040780
C16	C	0.727158	0.146667	0.048022
C17	C	0.782001	0.147855	0.117659
C18	C	0.891719	0.150257	0.124900
C19	C	0.891739	0.150269	-0.007127
C20	C	0.782023	0.147875	-0.014369
C21	C	1.243283	-0.042307	0.082101
C22	C	1.229697	-0.157443	0.081203
C23	C	1.393024	-0.397699	0.091974
C24	C	1.380264	-0.505879	0.091130
C25	C	1.191418	-0.481987	0.078666
C26	C	1.204178	-0.373807	0.079510
C27	C	1.304984	-0.331666	0.086165
C28	C	1.317743	-0.223484	0.087014
C29	C	1.128898	-0.199594	0.074546
C30	C	1.116138	-0.307775	0.073702
C31	C	1.445798	0.140519	0.095469
C32	C	1.562569	0.143067	0.103176
C33	C	1.265878	0.336837	0.083584
C34	C	1.279464	0.451972	0.084477
N35	N	1.254544	0.147251	0.271509
N36	N	1.254624	0.147269	-0.105822
C37	C	1.318904	0.077090	0.313862
C38	C	1.318910	0.077086	0.390090
C39	C	1.254568	0.147260	0.423963
C40	C	1.190195	0.217427	0.381601
C41	C	1.190183	0.217422	0.305374
C42	C	1.250258	0.241651	0.544436
C43	C	1.250277	0.241657	0.620662
C44	C	1.254599	0.147273	0.659073
C45	C	1.258924	0.052880	0.621249
C46	C	1.258912	0.052876	0.545022
C47	C	1.254574	0.147272	0.506618
C48	C	1.318970	0.077101	0.784081
C49	C	1.318968	0.077095	0.860310
C50	C	1.190259	0.217445	0.851820
C51	C	1.190255	0.217442	0.775592
C52	C	1.254615	0.147272	0.741727
H53	H	0.572753	0.143274	0.223613
H54	H	1.246762	0.318517	0.651453
N55	N	1.388315	0.001402	0.277339
H56	H	1.343599	-0.044717	0.242772
H57	H	1.438751	0.041336	0.249073
H58	H	1.057210	-0.145818	0.069822
H59	H	1.137851	0.274579	0.741106
H60	H	1.475104	-0.363388	0.097399
H61	H	0.771790	0.147628	0.236751
N62	N	0.722857	0.146598	-0.089470
H63	H	0.739867	0.211232	-0.117204
H64	H	0.744064	0.082769	-0.116877
N65	N	0.950873	0.151529	0.200005
H66	H	1.028704	0.153232	0.195128
H67	H	0.929602	0.215317	0.227431
H68	H	1.371322	0.019950	0.424580
N69	N	0.558281	0.142968	-0.034322
H70	H	0.480452	0.141260	-0.029439
H71	H	0.575365	0.207600	-0.062028
N72	N	1.245597	0.343456	0.503011
H73	H	1.242871	0.403252	0.538537
H74	H	1.309991	0.349816	0.475626
H75	H	1.451955	-0.559640	0.095857
H76	H	1.262431	-0.023982	0.514229
H77	H	1.137805	0.274562	0.409184
H78	H	1.262443	-0.023976	0.652521
H79	H	0.936422	0.151259	-0.057930
N80	N	1.082699	-0.527448	0.071481
H81	H	1.087980	-0.606000	0.071825
H82	H	1.043686	-0.503337	0.113800
H83	H	1.399825	-0.189175	0.092436
H84	H	1.034064	-0.342100	0.068281
N85	N	1.120760	0.293095	0.259687
H86	H	1.079994	0.337549	0.292709
H87	H	1.165535	0.339141	0.231005
N88	N	1.388379	0.001420	0.747548
H89	H	1.429148	-0.043036	0.785948
H90	H	1.343594	-0.044624	0.712973
H91	H	1.137866	0.274579	0.879399
N92	N	1.388408	0.001435	0.905996
H93	H	1.429185	-0.043006	0.872974
H94	H	1.438788	0.041396	0.940930
