data_functionalizedCrystal
_audit_creation_method	'MofGen! by Chris Wilmer'
_symmetry_space_group_name_H-M	'P1'
_symmetry_Int_Tables_number	1
_symmetry_cell_setting	triclinic
loop_
_symmetry_equiv_pos_as_xyz
  x,y,z
_cell_length_a	14.971482
_cell_length_b	11.792241
_cell_length_c	13.448316
_cell_angle_alpha	90.003796
_cell_angle_beta	90.004522
_cell_angle_gamma	83.903012
loop_
_atom_site_label
_atom_site_type_symbol
_atom_site_fract_x
_atom_site_fract_y
_atom_site_fract_z
O1	O	1.187540	0.147885	0.082679
O2	O	0.927211	0.165601	0.082684
O3	O	1.063693	-0.008468	0.082675
O4	O	1.051058	0.321954	0.082689
O5	O	1.063679	-0.008470	-0.082709
O6	O	0.927197	0.165600	-0.082700
O7	O	1.187526	0.147883	-0.082704
Cu8	Cu	1.057360	0.156741	-0.097803
Cu9	Cu	1.057377	0.156743	0.097783
O10	O	1.051044	0.321953	-0.082695
C11	C	0.893876	0.164809	-0.000007
C12	C	0.794569	0.162437	-0.000005
C13	C	0.747912	0.161319	-0.090157
C14	C	0.654605	0.159072	-0.090158
C15	C	0.607955	0.157951	-0.000007
C16	C	0.654618	0.159066	0.090152
C17	C	0.747925	0.161305	0.090152
C18	C	0.460138	0.154402	0.090145
C19	C	0.366825	0.152166	0.090146
C20	C	0.366818	0.152170	-0.090165
C21	C	0.460124	0.154408	-0.090165
C22	C	0.506781	0.155525	-0.000006
C23	C	1.062892	-0.050755	-0.000017
C24	C	1.060517	-0.176753	-0.000016
C25	C	1.056149	-0.407437	0.000001
C26	C	1.058576	-0.279068	-0.000008
C27	C	1.220861	0.148675	-0.000011
C28	C	1.320168	0.151048	-0.000006
C29	C	1.051845	0.364240	-0.000001
C30	C	1.054220	0.490238	0.000004
N31	N	1.057356	0.156739	-0.235367
C32	C	1.111934	0.225692	-0.287401
C33	C	1.111945	0.225687	-0.391504
C34	C	1.057372	0.156735	-0.443572
C35	C	1.002791	0.087774	-0.391530
C36	C	1.002786	0.087774	-0.287429
C37	C	1.002806	0.087782	-0.608511
C38	C	1.002810	0.087784	-0.712619
C39	C	1.111965	0.225695	-0.712586
C40	C	1.111959	0.225695	-0.608484
C41	C	1.057377	0.156736	-0.556450
N42	N	1.057389	0.156736	0.235347
H43	H	0.328825	0.151261	-0.163576
H44	H	0.616623	0.158143	-0.163569
Cl45	Cl	1.180560	0.312377	-0.456914
H46	H	0.498104	0.155328	-0.163575
Cl47	Cl	0.934186	0.001089	-0.456987
Cl48	Cl	0.934179	0.001075	-0.222015
Cl49	Cl	0.518791	0.155804	0.203490
Cl50	Cl	0.806548	0.162735	-0.203498
H51	H	1.156369	0.281848	-0.245015
H52	H	1.156393	0.281847	-0.566094
Cl53	Cl	0.806580	0.162705	0.203491
Cl54	Cl	0.308180	0.150754	0.203481
H55	H	0.616629	0.158145	0.163555
Cl56	Cl	1.180587	0.312382	-0.777999
Cl57	Cl	0.934208	0.001092	-0.778074
H58	H	0.958360	0.031626	-0.566148
