data_functionalizedCrystal
_audit_creation_method	'MofGen! by Chris Wilmer'
_symmetry_space_group_name_H-M	'P1'
_symmetry_Int_Tables_number	1
_symmetry_cell_setting	triclinic
loop_
_symmetry_equiv_pos_as_xyz
  x,y,z
_cell_length_a	18.215407
_cell_length_b	18.215405
_cell_length_c	18.215399
_cell_angle_alpha	90.030551
_cell_angle_beta	90.017813
_cell_angle_gamma	90.019398
loop_
_atom_site_label
_atom_site_type_symbol
_atom_site_fract_x
_atom_site_fract_y
_atom_site_fract_z
Zn1	Zn	1.125072	-0.293100	0.416063
Zn2	Zn	1.458405	0.040234	0.749396
Zn3	Zn	1.791739	0.373567	1.082730
Zn4	Zn	1.124980	-0.416171	0.292991
Zn5	Zn	1.458314	-0.082838	0.626324
Zn6	Zn	1.791647	0.250496	0.959658
Zn7	Zn	1.002004	-0.293111	0.293015
Zn8	Zn	1.335338	0.040222	0.626348
Zn9	Zn	1.668671	0.373556	0.959681
Zn10	Zn	1.001970	-0.416117	0.416020
Zn11	Zn	1.335304	-0.082784	0.749354
Zn12	Zn	1.668637	0.250550	1.082687
O13	O	1.063507	-0.354625	0.354522
O14	O	1.396840	-0.021291	0.687855
O15	O	1.730173	0.312042	1.021189
O16	O	1.228044	-0.309443	0.399745
O17	O	1.561377	0.023890	0.733078
O18	O	1.894711	0.357224	1.066412
O19	O	1.108643	-0.399874	0.190010
O20	O	1.441977	-0.066541	0.523343
O21	O	1.775310	0.266793	0.856676
O22	O	1.018382	-0.190125	0.309365
O23	O	1.351716	0.143208	0.642698
O24	O	1.685049	0.476542	0.976032
O25	O	1.227977	-0.399863	0.309325
O26	O	1.561310	-0.066530	0.642658
O27	O	1.894643	0.266804	0.975991
O28	O	1.108799	-0.190117	0.399768
O29	O	1.442133	0.143217	0.733101
O30	O	1.775466	0.476550	1.066435
O31	O	1.018293	-0.309462	0.190027
O32	O	1.351627	0.023871	0.523360
O33	O	1.684960	0.357204	0.856694
O34	O	0.899016	-0.309410	0.309324
O35	O	1.232349	0.023923	0.642657
O36	O	1.565682	0.357256	0.975990
O37	O	1.018324	-0.399771	0.519010
O38	O	1.351657	-0.066438	0.852344
O39	O	1.684991	0.266895	1.185677
O40	O	0.898991	-0.399782	0.399695
O41	O	1.232324	-0.066449	0.733029
O42	O	1.565657	0.266884	1.066362
O43	O	1.108766	-0.309391	0.519042
O44	O	1.442100	0.023942	0.852375
O45	O	1.775433	0.357276	1.185708
O46	O	1.108610	-0.519148	0.309283
O47	O	1.441943	-0.185815	0.642617
O48	O	1.775277	0.147519	0.975950
O49	O	1.018235	-0.519109	0.399672
O50	O	1.351569	-0.185775	0.733006
O51	O	1.684902	0.147558	1.066339
C52	C	0.872300	-0.354592	0.354508
C53	C	1.205634	-0.021259	0.687841
C54	C	1.538967	0.312074	1.021174
C55	C	0.790502	-0.354596	0.354519
C56	C	1.123835	-0.021263	0.687852
C57	C	1.457168	0.312071	1.021186
C58	C	0.525473	-0.307634	0.401679
C59	C	0.858807	0.025700	0.735012
C60	C	1.192140	0.359033	1.068346
C61	C	0.602332	-0.307622	0.401677
C62	C	0.935666	0.025712	0.735010
C63	C	1.268999	0.359045	1.068343
C64	C	0.602281	-0.401639	0.307381
C65	C	0.935615	-0.068306	0.640715
C66	C	1.268948	0.265027	0.974048
C67	C	0.525424	-0.401654	0.307388
C68	C	0.858757	-0.068321	0.640721
C69	C	1.192091	0.265012	0.974055
C70	C	0.487022	-0.354647	0.354536
C71	C	0.820355	-0.021314	0.687869
C72	C	1.153689	0.312019	1.021202
C73	C	0.640738	-0.354620	0.354527
C74	C	0.974071	-0.021287	0.687860
C75	C	1.307405	0.312046	1.021193
C76	C	0.724072	-0.354608	0.354524
C77	C	1.057405	-0.021275	0.687857
C78	C	1.390738	0.312059	1.021191
C79	C	0.403683	-0.354661	0.354540
C80	C	0.737016	-0.021327	0.687873
C81	C	1.070350	0.312006	1.021206
C82	C	1.063429	-0.545831	0.354487
C83	C	1.396762	-0.212498	0.687820
C84	C	1.730096	0.120836	1.021153
C85	C	1.063463	-0.627630	0.354496
C86	C	1.396796	-0.294296	0.687830
C87	C	1.730130	0.039037	1.021163
C88	C	1.110632	-0.815820	0.307517
C89	C	1.443965	-0.482486	0.640851
C90	C	1.777298	-0.149153	0.974184
C91	C	1.110665	-0.892679	0.307535
C92	C	1.443998	-0.559345	0.640868
C93	C	1.777331	-0.226012	0.974202
C94	C	1.016476	-0.892677	0.401580
C95	C	1.349809	-0.559344	0.734913
C96	C	1.683143	-0.226011	1.068247
C97	C	1.016447	-0.815820	0.401565
C98	C	1.349781	-0.482487	0.734899
C99	C	1.683114	-0.149153	1.068232
C100	C	1.063524	-0.777393	0.354530
C101	C	1.396857	-0.444060	0.687863
C102	C	1.730191	-0.110727	1.021196
C103	C	1.063586	-0.931109	0.354562
C104	C	1.396919	-0.597776	0.687896
C105	C	1.730252	-0.264443	1.021229
C106	C	1.063621	-1.014443	0.354582
C107	C	1.396954	-0.681110	0.687915
C108	C	1.730288	-0.347776	1.021249
C109	C	1.063490	-0.694054	0.354511
C110	C	1.396823	-0.360721	0.687844
C111	C	1.730157	-0.027388	1.021178
C112	C	1.255460	-0.354658	0.354537
C113	C	1.588793	-0.021324	0.687870
C114	C	1.922126	0.312009	1.021204
C115	C	1.337259	-0.354672	0.354543
C116	C	1.670592	-0.021338	0.687877
C117	C	2.003925	0.311995	1.021210
C118	C	1.063552	-0.354574	0.546475
C119	C	1.396885	-0.021241	0.879808
C120	C	1.730218	0.312093	1.213142
C121	C	1.063571	-0.354552	0.628274
C122	C	1.396904	-0.021219	0.961607
C123	C	1.730237	0.312114	1.294941
C124	C	1.063605	-0.162672	0.354574
C125	C	1.396938	0.170662	0.687907
C126	C	1.730271	0.503995	1.021240
C127	C	1.063647	-0.080873	0.354596
C128	C	1.396980	0.252461	0.687929
C129	C	1.730313	0.585794	1.021262
C130	C	1.063504	-0.354622	0.163316
C131	C	1.396838	-0.021289	0.496649
C132	C	1.730171	0.312045	0.829983
C133	C	1.063628	-0.354436	0.081517
C134	C	1.396961	-0.021103	0.414851
C135	C	1.730295	0.312230	0.748184
C136	C	1.110681	-0.307447	0.816486
C137	C	1.444014	0.025886	1.149819
C138	C	1.777348	0.359220	1.483152
C139	C	1.110690	-0.307426	0.893344
C140	C	1.444023	0.025908	1.226678
C141	C	1.777356	0.359241	1.560011
C142	C	1.016513	-0.401544	0.893301
C143	C	1.349846	-0.068210	1.226634
C144	C	1.683179	0.265123	1.559967
C145	C	1.016501	-0.401561	0.816443
C146	C	1.349834	-0.068227	1.149776
C147	C	1.683167	0.265106	1.483110
C148	C	1.063589	-0.354514	0.778038
C149	C	1.396922	-0.021180	1.111371
C150	C	1.730256	0.312153	1.444704
C151	C	1.063610	-0.354475	0.931754
C152	C	1.396943	-0.021142	1.265087
C153	C	1.730276	0.312192	1.598421
C154	C	1.063619	-0.354452	1.015088
C155	C	1.396952	-0.021119	1.348421
C156	C	1.730286	0.312215	1.681754
C157	C	1.063579	-0.354535	0.694699
C158	C	1.396912	-0.021202	1.028032
C159	C	1.730246	0.312131	1.361365
H160	H	0.633558	-0.439909	0.268994
H161	H	0.966891	-0.106576	0.602327
H162	H	1.300224	0.226757	0.935661
O163	O	0.488088	-0.262081	0.447518
O164	O	0.821421	0.071252	0.780851
O165	O	1.154755	0.404586	1.114184
C166	C	0.443657	-0.304050	0.494991
C167	C	0.776991	0.029284	0.828324
C168	C	1.110324	0.362617	1.161657
H169	H	0.432124	-0.359790	0.468936
H170	H	0.765458	-0.026457	0.802269
H171	H	1.098791	0.306877	1.135602
H172	H	0.389620	-0.274096	0.504913
H173	H	0.722953	0.059237	0.838246
H174	H	1.056287	0.392570	1.171580
H175	H	0.473299	-0.312200	0.549511
H176	H	0.806632	0.021134	0.882844
H177	H	1.139966	0.354467	1.216177
H178	H	0.494116	-0.439943	0.268998
H179	H	0.827449	-0.106610	0.602331
H180	H	1.160783	0.226724	0.935664
H181	H	1.148966	-0.784535	0.269219
H182	H	1.482299	-0.451201	0.602552
H183	H	1.815632	-0.117868	0.935886
H184	H	1.149026	-0.923962	0.269254
H185	H	1.482359	-0.590629	0.602587
H186	H	1.815692	-0.257295	0.935920
O187	O	0.970777	-0.447216	0.778976
O188	O	1.304111	-0.113883	1.112310
O189	O	1.637444	0.219451	1.445643
C190	C	0.980877	-0.437152	0.702905
C191	C	1.314210	-0.103819	1.036238
C192	C	1.647544	0.229514	1.369572
H193	H	1.005005	-0.380363	0.692433
H194	H	1.338339	-0.047030	1.025767
H195	H	1.671672	0.286303	1.359100
H196	H	0.925747	-0.442141	0.673683
H197	H	1.259080	-0.108808	1.007016
H198	H	1.592413	0.224526	1.340350
H199	H	1.020044	-0.480814	0.681086
H200	H	1.353377	-0.147480	1.014419
H201	H	1.686710	0.185853	1.347753
O202	O	0.970766	-0.930120	0.447193
O203	O	1.304100	-0.596787	0.780527
O204	O	1.637433	-0.263454	1.113860
C205	C	0.980903	-1.006197	0.437138
C206	C	1.314236	-0.672864	0.770471
C207	C	1.647570	-0.339531	1.103805
H208	H	1.005046	-1.016718	0.380369
H209	H	1.338379	-0.683384	0.713702
H210	H	1.671713	-0.350051	1.047035
H211	H	0.925785	-1.035441	0.442081
H212	H	1.259119	-0.702108	0.775415
H213	H	1.592452	-0.368775	1.108748
H214	H	1.020072	-1.027950	0.480831
H215	H	1.353406	-0.694617	0.814165
H216	H	1.686739	-0.361284	1.147498
O217	O	0.970788	-0.778455	0.447314
O218	O	1.304122	-0.445121	0.780648
O219	O	1.637455	-0.111788	1.113981
C220	C	1.012644	-0.733921	0.494863
C221	C	1.345978	-0.400587	0.828196
C222	C	1.679311	-0.067254	1.161529
H223	H	1.070611	-0.757041	0.499467
H224	H	1.403944	-0.423708	0.832800
H225	H	1.737277	-0.090374	1.166133
H226	H	0.985993	-0.733023	0.551474
H227	H	1.319327	-0.399690	0.884808
H228	H	1.652660	-0.066357	1.218141
H229	H	1.015175	-0.675687	0.472098
H230	H	1.348508	-0.342354	0.805432
H231	H	1.681841	-0.009021	1.138765
O232	O	1.156439	-0.261673	0.779292
O233	O	1.489772	0.071660	1.112625
O234	O	1.823106	0.404993	1.445958
C235	C	1.198017	-0.220139	0.829712
C236	C	1.531350	0.113194	1.163046
C237	C	1.864684	0.446527	1.496379
H238	H	1.167882	-0.217577	0.884494
H239	H	1.501215	0.115756	1.217828
H240	H	1.834549	0.449090	1.551161
H241	H	1.205889	-0.162161	0.807526
H242	H	1.539223	0.171172	1.140859
H243	H	1.872556	0.504505	1.474193
H244	H	1.253899	-0.247093	0.837887
H245	H	1.587232	0.086241	1.171220
H246	H	1.920566	0.419574	1.504554
H247	H	1.149035	-0.269098	0.924645
H248	H	1.482369	0.064235	1.257979
H249	H	1.815702	0.397568	1.591312
H250	H	0.633636	-0.269339	0.440066
H251	H	0.966969	0.063994	0.773400
H252	H	1.300303	0.397328	1.106733
O253	O	0.970846	-0.447223	0.930723
O254	O	1.304180	-0.113889	1.264056
O255	O	1.637513	0.219444	1.597390
C256	C	0.980941	-0.437104	1.006804
C257	C	1.314275	-0.103771	1.340138
C258	C	1.647608	0.229563	1.673471
H259	H	1.037749	-0.413008	1.017318
H260	H	1.371082	-0.079674	1.350651
H261	H	1.704416	0.253659	1.683984
H262	H	0.975928	-0.492222	1.035996
H263	H	1.309261	-0.158888	1.369329
H264	H	1.642594	0.174445	1.702662
H265	H	0.937312	-0.397903	1.028621
H266	H	1.270645	-0.064569	1.361954
H267	H	1.603979	0.268764	1.695288
