data_functionalizedCrystal
_audit_creation_method	'MofGen! by Chris Wilmer'
_symmetry_space_group_name_H-M	'P1'
_symmetry_Int_Tables_number	1
_symmetry_cell_setting	triclinic
loop_
_symmetry_equiv_pos_as_xyz
  x,y,z
_cell_length_a	12.759401
_cell_length_b	13.897448
_cell_length_c	12.759393
_cell_angle_alpha	89.968364
_cell_angle_beta	89.979541
_cell_angle_gamma	90.019217
loop_
_atom_site_label
_atom_site_type_symbol
_atom_site_fract_x
_atom_site_fract_y
_atom_site_fract_z
Zn1	Zn	1.606240	-0.383935	-0.594007
Zn2	Zn	1.939573	-0.050602	-0.260674
Zn3	Zn	2.272906	0.282732	0.072660
Zn4	Zn	1.606123	-0.545260	-0.418322
Zn5	Zn	1.939456	-0.211926	-0.084988
Zn6	Zn	2.272790	0.121407	0.248345
Zn7	Zn	1.430540	-0.383985	-0.418342
Zn8	Zn	1.763873	-0.050651	-0.085009
Zn9	Zn	2.097206	0.282682	0.248324
Zn10	Zn	1.430521	-0.545194	-0.593959
Zn11	Zn	1.763854	-0.211861	-0.260626
Zn12	Zn	2.097188	0.121473	0.072708
O13	O	1.518356	-0.464593	-0.506158
O14	O	1.851689	-0.131260	-0.172824
O15	O	2.185022	0.202073	0.160509
O16	O	1.753245	-0.405342	-0.570714
O17	O	2.086578	-0.072008	-0.237380
O18	O	2.419912	0.261325	0.095953
O19	O	1.582790	-0.523914	-0.271303
O20	O	1.916124	-0.190581	0.062030
O21	O	2.249457	0.142752	0.395363
O22	O	1.453903	-0.248996	-0.441673
O23	O	1.787237	0.084337	-0.108340
O24	O	2.120570	0.417670	0.224993
O25	O	1.753159	-0.523866	-0.441638
O26	O	2.086493	-0.190533	-0.108305
O27	O	2.419826	0.142800	0.225028
O28	O	1.582989	-0.248960	-0.570734
O29	O	1.916323	0.084373	-0.237400
O30	O	2.249656	0.417707	0.095933
O31	O	1.453790	-0.405426	-0.271318
O32	O	1.787124	-0.072093	0.062015
O33	O	2.120457	0.261240	0.395348
O34	O	1.283516	-0.405363	-0.441627
O35	O	1.616850	-0.072029	-0.108293
O36	O	1.950183	0.261304	0.225040
O37	O	1.453871	-0.523754	-0.740987
O38	O	1.787205	-0.190421	-0.407653
O39	O	2.120538	0.142912	-0.074320
O40	O	1.283502	-0.523803	-0.570652
O41	O	1.616836	-0.190469	-0.237318
O42	O	1.950169	0.142864	0.096015
O43	O	1.582971	-0.405278	-0.741022
O44	O	1.916304	-0.071945	-0.407689
O45	O	2.249638	0.261388	-0.074355
O46	O	1.582772	-0.680233	-0.441592
O47	O	1.916106	-0.346899	-0.108258
O48	O	2.249439	-0.013566	0.225075
O49	O	1.453758	-0.680184	-0.570632
O50	O	1.787092	-0.346851	-0.237298
O51	O	2.120425	-0.013518	0.096035
C52	C	1.245388	-0.464582	-0.506137
C53	C	1.578722	-0.131248	-0.172803
C54	C	1.912055	0.202085	0.160530
C55	C	1.128612	-0.464600	-0.506153
C56	C	1.461945	-0.131266	-0.172819
C57	C	1.795278	0.202067	0.160514
C58	C	1.073770	-0.526365	-0.573230
C59	C	1.407104	-0.193032	-0.239897
C60	C	1.740437	0.140301	0.093436
C61	C	0.964046	-0.526369	-0.573251
C62	C	1.297379	-0.193036	-0.239918
C63	C	1.630713	0.140298	0.093416
C64	C	0.964015	-0.402839	-0.439108
C65	C	1.297348	-0.069506	-0.105775
C66	C	1.630682	0.263828	0.227559
C67	C	1.073737	-0.402831	-0.439093
C68	C	1.407070	-0.069498	-0.105760
C69	C	1.740404	0.263836	0.227574
C70	C	1.518279	-0.715208	-0.506127
C71	C	1.851612	-0.381874	-0.172794
C72	C	2.184946	-0.048541	0.160539
C73	C	1.518342	-0.822422	-0.506149
C74	C	1.851676	-0.489088	-0.172816
C75	C	2.185009	-0.155755	0.160517
C76	C	1.518453	-1.018717	-0.506215
C77	C	1.851786	-0.685383	-0.172882
C78	C	2.185119	-0.352050	0.160451
C79	C	1.518388	-0.909484	-0.506182
C80	C	1.851722	-0.576151	-0.172848
C81	C	2.185055	-0.242817	0.160485
C82	C	1.792389	-0.464606	-0.506179
C83	C	2.125722	-0.131273	-0.172846
C84	C	2.459056	0.202061	0.160488
C85	C	1.909166	-0.464611	-0.506188
C86	C	2.242499	-0.131278	-0.172855
C87	C	2.575832	0.202055	0.160478
C88	C	1.518432	-0.464504	-0.780191
C89	C	1.851765	-0.131170	-0.446858
C90	C	2.185099	0.202163	-0.113524
C91	C	1.518465	-0.464465	-0.896968
C92	C	1.851798	-0.131132	-0.563634
C93	C	2.185131	0.202201	-0.230301
C94	C	1.518461	-0.213000	-0.506211
C95	C	1.851795	0.120333	-0.172878
C96	C	2.185128	0.453666	0.160456
C97	C	1.518506	-0.105786	-0.506234
C98	C	1.851840	0.227547	-0.172901
C99	C	2.185173	0.560880	0.160433
C100	C	1.585663	-0.526090	-1.061557
C101	C	1.918996	-0.192757	-0.728224
C102	C	2.252329	0.140576	-0.394891
C103	C	1.585637	-0.526136	-0.951833
C104	C	1.918971	-0.192803	-0.618500
C105	C	2.252304	0.140531	-0.285167
C106	C	1.451306	-0.402752	-0.951832
C107	C	1.784639	-0.069419	-0.618499
C108	C	2.117972	0.263915	-0.285165
C109	C	1.451327	-0.402712	-1.061554
C110	C	1.784660	-0.069379	-0.728221
C111	C	2.117993	0.263955	-0.394888
C112	C	1.518340	-0.464613	-0.233190
C113	C	1.851674	-0.131280	0.100143
C114	C	2.185007	0.202053	0.433476
C115	C	1.518511	-0.464380	-0.116414
C116	C	1.851845	-0.131046	0.216919
C117	C	2.185178	0.202287	0.550253
H118	H	0.919323	-0.352551	-0.384509
H119	H	1.252656	-0.019217	-0.051175
H120	H	1.585989	0.314116	0.282158
H121	H	1.118390	-0.352528	-0.384470
H122	H	1.451724	-0.019195	-0.051137
H123	H	1.785057	0.314139	0.282196
H124	H	1.640368	-0.576305	-1.106221
H125	H	1.973701	-0.242972	-0.772888
H126	H	2.307034	0.090361	-0.439554
H127	H	1.118446	-0.576659	-0.627837
H128	H	1.451779	-0.243325	-0.294504
H129	H	1.785113	0.090008	0.038830
H130	H	1.640319	-0.576387	-0.907174
H131	H	1.973652	-0.243054	-0.573841
H132	H	2.306985	0.090280	-0.240507
H133	H	1.396608	-0.352543	-0.907152
H134	H	1.729941	-0.019210	-0.573819
H135	H	2.063275	0.314124	-0.240485
H136	H	0.919399	-0.576663	-0.627874
H137	H	1.252732	-0.243330	-0.294540
H138	H	1.586066	0.090003	0.038793
H139	H	1.396639	-0.352458	-1.106220
H140	H	1.729972	-0.019125	-0.772886
H141	H	2.063305	0.314208	-0.439553
