data_functionalizedCrystal
_audit_creation_method	'MofGen! by Chris Wilmer'
_symmetry_space_group_name_H-M	'P1'
_symmetry_Int_Tables_number	1
_symmetry_cell_setting	triclinic
loop_
_symmetry_equiv_pos_as_xyz
  x,y,z
_cell_length_a	13.032831
_cell_length_b	12.759400
_cell_length_c	13.032268
_cell_angle_alpha	97.150187
_cell_angle_beta	90.886977
_cell_angle_gamma	82.819639
loop_
_atom_site_label
_atom_site_type_symbol
_atom_site_fract_x
_atom_site_fract_y
_atom_site_fract_z
Zn1	Zn	1.498516	-0.709532	-0.780845
Zn2	Zn	1.520267	-0.866067	-0.608867
Zn3	Zn	1.348373	-0.665643	-0.587085
Zn4	Zn	1.326515	-0.860387	-0.758992
O5	O	1.423418	-0.775407	-0.683947
O6	O	1.645323	-0.751042	-0.776293
O7	O	1.515715	-0.823490	-0.462060
O8	O	1.368334	-0.524453	-0.612817
O9	O	1.661303	-0.866048	-0.649941
O10	O	1.478644	-0.556699	-0.755172
O11	O	1.389425	-0.676239	-0.446057
O12	O	1.201551	-0.670731	-0.591628
O13	O	1.331081	-0.856366	-0.905808
O14	O	1.185493	-0.813808	-0.717927
O15	O	1.457450	-0.745534	-0.921863
O16	O	1.494520	-1.012325	-0.628751
O17	O	1.352172	-1.008152	-0.739048
C18	C	1.156205	-0.736891	-0.650043
C19	C	1.041887	-0.720442	-0.635563
C20	C	0.983014	-0.783992	-0.691504
C21	C	0.864860	-0.766993	-0.676540
C22	C	1.423359	-1.048363	-0.683918
C23	C	1.423424	-1.165153	-0.683952
C24	C	1.497609	-1.222171	-0.626602
C25	C	1.497668	-1.331908	-0.626642
C26	C	1.349348	-1.327596	-0.741382
C27	C	1.349295	-1.217863	-0.741348
C28	C	1.571738	-1.169461	-0.569206
C29	C	1.645929	-1.226480	-0.511852
C30	C	1.645988	-1.336216	-0.511891
C31	C	1.571857	-1.388934	-0.569286
C32	C	1.691674	-0.814074	-0.717984
C33	C	1.805989	-0.830552	-0.732489
C34	C	1.389401	-0.805212	-0.952195
C35	C	1.374905	-0.817913	-1.066506
C36	C	1.423501	-0.501392	-0.684002
C37	C	1.423537	-0.384623	-0.684026
C38	C	1.430967	-0.768738	-1.125413
C39	C	1.415986	-0.781864	-1.243560
C40	C	1.457361	-0.745651	-0.416751
C41	C	1.472056	-0.732683	-0.302465
H42	H	1.020083	-0.850982	-0.750480
O43	O	1.304492	-0.879736	-1.110849
C44	C	1.225291	-0.949105	-1.269025
C45	C	1.305085	-0.879075	-1.218947
H46	H	1.225728	-0.948576	-1.356427
H47	H	1.245975	-1.034127	-1.250315
H48	H	1.145034	-0.916393	-1.237386
H49	H	1.385370	-0.911693	-1.250557
H50	H	1.284312	-0.794063	-1.237651
H51	H	0.843052	-0.897545	-0.791471
H52	H	1.356888	-0.833678	-1.280589
H53	H	1.288887	-1.171438	-0.788048
O54	O	0.820490	-0.687152	-0.606183
C55	C	0.662261	-0.597363	-0.527182
C56	C	0.712378	-0.687828	-0.606884
H57	H	0.574844	-0.597865	-0.527738
H58	H	0.693755	-0.609475	-0.446843
H59	H	0.681087	-0.517719	-0.548014
H60	H	0.693573	-0.767512	-0.586149
H61	H	0.680882	-0.675623	-0.687201
H62	H	1.004816	-0.653445	-0.576595
H63	H	1.706289	-1.183553	-0.465129
O64	O	1.501451	-0.706998	-1.081079
C65	C	1.580578	-0.637542	-0.922893
C66	C	1.500732	-0.707512	-0.972965
H67	H	1.580007	-0.637916	-0.835474
H68	H	1.660882	-0.670269	-0.954400
H69	H	1.559902	-0.552569	-0.941742
H70	H	1.521311	-0.792499	-0.954136
H71	H	1.420450	-0.674697	-0.941456
O72	O	1.542523	-0.670913	-1.258135
C73	C	1.621603	-0.601395	-1.099946
C74	C	1.541795	-0.671411	-1.150019
H75	H	1.621025	-0.601757	-1.012526
H76	H	1.701920	-0.634093	-1.131439
H77	H	1.600895	-0.516432	-1.118809
H78	H	1.562407	-0.756389	-1.131176
H79	H	1.461501	-0.638626	-1.118524
O80	O	1.718099	-1.391438	-0.456092
C81	C	1.865241	-1.384137	-0.342327
C82	C	1.783620	-1.321470	-0.405462
H83	H	1.918249	-1.327599	-0.301393
H84	H	1.824972	-1.422771	-0.282484
H85	H	1.912971	-1.448462	-0.396431
H86	H	1.735864	-1.257095	-0.351438
H87	H	1.823953	-1.282912	-0.465315
H88	H	1.571918	-1.478291	-0.569323
H89	H	1.288994	-1.370528	-0.788109
H90	H	1.571696	-1.080107	-0.569164
