data_functionalizedCrystal
_audit_creation_method	'MofGen! by Chris Wilmer'
_symmetry_space_group_name_H-M	'P1'
_symmetry_Int_Tables_number	1
_symmetry_cell_setting	triclinic
loop_
_symmetry_equiv_pos_as_xyz
  x,y,z
_cell_length_a	6.817900
_cell_length_b	11.102244
_cell_length_c	10.943624
_cell_angle_alpha	91.861156
_cell_angle_beta	108.838799
_cell_angle_gamma	108.604870
loop_
_atom_site_label
_atom_site_type_symbol
_atom_site_fract_x
_atom_site_fract_y
_atom_site_fract_z
V1	V	-4.114276	-0.175805	-0.402548
O2	O	-4.073263	0.008482	-0.394888
O3	O	-4.091028	-0.348625	-0.399791
O4	O	-4.092258	-0.173086	-0.578114
O5	O	-4.072025	-0.168272	-0.215331
V6	V	-4.591226	-0.153764	-0.380156
O7	O	-4.389952	-0.224154	-0.451667
O8	O	-4.765748	-0.105415	-0.331036
O9	O	-4.391268	0.019056	-0.382912
O10	O	-4.749637	-0.338052	-0.387815
O11	O	-4.750874	-0.161297	-0.567372
O12	O	-4.390038	-0.156483	-0.204589
C13	C	-3.941294	-0.390755	-0.393440
C14	C	-4.003749	-0.532038	-0.392357
C15	C	-3.972110	-0.580282	-0.273620
C16	C	-4.030808	-0.713035	-0.272617
C17	C	-4.152775	-0.749287	-0.509098
C18	C	-4.094092	-0.616538	-0.510100
C19	C	-3.901685	-0.559353	-0.137088
C20	C	-3.960383	-0.692105	-0.136085
C21	C	-3.942861	-0.166836	-0.620907
C22	C	-4.006308	-0.165756	-0.764434
C23	C	-3.851189	-0.158485	-0.841581
C24	C	-4.039798	-0.266415	-0.947569
C25	C	-3.930777	-0.055914	-0.914186
C26	C	-4.194128	-0.273788	-0.868545
C27	C	-4.085027	-0.063191	-0.835139
C28	C	-4.273773	-0.171152	-0.941097
C29	C	-4.204344	0.061179	-0.389260
C30	C	-4.121129	0.202460	-0.390352
C31	C	-4.202777	-0.162737	-0.161789
C32	C	-4.118567	-0.163811	-0.018262
H33	H	-4.000022	-0.520261	-0.089879
Br34	Br	-4.275389	-0.863973	-0.668885
H35	H	-4.119875	-0.577264	-0.606788
H36	H	-4.304872	-0.365969	-0.847999
H37	H	-3.715845	-0.506555	-0.089935
H38	H	-4.102528	-0.731909	-0.098506
Br39	Br	-4.115650	0.080015	-0.753492
H40	H	-3.807969	-0.715129	-0.078456
H41	H	-3.820066	0.036144	-0.934951
H42	H	-4.021341	-0.352331	-0.996516
Br43	Br	-3.552569	-0.149791	-0.769156
H44	H	-4.453050	-0.176534	-0.984341
