data_functionalizedCrystal
_audit_creation_method	'MofGen! by Chris Wilmer'
_symmetry_space_group_name_H-M	'P1'
_symmetry_Int_Tables_number	1
_symmetry_cell_setting	triclinic
loop_
_symmetry_equiv_pos_as_xyz
  x,y,z
_cell_length_a	9.065215
_cell_length_b	10.967829
_cell_length_c	7.540329
_cell_angle_alpha	77.868523
_cell_angle_beta	89.997574
_cell_angle_gamma	84.859043
loop_
_atom_site_label
_atom_site_type_symbol
_atom_site_fract_x
_atom_site_fract_y
_atom_site_fract_z
O1	O	1.959364	0.182969	-0.203376
O2	O	1.529993	0.197982	-0.207972
O3	O	1.754581	0.008937	-0.150185
O4	O	1.734777	0.372014	-0.261163
O5	O	1.754567	0.008935	0.144780
O6	O	1.529980	0.197980	0.086993
O7	O	1.959350	0.182966	0.091589
Cu8	Cu	1.744664	0.190473	0.116224
Cu9	Cu	1.744680	0.190476	-0.232607
O10	O	1.734763	0.372011	0.033803
C11	C	1.475008	0.196539	-0.060050
C12	C	1.311190	0.192227	-0.058735
C13	C	1.753132	-0.037570	0.011509
C14	C	1.748818	-0.176143	0.053853
C15	C	1.746901	-0.237916	-0.080071
C16	C	1.742442	-0.381139	-0.036309
C17	C	2.014336	0.184410	-0.056337
C18	C	2.178154	0.188721	-0.057664
C19	C	1.736212	0.418518	-0.127895
C20	C	1.740526	0.557092	-0.170252
N21	N	1.744664	0.190470	0.361573
N22	N	1.744692	0.190469	-0.477953
H23	H	1.740773	-0.434279	0.110757
H24	H	1.748555	-0.184769	-0.227126
H25	H	1.742169	-0.389767	-0.317319
C26	C	1.742574	-0.375871	0.257305
C27	C	1.746563	-0.247874	0.252381
H28	H	1.741186	-0.420149	0.379872
H29	H	1.656033	-0.388587	0.195086
H30	H	1.827815	-0.405684	0.200321
H31	H	1.661316	-0.218058	0.309353
H32	H	1.833112	-0.235150	0.314626
