data_functionalizedCrystal
_audit_creation_method	'MofGen! by Chris Wilmer'
_symmetry_space_group_name_H-M	'P1'
_symmetry_Int_Tables_number	1
_symmetry_cell_setting	triclinic
loop_
_symmetry_equiv_pos_as_xyz
  x,y,z
_cell_length_a	19.121424
_cell_length_b	19.121063
_cell_length_c	12.759387
_cell_angle_alpha	92.403602
_cell_angle_beta	92.410763
_cell_angle_gamma	94.804615
loop_
_atom_site_label
_atom_site_type_symbol
_atom_site_fract_x
_atom_site_fract_y
_atom_site_fract_z
Zn1	Zn	1.063732	-0.234162	-0.541317
Zn2	Zn	1.058612	-0.351848	-0.373451
Zn3	Zn	0.946060	-0.239221	-0.373453
Zn4	Zn	0.941013	-0.356816	-0.556879
O5	O	1.002354	-0.295512	-0.461275
O6	O	1.161515	-0.245578	-0.512537
O7	O	1.043652	-0.336946	-0.226435
O8	O	0.965925	-0.140084	-0.389208
O9	O	1.157754	-0.332041	-0.389206
O10	O	1.052378	-0.136367	-0.512538
O11	O	0.960961	-0.254200	-0.226436
O12	O	0.846929	-0.259016	-0.404298
O13	O	0.957322	-0.340507	-0.701831
O14	O	0.843220	-0.345413	-0.539060
O15	O	1.047483	-0.250394	-0.690398
O16	O	1.038757	-0.450973	-0.404295
O17	O	0.952357	-0.454623	-0.539059
C18	C	0.819544	-0.303303	-0.473368
C19	C	0.741337	-0.306653	-0.478568
C20	C	0.298915	-0.327837	-0.511571
C21	C	0.372399	-0.324695	-0.506666
C22	C	0.411052	-0.278069	-0.434157
C23	C	0.376217	-0.234588	-0.366541
C24	C	0.302734	-0.237735	-0.371442
C25	C	0.633019	-0.266319	-0.415852
C26	C	0.706507	-0.263174	-0.410959
C27	C	0.702684	-0.353282	-0.551083
C28	C	0.629200	-0.356421	-0.555981
C29	C	0.594371	-0.312943	-0.488362
C30	C	0.486165	-0.274855	-0.429144
C31	C	0.519259	-0.316161	-0.493370
C32	C	0.994473	-0.478328	-0.473387
C33	C	0.991166	-0.556535	-0.478600
C34	C	1.034631	-0.591352	-0.410938
C35	C	1.031525	-0.664835	-0.415846
C36	C	0.984949	-0.703501	-0.488412
C37	C	0.941482	-0.668679	-0.556081
C38	C	0.944593	-0.595197	-0.551177
C39	C	0.973309	-0.925467	-0.506730
C40	C	0.970200	-0.998954	-0.511627
C41	C	1.060244	-0.995105	-0.371393
C42	C	1.063347	-0.921622	-0.366491
C43	C	1.019883	-0.886806	-0.434164
C44	C	0.981771	-0.778613	-0.493428
C45	C	1.023065	-0.811695	-0.429152
C46	C	1.185878	-0.287691	-0.449135
C47	C	1.264085	-0.284358	-0.443962
C48	C	1.002410	-0.295441	-0.735301
C49	C	1.002434	-0.295410	-0.852074
C50	C	1.010286	-0.111981	-0.449138
C51	C	1.013665	-0.033771	-0.443965
C52	C	1.096325	-0.201581	-0.840189
C53	C	1.143281	-0.154656	-0.889106
C54	C	1.143299	-0.154629	-0.998824
C55	C	1.096355	-0.201532	-1.059630
C56	C	1.049400	-0.248458	-1.010713
C57	C	1.049388	-0.248480	-0.900991
C58	C	0.955506	-0.342282	-1.022598
C59	C	0.955490	-0.342313	-0.912879
C60	C	0.908562	-0.389185	-1.083403
C61	C	0.861609	-0.436115	-1.034486
C62	C	0.861593	-0.436140	-0.924760
C63	C	0.908535	-0.389239	-0.863962
C64	C	1.002341	-0.295530	-0.188310
C65	C	1.002462	-0.295357	-0.071515
H66	H	0.737977	-0.225197	-0.351920
H67	H	1.096322	-0.201604	-0.750849
H68	H	0.908578	-0.389158	-1.172741
Cl69	Cl	0.534764	-0.216238	-0.337998
Cl70	Cl	0.802597	-0.495068	-1.110930
Cl71	Cl	1.096374	-0.201491	-1.197563
Cl72	Cl	0.918666	-0.881708	-0.591804
Cl73	Cl	0.911635	-1.047562	-0.602846
Cl74	Cl	1.093182	-0.542751	-0.319701
Cl75	Cl	1.114886	-1.038877	-0.286331
H76	H	0.487785	-0.354126	-0.552403
H77	H	1.181501	-0.116467	-0.839586
Cl78	Cl	0.908522	-0.389269	-0.726028
H79	H	1.066918	-0.693180	-0.360748
Cl80	Cl	0.882934	-0.717288	-0.647313
H81	H	0.823348	-0.474345	-0.884940
Cl82	Cl	0.589244	-0.211652	-0.330854
H83	H	0.267449	-0.365801	-0.570621
Cl84	Cl	1.202319	-0.095627	-1.060323
Cl85	Cl	0.424810	-0.175975	-0.275383
Cl86	Cl	0.416182	-0.379359	-0.591663
H87	H	0.597733	-0.394390	-0.615024
H88	H	1.101273	-0.890141	-0.307403
H89	H	0.274377	-0.202327	-0.316390
Cl90	Cl	0.746472	-0.407943	-0.636076
H91	H	1.060989	-0.780211	-0.370073
Cl92	Cl	0.889951	-0.551427	-0.636244
H93	H	0.943848	-0.810103	-0.552509
