data_functionalizedCrystal
_audit_creation_method	'MofGen! by Chris Wilmer'
_symmetry_space_group_name_H-M	'P1'
_symmetry_Int_Tables_number	1
_symmetry_cell_setting	triclinic
loop_
_symmetry_equiv_pos_as_xyz
  x,y,z
_cell_length_a	19.288864
_cell_length_b	14.044220
_cell_length_c	18.366186
_cell_angle_alpha	89.993222
_cell_angle_beta	89.977106
_cell_angle_gamma	88.162561
loop_
_atom_site_label
_atom_site_type_symbol
_atom_site_fract_x
_atom_site_fract_y
_atom_site_fract_z
O1	O	0.928948	0.118214	-0.060787
O2	O	1.428948	0.618214	0.439213
O3	O	0.727712	0.134161	-0.060738
O4	O	1.227712	0.634161	0.439262
O5	O	0.825310	-0.011784	-0.060755
O6	O	1.325310	0.488216	0.439245
O7	O	0.831351	0.264160	-0.060770
O8	O	1.331351	0.764160	0.439230
O9	O	0.825291	-0.011791	0.060345
O10	O	1.325291	0.488209	0.560345
O11	O	0.727694	0.134154	0.060362
O12	O	1.227694	0.634154	0.560362
O13	O	0.928930	0.118207	0.060312
O14	O	1.428930	0.618207	0.560312
Zn15	Zn	0.828309	0.126180	0.079564
Zn16	Zn	1.328309	0.626180	0.579564
Zn17	Zn	0.828333	0.126189	-0.079990
Zn18	Zn	1.328333	0.626189	0.420010
O19	O	0.831332	0.264152	0.060329
O20	O	1.331332	0.764152	0.560329
C21	C	0.701794	0.133645	-0.000182
C22	C	1.201794	0.633645	0.499818
C23	C	0.624591	0.132104	-0.000163
C24	C	1.124591	0.632104	0.499837
C25	C	0.585397	0.217738	-0.000179
C26	C	1.085397	0.717738	0.499821
C27	C	0.512857	0.216291	-0.000187
C28	C	1.012857	0.716291	0.499813
C29	C	0.479514	0.129205	-0.000193
C30	C	0.979514	0.629205	0.499807
C31	C	0.518717	0.043560	-0.000173
C32	C	1.018717	0.543560	0.499827
C33	C	0.591256	0.045010	-0.000157
C34	C	1.091256	0.545010	0.499843
C35	C	0.366860	0.060749	-0.042640
C36	C	0.866860	0.560749	0.457360
C37	C	0.294322	0.059303	-0.042660
C38	C	0.794322	0.559303	0.457340
C39	C	0.255781	0.124731	-0.000237
C40	C	0.755781	0.624731	0.499763
C41	C	0.289785	0.191621	0.042196
C42	C	0.789785	0.691621	0.542196
C43	C	0.362323	0.193071	0.042212
C44	C	0.862323	0.693071	0.542212
C45	C	0.400858	0.127624	-0.000209
C46	C	0.900858	0.627624	0.499791
C47	C	0.137930	0.208802	-0.000261
C48	C	0.637930	0.708802	0.499739
C49	C	0.065389	0.207351	-0.000264
C50	C	0.565389	0.707351	0.499736
C51	C	0.071251	0.034617	-0.000257
C52	C	0.571251	0.534617	0.499743
C53	C	0.143790	0.036071	-0.000247
C54	C	0.643790	0.536071	0.499753
C55	C	0.177126	0.123165	-0.000252
C56	C	0.677126	0.623165	0.499748
C57	C	0.822656	-0.047091	-0.000204
C58	C	1.322656	0.452909	0.499796
C59	C	0.814768	-0.152283	-0.000201
C60	C	1.314768	0.347717	0.499799
C61	C	0.800348	-0.344882	-0.000208
C62	C	1.300348	0.155118	0.499792
C63	C	0.856291	-0.402755	-0.000224
C64	C	1.356291	0.097245	0.499776
C65	C	0.848267	-0.509924	-0.000228
C66	C	1.348267	-0.009924	0.499772
C67	C	0.808370	-0.237703	-0.000204
C68	C	1.308370	0.262297	0.499796
C69	C	0.954848	0.118724	-0.000245
C70	C	1.454848	0.618724	0.499755
C71	C	1.032051	0.120264	-0.000269
C72	C	1.532051	0.620264	0.499731
C73	C	0.833986	0.299459	-0.000223
C74	C	1.333986	0.799459	0.499777
C75	C	0.841874	0.404651	-0.000231
C76	C	1.341874	0.904651	0.499769
N77	N	0.828297	0.126173	0.188455
N78	N	1.328297	0.626173	0.688455
N79	N	0.828350	0.126188	-0.188881
N80	N	1.328350	0.626188	0.311119
C81	C	0.871531	0.061580	0.226548
C82	C	1.371531	0.561580	0.726548
C83	C	0.871535	0.061575	0.302776
C84	C	1.371535	0.561575	0.802776
C85	C	0.828313	0.126180	0.340908
C86	C	1.328313	0.626180	0.840908
C87	C	0.785071	0.190778	0.302806
C88	C	1.285071	0.690778	0.802806
C89	C	0.785063	0.190774	0.226579
C90	C	1.285063	0.690774	0.726579
C91	C	0.824562	0.212524	0.461665
C92	C	1.324562	0.712524	0.961665
C93	C	0.824575	0.212529	0.537890
C94	C	1.324575	0.712529	1.037890
C95	C	0.828333	0.126192	0.576015
C96	C	1.328333	0.626192	1.076015
C97	C	0.832093	0.039847	0.537907
C98	C	1.332093	0.539847	1.037907
C99	C	0.832085	0.039843	0.461681
C100	C	1.332085	0.539843	0.961681
C101	C	0.828316	0.126191	0.423563
C102	C	1.328316	0.626191	0.923563
C103	C	0.871574	0.061589	0.696763
C104	C	1.371574	0.561589	1.196763
C105	C	0.871573	0.061584	0.772993
C106	C	1.371573	0.561584	1.272993
C107	C	0.785113	0.190795	0.773021
C108	C	1.285113	0.690795	1.273021
C109	C	0.785110	0.190792	0.696793
C110	C	1.285110	0.690792	1.196793
C111	C	0.828344	0.126190	0.658669
C112	C	1.328344	0.626190	1.158669
H113	H	0.175703	-0.033662	-0.000237
H114	H	0.675703	0.466338	0.499763
H115	H	0.398235	0.007467	-0.077190
H116	H	0.898235	0.507467	0.422810
H117	H	0.835153	-0.030457	0.568947
H118	H	1.335153	0.469543	1.068947
N119	N	0.738490	0.260470	0.655697
N120	N	1.238490	0.760470	1.155697
H121	H	0.705500	0.224362	0.624092
H122	H	1.205500	0.724362	1.124092
H123	H	0.711154	0.301385	0.691460
H124	H	1.211154	0.801385	1.191460
H125	H	0.821518	0.282836	0.568912
H126	H	1.321518	0.782836	1.068912
N127	N	0.728926	-0.385857	-0.000192
N128	N	1.228926	0.114143	0.499808
H129	H	0.733247	-0.457718	-0.000194
H130	H	1.233247	0.042282	0.499806
H131	H	0.702875	-0.363597	0.044712
H132	H	1.202875	0.136403	0.544712
N133	N	0.918157	-0.008098	0.185429
N134	N	1.418157	0.491902	0.685429
H135	H	0.945546	-0.049019	0.221132
H136	H	1.445546	0.450981	0.721132
H137	H	0.888976	-0.049904	0.153824
H138	H	1.388976	0.450096	0.653824
H139	H	0.910212	-0.371814	-0.000286
H140	H	1.410212	0.128186	0.499714
N141	N	0.918165	-0.008097	0.343875
N142	N	1.418165	0.491903	0.843875
H143	H	0.945551	-0.049023	0.308156
H144	H	1.445551	0.450977	0.808156
H145	H	0.951109	0.028085	0.375479
H146	H	1.451109	0.528085	0.875479
N147	N	0.836138	-0.053278	0.420576
N148	N	1.336138	0.446722	0.920576
H149	H	0.838521	-0.107975	0.456290
H150	H	1.338521	0.392025	0.956290
H151	H	0.793606	-0.058663	0.388973
H152	H	1.293606	0.441337	0.888973
N153	N	0.918200	-0.008086	0.655637
N154	N	1.418200	0.491914	1.155637
H155	H	0.945586	-0.049013	0.691339
H156	H	1.445586	0.450987	1.191339
H157	H	0.889019	-0.049887	0.624027
H158	H	1.389019	0.450113	1.124027
N159	N	0.738448	0.260455	0.343928
N160	N	1.238448	0.760455	0.843928
H161	H	0.745014	0.250658	0.397998
H162	H	1.245014	0.750658	0.897998
H163	H	0.750628	0.327655	0.330589
H164	H	1.250628	0.827655	0.830589
H165	H	0.906777	0.008980	0.804009
H166	H	1.406777	0.508980	1.304009
N167	N	0.738488	0.260471	0.814137
N168	N	1.238488	0.760471	1.314137
H169	H	0.745051	0.250671	0.868208
H170	H	1.245051	0.750671	1.368208
H171	H	0.750669	0.327670	0.800801
H172	H	1.250669	0.827670	1.300801
N173	N	0.738438	0.260451	0.185484
N174	N	1.238438	0.760451	0.685484
H175	H	0.705450	0.224342	0.153878
H176	H	1.205450	0.724342	0.653878
H177	H	0.711100	0.301363	0.221247
H178	H	1.211100	0.801363	0.721247
H179	H	0.821490	0.282834	0.430629
H180	H	1.321490	0.782834	0.930629
H181	H	0.165073	0.279719	-0.000254
H182	H	0.665073	0.779719	0.499746
H183	H	0.491565	-0.027346	-0.000188
H184	H	0.991565	0.472654	0.499812
N185	N	0.621351	0.311672	-0.000190
N186	N	1.121351	0.811672	0.499810
H187	H	0.585510	0.365702	-0.000203
H188	H	1.085510	0.865702	0.499797
H189	H	0.651297	0.316043	0.044707
H190	H	1.151297	0.816043	0.544707
N191	N	0.023134	0.299737	-0.000239
N192	N	0.523134	0.799737	0.499761
H193	H	0.034495	0.337771	-0.045120
H194	H	0.534495	0.837771	0.454880
H195	H	-0.027868	0.285558	-0.000203
H196	H	0.472132	0.785558	0.499797
N197	N	0.470571	0.308656	-0.000206
N198	N	0.970571	0.808656	0.499794
H199	H	0.502696	0.364049	-0.000207
H200	H	1.002696	0.864049	0.499793
H201	H	0.440375	0.311808	-0.045108
H202	H	0.940375	0.811808	0.454892
H203	H	0.258406	0.244899	0.076742
H204	H	0.758406	0.744899	0.576742
N205	N	0.399001	0.265206	0.087978
N206	N	0.899001	0.765206	0.587978
H207	H	0.363584	0.306438	0.114852
H208	H	0.863584	0.806438	0.614852
H209	H	0.430259	0.230928	0.124222
H210	H	0.930259	0.730928	0.624222
H211	H	0.266642	0.004840	-0.077215
H212	H	0.766642	0.504840	0.422785
N213	N	0.035299	-0.059314	-0.000256
N214	N	0.535299	0.440686	0.499744
H215	H	-0.016602	-0.047239	-0.000265
H216	H	0.483398	0.452761	0.499735
H217	H	0.049281	-0.096774	-0.045144
H218	H	0.549281	0.403226	0.454856
N219	N	0.633535	-0.047356	-0.000136
N220	N	1.133535	0.452644	0.499864
H221	H	0.601408	-0.102747	-0.000138
H222	H	1.101408	0.397253	0.499862
H223	H	0.663784	-0.050517	-0.045023
H224	H	1.163784	0.449483	0.454977
