data_functionalizedCrystal
_audit_creation_method	'MofGen! by Chris Wilmer'
_symmetry_space_group_name_H-M	'P1'
_symmetry_Int_Tables_number	1
_symmetry_cell_setting	triclinic
loop_
_symmetry_equiv_pos_as_xyz
  x,y,z
_cell_length_a	13.897449
_cell_length_b	16.625545
_cell_length_c	13.897441
_cell_angle_alpha	90.031157
_cell_angle_beta	90.020733
_cell_angle_gamma	90.026837
loop_
_atom_site_label
_atom_site_type_symbol
_atom_site_fract_x
_atom_site_fract_y
_atom_site_fract_z
Zn1	Zn	1.474650	-0.320948	0.545377
Zn2	Zn	1.807983	0.012385	0.878711
Zn3	Zn	2.141317	0.345718	1.212044
Zn4	Zn	1.474522	-0.455799	0.384077
Zn5	Zn	1.807855	-0.122465	0.717411
Zn6	Zn	2.141188	0.210868	1.050744
Zn7	Zn	1.313339	-0.320987	0.384096
Zn8	Zn	1.646672	0.012347	0.717429
Zn9	Zn	1.980006	0.345680	1.050762
Zn10	Zn	1.313299	-0.455746	0.545330
Zn11	Zn	1.646632	-0.122412	0.878663
Zn12	Zn	1.979965	0.210921	1.211997
O13	O	1.393952	-0.388370	0.464720
O14	O	1.727286	-0.055037	0.798053
O15	O	2.060619	0.278297	1.131387
O16	O	1.609615	-0.338843	0.523993
O17	O	1.942948	-0.005509	0.857326
O18	O	2.276281	0.327824	1.190659
O19	O	1.453104	-0.437954	0.249098
O20	O	1.786437	-0.104621	0.582431
O21	O	2.119770	0.228713	0.915765
O22	O	1.334808	-0.208149	0.405518
O23	O	1.668141	0.125184	0.738851
O24	O	2.001474	0.458517	1.072184
O25	O	1.609520	-0.437917	0.405486
O26	O	1.942854	-0.104583	0.738820
O27	O	2.276187	0.228750	1.072153
O28	O	1.453322	-0.208121	0.524011
O29	O	1.786656	0.125212	0.857344
O30	O	2.119989	0.458546	1.190677
O31	O	1.334684	-0.338908	0.249112
O32	O	1.668017	-0.005575	0.582445
O33	O	2.001350	0.327759	0.915778
O34	O	1.178352	-0.338857	0.405472
O35	O	1.511685	-0.005523	0.738805
O36	O	1.845019	0.327810	1.072138
O37	O	1.334739	-0.437826	0.680318
O38	O	1.668072	-0.104493	1.013651
O39	O	2.001406	0.228840	1.346985
O40	O	1.178322	-0.437864	0.523930
O41	O	1.511656	-0.104530	0.857263
O42	O	1.844989	0.228803	1.190596
O43	O	1.453283	-0.338791	0.680353
O44	O	1.786616	-0.005458	1.013686
O45	O	2.119950	0.327875	1.347019
O46	O	1.453065	-0.568624	0.405440
O47	O	1.786398	-0.235291	0.738773
O48	O	2.119731	0.098043	1.072107
O49	O	1.334615	-0.568585	0.523912
O50	O	1.667948	-0.235252	0.857245
O51	O	2.001281	0.098081	1.190578
C52	C	1.143338	-0.388359	0.464698
C53	C	1.476671	-0.055026	0.798031
C54	C	1.810005	0.278308	1.131365
C55	C	1.036124	-0.388374	0.464712
C56	C	1.369457	-0.055041	0.798045
C57	C	1.702791	0.278293	1.131378
C58	C	0.839829	-0.388377	0.464737
C59	C	1.173162	-0.055043	0.798070
C60	C	1.506496	0.278290	1.131403
C61	C	0.949061	-0.388373	0.464720
C62	C	1.282395	-0.055039	0.798053
C63	C	1.615728	0.278294	1.131387
C64	C	1.393848	-0.597861	0.464690
C65	C	1.727181	-0.264527	0.798023
C66	C	2.060514	0.068806	1.131356
C67	C	1.393891	-0.687482	0.464709
C68	C	1.727224	-0.354149	0.798042
C69	C	2.060558	-0.020815	1.131376
C70	C	1.393928	-0.760264	0.464728
C71	C	1.727262	-0.426931	0.798061
C72	C	2.060595	-0.093598	1.131395
C73	C	1.393985	-0.851573	0.464749
C74	C	1.727318	-0.518239	0.798083
C75	C	2.060651	-0.184906	1.131416
C76	C	1.394035	-0.924349	0.464762
C77	C	1.727368	-0.591016	0.798095
C78	C	2.060701	-0.257682	1.131428
C79	C	1.394090	-1.015663	0.464781
C80	C	1.727423	-0.682330	0.798115
C81	C	2.060756	-0.348997	1.131448
C82	C	1.645545	-0.388381	0.464743
C83	C	1.978879	-0.055048	0.798076
C84	C	2.312212	0.278285	1.131409
C85	C	1.752759	-0.388386	0.464752
C86	C	2.086093	-0.055053	0.798086
C87	C	2.419426	0.278281	1.131419
C88	C	1.394021	-0.388299	0.716313
C89	C	1.727354	-0.054965	1.049647
C90	C	2.060687	0.278368	1.382980
C91	C	1.394050	-0.388268	0.823527
C92	C	1.727383	-0.054935	1.156861
C93	C	2.060717	0.278398	1.490194
C94	C	1.394084	-0.178061	0.464772
C95	C	1.727417	0.155272	0.798105
C96	C	2.060750	0.488606	1.131438
C97	C	1.394140	-0.088440	0.464794
C98	C	1.727473	0.244894	0.798127
C99	C	2.060807	0.578227	1.131460
C100	C	1.393940	-0.388383	0.214106
C101	C	1.727273	-0.055049	0.547439
C102	C	2.060606	0.278284	0.880772
C103	C	1.394097	-0.388186	0.106892
C104	C	1.727431	-0.054853	0.440226
C105	C	2.060764	0.278481	0.773559
C106	C	1.394076	-0.388214	1.019822
C107	C	1.727409	-0.054880	1.353156
C108	C	2.060743	0.278453	1.686489
C109	C	1.394059	-0.388246	0.910590
C110	C	1.727392	-0.054913	1.243923
C111	C	2.060725	0.278420	1.577257
