data_functionalizedCrystal
_audit_creation_method	'MofGen! by Chris Wilmer'
_symmetry_space_group_name_H-M	'P1'
_symmetry_Int_Tables_number	1
_symmetry_cell_setting	triclinic
loop_
_symmetry_equiv_pos_as_xyz
  x,y,z
_cell_length_a	12.811434
_cell_length_b	14.519709
_cell_length_c	13.596369
_cell_angle_alpha	89.985562
_cell_angle_beta	95.431513
_cell_angle_gamma	83.864770
loop_
_atom_site_label
_atom_site_type_symbol
_atom_site_fract_x
_atom_site_fract_y
_atom_site_fract_z
O1	O	-1.392895	-0.124234	-0.042445
O2	O	-1.087337	-0.137737	-0.015183
O3	O	-1.248217	0.003234	-0.029564
O4	O	-1.232015	-0.265205	-0.028063
O5	O	-1.248215	0.003242	-0.193147
O6	O	-1.087335	-0.137729	-0.178766
O7	O	-1.392892	-0.124225	-0.206027
Zn8	Zn	-1.240113	-0.130975	-0.218369
Zn9	Zn	-1.240116	-0.130987	-0.002842
O10	O	-1.232012	-0.265196	-0.191646
C11	C	-1.048231	-0.136976	-0.093486
C12	C	-0.931709	-0.134708	-0.083091
C13	C	-1.247461	0.037600	-0.111293
C14	C	-1.245198	0.139986	-0.111106
C15	C	-0.767476	-0.131517	0.020718
C16	C	-0.876958	-0.133647	0.010959
C17	C	-0.876970	-0.133637	-0.167389
C18	C	-0.767488	-0.131507	-0.157630
C19	C	-0.712744	-0.130448	-0.063574
C20	C	-0.603259	-0.128325	-0.053816
C21	C	-0.603274	-0.128308	-0.232164
C22	C	-0.712757	-0.130438	-0.241922
C23	C	-1.236868	0.514902	-0.110389
C24	C	-1.239181	0.410589	-0.110589
C25	C	-1.241033	0.327447	-0.110749
C26	C	-1.243347	0.223127	-0.110946
C27	C	-0.431999	-0.124986	-0.127723
C28	C	-0.548520	-0.127253	-0.138114
C29	C	-1.232768	0.700438	-0.109950
C30	C	-1.235031	0.598052	-0.110235
N31	N	-1.240118	-0.130967	-0.365461
N32	N	-1.240119	-0.130988	0.144250
C33	C	-1.240114	-0.130978	0.545541
C34	C	-1.240112	-0.130984	0.433890
C35	C	-1.240116	-0.130983	0.344899
C36	C	-1.240115	-0.130989	0.233241
H37	H	-0.558688	-0.127467	0.022769
N38	N	-0.935985	-0.134794	0.101878
H39	H	-0.908529	-0.191526	0.143323
H40	H	-1.013636	-0.136267	0.081351
H41	H	-0.722901	-0.130665	0.097302
N42	N	-0.936024	-0.134774	-0.268828
H43	H	-1.013686	-0.136284	-0.262214
H44	H	-0.908495	-0.191505	-0.305300
H45	H	-0.757344	-0.131297	-0.318500
N46	N	-0.544237	-0.127164	-0.323083
H47	H	-0.466398	-0.126936	-0.302618
H48	H	-0.570774	-0.069783	-0.363815
