data_functionalizedCrystal
_audit_creation_method	'MofGen! by Chris Wilmer'
_symmetry_space_group_name_H-M	'P1'
_symmetry_Int_Tables_number	1
_symmetry_cell_setting	triclinic
loop_
_symmetry_equiv_pos_as_xyz
  x,y,z
_cell_length_a	14.853567
_cell_length_b	14.853559
_cell_length_c	9.130313
_cell_angle_alpha	89.999062
_cell_angle_beta	89.997266
_cell_angle_gamma	83.633192
loop_
_atom_site_label
_atom_site_type_symbol
_atom_site_fract_x
_atom_site_fract_y
_atom_site_fract_z
O1	O	-1.196356	-0.117701	-0.121691
O2	O	-0.933896	-0.131722	-0.121715
O3	O	-1.072141	0.006519	-0.121701
O4	O	-1.058111	-0.255942	-0.121705
O5	O	-1.072139	0.006515	0.121898
O6	O	-0.933894	-0.131726	0.121884
O7	O	-1.196354	-0.117704	0.121908
Cu8	Cu	-1.065124	-0.124715	0.144138
Cu9	Cu	-1.065126	-0.124711	-0.143946
O10	O	-1.058110	-0.255945	0.121894
C11	C	-0.900307	-0.131089	0.000081
C12	C	-0.800223	-0.129185	0.000071
C13	C	-1.229944	-0.118338	0.000108
C14	C	-1.330028	-0.120242	0.000108
C15	C	-1.071506	0.040106	0.000096
C16	C	-1.069605	0.140190	0.000087
C17	C	-0.387692	-0.039019	0.000106
C18	C	-0.366406	-0.203252	0.000102
C19	C	-0.460440	-0.205042	0.000097
C20	C	-0.518104	-0.123819	0.000094
C21	C	-0.481735	-0.040806	0.000097
C22	C	-0.496816	-0.288054	0.000080
C23	C	-0.590855	-0.289847	0.000073
C24	C	-0.648521	-0.208623	0.000081
C25	C	-0.612147	-0.125607	0.000085
C26	C	-0.669811	-0.044384	0.000083
C27	C	-0.633438	0.038633	0.000097
C28	C	-0.539401	0.040417	0.000105
C29	C	-0.742559	-0.210408	0.000074
C30	C	-0.763854	-0.046172	0.000074
C31	C	-1.058745	-0.289532	0.000094
C32	C	-1.060646	-0.389616	0.000092
C33	C	-1.061542	0.563367	-0.132699
C34	C	-1.061540	0.563358	0.132881
C35	C	-1.063333	0.469324	0.132883
C36	C	-1.064230	0.422308	0.000091
C37	C	-1.063333	0.469325	-0.132702
C38	C	-1.064221	0.422299	0.265674
C39	C	-1.066014	0.328260	0.265680
C40	C	-1.066917	0.281243	0.132887
C41	C	-1.066021	0.328266	0.000088
C42	C	-1.066917	0.281249	-0.132703
C43	C	-1.066027	0.328271	-0.265503
C44	C	-1.064236	0.422307	-0.265495
C45	C	-1.068708	0.187206	0.132879
C46	C	-1.068708	0.187207	-0.132706
N47	N	-1.065129	-0.124718	0.346761
N48	N	-1.065128	-0.124701	-0.346568
C49	C	-1.126360	-0.063526	0.423419
C50	C	-1.126357	-0.063515	0.576756
C51	C	-1.003891	-0.185897	0.576763
C52	C	-1.003890	-0.185902	0.423429
C53	C	-1.187599	-0.002341	0.346751
C54	C	-1.248835	0.058856	0.423410
C55	C	-1.248832	0.058866	0.576747
C56	C	-1.187594	-0.002319	0.653425
H57	H	-0.810799	0.019971	0.000077
C58	C	-0.787047	0.108803	0.000078
C59	C	-0.696829	0.127912	0.000095
H60	H	-0.826182	0.163920	0.000086
H61	H	-0.798066	0.074779	-0.084871
H62	H	-0.798079	0.074764	0.085026
H63	H	-0.685795	0.161946	-0.084858
H64	H	-0.685806	0.161951	0.085054
C65	C	-1.369881	0.179831	0.438806
C66	C	-1.316142	0.126113	0.339133
H67	H	-1.411429	0.221358	0.386776
H68	H	-1.402349	0.142247	0.498619
H69	H	-1.332307	0.212331	0.498603
H70	H	-1.353715	0.093608	0.279342
H71	H	-1.283671	0.163703	0.279294
H72	H	-0.509777	0.108006	0.000151
H73	H	-0.772169	-0.277999	0.000065
C74	C	-1.268259	0.181546	0.749153
C75	C	-1.316137	0.126136	0.661010
H76	H	-1.309815	0.223077	0.801163
H77	H	-1.231801	0.145110	0.816757
H78	H	-1.230701	0.214040	0.689309
H79	H	-1.353690	0.093637	0.720856
H80	H	-1.352610	0.162576	0.593399
C81	C	-0.560358	-0.452009	0.000085
C82	C	-0.630832	-0.381097	0.000077
H83	H	-0.585041	-0.508342	0.000101
H84	H	-0.524125	-0.447898	-0.084861
H85	H	-0.524123	-0.447886	0.085037
H86	H	-0.667064	-0.385216	-0.084880
H87	H	-0.667081	-0.385210	0.085032
H88	H	-0.358073	0.028572	0.000123
C89	C	-0.951137	-0.341882	0.376209
C90	C	-0.936591	-0.253168	0.339148
H91	H	-0.909590	-0.383406	0.324168
H92	H	-0.942367	-0.350634	0.478487
H93	H	-1.011317	-0.351772	0.351082
H94	H	-0.876413	-0.243275	0.364285
H95	H	-0.945354	-0.244412	0.236847
H96	H	-1.060804	0.601643	0.240994
H97	H	-1.069412	0.148923	0.241003
H98	H	-0.319450	-0.269380	0.000091
H99	H	-1.187608	-0.002346	0.221897
H100	H	-1.066742	0.289983	0.373814
H101	H	-0.449859	-0.354181	0.000067
C102	C	-0.847889	-0.238540	0.623989
C103	C	-0.936586	-0.253150	0.661049
H104	H	-0.806339	-0.280058	0.676032
H105	H	-0.839128	-0.247307	0.521711
H106	H	-0.838044	-0.178347	0.649115
H107	H	-0.946433	-0.313342	0.635913
H108	H	-0.945350	-0.244391	0.763349
H109	H	-1.066751	0.289977	-0.373622
C110	C	-1.068529	0.196662	-0.395228
C111	C	-1.069691	0.135529	-0.278678
H112	H	-1.069130	0.164756	-0.485343
H113	H	-1.120362	0.240145	-0.389697
H114	H	-1.015298	0.226534	-0.389698
H115	H	-1.122925	0.105662	-0.284203
H116	H	-1.017853	0.092030	-0.284212
C117	C	-0.986232	0.441245	0.492030
C118	C	-1.063239	0.473993	0.411619
H119	H	-0.985627	0.473170	0.582126
H120	H	-0.987427	0.378521	0.511057
H121	H	-0.933414	0.449848	0.437445
H122	H	-1.116058	0.465383	0.466199
H123	H	-1.062052	0.536731	0.392596
H124	H	-1.063510	0.460601	-0.373614
H125	H	-1.187591	-0.002299	0.778282
H126	H	-1.060821	0.601657	-0.240822
