data_functionalizedCrystal
_audit_creation_method	'MofGen! by Chris Wilmer'
_symmetry_space_group_name_H-M	'P1'
_symmetry_Int_Tables_number	1
_symmetry_cell_setting	triclinic
loop_
_symmetry_equiv_pos_as_xyz
  x,y,z
_cell_length_a	16.109301
_cell_length_b	9.798715
_cell_length_c	16.109301
_cell_angle_alpha	90.004570
_cell_angle_beta	83.461481
_cell_angle_gamma	90.000966
loop_
_atom_site_label
_atom_site_type_symbol
_atom_site_fract_x
_atom_site_fract_y
_atom_site_fract_z
O1	O	1.103131	0.113409	0.106865
O2	O	1.603131	0.613409	0.606865
O3	O	0.861069	0.113431	0.120165
O4	O	1.361069	0.613431	0.620165
O5	O	0.988750	0.113406	-0.007516
O6	O	1.488750	0.613406	0.492484
O7	O	0.975450	0.113435	0.234546
O8	O	1.475450	0.613435	0.734546
O9	O	0.988740	-0.113577	-0.007516
O10	O	1.488740	0.386423	0.492484
O11	O	0.861060	-0.113551	0.120164
O12	O	1.361060	0.386449	0.620164
O13	O	1.103122	-0.113573	0.106865
O14	O	1.603122	0.386427	0.606865
Zn15	Zn	0.982089	-0.149600	0.113515
Zn16	Zn	1.482089	0.350400	0.613515
Zn17	Zn	0.982102	0.149458	0.113515
Zn18	Zn	1.482102	0.649458	0.613515
O19	O	0.975441	-0.113547	0.234546
O20	O	1.475441	0.386453	0.734546
C21	C	0.830090	-0.000057	0.119626
C22	C	1.330090	0.499943	0.619626
C23	C	0.737794	-0.000049	0.118011
C24	C	1.237794	0.499951	0.618011
N25	N	0.982087	-0.353700	0.113514
N26	N	1.482087	0.146300	0.613514
C27	C	0.515522	-0.000056	0.190018
C28	C	1.015522	0.499944	0.690018
C29	C	0.428801	-0.000065	0.188494
C30	C	0.928801	0.499935	0.688494
C31	C	0.448676	-0.000078	0.037006
C32	C	0.948676	0.499922	0.537006
C33	C	0.535394	-0.000078	0.038530
C34	C	1.035394	0.499922	0.538530
C35	C	0.568815	-0.000061	0.115039
C36	C	1.068815	0.499939	0.615039
C37	C	0.395376	-0.000069	0.111990
C38	C	0.895376	0.499931	0.611990
C39	C	0.301350	-0.000079	0.110337
C40	C	0.801350	0.499921	0.610337
C41	C	0.662847	-0.000054	0.116693
C42	C	1.162847	0.499946	0.616693
C43	C	1.035698	-0.421488	0.059670
C44	C	1.535698	0.078512	0.559670
C45	C	1.035712	-0.578650	0.059667
C46	C	1.535712	-0.078650	0.559667
C47	C	1.134101	-0.000082	0.107404
C48	C	1.634101	0.499918	0.607404
C49	C	1.226397	-0.000081	0.109019
C50	C	1.726397	0.499919	0.609019
C51	C	0.988206	-0.000086	-0.038491
C52	C	1.488206	0.499914	0.461509
C53	C	0.986591	-0.000088	-0.130786
C54	C	1.486591	0.499912	0.369214
N55	N	0.982111	0.353558	0.113509
N56	N	1.482111	0.853558	0.613509
C57	C	1.058599	-0.000073	-0.353059
C58	C	1.558599	0.499927	0.146941
C59	C	1.057075	-0.000061	-0.439779
C60	C	1.557075	0.499939	0.060221
C61	C	0.905586	-0.000053	-0.419905
C62	C	1.405586	0.499947	0.080095
C63	C	0.907111	-0.000055	-0.333186
C64	C	1.407111	0.499945	0.166814
C65	C	0.983620	-0.000071	-0.299766
C66	C	1.483620	0.499929	0.200234
C67	C	0.980571	-0.000058	-0.473205
C68	C	1.480571	0.499942	0.026795
C69	C	0.978918	-0.000046	-0.567231
C70	C	1.478918	0.499954	-0.067231
C71	C	0.985273	-0.000081	-0.205734
C72	C	1.485273	0.499919	0.294266
C73	C	0.975984	-0.000053	0.265521
C74	C	1.475984	0.499947	0.765521
C75	C	0.977600	-0.000042	0.357816
C76	C	1.477600	0.499958	0.857816
H77	H	0.542730	-0.000052	0.252317
H78	H	1.042730	0.499948	0.752317
O79	O	0.834195	-0.000115	-0.281530
O80	O	1.334195	0.499885	0.218470
C81	C	0.766339	-0.000077	-0.329621
C82	C	1.266339	0.499923	0.170379
H83	H	0.787451	-0.043052	-0.394352
H84	H	1.287451	0.456948	0.105648
H85	H	0.713805	-0.065970	-0.297614
H86	H	1.213805	0.434030	0.202386
H87	H	0.742891	0.108820	-0.335783
H88	H	1.242891	0.608820	0.164217
O89	O	1.132864	0.000107	-0.320494
O90	O	1.632864	0.500107	0.179506
C91	C	1.138286	0.117680	-0.270937
C92	C	1.638286	0.617680	0.229063
H93	H	1.072752	0.156869	-0.249316
H94	H	1.572752	0.656869	0.250684
H95	H	1.171417	0.091242	-0.214164
H96	H	1.671417	0.591242	0.285836
H97	H	1.175075	0.200000	-0.309258
H98	H	1.675075	0.700000	0.190742
H99	H	0.385413	-0.000064	0.249550
H100	H	0.885413	0.499936	0.749550
H101	H	0.578788	-0.000086	-0.022530
H102	H	1.078788	0.499914	0.477470
H103	H	1.118130	-0.000060	-0.483168
H104	H	1.618130	0.499940	0.016832
H105	H	0.936194	-0.412015	0.159607
H106	H	1.436194	0.087985	0.659607
O107	O	0.927431	-0.576978	0.168624
O108	O	1.427431	-0.076978	0.668624
C109	C	0.941122	-0.611812	0.250887
C110	C	1.441122	-0.111812	0.750887
H111	H	1.007686	-0.651165	0.251149
H112	H	1.507686	-0.151165	0.751149
H113	H	0.931707	-0.517780	0.292572
H114	H	1.431707	-0.017780	0.792572
H115	H	0.895046	-0.694655	0.275459
H116	H	1.395046	-0.194655	0.775459
O117	O	0.416168	0.000160	-0.037290
O118	O	0.916168	0.500160	0.462710
C119	C	0.366587	0.117701	-0.042690
C120	C	0.866587	0.617701	0.457310
H121	H	0.387085	0.199867	0.000754
H122	H	0.887085	0.699867	0.500754
H123	H	0.374392	0.157159	-0.109697
H124	H	0.874392	0.657159	0.390303
H125	H	0.298195	0.091128	-0.023497
H126	H	0.798195	0.591128	0.476503
H127	H	1.081585	-0.363174	0.013571
H128	H	1.581585	0.136826	0.513571
O129	O	1.090435	-0.648037	0.004555
O130	O	1.590435	-0.148037	0.504555
C131	C	1.076711	-0.613260	-0.077708
C132	C	1.576711	-0.113260	0.422292
H133	H	1.044709	-0.509486	-0.077584
H134	H	1.544709	-0.009486	0.422416
H135	H	1.139121	-0.608509	-0.118801
H136	H	1.639121	-0.108509	0.381199
H137	H	1.035209	-0.693662	-0.103258
H138	H	1.535209	-0.193662	0.396742
O139	O	0.831342	-0.000110	-0.452510
O140	O	1.331342	0.499890	0.047490
C141	C	0.846072	-0.000079	-0.540478
C142	C	1.346072	0.499921	-0.040478
H143	H	0.910958	-0.043052	-0.560864
H144	H	1.410958	0.456948	-0.060864
H145	H	0.797118	-0.065980	-0.567092
H146	H	1.297118	0.434020	-0.067092
H147	H	0.842049	0.108815	-0.564612
H148	H	1.342049	0.608815	-0.064612
