data_functionalizedCrystal
_audit_creation_method	'MofGen! by Chris Wilmer'
_symmetry_space_group_name_H-M	'P1'
_symmetry_Int_Tables_number	1
_symmetry_cell_setting	triclinic
loop_
_symmetry_equiv_pos_as_xyz
  x,y,z
_cell_length_a	19.121141
_cell_length_b	19.121405
_cell_length_c	19.120904
_cell_angle_alpha	89.925587
_cell_angle_beta	89.913687
_cell_angle_gamma	85.044044
loop_
_atom_site_label
_atom_site_type_symbol
_atom_site_fract_x
_atom_site_fract_y
_atom_site_fract_z
Zn1	Zn	-1.070062	0.343625	-0.428078
Zn2	Zn	-0.570062	0.843625	0.071922
Zn3	Zn	-1.079971	0.456301	-0.306245
Zn4	Zn	-0.579971	0.956301	0.193755
Zn5	Zn	-0.957388	0.333632	-0.306266
Zn6	Zn	-0.457388	0.833632	0.193734
Zn7	Zn	-0.957762	0.455827	-0.418463
Zn8	Zn	-0.457762	0.955827	0.081537
O9	O	-1.016296	0.397346	-0.364763
O10	O	-0.516296	0.897346	0.135237
O11	O	-1.169675	0.362952	-0.415932
O12	O	-0.669675	0.862952	0.084068
O13	O	-1.067701	0.436045	-0.208306
O14	O	-0.567701	0.936045	0.291694
O15	O	-0.968031	0.236662	-0.326458
O16	O	-0.468031	0.736662	0.173542
O17	O	-1.176956	0.445735	-0.326422
O18	O	-0.676956	0.945735	0.173578
O19	O	-1.050812	0.244004	-0.415953
O20	O	-0.550812	0.744004	0.084047
O21	O	-0.977640	0.345920	-0.208321
O22	O	-0.477640	0.845920	0.291679
O23	O	-0.859139	0.345461	-0.317134
O24	O	-0.359139	0.845461	0.182866
O25	O	-0.968668	0.444927	-0.517681
O26	O	-0.468668	0.944927	-0.017681
O27	O	-0.859413	0.435237	-0.399564
O28	O	-0.359413	0.935237	0.100436
O29	O	-1.051174	0.362492	-0.524745
O30	O	-0.551174	0.862492	-0.024745
O31	O	-1.068063	0.554533	-0.317098
O32	O	-0.568063	1.054533	0.182902
O33	O	-0.978277	0.554185	-0.399544
O34	O	-0.478277	1.054185	0.100456
C35	C	-0.833788	0.389214	-0.357308
C36	C	-0.333788	0.889214	0.142692
C37	C	-0.755710	0.385752	-0.354135
C38	C	-0.255710	0.885752	0.145865
C39	C	-1.024304	0.579847	-0.357291
C40	C	-0.524304	1.079847	0.142709
C41	C	-1.027794	0.657926	-0.354121
C42	C	-0.527794	1.157926	0.145879
C43	C	-0.719196	0.430932	-0.395488
C44	C	-0.219196	0.930932	0.104512
C45	C	-0.645834	0.427671	-0.392510
C46	C	-0.145834	0.927671	0.107490
C47	C	-0.608986	0.379232	-0.348175
C48	C	-0.108986	0.879232	0.151825
C49	C	-0.645505	0.334046	-0.306821
C50	C	-0.145505	0.834046	0.193179
C51	C	-0.718866	0.337305	-0.309803
C52	C	-0.218866	0.837305	0.190197
C53	C	-0.387475	0.367048	-0.337032
C54	C	0.112525	0.867048	0.162968
C55	C	-0.314109	0.363794	-0.334051
C56	C	0.185891	0.863794	0.165949
C57	C	-0.314442	0.457418	-0.419742
C58	C	0.185558	0.957418	0.080258
C59	C	-0.387805	0.460675	-0.422717
C60	C	0.112195	0.960675	0.077283
C61	C	-0.424317	0.415487	-0.381365
C62	C	0.075683	0.915487	0.118635
C63	C	-0.533998	0.375898	-0.345129
C64	C	-0.033998	0.875898	0.154871
C65	C	-0.499304	0.418818	-0.384416
C66	C	0.000696	0.918818	0.115584
C67	C	-0.199516	0.405507	-0.372239
C68	C	0.300484	0.905507	0.127761
C69	C	-0.277595	0.408974	-0.375404
C70	C	0.222405	0.908974	0.124596
C71	C	-0.982657	0.694448	-0.395518
C72	C	-0.482657	1.194448	0.104482
C73	C	-0.985938	0.767811	-0.392536
C74	C	-0.485938	1.267811	0.107464
C75	C	-1.034361	0.804651	-0.348161
C76	C	-0.534361	1.304651	0.151839
C77	C	-1.079500	0.768123	-0.306759
C78	C	-0.579500	1.268123	0.193241
C79	C	-1.076214	0.694761	-0.309737
C80	C	-0.576214	1.194761	0.190263
C81	C	-1.046619	1.026164	-0.337019
C82	C	-0.546619	1.526164	0.162981
C83	C	-1.049903	1.099532	-0.334045
C84	C	-0.549903	1.599532	0.165955
C85	C	-0.956340	1.099215	-0.419822
C86	C	-0.456340	1.599215	0.080178
C87	C	-0.953061	1.025852	-0.422800
C88	C	-0.453061	1.525852	0.077200
C89	C	-0.998198	0.989330	-0.381395
C90	C	-0.498198	1.489330	0.118605
C91	C	-1.037718	0.879640	-0.345113
C92	C	-0.537718	1.379640	0.154887
C93	C	-0.994837	0.914342	-0.384439
C94	C	-0.494837	1.414342	0.115561
C95	C	-1.008857	0.404771	-0.547318
C96	C	-0.508857	0.904771	-0.047318
C97	C	-1.005687	0.407935	-0.625112
C98	C	-0.505687	0.907935	-0.125112
C99	C	-1.008252	1.214133	-0.372270
C100	C	-0.508252	1.714133	0.127730
C101	C	-1.004766	1.136054	-0.375442
C102	C	-0.504766	1.636054	0.124558
C103	C	-1.047153	0.366505	-0.665339
C104	C	-0.547153	0.866505	-0.165339
C105	C	-1.044165	0.369475	-0.738435
C106	C	-0.544165	0.869475	-0.238435
C107	C	-0.999716	0.413880	-0.771302
C108	C	-0.499716	0.913880	-0.271302
C109	C	-0.958247	0.455312	-0.731070
C110	C	-0.458247	0.955312	-0.231070
C111	C	-0.961230	0.452338	-0.657976
C112	C	-0.461230	0.952338	-0.157976
C113	C	-0.988555	0.425003	-0.991815
C114	C	-0.488555	0.925003	-0.491815
C115	C	-0.985575	0.427976	-1.064915
C116	C	-0.485575	0.927976	-0.564915
C117	C	-1.071494	0.342137	-1.072275
C118	C	-0.571494	0.842137	-0.572275
C119	C	-1.074477	0.339170	-0.999179
C120	C	-0.574477	0.839170	-0.499179
C121	C	-1.033004	0.380600	-0.958953
C122	C	-0.533004	0.880600	-0.458953
C123	C	-0.996664	0.416918	-0.846018
C124	C	-0.496664	0.916918	-0.346018
C125	C	-1.036054	0.377557	-0.884239
C126	C	-0.536054	0.877557	-0.384239
C127	C	-1.023743	0.389901	-0.182922
C128	C	-0.523743	0.889901	0.317078
C129	C	-1.027041	0.386545	-0.105142
C130	C	-0.527041	0.886545	0.394858
H131	H	-0.749192	0.470379	-0.431588
H132	H	-0.249192	0.970379	0.068412
H133	H	-0.284706	0.494206	-0.453410
H134	H	0.215294	0.994206	0.046590
O135	O	-1.120132	0.659391	-0.269499
O136	O	-0.620132	1.159391	0.230501
C137	C	-1.163564	0.707634	-0.229679
C138	C	-0.663564	1.207634	0.270321
H139	H	-1.167151	0.761188	-0.256327
H140	H	-0.667151	1.261188	0.243673
H141	H	-1.218265	0.688546	-0.225377
H142	H	-0.718265	1.188546	0.274623
H143	H	-1.140398	0.712179	-0.175137
H144	H	-0.640398	1.212179	0.324863
O145	O	-0.920937	0.492663	-0.619001
O146	O	-0.420937	0.992663	-0.119001
C147	C	-0.881056	0.532486	-0.663683
C148	C	-0.381056	1.032486	-0.163683
H149	H	-0.907804	0.538312	-0.716867
H150	H	-0.407804	1.038312	-0.216867
H151	H	-0.876859	0.586639	-0.639988
H152	H	-0.376859	1.086639	-0.139988
H153	H	-0.826259	0.504710	-0.670323
H154	H	-0.326259	1.004710	-0.170323
H155	H	-0.615498	0.294603	-0.270725
H156	H	-0.115498	0.794603	0.229275
H157	H	-1.110674	0.303013	-0.972424
H158	H	-0.610674	0.803013	-0.472424
H159	H	-0.955408	0.884345	-0.420567
H160	H	-0.455408	1.384345	0.079433
O161	O	-0.754232	0.293391	-0.269558
O162	O	-0.254232	0.793391	0.230442
C163	C	-0.705979	0.249928	-0.229798
C164	C	-0.205979	0.749928	0.270202
H165	H	-0.655048	0.276271	-0.224026
H166	H	-0.155048	0.776271	0.275974
H167	H	-0.729078	0.241050	-0.175836
H168	H	-0.229078	0.741050	0.324164
H169	H	-0.694795	0.197318	-0.257379
H170	H	-0.194795	0.697318	0.242621
H171	H	-1.077145	0.909642	-0.308983
H172	H	-0.577145	1.409642	0.191017
H173	H	-0.943229	0.664459	-0.431657
H174	H	-0.443229	1.164459	0.068343
O175	O	-0.610289	0.471588	-0.432574
O176	O	-0.110289	0.971588	0.067426
C177	C	-0.571474	0.513390	-0.389066
C178	C	-0.071474	1.013390	0.110934
H179	H	-0.561544	0.485883	-0.336639
H180	H	-0.061544	0.985883	0.163361
H181	H	-0.519145	0.521715	-0.415073
H182	H	-0.019145	1.021715	0.084927
H183	H	-0.602345	0.566373	-0.380305
H184	H	-0.102345	1.066373	0.119695
O185	O	-1.084412	0.329125	-0.777432
O186	O	-0.584412	0.829125	-0.277432
C187	C	-1.066714	0.257707	-0.761819
C188	C	-0.566714	0.757707	-0.261819
H189	H	-1.041810	0.252895	-0.707704
H190	H	-0.541810	0.752895	-0.207704
H191	H	-1.116136	0.228370	-0.762678
H192	H	-0.616136	0.728370	-0.262678
H193	H	-1.027888	0.234105	-0.802450
H194	H	-0.527888	0.734105	-0.302450
O195	O	-0.278280	0.316822	-0.290920
O196	O	0.221720	0.816822	0.209080
C197	C	-0.239409	0.353001	-0.242298
C198	C	0.260591	0.853001	0.257702
H199	H	-0.264131	0.409114	-0.236489
H200	H	0.235869	0.909114	0.263511
H201	H	-0.239616	0.325262	-0.189497
H202	H	0.260384	0.825262	0.310503
H203	H	-0.183048	0.353882	-0.261591
H204	H	0.316952	0.853882	0.238409
O205	O	-1.090234	0.323324	-0.633337
O206	O	-0.590234	0.823324	-0.133337
C207	C	-1.049976	0.274443	-0.591297
C208	C	-0.549976	0.774443	-0.091297
H209	H	-0.998276	0.296402	-0.577149
H210	H	-0.498276	0.796402	-0.077149
H211	H	-1.080275	0.264208	-0.541456
H212	H	-0.580275	0.764208	-0.041456
H213	H	-1.038825	0.223193	-0.621291
H214	H	-0.538825	0.723193	-0.121291
H215	H	-0.417801	0.500121	-0.458818
H216	H	0.082199	1.000121	0.041182
O217	O	-1.111703	0.301914	-1.111455
O218	O	-0.611703	0.801914	-0.611455
C219	C	-1.099554	0.314071	-1.183018
C220	C	-0.599554	0.814071	-0.683018
H221	H	-1.045944	0.335068	-1.189840
H222	H	-0.545944	0.835068	-0.689840
H223	H	-1.100879	0.262798	-1.213150
H224	H	-0.600879	0.762798	-0.713150
H225	H	-1.142013	0.354175	-1.203931
H226	H	-0.642013	0.854175	-0.703931
H227	H	-0.417195	0.330258	-0.303354
H228	H	0.082805	0.830258	0.196646
O229	O	-0.905952	0.990174	-0.465912
O230	O	-0.405952	1.490174	0.034088
C231	C	-0.866823	1.038143	-0.501821
C232	C	-0.366823	1.538143	-0.001821
H233	H	-0.867933	1.089182	-0.470934
H234	H	-0.367933	1.589182	0.029066
H235	H	-0.810221	1.014837	-0.507828
H236	H	-0.310221	1.514837	-0.007828
H237	H	-0.890675	1.049199	-0.555738
H238	H	-0.390675	1.549199	-0.055738
H239	H	-1.083372	0.996434	-0.303307
H240	H	-0.583372	1.496434	0.196693
H241	H	-0.949177	0.797544	-0.426240
H242	H	-0.449177	1.297544	0.073760
O243	O	-0.942333	0.471127	-1.096732
O244	O	-0.442333	0.971127	-0.596732
C245	C	-0.906380	0.507070	-1.045554
C246	C	-0.406380	1.007070	-0.545554
H247	H	-0.904811	0.476071	-0.994531
H248	H	-0.404811	0.976071	-0.494531
H249	H	-0.850502	0.512953	-1.064107
H250	H	-0.350502	1.012953	-0.564107
H251	H	-0.934754	0.561248	-1.036641
H252	H	-0.434754	1.061248	-0.536641
H253	H	-0.529307	0.458254	-0.420517
H254	H	-0.029307	0.958254	0.079483
O255	O	-0.948371	0.465287	-0.952679
O256	O	-0.448371	0.965287	-0.452679
C257	C	-0.992065	0.510737	-0.910181
C258	C	-0.492065	1.010737	-0.410181
H259	H	-1.044661	0.487893	-0.902410
H260	H	-0.544661	0.987893	-0.402410
H261	H	-0.965951	0.516789	-0.857231
H262	H	-0.465951	1.016789	-0.357231
H263	H	-1.000916	0.564278	-0.936536
H264	H	-0.500916	1.064278	-0.436536
O265	O	-1.096967	1.135380	-0.291005
O266	O	-0.596967	1.635380	0.208995
C267	C	-1.142574	1.181443	-0.330976
C268	C	-0.642574	1.681443	0.169024
H269	H	-1.143712	1.161740	-0.387172
H270	H	-0.643712	1.661740	0.112828
H271	H	-1.197695	1.183662	-0.307820
H272	H	-0.697695	1.683662	0.192180
H273	H	-1.123196	1.236172	-0.330255
H274	H	-0.623196	1.736172	0.169745
H275	H	-0.919592	1.128959	-0.453530
H276	H	-0.419592	1.628959	0.046470
O277	O	-1.079326	0.334465	-0.852394
O278	O	-0.579326	0.834465	-0.352394
C279	C	-1.149283	0.353677	-0.872469
C280	C	-0.649283	0.853677	-0.372469
H281	H	-1.149759	0.382899	-0.924494
H282	H	-0.649759	0.882899	-0.424494
H283	H	-1.178464	0.304490	-0.878331
H284	H	-0.678464	0.804490	-0.378331
H285	H	-1.176195	0.389176	-0.830816
H286	H	-0.676195	0.889176	-0.330816
O287	O	-0.498281	0.328883	-0.301967
O288	O	0.001719	0.828883	0.198033
C289	C	-0.519679	0.342091	-0.232283
C290	C	-0.019679	0.842091	0.267717
H291	H	-0.574194	0.371389	-0.231836
H292	H	-0.074194	0.871389	0.268164
H293	H	-0.521215	0.290185	-0.203159
H294	H	-0.021215	0.790185	0.296841
H295	H	-0.480932	0.375379	-0.205504
H296	H	0.019068	0.875379	0.294496
H297	H	-0.922053	0.491465	-0.757836
H298	H	-0.422053	0.991465	-0.257836
H299	H	-1.118924	0.798123	-0.270624
H300	H	-0.618924	1.298123	0.229376
O301	O	-0.953388	0.459977	-0.877912
O302	O	-0.453388	0.959977	-0.377912
C303	C	-0.883435	0.440796	-0.857803
C304	C	-0.383435	0.940796	-0.357803
H305	H	-0.878247	0.383706	-0.839864
H306	H	-0.378247	0.883706	-0.339864
H307	H	-0.847035	0.447255	-0.904205
H308	H	-0.347035	0.947255	-0.404205
H309	H	-0.868455	0.475914	-0.813080
H310	H	-0.368455	0.975914	-0.313080
