data_functionalizedCrystal
_audit_creation_method	'MofGen! by Chris Wilmer'
_symmetry_space_group_name_H-M	'P1'
_symmetry_Int_Tables_number	1
_symmetry_cell_setting	triclinic
loop_
_symmetry_equiv_pos_as_xyz
  x,y,z
_cell_length_a	11.026607
_cell_length_b	11.295483
_cell_length_c	11.026607
_cell_angle_alpha	94.999742
_cell_angle_beta	71.413983
_cell_angle_gamma	95.006835
loop_
_atom_site_label
_atom_site_type_symbol
_atom_site_fract_x
_atom_site_fract_y
_atom_site_fract_z
O1	O	1.733442	0.099022	-0.526917
O2	O	1.366862	0.099024	-0.466153
O3	O	1.519770	0.099019	-0.313245
O4	O	1.580534	0.099027	-0.679825
O5	O	1.506334	-0.099031	-0.326649
O6	O	1.353426	-0.099026	-0.479557
O7	O	1.720006	-0.099028	-0.540321
Cu8	Cu	1.535489	-0.117111	-0.511163
Cu9	Cu	1.551379	0.117107	-0.495311
O10	O	1.567098	-0.099023	-0.693229
C11	C	1.312485	-0.000001	-0.461645
C12	C	1.170471	-0.000000	-0.428228
C13	C	1.116822	0.000003	-0.520498
C14	C	0.970043	0.000004	-0.485962
N15	N	1.524323	-0.281847	-0.522313
C16	C	1.642923	-0.531140	-0.403816
C17	C	1.634495	-0.655804	-0.412253
C18	C	1.499032	-0.655839	-0.547617
C19	C	1.507460	-0.531176	-0.539180
C20	C	1.579409	-0.468831	-0.467278
C21	C	1.587844	-0.344165	-0.458849
C22	C	1.452374	-0.344203	-0.594205
C23	C	1.443946	-0.468866	-0.602643
C24	C	1.774384	-0.000001	-0.544829
C25	C	1.916398	0.000006	-0.578245
C26	C	1.501842	-0.000005	-0.272288
C27	C	1.468426	-0.000000	-0.130273
N28	N	1.562554	0.281843	-0.484153
C29	C	1.585026	0.000003	-0.734186
C30	C	1.618443	0.000007	-0.876200
C31	C	1.560695	0.000001	-0.076624
C32	C	1.526160	0.000005	0.070155
H33	H	1.107739	0.000028	-0.323664
O34	O	1.712651	-0.470611	-0.333793
C35	C	1.662366	-0.501078	-0.205168
H36	H	1.557879	-0.535379	-0.184499
H37	H	1.668602	-0.419077	-0.138894
H38	H	1.719952	-0.573410	-0.188100
O39	O	0.991161	-0.000197	-0.703029
C40	C	0.957866	-0.102747	-0.770986
H41	H	0.910282	-0.174446	-0.701257
H42	H	1.047958	-0.137171	-0.845019
H43	H	0.888437	-0.079551	-0.821634
H44	H	1.440443	-0.706617	-0.606148
H45	H	0.907316	0.000032	-0.381390
O46	O	1.685405	0.000158	-0.151578
C47	C	1.717185	0.102744	-0.222408
H48	H	1.626239	0.136942	-0.231117
H49	H	1.785320	0.079674	-0.322159
H50	H	1.765695	0.174569	-0.171226
O51	O	1.191841	0.000053	-0.645176
C52	C	1.321689	0.000016	-0.651903
H53	H	1.333588	0.037512	-0.556685
H54	H	1.382891	0.057511	-0.731928
H55	H	1.353588	-0.095001	-0.672537
H56	H	1.646432	-0.293405	-0.400307
H57	H	1.686212	-0.706533	-0.360574
H58	H	1.385363	-0.519642	-0.661180
H59	H	1.400662	-0.293456	-0.645885
O60	O	1.401403	0.000220	0.144940
C61	C	1.347359	0.102776	0.125525
H62	H	1.426813	0.174466	0.087655
H63	H	1.277989	0.137211	0.220276
H64	H	1.293573	0.079582	0.052949
H65	H	1.723019	0.000096	0.061079
O66	O	1.343675	0.000215	-0.055484
C67	C	1.289631	0.102770	-0.074899
H68	H	1.369086	0.174460	-0.112770
H69	H	1.220262	0.137205	0.019852
H70	H	1.235845	0.079576	-0.147476
