data_functionalizedCrystal
_audit_creation_method	'MofGen! by Chris Wilmer'
_symmetry_space_group_name_H-M	'P1'
_symmetry_Int_Tables_number	1
_symmetry_cell_setting	triclinic
loop_
_symmetry_equiv_pos_as_xyz
  x,y,z
_cell_length_a	14.853567
_cell_length_b	16.053802
_cell_length_c	16.992695
_cell_angle_alpha	92.741074
_cell_angle_beta	87.151577
_cell_angle_gamma	87.418119
loop_
_atom_site_label
_atom_site_type_symbol
_atom_site_fract_x
_atom_site_fract_y
_atom_site_fract_z
O1	O	1.207156	-0.069372	0.099085
O2	O	0.945559	-0.069386	0.111280
O3	O	1.075308	-0.069373	-0.008961
O4	O	1.077407	-0.069386	0.219326
O5	O	1.068165	0.069485	-0.002370
O6	O	0.938415	0.069472	0.117871
O7	O	1.200013	0.069486	0.105676
Zn8	Zn	1.068080	0.091526	0.112820
Zn9	Zn	1.077492	-0.091426	0.104136
O10	O	1.070263	0.069472	0.225917
C11	C	0.908359	0.000041	0.114023
C12	C	0.808159	0.000036	0.112366
N13	N	1.061662	0.216385	0.118746
N14	N	1.083915	-0.216286	0.098203
C15	C	0.390086	0.000059	0.033941
C16	C	0.378892	0.000050	0.176791
C17	C	0.473036	0.000047	0.178348
C18	C	0.525709	0.000049	0.107700
C19	C	0.484239	0.000053	0.035496
C20	C	0.514514	0.000034	0.250550
C21	C	0.608663	0.000030	0.252110
C22	C	0.661338	0.000038	0.181462
C23	C	0.619862	0.000044	0.109255
C24	C	0.672536	0.000045	0.038607
C25	C	0.631061	0.000057	-0.033600
C26	C	0.536914	0.000061	-0.035152
C27	C	0.755485	0.000034	0.183014
C28	C	0.766689	0.000040	0.040162
C29	C	1.237212	0.000057	0.102933
C30	C	1.337413	0.000057	0.104589
C31	C	1.069038	0.000056	-0.034881
C32	C	1.060988	0.000055	-0.121934
C33	C	1.116894	0.260085	0.067601
C34	C	1.112414	0.347491	0.071754
C35	C	1.052707	0.391196	0.127056
C36	C	0.997469	0.347490	0.178203
C37	C	1.001945	0.260086	0.174045
C38	C	1.033154	0.652604	0.145193
C39	C	1.028684	0.740015	0.149348
C40	C	1.143628	0.740010	0.042898
C41	C	1.148103	0.652603	0.038749
C42	C	1.092862	0.608905	0.089893
N43	N	1.048128	0.480539	0.131304
N44	N	1.097436	0.519563	0.085640
C45	C	1.138663	0.000061	-0.172090
C46	C	1.131094	0.000052	-0.253885
C47	C	1.045849	0.000045	-0.285523
C48	C	0.968168	0.000037	-0.235361
C49	C	0.975738	0.000039	-0.153568
C50	C	1.014473	0.000032	-0.529155
C51	C	1.006908	0.000032	-0.610955
C52	C	1.169836	0.000045	-0.629474
C53	C	1.177398	0.000053	-0.547678
C54	C	1.099717	0.000041	-0.497523
N55	N	1.038110	0.000039	-0.369130
N56	N	1.107458	0.000041	-0.413918
C57	C	1.076533	0.000042	0.251837
C58	C	1.084584	0.000037	0.338889
H59	H	0.673961	0.000053	-0.091122
O60	O	0.345359	0.000078	-0.043937
H61	H	0.369020	-0.056513	-0.080580
H62	H	1.233078	0.000054	-0.670318
O63	O	0.492177	0.000070	-0.113026
H64	H	0.544617	0.000080	-0.161891
O65	O	0.653388	0.000023	0.329989
H66	H	0.727704	0.000017	0.319204
O67	O	0.457698	0.000041	0.326742
H68	H	0.417427	-0.056544	0.326759
H69	H	0.898759	0.000026	-0.261127
O70	O	0.322087	0.000056	0.252988
H71	H	0.249652	0.000068	0.239777
O72	O	0.800218	0.000029	0.260886
H73	H	0.782366	-0.056567	0.292152
H74	H	1.194346	0.000058	-0.294719
H75	H	0.912486	0.000035	-0.112731
O76	O	1.181289	0.212947	0.007951
H77	H	1.218935	0.258022	-0.026921
O78	O	1.203206	0.787137	-0.012267
H79	H	1.160472	0.826966	-0.048553
O80	O	0.914964	0.000022	-0.645088
H81	H	0.880270	-0.056584	-0.627645
O82	O	0.964281	0.787152	0.209000
H83	H	0.970461	0.855271	0.203304
H84	H	0.951219	0.000022	-0.488329
H85	H	0.988176	0.617031	0.186838
O86	O	0.933072	0.394623	0.237855
H87	H	0.939245	0.462743	0.232162
O88	O	0.942380	0.212945	0.229211
H89	H	0.900115	0.258019	0.268370
O90	O	1.212493	0.605463	-0.020904
H91	H	1.250141	0.650536	-0.055778
H92	H	1.208079	0.000072	-0.146337
O93	O	0.823501	0.000048	-0.036037
H94	H	0.811025	-0.056545	-0.073273
O95	O	1.172002	0.394628	0.016606
H96	H	1.214286	0.349553	-0.022535
O97	O	1.269342	0.000040	-0.513554
H98	H	1.322085	0.000030	-0.562174
