data_functionalizedCrystal
_audit_creation_method	'MofGen! by Chris Wilmer'
_symmetry_space_group_name_H-M	'P1'
_symmetry_Int_Tables_number	1
_symmetry_cell_setting	triclinic
loop_
_symmetry_equiv_pos_as_xyz
  x,y,z
_cell_length_a	6.817900
_cell_length_b	10.992668
_cell_length_c	10.943881
_cell_angle_alpha	91.800737
_cell_angle_beta	108.843448
_cell_angle_gamma	108.769342
loop_
_atom_site_label
_atom_site_type_symbol
_atom_site_fract_x
_atom_site_fract_y
_atom_site_fract_z
V1	V	-4.115197	-0.177727	-0.402547
O2	O	-4.073274	0.008578	-0.394890
O3	O	-4.092800	-0.352439	-0.399789
O4	O	-4.093188	-0.174977	-0.578114
O5	O	-4.072883	-0.170113	-0.215330
V6	V	-4.592035	-0.155445	-0.380155
O7	O	-4.391117	-0.226605	-0.451666
O8	O	-4.766312	-0.106567	-0.331036
O9	O	-4.391225	0.019267	-0.382913
O10	O	-4.751355	-0.341750	-0.387812
O11	O	-4.751745	-0.163059	-0.567372
O12	O	-4.390837	-0.158195	-0.204588
C13	C	-3.943273	-0.395030	-0.393437
C14	C	-4.006424	-0.537859	-0.392352
C15	C	-4.252922	-0.600167	-0.399716
C16	C	-4.318416	-0.748653	-0.398077
C17	C	-3.921351	-0.718242	-0.263266
C18	C	-3.857087	-0.569674	-0.264364
C19	C	-3.981199	-0.607679	-0.510920
C20	C	-4.051865	-0.756693	-0.511539
C21	C	-3.943766	-0.168658	-0.620907
C22	C	-4.007227	-0.167565	-0.764434
C23	C	-4.236658	-0.173616	-0.855317
C24	C	-4.123422	-0.063175	-0.921057
C25	C	-4.233479	-0.275981	-0.954421
C26	C	-3.893109	-0.057051	-0.828270
C27	C	-4.003239	-0.269954	-0.861642
C28	C	-3.889832	-0.159482	-0.927334
C29	C	-4.204095	0.061852	-0.389262
C30	C	-4.120183	0.204680	-0.390355
C31	C	-4.203601	-0.164518	-0.161788
C32	C	-4.119377	-0.165604	-0.018260
H33	H	-3.675220	-0.527065	-0.253665
N34	N	-3.938811	-0.379647	-0.828334
N35	N	-3.943461	-0.457679	-0.915706
H36	H	-3.897974	-0.535160	-0.892184
N37	N	-4.187839	0.046541	-0.954304
N38	N	-4.054103	0.158973	-0.905604
H39	H	-4.099599	0.236464	-0.929064
N40	N	-4.400755	-0.576516	-0.515085
N41	N	-4.604535	-0.618897	-0.537757
H42	H	-4.708946	-0.602186	-0.619239
N43	N	-3.875606	-0.511624	-0.151748
N44	N	-3.761821	-0.521941	-0.040017
H45	H	-3.774900	-0.480952	0.039524
H46	H	-4.195734	-0.809021	-0.605556
H47	H	-3.743610	-0.153464	-0.958933
N48	N	-4.414749	-0.392048	-1.023095
N49	N	-4.393148	-0.467959	-1.101106
H50	H	-4.521176	-0.549929	-1.149605
N51	N	-3.711927	0.059114	-0.759769
N52	N	-3.633701	0.077022	-0.637743
H53	H	-3.505743	0.159063	-0.589360
H54	H	-4.467455	-0.801974	-0.489441
H55	H	-3.802393	-0.566853	-0.506653
N56	N	-3.732850	-0.754404	-0.250422
N57	N	-3.742975	-0.837587	-0.334993
H58	H	-3.609848	-0.863129	-0.325927
N59	N	-4.283258	-0.539955	-0.292825
N60	N	-4.124126	-0.451354	-0.211246
H61	H	-4.145540	-0.408827	-0.135750
H62	H	-4.374831	-0.773468	-0.311707
N63	N	-4.111140	-0.582152	-0.632025
N64	N	-4.111927	-0.629830	-0.737465
H65	H	-4.203715	-0.611803	-0.822992
H66	H	-3.966324	-0.743852	-0.173302
N67	N	-3.873842	-0.797516	-0.513860
N68	N	-3.692838	-0.756011	-0.420985
H69	H	-3.567097	-0.784843	-0.422612
H70	H	-4.382556	-0.179467	-0.823448
