data_functionalizedCrystal
_audit_creation_method	'MofGen! by Chris Wilmer'
_symmetry_space_group_name_H-M	'P1'
_symmetry_Int_Tables_number	1
_symmetry_cell_setting	triclinic
loop_
_symmetry_equiv_pos_as_xyz
  x,y,z
_cell_length_a	6.817900
_cell_length_b	11.102288
_cell_length_c	10.943624
_cell_angle_alpha	91.861856
_cell_angle_beta	108.838799
_cell_angle_gamma	108.605689
loop_
_atom_site_label
_atom_site_type_symbol
_atom_site_fract_x
_atom_site_fract_y
_atom_site_fract_z
V1	V	-4.114282	-0.175806	-0.402551
O2	O	-4.073263	0.008482	-0.394888
O3	O	-4.091041	-0.348626	-0.399798
O4	O	-4.092264	-0.173087	-0.578118
O5	O	-4.072031	-0.168273	-0.215334
V6	V	-4.591232	-0.153765	-0.380159
O7	O	-4.389960	-0.224155	-0.451671
O8	O	-4.765752	-0.105415	-0.331038
O9	O	-4.391267	0.019056	-0.382912
O10	O	-4.749649	-0.338053	-0.387822
O11	O	-4.750880	-0.161298	-0.567376
O12	O	-4.390044	-0.156484	-0.204592
C13	C	-3.941308	-0.390757	-0.393448
C14	C	-4.003768	-0.532040	-0.392367
C15	C	-4.217163	-0.604887	-0.398301
C16	C	-4.275844	-0.737639	-0.397296
C17	C	-3.907710	-0.724682	-0.384417
C18	C	-3.849037	-0.591934	-0.385432
C19	C	-3.942867	-0.166837	-0.620910
C20	C	-4.006314	-0.165757	-0.764437
C21	C	-3.851194	-0.158485	-0.841584
C22	C	-4.039808	-0.266416	-0.947575
C23	C	-3.930779	-0.055914	-0.914188
C24	C	-4.194138	-0.273789	-0.868550
C25	C	-4.085029	-0.063191	-0.835140
C26	C	-4.273779	-0.171153	-0.941100
C27	C	-4.204342	0.061180	-0.389258
C28	C	-4.121122	0.202461	-0.390347
C29	C	-4.202783	-0.162738	-0.161793
C30	C	-4.118573	-0.163811	-0.018265
H31	H	-4.343158	-0.556125	-0.403946
H32	H	-4.449608	-0.796947	-0.402130
H33	H	-3.781741	-0.773464	-0.378768
C34	C	-3.617159	-0.512857	-0.378715
C35	C	-3.462826	-0.524089	-0.262974
C36	C	-3.249214	-0.451249	-0.256738
H37	H	-3.589844	-0.543476	-0.451445
H38	H	-3.604252	-0.425194	-0.380243
H39	H	-3.475725	-0.611733	-0.261457
H40	H	-3.490069	-0.493461	-0.190224
H41	H	-3.236307	-0.363587	-0.258266
H42	H	-3.221922	-0.481875	-0.329473
H43	H	-3.144474	-0.458851	-0.178203
H44	H	-4.304885	-0.365970	-0.848006
H45	H	-4.021354	-0.352332	-0.996523
C46	C	-4.512672	-0.178053	-0.998800
C47	C	-4.520787	-0.068240	-1.056617
C48	C	-4.740813	-0.074550	-1.109771
H49	H	-4.595688	-0.252433	-1.062922
H50	H	-4.573397	-0.182421	-0.931502
H51	H	-4.460092	-0.063886	-1.123909
H52	H	-4.437818	0.006156	-0.992522
H53	H	-4.801538	-0.078918	-1.042473
H54	H	-4.823811	-0.148934	-1.173888
H55	H	-4.746347	-0.000039	-1.148996
C56	C	-3.612301	-0.151475	-0.783374
C57	C	-3.554859	-0.151438	-0.648439
C58	C	-3.334811	-0.144972	-0.594768
H59	H	-3.595836	-0.223760	-0.822092
H60	H	-3.518450	-0.074808	-0.799764
H61	H	-3.648682	-0.228096	-0.632059
H62	H	-3.571271	-0.079157	-0.609686
H63	H	-3.240961	-0.068305	-0.611158
H64	H	-3.318368	-0.217259	-0.633495
H65	H	-3.295803	-0.144934	-0.503208
C66	C	-4.109129	0.051536	-0.769846
C67	C	-3.969997	0.165292	-0.792212
C68	C	-3.992092	0.271015	-0.732064
H69	H	-4.258065	0.048023	-0.805163
H70	H	-4.069517	0.049611	-0.678540
H71	H	-4.009622	0.167216	-0.883499
H72	H	-3.821046	0.168847	-0.756891
H73	H	-3.952480	0.269090	-0.640758
H74	H	-4.141032	0.267490	-0.767386
H75	H	-3.897681	0.348210	-0.747221
C76	C	-3.782773	0.066840	-0.941624
C77	C	-3.562602	0.072945	-0.891030
C78	C	-3.426181	0.186009	-0.916259
H79	H	-3.825039	0.067152	-1.033227
H80	H	-3.797290	0.139093	-0.901430
H81	H	-3.548094	0.000712	-0.931229
H82	H	-3.520268	0.072655	-0.799428
H83	H	-3.440699	0.258261	-0.876065
H84	H	-3.468467	0.186310	-1.007863
H85	H	-3.276780	0.190171	-0.881925
