data_functionalizedCrystal
_audit_creation_method	'MofGen! by Chris Wilmer'
_symmetry_space_group_name_H-M	'P1'
_symmetry_Int_Tables_number	1
_symmetry_cell_setting	triclinic
loop_
_symmetry_equiv_pos_as_xyz
  x,y,z
_cell_length_a	18.215407
_cell_length_b	13.897448
_cell_length_c	18.215399
_cell_angle_alpha	89.973672
_cell_angle_beta	89.982187
_cell_angle_gamma	90.012205
loop_
_atom_site_label
_atom_site_type_symbol
_atom_site_fract_x
_atom_site_fract_y
_atom_site_fract_z
Zn1	Zn	1.125109	-0.384166	-0.416084
Zn2	Zn	1.125033	-0.545476	-0.293022
Zn3	Zn	1.002041	-0.384181	-0.293036
Zn4	Zn	1.002023	-0.545405	-0.416051
O5	O	1.063551	-0.464807	-0.354548
O6	O	1.228083	-0.405587	-0.399768
O7	O	1.108693	-0.524115	-0.190039
O8	O	1.018406	-0.249197	-0.309379
O9	O	1.228027	-0.524101	-0.309354
O10	O	1.108823	-0.249186	-0.399782
O11	O	1.018332	-0.405613	-0.190050
O12	O	0.899055	-0.405544	-0.309346
O13	O	1.018374	-0.523981	-0.519040
O14	O	0.899041	-0.523995	-0.399725
O15	O	1.108805	-0.405519	-0.519064
O16	O	1.108675	-0.680448	-0.309322
O17	O	1.018300	-0.680396	-0.399711
C18	C	0.872345	-0.464765	-0.354534
C19	C	0.790546	-0.464770	-0.354545
C20	C	0.525512	-0.403216	-0.401702
C21	C	0.602371	-0.403200	-0.401699
C22	C	0.602332	-0.526429	-0.307411
C23	C	0.525474	-0.526449	-0.307417
C24	C	0.487067	-0.464837	-0.354562
C25	C	0.640783	-0.464801	-0.354553
C26	C	0.724116	-0.464785	-0.354550
C27	C	0.403728	-0.464854	-0.354566
C28	C	1.063498	-0.715421	-0.354527
C29	C	1.063542	-0.822635	-0.354542
C30	C	1.063619	-1.018930	-0.354589
C31	C	1.063574	-0.909698	-0.354565
C32	C	1.255504	-0.464850	-0.354563
C33	C	1.337303	-0.464869	-0.354569
C34	C	1.063596	-0.464740	-0.546501
C35	C	1.063615	-0.464712	-0.628300
C36	C	1.063625	-0.213214	-0.354586
C37	C	1.063657	-0.106000	-0.354602
C38	C	1.110719	-0.402971	-0.816508
C39	C	1.110728	-0.402943	-0.893367
C40	C	1.016563	-0.526304	-0.893330
C41	C	1.016551	-0.526326	-0.816473
C42	C	1.063633	-0.464662	-0.778064
C43	C	1.063654	-0.464611	-0.931780
C44	C	1.063663	-0.464581	-1.015114
C45	C	1.063624	-0.464690	-0.694725
C46	C	1.063549	-0.464804	-0.163342
C47	C	1.063672	-0.464560	-0.081544
H48	H	0.633613	-0.576590	-0.269026
O49	O	0.639798	-0.343292	-0.447388
C50	C	0.726545	-0.213018	-0.457447
C51	C	0.684219	-0.280819	-0.405620
H52	H	0.762458	-0.162479	-0.423698
H53	H	0.762589	-0.257303	-0.495860
H54	H	0.685876	-0.169035	-0.491158
H55	H	0.724835	-0.324818	-0.371861
H56	H	0.648164	-0.236480	-0.367256
O57	O	1.156370	-0.342927	-0.779231
C58	C	1.192156	-0.178860	-0.755792
C59	C	1.140401	-0.246756	-0.798036
H60	H	1.179275	-0.101093	-0.770991
H61	H	1.184061	-0.189386	-0.694246
H62	H	1.251491	-0.195852	-0.770902
H63	H	1.081047	-0.229807	-0.782987
H64	H	1.148560	-0.236218	-0.859571
O65	O	0.488235	-0.343479	-0.447606
C66	C	0.464805	-0.296834	-0.572852
C67	C	0.507051	-0.364558	-0.520946
H68	H	0.480014	-0.313838	-0.632157
H69	H	0.403260	-0.307433	-0.564825
H70	H	0.479904	-0.219035	-0.559992
H71	H	0.492014	-0.442382	-0.533773
H72	H	0.568586	-0.353875	-0.528983
O73	O	0.488205	-0.586446	-0.261658
C74	C	0.464636	-0.750476	-0.225760
C75	C	0.506901	-0.682639	-0.277610
H76	H	0.479724	-0.828263	-0.238649
H77	H	0.479735	-0.733520	-0.166426
H78	H	0.403110	-0.739859	-0.233853
H79	H	0.568436	-0.693218	-0.269582
H80	H	0.491740	-0.699612	-0.336925
H81	H	1.149069	-0.352707	-0.924665
O82	O	0.970902	-0.586175	-0.930756
C83	C	0.929157	-0.640774	-1.049142
C84	C	0.980916	-0.572933	-1.006852
H85	H	0.937224	-0.630077	-1.110673
H86	H	0.942057	-0.718581	-1.034073
H87	H	0.869825	-0.623838	-1.033981
H88	H	1.040265	-0.589782	-1.021990
H89	H	0.967952	-0.495147	-1.021925
O90	O	0.970834	-0.586167	-0.779009
C91	C	0.929117	-0.640907	-0.660586
C92	C	0.980916	-0.573081	-0.702922
H93	H	0.937262	-0.630365	-0.599063
H94	H	0.869766	-0.623952	-0.675635
H95	H	0.942014	-0.718674	-0.675727
H96	H	0.968086	-0.495291	-0.687804
H97	H	1.040252	-0.590118	-0.687869
