data_functionalizedCrystal
_audit_creation_method	'MofGen! by Chris Wilmer'
_symmetry_space_group_name_H-M	'P1'
_symmetry_Int_Tables_number	1
_symmetry_cell_setting	triclinic
loop_
_symmetry_equiv_pos_as_xyz
  x,y,z
_cell_length_a	6.817900
_cell_length_b	17.110486
_cell_length_c	14.125369
_cell_angle_alpha	96.591968
_cell_angle_beta	100.397648
_cell_angle_gamma	99.060439
loop_
_atom_site_label
_atom_site_type_symbol
_atom_site_fract_x
_atom_site_fract_y
_atom_site_fract_z
V1	V	-3.961347	-0.246410	-0.132827
O2	O	-3.966155	-0.242039	0.006678
O3	O	-3.897876	-0.244417	-0.263658
O4	O	-3.891460	-0.354018	-0.130655
O5	O	-3.972616	-0.131679	-0.127246
V6	V	-4.449713	-0.232724	-0.116156
O7	O	-4.211984	-0.276430	-0.169397
O8	O	-4.649273	-0.202705	-0.079587
O9	O	-4.289977	-0.234718	0.014674
O10	O	-4.562302	-0.237095	-0.255661
O11	O	-4.555840	-0.347455	-0.121737
O12	O	-4.296394	-0.125116	-0.118329
C13	C	-3.739906	-0.240450	-0.295555
C14	C	-3.769154	-0.239538	-0.402510
C15	C	-4.007634	-0.241240	-0.650649
C16	C	-3.822804	-0.237897	-0.598335
C17	C	-3.792954	-0.238810	-0.489368
C18	C	-4.037492	-0.240327	-0.759626
C19	C	-3.731720	-0.380256	-0.125896
C20	C	-3.755763	-0.468225	-0.124985
C21	C	-3.947792	-0.513572	-0.129359
C22	C	-3.970371	-0.596228	-0.128503
C23	C	-3.800920	-0.633534	-0.123280
C24	C	-3.608875	-0.588180	-0.118902
C25	C	-3.586296	-0.505526	-0.119752
C26	C	-3.860048	-0.882896	-0.120469
C27	C	-3.882643	-0.965557	-0.119623
C28	C	-4.244138	-0.973598	-0.129221
C29	C	-4.221544	-0.890942	-0.130076
C30	C	-4.029500	-0.845595	-0.125694
C31	C	-3.823996	-0.718022	-0.122407
C32	C	-4.006425	-0.761108	-0.126559
C33	C	-4.111289	-0.238682	0.046567
C34	C	-4.061278	-0.239599	0.153521
C35	C	-4.119476	-0.098874	-0.123091
C36	C	-4.074672	-0.010905	-0.123997
H37	H	-4.085784	-0.483204	-0.133619
N38	N	-4.177481	-0.645137	-0.133202
H39	H	-4.281400	-0.608961	-0.136641
H40	H	-4.213507	-0.687156	-0.192963
H41	H	-4.143441	-0.244787	-0.613602
N42	N	-3.379178	-0.456615	-0.115040
H43	H	-3.390584	-0.398592	-0.116367
H44	H	-3.285437	-0.461765	-0.052885
H45	H	-3.703689	-0.845988	-0.116935
H46	H	-4.359533	-0.860573	-0.134328
N47	N	-4.189174	-0.720867	-0.132195
H48	H	-4.290884	-0.744548	-0.194056
H49	H	-4.253205	-0.729471	-0.074195
H50	H	-4.400493	-1.010529	-0.132788
H51	H	-3.744644	-0.995929	-0.115366
N52	N	-3.426101	-0.628411	-0.113275
H53	H	-3.324386	-0.604727	-0.051417
H54	H	-3.469706	-0.687649	-0.113447
N55	N	-3.642885	-0.233198	-0.647400
H56	H	-3.690040	-0.233201	-0.719416
H57	H	-3.542797	-0.182361	-0.618478
N58	N	-3.641235	-0.758261	-0.116777
H59	H	-3.623793	-0.784831	-0.056301
H60	H	-3.661446	-0.799883	-0.176162
