data_functionalizedCrystal
_audit_creation_method	'MofGen! by Chris Wilmer'
_symmetry_space_group_name_H-M	'P1'
_symmetry_Int_Tables_number	1
_symmetry_cell_setting	triclinic
loop_
_symmetry_equiv_pos_as_xyz
  x,y,z
_cell_length_a	27.732048
_cell_length_b	27.732048
_cell_length_c	15.186229
_cell_angle_alpha	89.991324
_cell_angle_beta	90.002148
_cell_angle_gamma	82.642655
loop_
_atom_site_label
_atom_site_type_symbol
_atom_site_fract_x
_atom_site_fract_y
_atom_site_fract_z
O1	O	0.640926	0.057516	-0.073124
O2	O	0.890926	0.307516	0.176876
O3	O	1.140926	0.557516	0.426876
O4	O	1.390926	0.807516	0.676876
O5	O	0.500133	0.066262	-0.073152
O6	O	0.750133	0.316262	0.176848
O7	O	1.000133	0.566262	0.426848
O8	O	1.250133	0.816262	0.676848
O9	O	0.574902	-0.008508	-0.073121
O10	O	0.824902	0.241492	0.176879
O11	O	1.074902	0.491492	0.426879
O12	O	1.324902	0.741492	0.676879
O13	O	0.566157	0.132286	-0.073156
O14	O	0.816157	0.382286	0.176844
O15	O	1.066157	0.632286	0.426844
O16	O	1.316157	0.882286	0.676844
O17	O	0.574897	-0.008509	0.073336
O18	O	0.824897	0.241491	0.323336
O19	O	1.074897	0.491491	0.573336
O20	O	1.324897	0.741491	0.823336
O21	O	0.500128	0.066261	0.073305
O22	O	0.750128	0.316261	0.323305
O23	O	1.000128	0.566261	0.573305
O24	O	1.250128	0.816261	0.823305
O25	O	0.640921	0.057515	0.073333
O26	O	0.890921	0.307515	0.323333
O27	O	1.140921	0.557515	0.573333
O28	O	1.390921	0.807515	0.823333
Zn29	Zn	0.570524	0.061888	0.096572
Zn30	Zn	0.820524	0.311888	0.346572
Zn31	Zn	1.070524	0.561888	0.596572
Zn32	Zn	1.320524	0.811888	0.846572
Zn33	Zn	0.570530	0.061889	-0.096392
Zn34	Zn	0.820530	0.311889	0.153608
Zn35	Zn	1.070530	0.561889	0.403608
Zn36	Zn	1.320530	0.811889	0.653608
O37	O	0.566152	0.132285	0.073301
O38	O	0.816152	0.382285	0.323301
O39	O	1.066152	0.632285	0.573301
O40	O	1.316152	0.882285	0.823301
C41	C	0.482124	0.066078	0.000073
C42	C	0.732124	0.316078	0.250073
C43	C	0.982124	0.566078	0.500073
C44	C	1.232124	0.816078	0.750073
C45	C	0.428469	0.065525	0.000063
C46	C	0.678469	0.315525	0.250063
C47	C	0.928469	0.565525	0.500063
C48	C	1.178469	0.815525	0.750063
C49	C	0.089654	0.106229	0.000091
C50	C	0.339654	0.356229	0.250091
C51	C	0.589654	0.606229	0.500091
C52	C	0.839654	0.856229	0.750091
C53	C	-0.112006	0.104178	0.000099
C54	C	0.137994	0.354178	0.250099
C55	C	0.387994	0.604178	0.500099
C56	C	0.637994	0.854178	0.750099
O57	O	-0.143262	0.141398	0.000128
O58	O	0.106738	0.391398	0.250128
O59	O	0.356738	0.641398	0.500128
O60	O	0.606738	0.891398	0.750128
N61	N	-0.131130	0.059843	0.000109
N62	N	0.118870	0.309843	0.250109
N63	N	0.368870	0.559843	0.500109
N64	N	0.618870	0.809843	0.750109
C65	C	-0.099835	0.016017	0.000122
C66	C	0.150165	0.266017	0.250122
C67	C	0.400165	0.516017	0.500122
C68	C	0.650165	0.766017	0.750122
O69	O	-0.120728	-0.021740	0.000139
O70	O	0.129272	0.228260	0.250139
O71	O	0.379272	0.478260	0.500139
O72	O	0.629272	0.728260	0.750139
C73	C	0.101824	0.018068	0.000120
C74	C	0.351824	0.268068	0.250120
C75	C	0.601824	0.518068	0.500120
C76	C	0.851824	0.768068	0.750120
C77	C	0.120944	0.062407	0.000101
C78	C	0.370944	0.312407	0.250101
C79	C	0.620944	0.562407	0.500101
C80	C	0.870944	0.812407	0.750101
C81	C	0.108775	0.150563	0.000073
C82	C	0.358775	0.400563	0.250073
C83	C	0.608775	0.650563	0.500073
C84	C	0.858775	0.900563	0.750073
C85	C	0.159187	0.151075	0.000066
C86	C	0.409187	0.401075	0.250066
C87	C	0.659187	0.651075	0.500066
C88	C	0.909187	0.901075	0.750066
C89	C	0.190477	0.107253	0.000077
C90	C	0.440477	0.357253	0.250077
C91	C	0.690477	0.607253	0.500077
C92	C	0.940477	0.857253	0.750077
C93	C	0.171356	0.062919	0.000095
C94	C	0.421356	0.312919	0.250095
C95	C	0.671356	0.562919	0.500095
C96	C	0.921356	0.812919	0.750095
C97	C	0.133117	-0.025757	0.000139
C98	C	0.383117	0.224243	0.250139
C99	C	0.633117	0.474243	0.500139
C100	C	0.883117	0.724243	0.750139
C101	C	0.183535	-0.025240	0.000141
C102	C	0.433535	0.224760	0.250141
C103	C	0.683535	0.474760	0.500141
C104	C	0.933535	0.724760	0.750141
C105	C	0.202655	0.019098	0.000123
C106	C	0.452655	0.269098	0.250123
C107	C	0.702655	0.519098	0.500123
C108	C	0.952655	0.769098	0.750123
C109	C	0.253059	0.019609	0.000098
C110	C	0.503059	0.269609	0.250098
C111	C	0.753059	0.519609	0.500098
C112	C	1.003059	0.769609	0.750098
N113	N	0.272183	0.063944	0.000089
N114	N	0.522183	0.313944	0.250089
N115	N	0.772183	0.563944	0.500089
N116	N	1.022183	0.813944	0.750089
C117	C	0.240892	0.107766	0.000078
C118	C	0.490892	0.357766	0.250078
C119	C	0.740892	0.607766	0.500078
C120	C	0.990892	0.857766	0.750078
C121	C	-0.205709	0.014943	0.000121
C122	C	0.044291	0.264943	0.250121
C123	C	0.294291	0.514943	0.500121
C124	C	0.544291	0.764943	0.750121
C125	C	-0.256124	0.014430	0.000120
C126	C	-0.006124	0.264430	0.250120
C127	C	0.243876	0.514430	0.500120
C128	C	0.493876	0.764430	0.750120
C129	C	-0.268291	0.102591	0.000099
C130	C	-0.018291	0.352591	0.250099
C131	C	0.231709	0.602591	0.500099
C132	C	0.481709	0.852591	0.750099
C133	C	-0.217876	0.103104	0.000094
C134	C	0.032124	0.353104	0.250094
C135	C	0.282124	0.603104	0.500094
C136	C	0.532124	0.853104	0.750094
C137	C	-0.186585	0.059278	0.000112
C138	C	0.063415	0.309278	0.250112
C139	C	0.313415	0.559278	0.500112
C140	C	0.563415	0.809278	0.750112
C141	C	0.346761	0.108839	0.000063
C142	C	0.596761	0.358839	0.250063
C143	C	0.846761	0.608839	0.500063
C144	C	1.096761	0.858839	0.750063
C145	C	0.397178	0.109347	0.000052
C146	C	0.647178	0.359347	0.250052
C147	C	0.897178	0.609347	0.500052
C148	C	1.147178	0.859347	0.750052
C149	C	0.409341	0.021186	0.000078
C150	C	0.659341	0.271186	0.250078
C151	C	0.909341	0.521186	0.500078
C152	C	1.159341	0.771186	0.750078
C153	C	0.358929	0.020678	0.000084
C154	C	0.608929	0.270678	0.250084
C155	C	0.858929	0.520678	0.500084
C156	C	1.108929	0.770678	0.750084
C157	C	0.327639	0.064508	0.000079
C158	C	0.577639	0.314508	0.250079
C159	C	0.827639	0.564508	0.500079
C160	C	1.077639	0.814508	0.750079
O161	O	0.284343	-0.017592	0.000079
O162	O	0.534343	0.232408	0.250079
O163	O	0.784343	0.482408	0.500079
O164	O	1.034343	0.732408	0.750079
O165	O	0.261794	0.145518	0.000080
O166	O	0.511794	0.395518	0.250080
O167	O	0.761794	0.645518	0.500080
O168	O	1.011794	0.895518	0.750080
C169	C	0.039242	0.105716	0.000098
C170	C	0.289242	0.355716	0.250098
C171	C	0.539242	0.605716	0.500098
C172	C	0.789242	0.855716	0.750098
C173	C	0.020120	0.061382	0.000115
C174	C	0.270120	0.311382	0.250115
C175	C	0.520120	0.561382	0.500115
C176	C	0.770120	0.811382	0.750115
C177	C	0.051411	0.017560	0.000126
C178	C	0.301411	0.267560	0.250126
C179	C	0.551411	0.517560	0.500126
C180	C	0.801411	0.767560	0.750126
C181	C	-0.030294	0.060869	0.000114
C182	C	0.219706	0.310869	0.250114
C183	C	0.469706	0.560869	0.500114
C184	C	0.719706	0.810869	0.750114
C185	C	-0.061585	0.104691	0.000104
C186	C	0.188415	0.354691	0.250104
C187	C	0.438415	0.604691	0.500104
C188	C	0.688415	0.854691	0.750104
C189	C	-0.042461	0.149026	0.000094
C190	C	0.207539	0.399026	0.250094
C191	C	0.457539	0.649026	0.500094
C192	C	0.707539	0.899026	0.750094
C193	C	0.007951	0.149539	0.000087
C194	C	0.257951	0.399539	0.250087
C195	C	0.507951	0.649539	0.500087
C196	C	0.757951	0.899539	0.750087
C197	C	0.032287	-0.026775	0.000135
C198	C	0.282287	0.223225	0.250135
C199	C	0.532287	0.473225	0.500135
C200	C	0.782287	0.723225	0.750135
C201	C	-0.018125	-0.027284	0.000141
C202	C	0.231875	0.222716	0.250141
C203	C	0.481875	0.472716	0.500141
C204	C	0.731875	0.722716	0.750141
C205	C	-0.049416	0.016538	0.000131
C206	C	0.200584	0.266538	0.250131
C207	C	0.450584	0.516538	0.500131
C208	C	0.700584	0.766538	0.750131
C209	C	0.574716	-0.026515	0.000110
C210	C	0.824716	0.223485	0.250110
C211	C	1.074716	0.473485	0.500110
C212	C	1.324716	0.723485	0.750110
C213	C	0.574164	-0.080170	0.000117
C214	C	0.824164	0.169830	0.250117
C215	C	1.074164	0.419830	0.500117
C216	C	1.324164	0.669830	0.750117
C217	C	0.614867	-0.418985	0.000080
C218	C	0.864867	-0.168985	0.250080
C219	C	1.114867	0.081015	0.500080
C220	C	1.364867	0.331015	0.750080
C221	C	0.612816	-0.620645	0.000068
C222	C	0.862816	-0.370645	0.250068
C223	C	1.112816	-0.120645	0.500068
C224	C	1.362816	0.129355	0.750068
O225	O	0.650037	-0.651900	0.000036
O226	O	0.900037	-0.401900	0.250036
O227	O	1.150037	-0.151900	0.500036
O228	O	1.400037	0.098100	0.750036
N229	N	0.568481	-0.639768	0.000060
N230	N	0.818481	-0.389768	0.250060
N231	N	1.068481	-0.139768	0.500060
N232	N	1.318481	0.110232	0.750060
C233	C	0.524656	-0.608474	0.000049
C234	C	0.774656	-0.358474	0.250049
C235	C	1.024656	-0.108474	0.500049
C236	C	1.274656	0.141526	0.750049
O237	O	0.486899	-0.629367	0.000033
O238	O	0.736899	-0.379367	0.250033
O239	O	0.986899	-0.129367	0.500033
O240	O	1.236899	0.120633	0.750033
C241	C	0.526707	-0.406815	0.000055
C242	C	0.776707	-0.156815	0.250055
C243	C	1.026707	0.093185	0.500055
C244	C	1.276707	0.343185	0.750055
C245	C	0.571045	-0.387694	0.000072
C246	C	0.821045	-0.137694	0.250072
C247	C	1.071045	0.112306	0.500072
C248	C	1.321045	0.362306	0.750072
C249	C	0.659202	-0.399864	0.000096
C250	C	0.909202	-0.149864	0.250096
C251	C	1.159202	0.100136	0.500096
C252	C	1.409202	0.350136	0.750096
C253	C	0.659714	-0.349452	0.000104
C254	C	0.909714	-0.099452	0.250104
C255	C	1.159714	0.150548	0.500104
C256	C	1.409714	0.400548	0.750104
C257	C	0.615892	-0.318161	0.000096
C258	C	0.865892	-0.068161	0.250096
C259	C	1.115892	0.181839	0.500096
C260	C	1.365892	0.431839	0.750096
C261	C	0.571557	-0.337282	0.000080
C262	C	0.821557	-0.087282	0.250080
C263	C	1.071557	0.162718	0.500080
C264	C	1.321557	0.412718	0.750080
C265	C	0.482882	-0.375521	0.000038
C266	C	0.732882	-0.125521	0.250038
C267	C	0.982882	0.124479	0.500038
C268	C	1.232882	0.374479	0.750038
C269	C	0.483399	-0.325104	0.000038
C270	C	0.733399	-0.075104	0.250038
C271	C	0.983399	0.174896	0.500038
C272	C	1.233399	0.424896	0.750038
C273	C	0.527737	-0.305983	0.000055
C274	C	0.777737	-0.055983	0.250055
C275	C	1.027737	0.194017	0.500055
C276	C	1.277737	0.444017	0.750055
C277	C	0.528247	-0.255580	0.000080
C278	C	0.778247	-0.005580	0.250080
C279	C	1.028247	0.244420	0.500080
C280	C	1.278247	0.494420	0.750080
N281	N	0.572583	-0.236456	0.000088
N282	N	0.822583	0.013544	0.250088
N283	N	1.072583	0.263544	0.500088
N284	N	1.322583	0.513544	0.750088
C285	C	0.616405	-0.267747	0.000096
C286	C	0.866405	-0.017747	0.250096
C287	C	1.116405	0.232253	0.500096
C288	C	1.366405	0.482253	0.750096
C289	C	0.523582	-0.714348	0.000047
C290	C	0.773582	-0.464348	0.250047
C291	C	1.023582	-0.214348	0.500047
C292	C	1.273582	0.035652	0.750047
C293	C	0.523069	-0.764762	0.000047
C294	C	0.773069	-0.514762	0.250047
C295	C	1.023069	-0.264762	0.500047
C296	C	1.273069	-0.014762	0.750047
C297	C	0.611230	-0.776930	0.000064
C298	C	0.861230	-0.526930	0.250064
C299	C	1.111230	-0.276930	0.500064
C300	C	1.361230	-0.026930	0.750064
C301	C	0.611742	-0.726514	0.000071
C302	C	0.861742	-0.476514	0.250071
C303	C	1.111742	-0.226514	0.500071
C304	C	1.361742	0.023486	0.750071
C305	C	0.567917	-0.695224	0.000055
C306	C	0.817917	-0.445224	0.250055
C307	C	1.067917	-0.195224	0.500055
C308	C	1.317917	0.054776	0.750055
C309	C	0.617477	-0.161878	0.000114
C310	C	0.867477	0.088122	0.250114
C311	C	1.117477	0.338122	0.500114
C312	C	1.367477	0.588122	0.750114
C313	C	0.617986	-0.111461	0.000125
C314	C	0.867986	0.138539	0.250125
C315	C	1.117986	0.388539	0.500125
C316	C	1.367986	0.638539	0.750125
C317	C	0.529825	-0.099298	0.000104
C318	C	0.779825	0.150702	0.250104
C319	C	1.029825	0.400702	0.500104
C320	C	1.279825	0.650702	0.750104
C321	C	0.529316	-0.149710	0.000097
C322	C	0.779316	0.100290	0.250097
C323	C	1.029316	0.350290	0.500097
C324	C	1.279316	0.600290	0.750097
C325	C	0.573147	-0.180999	0.000099
C326	C	0.823147	0.069001	0.250099
C327	C	1.073147	0.319001	0.500099
C328	C	1.323147	0.569001	0.750099
O329	O	0.491047	-0.224296	0.000101
O330	O	0.741047	0.025704	0.250101
O331	O	0.991047	0.275704	0.500101
O332	O	1.241047	0.525704	0.750101
O333	O	0.654156	-0.246844	0.000093
O334	O	0.904156	0.003156	0.250093
O335	O	1.154156	0.253156	0.500093
O336	O	1.404156	0.503156	0.750093
C337	C	0.614355	-0.469397	0.000072
C338	C	0.864355	-0.219397	0.250072
C339	C	1.114355	0.030603	0.500072
C340	C	1.364355	0.280603	0.750072
C341	C	0.570021	-0.488518	0.000056
C342	C	0.820021	-0.238518	0.250056
C343	C	1.070021	0.011482	0.500056
C344	C	1.320021	0.261482	0.750056
C345	C	0.526198	-0.457228	0.000048
C346	C	0.776198	-0.207228	0.250048
C347	C	1.026198	0.042772	0.500048
C348	C	1.276198	0.292772	0.750048
C349	C	0.569508	-0.538933	0.000056
C350	C	0.819508	-0.288933	0.250056
C351	C	1.069508	-0.038933	0.500056
C352	C	1.319508	0.211067	0.750056
C353	C	0.613330	-0.570223	0.000064
C354	C	0.863330	-0.320223	0.250064
C355	C	1.113330	-0.070223	0.500064
C356	C	1.363330	0.179777	0.750064
C357	C	0.657665	-0.551100	0.000072
C358	C	0.907665	-0.301100	0.250072
C359	C	1.157665	-0.051100	0.500072
C360	C	1.407665	0.198900	0.750072
C361	C	0.658177	-0.500688	0.000080
C362	C	0.908177	-0.250688	0.250080
C363	C	1.158177	-0.000688	0.500080
C364	C	1.408177	0.249312	0.750080
C365	C	0.481863	-0.476351	0.000040
C366	C	0.731863	-0.226351	0.250040
C367	C	0.981863	0.023649	0.500040
C368	C	1.231863	0.273649	0.750040
C369	C	0.481355	-0.526764	0.000033
C370	C	0.731355	-0.276764	0.250033
C371	C	0.981355	-0.026764	0.500033
C372	C	1.231355	0.223236	0.750033
C373	C	0.525177	-0.558054	0.000041
C374	C	0.775177	-0.308054	0.250041
C375	C	1.025177	-0.058054	0.500041
C376	C	1.275177	0.191946	0.750041
C377	C	0.658931	0.057699	0.000106
C378	C	0.908931	0.307699	0.250106
C379	C	1.158931	0.557699	0.500106
C380	C	1.408931	0.807699	0.750106
C381	C	0.712586	0.058252	0.000110
C382	C	0.962586	0.308252	0.250110
C383	C	1.212586	0.558252	0.500110
C384	C	1.462586	0.808252	0.750110
C385	C	0.566338	0.150292	0.000068
C386	C	0.816338	0.400292	0.250068
C387	C	1.066338	0.650292	0.500068
C388	C	1.316338	0.900292	0.750068
C389	C	0.566891	0.203947	0.000055
C390	C	0.816891	0.453947	0.250055
C391	C	1.066891	0.703947	0.500055
C392	C	1.316891	0.953947	0.750055
N393	N	0.570523	0.061887	0.228265
N394	N	0.820523	0.311887	0.478265
N395	N	1.070523	0.561887	0.728265
N396	N	1.320523	0.811887	0.978265
N397	N	0.570535	0.061887	-0.228084
N398	N	0.820535	0.311887	0.021916
N399	N	1.070535	0.561887	0.271916
N400	N	1.320535	0.811887	0.521916
C401	C	0.603642	0.028790	0.454002
C402	C	0.853642	0.278790	0.704002
C403	C	1.103642	0.528790	0.954002
C404	C	1.353642	0.778790	1.204002
C405	C	0.603644	0.028789	0.546191
C406	C	0.853644	0.278789	0.796191
C407	C	1.103644	0.528789	1.046191
C408	C	1.353644	0.778789	1.296191
C409	C	0.537413	0.094985	0.546172
C410	C	0.787413	0.344985	0.796172
C411	C	1.037413	0.594985	1.046172
C412	C	1.287413	0.844985	1.296172
C413	C	0.537409	0.094984	0.453984
C414	C	0.787409	0.344984	0.703984
C415	C	1.037409	0.594984	0.953984
C416	C	1.287409	0.844984	1.203984
C417	C	0.570527	0.061886	0.407901
C418	C	0.820527	0.311886	0.657901
C419	C	1.070527	0.561886	0.907901
C420	C	1.320527	0.811886	1.157901
C421	C	0.570532	0.061887	0.592279
C422	C	0.820532	0.311887	0.842279
C423	C	1.070532	0.561887	1.092279
C424	C	1.320532	0.811887	1.342279
C425	C	0.570533	0.061886	0.692235
C426	C	0.820533	0.311886	0.942235
C427	C	1.070533	0.561886	1.192235
C428	C	1.320533	0.811886	1.442235
C429	C	0.570525	0.061887	0.307939
C430	C	0.820525	0.311887	0.557939
C431	C	1.070525	0.561887	0.807939
C432	C	1.320525	0.811887	1.057939
H433	H	0.057760	-0.062462	0.000146
H434	H	0.307760	0.187538	0.250146
H435	H	0.557760	0.437538	0.500146
H436	H	0.807760	0.687538	0.750146
O437	O	0.501684	0.130679	0.404259
O438	O	0.751684	0.380679	0.654259
O439	O	1.001684	0.630679	0.904259
O440	O	1.251684	0.880679	1.154259
H441	H	0.507240	0.125111	0.332413
H442	H	0.757240	0.375111	0.582413
H443	H	1.007240	0.625111	0.832413
H444	H	1.257240	0.875111	1.082413
H445	H	0.630609	0.001838	0.583724
H446	H	0.880609	0.251838	0.833724
H447	H	1.130609	0.501838	1.083724
H448	H	1.380609	0.751838	1.333724
O449	O	0.501699	0.130688	0.595875
O450	O	0.751699	0.380688	0.845875
O451	O	1.001699	0.630688	1.095875
O452	O	1.251699	0.880688	1.345875
H453	H	0.507269	0.125133	0.667724
H454	H	0.757269	0.375133	0.917724
H455	H	1.007269	0.625133	1.167724
H456	H	1.257269	0.875133	1.417724
H457	H	0.693347	-0.576585	0.000083
H458	H	0.943347	-0.326585	0.250083
H459	H	1.193347	-0.076585	0.500083
H460	H	1.443347	0.173415	0.750083
O461	O	0.436127	-0.291358	0.000026
O462	O	0.686127	-0.041358	0.250026
O463	O	0.936127	0.208642	0.500026
O464	O	1.186127	0.458642	0.750026
H465	H	0.443928	-0.253088	0.000027
H466	H	0.693928	-0.003088	0.250027
H467	H	0.943928	0.246912	0.500027
H468	H	1.193928	0.496912	0.750027
O469	O	0.475245	-0.785380	0.000046
O470	O	0.725245	-0.535380	0.250046
O471	O	0.975245	-0.285380	0.500046
O472	O	1.225245	-0.035380	0.750046
H473	H	0.482245	-0.825693	0.000056
H474	H	0.732245	-0.575693	0.250056
H475	H	0.982245	-0.325693	0.500056
H476	H	1.232245	-0.075693	0.750056
O477	O	0.443095	-0.026078	0.000090
O478	O	0.693095	0.223922	0.250090
O479	O	0.943095	0.473922	0.500090
O480	O	1.193095	0.723922	0.750090
H481	H	0.436336	-0.047312	0.059790
H482	H	0.686336	0.202688	0.309790
H483	H	0.936336	0.452688	0.559790
H484	H	1.186336	0.702688	0.809790
H485	H	-0.067947	0.184708	0.000082
H486	H	0.182053	0.434708	0.250082
H487	H	0.432053	0.684708	0.500082
H488	H	0.682053	0.934708	0.750082
H489	H	0.412743	0.145454	0.000037
H490	H	0.662743	0.395454	0.250037
H491	H	0.912743	0.645454	0.500037
H492	H	1.162743	0.895454	0.750037
O493	O	0.313021	0.156114	0.000054
O494	O	0.563021	0.406114	0.250054
O495	O	0.813021	0.656114	0.500054
O496	O	1.063021	0.906114	0.750054
H497	H	0.289767	0.157997	0.059753
H498	H	0.539767	0.407997	0.309753
H499	H	0.789767	0.657997	0.559753
H500	H	1.039767	0.907997	0.809753
O501	O	0.665809	-0.090836	0.000130
O502	O	0.915809	0.159164	0.250130
O503	O	1.165809	0.409164	0.500130
O504	O	1.415809	0.659164	0.750130
H505	H	0.696194	-0.121068	0.000121
H506	H	0.946194	0.128932	0.250121
H507	H	1.196194	0.378932	0.500121
H508	H	1.446194	0.628932	0.750121
O509	O	0.028572	0.197360	0.000085
O510	O	0.278572	0.447360	0.250085
O511	O	0.528572	0.697360	0.500085
O512	O	0.778572	0.947360	0.750085
H513	H	-0.001662	0.227742	0.000091
H514	H	0.248338	0.477742	0.250091
H515	H	0.498338	0.727742	0.500091
H516	H	0.748338	0.977742	0.750091
H517	H	0.174750	0.187180	0.000051
H518	H	0.424750	0.437180	0.250051
H519	H	0.674750	0.687180	0.500051
H520	H	0.924750	0.937180	0.750051
O521	O	-0.038742	-0.075111	0.000160
O522	O	0.211258	0.174889	0.250160
O523	O	0.461258	0.424889	0.500160
O524	O	0.711258	0.674889	0.750160
H525	H	-0.079056	-0.068111	0.000159
H526	H	0.170944	0.181889	0.250159
H527	H	0.420944	0.431889	0.500159
H528	H	0.670944	0.681889	0.750159
O529	O	0.664751	-0.195621	0.000132
O530	O	0.914751	0.054379	0.250132
O531	O	1.164751	0.304379	0.500132
O532	O	1.414751	0.554379	0.750132
H533	H	0.685993	-0.188851	-0.059548
H534	H	0.935993	0.061149	0.190452
H535	H	1.185993	0.311149	0.440452
H536	H	1.435993	0.561149	0.690452
O537	O	0.075029	0.197832	0.000058
O538	O	0.325029	0.447832	0.250058
O539	O	0.575029	0.697832	0.500058
O540	O	0.825029	0.947832	0.750058
H541	H	0.096803	0.228742	0.000041
H542	H	0.346803	0.478742	0.250041
H543	H	0.596803	0.728742	0.500041
H544	H	0.846803	0.978742	0.750041
H545	H	0.695819	-0.333889	0.000114
H546	H	0.945819	-0.083889	0.250114
H547	H	1.195819	0.166111	0.500114
H548	H	1.445819	0.416111	0.750114
O549	O	0.433530	-0.547385	0.000017
O550	O	0.683530	-0.297385	0.250017
O551	O	0.933530	-0.047385	0.500017
O552	O	1.183530	0.202615	0.750017
H553	H	0.403146	-0.517152	0.000005
H554	H	0.653146	-0.267152	0.250005
H555	H	0.903146	-0.017152	0.500005
H556	H	1.153146	0.232848	0.750005
H557	H	0.487892	-0.688875	0.000035
H558	H	0.737892	-0.438875	0.250035
H559	H	0.987892	-0.188875	0.500035
H560	H	1.237892	0.061125	0.750035
H561	H	-0.202311	0.139207	0.000084
H562	H	0.047689	0.389207	0.250084
H563	H	0.297689	0.639207	0.500084
H564	H	0.547689	0.889207	0.750084
H565	H	-0.293777	0.138273	0.000091
H566	H	-0.043777	0.388273	0.250091
H567	H	0.206223	0.638273	0.500091
H568	H	0.456223	0.888273	0.750091
O569	O	-0.276742	-0.033393	0.000140
O570	O	-0.026742	0.216607	0.250140
O571	O	0.223258	0.466607	0.500140
O572	O	0.473258	0.716607	0.750140
H573	H	-0.264145	-0.054434	-0.059542
H574	H	-0.014145	0.195566	0.190458
H575	H	0.235855	0.445566	0.440458
H576	H	0.485855	0.695566	0.690458
O577	O	0.706471	-0.433610	0.000117
O578	O	0.956471	-0.183610	0.250117
O579	O	1.206471	0.066390	0.500117
O580	O	1.456471	0.316390	0.750117
H581	H	0.737381	-0.411835	0.000137
H582	H	0.987381	-0.161835	0.250137
H583	H	1.237381	0.088165	0.500137
H584	H	1.487381	0.338165	0.750137
H585	H	0.446177	-0.450879	0.000032
H586	H	0.696177	-0.200879	0.250032
H587	H	0.946177	0.049121	0.500032
H588	H	1.196177	0.299121	0.750032
O589	O	-0.171962	-0.032328	0.000137
O590	O	0.078038	0.217672	0.250137
O591	O	0.328038	0.467672	0.500137
O592	O	0.578038	0.717672	0.750137
H593	H	-0.193735	-0.063239	0.000136
H594	H	0.056265	0.186761	0.250136
H595	H	0.306265	0.436761	0.500136
H596	H	0.556265	0.686761	0.750136
H597	H	0.117558	-0.061861	0.000155
H598	H	0.367558	0.188139	0.250155
H599	H	0.617558	0.438139	0.500155
H600	H	0.867558	0.688139	0.750155
H601	H	0.630608	0.001839	0.416483
H602	H	0.880608	0.251839	0.666483
H603	H	1.130608	0.501839	0.916483
H604	H	1.380608	0.751839	1.166483
H605	H	0.209009	-0.060929	0.000156
H606	H	0.459009	0.189071	0.250156
H607	H	0.709009	0.439071	0.500156
H608	H	0.959009	0.689071	0.750156
H609	H	0.647846	-0.710950	0.000084
H610	H	0.897846	-0.460950	0.250084
H611	H	1.147846	-0.210950	0.500084
H612	H	1.397846	0.039050	0.750084
O613	O	0.338300	-0.027142	0.000101
O614	O	0.588300	0.222858	0.250101
O615	O	0.838300	0.472858	0.500101
O616	O	1.088300	0.722858	0.750101
H617	H	0.368531	-0.057528	0.000111
H618	H	0.618531	0.192472	0.250111
H619	H	0.868531	0.442472	0.500111
H620	H	1.118531	0.692472	0.750111
H621	H	0.446777	-0.391080	0.000019
H622	H	0.696777	-0.141080	0.250019
H623	H	0.946777	0.108920	0.500019
H624	H	1.196777	0.358920	0.750019
O625	O	0.658497	-0.810683	0.000066
O626	O	0.908497	-0.560683	0.250066
O627	O	1.158497	-0.310683	0.500066
O628	O	1.408497	-0.060683	0.750066
H629	H	0.650687	-0.848950	0.000056
H630	H	0.900687	-0.598950	0.250056
H631	H	1.150687	-0.348950	0.500056
H632	H	1.400687	-0.098950	0.750056
H633	H	0.493213	-0.165279	0.000107
H634	H	0.743213	0.084721	0.250107
H635	H	0.993213	0.334721	0.500107
H636	H	1.243213	0.584721	0.750107
H637	H	0.494146	-0.073812	0.000100
H638	H	0.744146	0.176188	0.250100
H639	H	0.994146	0.426188	0.500100
H640	H	1.244146	0.676188	0.750100
H641	H	0.694282	-0.485125	0.000094
H642	H	0.944282	-0.235125	0.250094
H643	H	1.194282	0.014875	0.500094
H644	H	1.444282	0.264875	0.750094
