data_functionalizedCrystal
_audit_creation_method	'MofGen! by Chris Wilmer'
_symmetry_space_group_name_H-M	'P1'
_symmetry_Int_Tables_number	1
_symmetry_cell_setting	triclinic
loop_
_symmetry_equiv_pos_as_xyz
  x,y,z
_cell_length_a	16.959455
_cell_length_b	11.169416
_cell_length_c	11.169409
_cell_angle_alpha	89.968635
_cell_angle_beta	89.971901
_cell_angle_gamma	90.007169
loop_
_atom_site_label
_atom_site_type_symbol
_atom_site_fract_x
_atom_site_fract_y
_atom_site_fract_z
Zn1	Zn	1.208499	-0.477805	-0.678816
Zn2	Zn	1.208426	-0.678546	-0.478136
Zn3	Zn	1.076309	-0.477865	-0.478121
Zn4	Zn	1.076315	-0.678435	-0.678752
O5	O	1.142387	-0.578163	-0.578456
O6	O	1.319100	-0.504455	-0.652228
O7	O	1.190868	-0.651996	-0.310184
O8	O	1.093873	-0.309907	-0.504764
O9	O	1.319047	-0.651939	-0.504790
O10	O	1.190991	-0.309863	-0.652214
O11	O	1.093802	-0.504557	-0.310173
O12	O	0.965699	-0.504449	-0.504702
O13	O	1.093882	-0.651749	-0.846710
O14	O	0.965703	-0.651807	-0.652105
O15	O	1.190997	-0.504348	-0.846757
O16	O	1.190873	-0.846481	-0.504728
O17	O	1.093811	-0.846399	-0.652119
C18	C	0.937021	-0.578123	-0.578396
C19	C	0.849164	-0.578136	-0.578398
C20	C	1.142357	-0.889987	-0.578444
C21	C	1.142416	-1.023387	-0.578480
C22	C	0.477650	-0.654881	-0.501646
C23	C	0.477727	-0.501544	-0.655413
C24	C	0.560273	-0.501524	-0.655384
C25	C	0.601511	-0.578185	-0.578486
C26	C	0.560204	-0.654866	-0.501617
C27	C	0.601587	-0.424853	-0.732259
C28	C	0.684138	-0.424831	-0.732234
C29	C	0.725377	-0.501487	-0.655329
C30	C	0.684065	-0.578170	-0.578457
C31	C	0.725303	-0.654831	-0.501559
C32	C	0.683992	-0.731509	-0.424679
C33	C	0.601444	-0.731522	-0.424712
C34	C	0.807926	-0.501474	-0.655296
C35	C	0.807857	-0.654817	-0.501530
C36	C	1.348555	-0.578203	-0.578518
C37	C	1.436412	-0.578220	-0.578544
C38	C	1.142448	-0.578029	-0.891499
C39	C	1.142474	-0.577973	-1.024899
C40	C	1.142439	-0.265120	-0.578494
C41	C	1.142462	-0.131720	-0.578511
C42	C	1.142372	-0.578209	-0.266632
C43	C	1.142499	-0.577927	-0.133232
H44	H	0.717579	-0.793933	-0.362075
H45	H	0.444011	-0.717307	-0.439049
N46	N	0.852481	-0.418802	-0.738227
H47	H	0.911033	-0.430429	-0.726547
H48	H	0.838085	-0.437614	-0.823906
H49	H	0.567801	-0.793949	-0.362120
N50	N	0.433254	-0.418871	-0.738356
H51	H	0.374691	-0.430518	-0.726713
H52	H	0.447671	-0.333131	-0.719812
H53	H	0.568004	-0.362447	-0.794873
N54	N	0.852334	-0.737493	-0.418579
H55	H	0.813636	-0.786064	-0.369884
H56	H	0.886605	-0.793089	-0.467324
H57	H	0.717766	-0.362395	-0.794834
