data_functionalizedCrystal
_audit_creation_method	'MofGen! by Chris Wilmer'
_symmetry_space_group_name_H-M	'P1'
_symmetry_Int_Tables_number	1
_symmetry_cell_setting	triclinic
loop_
_symmetry_equiv_pos_as_xyz
  x,y,z
_cell_length_a	19.288835
_cell_length_b	10.065875
_cell_length_c	19.288865
_cell_angle_alpha	81.246539
_cell_angle_beta	96.869897
_cell_angle_gamma	81.276399
loop_
_atom_site_label
_atom_site_type_symbol
_atom_site_fract_x
_atom_site_fract_y
_atom_site_fract_z
O1	O	-0.931582	0.113778	0.076280
O2	O	-0.729314	0.113724	0.087995
O3	O	-0.836290	0.113725	-0.018991
O4	O	-0.824606	0.113776	0.183266
O5	O	-0.815891	-0.113264	0.001491
O6	O	-0.708914	-0.113265	0.108478
O7	O	-0.911183	-0.113211	0.096762
Zn8	Zn	-0.806810	-0.149278	0.105872
Zn9	Zn	-0.833687	0.149790	0.078885
O10	O	-0.804206	-0.113213	0.203749
C11	C	-0.693237	0.000222	0.097864
C12	C	-0.616130	0.000200	0.096745
C13	C	-0.591046	0.123934	0.085042
C14	C	-0.518600	0.123947	0.083980
C15	C	-0.471242	0.000220	0.094608
C16	C	-0.496333	-0.123530	0.106317
C17	C	-0.568777	-0.123540	0.107386
C18	C	-0.353396	-0.094568	0.060785
C19	C	-0.280954	-0.094553	0.059712
C20	C	-0.247800	0.000245	0.091316
C21	C	-0.287100	0.095051	0.123982
C22	C	-0.359544	0.095041	0.125050
C23	C	-0.392688	0.000217	0.093451
C24	C	-0.144163	0.124001	0.078461
C25	C	-0.071715	0.124010	0.077404
C26	C	-0.049449	-0.123471	0.099734
C27	C	-0.121895	-0.123476	0.100798
C28	C	-0.169249	0.000264	0.090158
N29	N	-0.788472	-0.353384	0.124289
C30	C	-0.827302	-0.421162	0.085289
C31	C	-0.813194	-0.578329	0.099469
C32	C	0.052741	0.000283	0.086899
C33	C	-0.024361	0.000281	0.088033
C34	C	-0.825714	0.000227	-0.034626
C35	C	-0.824584	0.000214	-0.111728
N36	N	-0.852030	0.353896	0.060463
C37	C	-0.887353	0.000224	-0.156432
C38	C	-0.886295	0.000246	-0.228881
C39	C	-0.822460	0.000229	-0.256620
C40	C	-0.759683	0.000227	-0.211907
C41	C	-0.760745	0.000219	-0.139461
C42	C	-0.765133	-0.079293	-0.357727
C43	C	-0.764073	-0.079294	-0.430171
C44	C	-0.819183	0.000259	-0.480068
C45	C	-0.875363	0.079795	-0.457512
C46	C	-0.876425	0.079788	-0.385066
C47	C	-0.821302	0.000239	-0.335175
C48	C	-0.880809	0.000294	-0.603330
C49	C	-0.879749	0.000324	-0.675781
C50	C	-0.753134	0.000292	-0.658804
C51	C	-0.754198	0.000276	-0.586356
C52	C	-0.818037	0.000270	-0.558624
C53	C	-0.814783	0.000289	0.219383
C54	C	-0.815914	0.000310	0.296485
H55	H	-0.380383	-0.171770	0.035048
C56	C	-0.911058	-0.567320	0.001172
N57	N	-0.955520	-0.507979	-0.043484
H58	H	-0.182719	0.224758	0.069804
H59	H	-0.744781	-0.411710	0.168174
H60	H	-0.260107	0.172240	0.149720
H61	H	-0.939337	0.000225	-0.133858
C62	C	-0.402760	0.199264	0.161025
N63	N	-0.435307	0.277743	0.188137
C64	C	-0.886312	-0.342370	0.025986
N65	N	-0.930757	-0.283025	-0.018685
C66	C	-0.689464	0.000199	-0.242421
N67	N	-0.636573	0.000179	-0.265403
H68	H	-0.769501	-0.636651	0.143356
C69	C	-0.237730	-0.198851	0.023786
N70	N	-0.205174	-0.277417	-0.003270
C71	C	-0.044125	0.260134	0.064525
N72	N	-0.023344	0.362665	0.054822
C73	C	-0.951035	0.000309	-0.572824
N74	N	-1.003930	0.000325	-0.549848
C75	C	-0.955348	0.000248	-0.278064
N76	N	-1.007359	0.000246	-0.315106
H77	H	-0.922167	0.144552	-0.366705
H78	H	-0.709628	0.000211	-0.103062
H79	H	-0.010890	-0.224212	0.108392
H80	H	-0.920239	0.144576	-0.498139
H81	H	-0.930866	0.000340	-0.712180
H82	H	-0.701159	0.000285	-0.681389
H83	H	-0.703083	0.000260	-0.549956
C84	C	-0.704506	-0.166820	-0.302844
N85	N	-0.658844	-0.232746	-0.261508
C86	C	-0.643131	0.260052	0.073335
N87	N	-0.682363	0.362577	0.064517
C88	C	-0.491002	0.260069	0.071100
N89	N	-0.470217	0.362596	0.061396
H90	H	-0.718326	-0.144049	-0.448530
C91	C	-0.444238	-0.259630	0.118007
N92	N	-0.404999	-0.362146	0.126814
H93	H	-0.589198	-0.224302	0.116917
C94	C	-0.149490	-0.259594	0.113663
N95	N	-0.170272	-0.362125	0.123354
