data_functionalizedCrystal
_audit_creation_method	'MofGen! by Chris Wilmer'
_symmetry_space_group_name_H-M	'P1'
_symmetry_Int_Tables_number	1
_symmetry_cell_setting	triclinic
loop_
_symmetry_equiv_pos_as_xyz
  x,y,z
_cell_length_a	14.971486
_cell_length_b	15.944564
_cell_length_c	14.048226
_cell_angle_alpha	89.991746
_cell_angle_beta	89.996377
_cell_angle_gamma	96.440968
loop_
_atom_site_label
_atom_site_type_symbol
_atom_site_fract_x
_atom_site_fract_y
_atom_site_fract_z
O1	O	1.186827	-0.109464	0.079054
O2	O	1.686827	0.390536	0.579054
O3	O	0.926414	-0.122572	0.079080
O4	O	1.426414	0.377428	0.579080
O5	O	1.063726	0.006249	0.079057
O6	O	1.563726	0.506249	0.579057
O7	O	1.049515	-0.238286	0.079077
O8	O	1.549515	0.261714	0.579077
O9	O	1.063723	0.006260	-0.079264
O10	O	1.563723	0.506260	0.420736
O11	O	0.926411	-0.122562	-0.079241
O12	O	1.426411	0.377438	0.420759
O13	O	1.186825	-0.109454	-0.079268
O14	O	1.686825	0.390546	0.420732
Zn15	Zn	1.056617	-0.116006	-0.104391
Zn16	Zn	1.556617	0.383994	0.395609
Zn17	Zn	1.056621	-0.116020	0.104204
Zn18	Zn	1.556621	0.383980	0.604204
O19	O	1.049512	-0.238275	-0.079245
O20	O	1.549512	0.261725	0.420755
C21	C	0.893088	-0.121981	-0.000077
C22	C	1.393088	0.378019	0.499923
C23	C	0.793793	-0.120224	-0.000068
C24	C	1.293793	0.379776	0.499932
C25	C	1.063133	0.037549	-0.000104
C26	C	1.563133	0.537549	0.499896
C27	C	1.061358	0.130796	-0.000105
C28	C	1.561358	0.630796	0.499895
C29	C	0.736490	-0.195903	-0.000063
C30	C	1.236490	0.304097	0.499937
C31	C	0.643192	-0.194248	-0.000077
C32	C	1.143192	0.305752	0.499923
C33	C	0.607199	-0.116912	-0.000090
C34	C	1.107199	0.383088	0.499910
C35	C	0.664510	-0.041227	-0.000097
C36	C	1.164510	0.458773	0.499903
C37	C	0.757806	-0.042884	-0.000090
C38	C	1.257806	0.457116	0.499910
C39	C	0.470051	-0.037780	-0.000111
C40	C	0.970051	0.462220	0.499889
C41	C	0.376749	-0.036123	-0.000116
C42	C	0.876749	0.463877	0.499884
C43	C	0.355437	-0.189144	-0.000098
C44	C	0.855437	0.310856	0.499902
C45	C	0.448733	-0.190800	-0.000091
C46	C	0.948733	0.309200	0.499909
C47	C	0.506037	-0.115115	-0.000097
C48	C	1.006037	0.384885	0.499903
C49	C	1.220150	-0.110045	-0.000108
C50	C	1.720150	0.389955	0.499892
C51	C	1.319445	-0.111802	-0.000112
C52	C	1.819445	0.388198	0.499888
N53	N	1.056624	-0.116023	0.246564
N54	N	1.556624	0.383977	0.746564
C55	C	0.972000	0.345736	-0.000084
C56	C	1.472000	0.845736	0.499916
C57	C	1.013486	0.406719	-0.078150
C58	C	1.513486	0.906719	0.421850
C59	C	1.058147	0.301524	-0.000098
C60	C	1.558147	0.801524	0.499902
C61	C	1.013509	0.406692	0.077942
C62	C	1.513509	0.906692	0.577942
C63	C	1.055040	0.466438	-0.000087
C64	C	1.555040	0.966438	0.499913
C65	C	1.099657	0.361278	-0.078229
C66	C	1.599657	0.861278	0.421771
C67	C	1.099668	0.361245	0.077934
C68	C	1.599668	0.861245	0.577934
C69	C	1.141216	0.422210	-0.000152
C70	C	1.641216	0.922210	0.499848
C71	C	1.059935	0.206520	-0.000105
C72	C	1.559935	0.706520	0.499895
C73	C	1.053259	0.561441	-0.000087
C74	C	1.553259	1.061441	0.499913
C75	C	1.050093	0.730424	-0.000083
C76	C	1.550093	1.230424	0.499917
C77	C	1.051832	0.637172	-0.000079
C78	C	1.551832	1.137172	0.499921
N79	N	1.056621	-0.115996	-0.246752
N80	N	1.556621	0.384004	0.253248
C81	C	1.117539	-0.059094	0.296372
C82	C	1.617539	0.440906	0.796372
C83	C	1.117543	-0.059091	0.396030
C84	C	1.617543	0.440909	0.896030
C85	C	1.056627	-0.116015	0.445878
C86	C	1.556627	0.383985	0.945878
C87	C	0.995709	-0.172951	0.396063
C88	C	1.495709	0.327049	0.896063
C89	C	0.995710	-0.172957	0.296407
C90	C	1.495710	0.327043	0.796407
C91	C	0.995709	-0.172933	0.603777
C92	C	1.495709	0.327067	1.103777
C93	C	0.995706	-0.172926	0.703440
C94	C	1.495706	0.327074	1.203440
C95	C	1.117542	-0.059067	0.703400
C96	C	1.617542	0.440933	1.203400
C97	C	1.117543	-0.059073	0.603744
C98	C	1.617543	0.440927	1.103744
C99	C	1.056624	-0.116008	0.553936
C100	C	1.556624	0.383992	1.053936
H101	H	0.765787	-0.258879	-0.000052
H102	H	1.265787	0.241121	0.499948
C103	C	1.184538	0.003561	0.548913
C104	C	1.684538	0.503561	1.048913
N105	N	1.234997	0.050741	0.507615
N106	N	1.734997	0.550741	1.007615
C107	C	0.928696	-0.235582	0.241619
C108	C	1.428696	0.264418	0.741619
N109	N	0.878221	-0.282755	0.200354
N110	N	1.378221	0.217245	0.700354
H111	H	0.900497	0.312497	-0.000154
H112	H	1.400497	0.812497	0.499846
C113	C	0.820840	0.040369	-0.000092
C114	C	1.320840	0.540369	0.499908
N115	N	0.868316	0.103078	-0.000096
N116	N	1.368316	0.603078	0.499904
H117	H	1.136062	0.341258	-0.144300
H118	H	1.636062	0.841258	0.355700
H119	H	0.977047	0.426866	-0.144142
H120	H	1.477047	0.926866	0.355858
H121	H	1.212781	0.455300	-0.000203
H122	H	1.712781	0.955300	0.499797
H123	H	1.136074	0.341075	0.143929
H124	H	1.636074	0.841075	0.643929
C125	C	0.964267	0.433868	0.167102
C126	C	1.464267	0.933868	0.667102
N127	N	0.927172	0.454332	0.234253
N128	N	1.427172	0.954332	0.734253
H129	H	0.596539	-0.255873	-0.000072
H130	H	1.096539	0.244127	0.499928
C131	C	1.184551	0.003530	0.241549
C132	C	1.684551	0.503530	0.741549
N133	N	1.235028	0.050699	0.200258
N134	N	1.735028	0.550699	0.700258
C135	C	0.928692	-0.235563	0.548991
C136	C	1.428692	0.264437	1.048991
N137	N	0.878212	-0.282731	0.507726
N138	N	1.378212	0.217269	1.007726
H139	H	1.167145	-0.012735	0.436583
H140	H	1.667145	0.487265	0.936583
H141	H	0.347447	0.026851	-0.000128
H142	H	0.847447	0.526851	0.499872
C143	C	1.184567	0.003551	0.758191
C144	C	1.684567	0.503551	1.258191
N145	N	1.235049	0.050711	0.799463
N146	N	1.735049	0.550711	1.299463
C147	C	0.928624	-0.235477	0.758271
C148	C	1.428624	0.264523	1.258271
N149	N	0.878070	-0.282567	0.799569
N150	N	1.378070	0.217433	1.299569
H151	H	0.946112	-0.219303	0.436655
H152	H	1.446112	0.280697	0.936655
H153	H	0.478035	-0.253774	-0.000072
H154	H	0.978035	0.246226	0.499928
H155	H	0.516706	0.023852	-0.000117
H156	H	1.016706	0.523852	0.499883
C157	C	0.292400	-0.272399	-0.000097
C158	C	0.792400	0.227601	0.499903
N159	N	0.244918	-0.335104	-0.000093
N160	N	0.744918	0.164896	0.499907
H161	H	0.635197	0.021741	-0.000121
H162	H	1.135197	0.521741	0.499879
